data_functionalizedCrystal
_audit_creation_method	'MofGen! by Chris Wilmer'
_symmetry_space_group_name_H-M	'P1'
_symmetry_Int_Tables_number	1
_symmetry_cell_setting	triclinic
loop_
_symmetry_equiv_pos_as_xyz
  x,y,z
_cell_length_a	19.288840
_cell_length_b	13.185407
_cell_length_c	17.766277
_cell_angle_alpha	89.992547
_cell_angle_beta	89.983415
_cell_angle_gamma	67.549750
loop_
_atom_site_label
_atom_site_type_symbol
_atom_site_fract_x
_atom_site_fract_y
_atom_site_fract_z
O1	O	0.896205	0.136038	-0.062715
O2	O	1.396205	0.636038	0.437285
O3	O	0.690540	0.154435	-0.062688
O4	O	1.190540	0.654435	0.437312
O5	O	0.828609	-0.013690	-0.062703
O6	O	1.328609	0.486310	0.437297
O7	O	0.758136	0.304163	-0.062699
O8	O	1.258136	0.804163	0.437301
O9	O	0.828592	-0.013699	0.062485
O10	O	1.328592	0.486301	0.562485
O11	O	0.690522	0.154427	0.062501
O12	O	1.190522	0.654427	0.562501
O13	O	0.896188	0.136029	0.062474
O14	O	1.396188	0.636029	0.562474
Cu15	Cu	0.793354	0.145227	0.073918
Cu16	Cu	1.293354	0.645227	0.573918
Cu17	Cu	0.793374	0.145237	-0.074132
Cu18	Cu	1.293374	0.645237	0.425868
O19	O	0.758119	0.304155	0.062489
O20	O	1.258119	0.804155	0.562489
C21	C	0.664763	0.153844	-0.000090
C22	C	1.164763	0.653844	0.499910
C23	C	0.587985	0.152080	-0.000080
C24	C	1.087985	0.652080	0.499920
C25	C	0.551947	0.151238	-0.068322
C26	C	1.051947	0.651238	0.431678
C27	C	0.479809	0.149569	-0.068332
C28	C	0.979809	0.649569	0.431668
C29	C	0.443717	0.148720	-0.000095
C30	C	0.943717	0.648720	0.499905
C31	C	0.479761	0.149569	0.068156
C32	C	0.979761	0.649569	0.568156
C33	C	0.551895	0.151249	0.068164
C34	C	1.051895	0.651249	0.568164
C35	C	0.346698	0.082120	0.052173
C36	C	0.846698	0.582120	0.552173
C37	C	0.274568	0.080434	0.052163
C38	C	0.774568	0.580434	0.552163
C39	C	0.221230	0.143544	-0.000115
C40	C	0.721230	0.643544	0.499885
C41	C	0.240037	0.208327	-0.052394
C42	C	0.740037	0.708327	0.447606
C43	C	0.312171	0.210007	-0.052387
C44	C	0.812171	0.710007	0.447613
C45	C	0.365499	0.146900	-0.000095
C46	C	0.865499	0.646900	0.499905
C47	C	0.106972	0.140893	-0.068371
C48	C	0.606972	0.640893	0.431629
C49	C	0.034831	0.139231	-0.068378
C50	C	0.534831	0.639231	0.431622
C51	C	0.034788	0.139220	0.068112
C52	C	0.534788	0.639220	0.568112
C53	C	0.106925	0.140894	0.068117
C54	C	0.606925	0.640894	0.568117
C55	C	0.143014	0.141725	-0.000127
C56	C	0.643014	0.641725	0.499873
C57	C	0.835745	-0.054359	-0.000111
C58	C	1.335745	0.445641	0.499889
C59	C	0.857025	-0.175527	-0.000116
C60	C	1.357025	0.324473	0.499884
C61	C	0.653936	-0.463755	-0.000097
C62	C	1.153936	0.036245	0.499903
C63	C	0.633940	-0.349912	-0.000099
C64	C	1.133940	0.150088	0.499901
C65	C	0.689709	-0.306310	-0.000103
C66	C	1.189709	0.193690	0.499897
C67	C	0.765478	-0.376563	-0.000105
C68	C	1.265478	0.123437	0.499895
C69	C	0.785476	-0.490418	-0.000109
C70	C	1.285476	0.009582	0.499891
C71	C	0.821250	-0.332972	-0.000115
C72	C	1.321250	0.167028	0.499885
C73	C	0.897018	-0.403225	-0.000118
C74	C	1.397018	0.096775	0.499882
C75	C	0.917013	-0.517069	-0.000121
C76	C	1.417013	-0.017069	0.499879
C77	C	0.861243	-0.560671	-0.000117
C78	C	1.361243	-0.060671	0.499883
C79	C	0.801252	-0.219117	-0.000112
C80	C	1.301252	0.280883	0.499888
C81	C	0.932792	-0.245780	-0.000124
C82	C	1.432792	0.254220	0.499876
C83	C	0.952788	-0.359623	-0.000122
C84	C	1.452788	0.140377	0.499878
C85	C	0.921965	0.136621	-0.000125
C86	C	1.421965	0.636621	0.499875
C87	C	0.998743	0.138384	-0.000140
C88	C	1.498743	0.638384	0.499860
C89	C	0.750983	0.344824	-0.000105
C90	C	1.250983	0.844824	0.499895
C91	C	0.729703	0.465992	-0.000104
C92	C	1.229703	0.965992	0.499896
N93	N	0.793345	0.145220	0.178048
N94	N	1.293345	0.645220	0.678048
N95	N	0.793390	0.145237	-0.178262
N96	N	1.293390	0.645237	0.321738
C97	C	0.854490	0.070810	0.217428
C98	C	1.354490	0.570810	0.717428
C99	C	0.854495	0.070805	0.296230
C100	C	1.354495	0.570805	0.796230
C101	C	0.793358	0.145228	0.335649
C102	C	1.293358	0.645228	0.835649
C103	C	0.732202	0.219644	0.296259
C104	C	1.232202	0.719644	0.796259
C105	C	0.732196	0.219639	0.217459
C106	C	1.232196	0.719639	0.717459
C107	C	0.765665	0.244686	0.460489
C108	C	1.265665	0.744686	0.960489
C109	C	0.765676	0.244692	0.539288
C110	C	1.265676	0.744692	1.039288
C111	C	0.793374	0.145241	0.578695
C112	C	1.293374	0.645241	1.078695
C113	C	0.821076	0.045781	0.539294
C114	C	1.321076	0.545781	1.039294
C115	C	0.821069	0.045777	0.460494
C116	C	1.321069	0.545777	0.960494
C117	C	0.793358	0.145241	0.421095
C118	C	1.293358	0.645241	0.921095
C119	C	0.854528	0.070820	0.703521
C120	C	1.354528	0.570820	1.203521
C121	C	0.854529	0.070814	0.782324
C122	C	1.354529	0.570814	1.282324
C123	C	0.732237	0.219662	0.782352
C124	C	1.232237	0.719662	1.282352
C125	C	0.732235	0.219659	0.703550
C126	C	1.232235	0.719659	1.203550
C127	C	0.793384	0.145239	0.664140
C128	C	1.293384	0.645239	1.164140
H129	H	0.327479	0.262758	-0.094953
H130	H	0.827479	0.762758	0.405047
C131	C	0.664985	0.301528	0.660226
C132	C	1.164985	0.801528	1.160226
H133	H	0.673736	0.290865	0.607651
H134	H	1.173736	0.790865	1.107651
H135	H	0.658921	0.374344	0.673136
H136	H	1.158921	0.874344	1.173136
H137	H	0.620807	0.289869	0.673157
H138	H	1.120807	0.789869	1.173157
C139	C	0.921780	-0.011048	0.660163
C140	C	1.421780	0.488952	1.160163
H141	H	0.913023	-0.000385	0.607592
H142	H	1.413023	0.499615	1.107592
H143	H	0.927849	-0.083865	0.673084
H144	H	1.427849	0.416135	1.173084
H145	H	0.965958	0.000616	0.673057
H146	H	1.465958	0.500616	1.173057
C147	C	0.146674	0.141818	-0.143433
C148	C	0.646674	0.641818	0.356567
H149	H	0.194800	0.142923	-0.133655
H150	H	0.694800	0.642923	0.366345
H151	H	0.117664	0.205185	-0.171474
H152	H	0.617664	0.705185	0.328526
H153	H	0.152061	0.077897	-0.171473
H154	H	0.652061	0.577897	0.328527
H155	H	0.005488	0.138552	-0.123951
H156	H	0.505488	0.638552	0.376049
C157	C	0.664940	0.301502	0.174135
C158	C	1.164940	0.801502	0.674135
H159	H	0.673692	0.290840	0.121560
H160	H	1.173692	0.790840	0.621560
H161	H	0.658870	0.374321	0.187045
H162	H	1.158870	0.874321	0.687045
H163	H	0.620763	0.289837	0.187065
H164	H	1.120763	0.789837	0.687065
H165	H	0.904320	0.010215	0.814388
H166	H	1.404320	0.510215	1.314388
C167	C	-0.004903	0.138292	0.143174
C168	C	0.495097	0.638292	0.643174
H169	H	0.026893	0.139039	0.183819
H170	H	0.526893	0.639039	0.683819
H171	H	-0.015846	0.074000	0.146009
H172	H	0.484154	0.574000	0.646009
H173	H	-0.050244	0.201288	0.146006
H174	H	0.449756	0.701288	0.646006
C175	C	0.405366	0.012698	0.109681
C176	C	0.905366	0.512698	0.609681
H177	H	0.451017	0.022984	0.102203
H178	H	0.951017	0.522984	0.602203
H179	H	0.413825	-0.062603	0.103098
H180	H	0.913825	0.437397	0.603098
H181	H	0.387450	0.034905	0.159223
H182	H	0.887450	0.534905	0.659223
C183	C	0.921759	-0.011047	0.339558
C184	C	1.421759	0.488953	0.839558
H185	H	0.958176	-0.055364	0.304800
H186	H	1.458176	0.444636	0.804800
H187	H	0.905255	-0.056381	0.370313
H188	H	1.405255	0.443619	0.870313
H189	H	0.943351	0.028117	0.370280
H190	H	1.443351	0.528117	0.870280
C191	C	1.000355	-0.594344	-0.000126
C192	C	1.500355	-0.094344	0.499874
H193	H	1.030706	-0.552075	-0.000121
H194	H	1.530706	-0.052075	0.499879
H195	H	1.010899	-0.639309	-0.043783
H196	H	1.510899	-0.139309	0.456217
H197	H	1.010879	-0.639312	0.043535
H198	H	1.510879	-0.139312	0.543535
C199	C	0.921761	-0.011019	0.174077
C200	C	1.421761	0.488981	0.674077
H201	H	0.913009	-0.000351	0.121506
H202	H	1.413009	0.499649	0.621506
H203	H	0.927863	-0.083853	0.186989
H204	H	1.427863	0.416147	0.686989
H205	H	0.965920	0.000692	0.186984
H206	H	1.465920	0.500692	0.686984
C207	C	0.550603	-0.272638	-0.000100
C208	C	1.050603	0.227362	0.499900
H209	H	0.546681	-0.198590	-0.000108
H210	H	1.046681	0.301410	0.499892
H211	H	0.526843	-0.285817	0.043555
H212	H	1.026843	0.214183	0.543555
H213	H	0.526872	-0.285821	-0.043762
H214	H	1.026872	0.214179	0.456238
H215	H	0.673424	-0.213612	-0.000104
H216	H	1.173424	0.286388	0.499896
H217	H	0.450370	0.148881	0.123715
H218	H	0.950370	0.648881	0.623715
C219	C	0.735210	0.354091	0.582621
C220	C	1.235210	0.854091	1.082621
H221	H	0.718702	0.413319	0.547868
H222	H	1.218702	0.913319	1.047868
H223	H	0.773797	0.359990	0.613342
H224	H	1.273797	0.859990	1.113342
H225	H	0.694323	0.356466	0.613380
H226	H	1.194323	0.856466	1.113380
H227	H	0.196609	0.259722	-0.094961
H228	H	0.696609	0.759722	0.405039
C229	C	0.664987	0.301526	0.825703
C230	C	1.164987	0.801526	1.325703
H231	H	0.673749	0.290876	0.878274
H232	H	1.173749	0.790876	1.378274
H233	H	0.620812	0.289865	0.812808
H234	H	1.120812	0.789865	1.312808
H235	H	0.658919	0.374349	0.812781
H236	H	1.158919	0.874349	1.312781
H237	H	0.259264	0.027678	0.094728
H238	H	0.759264	0.527678	0.594728
H239	H	0.450461	0.148885	-0.123904
H240	H	0.950461	0.648885	0.376096
H241	H	0.608537	-0.499268	-0.000099
H242	H	1.108537	0.000732	0.499901
C243	C	0.717914	-0.141848	-0.000107
C244	C	1.217914	0.358152	0.499893
H245	H	0.713988	-0.067798	-0.000112
H246	H	1.213988	0.432202	0.499888
H247	H	0.694159	-0.155035	0.043550
H248	H	1.194159	0.344965	0.543550
H249	H	0.694180	-0.155029	-0.043768
H250	H	1.194180	0.344971	0.456232
H251	H	0.877520	-0.653371	-0.000106
H252	H	1.377520	-0.153371	0.499894
C253	C	0.591543	0.152158	0.143233
C254	C	1.091543	0.652158	0.643233
H255	H	0.559721	0.151407	0.183873
H256	H	1.059721	0.651407	0.683873
H257	H	0.602488	0.216447	0.146078
H258	H	1.102488	0.716447	0.646078
H259	H	0.636880	0.089159	0.146066
H260	H	1.136880	0.589159	0.646066
H261	H	0.136269	0.141572	0.123687
H262	H	0.636269	0.641572	0.623687
C263	C	1.036129	-0.436903	-0.000130
C264	C	1.536129	0.063097	0.499870
H265	H	1.066483	-0.394638	-0.000127
H266	H	1.566483	0.105362	0.499873
H267	H	1.046670	-0.481868	-0.043786
H268	H	1.546670	0.018132	0.456214
H269	H	1.046653	-0.481871	0.043532
H270	H	1.546653	0.018129	0.543532
C271	C	0.851550	-0.063623	0.582628
C272	C	1.351550	0.436377	1.082628
H273	H	0.868052	-0.122853	0.547877
H274	H	1.368052	0.377147	1.047877
H275	H	0.812971	-0.069523	0.613386
H276	H	1.312971	0.430477	1.113386
H277	H	0.892443	-0.065991	0.613350
H278	H	1.392443	0.434009	1.113350
H279	H	0.978204	-0.210280	-0.000166
H280	H	1.478204	0.289720	0.499834
C281	C	0.735192	0.354085	0.417144
C282	C	1.235192	0.854085	0.917144
H283	H	0.739147	0.339839	0.364571
H284	H	1.239147	0.839839	0.864571
H285	H	0.763545	0.396712	0.430038
H286	H	1.263545	0.896712	0.930038
H287	H	0.684072	0.393186	0.430076
H288	H	1.184072	0.893186	0.930076
C289	C	0.591637	0.152168	-0.143388
C290	C	1.091637	0.652168	0.356612
H291	H	0.559836	0.151437	-0.184032
H292	H	1.059836	0.651437	0.315968
H293	H	0.636980	0.089187	-0.146225
H294	H	1.136980	0.589187	0.353775
H295	H	0.602570	0.216474	-0.146220
H296	H	1.102570	0.716474	0.353780
C297	C	0.664942	0.301489	0.339613
C298	C	1.164942	0.801489	0.839613
H299	H	0.628518	0.345795	0.304870
H300	H	1.128518	0.845795	0.804870
H301	H	0.681436	0.346837	0.370346
H302	H	1.181436	0.846837	0.870346
H303	H	0.643361	0.262314	0.370360
H304	H	1.143361	0.762314	0.870360
H305	H	0.843624	-0.035207	0.428417
H306	H	1.343624	0.464793	0.928417
