data_functionalizedCrystal
_audit_creation_method	'MofGen! by Chris Wilmer'
_symmetry_space_group_name_H-M	'P1'
_symmetry_Int_Tables_number	1
_symmetry_cell_setting	triclinic
loop_
_symmetry_equiv_pos_as_xyz
  x,y,z
_cell_length_a	18.215407
_cell_length_b	11.169416
_cell_length_c	11.169417
_cell_angle_alpha	89.996699
_cell_angle_beta	90.004354
_cell_angle_gamma	89.986463
loop_
_atom_site_label
_atom_site_type_symbol
_atom_site_fract_x
_atom_site_fract_y
_atom_site_fract_z
Zn1	Zn	1.125020	0.477989	0.678690
Zn2	Zn	1.124987	0.678642	0.478022
Zn3	Zn	1.001986	0.477974	0.478012
Zn4	Zn	1.001944	0.678630	0.678654
O5	O	1.063484	0.578309	0.578345
O6	O	1.228000	0.504617	0.652090
O7	O	1.108674	0.652022	0.310071
O8	O	1.018338	0.310026	0.504643
O9	O	1.227975	0.652037	0.504660
O10	O	1.108730	0.310037	0.652080
O11	O	1.018306	0.504592	0.310064
O12	O	0.898996	0.504579	0.504609
O13	O	1.018266	0.652015	0.846609
O14	O	0.898965	0.652001	0.652020
O15	O	1.108690	0.504605	0.846635
O16	O	1.108633	0.846590	0.504626
O17	O	1.018234	0.846581	0.652029
C18	C	0.872278	0.578288	0.578310
C19	C	0.790479	0.578308	0.578324
C20	C	1.063446	0.890133	0.578351
C21	C	1.063497	1.023533	0.578394
C22	C	1.063477	0.578310	0.891387
C23	C	1.063474	0.578311	1.024787
C24	C	0.602288	0.655191	0.654985
C25	C	0.525429	0.655195	0.655000
C26	C	0.525432	0.501448	0.501731
C27	C	0.602289	0.501439	0.501723
C28	C	0.640715	0.578317	0.578348
C29	C	0.486999	0.578330	0.578371
C30	C	0.403666	0.578334	0.578387
C31	C	0.724054	0.578313	0.578334
C32	C	1.255437	0.578330	0.578380
C33	C	1.337236	0.578339	0.578395
C34	C	1.063535	1.265266	0.578377
C35	C	1.063538	1.131866	0.578423
C36	C	1.063482	0.578329	1.266520
C37	C	1.063476	0.578313	1.133120
H38	H	0.633572	0.717787	0.717381
O39	O	0.488215	0.729986	0.729480
C40	C	0.538615	0.797810	0.797128
H41	H	0.593396	0.801885	0.747952
H42	H	0.546805	0.754000	0.888348
C43	C	0.441325	0.920570	0.874625
C44	C	0.508606	0.925583	0.814222
H45	H	0.422814	0.999385	0.885176
H46	H	0.407369	0.874873	0.829054
H47	H	0.448159	0.884056	0.950636
H48	H	0.501769	0.962082	0.738208
H49	H	0.542560	0.971289	0.859781
O50	O	0.488138	0.426606	0.427421
C51	C	0.506948	0.307028	0.453818
H52	H	0.528081	0.301111	0.549707
H53	H	0.551560	0.275555	0.389520
C54	C	0.412725	0.234182	0.322205
C55	C	0.438675	0.226913	0.439981
H56	H	0.370613	0.184760	0.313665
H57	H	0.400054	0.314743	0.304417
H58	H	0.449908	0.207956	0.268637
H59	H	0.401495	0.253151	0.493545
H60	H	0.451339	0.146353	0.457778
O61	O	0.639589	0.426888	0.427100
C62	C	0.620786	0.452916	0.307442
H63	H	0.599646	0.548788	0.301230
H64	H	0.576179	0.388525	0.276173
C65	C	0.715022	0.321071	0.234994
C66	C	0.689064	0.438826	0.227363
H67	H	0.757138	0.312375	0.185596
H68	H	0.727689	0.303531	0.315609
H69	H	0.677844	0.267425	0.208939
H70	H	0.726238	0.492468	0.253432
H71	H	0.676404	0.456374	0.146750
