data_functionalizedCrystal
_audit_creation_method	'MofGen! by Chris Wilmer'
_symmetry_space_group_name_H-M	'P1'
_symmetry_Int_Tables_number	1
_symmetry_cell_setting	triclinic
loop_
_symmetry_equiv_pos_as_xyz
  x,y,z
_cell_length_a	16.120530
_cell_length_b	25.639239
_cell_length_c	16.120297
_cell_angle_alpha	92.868703
_cell_angle_beta	90.128140
_cell_angle_gamma	87.134054
loop_
_atom_site_label
_atom_site_type_symbol
_atom_site_fract_x
_atom_site_fract_y
_atom_site_fract_z
Zn1	Zn	1.247330	-0.264883	-0.534536
Zn2	Zn	1.747330	0.235117	-0.034536
Zn3	Zn	1.254246	-0.348114	-0.395469
Zn4	Zn	1.754246	0.151886	0.104531
Zn5	Zn	1.115324	-0.256048	-0.388455
Zn6	Zn	1.615324	0.243952	0.111545
Zn7	Zn	1.108202	-0.347633	-0.527439
Zn8	Zn	1.608202	0.152367	-0.027439
O9	O	1.181275	-0.304170	-0.461475
O10	O	1.681275	0.195830	0.038525
O11	O	1.364612	-0.279823	-0.521994
O12	O	1.864612	0.220177	-0.021994
O13	O	1.241692	-0.332406	-0.278174
O14	O	1.741692	0.167594	0.221826
O15	O	1.132921	-0.184058	-0.407868
O16	O	1.632921	0.315942	0.092132
O17	O	1.369693	-0.340973	-0.419823
O18	O	1.869693	0.159027	0.080177
O19	O	1.229905	-0.190549	-0.515193
O20	O	1.729905	0.309451	-0.015193
O21	O	1.139627	-0.264765	-0.273020
O22	O	1.639627	0.235235	0.226980
O23	O	0.998015	-0.264298	-0.400986
O24	O	1.498015	0.235702	0.099014
O25	O	1.120783	-0.340152	-0.644745
O26	O	1.620783	0.159848	-0.144745
O27	O	0.992782	-0.331585	-0.503096
O28	O	1.492782	0.168415	-0.003096
O29	O	1.223000	-0.279356	-0.649960
O30	O	1.723000	0.220644	-0.149960
O31	O	1.234787	-0.421212	-0.412941
O32	O	1.734787	0.078788	0.087059
O33	O	1.127489	-0.420858	-0.509898
O34	O	1.627489	0.079142	-0.009898
C35	C	0.965226	-0.296931	-0.450510
C36	C	1.465226	0.203069	0.049490
C37	C	0.872799	-0.293847	-0.445839
C38	C	1.372799	0.206153	0.054161
C39	C	0.703571	-0.288206	-0.437318
C40	C	1.203571	0.211794	0.062682
C41	C	0.659817	-0.320174	-0.485692
C42	C	1.159817	0.179826	0.014308
C43	C	0.565653	-0.317035	-0.480951
C44	C	1.065653	0.182965	0.019049
C45	C	0.797744	-0.291344	-0.442058
C46	C	1.297744	0.208656	0.057942
C47	C	1.181138	-0.440006	-0.461430
C48	C	1.681138	0.059994	0.038570
C49	C	1.181153	-0.498121	-0.461442
C50	C	1.681153	0.001879	0.038558
C51	C	1.237279	-0.858668	-0.411087
C52	C	1.737279	-0.358668	0.088913
C53	C	1.237311	-0.913274	-0.411099
C54	C	1.737311	-0.413274	0.088901
O55	O	1.284889	-0.941661	-0.368236
O56	O	1.784889	-0.441661	0.131764
N57	N	1.181419	-0.940415	-0.461537
N58	N	1.681419	-0.440415	0.038463
C59	C	1.125497	-0.912948	-0.511972
C60	C	1.625497	-0.412948	-0.011972
O61	O	1.077960	-0.941048	-0.554875
O62	O	1.577960	-0.441048	-0.054875
C63	C	1.125470	-0.858344	-0.511963
C64	C	1.625470	-0.358344	-0.011963
C65	C	1.181360	-0.831205	-0.461515
C66	C	1.681360	-0.331205	0.038485
C67	C	1.293166	-0.831529	-0.360644
C68	C	1.793166	-0.331529	0.139356
C69	C	1.293133	-0.776927	-0.360630
C70	C	1.793133	-0.276927	0.139370
C71	C	1.237214	-0.749464	-0.411059
C72	C	1.737214	-0.249464	0.088941
C73	C	1.181327	-0.776603	-0.461502
C74	C	1.681327	-0.276603	0.038498
C75	C	1.069553	-0.830878	-0.562401
C76	C	1.569553	-0.330878	-0.062401
C77	C	1.069531	-0.776270	-0.562388
C78	C	1.569531	-0.276270	-0.062388
C79	C	1.125421	-0.749131	-0.511941
C80	C	1.625421	-0.249131	-0.011941
C81	C	1.125375	-0.694538	-0.511917
C82	C	1.625375	-0.194538	-0.011917
N83	N	1.181267	-0.667396	-0.461479
N84	N	1.681267	-0.167396	0.038521
C85	C	1.237187	-0.694860	-0.411050
C86	C	1.737187	-0.194860	0.088950
C87	C	1.125559	-1.027621	-0.511988
C88	C	1.625559	-0.527621	-0.011988
C89	C	1.125581	-1.082224	-0.511993
C90	C	1.625581	-0.582224	-0.011993
C91	C	1.237397	-1.082546	-0.411121
C92	C	1.737397	-0.582546	0.088879
C93	C	1.237370	-1.027942	-0.411113
C94	C	1.737370	-0.527942	0.088887
C95	C	1.181451	-1.000480	-0.461550
C96	C	1.681451	-0.500480	0.038450
C97	C	1.237113	-0.580191	-0.411025
C98	C	1.737113	-0.080191	0.088975
C99	C	1.237072	-0.525584	-0.411013
C100	C	1.737072	-0.025584	0.088987
C101	C	1.125260	-0.525267	-0.511887
C102	C	1.625260	-0.025267	-0.011887
C103	C	1.125297	-0.579869	-0.511896
C104	C	1.625297	-0.079869	-0.011896
C105	C	1.181230	-0.607330	-0.461463
C106	C	1.681230	-0.107330	0.038537
O107	O	1.077824	-0.666116	-0.554760
O108	O	1.577824	-0.166116	-0.054760
O109	O	1.284723	-0.666754	-0.368163
O110	O	1.784723	-0.166754	0.131837
C111	C	1.398168	-0.311437	-0.472483
C112	C	1.898168	0.188563	0.027517
C113	C	1.490595	-0.314534	-0.477173
C114	C	1.990595	0.185466	0.022827
C115	C	1.170326	-0.310686	-0.678368
C116	C	1.670326	0.189314	-0.178368
C117	C	1.165659	-0.313462	-0.770795
C118	C	1.665659	0.186538	-0.270795
C119	C	1.181436	-0.167804	-0.461539
C120	C	1.681436	0.332196	0.038461
C121	C	1.181504	-0.109693	-0.461567
C122	C	1.681504	0.390307	0.038433
C123	C	1.157110	-0.318520	-0.940019
C124	C	1.657110	0.181480	-0.440019
C125	C	1.205605	-0.289668	-0.983790
C126	C	1.705605	0.210332	-0.483790
C127	C	1.200848	-0.292482	-1.077952
C128	C	1.700848	0.207518	-0.577952
C129	C	1.161866	-0.315706	-0.845849
C130	C	1.661866	0.184294	-0.345849
C131	C	1.192231	-0.297643	-0.245427
C132	C	1.692231	0.202357	0.254573
C133	C	1.197058	-0.294724	-0.153009
C134	C	1.697058	0.205276	0.346991
H135	H	0.693077	-0.349899	-0.530667
H136	H	1.193077	0.150101	-0.030667
Br137	Br	0.648139	-0.238662	-0.362362
Br138	Br	1.148139	0.261338	0.137638
H139	H	1.282585	-0.503490	-0.369930
H140	H	1.782585	-0.003490	0.130070
Br141	Br	1.081961	-0.363210	-0.995426
Br142	Br	1.581961	0.136790	-0.495426
H143	H	1.282660	-0.602544	-0.369959
H144	H	1.782660	-0.102544	0.130041
Br145	Br	1.313222	-0.991117	-0.342645
Br146	Br	1.813222	-0.491117	0.157355
H147	H	1.338646	-0.754834	-0.319555
H148	H	1.838646	-0.254834	0.180445
H149	H	1.338706	-0.853884	-0.319579
H150	H	1.838706	-0.353884	0.180421
Br151	Br	1.049657	-0.990357	-0.580440
Br152	Br	1.549657	-0.490357	-0.080440
Br153	Br	1.313285	-1.119828	-0.342678
Br154	Br	1.813285	-0.619828	0.157322
Br155	Br	1.049716	-1.119048	-0.580447
Br156	Br	1.549716	-0.619048	-0.080447
Br157	Br	1.049427	-0.616701	-0.580340
Br158	Br	1.549427	-0.116701	-0.080340
H159	H	1.023996	-0.753913	-0.603463
H160	H	1.523996	-0.253913	-0.103463
Br161	Br	0.993705	-0.867696	-0.630879
Br162	Br	1.493705	-0.367696	-0.130879
H163	H	1.079729	-0.502898	-0.552943
H164	H	1.579729	-0.002898	-0.052943
H165	H	1.250696	-0.262854	-0.950546
H166	H	1.750696	0.237146	-0.450546
