data_functionalizedCrystal
_audit_creation_method	'MofGen! by Chris Wilmer'
_symmetry_space_group_name_H-M	'P1'
_symmetry_Int_Tables_number	1
_symmetry_cell_setting	triclinic
loop_
_symmetry_equiv_pos_as_xyz
  x,y,z
_cell_length_a	14.519731
_cell_length_b	17.000371
_cell_length_c	13.596369
_cell_angle_alpha	89.993489
_cell_angle_beta	89.994584
_cell_angle_gamma	79.644050
loop_
_atom_site_label
_atom_site_type_symbol
_atom_site_fract_x
_atom_site_fract_y
_atom_site_fract_z
O1	O	1.215190	0.104406	-0.081794
O2	O	1.715190	0.604406	0.418206
O3	O	0.945698	0.116674	-0.081796
O4	O	1.445698	0.616674	0.418204
O5	O	1.097177	-0.005302	-0.081788
O6	O	1.597177	0.494698	0.418212
O7	O	1.063711	0.226381	-0.081802
O8	O	1.563711	0.726381	0.418198
O9	O	1.097164	-0.005308	0.081795
O10	O	1.597164	0.494692	0.581795
O11	O	0.945684	0.116667	0.081787
O12	O	1.445684	0.616667	0.581787
O13	O	1.215177	0.104399	0.081789
O14	O	1.715177	0.604399	0.581789
Zn15	Zn	1.080428	0.110532	0.107760
Zn16	Zn	1.580428	0.610532	0.607760
Zn17	Zn	1.080446	0.110541	-0.107767
Zn18	Zn	1.580446	0.610541	0.392233
O19	O	1.063697	0.226375	0.081781
O20	O	1.563697	0.726375	0.581781
C21	C	0.911379	0.116096	-0.000004
C22	C	1.411379	0.616096	0.499996
C23	C	0.809142	0.114373	-0.000005
C24	C	1.309142	0.614373	0.499995
C25	C	0.726114	0.112974	-0.000009
C26	C	1.226114	0.612974	0.499991
C27	C	0.621951	0.111225	-0.000009
C28	C	1.121951	0.611225	0.499991
C29	C	0.538927	0.109837	-0.000009
C30	C	1.038927	0.609837	0.499991
C31	C	0.434756	0.108088	-0.000011
C32	C	0.934756	0.608088	0.499989
C33	C	1.098968	-0.034956	0.000003
C34	C	1.598968	0.465044	0.500003
C35	C	1.104313	-0.123307	0.000003
C36	C	1.604313	0.376693	0.500003
C37	C	1.022057	-0.155455	-0.000002
C38	C	1.522057	0.344545	0.499998
C39	C	1.027085	-0.238470	0.000000
C40	C	1.527085	0.261530	0.500000
C41	C	1.114370	-0.289336	0.000001
C42	C	1.614370	0.210664	0.500001
C43	C	1.196633	-0.257183	0.000009
C44	C	1.696633	0.242817	0.500009
C45	C	1.191604	-0.174169	0.000013
C46	C	1.691604	0.325831	0.500013
C47	C	1.133795	-0.540453	-0.000006
C48	C	1.633795	-0.040453	0.499994
C49	C	1.138817	-0.623472	-0.000013
C50	C	1.638817	-0.123472	0.499987
C51	C	0.969269	-0.604754	-0.000019
C52	C	1.469269	-0.104754	0.499981
C53	C	0.964248	-0.521739	-0.000021
C54	C	1.464248	-0.021739	0.499979
C55	C	1.046511	-0.489593	-0.000008
C56	C	1.546511	0.010407	0.499992
C57	C	1.119512	-0.374191	0.000001
C58	C	1.619512	0.125809	0.500001
C59	C	1.041368	-0.404739	-0.000001
C60	C	1.541368	0.095261	0.499999
C61	C	1.249495	0.104978	-0.000005
C62	C	1.749495	0.604978	0.499995
C63	C	1.351733	0.106700	-0.000011
C64	C	1.851733	0.606700	0.499989
C65	C	1.061906	0.256029	-0.000012
C66	C	1.561906	0.756029	0.499988
C67	C	1.056561	0.344380	-0.000018
C68	C	1.556561	0.844380	0.499982
N69	N	1.080423	0.110526	0.254852
N70	N	1.580423	0.610526	0.754852
N71	N	1.080460	0.110541	-0.254859
N72	N	1.580460	0.610541	0.245141
C73	C	1.080445	0.110542	0.656143
C74	C	1.580445	0.610542	1.156143
C75	C	1.080436	0.110540	0.544492
C76	C	1.580436	0.610540	1.044492
C77	C	1.080434	0.110534	0.455501
C78	C	1.580434	0.610534	0.955501
C79	C	1.080425	0.110532	0.343843
C80	C	1.580425	0.610532	0.843843
H81	H	0.950980	-0.114044	-0.000007
H82	H	1.450980	0.385956	0.499993
O83	O	1.213654	-0.429056	0.000003
O84	O	1.713654	0.070944	0.500003
H85	H	1.220005	-0.467316	-0.066673
H86	H	1.720005	0.032684	0.433327
O87	O	1.280325	-0.139493	0.000005
O88	O	1.780325	0.360507	0.500005
H89	H	1.321940	-0.159926	0.066672
H90	H	1.821940	0.340074	0.566672
O91	O	0.938367	-0.273147	-0.000003
O92	O	1.438367	0.226853	0.499997
H93	H	0.876828	-0.223831	-0.000013
H94	H	1.376828	0.276169	0.499987
O95	O	1.290780	-0.312040	0.000015
O96	O	1.790780	0.187960	0.500015
H97	H	1.280459	-0.375167	0.000003
H98	H	1.780459	0.124833	0.500003
H99	H	0.902296	-0.630936	-0.000028
H100	H	1.402296	-0.130936	0.499972
O101	O	0.947227	-0.349880	0.000008
O102	O	1.447227	0.150120	0.500008
H103	H	0.907544	-0.361318	-0.066665
H104	H	1.407544	0.138682	0.433335
O105	O	0.870106	-0.466875	-0.000001
O106	O	1.370106	0.033125	0.499999
H107	H	0.813751	-0.503177	0.000010
H108	H	1.313751	-0.003177	0.500010
H109	H	1.200779	-0.514290	0.000002
H110	H	1.700779	-0.014290	0.500002
H111	H	1.209899	-0.664887	-0.000019
H112	H	1.709899	-0.164887	0.499981
