data_functionalizedCrystal
_audit_creation_method	'MofGen! by Chris Wilmer'
_symmetry_space_group_name_H-M	'P1'
_symmetry_Int_Tables_number	1
_symmetry_cell_setting	triclinic
loop_
_symmetry_equiv_pos_as_xyz
  x,y,z
_cell_length_a	15.944551
_cell_length_b	17.699083
_cell_length_c	16.176319
_cell_angle_alpha	90.007696
_cell_angle_beta	90.002924
_cell_angle_gamma	83.390876
loop_
_atom_site_label
_atom_site_type_symbol
_atom_site_fract_x
_atom_site_fract_y
_atom_site_fract_z
O1	O	-1.114322	-0.097616	-0.068662
O2	O	-0.780989	0.235717	0.264671
O3	O	-0.447655	0.569051	0.598005
O4	O	-0.869747	-0.109651	-0.068683
O5	O	-0.536414	0.223683	0.264651
O6	O	-0.203081	0.557016	0.597984
O7	O	-0.998945	0.006544	-0.068665
O8	O	-0.665611	0.339877	0.264669
O9	O	-0.332278	0.673211	0.598002
O10	O	-0.985125	-0.213811	-0.068680
O11	O	-0.651792	0.119523	0.264653
O12	O	-0.318458	0.452856	0.597986
O13	O	-0.998927	0.006551	0.068829
O14	O	-0.665593	0.339885	0.402162
O15	O	-0.332260	0.673218	0.735495
O16	O	-0.869729	-0.109643	0.068810
O17	O	-0.536396	0.223690	0.402144
O18	O	-0.203063	0.557023	0.735477
O19	O	-1.114304	-0.097609	0.068831
O20	O	-0.780971	0.235725	0.402165
O21	O	-0.447638	0.569058	0.735498
Cu22	Cu	-0.992015	-0.103625	0.081375
Cu23	Cu	-0.658682	0.229708	0.414708
Cu24	Cu	-0.325349	0.563041	0.748042
Cu25	Cu	-0.992036	-0.103634	-0.081227
Cu26	Cu	-0.658703	0.229699	0.252107
Cu27	Cu	-0.325370	0.563033	0.585440
O28	O	-0.985107	-0.213803	0.068813
O29	O	-0.651774	0.119530	0.402146
O30	O	-0.318440	0.452863	0.735480
C31	C	-0.838445	-0.109147	0.000061
C32	C	-0.505112	0.224186	0.333395
C33	C	-0.171779	0.557519	0.666728
C34	C	-0.745203	-0.107650	0.000054
C35	C	-0.411869	0.225684	0.333387
C36	C	-0.078536	0.559017	0.666720
C37	C	-0.998440	0.034746	0.000082
C38	C	-0.665107	0.368079	0.333415
C39	C	-0.331774	0.701412	0.666749
C40	C	-0.996955	0.118766	0.000082
C41	C	-0.663622	0.452100	0.333416
C42	C	-0.330288	0.785433	0.666749
C43	C	-1.145606	-0.098112	0.000085
C44	C	-0.812273	0.235221	0.333419
C45	C	-0.478940	0.568555	0.666752
C46	C	-1.238849	-0.099610	0.000088
C47	C	-0.905516	0.233724	0.333421
C48	C	-0.572182	0.567057	0.666754
C49	C	-0.530505	-0.032046	0.000075
C50	C	-0.197171	0.301287	0.333408
C51	C	0.136162	0.634620	0.666742
C52	C	-0.469420	-0.067158	-0.067719
C53	C	-0.136086	0.266176	0.265614
C54	C	0.197247	0.599509	0.598948
C55	C	-0.574482	-0.104940	0.000063
C56	C	-0.241149	0.228393	0.333397
C57	C	0.092184	0.561727	0.666730
C58	C	-0.469424	-0.067168	0.067839
C59	C	-0.136091	0.266166	0.401172
C60	C	0.197242	0.599499	0.734505
C61	C	-0.409575	-0.102317	0.000077
C62	C	-0.076242	0.231016	0.333410
C63	C	0.257091	0.564350	0.666743
C64	C	-0.514625	-0.140071	-0.067786
C65	C	-0.181292	0.193262	0.265547
C66	C	0.152041	0.526596	0.598880
C67	C	-0.514636	-0.140071	0.067832
C68	C	-0.181303	0.193262	0.401165
C69	C	0.152030	0.526596	0.734499
C70	C	-0.453569	-0.175235	0.000022
C71	C	-0.120235	0.158098	0.333355
C72	C	0.213098	0.491432	0.666688
C73	C	-0.669481	-0.106449	0.000055
C74	C	-0.336148	0.226885	0.333388
C75	C	-0.002815	0.560218	0.666722
C76	C	-0.314577	-0.100814	0.000079
C77	C	0.018756	0.232519	0.333412
C78	C	0.352089	0.565853	0.666746
C79	C	-0.985611	-0.242005	0.000064
C80	C	-0.652278	0.091328	0.333398
C81	C	-0.318944	0.424662	0.666731
C82	C	-0.987097	-0.326026	0.000059
C83	C	-0.653763	0.007308	0.333392
C84	C	-0.320430	0.340641	0.666725
N85	N	-0.992007	-0.103619	0.195740
N86	N	-0.658673	0.229715	0.529074
N87	N	-0.325340	0.563048	0.862407
C88	C	-1.072791	0.167258	0.000090
C89	C	-0.739458	0.500591	0.333423
C90	C	-0.406124	0.833924	0.666757
C91	C	-1.071390	0.246203	0.000083
C92	C	-0.738057	0.579537	0.333416
C93	C	-0.404723	0.912870	0.666749
C94	C	-0.994152	0.276656	0.000073
C95	C	-0.660819	0.609989	0.333407
C96	C	-0.327486	0.943323	0.666740
C97	C	-0.918310	0.228158	0.000063
C98	C	-0.584977	0.561492	0.333397
C99	C	-0.251644	0.894825	0.666730
C100	C	-0.919712	0.149214	0.000065
C101	C	-0.586379	0.482548	0.333398
C102	C	-0.253045	0.815881	0.666732
C103	C	-0.912656	0.546531	0.000056
C104	C	-0.579322	0.879864	0.333389
C105	C	-0.245989	1.213198	0.666723
C106	C	-0.911260	0.625481	0.000057
C107	C	-0.577926	0.958815	0.333390
C108	C	-0.244593	1.292148	0.666724
C109	C	-1.064334	0.643520	0.000074
C110	C	-0.731000	0.976854	0.333407
C111	C	-0.397667	1.310187	0.666740
C112	C	-1.065735	0.564576	0.000075
C113	C	-0.732402	0.897909	0.333409
C114	C	-0.399069	1.231243	0.666742
C115	C	-0.989894	0.516085	0.000061
C116	C	-0.656561	0.849419	0.333394
C117	C	-0.323227	1.182752	0.666728
C118	C	-0.991414	0.430484	0.000067
C119	C	-0.658081	0.763817	0.333401
C120	C	-0.324747	1.097150	0.666734
C121	C	-0.992632	0.362256	0.000073
C122	C	-0.659298	0.695590	0.333406
C123	C	-0.325965	1.028923	0.666740
N124	N	-0.992052	-0.103635	-0.195592
N125	N	-0.658718	0.229699	0.137742
N126	N	-0.325385	0.563032	0.471075
C127	C	-1.049232	-0.052189	0.239013
C128	C	-0.715899	0.281145	0.572346
C129	C	-0.382566	0.614478	0.905679
C130	C	-1.049237	-0.052188	0.325560
C131	C	-0.715903	0.281146	0.658893
C132	C	-0.382570	0.614479	0.992226
C133	C	-0.992019	-0.103621	0.368833
C134	C	-0.658685	0.229712	0.702166
C135	C	-0.325352	0.563045	1.035499
C136	C	-0.934787	-0.155054	0.325554
C137	C	-0.601453	0.178280	0.658888
C138	C	-0.268120	0.511613	0.992221
C139	C	-0.934779	-0.155050	0.239009
C140	C	-0.601446	0.178283	0.572342
C141	C	-0.268112	0.511616	0.905676
C142	C	-0.934815	-0.155068	0.674583
C143	C	-0.601482	0.178265	1.007916
C144	C	-0.268149	0.511599	1.341249
C145	C	-0.934829	-0.155069	0.761134
C146	C	-0.601496	0.178264	1.094468
C147	C	-0.268163	0.511598	1.427801
C148	C	-1.049273	-0.052205	0.761133
C149	C	-0.715940	0.281128	1.094467
C150	C	-0.382606	0.614461	1.427800
C151	C	-1.049265	-0.052202	0.674588
C152	C	-0.715932	0.281131	1.007921
C153	C	-0.382599	0.614465	1.341255
C154	C	-0.992031	-0.103631	0.631317
C155	C	-0.658698	0.229702	0.964650
C156	C	-0.325364	0.563035	1.297984
C157	C	-0.992026	-0.103631	0.537473
C158	C	-0.658693	0.229703	0.870806
C159	C	-0.325359	0.563036	1.204140
C160	C	-0.992027	-0.103626	0.462675
C161	C	-0.658694	0.229707	0.796009
C162	C	-0.325360	0.563040	1.129342
H163	H	-0.563965	0.028449	-0.000005
H164	H	-0.230632	0.361783	0.333329
H165	H	0.102702	0.695116	0.666662
H166	H	-0.449396	-0.036320	0.125151
H167	H	-0.116062	0.297013	0.458484
H168	H	0.217271	0.630347	0.791818
H169	H	-0.888232	-0.196954	0.796366
H170	H	-0.554899	0.136380	1.129699
H171	H	-0.221565	0.469713	1.463033
H172	H	-1.128630	0.539786	0.000087
H173	H	-0.795297	0.873120	0.333420
H174	H	-0.461964	1.206453	0.666754
H175	H	-0.534696	-0.170873	0.125145
H176	H	-0.201362	0.162460	0.458479
H177	H	0.131971	0.495793	0.791812
H178	H	-0.850901	0.507059	0.000045
H179	H	-0.517567	0.840392	0.333378
H180	H	-0.184234	1.173726	0.666711
H181	H	-1.126087	0.683011	0.000081
H182	H	-0.792754	1.016345	0.333415
H183	H	-0.459421	1.349678	0.666748
H184	H	-0.534556	-0.170882	-0.125163
H185	H	-0.201222	0.162451	0.208170
H186	H	0.132111	0.495785	0.541503
H187	H	-1.135687	0.142470	0.000102
H188	H	-0.802354	0.475803	0.333436
H189	H	-0.469020	0.809136	0.666769
H190	H	-0.888179	-0.196929	0.203777
H191	H	-0.554846	0.136404	0.537111
H192	H	-0.221512	0.469738	0.870444
H193	H	-0.449382	-0.036330	-0.125030
H194	H	-0.116048	0.297003	0.208304
H195	H	0.217285	0.630337	0.541637
H196	H	-0.857958	0.109733	0.000058
H197	H	-0.524625	0.443066	0.333392
H198	H	-0.191292	0.776399	0.666725
H199	H	-1.133144	0.285683	0.000091
H200	H	-0.799810	0.619016	0.333424
H201	H	-0.466477	0.952349	0.666757
H202	H	-0.855422	0.252959	0.000051
H203	H	-0.522089	0.586292	0.333384
H204	H	-0.188755	0.919626	0.666717
H205	H	-0.848360	0.650272	0.000051
H206	H	-0.515026	0.983606	0.333385
H207	H	-0.181693	1.316939	0.666718
H208	H	-1.095829	-0.010309	0.203785
H209	H	-0.762496	0.323025	0.537118
H210	H	-0.429163	0.656358	0.870452
H211	H	-0.420283	-0.235793	-0.000021
H212	H	-0.086949	0.097540	0.333313
H213	H	0.246384	0.430874	0.666646
H214	H	-1.095834	-0.010309	0.360791
H215	H	-0.762500	0.323024	0.694125
H216	H	-0.429167	0.656357	1.027458
H217	H	-1.095874	-0.010326	0.796374
H218	H	-0.762541	0.323007	1.129707
H219	H	-0.429207	0.656340	1.463040
H220	H	-1.095860	-0.010323	0.639357
H221	H	-0.762527	0.323011	0.972691
H222	H	-0.429194	0.656344	1.306024
H223	H	-0.888215	-0.196945	0.639358
H224	H	-0.554881	0.136388	0.972692
H225	H	-0.221548	0.469722	1.306025
H226	H	-0.888194	-0.196929	0.360793
H227	H	-0.554861	0.136404	0.694126
H228	H	-0.221528	0.469737	1.027459
