data_functionalizedCrystal
_audit_creation_method	'MofGen! by Chris Wilmer'
_symmetry_space_group_name_H-M	'P1'
_symmetry_Int_Tables_number	1
_symmetry_cell_setting	triclinic
loop_
_symmetry_equiv_pos_as_xyz
  x,y,z
_cell_length_a	10.489741
_cell_length_b	14.519709
_cell_length_c	12.996460
_cell_angle_alpha	89.995405
_cell_angle_beta	89.994085
_cell_angle_gamma	95.890341
loop_
_atom_site_label
_atom_site_type_symbol
_atom_site_fract_x
_atom_site_fract_y
_atom_site_fract_z
O1	O	0.167205	-1.224774	-0.085432
O2	O	0.186895	-0.956404	-0.085464
O3	O	-0.008612	-1.096695	-0.085441
O4	O	0.362711	-1.084482	-0.085455
O5	O	-0.008625	-1.096693	0.085693
O6	O	0.186882	-0.956402	0.085670
O7	O	0.167192	-1.224771	0.085702
Cu8	Cu	0.177036	-1.090586	0.101312
Cu9	Cu	0.177051	-1.090589	-0.101074
O10	O	0.362698	-1.084480	0.085679
C11	C	0.185971	-0.922038	0.000099
C12	C	0.183221	-0.819642	0.000088
C13	C	-0.056140	-1.095772	0.000125
C14	C	-0.197741	-1.093012	0.000123
N15	N	0.177052	-1.090592	-0.243421
C16	C	-0.264951	-1.003749	0.000105
C17	C	-0.357519	-1.045915	0.084488
C18	C	-0.357481	-1.045938	-0.084237
C19	C	-0.288444	-1.135215	0.084575
C20	C	-0.288397	-1.135226	-0.084225
C21	C	-0.380938	-1.177457	0.000178
C22	C	0.410227	-1.085403	0.000111
C23	C	0.551828	-1.088163	0.000106
C24	C	0.168116	-1.259137	0.000136
C25	C	0.170866	-1.361533	0.000142
C26	C	0.173098	-0.444691	0.000135
C27	C	0.175909	-0.549014	0.000121
C28	C	0.178159	-0.632163	0.000110
C29	C	0.180971	-0.736493	0.000099
C30	C	0.177040	-1.090587	-0.663235
C31	C	0.177047	-1.090585	-0.546430
C32	C	0.177045	-1.090589	-0.453332
C33	C	0.177054	-1.090588	-0.336519
N34	N	0.177024	-1.090591	0.243659
H35	H	-0.214534	-0.930357	0.000181
H36	H	-0.388046	-1.008159	-0.155583
C37	C	-0.448750	-1.276690	0.000245
C38	C	-0.426716	-1.342912	0.089579
C39	C	-0.494527	-1.442144	0.089650
C40	C	-0.584373	-1.475155	0.000388
C41	C	-0.606411	-1.408933	-0.088953
C42	C	-0.538599	-1.309700	-0.089024
H43	H	-0.360203	-1.318476	0.155663
H44	H	-0.478213	-1.491166	0.155786
H45	H	-0.634571	-1.548613	0.000440
H46	H	-0.672923	-1.433369	-0.155037
H47	H	-0.554914	-1.260678	-0.155160
H48	H	-0.258011	-1.172950	0.155995
H49	H	-0.257740	-1.172964	-0.155560
C50	C	-0.398900	-0.994892	0.180849
C51	C	-0.297612	-0.955081	0.259094
C52	C	-0.338987	-0.904051	0.355450
C53	C	-0.481649	-0.892833	0.373560
C54	C	-0.582946	-0.932645	0.295312
C55	C	-0.541572	-0.983675	0.198957
H56	H	-0.191997	-0.963384	0.245690
H57	H	-0.263999	-0.874579	0.413373
H58	H	-0.512277	-0.855057	0.444888
H59	H	-0.688562	-0.924342	0.308717
H60	H	-0.616560	-1.013147	0.141033
