data_functionalizedCrystal
_audit_creation_method	'MofGen! by Chris Wilmer'
_symmetry_space_group_name_H-M	'P1'
_symmetry_Int_Tables_number	1
_symmetry_cell_setting	triclinic
loop_
_symmetry_equiv_pos_as_xyz
  x,y,z
_cell_length_a	19.805407
_cell_length_b	19.805405
_cell_length_c	10.685453
_cell_angle_alpha	94.393285
_cell_angle_beta	85.627406
_cell_angle_gamma	90.026410
loop_
_atom_site_label
_atom_site_type_symbol
_atom_site_fract_x
_atom_site_fract_y
_atom_site_fract_z
Zn1	Zn	-1.005268	0.240199	-0.713530
Zn2	Zn	-1.013898	0.362047	-0.502495
Zn3	Zn	-0.900797	0.248876	-0.502525
Zn4	Zn	-0.892049	0.353355	-0.713446
O5	O	-0.953003	0.301119	-0.607999
O6	O	-1.101128	0.256369	-0.685558
O7	O	-1.006168	0.354304	-0.325909
O8	O	-0.914704	0.153007	-0.530563
O9	O	-1.107469	0.345890	-0.530511
O10	O	-0.991458	0.146632	-0.685588
O11	O	-0.923072	0.271158	-0.325931
O12	O	-0.804921	0.262729	-0.530482
O13	O	-0.899796	0.331075	-0.890048
O14	O	-0.798494	0.339489	-0.685445
O15	O	-0.982977	0.247940	-0.890109
O16	O	-0.997686	0.455613	-0.530430
O17	O	-0.908164	0.449226	-0.685416
C18	C	-0.777149	0.301108	-0.607958
C19	C	-0.701916	0.301118	-0.607971
C20	C	-0.952929	0.476978	-0.607938
C21	C	-0.952958	0.552209	-0.607954
C22	C	-0.939448	0.287570	-0.937147
C23	C	-0.933671	0.281796	-1.077410
C24	C	-1.129544	0.301131	-0.608041
C25	C	-1.204775	0.301136	-0.608059
C26	C	-0.663249	0.341158	-0.688529
C27	C	-0.592560	0.341158	-0.688547
C28	C	-0.560539	0.301122	-0.607999
C29	C	-0.599212	0.261078	-0.527437
C30	C	-0.669900	0.261075	-0.527426
C31	C	-0.314137	0.261092	-0.527479
C32	C	-0.243444	0.261100	-0.527493
C33	C	-0.236797	0.341175	-0.688599
C34	C	-0.307485	0.341171	-0.688589
C35	C	-0.346151	0.301125	-0.608032
C36	C	-0.422800	0.301124	-0.608015
C37	C	-0.483892	0.301127	-0.608008
C38	C	-0.953094	0.124573	-0.608088
C39	C	-0.953133	0.049339	-0.608126
C40	C	-0.999611	0.590853	-0.527338
C41	C	-0.999638	0.661540	-0.527366
C42	C	-0.953010	0.693583	-0.608005
C43	C	-0.906355	0.654934	-0.688630
C44	C	-0.906331	0.584248	-0.688607
C45	C	-0.906451	0.940003	-0.688723
C46	C	-0.906477	1.010695	-0.688737
C47	C	-0.999758	1.017296	-0.527482
C48	C	-0.999734	0.946609	-0.527459
C49	C	-0.953082	0.907967	-0.608089
C50	C	-0.953054	0.831319	-0.608059
C51	C	-0.953034	0.770229	-0.608029
C52	C	-0.966545	0.314567	-0.280132
C53	C	-0.972452	0.320150	-0.139870
H54	H	-0.689314	0.373762	-0.754117
Br55	Br	-0.366603	0.206739	-0.418158
H56	H	-0.895952	0.244686	-0.131240
H57	H	-0.561080	0.373763	-0.754145
Br58	Br	-0.350937	0.395512	-0.797900
Br59	Br	-1.062959	0.713982	-0.417961
H60	H	-1.037747	1.048767	-0.461834
Br61	Br	-0.184318	0.395527	-0.797927
Br62	Br	-1.063017	0.903127	-0.418015
Br63	Br	-0.199989	0.206762	-0.418169
Br64	Br	-0.555756	0.206736	-0.418132
Br65	Br	-0.843018	0.531801	-0.798028
H66	H	-0.701382	0.228467	-0.461834
H67	H	-1.010180	0.357257	-0.086033
H68	H	-1.037578	0.564769	-0.461667
Br69	Br	-0.843191	1.054181	-0.798182
H70	H	-0.868464	0.908546	-0.754372
H71	H	-0.868392	0.681028	-0.754293
