data_functionalizedCrystal
_audit_creation_method	'MofGen! by Chris Wilmer'
_symmetry_space_group_name_H-M	'P1'
_symmetry_Int_Tables_number	1
_symmetry_cell_setting	triclinic
loop_
_symmetry_equiv_pos_as_xyz
  x,y,z
_cell_length_a	10.967874
_cell_length_b	11.026607
_cell_length_c	7.681481
_cell_angle_alpha	97.003311
_cell_angle_beta	96.274966
_cell_angle_gamma	96.380181
loop_
_atom_site_label
_atom_site_type_symbol
_atom_site_fract_x
_atom_site_fract_y
_atom_site_fract_z
O1	O	1.653148	0.221032	0.648044
O2	O	1.300266	0.229008	0.540971
O3	O	1.447461	0.047427	0.585627
O4	O	1.505953	0.402614	0.603388
O5	O	1.465566	0.025025	0.298263
O6	O	1.318372	0.206606	0.253607
O7	O	1.671253	0.198630	0.360680
Zn8	Zn	1.497687	0.199062	0.261518
Zn9	Zn	1.473832	0.228577	0.640133
O10	O	1.524059	0.380212	0.316023
C11	C	1.263440	0.215534	0.383368
C12	C	1.126733	0.208747	0.341888
C13	C	1.056405	0.217326	0.472258
C14	C	0.915111	0.210312	0.429389
C15	C	1.445722	-0.009332	0.438673
C16	C	1.413554	-0.145079	0.428918
C17	C	1.502375	-0.216030	0.455872
C18	C	1.469130	-0.356332	0.445791
C19	C	1.708079	0.212104	0.518287
C20	C	1.844785	0.218892	0.559778
C21	C	1.525796	0.436970	0.462982
C22	C	1.557964	0.572719	0.472748
N23	N	1.513976	0.178918	0.003125
N24	N	1.457550	0.248712	0.898528
H25	H	0.889173	0.231439	0.703141
C26	C	1.644894	-0.030103	0.499097
C27	C	1.638262	-0.157826	0.497094
H28	H	1.728789	0.005823	0.524535
H29	H	1.598899	0.003060	0.587262
H30	H	1.611509	-0.012575	0.386835
H31	H	1.671639	-0.175354	0.609360
H32	H	1.684275	-0.191000	0.408923
H33	H	1.312897	-0.188204	0.398388
C34	C	1.112980	0.290509	0.065650
C35	C	1.066812	0.191822	0.148362
H36	H	1.075982	0.280060	-0.053824
H37	H	1.200060	0.292991	0.069065
H38	H	1.094187	0.365403	0.125602
H39	H	1.085613	0.116928	0.088418
H40	H	0.979713	0.189328	0.144937
C41	C	1.326605	-0.542254	0.402550
C42	C	1.333237	-0.414532	0.404558
H43	H	1.242712	-0.578183	0.377085
H44	H	1.359976	-0.559786	0.514798
H45	H	1.372615	-0.575416	0.314379
H46	H	1.287234	-0.381369	0.492738
H47	H	1.299849	-0.396991	0.292295
C48	C	1.428687	0.462335	-0.053143
C49	C	1.379784	0.344882	-0.023561
H50	H	1.380680	0.521706	-0.005026
H51	H	1.426917	0.464519	-0.176615
H52	H	1.511627	0.480442	0.002179
H53	H	1.296846	0.326771	-0.078894
H54	H	1.381541	0.342695	0.099934
H55	H	1.658619	-0.384152	0.503421
C56	C	1.641514	0.021179	0.059982
C57	C	1.591748	0.082742	-0.074789
H58	H	1.689530	-0.038189	0.011878
H59	H	1.576340	-0.018918	0.112094
H60	H	1.692442	0.078896	0.147360
H61	H	1.540813	0.025027	-0.162161
H62	H	1.656931	0.122841	-0.126928
C63	C	1.198832	0.343203	0.700421
C64	C	1.116329	0.234253	0.665782
H65	H	1.235829	0.353647	0.819895
H66	H	1.155379	0.411123	0.680709
H67	H	1.261254	0.338716	0.624167
H68	H	1.053902	0.238744	0.742028
H69	H	1.159784	0.166317	0.685512
C70	C	0.726824	0.189699	0.230845
C71	C	0.855198	0.193377	0.235852
H72	H	0.689838	0.179235	0.111364
H73	H	0.708045	0.264598	0.290762
H74	H	0.695526	0.122755	0.286989
H75	H	0.886498	0.260327	0.179719
H76	H	0.873987	0.118469	0.175910
