data_functionalizedCrystal
_audit_creation_method	'MofGen! by Chris Wilmer'
_symmetry_space_group_name_H-M	'P1'
_symmetry_Int_Tables_number	1
_symmetry_cell_setting	triclinic
loop_
_symmetry_equiv_pos_as_xyz
  x,y,z
_cell_length_a	12.594517
_cell_length_b	12.594516
_cell_length_c	11.169409
_cell_angle_alpha	90.033030
_cell_angle_beta	90.024371
_cell_angle_gamma	90.011248
loop_
_atom_site_label
_atom_site_type_symbol
_atom_site_fract_x
_atom_site_fract_y
_atom_site_fract_z
Zn1	Zn	1.627321	-0.423672	0.678683
Zn2	Zn	1.627218	-0.601698	0.477997
Zn3	Zn	1.449318	-0.423732	0.478001
Zn4	Zn	1.449320	-0.601607	0.678626
O5	O	1.538294	-0.512677	0.578327
O6	O	1.776253	-0.447300	0.652083
O7	O	1.603576	-0.578154	0.310048
O8	O	1.472973	-0.274779	0.504647
O9	O	1.776178	-0.578095	0.504640
O10	O	1.603751	-0.274734	0.652087
O11	O	1.472873	-0.447403	0.310051
O12	O	1.300373	-0.447315	0.504592
O13	O	1.472976	-0.577940	0.846583
O14	O	1.300374	-0.577999	0.651991
O15	O	1.603753	-0.447212	0.846625
O16	O	1.603578	-0.750632	0.504586
O17	O	1.472877	-0.750565	0.651987
C18	C	1.261753	-0.512654	0.578286
C19	C	1.143448	-0.512670	0.578298
C20	C	1.538245	-0.789218	0.578306
C21	C	1.538321	-0.907524	0.578337
C22	C	1.003400	-0.441513	0.498311
C23	C	1.074260	-0.415571	0.607829
C24	C	1.074159	-0.538564	0.468791
C25	C	1.003523	-0.486720	0.687962
C26	C	1.003416	-0.609758	0.548850
C27	C	1.074244	-0.583853	0.658444
C28	C	1.609492	-0.976775	0.498251
C29	C	1.635506	-1.047463	0.607796
C30	C	1.512440	-1.047635	0.468862
C31	C	1.564385	-0.976653	0.687940
C32	C	1.441274	-0.976819	0.548931
C33	C	1.467251	-1.047475	0.658552
C34	C	1.815915	-0.512701	0.578368
C35	C	1.934221	-0.512712	0.578385
C36	C	1.538376	-0.512559	0.891369
C37	C	1.538411	-0.512509	1.024769
C38	C	1.538373	-0.235057	0.578374
C39	C	1.538406	-0.116751	0.578394
C40	C	1.538274	-0.512718	0.266502
C41	C	1.538446	-0.512469	0.133102
H42	H	0.972297	-0.381275	0.430716
H43	H	1.407101	-1.078323	0.726381
C44	C	0.998419	-0.531119	0.896911
C45	C	0.961819	-0.457044	0.813067
H46	H	0.972665	-0.512797	0.974140
H47	H	1.073832	-0.530944	0.897641
H48	H	0.973565	-0.599850	0.875820
H49	H	0.986679	-0.388313	0.834153
H50	H	0.886390	-0.457207	0.812341
H51	H	1.669689	-0.945730	0.430586
C52	C	1.303474	-0.970650	0.400502
C53	C	1.330467	-0.934880	0.515269
H54	H	1.235070	-0.944750	0.379710
H55	H	1.302855	-1.046059	0.399561
H56	H	1.354187	-0.945383	0.344396
H57	H	1.279759	-0.960154	0.571376
H58	H	1.331079	-0.859455	0.516218
H59	H	1.586229	-0.945608	0.780625
H60	H	1.105359	-0.333479	0.632795
C61	C	1.227154	-0.665039	0.748432
C62	C	1.115984	-0.665111	0.749904
H63	H	1.252922	-0.715206	0.804893
H64	H	1.252475	-0.596301	0.768724
H65	H	1.251458	-0.683581	0.670683
H66	H	1.091680	-0.646562	0.827652
H67	H	1.090653	-0.733865	0.729620
C68	C	0.996951	-0.747478	0.400309
C69	C	0.961362	-0.720538	0.515124
H70	H	0.970980	-0.815866	0.379478
H71	H	1.072358	-0.748113	0.399316
H72	H	0.971634	-0.696731	0.344264
H73	H	0.986685	-0.771281	0.571171
H74	H	0.885939	-0.719911	0.516126
C75	C	1.080272	-0.493468	0.260077
C76	C	1.116044	-0.568118	0.343725
H77	H	1.106123	-0.511713	0.182866
H78	H	1.105577	-0.425011	0.281575
H79	H	1.004853	-0.493066	0.259050
H80	H	1.191464	-0.568514	0.344759
H81	H	1.090744	-0.636593	0.322222
H82	H	1.717614	-1.078496	0.632700
H83	H	1.490515	-1.078812	0.376256
