data_functionalizedCrystal
_audit_creation_method	'MofGen! by Chris Wilmer'
_symmetry_space_group_name_H-M	'P1'
_symmetry_Int_Tables_number	1
_symmetry_cell_setting	triclinic
loop_
_symmetry_equiv_pos_as_xyz
  x,y,z
_cell_length_a	6.817900
_cell_length_b	10.992421
_cell_length_c	16.255661
_cell_angle_alpha	93.806276
_cell_angle_beta	103.488922
_cell_angle_gamma	108.764763
loop_
_atom_site_label
_atom_site_type_symbol
_atom_site_fract_x
_atom_site_fract_y
_atom_site_fract_z
V1	V	-4.053775	-0.178799	-0.263859
O2	O	-4.013052	0.007524	-0.258849
O3	O	-4.031770	-0.353500	-0.262043
O4	O	-4.004992	-0.176517	-0.378943
O5	O	-4.040015	-0.170685	-0.141140
V6	V	-4.534033	-0.156457	-0.249182
O7	O	-4.322197	-0.227807	-0.296054
O8	O	-4.715808	-0.107448	-0.216988
O9	O	-4.332831	0.018245	-0.250999
O10	O	-4.692153	-0.342779	-0.254193
O11	O	-4.665190	-0.164571	-0.371902
O12	O	-4.359610	-0.158738	-0.134099
C13	C	-3.883205	-0.396074	-0.257877
C14	C	-3.946497	-0.538898	-0.257160
C15	C	-3.815488	-0.734162	-0.251372
C16	C	-3.749312	-0.585520	-0.251783
C17	C	-4.035194	-0.577223	-0.178237
C18	C	-4.099622	-0.725763	-0.177401
C19	C	-4.194048	-0.764981	-0.339188
C20	C	-4.124601	-0.616474	-0.340901
C21	C	-3.849045	-0.170313	-0.406994
C22	C	-3.890617	-0.169603	-0.501075
C23	C	-3.799891	-0.161127	-0.723894
C24	C	-3.972865	-0.270520	-0.793363
C25	C	-3.966800	-0.168273	-0.673324
C26	C	-3.867927	-0.057628	-0.771492
C27	C	-4.040373	-0.166982	-0.839707
C28	C	-4.139271	-0.277763	-0.741562
C29	C	-4.034257	-0.064775	-0.719676
C30	C	-4.207372	-0.174198	-0.789126
C31	C	-3.924412	-0.169017	-0.577474
C32	C	-4.082780	-0.166247	-0.935556
C33	C	-4.144740	0.060812	-0.255162
C34	C	-4.060686	0.203635	-0.255885
C35	C	-4.178899	-0.164947	-0.106044
C36	C	-4.116564	-0.165650	-0.011962
H37	H	-4.003182	-0.743031	-0.114738
H38	H	-4.275861	-0.766645	-0.177276
F39	F	-4.288693	-0.399495	-0.723956
F40	F	-4.433117	-0.181455	-0.826177
F41	F	-3.764935	-0.795130	-0.324622
F42	F	-3.718513	0.063974	-0.789251
H43	H	-4.180618	-0.546991	-0.179147
F44	F	-4.067491	0.048927	-0.677712
H45	H	-3.908814	-0.522742	-0.116241
F46	F	-4.043061	-0.585553	-0.417223
H47	H	-4.272363	-0.586301	-0.349715
F48	F	-3.657735	-0.552129	-0.325489
H49	H	-3.713463	-0.754486	-0.191296
H50	H	-4.372949	-0.806114	-0.343325
F51	F	-3.574333	-0.154087	-0.686665
H52	H	-3.947358	-0.357505	-0.825443
H53	H	-4.174023	-0.814732	-0.398907
F54	F	-3.572983	-0.516659	-0.173196
