data_functionalizedCrystal
_audit_creation_method	'MofGen! by Chris Wilmer'
_symmetry_space_group_name_H-M	'P1'
_symmetry_Int_Tables_number	1
_symmetry_cell_setting	triclinic
loop_
_symmetry_equiv_pos_as_xyz
  x,y,z
_cell_length_a	12.837932
_cell_length_b	12.837942
_cell_length_c	11.295483
_cell_angle_alpha	85.469583
_cell_angle_beta	85.460332
_cell_angle_gamma	85.170678
loop_
_atom_site_label
_atom_site_type_symbol
_atom_site_fract_x
_atom_site_fract_y
_atom_site_fract_z
O1	O	1.408693	-0.265796	-0.099027
O2	O	1.908693	0.234204	0.400973
O3	O	1.105559	-0.252351	-0.099029
O4	O	1.605559	0.247649	0.400971
O5	O	1.250404	-0.107507	-0.099021
O6	O	1.750404	0.392493	0.400979
O7	O	1.263848	-0.410640	-0.099035
O8	O	1.763848	0.089360	0.400965
O9	O	1.237680	-0.120208	0.099030
O10	O	1.737680	0.379792	0.599030
O11	O	1.092835	-0.265051	0.099021
O12	O	1.592835	0.234949	0.599021
O13	O	1.395969	-0.278497	0.099023
O14	O	1.895969	0.221503	0.599023
Cu15	Cu	1.243240	-0.272933	0.117106
Cu16	Cu	1.743240	0.227067	0.617106
Cu17	Cu	1.258288	-0.257914	-0.117111
Cu18	Cu	1.758288	0.242086	0.382889
O19	O	1.251124	-0.423340	0.099015
O20	O	1.751124	0.076660	0.599015
C21	C	1.060128	-0.254159	-0.000004
C22	C	1.560128	0.245841	0.499996
C23	C	0.943713	-0.240614	-0.000004
C24	C	1.443713	0.259386	0.499996
C25	C	0.782686	-0.127402	0.000003
C26	C	1.282686	0.372598	0.500003
C27	C	0.892069	-0.140122	0.000002
C28	C	1.392069	0.359878	0.500002
C29	C	0.885965	-0.328393	-0.000006
C30	C	1.385965	0.171607	0.499994
C31	C	0.776583	-0.315673	-0.000005
C32	C	1.276583	0.184327	0.499995
C33	C	0.724947	-0.215174	-0.000002
C34	C	1.224947	0.284826	0.499998
C35	C	0.615563	-0.202454	-0.000010
C36	C	1.115563	0.297546	0.499990
C37	C	0.609461	-0.390725	-0.000010
C38	C	1.109461	0.109275	0.499990
C39	C	0.718844	-0.403445	-0.000011
C40	C	1.218844	0.096555	0.499989
C41	C	1.239500	-0.074788	0.000004
C42	C	1.739500	0.425212	0.500004
C43	C	1.225956	0.041627	0.000002
C44	C	1.725956	0.541627	0.500002
C45	C	1.441400	-0.276688	-0.000004
C46	C	1.941400	0.223312	0.499996
C47	C	1.557816	-0.290233	-0.000012
C48	C	2.057816	0.209767	0.499988
C49	C	1.262027	-0.456059	-0.000012
C50	C	1.762027	0.043941	0.499988
C51	C	1.275572	-0.572474	-0.000018
C52	C	1.775572	-0.072474	0.499982
N53	N	1.232664	-0.283497	0.281841
N54	N	1.732664	0.216503	0.781841
C55	C	1.388787	0.266502	-0.000022
C56	C	1.888787	0.766502	0.499978
C57	C	1.376066	0.375884	-0.000024
C58	C	1.876066	0.875884	0.499976
C59	C	1.187794	0.369778	-0.000013
C60	C	1.687794	0.869778	0.499987
C61	C	1.200515	0.260395	-0.000011
C62	C	1.700515	0.760395	0.499989
C63	C	1.301015	0.208761	-0.000014
C64	C	1.801015	0.708761	0.499986
C65	C	1.313735	0.099376	-0.000003
C66	C	1.813735	0.599376	0.499997
C67	C	1.125464	0.093271	-0.000000
C68	C	1.625464	0.593271	0.500000
C69	C	1.112743	0.202654	-0.000002
C70	C	1.612743	0.702654	0.499998
N71	N	1.268871	-0.247343	-0.281847
N72	N	1.768871	0.252657	0.218153
C73	C	1.344999	-0.171239	0.531137
C74	C	1.844999	0.328761	1.031137
C75	C	1.337015	-0.179230	0.655801
C76	C	1.837015	0.320770	1.155801
C77	C	1.208705	-0.307466	0.655833
C78	C	1.708705	0.192534	1.155833
C79	C	1.216690	-0.299474	0.531170
C80	C	1.716690	0.200526	1.031170
C81	C	1.284840	-0.231360	0.468826
C82	C	1.784840	0.268640	0.968826
C83	C	1.292830	-0.223374	0.344161
C84	C	1.792830	0.276626	0.844161
C85	C	1.164515	-0.351604	0.344196
C86	C	1.664515	0.148396	0.844196
C87	C	1.156531	-0.359595	0.468859
C88	C	1.656531	0.140405	0.968859
H89	H	0.760900	-0.485269	-0.000009
H90	H	1.260900	0.014731	0.499991
O91	O	1.401912	-0.114400	0.723013
O92	O	1.901912	0.385600	1.223013
H93	H	1.450648	-0.065704	0.658714
H94	H	1.950648	0.434296	1.158714
H95	H	1.030919	0.244710	-0.000005
H96	H	1.530919	0.744710	0.499995
O97	O	1.135205	-0.380928	0.723083
O98	O	1.635205	0.119072	1.223083
H99	H	1.139766	-0.376384	0.820237
H100	H	1.639766	0.123616	1.320237
H101	H	1.101041	-0.415050	0.519634
H102	H	1.601041	0.084950	1.019634
H103	H	0.928025	-0.410215	0.000002
H104	H	1.428025	0.089785	0.500002
O105	O	1.099615	-0.416450	0.276993
O106	O	1.599615	0.083550	0.776993
H107	H	1.116608	-0.399447	0.179832
H108	H	1.616608	0.100553	0.679832
O109	O	0.547188	-0.485405	-0.000009
O110	O	1.047188	0.014595	0.499991
H111	H	0.462451	-0.459680	-0.000000
H112	H	0.962451	0.040320	0.500000
H113	H	1.395566	0.057337	-0.000001
H114	H	1.895566	0.557337	0.499999
H115	H	1.053993	0.046246	0.000016
H116	H	1.553993	0.546246	0.500016
O117	O	1.497175	0.210799	-0.000027
O118	O	1.997175	0.710799	0.499973
H119	H	1.556074	0.269328	-0.000038
H120	H	2.056074	0.769328	0.499962
H121	H	0.740644	-0.045571	-0.000006
H122	H	1.240644	0.454429	0.499994
H123	H	1.447540	0.422893	-0.000035
H124	H	1.947540	0.922893	0.499965
O125	O	1.418476	-0.097749	0.463892
O126	O	1.918476	0.402251	0.963892
H127	H	1.413914	-0.102287	0.366737
H128	H	1.913914	0.397713	0.866737
H129	H	1.105972	0.411838	-0.000023
H130	H	1.605972	0.911838	0.499977
H131	H	0.573523	-0.120623	-0.000012
H132	H	1.073523	0.379377	0.499988
O133	O	0.954350	-0.045456	0.000005
O134	O	1.454350	0.454544	0.500005
H135	H	0.900064	0.026561	0.000000
H136	H	1.400064	0.526561	0.500000
O137	O	1.366313	-0.149900	0.276902
O138	O	1.866313	0.350100	0.776902
H139	H	1.447712	-0.172853	0.300802
H140	H	1.947712	0.327147	0.800802
