data_functionalizedCrystal
_audit_creation_method	'MofGen! by Chris Wilmer'
_symmetry_space_group_name_H-M	'P1'
_symmetry_Int_Tables_number	1
_symmetry_cell_setting	triclinic
loop_
_symmetry_equiv_pos_as_xyz
  x,y,z
_cell_length_a	15.538191
_cell_length_b	10.654550
_cell_length_c	9.130313
_cell_angle_alpha	90.000276
_cell_angle_beta	90.001214
_cell_angle_gamma	65.878512
loop_
_atom_site_label
_atom_site_type_symbol
_atom_site_fract_x
_atom_site_fract_y
_atom_site_fract_z
O1	O	0.131916	1.606172	0.121678
O2	O	0.144484	1.234818	0.121704
O3	O	0.001542	1.492782	0.121693
O4	O	0.274857	1.348208	0.121689
O5	O	0.001538	1.492771	-0.121906
O6	O	0.144479	1.234807	-0.121895
O7	O	0.131911	1.606161	-0.121921
Cu8	Cu	0.138195	1.420483	-0.144150
Cu9	Cu	0.138200	1.420496	0.143934
O10	O	0.274853	1.348197	-0.121910
C11	C	0.143559	1.188446	-0.000092
C12	C	0.140798	1.050293	-0.000082
C13	C	0.224959	0.931464	-0.000087
C14	C	0.222359	0.801659	-0.000112
C15	C	0.051429	0.909528	-0.000121
C16	C	0.054030	1.039330	-0.000106
C17	C	-0.033456	1.507903	-0.000102
C18	C	-0.137736	1.552959	-0.000091
C19	C	-0.428451	1.105338	-0.000091
C20	C	-0.526440	1.147707	-0.000098
C21	C	-0.547326	1.386021	-0.000114
C22	C	-0.449336	1.343672	-0.000100
C23	C	-0.389906	1.203329	-0.000091
C24	C	-0.410792	1.441663	-0.000099
C25	C	-0.312811	1.399317	-0.000094
C26	C	-0.253375	1.258980	-0.000089
C27	C	-0.291926	1.160983	-0.000085
C28	C	-0.470224	1.582005	-0.000119
C29	C	-0.431679	1.679996	-0.000119
C30	C	-0.333697	1.637651	-0.000102
C31	C	-0.274261	1.497314	-0.000097
C32	C	-0.295147	1.735648	-0.000106
C33	C	-0.197166	1.693302	-0.000100
C34	C	-0.176280	1.454968	-0.000092
C35	C	0.309851	1.333076	-0.000111
C36	C	0.414131	1.288020	-0.000113
C37	C	0.132836	1.652533	-0.000121
C38	C	0.135597	1.790685	-0.000122
N39	N	0.138191	1.420483	-0.346773
C40	C	0.074924	1.534726	-0.423429
C41	C	0.074924	1.534738	-0.576766
C42	C	0.201467	1.306256	-0.576776
C43	C	0.201462	1.306242	-0.423442
N44	N	0.138197	1.420509	0.346556
H45	H	0.295611	0.940383	-0.000078
O46	O	-0.370847	0.968952	-0.000130
C47	C	-0.425874	0.891533	-0.000078
H48	H	-0.498779	0.956637	-0.046211
H49	H	-0.390253	0.795942	-0.070781
H50	H	-0.433086	0.859415	0.116795
O51	O	0.013433	1.645852	-0.651003
C52	C	-0.042426	1.746658	-0.550446
H53	H	-0.003908	1.730502	-0.441141
H54	H	-0.056053	1.853161	-0.594735
H55	H	-0.112483	1.737827	-0.534148
H56	H	-0.480080	1.794264	-0.000132
O57	O	0.262800	1.195301	-0.651421
C58	C	0.211963	1.141001	-0.740112
H59	H	0.138817	1.224367	-0.763081
H60	H	0.251031	1.103340	-0.847936
H61	H	0.204934	1.051387	-0.681039
H62	H	0.252982	1.213205	-0.361024
H63	H	0.290892	0.704908	-0.000120
H64	H	-0.243533	1.046702	-0.000066
H65	H	-0.014509	1.136092	-0.000106
O66	O	-0.604964	1.522382	0.000079
C67	C	-0.587394	1.584519	0.126265
H68	H	-0.513284	1.519890	0.168330
H69	H	-0.593596	1.692087	0.097897
H70	H	-0.641092	1.591828	0.214603
H71	H	-0.173593	1.224505	-0.000092
H72	H	-0.019214	0.900584	-0.000150
H73	H	-0.127888	1.340687	-0.000073
H74	H	0.023403	1.627747	-0.361009
O75	O	-0.563995	1.052641	0.000103
C76	C	-0.620029	1.069988	0.126280
H77	H	-0.643772	1.179795	0.168339
H78	H	-0.684511	1.049335	0.097902
H79	H	-0.577117	0.994862	0.214626
O80	O	-0.565424	1.623380	-0.000190
C81	C	-0.609613	1.768259	-0.000173
H82	H	-0.559060	1.811328	-0.046297
H83	H	-0.675796	1.803822	-0.070902
H84	H	-0.629716	1.806780	0.116688
H85	H	-0.343549	1.849915	-0.000128
O86	O	-0.159760	1.788534	0.000172
C87	C	-0.190071	1.871397	0.126316
H88	H	-0.210903	1.813318	0.214491
H89	H	-0.130367	1.897589	0.168672
H90	H	-0.253450	1.970287	0.097790
