data_functionalizedCrystal
_audit_creation_method	'MofGen! by Chris Wilmer'
_symmetry_space_group_name_H-M	'P1'
_symmetry_Int_Tables_number	1
_symmetry_cell_setting	triclinic
loop_
_symmetry_equiv_pos_as_xyz
  x,y,z
_cell_length_a	19.121102
_cell_length_b	12.759399
_cell_length_c	12.759393
_cell_angle_alpha	89.969094
_cell_angle_beta	92.461703
_cell_angle_gamma	92.430450
loop_
_atom_site_label
_atom_site_type_symbol
_atom_site_fract_x
_atom_site_fract_y
_atom_site_fract_z
Zn1	Zn	1.073807	0.486843	0.662511
Zn2	Zn	1.573807	0.986843	1.162511
Zn3	Zn	1.073733	0.662554	0.486825
Zn4	Zn	1.573733	1.162554	0.986825
Zn5	Zn	0.956348	0.479387	0.479354
Zn6	Zn	1.456348	0.979387	0.979354
Zn7	Zn	0.956342	0.654973	0.654974
Zn8	Zn	1.456342	1.154973	1.154974
O9	O	1.015058	0.570939	0.570916
O10	O	1.515058	1.070939	1.070916
O11	O	1.172082	0.516444	0.645486
O12	O	1.672082	1.016444	1.145486
O13	O	1.058134	0.638309	0.338811
O14	O	1.558134	1.138309	0.838811
O15	O	0.971963	0.333357	0.503677
O16	O	1.471963	0.833357	1.003677
O17	O	1.172028	0.645538	0.516411
O18	O	1.672028	1.145538	1.016411
O19	O	1.058259	0.338835	0.638242
O20	O	1.558259	0.838835	1.138242
O21	O	0.971892	0.503737	0.333322
O22	O	1.471892	1.003737	0.833322
O23	O	0.858062	0.496386	0.496369
O24	O	1.358062	0.996386	0.996369
O25	O	0.971952	0.632618	0.802997
O26	O	1.471952	1.132618	1.302997
O27	O	0.858058	0.625389	0.625397
O28	O	1.358058	1.125389	1.125397
O29	O	1.058253	0.509093	0.808534
O30	O	1.558253	1.009093	1.308534
O31	O	1.058128	0.808567	0.509103
O32	O	1.558128	1.308567	1.009103
O33	O	0.971881	0.802998	0.632641
O34	O	1.471881	1.302998	1.132641
C35	C	0.832576	0.559257	0.559255
C36	C	1.332576	1.059257	1.059255
C37	C	0.754509	0.554284	0.554292
C38	C	1.254509	1.054284	1.054292
C39	C	1.015015	0.843904	0.570889
C40	C	1.515015	1.343904	1.070889
C41	C	1.015060	0.960683	0.570917
C42	C	1.515060	1.460683	1.070917
C43	C	1.015110	0.570842	0.844953
C44	C	1.515110	1.070842	1.344953
C45	C	1.015133	0.570800	0.961731
C46	C	1.515133	1.070800	1.461731
C47	C	0.717849	0.619214	0.619032
C48	C	1.217849	1.119214	1.119032
C49	C	0.644497	0.614528	0.614373
C50	C	1.144497	1.114528	1.114373
C51	C	0.607807	0.544916	0.544968
C52	C	1.107807	1.044916	1.044968
C53	C	0.644472	0.479980	0.480225
C54	C	1.144472	0.979980	0.980225
C55	C	0.717822	0.484661	0.484890
C56	C	1.217822	0.984661	0.984890
C57	C	0.386334	0.527411	0.527533
C58	C	0.886334	1.027411	1.027533
C59	C	0.312979	0.522737	0.522871
C60	C	0.812979	1.022737	1.022871
C61	C	0.313009	0.657284	0.657021
C62	C	0.813009	1.157284	1.157021
C63	C	0.386361	0.661964	0.661675
C64	C	0.886361	1.161964	1.161675
C65	C	0.423020	0.597023	0.596936
C66	C	0.923020	1.097023	1.096936
C67	C	0.532829	0.540127	0.540202
C68	C	1.032829	1.040127	1.040202
C69	C	0.497996	0.601808	0.601708
C70	C	0.997996	1.101808	1.101708
C71	C	1.198252	0.582668	0.582623
C72	C	1.698252	1.082668	1.082623
C73	C	1.276319	0.587666	0.587611
C74	C	1.776319	1.087666	1.087611
C75	C	1.015120	0.296910	0.570967
C76	C	1.515120	0.796910	1.070967
C77	C	1.015147	0.180135	0.570989
C78	C	1.515147	0.680135	1.070989
C79	C	1.060020	1.018414	0.506670
C80	C	1.560020	1.518414	1.006670
C81	C	1.060065	1.128141	0.506708
C82	C	1.560065	1.628141	1.006708
C83	C	0.970185	1.122397	0.635243
C84	C	1.470185	1.622397	1.135243
C85	C	0.970144	1.012672	0.635209
C86	C	1.470144	1.512672	1.135209
C87	C	1.015046	0.570963	0.297948
C88	C	1.515046	1.070963	0.797948
C89	C	1.015159	0.570717	0.181179
C90	C	1.515159	1.070717	0.681179
C91	C	1.060073	0.506470	1.019478
C92	C	1.560073	1.006470	1.519478
C93	C	1.060085	0.506426	1.129203
C94	C	1.560085	1.006426	1.629203
C95	C	0.970214	0.635050	1.123424
C96	C	1.470214	1.135050	1.623424
C97	C	0.970199	0.635088	1.013701
C98	C	1.470199	1.135088	1.513701
H99	H	0.614652	0.667402	0.667091
H100	H	1.114652	1.167402	1.167091
H101	H	0.933614	1.164740	0.687586
H102	H	1.433614	1.664740	1.187586
C103	C	0.920684	0.949164	0.705883
C104	C	1.420684	1.449164	1.205883
H105	H	0.893932	0.995840	0.744167
H106	H	1.393932	1.495840	1.244167
H107	H	0.947521	0.908006	0.753392
H108	H	1.447521	1.408006	1.253392
H109	H	0.890078	0.904477	0.663681
H110	H	1.390078	1.404477	1.163681
C111	C	0.758148	0.413237	0.413678
C112	C	1.258148	0.913237	0.913678
H113	H	0.725792	0.371113	0.371669
H114	H	1.225792	0.871113	0.871669
H115	H	0.786780	0.369337	0.455771
H116	H	1.286780	0.869337	0.955771
H117	H	0.786742	0.455198	0.369644
H118	H	1.286742	0.955198	0.869644
C119	C	1.109488	0.435743	0.962313
C120	C	1.609488	0.935743	1.462313
H121	H	1.136248	0.397416	1.012424
H122	H	1.636248	0.897416	1.512424
H123	H	1.140077	0.477899	0.921458
H124	H	1.640077	0.977899	1.421458
H125	H	1.082618	0.388259	0.917803
H126	H	1.582618	0.888259	1.417803
H127	H	1.096678	0.454040	1.176216
H128	H	1.596678	0.954040	1.676216
C129	C	0.272617	0.446171	0.446515
C130	C	0.772617	0.946171	0.946515
H131	H	0.223682	0.452699	0.452999
H132	H	0.723682	0.952699	0.952999
H133	H	0.284644	0.376362	0.462768
H134	H	0.784644	0.876362	0.962768
H135	H	0.284617	0.462242	0.376660
H136	H	0.784617	0.962242	0.876660
H137	H	0.933633	0.687393	1.165751
H138	H	1.433633	1.187393	1.665751
H139	H	0.416230	0.718651	0.718190
H140	H	0.916230	1.218651	1.218190
C141	C	0.920767	0.705861	0.950175
C142	C	1.420767	1.205861	1.450175
H143	H	0.894017	0.744156	0.996840
H144	H	1.394017	1.244156	1.496840
H145	H	0.890169	0.663731	0.905417
H146	H	1.390169	1.163731	1.405417
H147	H	0.947626	0.753375	0.909088
H148	H	1.447626	1.253375	1.409088
H149	H	0.502947	0.483452	0.483690
H150	H	1.002947	0.983452	0.983690
H151	H	0.283154	0.710154	0.709729
H152	H	0.783154	1.210154	1.209729
C153	C	0.758202	0.695786	0.695380
C154	C	1.258202	1.195786	1.195380
H155	H	0.725861	0.733776	0.733276
H156	H	1.225861	1.233776	1.233276
H157	H	0.786798	0.743341	0.656935
H158	H	1.286798	1.243341	1.156935
H159	H	0.786835	0.657469	0.743051
H160	H	1.286835	1.157469	1.243051
H161	H	0.614592	0.423296	0.423719
H162	H	1.114592	0.923296	0.923719
C163	C	0.426650	0.455997	0.456305
C164	C	0.926650	0.955997	0.956305
H165	H	0.394291	0.413883	0.414292
H166	H	0.894291	0.913883	0.914292
H167	H	0.455287	0.412089	0.498380
H168	H	0.955287	0.912089	0.998380
H169	H	0.455239	0.497972	0.412275
H170	H	0.955239	0.997972	0.912275
C171	C	1.109433	0.961229	0.435962
C172	C	1.609433	1.461229	0.935962
H173	H	1.136220	1.011331	0.397713
H174	H	1.636220	1.511331	0.897713
H175	H	1.082569	0.916779	0.388422
H176	H	1.582569	1.416779	0.888422
H177	H	1.140008	0.920313	0.478140
H178	H	1.640008	1.420313	0.978140
C179	C	1.109518	1.191639	0.436031
C180	C	1.609518	1.691639	0.936031
H181	H	1.136257	1.144958	0.397734
H182	H	1.636257	1.644958	0.897734
H183	H	1.140126	1.236327	0.478220
H184	H	1.640126	1.736327	0.978220
H185	H	1.082676	1.232796	0.388518
H186	H	1.582676	1.732796	0.888518
C187	C	0.538350	0.678377	0.678051
C188	C	1.038350	1.178377	1.178051
H189	H	0.506014	0.716378	0.715947
H190	H	1.006014	1.216378	1.215947
H191	H	0.566947	0.725924	0.639596
H192	H	1.066947	1.225924	1.139596
H193	H	0.566983	0.640061	0.725722
H194	H	1.066983	1.140061	1.225722
