data_functionalizedCrystal
_audit_creation_method	'MofGen! by Chris Wilmer'
_symmetry_space_group_name_H-M	'P1'
_symmetry_Int_Tables_number	1
_symmetry_cell_setting	triclinic
loop_
_symmetry_equiv_pos_as_xyz
  x,y,z
_cell_length_a	14.519731
_cell_length_b	14.519709
_cell_length_c	13.596369
_cell_angle_alpha	89.993066
_cell_angle_beta	89.994584
_cell_angle_gamma	83.684499
loop_
_atom_site_label
_atom_site_type_symbol
_atom_site_fract_x
_atom_site_fract_y
_atom_site_fract_z
O1	O	1.223856	0.120986	-0.081796
O2	O	1.557190	0.454320	0.251538
O3	O	1.890523	0.787653	0.584871
O4	O	0.955382	0.135202	-0.081797
O5	O	1.288715	0.468536	0.251536
O6	O	1.622049	0.801869	0.584869
O7	O	1.096737	-0.006144	-0.081788
O8	O	1.430071	0.327190	0.251546
O9	O	1.763404	0.660523	0.584879
O10	O	1.082501	0.262332	-0.081805
O11	O	1.415834	0.595666	0.251528
O12	O	1.749168	0.928999	0.584861
O13	O	1.096723	-0.006151	0.081795
O14	O	1.430057	0.327182	0.415129
O15	O	1.763390	0.660516	0.748462
O16	O	0.955368	0.135195	0.081785
O17	O	1.288701	0.468528	0.415119
O18	O	1.622035	0.801862	0.748452
O19	O	1.223842	0.120979	0.081787
O20	O	1.557176	0.454312	0.415121
O21	O	1.890509	0.787645	0.748454
Zn22	Zn	1.089603	0.128086	0.107759
Zn23	Zn	1.422936	0.461419	0.441092
Zn24	Zn	1.756270	0.794752	0.774425
Zn25	Zn	1.089621	0.128096	-0.107769
Zn26	Zn	1.422955	0.461429	0.225564
Zn27	Zn	1.756288	0.794762	0.558898
O28	O	1.082487	0.262325	0.081777
O29	O	1.415820	0.595658	0.415111
O30	O	1.749154	0.928991	0.748444
C31	C	0.921016	0.134532	-0.000006
C32	C	1.254349	0.467866	0.333327
C33	C	1.587682	0.801199	0.666661
C34	C	0.818635	0.132536	-0.000007
C35	C	1.151969	0.465870	0.333327
C36	C	1.485302	0.799203	0.666660
C37	C	0.735491	0.130915	-0.000010
C38	C	1.068825	0.464248	0.333323
C39	C	1.402158	0.797581	0.666656
C40	C	0.631182	0.128888	-0.000011
C41	C	0.964516	0.462221	0.333323
C42	C	1.297849	0.795555	0.666656
C43	C	0.548043	0.127280	-0.000010
C44	C	0.881377	0.460613	0.333323
C45	C	1.214710	0.793946	0.666656
C46	C	0.443728	0.125253	-0.000012
C47	C	0.777061	0.458586	0.333321
C48	C	1.110395	0.791920	0.666654
C49	C	1.096067	-0.040507	0.000004
C50	C	1.429400	0.292826	0.333337
C51	C	1.762734	0.626160	0.666671
C52	C	1.094079	-0.142889	0.000005
C53	C	1.427412	0.190445	0.333338
C54	C	1.760745	0.523778	0.666671
C55	C	1.086759	-0.517785	-0.000021
C56	C	1.420093	-0.184452	0.333312
C57	C	1.753426	0.148882	0.666646
C58	C	1.088792	-0.413477	-0.000014
C59	C	1.422125	-0.080143	0.333320
C60	C	1.755459	0.253190	0.666653
C61	C	1.090419	-0.330340	-0.000007
C62	C	1.423752	0.002993	0.333326
C63	C	1.757085	0.336327	0.666659
C64	C	1.092452	-0.226025	-0.000002
C65	C	1.425785	0.107308	0.333332
C66	C	1.759118	0.440641	0.666665
C67	C	1.258209	0.121649	-0.000006
C68	C	1.591542	0.454982	0.333327
C69	C	1.924875	0.788315	0.666660
C70	C	1.360589	0.123645	-0.000012
C71	C	1.693922	0.456978	0.333321
C72	C	2.027256	0.790311	0.666654
N73	N	1.089597	0.128078	0.254851
N74	N	1.422930	0.461412	0.588184
N75	N	1.756264	0.794745	0.921517
C76	C	1.083157	0.296688	-0.000016
C77	C	1.416491	0.630022	0.333317
C78	C	1.749824	0.963355	0.666650
C79	C	1.085146	0.399070	-0.000023
C80	C	1.418479	0.732403	0.333310
C81	C	1.751812	1.065736	0.666643
N82	N	1.089635	0.128096	-0.254861
N83	N	1.422968	0.461429	0.078473
N84	N	1.756301	0.794762	0.411806
C85	C	1.089620	0.128096	0.656141
C86	C	1.422954	0.461430	0.989475
C87	C	1.756287	0.794763	1.322808
C88	C	1.089611	0.128095	0.544490
C89	C	1.422944	0.461428	0.877823
C90	C	1.756278	0.794761	1.211157
C91	C	1.089609	0.128088	0.455500
C92	C	1.422942	0.461421	0.788833
C93	C	1.756276	0.794755	1.122166
C94	C	1.089599	0.128085	0.343841
C95	C	1.422932	0.461418	0.677174
C96	C	1.756266	0.794751	1.010508
