data_functionalizedCrystal
_audit_creation_method	'MofGen! by Chris Wilmer'
_symmetry_space_group_name_H-M	'P1'
_symmetry_Int_Tables_number	1
_symmetry_cell_setting	triclinic
loop_
_symmetry_equiv_pos_as_xyz
  x,y,z
_cell_length_a	13.339070
_cell_length_b	16.992694
_cell_length_c	16.053802
_cell_angle_alpha	92.750953
_cell_angle_beta	93.267614
_cell_angle_gamma	76.851241
loop_
_atom_site_label
_atom_site_type_symbol
_atom_site_fract_x
_atom_site_fract_y
_atom_site_fract_z
O1	O	0.214289	-1.090314	-0.069315
O2	O	0.211892	-0.861508	-0.069340
O3	O	0.063704	-0.949651	-0.069328
O4	O	0.362477	-1.002170	-0.069327
O5	O	0.071825	-0.944792	0.069530
O6	O	0.220013	-0.856649	0.069518
O7	O	0.222410	-1.085454	0.069543
Zn8	Zn	0.222501	-0.970280	0.091577
Zn9	Zn	0.211801	-0.976682	-0.091374
O10	O	0.370598	-0.997311	0.069531
C11	C	0.212871	-0.829196	0.000086
C12	C	0.203676	-0.740151	0.000076
C13	C	0.029358	-0.938350	0.000099
C14	C	-0.085082	-0.911906	0.000093
N15	N	0.229803	-0.965916	0.216437
C16	C	-0.433251	-1.117519	0.000116
C17	C	-0.325729	-1.142367	0.000126
C18	C	-0.265562	-1.084754	0.000118
C19	C	-0.312928	-1.002289	0.000099
C20	C	-0.420460	-0.977439	0.000095
C21	C	-0.252771	-0.944673	0.000097
C22	C	-0.300136	-0.862209	0.000078
C23	C	-0.407658	-0.837363	0.000074
C24	C	-0.467825	-0.894976	0.000082
C25	C	-0.145239	-0.969524	0.000101
C26	C	-0.132447	-0.829443	0.000080
C27	C	-0.239970	-0.804596	0.000070
C28	C	0.404944	-1.008612	0.000102
C29	C	0.519384	-1.035056	0.000103
C30	C	0.221431	-1.117767	0.000115
C31	C	0.230626	-1.206811	0.000120
C32	C	0.292389	-0.709211	0.000077
C33	C	0.283745	-0.625543	0.000089
C34	C	0.186385	-0.572817	0.000093
C35	C	0.097665	-0.603763	0.000095
C36	C	0.106311	-0.687429	0.000090
C37	C	0.150552	-0.321423	0.000116
C38	C	0.141912	-0.237752	0.000119
C39	C	0.327993	-0.259538	0.000114
C40	C	0.336630	-0.343205	0.000103
C41	C	0.247910	-0.374143	0.000109
N42	N	0.177547	-0.487295	0.000103
N43	N	0.256750	-0.459663	0.000106
N44	N	0.204492	-0.981051	-0.216234
C45	C	0.166774	-1.003445	0.260136
C46	C	0.171892	-1.000402	0.347543
C47	C	0.240045	-0.959834	0.391248
C48	C	0.303076	-0.922300	0.347543
C49	C	0.297952	-0.925339	0.260138
C50	C	0.262399	-0.946555	0.652656
C51	C	0.267520	-0.943522	0.740067
C52	C	0.136334	-1.021623	0.740060
C53	C	0.131221	-1.024662	0.652654
C54	C	0.194248	-0.987124	0.608956
N55	N	0.245281	-0.956725	0.480592
N56	N	0.189006	-0.990229	0.519615
H57	H	-0.106684	-1.036667	0.000116
F58	F	-0.005952	-0.547645	0.000105
F59	F	0.378167	-0.592619	0.000086
H60	H	0.371670	-0.752136	0.000073
F61	F	0.038285	-0.181636	0.000138
F62	F	-0.290393	-0.716833	0.000048
F63	F	-0.458065	-0.749596	0.000065
F64	F	-0.068418	-0.768122	0.000076
F65	F	-0.582269	-0.868537	-0.000008
F66	F	0.440253	-0.399315	0.000094
F67	F	0.422408	-0.226605	0.000109
H68	H	0.078309	-0.346602	0.000121
H69	H	0.323023	-0.910485	0.775648
H70	H	0.034071	-0.712618	0.000088
H71	H	0.111281	-1.036484	0.224557
H72	H	0.120569	-1.030961	0.383122
F73	F	0.375606	-0.879119	0.394059
H74	H	0.075725	-1.057695	0.617071
F75	F	0.069258	-1.061568	0.786572
F76	F	-0.497289	-1.178825	0.000138
F77	F	0.329479	-0.906608	0.606157
H78	H	-0.178013	-1.104990	0.000126
F79	F	-0.275327	-1.230128	0.000132
H80	H	0.349276	-0.894777	0.224559
