data_functionalizedCrystal
_audit_creation_method	'MofGen! by Chris Wilmer'
_symmetry_space_group_name_H-M	'P1'
_symmetry_Int_Tables_number	1
_symmetry_cell_setting	triclinic
loop_
_symmetry_equiv_pos_as_xyz
  x,y,z
_cell_length_a	16.120530
_cell_length_b	21.295417
_cell_length_c	16.120256
_cell_angle_alpha	92.868749
_cell_angle_beta	90.128265
_cell_angle_gamma	87.125778
loop_
_atom_site_label
_atom_site_type_symbol
_atom_site_fract_x
_atom_site_fract_y
_atom_site_fract_z
Zn1	Zn	1.247390	-0.318928	-0.534526
Zn2	Zn	1.254326	-0.419134	-0.395454
Zn3	Zn	1.115382	-0.308287	-0.388444
Zn4	Zn	1.108282	-0.418557	-0.527424
O5	O	1.181345	-0.366227	-0.461462
O6	O	1.364676	-0.336915	-0.521983
O7	O	1.241769	-0.400218	-0.278159
O8	O	1.132963	-0.221613	-0.407861
O9	O	1.369771	-0.410536	-0.419808
O10	O	1.229948	-0.229431	-0.515186
O11	O	1.139688	-0.318779	-0.273009
O12	O	0.998075	-0.318220	-0.400975
O13	O	1.120861	-0.409553	-0.644732
O14	O	0.992858	-0.399235	-0.503083
O15	O	1.223063	-0.336355	-0.649949
O16	O	1.234884	-0.507143	-0.412922
O17	O	1.127586	-0.506719	-0.509880
C18	C	0.965294	-0.357511	-0.450498
C19	C	0.872866	-0.353798	-0.445827
C20	C	0.703637	-0.347006	-0.437307
C21	C	0.659890	-0.385496	-0.485679
C22	C	0.565726	-0.381716	-0.480938
C23	C	0.797811	-0.350784	-0.442046
C24	C	1.181238	-0.529772	-0.461411
C25	C	1.181267	-0.599742	-0.461420
C26	C	1.237182	-0.632812	-0.410991
C27	C	1.237220	-0.698557	-0.411012
C28	C	1.181329	-0.731228	-0.461452
C29	C	1.125411	-0.698150	-0.511891
C30	C	1.125380	-0.632407	-0.511875
N31	N	1.108264	-0.831794	-0.464100
N32	N	1.108296	-0.894247	-0.464110
C33	C	1.181420	-0.929308	-0.461504
N34	N	1.254513	-0.899556	-0.458872
N35	N	1.254481	-0.837097	-0.458857
C36	C	1.181357	-0.802515	-0.461475
C37	C	1.237380	-1.033666	-0.411095
C38	C	1.237419	-1.099412	-0.411122
C39	C	1.125603	-1.099004	-0.511996
C40	C	1.125571	-1.033259	-0.511975
C41	C	1.181459	-1.000594	-0.461520
C42	C	1.398239	-0.374977	-0.472470
C43	C	1.490667	-0.378705	-0.477160
C44	C	1.170397	-0.374077	-0.678356
C45	C	1.165731	-0.377422	-0.770784
C46	C	1.181474	-0.202044	-0.461533
C47	C	1.181529	-0.132079	-0.461564
C48	C	1.205674	-0.348765	-0.983771
C49	C	1.157185	-0.383503	-0.940003
C50	C	1.161941	-0.380119	-0.845841
C51	C	1.200919	-0.352148	-1.077942
C52	C	1.192299	-0.358363	-0.245414
C53	C	1.197126	-0.354847	-0.152996
H54	H	1.282691	-0.606218	-0.369910
H55	H	1.112095	-0.415781	-0.973250
H56	H	0.670373	-0.311218	-0.392337
C57	C	1.298934	-1.135793	-0.355651
C58	C	1.360406	-1.099859	-0.300157
C59	C	1.421923	-1.136241	-0.244687
C60	C	1.421968	-1.208556	-0.244711
C61	C	1.360494	-1.244494	-0.300206
C62	C	1.298977	-1.208112	-0.355676
H63	H	1.360375	-1.046323	-0.300138
H64	H	1.467430	-1.109637	-0.203606
H65	H	1.467507	-1.235488	-0.203648
H66	H	1.360525	-1.298030	-0.300225
H67	H	1.253469	-1.234716	-0.396758
C68	C	0.704823	-0.433855	-0.546430
C69	C	0.766341	-0.484273	-0.513211
C70	C	0.811277	-0.532632	-0.573956
C71	C	0.794695	-0.530573	-0.667920
C72	C	0.733174	-0.480153	-0.701143
C73	C	0.688238	-0.431794	-0.640398
H74	H	0.778618	-0.485799	-0.443650
H75	H	0.856819	-0.569957	-0.549362
H76	H	0.827959	-0.566372	-0.712887
H77	H	0.720897	-0.478627	-0.770704
H78	H	0.642697	-0.394469	-0.664992
H79	H	1.282890	-1.007069	-0.370014
C80	C	1.266585	-0.305161	-0.938863
C81	C	1.259282	-0.233744	-0.950360
C82	C	1.320194	-0.190143	-0.905439
C83	C	1.388408	-0.217960	-0.849022
C84	C	1.395714	-0.289381	-0.837522
C85	C	1.334802	-0.332982	-0.882443
H86	H	1.208783	-0.213149	-0.992125
H87	H	1.314785	-0.137272	-0.913952
H88	H	1.433499	-0.185684	-0.815769
H89	H	1.446213	-0.309976	-0.795757
H90	H	1.340211	-0.385852	-0.873930
C91	C	1.063866	-0.596026	-0.567346
C92	C	1.000409	-0.546953	-0.527935
C93	C	0.938892	-0.510570	-0.583405
C94	C	0.940833	-0.523261	-0.678286
C95	C	1.004292	-0.572336	-0.717702
C96	C	1.065808	-0.608718	-0.662232
H97	H	0.998970	-0.537557	-0.457694
H98	H	0.891916	-0.474242	-0.554226
H99	H	0.895295	-0.496328	-0.719348
H100	H	1.005730	-0.581732	-0.787943
H101	H	1.112785	-0.645047	-0.691411
H102	H	1.282755	-0.725488	-0.369947
C103	C	1.063930	-0.734085	-0.567376
C104	C	1.063958	-0.806399	-0.567393
C105	C	1.002478	-0.842334	-0.622885
C106	C	0.940970	-0.805954	-0.678359
C107	C	0.940940	-0.733635	-0.678344
C108	C	1.002420	-0.697701	-0.622853
H109	H	1.109491	-0.833334	-0.526326
H110	H	1.002501	-0.895869	-0.622895
H111	H	0.895459	-0.832554	-0.719437
H112	H	0.895406	-0.706701	-0.719411
H113	H	1.002397	-0.644165	-0.622842
H114	H	1.080037	-1.006331	-0.553035
H115	H	1.080099	-1.125604	-0.553070
