data_functionalizedCrystal
_audit_creation_method	'MofGen! by Chris Wilmer'
_symmetry_space_group_name_H-M	'P1'
_symmetry_Int_Tables_number	1
_symmetry_cell_setting	triclinic
loop_
_symmetry_equiv_pos_as_xyz
  x,y,z
_cell_length_a	18.215407
_cell_length_b	16.959454
_cell_length_c	18.215398
_cell_angle_alpha	89.978830
_cell_angle_beta	89.980536
_cell_angle_gamma	90.020523
loop_
_atom_site_label
_atom_site_type_symbol
_atom_site_fract_x
_atom_site_fract_y
_atom_site_fract_z
Zn1	Zn	1.125094	-0.314700	-0.416138
Zn2	Zn	1.625094	0.185300	0.083862
Zn3	Zn	1.125013	-0.446879	-0.293080
Zn4	Zn	1.625013	0.053121	0.206920
Zn5	Zn	1.002027	-0.314720	-0.293085
Zn6	Zn	1.502027	0.185280	0.206915
Zn7	Zn	1.002003	-0.446841	-0.416105
Zn8	Zn	1.502003	0.053159	0.083895
O9	O	1.063534	-0.380785	-0.354602
O10	O	1.563534	0.119215	0.145398
O11	O	1.228067	-0.332241	-0.399825
O12	O	1.728067	0.167759	0.100175
O13	O	1.108676	-0.429373	-0.190097
O14	O	1.608676	0.070627	0.309903
O15	O	1.018396	-0.204106	-0.309424
O16	O	1.518396	0.295894	0.190576
O17	O	1.228008	-0.429353	-0.309416
O18	O	1.728008	0.070647	0.190584
O19	O	1.108813	-0.204092	-0.399830
O20	O	1.608813	0.295908	0.100170
O21	O	1.018318	-0.332276	-0.190100
O22	O	1.518318	0.167724	0.309900
O23	O	0.899040	-0.332239	-0.309392
O24	O	1.399040	0.167761	0.190608
O25	O	1.018354	-0.429288	-0.519094
O26	O	1.518354	0.070712	-0.019094
O27	O	0.899022	-0.429308	-0.399775
O28	O	1.399022	0.070692	0.100225
O29	O	1.108789	-0.332204	-0.519118
O30	O	1.608789	0.167796	-0.019118
O31	O	1.108652	-0.557485	-0.309385
O32	O	1.608652	-0.057485	0.190615
O33	O	1.018276	-0.557457	-0.399770
O34	O	1.518276	-0.057457	0.100230
C35	C	0.872328	-0.380772	-0.354581
C36	C	1.372328	0.119228	0.145419
C37	C	0.790529	-0.380785	-0.354589
C38	C	1.290529	0.119215	0.145411
C39	C	1.063473	-0.586151	-0.354590
C40	C	1.563473	-0.086151	0.145410
C41	C	1.063514	-0.674008	-0.354609
C42	C	1.563514	-0.174008	0.145391
C43	C	0.602345	-0.431408	-0.401593
C44	C	1.102345	0.068592	0.098407
C45	C	0.525486	-0.431411	-0.401602
C46	C	1.025486	0.068589	0.098398
C47	C	0.525476	-0.330176	-0.307628
C48	C	1.025476	0.169824	0.192372
C49	C	0.602333	-0.330171	-0.307623
C50	C	1.102333	0.169829	0.192377
C51	C	0.640766	-0.380791	-0.354604
C52	C	1.140766	0.119209	0.145396
C53	C	0.487050	-0.380799	-0.354618
C54	C	0.987050	0.119201	0.145382
C55	C	0.403716	-0.380802	-0.354628
C56	C	0.903716	0.119198	0.145372
C57	C	0.724105	-0.380788	-0.354596
C58	C	1.224105	0.119212	0.145404
C59	C	1.016544	-1.045499	-0.401661
C60	C	1.516544	-0.545499	0.098339
C61	C	1.110729	-1.045468	-0.307618
C62	C	1.610729	-0.545468	0.192382
C63	C	1.110704	-0.962922	-0.307611
C64	C	1.610704	-0.462922	0.192389
C65	C	1.063597	-0.921661	-0.354629
C66	C	1.563597	-0.421661	0.145371
C67	C	1.016515	-0.962945	-0.401654
C68	C	1.516515	-0.462945	0.098346
C69	C	1.157779	-0.921632	-0.260582
C70	C	1.657779	-0.421632	0.239418
C71	C	1.157755	-0.839081	-0.260573
C72	C	1.657755	-0.339081	0.239427
C73	C	1.110651	-0.797818	-0.307595
C74	C	1.610651	-0.297818	0.192405
C75	C	1.063568	-0.839107	-0.354622
C76	C	1.563568	-0.339107	0.145378
C77	C	1.016461	-0.797846	-0.401640
C78	C	1.516461	-0.297846	0.098360
C79	C	0.969381	-0.839134	-0.448672
C80	C	1.469381	-0.339134	0.051328
C81	C	0.969411	-0.921683	-0.448676
C82	C	1.469411	-0.421683	0.051324
C83	C	1.110621	-0.715269	-0.307591
C84	C	1.610621	-0.215269	0.192409
C85	C	1.016432	-0.715292	-0.401634
C86	C	1.516432	-0.215292	0.098366
C87	C	1.255487	-0.380799	-0.354624
C88	C	1.755487	0.119201	0.145376
C89	C	1.337286	-0.380805	-0.354633
C90	C	1.837286	0.119195	0.145367
C91	C	1.063578	-0.380740	-0.546555
C92	C	1.563578	0.119260	-0.046555
C93	C	1.063596	-0.380720	-0.628354
C94	C	1.563596	0.119280	-0.128354
C95	C	1.063616	-0.174617	-0.354631
C96	C	1.563616	0.325383	0.145369
C97	C	1.063651	-0.086760	-0.354643
C98	C	1.563651	0.413240	0.145357
C99	C	1.110679	-0.431181	-0.893414
C100	C	1.610679	0.068819	-0.393414
C101	C	1.110668	-0.431209	-0.816556
C102	C	1.610668	0.068791	-0.316556
C103	C	1.016569	-0.330107	-0.816542
C104	C	1.516569	0.169893	-0.316542
C105	C	1.016577	-0.330084	-0.893400
C106	C	1.516577	0.169916	-0.393400
C107	C	1.063636	-0.380620	-0.931834
C108	C	1.563636	0.119380	-0.431834
C109	C	1.063617	-0.380670	-0.778118
C110	C	1.563617	0.119330	-0.278118
C111	C	1.063605	-0.380700	-0.694784
C112	C	1.563605	0.119300	-0.194784
C113	C	1.063648	-0.380592	-1.015173
C114	C	1.563648	0.119408	-0.515173
C115	C	1.063533	-0.380773	-0.163396
C116	C	1.563533	0.119227	0.336604
C117	C	1.063657	-0.380570	-0.081597
C118	C	1.563657	0.119430	0.418403
H119	H	0.633635	-0.472625	-0.439850
H120	H	1.133635	0.027375	0.060150
C121	C	1.162438	-0.486772	-0.935690
C122	C	1.662438	0.013228	-0.435690
H123	H	1.190449	-0.516892	-0.901798
H124	H	1.690449	-0.016892	-0.401798
H125	H	1.194517	-0.456528	-0.965681
H126	H	1.694517	0.043472	-0.465681
H127	H	1.134274	-0.521206	-0.965662
H128	H	1.634274	-0.021206	-0.465662
C129	C	0.483227	-0.487088	-0.453291
C130	C	0.983227	0.012912	0.046709
H131	H	0.517126	-0.517235	-0.481266
H132	H	1.017126	-0.017235	0.018734
H133	H	0.453269	-0.456897	-0.485406
H134	H	0.953269	0.043103	0.014594
H135	H	0.453222	-0.521494	-0.425086
H136	H	0.953222	-0.021494	0.074914
C137	C	0.964818	-0.274477	-0.935667
C138	C	1.464818	0.225523	-0.435667
H139	H	0.971555	-0.281713	-0.986945
H140	H	1.471555	0.218287	-0.486945
H141	H	0.975592	-0.221367	-0.923088
H142	H	1.475592	0.278633	-0.423088
H143	H	0.915368	-0.286066	-0.923054
H144	H	1.415368	0.213934	-0.423054
H145	H	1.148949	-0.681656	-0.269295
H146	H	1.648949	-0.181656	0.230705
C147	C	0.483197	-0.274508	-0.255945
C148	C	0.983197	0.225492	0.244055
H149	H	0.431921	-0.281766	-0.262670
H150	H	0.931921	0.218234	0.237330
H151	H	0.495809	-0.221412	-0.266792
H152	H	0.995809	0.278588	0.233208
H153	H	0.495773	-0.286015	-0.206478
H154	H	0.995773	0.213985	0.293522
H155	H	0.633616	-0.288947	-0.269359
H156	H	1.133616	0.211053	0.230641
H157	H	1.196090	-0.805469	-0.222279
H158	H	1.696090	-0.305469	0.277721
H159	H	1.149078	-1.079068	-0.269334
H160	H	1.649078	-0.579068	0.230666
H161	H	1.196126	-0.955233	-0.222297
H162	H	1.696126	-0.455233	0.277703
H163	H	0.978074	-0.681702	-0.439924
H164	H	1.478074	-0.181702	0.060076
C165	C	0.917567	-0.793741	-0.500389
C166	C	1.417567	-0.293741	-0.000389
H167	H	0.924298	-0.738666	-0.493647
H168	H	1.424298	-0.238666	0.006353
H169	H	0.868130	-0.807313	-0.489580
H170	H	1.368130	-0.307313	0.010420
H171	H	0.928321	-0.807230	-0.549851
H172	H	1.428321	-0.307230	-0.049851
H173	H	1.148975	-0.472381	-0.785278
H174	H	1.648975	0.027619	-0.285278
H175	H	0.978256	-0.288961	-0.785240
H176	H	1.478256	0.211039	-0.285240
C177	C	0.917626	-0.967096	-0.500404
C178	C	1.417626	-0.467096	-0.000404
H179	H	0.889571	-0.930702	-0.528411
H180	H	1.389571	-0.430702	-0.028411
H181	H	0.885589	-0.999337	-0.472224
H182	H	1.385589	-0.499337	0.027776
H183	H	0.945776	-0.999261	-0.532498
H184	H	1.445776	-0.499261	-0.032498
C185	C	0.964758	-1.090910	-0.453389
C186	C	1.464758	-0.590910	0.046611
H187	H	0.971517	-1.145984	-0.446660
H188	H	1.471517	-0.645984	0.053340
H189	H	0.975493	-1.077346	-0.502844
H190	H	1.475493	-0.577346	-0.002844
H191	H	0.915311	-1.077426	-0.442565
H192	H	1.415311	-0.577426	0.057435
