data_functionalizedCrystal
_audit_creation_method	'MofGen! by Chris Wilmer'
_symmetry_space_group_name_H-M	'P1'
_symmetry_Int_Tables_number	1
_symmetry_cell_setting	triclinic
loop_
_symmetry_equiv_pos_as_xyz
  x,y,z
_cell_length_a	6.817900
_cell_length_b	17.458045
_cell_length_c	17.078481
_cell_angle_alpha	95.900285
_cell_angle_beta	99.306161
_cell_angle_gamma	106.367962
loop_
_atom_site_label
_atom_site_type_symbol
_atom_site_fract_x
_atom_site_fract_y
_atom_site_fract_z
V1	V	-3.994431	-0.110378	-0.248065
V2	V	-3.494431	0.389622	0.251935
O3	O	-3.967309	0.005496	-0.242618
O4	O	-3.467309	0.505496	0.257382
O5	O	-3.960837	-0.219046	-0.247067
O6	O	-3.460837	0.280954	0.252933
O7	O	-3.925238	-0.108596	-0.355937
O8	O	-3.425238	0.391404	0.144063
O9	O	-4.003154	-0.105718	-0.132994
O10	O	-3.503154	0.394282	0.367006
V11	V	-4.478835	-0.096528	-0.234217
V12	V	-3.978835	0.403472	0.265783
O13	O	-4.253757	-0.140759	-0.278443
O14	O	-3.753757	0.359241	0.221557
O15	O	-4.669705	-0.066147	-0.203840
O16	O	-4.169705	0.433853	0.296160
O17	O	-4.289222	0.012140	-0.235216
O18	O	-3.789222	0.512140	0.264784
O19	O	-4.623354	-0.212402	-0.239665
O20	O	-4.123354	0.287598	0.260335
O21	O	-4.587508	-0.101188	-0.349289
O22	O	-4.087508	0.398812	0.150711
O23	O	-4.324821	-0.098310	-0.126346
O24	O	-3.824821	0.401690	0.373654
C25	C	-3.810113	-0.245539	-0.243333
C26	C	-3.310113	0.254461	0.256667
C27	C	-3.863794	-0.334376	-0.243236
C28	C	-3.363794	0.165624	0.256764
C29	C	-3.707115	-0.372046	-0.239204
C30	C	-3.207115	0.127954	0.260796
C31	C	-3.757563	-0.455517	-0.239103
C32	C	-3.257563	0.044483	0.260897
C33	C	-3.964692	-0.501316	-0.243039
C34	C	-3.464692	-0.001316	0.256961
C35	C	-4.121380	-0.463639	-0.247068
C36	C	-3.621380	0.036361	0.252932
C37	C	-4.070929	-0.380169	-0.247164
C38	C	-3.570929	0.119831	0.252836
C39	C	-4.135083	-0.751389	-0.243175
C40	C	-3.635083	-0.251389	0.256825
C41	C	-4.185524	-0.834865	-0.243081
C42	C	-3.685524	-0.334865	0.256919
C43	C	-3.821702	-0.826736	-0.235115
C44	C	-3.321702	-0.326736	0.264885
C45	C	-3.771269	-0.743266	-0.235215
C46	C	-3.271269	-0.243266	0.264785
C47	C	-3.927958	-0.705596	-0.239240
C48	C	-3.427958	-0.205596	0.260760
N49	N	-4.016263	-0.586636	-0.242938
N50	N	-3.516263	-0.086636	0.257062
N51	N	-3.876384	-0.620276	-0.239336
N52	N	-3.376384	-0.120276	0.260664
C53	C	-3.764701	-0.104648	-0.382207
C54	C	-3.264701	0.395352	0.117793
C55	C	-3.789510	-0.103911	-0.470397
C56	C	-3.289510	0.396089	0.029603
C57	C	-3.983040	-0.107553	-0.515896
C58	C	-3.483040	0.392447	-0.015896
C59	C	-4.006339	-0.106859	-0.598760
C60	C	-3.506339	0.393141	-0.098760
C61	C	-3.836107	-0.102528	-0.636124
C62	C	-3.336107	0.397472	-0.136124
C63	C	-3.642559	-0.098883	-0.590619
C64	C	-3.142559	0.401117	-0.090619
C65	C	-3.619260	-0.099571	-0.507756
C66	C	-3.119260	0.400429	-0.007756
C67	C	-3.886283	-0.100037	-0.883512
C68	C	-3.386283	0.399963	-0.383512
C69	C	-3.909600	-0.099352	-0.966381
C70	C	-3.409600	0.400648	-0.466381
C71	C	-4.273377	-0.107326	-0.974517
C72	C	-3.773377	0.392674	-0.474517
C73	C	-4.250064	-0.108019	-0.891652
C74	C	-3.750064	0.391981	-0.391652
C75	C	-4.056517	-0.104369	-0.846153
C76	C	-3.556517	0.395631	-0.346153
N77	N	-3.859919	-0.101821	-0.720825
N78	N	-3.359919	0.398179	-0.220825
N79	N	-4.032704	-0.105071	-0.761454
N80	N	-3.532704	0.394929	-0.261454
C81	C	-4.103289	0.038629	-0.238947
C82	C	-3.603289	0.538629	0.261053
C83	C	-4.028845	0.127465	-0.239050
C84	C	-3.528845	0.627465	0.260950
C85	C	-4.148701	-0.102260	-0.100071
C86	C	-3.648701	0.397740	0.399929
C87	C	-4.103131	-0.102994	-0.011880
C88	C	-3.603131	0.397006	0.488120
H89	H	-3.538455	-0.334763	-0.236005
H90	H	-3.038455	0.165237	0.263995
H91	H	-3.694139	-0.857416	-0.231836
H92	H	-3.194139	-0.357416	0.268164
Cl93	Cl	-4.267907	-0.332812	-0.252232
Cl94	Cl	-3.767907	0.167188	0.247768
Cl95	Cl	-4.445934	-0.892441	-0.248034
Cl96	Cl	-3.945934	-0.392441	0.251966
H97	H	-4.262679	-0.720730	-0.246459
H98	H	-3.762679	-0.220730	0.253541
H99	H	-3.503953	-0.095352	-0.621046
H100	H	-3.003953	0.404648	-0.121046
Cl101	Cl	-4.381769	-0.521214	-0.252006
Cl102	Cl	-3.881769	-0.021214	0.247994
Cl103	Cl	-3.560576	-0.502868	-0.234018
Cl104	Cl	-3.060576	-0.002868	0.265982
Cl105	Cl	-4.197065	-0.113003	-0.468934
Cl106	Cl	-3.697065	0.386997	0.031066
Cl107	Cl	-4.249651	-0.111449	-0.655957
Cl108	Cl	-3.749651	0.388551	-0.155957
H109	H	-3.728707	-0.097094	-0.846481
H110	H	-3.228707	0.402906	-0.346481
H111	H	-4.388688	-0.111544	-0.861236
H112	H	-3.888688	0.388456	-0.361236
H113	H	-4.430957	-0.110296	-1.011570
H114	H	-3.930957	0.389704	-0.511570
H115	H	-3.461656	-0.096586	-0.470708
H116	H	-2.961656	0.403414	0.029292
Cl117	Cl	-3.695577	-0.093907	-1.013352
Cl118	Cl	-3.195577	0.406093	-0.513352
H119	H	-3.602605	-0.705981	-0.232007
H120	H	-3.102605	-0.205981	0.267993
