data_functionalizedCrystal
_audit_creation_method	'MofGen! by Chris Wilmer'
_symmetry_space_group_name_H-M	'P1'
_symmetry_Int_Tables_number	1
_symmetry_cell_setting	triclinic
loop_
_symmetry_equiv_pos_as_xyz
  x,y,z
_cell_length_a	10.489741
_cell_length_b	26.809956
_cell_length_c	10.489741
_cell_angle_alpha	89.995319
_cell_angle_beta	84.539174
_cell_angle_gamma	90.006219
loop_
_atom_site_label
_atom_site_type_symbol
_atom_site_fract_x
_atom_site_fract_y
_atom_site_fract_z
O1	O	1.694064	0.041448	0.179950
O2	O	2.194064	0.541448	0.679950
O3	O	1.322868	0.041456	0.196843
O4	O	1.822868	0.541456	0.696843
O5	O	1.516912	0.041449	0.002799
O6	O	2.016912	0.541449	0.502799
O7	O	1.500019	0.041455	0.373994
O8	O	2.000019	0.541455	0.873994
O9	O	1.516875	-0.041510	0.002828
O10	O	2.016875	0.458490	0.502828
O11	O	1.322831	-0.041503	0.196872
O12	O	1.822831	0.458497	0.696872
O13	O	1.694027	-0.041511	0.179980
O14	O	2.194027	0.458489	0.679980
Zn15	Zn	1.508423	-0.054678	0.188431
Zn16	Zn	2.008423	0.445322	0.688431
Zn17	Zn	1.508472	0.054624	0.188392
Zn18	Zn	2.008472	0.554624	0.688392
O19	O	1.499983	-0.041504	0.374024
O20	O	1.999983	0.458496	0.874024
C21	C	1.275318	-0.000022	0.195582
C22	C	1.775318	0.499978	0.695582
C23	C	1.133688	-0.000020	0.191765
C24	C	1.633688	0.499980	0.691765
C25	C	1.065548	-0.000026	0.068300
C26	C	1.565548	0.499974	0.568300
C27	C	0.973440	0.040877	0.126609
C28	C	1.473440	0.540877	0.626609
C29	C	0.973437	-0.040914	0.126667
C30	C	1.473437	0.459086	0.626667
C31	C	1.043445	0.040917	0.250124
C32	C	1.543445	0.540917	0.750124
C33	C	1.043452	-0.040911	0.250166
C34	C	1.543452	0.459089	0.750166
C35	C	0.951371	0.000003	0.308564
C36	C	1.451371	0.500003	0.808564
N37	N	1.508399	-0.129274	0.188457
N38	N	2.008399	0.370726	0.688457
C39	C	1.594383	-0.473904	0.102490
C40	C	2.094383	0.026096	0.602490
C41	C	1.594413	-0.682781	0.102471
C42	C	2.094413	-0.182781	0.602471
O43	O	1.667468	-0.709788	0.029387
O44	O	2.167468	-0.209788	0.529387
N45	N	1.508478	-0.708902	0.188364
N46	N	2.008478	-0.208902	0.688364
C47	C	1.422524	-0.682799	0.274262
C48	C	1.922524	-0.182799	0.774262
O49	O	1.349422	-0.709809	0.347309
O50	O	1.849422	-0.209809	0.847309
C51	C	1.422488	-0.473922	0.274274
C52	C	1.922488	0.026078	0.774274
C53	C	1.508438	-0.447805	0.188384
C54	C	2.008438	0.052195	0.688384
C55	C	1.680325	-0.447786	0.016607
C56	C	2.180325	0.052214	0.516607
C57	C	1.680321	-0.395570	0.016617
C58	C	2.180321	0.104430	0.516617
C59	C	1.594376	-0.369471	0.102511
C60	C	2.094376	0.130529	0.602511
C61	C	1.508434	-0.395589	0.188394
C62	C	2.008434	0.104411	0.688394
C63	C	1.336529	-0.447821	0.360164
C64	C	1.836529	0.052179	0.860164
C65	C	1.336525	-0.395599	0.360157
C66	C	1.836525	0.104401	0.860157
C67	C	1.422475	-0.369481	0.274268
C68	C	1.922475	0.130519	0.774268
C69	C	1.422485	-0.317274	0.274299
C70	C	1.922485	0.182726	0.774299
N71	N	1.508421	-0.291153	0.188406
N72	N	2.008421	0.208847	0.688406
C73	C	1.594366	-0.317252	0.102512
C74	C	2.094366	0.182748	0.602512
C75	C	1.422550	-0.792462	0.274251
C76	C	1.922550	-0.292462	0.774251
C77	C	1.422560	-0.844681	0.274250
C78	C	1.922560	-0.344681	0.774250
C79	C	1.594449	-0.844660	0.102457
C80	C	2.094449	-0.344660	0.602457
C81	C	1.594444	-0.792440	0.102466
C82	C	2.094444	-0.292440	0.602466
C83	C	1.508485	-0.766342	0.188358
C84	C	2.008485	-0.266342	0.688358
C85	C	1.594353	-0.207594	0.102541
C86	C	2.094353	0.292406	0.602541
C87	C	1.594345	-0.155373	0.102563
C88	C	2.094345	0.344627	0.602563
C89	C	1.422452	-0.155399	0.274350
C90	C	1.922452	0.344601	0.774350
C91	C	1.422464	-0.207616	0.274334
C92	C	1.922464	0.292384	0.774334
C93	C	1.508419	-0.233712	0.188419
C94	C	2.008419	0.266288	0.688419
O95	O	1.349459	-0.290235	0.347335
O96	O	1.849459	0.209765	0.847335
O97	O	1.667437	-0.290233	0.029456
O98	O	2.167437	0.209767	0.529456
C99	C	1.594387	-0.526120	0.102480
C100	C	2.094387	-0.026120	0.602480
C101	C	1.508445	-0.552238	0.188363
C102	C	2.008445	-0.052238	0.688363
C103	C	1.422500	-0.526139	0.274257
C104	C	1.922500	-0.026139	0.774257
C105	C	1.508456	-0.604456	0.188362
C106	C	2.008456	-0.104456	0.688362
C107	C	1.594401	-0.630555	0.102468
C108	C	2.094401	-0.130555	0.602468
C109	C	1.680336	-0.604435	0.016576
C110	C	2.180336	-0.104435	0.516576
C111	C	1.680332	-0.552219	0.016586
C112	C	2.180332	-0.052219	0.516586
C113	C	1.336565	-0.552259	0.360150
C114	C	1.836565	-0.052259	0.860150
C115	C	1.336577	-0.604475	0.360133
C116	C	1.836577	-0.104475	0.860133
C117	C	1.422522	-0.630574	0.274240
C118	C	1.922522	-0.130574	0.774240
C119	C	1.741577	-0.000031	0.181241
C120	C	2.241577	0.499969	0.681241
C121	C	1.883206	-0.000031	0.185058
C122	C	2.383206	0.499969	0.685058
C123	C	1.515618	-0.000030	-0.044718
C124	C	2.015618	0.499970	0.455282
C125	C	1.511801	-0.000029	-0.186348
C126	C	2.011801	0.499971	0.313652
N127	N	1.508505	0.129220	0.188356
N128	N	2.008505	0.629220	0.688356
C129	C	1.388336	-0.000023	-0.254488
C130	C	1.888336	0.499977	0.245512
C131	C	1.446642	-0.040927	-0.346596
C132	C	1.946642	0.459073	0.153404
C133	C	1.446707	0.040864	-0.346599
C134	C	1.946707	0.540864	0.153401
C135	C	1.570157	-0.040967	-0.276590
C136	C	2.070157	0.459033	0.223410
C137	C	1.570205	0.040861	-0.276584
C138	C	2.070205	0.540861	0.223416
C139	C	1.628600	-0.000054	-0.368665
C140	C	2.128600	0.499946	0.131335
C141	C	1.501277	-0.000023	0.421541
C142	C	2.001277	0.499977	0.921541
C143	C	1.505094	-0.000021	0.563170
C144	C	2.005094	0.499979	1.063170
H145	H	1.115238	0.000023	-0.033196
H146	H	1.615238	0.500023	0.466804
H147	H	1.664343	-0.228836	0.032580
H148	H	2.164343	0.271164	0.532580
H149	H	1.664340	-0.134110	0.032621
H150	H	2.164340	0.365890	0.532621
H151	H	1.394385	-0.075507	-0.377595
H152	H	1.894385	0.424493	0.122405
H153	H	1.730204	-0.000079	-0.418089
H154	H	2.230204	0.499921	0.081911
H155	H	1.622337	-0.075588	-0.245746
H156	H	2.122337	0.424412	0.254254
H157	H	1.750321	-0.625693	-0.053358
H158	H	2.250321	-0.125693	0.446642
H159	H	1.074483	-0.075492	0.302376
H160	H	1.574483	0.424508	0.802376
H161	H	1.074288	0.075537	0.302312
H162	H	1.574288	0.575537	0.802312
H163	H	1.750312	-0.469031	-0.053344
H164	H	2.250312	0.030969	0.446656
H165	H	0.942444	-0.075495	0.074417
H166	H	1.442444	0.424505	0.574417
H167	H	1.352489	-0.228881	0.344285
H168	H	1.852489	0.271119	0.844285
H169	H	1.286824	-0.000062	-0.204837
H170	H	1.786824	0.499938	0.295163
H171	H	1.622417	0.075442	-0.245552
H172	H	2.122417	0.575442	0.254448
H173	H	0.942441	0.075456	0.074356
H174	H	1.442441	0.575456	0.574356
H175	H	1.266588	-0.625737	0.430086
H176	H	1.766588	-0.125737	0.930086
H177	H	1.394466	0.075449	-0.377576
H178	H	1.894466	0.575449	0.122424
H179	H	1.664430	-0.771178	0.032527
H180	H	2.164430	-0.271178	0.532527
H181	H	0.901947	0.000027	0.410168
H182	H	1.401947	0.500027	0.910168
H183	H	1.664431	-0.865918	0.032521
H184	H	2.164431	-0.365918	0.532521
H185	H	1.352585	-0.865943	0.344202
H186	H	1.852585	-0.365943	0.844202
H187	H	1.750305	-0.374308	-0.053325
H188	H	2.250305	0.125692	0.446675
H189	H	1.750320	-0.530957	-0.053353
H190	H	2.250320	-0.030957	0.446647
H191	H	1.352550	-0.771217	0.344198
H192	H	1.852550	-0.271217	0.844198
H193	H	1.266540	-0.469079	0.430102
H194	H	1.766540	0.030921	0.930102
H195	H	1.266524	-0.374352	0.430100
H196	H	1.766524	0.125648	0.930100
H197	H	1.352480	-0.134142	0.344288
H198	H	1.852480	0.365858	0.844288
H199	H	1.266576	-0.531014	0.430093
H200	H	1.766576	-0.031014	0.930093
