data_functionalizedCrystal
_audit_creation_method	'MofGen! by Chris Wilmer'
_symmetry_space_group_name_H-M	'P1'
_symmetry_Int_Tables_number	1
_symmetry_cell_setting	triclinic
loop_
_symmetry_equiv_pos_as_xyz
  x,y,z
_cell_length_a	9.065215
_cell_length_b	10.268362
_cell_length_c	9.065215
_cell_angle_alpha	90.004315
_cell_angle_beta	94.985269
_cell_angle_gamma	89.996177
loop_
_atom_site_label
_atom_site_type_symbol
_atom_site_fract_x
_atom_site_fract_y
_atom_site_fract_z
O1	O	-1.960402	0.108276	0.216339
O2	O	-1.460402	0.608276	0.716339
O3	O	-1.531116	0.108283	0.234090
O4	O	-1.031116	0.608283	0.734090
O5	O	-1.754634	0.108274	0.010572
O6	O	-1.254634	0.608274	0.510572
O7	O	-1.736883	0.108285	0.439857
O8	O	-1.236883	0.608285	0.939857
O9	O	-1.754615	-0.108327	0.010562
O10	O	-1.254615	0.391673	0.510562
O11	O	-1.531096	-0.108318	0.234080
O12	O	-1.031096	0.391682	0.734080
O13	O	-1.960382	-0.108325	0.216329
O14	O	-1.460382	0.391675	0.716329
Cu15	Cu	-1.745737	-0.128099	0.225204
Cu16	Cu	-1.245737	0.371901	0.725204
Cu17	Cu	-1.745761	0.128057	0.225215
Cu18	Cu	-1.245761	0.628057	0.725215
O19	O	-1.736864	-0.108315	0.439848
O20	O	-1.236864	0.391685	0.939848
C21	C	-1.476120	-0.000016	0.232380
C22	C	-0.976120	0.499984	0.732380
C23	C	-1.312277	-0.000014	0.227282
C24	C	-0.812277	0.499986	0.727282
N25	N	-1.745732	-0.308264	0.225195
N26	N	-1.245732	0.191736	0.725195
C27	C	-1.745753	-0.573935	0.225212
C28	C	-1.245753	-0.073935	0.725212
C29	C	-1.745736	-0.426097	0.225207
C30	C	-1.245736	0.073903	0.725207
C31	C	-1.015378	-0.000022	0.218039
C32	C	-0.515378	0.499978	0.718039
C33	C	-1.179221	-0.000013	0.223137
C34	C	-0.679221	0.499987	0.723137
C35	C	-1.752919	-0.000025	-0.044420
C36	C	-1.252919	0.499975	0.455580
C37	C	-1.747821	-0.000021	-0.208263
C38	C	-1.247821	0.499979	0.291737
N39	N	-1.745778	0.308223	0.225212
N40	N	-1.245778	0.808223	0.725212
C41	C	-1.738578	-0.000014	0.494839
C42	C	-1.238578	0.499986	0.994839
C43	C	-1.743676	-0.000009	0.658682
C44	C	-1.243676	0.499991	1.158682
