data_functionalizedCrystal
_audit_creation_method	'MofGen! by Chris Wilmer'
_symmetry_space_group_name_H-M	'P1'
_symmetry_Int_Tables_number	1
_symmetry_cell_setting	triclinic
loop_
_symmetry_equiv_pos_as_xyz
  x,y,z
_cell_length_a	10.654543
_cell_length_b	10.654550
_cell_length_c	10.268362
_cell_angle_alpha	89.994874
_cell_angle_beta	90.004424
_cell_angle_gamma	95.516525
loop_
_atom_site_label
_atom_site_type_symbol
_atom_site_fract_x
_atom_site_fract_y
_atom_site_fract_z
O1	O	-1.667846	0.176357	-0.108296
O2	O	-1.302367	0.193173	-0.108299
O3	O	-1.493510	0.002026	-0.108290
O4	O	-1.476704	0.367505	-0.108306
O5	O	-1.493493	0.002018	0.108311
O6	O	-1.302350	0.193165	0.108301
O7	O	-1.667830	0.176349	0.108305
Cu8	Cu	-1.485088	0.184756	0.128080
Cu9	Cu	-1.485108	0.184766	-0.128075
O10	O	-1.476687	0.367497	0.108295
C11	C	-1.255560	0.191936	0.000000
C12	C	-1.116117	0.188248	-0.000001
C13	C	-0.905601	0.297316	0.000003
C14	C	-1.036622	0.300791	-0.000007
C15	C	-1.064584	0.072221	0.000003
C16	C	-0.933565	0.068747	0.000003
C17	C	-1.492267	-0.044776	0.000010
C18	C	-1.488575	-0.184219	0.000008
C19	C	-1.601117	-0.263708	0.000009
C20	C	-1.597641	-0.394729	-0.000007
C21	C	-1.369071	-0.366760	-0.000019
C22	C	-1.372548	-0.235741	-0.000012
C23	C	-0.714635	0.177592	0.000006
C24	C	-0.854077	0.181299	0.000010
C25	C	-1.477929	0.414299	-0.000008
C26	C	-1.481621	0.553742	-0.000014
N27	N	-1.485083	0.184749	0.308246
N28	N	-1.485123	0.184763	-0.308241
C29	C	-1.485102	0.184763	0.573917
C30	C	-1.485088	0.184759	0.426079
H31	H	-0.840885	0.388963	0.000008
H32	H	-0.891615	-0.025733	0.000005
C33	C	-1.248750	-0.148293	-0.000019
H34	H	-1.267441	-0.062885	-0.000029
H35	H	-1.201206	-0.164019	0.075507
H36	H	-1.201239	-0.164012	-0.075569
C37	C	-1.093294	0.428410	-0.000007
H38	H	-1.027185	0.494939	0.000006
H39	H	-1.143827	0.434526	-0.075541
H40	H	-1.143818	0.434509	0.075535
H41	H	-1.129319	-0.019414	0.000000
C42	C	-1.728737	-0.207031	0.000021
H43	H	-1.714694	-0.117616	0.000038
H44	H	-1.775133	-0.234238	-0.075511
H45	H	-1.775113	-0.234260	0.075565
H46	H	-1.689284	-0.459444	-0.000010
H47	H	-1.274605	-0.408725	-0.000033
