data_functionalizedCrystal
_audit_creation_method	'MofGen! by Chris Wilmer'
_symmetry_space_group_name_H-M	'P1'
_symmetry_Int_Tables_number	1
_symmetry_cell_setting	triclinic
loop_
_symmetry_equiv_pos_as_xyz
  x,y,z
_cell_length_a	11.792241
_cell_length_b	15.625163
_cell_length_c	14.750779
_cell_angle_alpha	94.865780
_cell_angle_beta	102.734008
_cell_angle_gamma	84.213043
loop_
_atom_site_label
_atom_site_type_symbol
_atom_site_fract_x
_atom_site_fract_y
_atom_site_fract_z
O1	O	1.495706	0.131809	-0.033843
O2	O	1.995706	0.631809	0.466157
O3	O	1.166539	0.143554	-0.029777
O4	O	1.666539	0.643554	0.470223
O5	O	1.326978	0.016739	-0.073911
O6	O	1.826978	0.516739	0.426089
O7	O	1.335266	0.258623	0.010291
O8	O	1.835266	0.758623	0.510291
O9	O	1.372333	-0.019106	0.073265
O10	O	1.872333	0.480894	0.573265
O11	O	1.211893	0.107709	0.117399
O12	O	1.711893	0.607709	0.617399
O13	O	1.541060	0.095964	0.113332
O14	O	2.041060	0.595964	0.613332
Zn15	Zn	1.383678	0.096145	0.138733
Zn16	Zn	1.883678	0.596145	0.638733
Zn17	Zn	1.323921	0.143372	-0.055177
Zn18	Zn	1.823921	0.643372	0.444823
O19	O	1.380621	0.222778	0.157467
O20	O	1.880621	0.722778	0.657467
C21	C	1.345534	-0.032149	-0.011105
C22	C	1.845534	0.467851	0.488895
C23	C	1.333240	-0.124419	-0.043231
C24	C	1.833240	0.375581	0.456769
C25	C	1.146850	0.124894	0.043552
C26	C	1.646850	0.624894	0.543552
C27	C	1.020612	0.122689	0.042776
C28	C	1.520612	0.622689	0.542776
C29	C	1.291190	-0.234927	-0.168730
C30	C	1.791190	0.265073	0.331270
C31	C	1.302746	-0.148228	-0.138533
C32	C	1.802746	0.351772	0.361467
C33	C	1.352185	-0.187305	0.021912
C34	C	1.852185	0.312695	0.521912
C35	C	1.340628	-0.274008	-0.008271
C36	C	1.840628	0.225992	0.491729
C37	C	1.310132	-0.297812	-0.103593
C38	C	1.810132	0.202188	0.396407
C39	C	1.359569	-0.336893	0.056865
C40	C	1.859569	0.163107	0.556865
C41	C	1.348019	-0.423589	0.026684
C42	C	1.848019	0.076411	0.526684
C43	C	1.317528	-0.447400	-0.068634
C44	C	1.817528	0.052600	0.431366
C45	C	1.298582	-0.384508	-0.133775
C46	C	1.798582	0.115492	0.366225
C47	C	1.390073	-0.313088	0.152186
C48	C	1.890073	0.186912	0.652186
C49	C	1.409015	-0.375973	0.217323
C50	C	1.909015	0.124027	0.717323
C51	C	1.397457	-0.462670	0.187142
C52	C	1.897457	0.037330	0.687142
C53	C	1.366965	-0.486481	0.091824
C54	C	1.866965	0.013519	0.591824
C55	C	1.416403	-0.525563	0.252282
C56	C	1.916403	-0.025563	0.752282
C57	C	1.404853	-0.612259	0.222101
C58	C	1.904853	-0.112259	0.722101
C59	C	1.355415	-0.573177	0.061643
C60	C	1.855415	-0.073177	0.561643
C61	C	0.789500	0.118624	0.041388
C62	C	1.289500	0.618624	0.541388
C63	C	0.918107	0.120883	0.042159
C64	C	1.418107	0.620883	0.542159
C65	C	1.560748	0.114624	0.040002
C66	C	2.060748	0.614624	0.540002
C67	C	1.686984	0.116830	0.040772
C68	C	2.186984	0.616830	0.540772
C69	C	1.362064	0.271667	0.094659
C70	C	1.862064	0.771667	0.594659
C71	C	1.374356	0.363938	0.126779
C72	C	1.874356	0.863938	0.626779
N73	N	1.424468	0.063913	0.271071
N74	N	1.924468	0.563913	0.771071
N75	N	1.283139	0.175598	-0.187518
N76	N	1.783139	0.675598	0.312482
C77	C	1.169212	0.265580	0.693074
C78	C	1.669212	0.765580	1.193074
C79	C	1.197805	0.242999	0.785715
C80	C	1.697805	0.742999	1.285715
C81	C	1.339910	0.130747	0.746611
C82	C	1.839910	0.630747	1.246611
C83	C	1.311325	0.153315	0.653964
C84	C	1.811325	0.653315	1.153964
C85	C	1.225977	0.220733	0.627204
C86	C	1.725977	0.720733	1.127204
C87	C	1.368090	0.108468	0.588094
C88	C	1.868090	0.608468	1.088094
C89	C	1.339512	0.131038	0.495456
C90	C	1.839512	0.631038	0.995456
C91	C	1.254169	0.198455	0.468689
C92	C	1.754169	0.698455	0.968689
C93	C	1.197398	0.243303	0.534566
C94	C	1.697398	0.743303	1.034566
C95	C	1.453444	0.041055	0.614857
C96	C	1.953444	0.541055	1.114857
C97	C	1.510209	-0.003792	0.548987
C98	C	2.010209	0.496208	1.048987
C99	C	1.481625	0.018774	0.456346
C100	C	1.981625	0.518774	0.956346
C101	C	1.396282	0.086190	0.429579
C102	C	1.896282	0.586190	0.929579
C103	C	1.538395	-0.026074	0.390469
C104	C	2.038395	0.473926	0.890469
C105	C	1.509817	-0.003505	0.297831
C106	C	2.009817	0.496495	0.797831
C107	C	1.367704	0.108760	0.336941
C108	C	1.867704	0.608760	0.836941
H109	H	1.330562	-0.592557	-0.015977
H110	H	1.830562	-0.092557	0.484023
C111	C	1.449950	-0.499366	0.357134
C112	C	1.949950	0.000634	0.857134
N113	N	1.475215	-0.479634	0.436109
N114	N	1.975215	0.020366	0.936109
H115	H	1.476713	0.022684	0.690291
H116	H	1.976713	0.522684	1.190291
H117	H	1.377019	-0.167912	0.099523
H118	H	1.877019	0.332088	0.599523
H119	H	1.399481	-0.242494	0.176757
H120	H	1.899481	0.257506	0.676757
C121	C	1.632281	-0.100229	0.419920
C122	C	2.132281	0.399771	0.919920
N123	N	1.702996	-0.156084	0.442102
N124	N	2.202996	0.343916	0.942102
C125	C	1.304820	-0.542769	-0.101835
C126	C	1.804820	-0.042769	0.398165
N127	N	1.295247	-0.614601	-0.126841
N128	N	1.795247	-0.114601	0.373159
C129	C	1.425685	-0.681435	0.293755
C130	C	1.925685	-0.181435	0.793755
N131	N	1.441380	-0.733540	0.347726
N132	N	1.941380	-0.233540	0.847726
H133	H	1.556042	-0.040023	0.244198
H134	H	2.056042	0.459977	0.744198
H135	H	1.273729	-0.403887	-0.211395
H136	H	1.773729	0.096113	0.288605
C137	C	1.442551	-0.349777	0.322175
C138	C	1.942551	0.150223	0.822175
N139	N	1.467803	-0.330047	0.401151
N140	N	1.967803	0.169953	0.901151
H141	H	1.266337	-0.254306	-0.246350
H142	H	1.766337	0.245694	0.253650
C143	C	1.281899	-0.079054	-0.210196
C144	C	1.781899	0.420946	0.289804
N145	N	1.266197	-0.026953	-0.264172
N146	N	1.766197	0.473047	0.235828
H147	H	1.298196	0.163652	0.315152
H148	H	1.798196	0.663652	0.815152
C149	C	1.222731	0.223281	0.366783
C150	C	1.722731	0.723281	0.866783
N151	N	1.199050	0.241979	0.290028
N152	N	1.699050	0.741979	0.790028
C153	C	1.103460	0.317432	0.505114
C154	C	1.603460	0.817432	1.005114
N155	N	1.032695	0.373255	0.482926
N156	N	1.532695	0.873255	0.982926
C157	C	1.075274	0.339709	0.663622
C158	C	1.575274	0.839709	1.163622
N159	N	1.004509	0.395532	0.641434
N160	N	1.504509	0.895532	1.141434
H161	H	1.151574	0.279526	0.839345
H162	H	1.651574	0.779526	1.339345
H163	H	1.409405	0.075857	0.768411
H164	H	1.909405	0.575857	1.268411
C165	C	1.604087	-0.077952	0.578434
C166	C	2.104087	0.422048	1.078434
N167	N	1.674793	-0.133814	0.600612
N168	N	2.174793	0.366186	1.100612
