data_functionalizedCrystal
_audit_creation_method	'MofGen! by Chris Wilmer'
_symmetry_space_group_name_H-M	'P1'
_symmetry_Int_Tables_number	1
_symmetry_cell_setting	triclinic
loop_
_symmetry_equiv_pos_as_xyz
  x,y,z
_cell_length_a	18.215407
_cell_length_b	16.120484
_cell_length_c	18.215399
_cell_angle_alpha	92.867230
_cell_angle_beta	89.983176
_cell_angle_gamma	92.926015
loop_
_atom_site_label
_atom_site_type_symbol
_atom_site_fract_x
_atom_site_fract_y
_atom_site_fract_z
Zn1	Zn	1.110191	-0.331886	-0.430959
Zn2	Zn	1.610191	0.168114	0.069041
Zn3	Zn	1.103863	-0.471313	-0.314128
Zn4	Zn	1.603863	0.028687	0.185872
Zn5	Zn	0.987128	-0.331919	-0.307908
Zn6	Zn	1.487128	0.168081	0.192092
Zn7	Zn	0.980849	-0.471261	-0.437151
Zn8	Zn	1.480849	0.028739	0.062849
O9	O	1.045508	-0.401595	-0.372536
O10	O	1.545508	0.098405	0.127464
O11	O	1.212335	-0.350389	-0.415473
O12	O	1.712335	0.149611	0.084527
O13	O	1.088358	-0.452858	-0.210320
O14	O	1.588358	0.047142	0.289680
O15	O	1.008729	-0.215249	-0.319036
O16	O	1.508729	0.284751	0.180964
O17	O	1.207687	-0.452826	-0.329638
O18	O	1.707687	0.047174	0.170362
O19	O	1.099142	-0.215225	-0.409441
O20	O	1.599142	0.284775	0.090559
O21	O	1.002593	-0.350446	-0.205750
O22	O	1.502593	0.149554	0.294250
O23	O	0.883312	-0.350395	-0.325040
O24	O	1.383312	0.149605	0.174960
O25	O	0.998027	-0.452737	-0.539312
O26	O	1.498027	0.047263	-0.039312
O27	O	0.878698	-0.452769	-0.419995
O28	O	1.378698	0.047231	0.080005
O29	O	1.093054	-0.350339	-0.534763
O30	O	1.593054	0.149661	-0.034763
O31	O	1.082269	-0.587972	-0.335642
O32	O	1.582269	-0.087972	0.164358
O33	O	0.991891	-0.587933	-0.426026
O34	O	1.491891	-0.087933	0.073974
C35	C	0.854302	-0.401580	-0.372515
C36	C	1.354302	0.098420	0.127485
C37	C	0.772503	-0.401594	-0.372524
C38	C	1.272503	0.098406	0.127476
C39	C	1.035732	-0.618203	-0.382197
C40	C	1.535732	-0.118203	0.117803
C41	C	1.031617	-0.710869	-0.386355
C42	C	1.531617	-0.210869	0.113645
C43	C	0.581922	-0.454984	-0.421911
C44	C	1.081922	0.045016	0.078089
C45	C	0.505063	-0.454987	-0.421920
C46	C	1.005063	0.045013	0.078080
C47	C	0.509845	-0.348220	-0.323179
C48	C	1.009845	0.151780	0.176821
C49	C	0.586703	-0.348214	-0.323173
C50	C	1.086703	0.151786	0.176827
C51	C	0.622739	-0.401601	-0.372539
C52	C	1.122739	0.098399	0.127461
C53	C	0.469023	-0.401610	-0.372553
C54	C	0.969023	0.098390	0.127447
C55	C	0.385689	-0.401612	-0.372563
C56	C	0.885689	0.098388	0.127437
C57	C	0.706078	-0.401597	-0.372530
C58	C	1.206078	0.098403	0.127470
C59	C	1.024109	-0.880530	-0.393960
C60	C	1.524109	-0.380530	0.106040
C61	C	1.067038	-0.921819	-0.351125
C62	C	1.567038	-0.421819	0.148875
C63	C	1.062861	-1.016224	-0.355356
C64	C	1.562861	-0.516224	0.144644
C65	C	1.028286	-0.786116	-0.389729
C66	C	1.528286	-0.286116	0.110271
C67	C	1.237460	-0.401610	-0.372559
C68	C	1.737460	0.098390	0.127441
C69	C	1.319259	-0.401616	-0.372568
C70	C	1.819259	0.098384	0.127432
C71	C	1.045546	-0.401528	-0.564487
C72	C	1.545546	0.098472	-0.064487
C73	C	1.045562	-0.401500	-0.646284
C74	C	1.545562	0.098500	-0.146284
C75	C	1.055342	-0.184141	-0.362854
C76	C	1.555342	0.315859	0.137146
C77	C	1.059533	-0.091475	-0.358728
C78	C	1.559533	0.408525	0.141272
C79	C	1.000946	-0.348138	-0.832098
C80	C	1.500946	0.151862	-0.332098
C81	C	1.000959	-0.348121	-0.908956
C82	C	1.500959	0.151879	-0.408956
C83	C	1.090270	-0.454762	-0.913704
C84	C	1.590270	0.045238	-0.413704
C85	C	1.090252	-0.454783	-0.836848
C86	C	1.590252	0.045217	-0.336848
C87	C	1.045591	-0.401466	-0.796046
C88	C	1.545591	0.098534	-0.296046
C89	C	1.045623	-0.401428	-0.949761
C90	C	1.545623	0.098572	-0.449761
C91	C	1.045638	-0.401411	-1.033094
C92	C	1.545638	0.098589	-0.533094
C93	C	1.045575	-0.401484	-0.712708
C94	C	1.545575	0.098516	-0.212708
C95	C	1.045515	-0.401601	-0.181331
C96	C	1.545515	0.098399	0.318669
C97	C	1.045652	-0.401394	-0.099523
C98	C	1.545652	0.098606	0.400477
H99	H	0.471834	-0.498456	-0.462125
H100	H	0.971834	0.001544	0.037875
H101	H	0.619937	-0.304738	-0.282968
H102	H	1.119937	0.195262	0.217032
H103	H	0.480495	-0.304756	-0.282986
H104	H	0.980495	0.195244	0.217014
C105	C	1.138649	-0.512654	-0.797566
C106	C	1.638649	-0.012654	-0.297566
C107	C	1.129056	-0.501276	-0.721527
C108	C	1.629056	-0.001276	-0.221527
C109	C	1.173615	-0.554580	-0.685318
C110	C	1.673615	-0.054580	-0.185318
H111	H	1.188679	-0.500506	-0.809533
H112	H	1.688679	-0.000506	-0.309533
H113	H	1.125341	-0.568684	-0.812610
H114	H	1.625341	-0.068684	-0.312610
H115	H	1.142369	-0.445259	-0.706489
H116	H	1.642369	0.054741	-0.206489
H117	H	1.079036	-0.513430	-0.709538
H118	H	1.579036	-0.013430	-0.209538
H119	H	1.160307	-0.610610	-0.700361
H120	H	1.660307	-0.110610	-0.200361
H121	H	1.223642	-0.542428	-0.697291
H122	H	1.723642	-0.042428	-0.197291
H123	H	1.167107	-0.546873	-0.633722
H124	H	1.667107	-0.046873	-0.133722
C125	C	1.120149	-0.874271	-0.298001
C126	C	1.620149	-0.374271	0.201999
C127	C	1.113765	-0.788730	-0.304289
C128	C	1.613765	-0.288730	0.195711
C129	C	1.162667	-0.744899	-0.255355
C130	C	1.662667	-0.244899	0.244645
H131	H	1.169012	-0.888326	-0.309380
H132	H	1.669012	-0.388326	0.190620
H133	H	1.108778	-0.888500	-0.249155
H134	H	1.608778	-0.388500	0.250845
H135	H	1.125141	-0.774506	-0.353123
H136	H	1.625141	-0.274506	0.146877
H137	H	1.064913	-0.774649	-0.292903
H138	H	1.564913	-0.274649	0.207097
H139	H	1.151296	-0.759129	-0.206510
H140	H	1.651296	-0.259129	0.293490
H141	H	1.211526	-0.758962	-0.266739
H142	H	1.711526	-0.258962	0.233261
H143	H	1.158337	-0.686856	-0.259611
H144	H	1.658337	-0.186856	0.240389
C145	C	1.138860	-0.512502	-0.958038
C146	C	1.638860	-0.012502	-0.458038
C147	C	1.188185	-0.465285	-1.000050
C148	C	1.688185	0.034715	-0.500050
C149	C	1.232965	-0.518445	-1.040890
C150	C	1.732965	-0.018445	-0.540890
H151	H	1.109159	-0.548834	-0.989695
H152	H	1.609159	-0.048834	-0.489695
H153	H	1.165490	-0.544253	-0.925581
H154	H	1.665490	-0.044253	-0.425581
H155	H	1.161558	-0.433548	-1.032504
H156	H	1.661558	0.066452	-0.532504
H157	H	1.217903	-0.428955	-0.968412
H158	H	1.717903	0.071045	-0.468412
H159	H	1.259596	-0.550196	-1.008433
H160	H	1.759596	-0.050196	-0.508433
H161	H	1.203258	-0.554774	-1.072543
H162	H	1.703258	-0.054774	-0.572543
H163	H	1.266443	-0.486416	-1.069395
H164	H	1.766443	0.013584	-0.569395
H165	H	0.984221	-0.916080	-0.433808
H166	H	1.484221	-0.416080	0.066192
C167	C	0.952371	-0.290229	-0.787930
C168	C	1.452371	0.209771	-0.287930
C169	C	0.913259	-0.243542	-0.835958
C170	C	1.413259	0.256458	-0.335958
C171	C	0.868494	-0.190198	-0.795300
C172	C	1.368494	0.309802	-0.295300
H173	H	0.982075	-0.253836	-0.756328
H174	H	1.482075	0.246164	-0.256328
H175	H	0.918820	-0.322113	-0.759380
H176	H	1.418820	0.177887	-0.259380
H177	H	0.946806	-0.211660	-0.864495
H178	H	1.446806	0.288340	-0.364495
H179	H	0.883542	-0.279913	-0.867560
H180	H	1.383542	0.220087	-0.367560
H181	H	0.834943	-0.222081	-0.766750
H182	H	1.334943	0.277919	-0.266750
H183	H	0.898203	-0.153810	-0.763700
H184	H	1.398203	0.346190	-0.263700
H185	H	0.841947	-0.158519	-0.827881
H186	H	1.341947	0.341481	-0.327881
C187	C	0.952385	-0.290361	-0.948139
C188	C	1.452385	0.209639	-0.448139
C189	C	0.903076	-0.337556	-0.994337
C190	C	1.403076	0.162444	-0.494337
C191	C	0.858306	-0.284377	-1.030436
C192	C	1.358306	0.215623	-0.530436
H193	H	0.982095	-0.254011	-0.976571
H194	H	1.482095	0.245989	-0.476571
H195	H	0.925742	-0.258631	-0.912851
H196	H	1.425742	0.241369	-0.412851
H197	H	0.929717	-0.369272	-1.029621
H198	H	1.429717	0.130728	-0.529621
H199	H	0.873350	-0.373905	-0.965923
H200	H	1.373350	0.126095	-0.465923
H201	H	0.831663	-0.252647	-0.995147
H202	H	1.331663	0.247353	-0.495147
H203	H	0.888022	-0.248030	-1.058864
H204	H	1.388022	0.251970	-0.558864
H205	H	0.824841	-0.316392	-1.061780
H206	H	1.324841	0.183608	-0.561780
H207	H	0.611261	-0.498453	-0.462109
H208	H	1.111261	0.001547	0.037891
