data_functionalizedCrystal
_audit_creation_method	'MofGen! by Chris Wilmer'
_symmetry_space_group_name_H-M	'P1'
_symmetry_Int_Tables_number	1
_symmetry_cell_setting	triclinic
loop_
_symmetry_equiv_pos_as_xyz
  x,y,z
_cell_length_a	6.394989
_cell_length_b	11.026607
_cell_length_c	10.065875
_cell_angle_alpha	100.697662
_cell_angle_beta	80.951547
_cell_angle_gamma	97.541864
loop_
_atom_site_label
_atom_site_type_symbol
_atom_site_fract_x
_atom_site_fract_y
_atom_site_fract_z
O1	O	-0.855566	-1.641000	-0.113474
O2	O	-0.755391	-1.286163	-0.113478
O3	O	-0.503308	-1.468618	-0.113477
O4	O	-1.107649	-1.458545	-0.113475
O5	O	-0.551624	-1.433830	0.113511
O6	O	-0.803707	-1.251375	0.113510
O7	O	-0.903882	-1.606212	0.113514
Zn8	Zn	-0.861465	-1.423270	0.149552
Zn9	Zn	-0.797807	-1.469105	-0.149516
O10	O	-1.155965	-1.423757	0.113513
C11	C	-0.761068	-1.223275	0.000015
C12	C	-0.705977	-1.087719	0.000013
N13	N	-0.904912	-1.391998	0.353657
N14	N	-0.754347	-1.500386	-0.353621
C15	C	-0.448894	-1.449233	0.000012
C16	C	-0.210370	-1.443147	0.000011
C17	C	-0.898204	-1.669100	0.000018
C18	C	-0.953293	-1.804658	0.000011
C19	C	-0.858092	-1.016240	0.000013
C20	C	-0.801156	-0.876135	0.000011
C21	C	-0.812908	-1.458216	0.421436
C22	C	-0.846365	-1.434158	0.578603
H23	H	-0.628756	-0.833618	-0.000024
C24	C	-1.090968	-1.073679	0.000012
H25	H	-1.098682	-1.160312	0.000004
H26	H	-1.175798	-1.035955	0.079165
H27	H	-1.142083	-1.060221	-0.079157
C28	C	-1.186181	-0.862089	0.000004
H29	H	-1.193900	-0.948723	-0.000006
H30	H	-1.271015	-0.824366	0.079155
H31	H	-1.237287	-0.848629	-0.079167
C32	C	-0.986249	-1.333507	0.657380
H33	H	-0.990398	-1.330547	0.752679
H34	H	-0.928170	-1.255198	0.634047
H35	H	-1.126501	-1.352699	0.634028
C36	C	-0.473099	-1.030281	0.000005
H37	H	-0.465380	-0.943652	-0.000007
H38	H	-0.421960	-1.043743	0.079157
H39	H	-0.388285	-1.068008	-0.079165
H40	H	-0.709360	-1.532715	0.363112
H41	H	-0.650793	-1.574890	0.588059
C42	C	-1.044789	-1.291351	0.432438
H43	H	-1.048938	-1.288391	0.527738
H44	H	-0.986710	-1.213043	0.409105
H45	H	-1.185041	-1.310544	0.409087
