data_functionalizedCrystal
_audit_creation_method	'MofGen! by Chris Wilmer'
_symmetry_space_group_name_H-M	'P1'
_symmetry_Int_Tables_number	1
_symmetry_cell_setting	triclinic
loop_
_symmetry_equiv_pos_as_xyz
  x,y,z
_cell_length_a	27.731993
_cell_length_b	27.732048
_cell_length_c	9.198806
_cell_angle_alpha	90.008385
_cell_angle_beta	89.992409
_cell_angle_gamma	82.631525
loop_
_atom_site_label
_atom_site_type_symbol
_atom_site_fract_x
_atom_site_fract_y
_atom_site_fract_z
O1	O	0.640944	0.057391	0.120517
O2	O	0.500147	0.066164	0.120608
O3	O	0.574918	-0.008621	0.120532
O4	O	0.566173	0.132175	0.120593
O5	O	0.574913	-0.008621	-0.121253
O6	O	0.500141	0.066163	-0.121177
O7	O	0.640938	0.057390	-0.121268
Cu8	Cu	0.570539	0.061777	-0.143300
Cu9	Cu	0.570546	0.061777	0.142639
O10	O	0.566167	0.132174	-0.121192
C11	C	0.482137	0.065983	-0.000274
C12	C	0.428480	0.065441	-0.000240
C13	C	0.045323	0.061511	0.131485
C14	C	0.246981	0.063578	0.131525
O15	O	0.273057	0.063826	0.243616
N16	N	0.272198	0.063836	-0.000269
C17	C	0.246998	0.063574	-0.132082
O18	O	0.273074	0.063837	-0.244180
C19	C	0.045342	0.061504	-0.132121
C20	C	0.020127	0.061251	-0.000319
C21	C	0.020108	0.061257	0.263277
C22	C	-0.030304	0.060743	0.263265
C23	C	-0.055500	0.060483	0.131462
C24	C	-0.030285	0.060736	-0.000330
C25	C	0.020143	0.061239	-0.263933
C26	C	-0.030274	0.060720	-0.263931
C27	C	-0.055489	0.060467	-0.132128
C28	C	-0.105893	0.059962	-0.132145
N29	N	-0.131110	0.059704	-0.000351
C30	C	-0.105914	0.059964	0.131453
C31	C	0.352870	0.064662	-0.132053
C32	C	0.403284	0.065181	-0.132043
C33	C	0.403263	0.065183	0.131565
C34	C	0.352848	0.064668	0.131554
C35	C	0.327653	0.064404	-0.000259
C36	C	-0.211782	0.058885	0.131419
C37	C	-0.262198	0.058373	0.131396
C38	C	-0.262173	0.058368	-0.132211
C39	C	-0.211761	0.058883	-0.132189
C40	C	-0.186567	0.059139	-0.000362
O41	O	-0.131999	0.059708	-0.244177
O42	O	-0.131997	0.059691	0.243534
C43	C	0.095735	0.062025	0.131496
C44	C	0.120950	0.062279	-0.000296
C45	C	0.095754	0.062019	-0.132099
C46	C	0.171364	0.062797	-0.000286
C47	C	0.196560	0.063057	0.131517
C48	C	0.171343	0.062799	0.263311
C49	C	0.120932	0.062285	0.263299
C50	C	0.120971	0.062277	-0.263893
C51	C	0.171382	0.062792	-0.263871
C52	C	0.196579	0.063052	-0.132067
C53	C	0.574732	-0.026628	-0.000365
C54	C	0.574179	-0.080282	-0.000376
C55	C	0.614884	-0.419105	-0.000328
C56	C	0.612833	-0.620765	-0.000306
O57	O	0.650055	-0.652028	-0.000267
N58	N	0.568497	-0.639880	-0.000279
C59	C	0.524670	-0.608576	-0.000248
O60	O	0.486912	-0.629462	-0.000209
C61	C	0.526721	-0.406918	-0.000259
C62	C	0.571061	-0.387806	-0.000301
C63	C	0.659220	-0.399993	-0.000368
C64	C	0.659732	-0.349581	-0.000382
C65	C	0.615909	-0.318282	-0.000355
C66	C	0.571573	-0.337394	-0.000314
C67	C	0.482895	-0.375616	-0.000217
C68	C	0.483412	-0.325199	-0.000216
C69	C	0.527751	-0.306087	-0.000258
C70	C	0.528262	-0.255683	-0.000300
N71	N	0.572598	-0.236568	-0.000328
C72	C	0.616422	-0.267867	-0.000355
C73	C	0.523596	-0.714450	-0.000245
C74	C	0.523083	-0.764865	-0.000244
C75	C	0.611246	-0.777049	-0.000300
C76	C	0.611759	-0.726634	-0.000311
C77	C	0.567932	-0.695335	-0.000272
C78	C	0.617494	-0.161998	-0.000384
C79	C	0.618003	-0.111582	-0.000403
C80	C	0.529839	-0.099401	-0.000340
C81	C	0.529331	-0.149814	-0.000328
C82	C	0.573162	-0.181112	-0.000345
O83	O	0.491060	-0.224392	-0.000324
O84	O	0.654174	-0.246972	-0.000361
C85	C	0.614372	-0.469517	-0.000315
C86	C	0.570036	-0.488630	-0.000274
C87	C	0.526213	-0.457331	-0.000247
C88	C	0.569523	-0.539044	-0.000274
C89	C	0.613346	-0.570343	-0.000301
C90	C	0.657683	-0.551228	-0.000328
C91	C	0.658195	-0.500817	-0.000342
C92	C	0.481876	-0.476446	-0.000220
C93	C	0.481368	-0.526858	-0.000208
C94	C	0.525191	-0.558157	-0.000235
C95	C	0.658949	0.057570	-0.000384
C96	C	0.712605	0.058113	-0.000408
C97	C	0.566353	0.150181	-0.000293
C98	C	0.566906	0.203836	-0.000271
N99	N	0.570538	0.061776	-0.344414
C100	C	0.598279	0.089352	-0.416618
C101	C	0.598287	0.089351	-0.584030
N102	N	0.570551	0.061774	0.343753
H103	H	0.332361	0.064446	-0.239396
F104	F	0.539503	0.030913	-0.425606
F105	F	0.046968	0.061509	-0.404218
F106	F	0.436764	-0.291891	-0.000171
H107	H	0.546797	0.038166	-0.594162
F108	F	0.094161	0.062004	-0.404184
H109	H	0.622034	0.112963	-0.646124
F110	F	0.326017	0.064398	0.271834
F111	F	0.435231	-0.443141	-0.000187
F112	F	0.629319	0.120210	-0.335426
F113	F	0.705387	-0.480483	-0.000378
H114	H	-0.191275	0.059095	0.238765
F115	F	0.430087	0.065462	0.271840
F116	F	0.482140	-0.170155	-0.000309
F117	F	0.483202	-0.066082	-0.000311
F118	F	0.434172	-0.547192	-0.000173
F119	F	-0.289032	0.058104	0.271684
F120	F	-0.057133	0.060469	0.403549
F121	F	0.704323	-0.584548	-0.000365
H122	H	0.487905	-0.688970	-0.000213
F123	F	0.046917	0.061532	0.403572
H124	H	0.423809	0.065395	-0.239370
F125	F	-0.057085	0.060436	-0.404228
F126	F	-0.288998	0.058093	-0.272479
F127	F	-0.184926	0.059159	-0.272467
H128	H	0.695838	-0.334025	-0.000410
H129	H	0.100406	0.062078	0.370627
F130	F	0.198168	0.063078	0.403586
H131	H	0.646929	-0.802542	-0.000323
H132	H	0.647864	-0.711077	-0.000344
F133	F	0.665196	-0.091245	-0.000447
F134	F	0.198212	0.063065	-0.404164
H135	H	0.653186	-0.187476	-0.000392
H136	H	0.694908	-0.425472	-0.000385
H137	H	0.486977	-0.780421	-0.000235
H138	H	0.446789	-0.391168	-0.000174
