data_functionalizedCrystal
_audit_creation_method	'MofGen! by Chris Wilmer'
_symmetry_space_group_name_H-M	'P1'
_symmetry_Int_Tables_number	1
_symmetry_cell_setting	triclinic
loop_
_symmetry_equiv_pos_as_xyz
  x,y,z
_cell_length_a	19.288840
_cell_length_b	19.288855
_cell_length_c	17.766277
_cell_angle_alpha	90.008954
_cell_angle_beta	89.983415
_cell_angle_gamma	96.870871
loop_
_atom_site_label
_atom_site_type_symbol
_atom_site_fract_x
_atom_site_fract_y
_atom_site_fract_z
O1	O	0.921361	-0.086566	-0.062724
O2	O	0.719098	-0.098273	-0.062699
O3	O	0.826077	0.008712	-0.062702
O4	O	0.814381	-0.193551	-0.062721
O5	O	0.826059	0.008717	0.062486
O6	O	0.719079	-0.098268	0.062490
O7	O	0.921342	-0.086561	0.062464
Cu8	Cu	0.820209	-0.092414	0.073908
Cu9	Cu	0.820231	-0.092420	-0.074142
O10	O	0.814363	-0.193546	0.062468
C11	C	0.693211	-0.097897	-0.000101
C12	C	0.616107	-0.096775	-0.000091
C13	C	0.579914	-0.096239	-0.068333
C14	C	0.507467	-0.095177	-0.068342
C15	C	0.471218	-0.094637	-0.000105
C16	C	0.507419	-0.095177	0.068146
C17	C	0.579864	-0.096246	0.068153
C18	C	0.361884	-0.052256	0.052167
C19	C	0.289441	-0.051183	0.052157
C20	C	0.247774	-0.091343	-0.000125
C21	C	0.278560	-0.132566	-0.052409
C22	C	0.351005	-0.133635	-0.052402
C23	C	0.392664	-0.093478	-0.000105
C24	C	0.133026	-0.089656	-0.068381
C25	C	0.060577	-0.088598	-0.068388
C26	C	0.060532	-0.088591	0.068102
C27	C	0.132978	-0.089656	0.068107
C28	C	0.169221	-0.090185	-0.000137
C29	C	0.825693	0.034591	-0.000107
C30	C	0.824566	0.111695	-0.000104
C31	C	0.947228	-0.086937	-0.000135
C32	C	1.024333	-0.088059	-0.000150
N33	N	0.820198	-0.092409	0.178038
C34	C	0.824051	0.147902	-0.068344
C35	C	0.822983	0.220348	-0.068349
C36	C	0.822444	0.256586	-0.000110
C37	C	0.822956	0.220369	0.068139
C38	C	0.824017	0.147923	0.068142
C39	C	0.861439	0.376823	0.052161
C40	C	0.860382	0.449268	0.052155
C41	C	0.819168	0.480031	-0.000116
C42	C	0.779020	0.438343	-0.052395
C43	C	0.780081	0.365897	-0.052392
C44	C	0.821293	0.335141	-0.000106
C45	C	0.817493	0.594793	-0.068366
C46	C	0.816421	0.667240	-0.068368
C47	C	0.816401	0.667260	0.068122
C48	C	0.817466	0.594814	0.068122
C49	C	0.818016	0.558585	-0.000124
C50	C	0.814749	0.780575	-0.000127
C51	C	0.815881	0.703472	-0.000129
N52	N	0.820247	-0.092420	-0.178272
C53	C	0.867584	-0.045059	0.217423
C54	C	0.867588	-0.045056	0.296225
C55	C	0.820213	-0.092414	0.335639
C56	C	0.772818	-0.139768	0.296244
C57	C	0.772811	-0.139765	0.217444
C58	C	0.810912	-0.155703	0.460472
C59	C	0.810924	-0.155707	0.539271
C60	C	0.820232	-0.092423	0.578685
C61	C	0.829542	-0.029132	0.539291
C62	C	0.829534	-0.029130	0.460491
C63	C	0.820215	-0.092422	0.421084
C64	C	0.867624	-0.045066	0.703516
C65	C	0.867624	-0.045062	0.782320
C66	C	0.772857	-0.139779	0.782337
C67	C	0.772854	-0.139777	0.703535
C68	C	0.820242	-0.092421	0.664129
H69	H	0.477901	-0.094739	0.123705
C70	C	0.839779	0.040486	0.582641
N71	N	0.847490	0.092921	0.615296
H72	H	0.906209	-0.006500	0.814388
H73	H	0.244636	-0.165271	-0.094979
C74	C	0.824588	0.108094	0.143215
N75	N	0.825021	0.078094	0.199761
C76	C	0.815808	0.707117	0.143186
N77	N	0.815361	0.737141	0.199726
C78	C	0.172794	-0.090236	0.143180
N79	N	0.202783	-0.090673	0.199728
H80	H	0.822515	0.249878	0.123700
H81	H	0.895000	0.351782	0.094732
C82	C	0.919705	0.007041	0.174082
N83	N	0.958961	0.046285	0.141436
C84	C	0.720776	-0.191917	0.660209
N85	N	0.681563	-0.231206	0.627577
C86	C	0.720744	-0.191875	0.825687
N87	N	0.681490	-0.231115	0.858342
H88	H	0.395804	-0.019552	0.094745
C89	C	0.839766	0.040489	0.417160
N90	N	0.847469	0.092926	0.384524
H91	H	0.609332	-0.096683	0.123726
C92	C	0.020662	-0.087999	0.143164
N93	N	-0.009371	-0.087553	0.199703
H94	H	0.803348	-0.207242	0.571339
C95	C	0.800673	-0.225325	0.417124
N96	N	0.792961	-0.277763	0.384475
H97	H	0.906177	-0.006497	0.328299
C98	C	0.919745	0.007033	0.660168
N99	N	0.959001	0.046275	0.627519
H100	H	0.824496	0.118409	-0.123916
H101	H	0.734243	-0.178327	0.328338
C102	C	0.619777	-0.096819	-0.143404
N103	N	0.649803	-0.097255	-0.199948
H104	H	0.822559	0.249834	-0.123920
C105	C	0.720711	-0.191886	0.174118
N106	N	0.681479	-0.231156	0.141485
H107	H	0.477992	-0.094741	-0.123915
H108	H	0.162535	-0.090094	-0.123950
C109	C	0.384862	-0.179018	-0.109880
N110	N	0.410361	-0.213214	-0.153160
C111	C	0.255583	-0.005843	0.109676
N112	N	0.230082	0.028305	0.153005
C113	C	0.020765	-0.088005	-0.143463
N114	N	-0.009222	-0.087556	-0.200012
H115	H	0.747389	0.331957	-0.094957
C116	C	0.733678	0.472176	-0.109897
N117	N	0.699529	0.497663	-0.153206
H118	H	0.817937	0.565294	-0.123936
H119	H	0.817892	0.565334	0.123690
C120	C	0.815889	0.707073	-0.143442
N121	N	0.815503	0.737078	-0.199989
H122	H	0.893076	0.483206	0.094721
