data_functionalizedCrystal
_audit_creation_method	'MofGen! by Chris Wilmer'
_symmetry_space_group_name_H-M	'P1'
_symmetry_Int_Tables_number	1
_symmetry_cell_setting	triclinic
loop_
_symmetry_equiv_pos_as_xyz
  x,y,z
_cell_length_a	19.377372
_cell_length_b	19.376993
_cell_length_c	14.560438
_cell_angle_alpha	52.467071
_cell_angle_beta	90.000766
_cell_angle_gamma	62.429694
loop_
_atom_site_label
_atom_site_type_symbol
_atom_site_fract_x
_atom_site_fract_y
_atom_site_fract_z
Zr1	Zr	0.316437	1.208300	-0.597515
O2	O	0.189993	1.346525	-0.760426
O3	O	0.382642	1.040377	-0.512218
O4	O	0.343063	1.221429	-0.754807
O5	O	0.229575	1.165472	-0.366697
O6	O	0.432589	1.265567	-0.790592
O7	O	0.229572	1.165473	-0.517837
O8	O	0.503389	0.941698	-0.356645
O9	O	0.158775	1.489341	-0.800644
O10	O	0.444534	1.153384	-0.545262
O11	O	0.377724	1.120444	-0.405761
O12	O	0.331124	1.333609	-0.691378
O13	O	0.264314	1.300669	-0.551877
Zr14	Zr	0.459226	1.278692	-0.413536
Zr15	Zr	0.459221	1.278694	-0.654588
Zr16	Zr	0.316441	1.208298	-0.356463
Zr17	Zr	0.266648	1.436074	-0.661657
Zr18	Zr	0.509015	1.050918	-0.349393
O19	O	0.393020	1.446614	-0.498833
O20	O	0.393014	1.446617	-0.841577
O21	O	0.189999	1.346523	-0.417682
O22	O	0.585669	1.140466	-0.250625
O23	O	0.585663	1.140469	-0.593369
O24	O	0.382649	1.040374	-0.169473
O25	O	0.546087	1.321519	-0.644354
O26	O	0.432599	1.265562	-0.256244
O27	O	0.343073	1.221425	-0.220458
O28	O	0.546090	1.321518	-0.493214
O29	O	0.272269	1.545295	-0.846010
O30	O	0.503393	0.941696	-0.165041
O31	O	0.616887	0.997651	-0.210407
O32	O	0.616884	0.997652	-0.402011
O33	O	0.158779	1.489339	-0.609040
O34	O	0.272273	1.545294	-0.654406
O35	O	0.444538	1.153382	-0.319673
O36	O	0.511349	1.186323	-0.459173
O37	O	0.397939	1.366548	-0.605290
O38	O	0.331128	1.333607	-0.465789
C39	C	0.450110	0.958585	-0.425292
C40	C	0.471246	0.861888	-0.398062
C41	C	0.567554	0.671238	-0.273980
C42	C	0.547685	0.762105	-0.299577
C43	C	0.414644	0.870837	-0.470985
C44	C	0.434499	0.779977	-0.445398
C45	C	0.510956	0.680182	-0.346895
C46	C	0.377901	0.788921	-0.518313
C47	C	0.397758	0.698069	-0.492732
C48	C	0.474212	0.598273	-0.394236
C49	C	0.530812	0.589330	-0.321314
C50	C	0.301448	0.888717	-0.616822
C51	C	0.244850	0.897661	-0.689737
C52	C	0.264703	0.806807	-0.664151
C53	C	0.341157	0.707011	-0.565655
C54	C	0.208103	0.815750	-0.737073
C55	C	0.227959	0.724898	-0.711492
C56	C	0.361014	0.616159	-0.540074
C57	C	0.209230	1.155443	-0.434135
C58	C	0.148614	1.125559	-0.409906
C59	C	-0.346730	1.497640	-0.711574
C60	C	-0.403672	1.469534	-0.688786
C61	C	-0.285271	1.281393	-0.536252
C62	C	-0.228318	1.309483	-0.559023
C63	C	-0.259054	1.417608	-0.646686
C64	C	-0.140642	1.229451	-0.494135
C65	C	-0.083694	1.257540	-0.516909
C66	C	-0.114422	1.365659	-0.604571
C67	C	-0.202106	1.445696	-0.669461
C68	C	-0.109907	1.121327	-0.406478
C69	C	-0.022232	1.041295	-0.341590
C70	C	0.034718	1.069383	-0.364357
C71	C	0.003990	1.177503	-0.452020
C72	C	0.122402	0.989346	-0.299468
C73	C	0.179350	1.017434	-0.322242
C74	C	0.060938	1.205591	-0.474794
C75	C	0.566432	1.331548	-0.576916
C76	C	0.627048	1.361433	-0.601145
C77	C	0.387826	1.243498	-0.807044
C78	C	0.387824	1.243499	-0.909377
C79	C	0.325553	1.528407	-0.585758
C80	C	0.304416	1.625103	-0.612989
C81	C	0.328626	1.337573	-1.033724
C82	C	0.328635	1.337571	-1.129875
C83	C	0.447042	1.149412	-0.977314
C84	C	0.447037	1.149417	-0.881168
C85	C	0.387837	1.243493	-0.204006
C86	C	0.387839	1.243492	-0.101674
C87	C	0.628711	1.046637	-0.496683
C88	C	0.710463	0.979825	-0.493682
C89	C	0.450115	0.958582	-0.123773
C90	C	0.471254	0.861885	0.005790
C91	C	0.628717	1.046635	-0.195164
C92	C	0.710471	0.979822	-0.089830
C93	C	0.146946	1.440357	-0.815887
C94	C	0.065192	1.507170	-0.921221
C95	C	0.146951	1.440354	-0.514368
C96	C	0.065199	1.507166	-0.517369
C97	C	0.325547	1.528410	-0.887277
C98	C	0.304409	1.625107	-1.016840
C99	C	0.713979	0.931256	-0.537220
C100	C	0.790785	0.868489	-0.534424
C101	C	0.864077	0.854286	-0.488081
C102	C	0.860559	0.902864	-0.444543
C103	C	0.783752	0.965636	-0.447348
C104	C	0.516057	0.833669	0.111581
C105	C	0.535914	0.742823	0.233326
C106	C	0.510972	0.680191	0.249277
C107	C	0.466162	0.708414	0.143473
C108	C	0.446301	0.799263	0.021731
C109	C	0.783744	0.965643	-0.113184
C110	C	0.860563	0.902881	-0.014227
C111	C	0.864109	0.854292	0.108086
C112	C	0.790828	0.868476	0.131438
C113	C	0.714009	0.931244	0.032480
C114	C	-0.008084	1.521359	-0.897870
C115	C	-0.084910	1.584150	-0.996835
C116	C	-0.088457	1.632744	-1.119149
C117	C	-0.015174	1.618554	-1.142500
C118	C	0.061649	1.555770	-1.043537
C119	C	0.061682	1.555745	-0.473844
C120	C	-0.015131	1.618537	-0.476674
C121	C	-0.088423	1.632743	-0.523021
C122	C	-0.084904	1.584161	-0.566553
C123	C	-0.008094	1.521377	-0.563731
C124	C	0.329364	1.687713	-1.032750
C125	C	0.309518	1.778565	-1.154481
C126	C	0.264711	1.806812	-1.260301
C127	C	0.239756	1.744196	-1.244386
C128	C	0.259608	1.653342	-1.122657
H129	H	0.285285	0.962692	-0.637648
H130	H	-0.144589	1.595738	-0.604288
H131	H	-0.151016	1.683863	-1.199719
Cl132	Cl	0.254213	1.455842	-1.286198
Cl133	Cl	0.547425	0.912387	0.091562
Cl134	Cl	0.022303	1.341522	-0.584988
H135	H	0.495247	1.072807	-0.779911
H136	H	0.572402	0.719857	0.319461
Cl137	Cl	0.521472	1.031141	-0.941861
Cl138	Cl	0.621850	0.949101	-0.595493
H139	H	0.793635	0.828942	-0.569877
Cl140	Cl	0.960630	0.775366	-0.484560
Cl141	Cl	0.148737	1.023121	-0.813565
Cl142	Cl	0.952707	0.884993	-0.386280
H143	H	0.145856	0.897015	-0.817281
H144	H	0.780902	1.005174	-0.411886
Cl145	Cl	0.153764	1.537933	-1.072913
Cl146	Cl	-0.019646	1.679646	-1.296273
H147	H	0.181873	0.732184	-0.770869
H148	H	0.527149	0.606219	0.348414
Cl149	Cl	-0.240742	1.581628	-0.779655
Cl150	Cl	0.663668	0.545773	-0.150136
H151	H	-0.005240	1.481822	-0.599170
H152	H	0.121353	1.544184	-0.436095
Cl153	Cl	0.239757	1.921036	-1.413326
Cl154	Cl	-0.177023	1.601969	-0.967451
Cl155	Cl	-0.019534	1.679595	-0.421936
Cl156	Cl	0.434814	0.629663	0.163547
Cl157	Cl	0.795300	0.807383	0.285211
H158	H	-0.068048	1.388526	-0.623115
Cl159	Cl	0.389980	0.834716	-0.111255
H160	H	-0.150961	1.683869	-0.525311
H161	H	0.780872	1.005198	-0.212769
H162	H	0.920225	0.891340	-0.033262
Cl163	Cl	0.960690	0.775384	0.232480
H164	H	0.654352	0.942776	0.051515
Cl165	Cl	-0.003646	1.460279	-0.744113
H166	H	0.365847	1.664730	-0.946600
Cl167	Cl	-0.246642	1.145470	-0.426052
H168	H	0.329841	1.829539	-1.167415
H169	H	0.203272	1.767210	-1.330562
Cl170	Cl	0.626927	0.463865	-0.197470
Cl171	Cl	0.457128	0.490694	-0.416230
Cl172	Cl	0.499180	0.484057	-0.362081
H173	H	0.239280	1.602374	-1.109719
H174	H	0.593778	0.754809	-0.240191
H175	H	0.352394	0.952100	-0.551189
Cl176	Cl	-0.385365	1.633571	-0.821769
H177	H	-0.475066	1.534714	-0.741635
H178	H	-0.156282	1.098462	-0.387946
H179	H	0.002783	0.953260	-0.270217
H180	H	0.250742	0.952264	-0.269385
Cl181	Cl	0.161029	0.853424	-0.189280
H182	H	0.280411	1.414181	-1.056700
