data_functionalizedCrystal
_audit_creation_method	'MofGen! by Chris Wilmer'
_symmetry_space_group_name_H-M	'P1'
_symmetry_Int_Tables_number	1
_symmetry_cell_setting	triclinic
loop_
_symmetry_equiv_pos_as_xyz
  x,y,z
_cell_length_a	14.044191
_cell_length_b	13.101039
_cell_length_c	14.044202
_cell_angle_alpha	93.660779
_cell_angle_beta	86.807761
_cell_angle_gamma	93.662449
loop_
_atom_site_label
_atom_site_type_symbol
_atom_site_fract_x
_atom_site_fract_y
_atom_site_fract_z
O1	O	1.281986	0.085198	-0.225376
O2	O	1.615319	0.418532	0.107957
O3	O	1.948652	0.751865	0.441290
O4	O	1.005314	0.085210	-0.217063
O5	O	1.338647	0.418543	0.116270
O6	O	1.671980	0.751877	0.449604
O7	O	1.139491	0.085176	-0.082885
O8	O	1.472824	0.418510	0.250448
O9	O	1.806157	0.751843	0.583782
O10	O	1.147809	0.085232	-0.359554
O11	O	1.481142	0.418565	-0.026221
O12	O	1.814475	0.751898	0.307112
O13	O	1.129865	-0.085251	-0.092530
O14	O	1.463198	0.248082	0.240804
O15	O	1.796532	0.581416	0.574137
O16	O	0.995688	-0.085218	-0.226708
O17	O	1.329021	0.248116	0.106626
O18	O	1.662355	0.581449	0.439959
O19	O	1.272360	-0.085229	-0.235021
O20	O	1.605693	0.248104	0.098312
O21	O	1.939027	0.581437	0.431646
Zn22	Zn	1.132496	-0.112282	-0.232396
Zn23	Zn	1.465829	0.221051	0.100938
Zn24	Zn	1.799162	0.554384	0.434271
Zn25	Zn	1.145178	0.112263	-0.219688
Zn26	Zn	1.478511	0.445596	0.113645
Zn27	Zn	1.811844	0.778930	0.446978
O28	O	1.138183	-0.085196	-0.369199
O29	O	1.471516	0.248138	-0.035866
O30	O	1.804850	0.581471	0.297468
C31	C	0.964879	-0.000003	-0.218249
C32	C	1.298212	0.333331	0.115085
C33	C	1.631545	0.666664	0.448418
C34	C	0.858735	0.000000	-0.207401
C35	C	1.192069	0.333334	0.125932
C36	C	1.525402	0.666667	0.459265
C37	C	0.613279	0.000002	-0.264502
C38	C	0.946612	0.333335	0.068832
C39	C	1.279946	0.666668	0.402165
C40	C	0.664401	-0.000012	-0.187586
C41	C	0.997734	0.333321	0.145747
C42	C	1.331068	0.666655	0.479081
C43	C	0.772539	-0.000005	-0.198614
C44	C	1.105872	0.333328	0.134720
C45	C	1.439205	0.666662	0.468053
C46	C	0.505131	-0.000005	-0.253475
C47	C	0.838465	0.333328	0.079858
C48	C	1.171798	0.666661	0.413191
N49	N	1.123847	-0.265529	-0.241068
N50	N	1.457181	0.067805	0.092266
N51	N	1.790514	0.401138	0.425599
C52	C	1.112082	-0.474568	-0.252875
C53	C	1.445415	-0.141235	0.080458
C54	C	1.778748	0.192098	0.413791
C55	C	1.165596	-0.525457	-0.199205
C56	C	1.498929	-0.192124	0.134129
C57	C	1.832262	0.141209	0.467462
C58	C	1.159049	-0.641774	-0.205774
C59	C	1.492383	-0.308441	0.127559
C60	C	1.825716	0.024892	0.460892
C61	C	1.118627	-0.358241	-0.246307
C62	C	1.451961	-0.024908	0.087027
C63	C	1.785294	0.308426	0.420360
C64	C	1.312795	-0.000014	-0.233835
C65	C	1.646128	0.333319	0.099498
C66	C	1.979462	0.666652	0.432831
C67	C	1.418939	-0.000011	-0.244682
C68	C	1.752272	0.333323	0.088651
C69	C	2.085605	0.666656	0.421984
C70	C	1.131041	-0.000042	-0.052086
C71	C	1.464374	0.333291	0.281248
C72	C	1.797707	0.666625	0.614581
C73	C	1.120192	-0.000057	0.054057
C74	C	1.453525	0.333277	0.387390
C75	C	1.786858	0.666610	0.720724
N76	N	1.153833	0.265509	-0.211009
N77	N	1.487166	0.598843	0.122324
N78	N	1.820500	0.932176	0.455657
C79	C	1.177292	-0.000033	0.299515
C80	C	1.510625	0.333301	0.632849
C81	C	1.843958	0.666634	0.966182
C82	C	1.100375	-0.000033	0.248392
C83	C	1.433709	0.333300	0.581725
C84	C	1.767042	0.666633	0.915058
C85	C	1.111404	-0.000046	0.140254
C86	C	1.444737	0.333287	0.473587
C87	C	1.778070	0.666620	0.806921
C88	C	1.166265	-0.000020	0.407663
C89	C	1.499598	0.333314	0.740996
C90	C	1.832931	0.666647	1.074330
C91	C	1.146630	0.000011	0.600001
C92	C	1.479964	0.333344	0.933334
C93	C	1.813297	0.666678	1.266667
C94	C	1.157471	-0.000009	0.493856
C95	C	1.490805	0.333324	0.827189
C96	C	1.824138	0.666657	1.160523
H97	H	0.626958	0.000045	-0.113450
H98	H	0.960292	0.333379	0.219883
H99	H	1.293625	0.666712	0.553217
N100	N	1.007366	-0.000042	0.295343
N101	N	1.340699	0.333292	0.628676
N102	N	1.674033	0.666625	0.962009
N103	N	0.935044	-0.000053	0.247337
N104	N	1.268377	0.333281	0.580670
N105	N	1.601711	0.666614	0.914004
H106	H	0.869358	-0.000063	0.280498
H107	H	1.202691	0.333271	0.613831
H108	H	1.536024	0.666604	0.947165
N109	N	1.229233	-0.470517	-0.135373
N110	N	1.562566	-0.137184	0.197960
N111	N	1.895900	0.196149	0.531293
N112	N	1.234531	-0.374736	-0.130058
N113	N	1.567864	-0.041403	0.203275
N114	N	1.901198	0.291931	0.536609
H115	H	1.279474	-0.335929	-0.084981
H116	H	1.612808	-0.002596	0.248352
H117	H	1.946141	0.330738	0.581686
H118	H	1.251418	-0.000044	0.262072
H119	H	1.584751	0.333289	0.595405
H120	H	1.918085	0.666622	0.928738
N121	N	1.048459	-0.529490	-0.316723
N122	N	1.381792	-0.196156	0.016611
N123	N	1.715125	0.137177	0.349944
N124	N	1.058044	-0.517592	-0.404412
N125	N	1.391378	-0.184259	-0.071079
N126	N	1.724711	0.149075	0.262255
H127	H	1.013113	-0.556390	-0.449507
H128	H	1.346446	-0.223056	-0.116173
H129	H	1.679779	0.110277	0.217160
H130	H	0.650724	0.000020	-0.338628
H131	H	0.984057	0.333353	-0.005294
H132	H	1.317390	0.666686	0.328039
