data_functionalizedCrystal
_audit_creation_method	'MofGen! by Chris Wilmer'
_symmetry_space_group_name_H-M	'P1'
_symmetry_Int_Tables_number	1
_symmetry_cell_setting	triclinic
loop_
_symmetry_equiv_pos_as_xyz
  x,y,z
_cell_length_a	12.645331
_cell_length_b	18.101395
_cell_length_c	18.101389
_cell_angle_alpha	89.979213
_cell_angle_beta	89.982757
_cell_angle_gamma	90.030083
loop_
_atom_site_label
_atom_site_type_symbol
_atom_site_fract_x
_atom_site_fract_y
_atom_site_fract_z
Zn1	Zn	1.620576	-0.294899	-0.418745
Zn2	Zn	1.620433	-0.418733	-0.294907
Zn3	Zn	1.443307	-0.294907	-0.294918
Zn4	Zn	1.443230	-0.418701	-0.418707
O5	O	1.531886	-0.356810	-0.356819
O6	O	1.768904	-0.311335	-0.402330
O7	O	1.596909	-0.402324	-0.191276
O8	O	1.466914	-0.191273	-0.311364
O9	O	1.768799	-0.402316	-0.311346
O10	O	1.597152	-0.191267	-0.402340
O11	O	1.466775	-0.311350	-0.191283
O12	O	1.294950	-0.311319	-0.311327
O13	O	1.466783	-0.402261	-0.522345
O14	O	1.294893	-0.402269	-0.402274
O15	O	1.597078	-0.311304	-0.522373
O16	O	1.596834	-0.522361	-0.311309
O17	O	1.466645	-0.522338	-0.402264
C18	C	1.256457	-0.356792	-0.356798
C19	C	1.138627	-0.356803	-0.356806
C20	C	0.971063	-0.299323	-0.299907
C21	C	1.093622	-0.299471	-0.299656
C22	C	1.094083	-0.434813	-0.335485
C23	C	0.971485	-0.434499	-0.335096
C24	C	0.971473	-0.337014	-0.435247
C25	C	1.094080	-0.335271	-0.434812
C26	C	1.531745	-0.549220	-0.356798
C27	C	1.531781	-0.631535	-0.356813
C28	C	1.532013	-0.930625	-0.356853
C29	C	1.450292	-0.899316	-0.414221
C30	C	1.449903	-0.813698	-0.414042
C31	C	1.531898	-0.782243	-0.356834
C32	C	1.501656	-0.813385	-0.278784
C33	C	1.501129	-0.899030	-0.279127
C34	C	1.644156	-0.898973	-0.376847
C35	C	1.643497	-0.813322	-0.378559
C36	C	1.531835	-0.698383	-0.356818
C37	C	1.532074	-1.014485	-0.356863
C38	C	1.808392	-0.356828	-0.356841
C39	C	1.926222	-0.356836	-0.356851
C40	C	1.531938	-0.356778	-0.549981
C41	C	1.531960	-0.356764	-0.632295
C42	C	1.532058	-0.163648	-0.356857
C43	C	1.532131	-0.081334	-0.356874
C44	C	1.532000	-0.356707	-0.783004
C45	C	1.450035	-0.413923	-0.814340
C46	C	1.449737	-0.413722	-0.899958
C47	C	1.532039	-0.356651	-0.931387
C48	C	1.502140	-0.278556	-0.900302
C49	C	1.501523	-0.278919	-0.814657
C50	C	1.644079	-0.376891	-0.814572
C51	C	1.643500	-0.378581	-0.900223
C52	C	1.532063	-0.356615	-1.015246
C53	C	1.531974	-0.356737	-0.699144
C54	C	1.531896	-0.356788	-0.164409
C55	C	1.532079	-0.356593	-0.082095
H56	H	0.940593	-0.281122	-0.454637
N57	N	1.724815	-0.925791	-0.321509
H58	H	1.758142	-0.882014	-0.295921
H59	H	1.688879	-0.958295	-0.283712
H60	H	1.419154	-0.919070	-0.262191
N61	N	0.933527	-0.456753	-0.259181
H62	H	0.889017	-0.502934	-0.263067
H63	H	0.996488	-0.466637	-0.226322
N64	N	0.932046	-0.222465	-0.317407
H65	H	0.994405	-0.189072	-0.327531
H66	H	0.884909	-0.224247	-0.362403
H67	H	1.666302	-0.792966	-0.435999
N68	N	1.394223	-0.785058	-0.255939
H69	H	1.364989	-0.752061	-0.296028
H70	H	1.344834	-0.828189	-0.247918
N71	N	1.132635	-0.259226	-0.456111
H72	H	1.178769	-0.238802	-0.415408
H73	H	1.174897	-0.262504	-0.503348
N74	N	1.576531	-0.926487	-0.220575
H75	H	1.650145	-0.907782	-0.231544
H76	H	1.553105	-0.907784	-0.170626
H77	H	1.559306	-0.793010	-0.234875
H78	H	1.468467	-0.472021	-0.793745
N79	N	1.340643	-0.396418	-0.785850
H80	H	1.312675	-0.439938	-0.756872
H81	H	1.344025	-0.351568	-0.752760
N82	N	1.340849	-0.927894	-0.396902
H83	H	1.313124	-0.956871	-0.440464
H84	H	1.344058	-0.961004	-0.352039
H85	H	1.122904	-0.312571	-0.241561
N86	N	1.393027	-0.256287	-0.788187
H87	H	1.346050	-0.246171	-0.832153
H88	H	1.361460	-0.297405	-0.757554
N89	N	1.728413	-0.784952	-0.327245
H90	H	1.711976	-0.800780	-0.274976
H91	H	1.799123	-0.805835	-0.342609
N92	N	1.474950	-0.785801	-0.490702
H93	H	1.474740	-0.730004	-0.490732
H94	H	1.546987	-0.804264	-0.506160
N95	N	1.339748	-0.395978	-0.927105
H96	H	1.291270	-0.388252	-0.883436
H97	H	1.341903	-0.349522	-0.957988
H98	H	1.124718	-0.374106	-0.479508
N99	N	0.933069	-0.392499	-0.491452
H100	H	0.886587	-0.430295	-0.466297
H101	H	0.891206	-0.366195	-0.531013
N102	N	1.724972	-0.321696	-0.787734
H103	H	1.689253	-0.283797	-0.755286
H104	H	1.781366	-0.348209	-0.758463
N105	N	1.680225	-0.451064	-0.785964
H106	H	1.624306	-0.472335	-0.752244
H107	H	1.692173	-0.485658	-0.828923
N108	N	0.932179	-0.493178	-0.387637
H109	H	0.994496	-0.519136	-0.410944
H110	H	0.887860	-0.530207	-0.359605
N111	N	1.394840	-0.255516	-0.928700
H112	H	1.396377	-0.253312	-0.984444
H113	H	1.340003	-0.292623	-0.912242
N114	N	1.577188	-0.220508	-0.787190
H115	H	1.610793	-0.194636	-0.830720
H116	H	1.537337	-0.183364	-0.756256
N117	N	1.578803	-0.220515	-0.927264
H118	H	1.633783	-0.244344	-0.959968
H119	H	1.539177	-0.181747	-0.956299
N120	N	1.474455	-0.490416	-0.927805
H121	H	1.485643	-0.524659	-0.884444
H122	H	1.413513	-0.508975	-0.958720
H123	H	1.671729	-0.920528	-0.432791
H124	H	1.666051	-0.436056	-0.920537
H125	H	1.469024	-0.919871	-0.472282
H126	H	1.707818	-0.339954	-0.921620
N127	N	1.132704	-0.493097	-0.388687
H128	H	1.103104	-0.542791	-0.373923
H129	H	1.108373	-0.480433	-0.440296
H130	H	1.123741	-0.241623	-0.313021
N131	N	0.929811	-0.316439	-0.223501
H132	H	0.952842	-0.367715	-0.208509
H133	H	0.958806	-0.279213	-0.187220
N134	N	1.134672	-0.457474	-0.260382
H135	H	1.214467	-0.459651	-0.261416
H136	H	1.111102	-0.420193	-0.222294
H137	H	1.366780	-0.793273	-0.400798
