data_functionalizedCrystal
_audit_creation_method	'MofGen! by Chris Wilmer'
_symmetry_space_group_name_H-M	'P1'
_symmetry_Int_Tables_number	1
_symmetry_cell_setting	triclinic
loop_
_symmetry_equiv_pos_as_xyz
  x,y,z
_cell_length_a	19.288840
_cell_length_b	23.532407
_cell_length_c	18.366186
_cell_angle_alpha	89.989089
_cell_angle_beta	89.983729
_cell_angle_gamma	82.987346
loop_
_atom_site_label
_atom_site_type_symbol
_atom_site_fract_x
_atom_site_fract_y
_atom_site_fract_z
O1	O	0.921145	0.070977	-0.060679
O2	O	1.421145	0.570977	0.439321
O3	O	0.718852	0.080576	-0.060654
O4	O	1.218852	0.580576	0.439346
O5	O	0.826099	-0.007143	-0.060654
O6	O	1.326099	0.492857	0.439346
O7	O	0.813898	0.158696	-0.060679
O8	O	1.313898	0.658696	0.439321
O9	O	0.826081	-0.007147	0.060446
O10	O	1.326081	0.492853	0.560446
O11	O	0.718834	0.080572	0.060445
O12	O	1.218834	0.580572	0.560445
O13	O	0.921127	0.070973	0.060421
O14	O	1.421127	0.570973	0.560421
Zn15	Zn	0.819978	0.075772	0.079660
Zn16	Zn	1.319978	0.575772	0.579660
Zn17	Zn	0.820001	0.075777	-0.079894
Zn18	Zn	1.320001	0.575777	0.420106
O19	O	0.813880	0.158692	0.060420
O20	O	1.313880	0.658692	0.560420
C21	C	0.692967	0.080267	-0.000101
C22	C	1.192967	0.580267	0.499899
C23	C	0.615866	0.079347	-0.000092
C24	C	1.115866	0.579347	0.499908
C25	C	0.825779	-0.028362	-0.000102
C26	C	1.325779	0.471638	0.499898
C27	C	0.824845	-0.091581	-0.000097
C28	C	1.324845	0.408419	0.499903
C29	C	0.579673	0.078908	-0.066105
C30	C	1.079673	0.578908	0.433895
C31	C	0.507229	0.078037	-0.066113
C32	C	1.007229	0.578037	0.433887
C33	C	0.470982	0.077594	-0.000105
C34	C	0.970982	0.577594	0.499895
C35	C	0.507182	0.078037	0.065916
C36	C	1.007182	0.578037	0.565916
C37	C	0.579624	0.078914	0.065923
C38	C	1.079624	0.578914	0.565923
C39	C	0.361754	0.042846	0.050461
C40	C	0.861754	0.542846	0.550461
C41	C	0.289314	0.041966	0.050452
C42	C	0.789314	0.541966	0.550452
C43	C	0.247547	0.074894	-0.000124
C44	C	0.747547	0.574894	0.499876
C45	C	0.278230	0.108694	-0.050702
C46	C	0.778230	0.608694	0.449298
C47	C	0.350671	0.109570	-0.050695
C48	C	0.850671	0.609570	0.449305
C49	C	0.392431	0.076644	-0.000105
C50	C	0.892431	0.576644	0.499895
C51	C	0.132802	0.073510	-0.066151
C52	C	0.632802	0.573510	0.433849
C53	C	0.060356	0.072643	-0.066157
C54	C	0.560356	0.572643	0.433843
C55	C	0.060311	0.072638	0.065875
C56	C	0.560311	0.572638	0.565875
C57	C	0.132755	0.073511	0.065879
C58	C	0.632755	0.573511	0.565879
C59	C	0.168997	0.073944	-0.000136
C60	C	0.668997	0.573944	0.499864
C61	C	0.882452	-0.490568	-0.000143
C62	C	1.382452	0.009432	0.499857
C63	C	0.881585	-0.549970	-0.000149
C64	C	1.381585	-0.049970	0.499851
O65	O	0.934988	-0.586608	-0.000182
O66	O	1.434988	-0.086608	0.499818
N67	N	0.817827	-0.572724	-0.000141
N68	N	1.317827	-0.072724	0.499859
C69	C	0.754932	-0.536072	-0.000134
C70	C	1.254932	-0.036072	0.499866
O71	O	0.700622	-0.560880	-0.000129
O72	O	1.200622	-0.060880	0.499871
C73	C	0.755801	-0.476671	-0.000134
C74	C	1.255801	0.023329	0.499866
C75	C	0.819563	-0.453921	-0.000135
C76	C	1.319563	0.046079	0.499865
C77	C	0.946209	-0.467818	-0.000145
C78	C	1.446209	0.032182	0.499855
C79	C	0.947077	-0.408420	-0.000138
C80	C	1.447077	0.091580	0.499862
C81	C	0.884187	-0.371773	-0.000130
C82	C	1.384187	0.128227	0.499870
C83	C	0.820430	-0.394523	-0.000128
C84	C	1.320430	0.105477	0.499872
C85	C	0.692907	-0.440021	-0.000133
C86	C	1.192907	0.059979	0.499867
C87	C	0.693781	-0.380616	-0.000134
C88	C	1.193781	0.119384	0.499866
C89	C	0.757543	-0.357866	-0.000134
C90	C	1.257543	0.142134	0.499866
C91	C	0.758408	-0.298478	-0.000113
C92	C	1.258408	0.201522	0.499887
N93	N	0.822166	-0.275725	-0.000121
N94	N	1.322166	0.224275	0.499879
C95	C	0.885056	-0.312372	-0.000130
C96	C	1.385056	0.187628	0.499870
C97	C	0.753113	-0.660818	-0.000136
C98	C	1.253113	-0.160818	0.499864
C99	C	0.752244	-0.720218	-0.000131
C100	C	1.252244	-0.220218	0.499869
C101	C	0.878897	-0.734112	-0.000147
C102	C	1.378897	-0.234112	0.499853
C103	C	0.879765	-0.674711	-0.000147
C104	C	1.379765	-0.174711	0.499853
C105	C	0.816871	-0.638065	-0.000144
C106	C	1.316871	-0.138065	0.499856
C107	C	0.886873	-0.187631	-0.000115
C108	C	1.386873	0.312369	0.499885
C109	C	0.887734	-0.128228	-0.000105
C110	C	1.387734	0.371772	0.499895
C111	C	0.761082	-0.114339	-0.000093
C112	C	1.261082	0.385661	0.499907
C113	C	0.760220	-0.173737	-0.000099
C114	C	1.260220	0.326263	0.499901
C115	C	0.823121	-0.210383	-0.000112
C116	C	1.323121	0.289617	0.499888
O117	O	0.705034	-0.261806	-0.000083
O118	O	1.205034	0.238194	0.499917
O119	O	0.939358	-0.287555	-0.000145
O120	O	1.439358	0.212445	0.499855
C121	C	0.947012	0.071282	-0.000134
C122	C	1.447012	0.571282	0.499866
C123	C	1.024113	0.072202	-0.000148
C124	C	1.524113	0.572202	0.499852
C125	C	0.814200	0.179911	-0.000133
C126	C	1.314200	0.679911	0.499867
C127	C	0.815134	0.243130	-0.000143
C128	C	1.315134	0.743130	0.499857
N129	N	0.819966	0.075767	0.188551
N130	N	1.319966	0.575767	0.688551
N131	N	0.820018	0.075777	-0.188785
N132	N	1.320018	0.575777	0.311215
C133	C	0.867471	0.036945	0.226652
C134	C	1.367471	0.536945	0.726652
C135	C	0.867475	0.036942	0.302880
C136	C	1.367475	0.536942	0.802880
C137	C	0.819982	0.075772	0.341004
C138	C	1.319982	0.575772	0.841004
C139	C	0.772469	0.114598	0.302894
C140	C	1.272469	0.614598	0.802894
C141	C	0.772461	0.114596	0.226668
C142	C	1.272461	0.614596	0.726668
C143	C	0.810524	0.127664	0.461757
C144	C	1.310524	0.627664	0.961757
C145	C	0.810536	0.127667	0.537982
C146	C	1.310536	0.627667	1.037982
C147	C	0.820002	0.075779	0.576111
C148	C	1.320002	0.575779	1.076111
C149	C	0.829469	0.023886	0.538007
C150	C	1.329469	0.523886	1.038007
C151	C	0.829462	0.023884	0.461780
C152	C	1.329462	0.523884	0.961780
C153	C	0.819985	0.075779	0.423659
C154	C	1.319985	0.575779	0.923659
C155	C	0.867513	0.036950	0.696867
C156	C	1.367513	0.536950	1.196867
C157	C	0.867513	0.036947	0.773096
C158	C	1.367513	0.536947	1.273096
C159	C	0.772510	0.114608	0.773109
C160	C	1.272510	0.614608	1.273109
C161	C	0.772507	0.114606	0.696881
C162	C	1.272507	0.614606	1.196881
C163	C	0.820012	0.075778	0.658765
C164	C	1.320012	0.575778	1.158765
H165	H	0.609177	0.079261	-0.119859
H166	H	1.109177	0.579261	0.380141
H167	H	0.733798	0.146213	0.333939
H168	H	1.233798	0.646213	0.833939
H169	H	0.837169	-0.018369	0.430758
H170	H	1.337169	0.481631	0.930758
H171	H	0.701894	-0.630983	-0.000128
H172	H	1.201894	-0.130983	0.499872
H173	H	0.802803	0.169920	0.430718
H174	H	1.302803	0.669920	0.930718
H175	H	0.030889	0.072289	-0.119915
H176	H	0.530889	0.572289	0.380085
H177	H	0.244223	0.135509	-0.091883
H178	H	0.744223	0.635509	0.408117
H179	H	0.837177	-0.018366	0.569050
H180	H	1.337177	0.481634	1.069050
H181	H	0.264338	0.014441	0.091632
H182	H	0.764338	0.514441	0.591632
H183	H	0.733777	0.146211	0.195646
H184	H	1.233777	0.646211	0.695646
H185	H	0.477756	0.077680	-0.119871
H186	H	0.977756	0.577680	0.380129
H187	H	0.708300	-0.192261	-0.000078
H188	H	1.208300	0.307739	0.499922
H189	H	0.640985	-0.458533	-0.000137
H190	H	1.140985	0.041467	0.499863
H191	H	0.642564	-0.350781	-0.000133
H192	H	1.142564	0.149219	0.499867
H193	H	0.939659	-0.109708	-0.000104
H194	H	1.439659	0.390292	0.499896
H195	H	0.906193	0.005332	0.665831
H196	H	1.406193	0.505332	1.165831
H197	H	0.906150	0.005327	0.195619
H198	H	1.406150	0.505327	0.695619
H199	H	0.375650	0.137093	-0.091876
H200	H	0.875650	0.637093	0.408124
H201	H	0.709879	-0.084490	-0.000084
H202	H	1.209879	0.415510	0.499916
H203	H	0.906194	0.005330	0.804118
H204	H	1.406194	0.505330	1.304118
H205	H	0.162310	0.073870	-0.119904
H206	H	0.662310	0.573870	0.380096
H207	H	0.030799	0.072281	0.119620
H208	H	0.530799	0.572281	0.619620
H209	H	0.162224	0.073865	0.119634
H210	H	0.662224	0.573865	0.619634
H211	H	0.733837	0.146222	0.804149
H212	H	1.233837	0.646222	1.304149
H213	H	0.477665	0.077678	0.119661
H214	H	0.977665	0.577678	0.619661
H215	H	0.906160	0.005327	0.333907
H216	H	1.406160	0.505327	0.833907
H217	H	0.395756	0.016031	0.091649
H218	H	0.895756	0.516031	0.591649
H219	H	0.609092	0.079272	0.119681
H220	H	1.109092	0.579272	0.619681
H221	H	0.733827	0.146222	0.665858
H222	H	1.233827	0.646222	1.165858
H223	H	0.938093	-0.217462	-0.000128
H224	H	1.438093	0.282538	0.499872
H225	H	0.998998	-0.389903	-0.000142
H226	H	1.498998	0.110097	0.499858
H227	H	0.802831	0.169922	0.569001
H228	H	1.302831	0.669922	1.069001
H229	H	0.997425	-0.497651	-0.000154
H230	H	1.497425	0.002349	0.499846
H231	H	0.931686	-0.656193	-0.000148
H232	H	1.431686	-0.156193	0.499852
H233	H	0.930105	-0.763961	-0.000157
H234	H	1.430105	-0.263961	0.499843
H235	H	0.700323	-0.738735	-0.000118
H236	H	1.200323	-0.238735	0.499882
