data_functionalizedCrystal
_audit_creation_method	'MofGen! by Chris Wilmer'
_symmetry_space_group_name_H-M	'P1'
_symmetry_Int_Tables_number	1
_symmetry_cell_setting	triclinic
loop_
_symmetry_equiv_pos_as_xyz
  x,y,z
_cell_length_a	16.992694
_cell_length_b	17.038272
_cell_length_c	15.455313
_cell_angle_alpha	92.858370
_cell_angle_beta	87.142206
_cell_angle_gamma	90.889890
loop_
_atom_site_label
_atom_site_type_symbol
_atom_site_fract_x
_atom_site_fract_y
_atom_site_fract_z
O1	O	1.054714	0.163265	-0.072022
O2	O	1.554714	0.663265	0.427978
O3	O	0.826308	0.161438	-0.072048
O4	O	1.326308	0.661438	0.427952
O5	O	0.939153	0.048451	-0.072029
O6	O	1.439153	0.548451	0.427971
O7	O	0.941869	0.276252	-0.072042
O8	O	1.441869	0.776252	0.427958
O9	O	0.932698	0.054884	0.072232
O10	O	1.432698	0.554884	0.572232
O11	O	0.819853	0.167870	0.072213
O12	O	1.319853	0.667870	0.572213
O13	O	1.048259	0.169698	0.072239
O14	O	1.548259	0.669698	0.572239
Cu15	Cu	0.933466	0.169371	0.085398
Cu16	Cu	1.433466	0.669371	0.585398
Cu17	Cu	0.941100	0.161764	-0.085207
Cu18	Cu	1.441100	0.661764	0.414793
O19	O	0.935414	0.282684	0.072219
O20	O	1.435414	0.782684	0.572219
C21	C	0.793711	0.162304	0.000079
C22	C	1.293711	0.662304	0.500079
C23	C	0.706200	0.155293	0.000070
C24	C	1.206200	0.655293	0.500070
C25	C	0.933456	0.022384	0.000102
C26	C	1.433456	0.522384	0.500102
C27	C	0.926089	-0.064871	0.000101
C28	C	1.426089	0.435129	0.500101
C29	C	0.660471	0.222933	0.000066
C30	C	1.160471	0.722933	0.500066
C31	C	0.578245	0.216342	0.000079
C32	C	1.078245	0.716342	0.500079
C33	C	0.541748	0.142110	0.000088
C34	C	1.041748	0.642110	0.500088
C35	C	0.587482	0.074465	0.000094
C36	C	1.087482	0.574465	0.500094
C37	C	0.669707	0.081058	0.000088
C38	C	1.169707	0.581058	0.500088
C39	C	0.296326	0.114789	0.000113
C40	C	0.796326	0.614789	0.500113
C41	C	0.214095	0.108202	0.000117
C42	C	0.714095	0.608202	0.500117
C43	C	0.204863	0.250079	0.000103
C44	C	0.704863	0.750079	0.500103
C45	C	0.287091	0.256665	0.000091
C46	C	0.787091	0.756665	0.500091
C47	C	0.332818	0.189020	0.000102
C48	C	0.832818	0.689020	0.500102
N49	N	0.457699	0.135371	0.000098
N50	N	0.957699	0.635371	0.500098
N51	N	0.416865	0.195760	0.000098
N52	N	0.916865	0.695760	0.500098
C53	C	0.993729	-0.110741	0.000109
C54	C	1.493729	0.389259	0.500109
C55	C	0.986802	-0.192726	0.000100
C56	C	1.486802	0.307274	0.500100
C57	C	0.912235	-0.228840	0.000089
C58	C	1.412235	0.271160	0.500089
C59	C	0.844590	-0.182964	0.000078
C60	C	1.344590	0.317036	0.500078
C61	C	0.851518	-0.100981	0.000080
C62	C	1.351518	0.399019	0.500080
C63	C	0.887761	-0.476134	0.000074
C64	C	1.387761	0.023866	0.500074
C65	C	0.880838	-0.558124	0.000074
C66	C	1.380838	-0.058124	0.500074
C67	C	1.023051	-0.567881	0.000095
C68	C	1.523051	-0.067881	0.500095
C69	C	1.029972	-0.485895	0.000103
C70	C	1.529972	0.014105	0.500103
C71	C	0.962327	-0.440026	0.000087
C72	C	1.462327	0.059974	0.500087
C73	C	0.905153	-0.312642	0.000082
C74	C	1.405153	0.187358	0.500082
C75	C	0.969410	-0.356226	0.000087
C76	C	1.469410	0.143774	0.500087
C77	C	1.080856	0.168831	0.000109
C78	C	1.580856	0.668831	0.500109
C79	C	1.168367	0.175842	0.000113
C80	C	1.668367	0.675842	0.500113
C81	C	0.941110	0.308751	0.000087
C82	C	1.441110	0.808751	0.500087
C83	C	0.948478	0.396006	0.000082
C84	C	1.448478	0.896006	0.500082
N85	N	0.928103	0.174722	0.205393
N86	N	1.428103	0.674722	0.705393
N87	N	0.946469	0.156408	-0.205202
N88	N	1.446469	0.656408	0.294798
C89	C	0.976063	0.126741	0.250795
C90	C	1.476063	0.626741	0.750795
C91	C	0.972014	0.130795	0.341602
C92	C	1.472014	0.630795	0.841602
C93	C	0.920010	0.182835	0.387005
C94	C	1.420010	0.682835	0.887005
C95	C	0.872045	0.230817	0.341597
C96	C	1.372045	0.730817	0.841597
C97	C	0.876090	0.226759	0.250791
C98	C	1.376090	0.726759	0.750791
C99	C	0.902549	0.200332	0.658584
C100	C	1.402549	0.700332	1.158584
C101	C	0.898510	0.204388	0.749396
C102	C	1.398510	0.704388	1.249396
C103	C	0.998479	0.104365	0.749395
C104	C	1.498479	0.604365	1.249395
C105	C	1.002522	0.100314	0.658588
C106	C	1.502522	0.600314	1.158588
C107	C	0.954554	0.148294	0.613187
C108	C	1.454554	0.648294	1.113187
N109	N	0.915872	0.186981	0.479825
N110	N	1.415872	0.686981	0.979825
N111	N	0.958688	0.144143	0.520369
N112	N	1.458688	0.644143	1.020369
H113	H	0.690181	0.283381	0.000058
H114	H	1.190181	0.783381	0.500058
H115	H	0.541016	0.271422	0.000075
H116	H	1.041016	0.771422	0.500075
H117	H	1.037531	0.065301	0.786369
H118	H	1.537531	0.565301	1.286369
Br119	Br	0.336617	0.357411	0.000069
Br120	Br	0.836617	0.857411	0.500069
H121	H	0.167624	0.305152	0.000096
H122	H	0.667624	0.805152	0.500096
Br123	Br	0.731768	-0.010743	0.000100
Br124	Br	1.231768	0.489257	0.500100
H125	H	0.184383	0.047750	0.000123
H126	H	0.684383	0.547750	0.500123
H127	H	0.783876	-0.212375	0.000063
H128	H	1.283876	0.287625	0.500063
H129	H	0.832680	-0.438798	0.000062
H130	H	1.332680	0.061202	0.500062
Br131	Br	0.358374	0.022984	0.000129
Br132	Br	0.858374	0.522984	0.500129
Br133	Br	1.037100	0.065675	0.403223
Br134	Br	1.537100	0.565675	0.903223
Br135	Br	0.779633	-0.607135	0.000068
Br136	Br	1.279633	-0.107135	0.500068
Br137	Br	0.537952	-0.026279	0.000116
Br138	Br	1.037952	0.473721	0.500116
H139	H	1.041882	-0.230070	0.000109
H140	H	1.541882	0.269930	0.500109
H141	H	1.054449	-0.081343	0.000124
H142	H	1.554449	0.418657	0.500124
H143	H	1.090692	-0.456497	0.000112
H144	H	1.590692	0.043503	0.500112
Br145	Br	1.114849	-0.630134	0.000116
Br146	Br	1.614849	-0.130134	0.500116
H147	H	0.796438	-0.063634	0.000073
H148	H	1.296438	0.436366	0.500073
Br149	Br	1.070606	-0.307213	0.000095
Br150	Br	1.570606	0.192787	0.500095
H151	H	1.044869	0.057940	0.621622
H152	H	1.544869	0.557940	1.121622
H153	H	0.856159	0.246768	0.786359
H154	H	1.356159	0.746768	1.286359
H155	H	0.844440	-0.342055	0.000075
H156	H	1.344440	0.157945	0.500075
H157	H	1.018414	0.084369	0.213834
H158	H	1.518414	0.584369	0.713834
H159	H	0.863493	0.239400	0.621625
H160	H	1.363493	0.739400	1.121625
Br161	Br	0.801459	0.301438	0.403212
Br162	Br	1.301459	0.801438	0.903212
Br163	Br	0.810993	0.291873	0.189173
Br164	Br	1.310993	0.791873	0.689173
