data_functionalizedCrystal
_audit_creation_method	'MofGen! by Chris Wilmer'
_symmetry_space_group_name_H-M	'P1'
_symmetry_Int_Tables_number	1
_symmetry_cell_setting	triclinic
loop_
_symmetry_equiv_pos_as_xyz
  x,y,z
_cell_length_a	14.971486
_cell_length_b	16.109301
_cell_length_c	13.448316
_cell_angle_alpha	89.991973
_cell_angle_beta	89.998199
_cell_angle_gamma	83.537805
loop_
_atom_site_label
_atom_site_type_symbol
_atom_site_fract_x
_atom_site_fract_y
_atom_site_fract_z
O1	O	1.186791	0.108348	-0.082581
O2	O	0.926372	0.121323	-0.082608
O3	O	1.063736	-0.006187	-0.082584
O4	O	1.049428	0.235857	-0.082605
O5	O	1.063718	-0.006195	0.082800
O6	O	0.926355	0.121315	0.082776
O7	O	1.186774	0.108340	0.082803
Cu8	Cu	1.056563	0.114827	0.097890
Cu9	Cu	1.056583	0.114836	-0.097695
O10	O	1.049410	0.235850	0.082778
C11	C	0.893040	0.120739	0.000080
C12	C	0.793745	0.119000	0.000070
C13	C	0.736412	0.193908	0.000065
C14	C	0.643115	0.192269	0.000080
C15	C	0.607153	0.115721	0.000093
C16	C	0.664494	0.040807	0.000101
C17	C	0.757789	0.042447	0.000093
C18	C	0.470036	0.037395	0.000115
C19	C	0.376734	0.035755	0.000121
C20	C	0.355362	0.187217	0.000102
C21	C	0.448657	0.188857	0.000094
C22	C	0.505991	0.113942	0.000100
C23	C	1.063147	-0.037166	0.000109
C24	C	1.061410	-0.129464	0.000110
C25	C	1.138878	-0.351640	0.000102
C26	C	1.137239	-0.438362	0.000094
C27	C	0.974262	-0.418691	0.000081
C28	C	0.975902	-0.331970	0.000082
C29	C	1.058213	-0.298447	0.000098
C30	C	1.054933	-0.471890	0.000088
C31	C	1.053155	-0.565918	0.000079
C32	C	1.059992	-0.204413	0.000105
C33	C	1.220106	0.108924	0.000112
C34	C	1.319401	0.110663	0.000116
C35	C	1.049999	0.266829	0.000084
C36	C	1.051736	0.359127	0.000076
N37	N	1.056555	0.114820	0.235454
N38	N	1.056598	0.114837	-0.235260
C39	C	1.117398	0.058382	0.287506
C40	C	1.117404	0.058381	0.391609
C41	C	1.056570	0.114823	0.443659
C42	C	0.995720	0.171264	0.391601
C43	C	0.995711	0.171260	0.287499
C44	C	0.995745	0.171269	0.608581
C45	C	0.995755	0.171275	0.712689
C46	C	1.117438	0.058391	0.712690
C47	C	1.117429	0.058387	0.608589
C48	C	1.056580	0.114829	0.556538
H49	H	0.765684	0.256242	0.000053
N50	N	0.487436	0.271423	0.000079
H51	H	0.525671	0.275477	0.061383
H52	H	0.525620	0.275432	-0.061274
H53	H	0.347458	-0.026577	0.000133
N54	N	0.293559	0.268038	0.000169
H55	H	0.305108	0.301460	-0.061126
H56	H	0.229014	0.255350	0.000241
H57	H	1.202924	-0.481669	0.000096
N58	N	0.885487	-0.454848	0.000068
H59	H	0.896686	-0.517857	0.000071
H60	H	0.850187	-0.435400	0.061376
N61	N	0.888895	-0.274590	0.000070
H62	H	0.836503	-0.308984	0.000067
H63	H	0.886022	-0.238186	0.061378
H64	H	1.166940	0.012424	0.245133
N65	N	1.183058	-0.002462	0.447751
H66	H	1.221609	-0.038205	0.398981
H67	H	1.222573	0.029465	0.490911
N68	N	1.183046	-0.002483	0.552445
H69	H	1.221594	-0.038239	0.601214
H70	H	1.148813	-0.039291	0.509266
H71	H	0.516716	-0.023609	0.000122
N72	N	0.625701	-0.041752	0.000127
H73	H	0.587467	-0.045808	-0.061177
H74	H	0.676227	-0.088913	0.000172
N75	N	0.819632	-0.038347	0.000107
H76	H	0.782695	-0.087089	0.000116
H77	H	0.858807	-0.040966	-0.061203
H78	H	1.205901	-0.324348	0.000113
H79	H	1.166983	0.012434	0.755077
N80	N	0.930151	0.232157	0.768833
H81	H	0.891600	0.267910	0.720064
H82	H	0.890630	0.200270	0.812047
N83	N	0.930112	0.232141	0.552436
H84	H	0.891577	0.267900	0.601204
H85	H	0.964338	0.268947	0.509230
H86	H	0.946183	0.217217	0.433986
N87	N	0.930083	0.232127	0.231353
H88	H	0.891546	0.267885	0.280121
H89	H	0.964303	0.268936	0.188143
H90	H	0.596437	0.253267	0.000074
