data_functionalizedCrystal
_audit_creation_method	'MofGen! by Chris Wilmer'
_symmetry_space_group_name_H-M	'P1'
_symmetry_Int_Tables_number	1
_symmetry_cell_setting	triclinic
loop_
_symmetry_equiv_pos_as_xyz
  x,y,z
_cell_length_a	14.971486
_cell_length_b	23.532407
_cell_length_c	13.448316
_cell_angle_alpha	89.988737
_cell_angle_beta	89.998199
_cell_angle_gamma	83.231404
loop_
_atom_site_label
_atom_site_type_symbol
_atom_site_fract_x
_atom_site_fract_y
_atom_site_fract_z
O1	O	1.186163	0.074216	-0.082588
O2	O	0.925669	0.083104	-0.082616
O3	O	1.063771	-0.004238	-0.082583
O4	O	1.048061	0.161558	-0.082621
O5	O	1.063754	-0.004243	0.082801
O6	O	0.925652	0.083099	0.082767
O7	O	1.186146	0.074211	0.082796
Cu8	Cu	1.055897	0.078654	0.097882
Cu9	Cu	1.055918	0.078661	-0.097703
O10	O	1.048044	0.161553	0.082763
C11	C	0.892340	0.082704	0.000072
C12	C	0.793056	0.081513	0.000062
C13	C	0.735288	0.132824	0.000052
C14	C	0.642001	0.131701	0.000067
C15	C	0.606482	0.079267	0.000085
C16	C	0.664257	0.027952	0.000099
C17	C	0.757543	0.029075	0.000091
C18	C	0.469819	0.025615	0.000113
C19	C	0.376527	0.024491	0.000119
C20	C	0.354277	0.128241	0.000089
C21	C	0.447563	0.129364	0.000081
C22	C	0.505331	0.078049	0.000093
C23	C	1.063363	-0.025458	0.000111
C24	C	1.062160	-0.088680	0.000119
C25	C	1.136342	-0.487466	0.000072
C26	C	1.135224	-0.546871	0.000065
O27	O	1.203992	-0.583321	0.000035
N28	N	1.053123	-0.569849	0.000056
C29	C	0.972133	-0.533418	0.000046
O30	O	0.902196	-0.558417	0.000037
C31	C	0.973251	-0.474014	0.000046
C32	C	1.055358	-0.451040	0.000065
C33	C	1.218442	-0.464491	0.000090
C34	C	1.219559	-0.405090	0.000099
C35	C	1.138576	-0.368664	0.000091
C36	C	1.056475	-0.391639	0.000074
C37	C	0.892263	-0.437584	0.000029
C38	C	0.893388	-0.378177	0.000028
C39	C	0.975495	-0.355203	0.000047
C40	C	0.976609	-0.295812	0.000076
N41	N	1.058711	-0.272834	0.000084
C42	C	1.139694	-0.309260	0.000092
C43	C	0.969791	-0.658170	0.000043
C44	C	0.968671	-0.717573	0.000049
C45	C	1.131763	-0.731022	0.000066
C46	C	1.132882	-0.671618	0.000067
C47	C	1.051892	-0.635193	0.000051
C48	C	1.142034	-0.184513	0.000113
C49	C	1.143143	-0.125106	0.000126
C50	C	0.980052	-0.111663	0.000104
C51	C	0.978942	-0.171064	0.000096
C52	C	1.059940	-0.207489	0.000097
O53	O	0.907878	-0.259327	0.000101
O54	O	1.209619	-0.284253	0.000087
C55	C	1.219475	0.074611	0.000105
C56	C	1.318760	0.075802	0.000109
C57	C	1.048453	0.182773	0.000066
C58	C	1.049655	0.245996	0.000052
N59	N	1.055890	0.078650	0.235447
N60	N	1.055933	0.078661	-0.235267
C61	C	1.117060	0.039991	0.287502
C62	C	1.117066	0.039990	0.391605
C63	C	1.055904	0.078652	0.443651
C64	C	0.994728	0.117313	0.391589
C65	C	0.994718	0.117310	0.287488
C66	C	0.994752	0.117317	0.608569
C67	C	0.994762	0.117320	0.712678
C68	C	1.117100	0.039997	0.712686
C69	C	1.117090	0.039994	0.608585
C70	C	1.055914	0.078656	0.556530
H71	H	0.476478	0.172060	0.000057
N72	N	1.219113	-0.770316	0.000075
H73	H	1.205939	-0.811433	0.000068
H74	H	1.254924	-0.762864	-0.061231
N75	N	1.183094	-0.001702	0.768816
H76	H	1.149162	-0.026962	0.812024
H77	H	1.221821	-0.026147	0.719975
N78	N	1.183052	-0.001705	0.552443
H79	H	1.222451	0.020101	0.509236
H80	H	1.221747	-0.026188	0.601275
H81	H	1.207990	-0.214164	0.000110
H82	H	0.516853	-0.016172	0.000124
H83	H	0.944958	0.148802	0.755048
N84	N	1.183033	-0.001706	0.231370
H85	H	1.221783	-0.026197	0.280147
H86	H	1.149015	-0.026921	0.188192
H87	H	1.166875	0.008511	0.433988
H88	H	1.286419	-0.386390	0.000110
N89	N	1.305796	-0.503774	0.000099
H90	H	1.357967	-0.480196	0.000111
H91	H	1.308880	-0.528718	0.061412
H92	H	0.901812	-0.736273	0.000052
H93	H	0.764199	0.175522	0.000036
N94	N	0.819856	-0.026266	0.000095
H95	H	0.859056	-0.028112	0.061403
H96	H	0.783142	-0.059622	0.000069
H97	H	0.944924	0.148790	0.433971
N98	N	0.928769	0.159018	0.552429
H99	H	0.962719	0.184268	0.509220
H100	H	0.889374	0.137172	0.509310
N101	N	0.928736	0.159006	0.231344
H102	H	0.938673	0.199438	0.249438
H103	H	0.938039	0.153088	0.157517
N104	N	0.579735	0.187061	0.000074
H105	H	0.540517	0.188933	-0.061220
H106	H	0.540608	0.188883	0.061436
N107	N	0.292007	0.183602	0.000100
H108	H	0.252791	0.185469	-0.061196
H109	H	0.252879	0.185422	0.061460
H110	H	0.903835	-0.628515	0.000038
N111	N	1.231707	-0.100330	0.000138
H112	H	1.220132	-0.057170	0.000146
H113	H	1.267112	-0.113662	0.061451
H114	H	0.347612	-0.018205	0.000135
N115	N	0.625950	-0.028602	0.000109
H116	H	0.676703	-0.060937	0.000116
H117	H	0.587730	-0.031331	0.061420
N118	N	1.221441	-0.646844	0.000083
H119	H	1.225554	-0.622491	-0.061223
H120	H	1.225480	-0.622533	0.061434
N121	N	0.803703	-0.462354	0.000022
H122	H	0.752579	-0.430257	0.000015
H123	H	0.799685	-0.486701	-0.061289
N124	N	0.806034	-0.338890	0.000006
H125	H	0.753856	-0.362462	-0.000006
H126	H	0.802931	-0.313958	0.061318
H127	H	0.912084	-0.189771	0.000109
H128	H	0.914118	-0.081994	0.000101
