data_functionalizedCrystal
_audit_creation_method	'MofGen! by Chris Wilmer'
_symmetry_space_group_name_H-M	'P1'
_symmetry_Int_Tables_number	1
_symmetry_cell_setting	triclinic
loop_
_symmetry_equiv_pos_as_xyz
  x,y,z
_cell_length_a	19.077105
_cell_length_b	13.032721
_cell_length_c	19.077174
_cell_angle_alpha	99.721459
_cell_angle_beta	85.483752
_cell_angle_gamma	95.201395
loop_
_atom_site_label
_atom_site_type_symbol
_atom_site_fract_x
_atom_site_fract_y
_atom_site_fract_z
Zn1	Zn	1.051969	-0.507760	-0.483590
Zn2	Zn	1.033390	-0.675201	-0.379469
Zn3	Zn	0.930554	-0.493152	-0.359787
Zn4	Zn	0.920290	-0.675133	-0.492581
O5	O	0.984051	-0.587812	-0.428857
O6	O	1.147649	-0.536114	-0.474253
O7	O	1.016269	-0.644967	-0.277708
O8	O	0.958731	-0.348856	-0.364210
O9	O	1.134000	-0.659132	-0.397755
O10	O	1.047934	-0.359588	-0.455168
O11	O	0.940716	-0.511216	-0.263248
O12	O	0.831048	-0.511150	-0.372928
O13	O	0.941236	-0.659015	-0.590539
O14	O	0.823506	-0.644850	-0.470491
O15	O	1.037980	-0.536048	-0.583933
O16	O	1.006316	-0.821426	-0.406474
O17	O	0.923222	-0.821376	-0.489577
C18	C	0.801829	-0.576408	-0.420550
C19	C	0.723872	-0.571556	-0.417015
C20	C	0.683329	-0.638984	-0.466088
C21	C	0.610081	-0.634411	-0.462769
C22	C	0.577378	-0.562415	-0.410373
C23	C	0.617927	-0.494981	-0.361298
C24	C	0.691173	-0.499549	-0.364621
C25	C	0.358735	-0.541273	-0.394998
C26	C	0.285483	-0.536711	-0.391678
C27	C	0.277643	-0.676141	-0.493149
C28	C	0.350891	-0.680707	-0.496465
C29	C	0.391433	-0.613269	-0.447392
N30	N	0.502507	-0.557742	-0.406978
N31	N	0.466303	-0.617938	-0.450791
C32	C	0.961659	-0.859320	-0.451153
C33	C	0.952144	-0.975478	-0.460718
C34	C	0.989055	-1.027259	-0.423898
C35	C	0.979222	-1.147315	-0.433783
C36	C	1.166984	-0.599260	-0.437197
C37	C	1.244939	-0.604139	-0.440751
C38	C	0.990536	-0.599153	-0.613663
C39	C	0.993299	-0.603987	-0.692417
C40	C	1.006550	-0.315245	-0.406490
C41	C	1.016138	-0.199094	-0.396959
C42	C	0.955263	-0.536622	-0.721886
C43	C	0.957856	-0.541172	-0.795884
C44	C	0.998490	-0.613082	-0.840411
C45	C	1.036528	-0.680454	-0.810937
C46	C	1.033930	-0.675908	-0.736941
C47	C	1.010474	-0.634148	-1.062524
C48	C	1.013070	-0.638687	-1.136525
C49	C	0.934398	-0.499405	-1.121467
C50	C	0.931807	-0.494862	-1.047469
C51	C	0.969841	-0.562237	-1.018002
N52	N	1.001144	-0.617732	-0.916048
N53	N	0.967183	-0.557592	-0.942366
C54	C	0.977637	-0.576441	-0.244765
C55	C	0.975034	-0.571322	-0.165994
H56	H	0.244625	-0.731044	-0.533102
C57	C	0.899617	-1.035656	-0.513190
N58	N	0.860051	-1.080980	-0.552712
C59	C	1.068667	-1.138922	-0.344482
N60	N	1.108231	-1.093600	-0.304956
C61	C	1.081047	-0.759783	-0.859931
N62	N	1.114517	-0.819614	-0.896837
C63	C	0.565485	-0.708606	-0.516741
N64	N	0.531894	-0.764500	-0.557391
H65	H	1.064909	-0.730756	-0.712948
H66	H	0.922179	-0.478059	-0.685636
H67	H	0.940342	-1.191859	-0.472630
H68	H	1.027938	-0.982714	-0.385060
C69	C	0.735770	-0.425375	-0.310636
N70	N	0.769360	-0.369504	-0.269974
C71	C	0.916021	-0.467054	-0.828296
N72	N	0.884512	-0.411223	-0.852707
C73	C	0.887105	-0.415757	-0.998495
N74	N	0.853436	-0.356173	-0.961607
C75	C	0.892558	-0.425304	-1.153887
N76	N	0.861039	-0.369490	-1.178307
C77	C	0.386858	-0.759913	-0.554101
N78	N	0.413948	-0.819576	-0.597511
H79	H	1.046162	-0.697246	-1.172778
H80	H	1.041435	-0.689021	-1.038542
H81	H	0.258859	-0.478072	-0.349015
C82	C	0.403322	-0.467094	-0.341013
N83	N	0.436907	-0.411221	-0.300347
C84	C	0.581950	-0.415782	-0.303664
N85	N	0.554854	-0.356130	-0.260252
C86	C	0.719296	-0.718186	-0.523727
N87	N	0.746384	-0.777840	-0.567144
