data_functionalizedCrystal
_audit_creation_method	'MofGen! by Chris Wilmer'
_symmetry_space_group_name_H-M	'P1'
_symmetry_Int_Tables_number	1
_symmetry_cell_setting	triclinic
loop_
_symmetry_equiv_pos_as_xyz
  x,y,z
_cell_length_a	15.995350
_cell_length_b	9.565339
_cell_length_c	10.489716
_cell_angle_alpha	90.003182
_cell_angle_beta	95.989245
_cell_angle_gamma	89.993609
loop_
_atom_site_label
_atom_site_type_symbol
_atom_site_fract_x
_atom_site_fract_y
_atom_site_fract_z
O1	O	1.111959	0.116129	-0.164404
O2	O	0.868305	0.116156	-0.184707
O3	O	0.995687	0.116147	0.011122
O4	O	0.984577	0.116138	-0.360233
O5	O	0.995693	-0.116373	0.011117
O6	O	0.868311	-0.116364	-0.184712
O7	O	1.111965	-0.116391	-0.164410
Zn8	Zn	0.990138	-0.153295	-0.174562
Zn9	Zn	0.990131	0.153060	-0.174554
O10	O	0.984583	-0.116382	-0.360239
C11	C	0.837108	-0.000100	-0.183870
C12	C	0.744143	-0.000089	-0.181354
C13	C	0.406341	-0.000118	-0.172317
C14	C	0.452942	-0.000634	-0.032851
C15	C	0.549648	-0.000100	-0.035368
C16	C	0.573928	-0.000105	-0.176799
C17	C	0.533249	0.132668	-0.245585
C18	C	0.436592	0.132770	-0.242082
C19	C	0.436277	-0.131649	-0.244970
C20	C	0.533222	-0.133394	-0.244937
C21	C	0.668641	-0.000092	-0.179340
C22	C	0.311628	-0.000121	-0.169780
N23	N	0.990150	-0.362375	-0.174566
C24	C	1.049079	-0.453545	-0.084008
C25	C	0.973269	-0.546705	-0.059233
C26	C	1.065929	-0.546769	-0.199258
C27	C	0.914301	-0.453484	-0.149735
C28	C	1.007012	-0.453539	-0.289809
C29	C	0.931148	-0.546658	-0.265084
C30	C	1.143162	-0.000132	-0.165246
C31	C	1.236127	-0.000134	-0.167763
C32	C	0.994855	-0.000109	0.058640
C33	C	0.992358	-0.000096	0.200236
N34	N	0.990126	0.362139	-0.174540
C35	C	0.985415	-0.000123	-0.407756
C36	C	0.987912	-0.000127	-0.549352
C37	C	1.070472	-0.000117	0.299003
C38	C	1.029192	0.114528	0.375789
C39	C	1.029179	-0.114718	0.375747
C40	C	0.951110	0.114644	0.275157
C41	C	0.951109	-0.114705	0.275110
C42	C	0.909771	-0.000032	0.351846
H43	H	0.405130	-0.132550	-0.347797
Cl44	Cl	0.815319	-0.390495	-0.117297
Cl45	Cl	0.422173	0.145558	0.052837
H46	H	1.098865	-0.412659	-0.007386
H47	H	0.918150	0.211676	0.231394
Cl48	Cl	1.029095	-0.390296	-0.440246
H49	H	1.138418	-0.000009	0.275277
H50	H	0.417982	0.232025	-0.191915
Cl51	Cl	1.080098	0.264161	0.443663
H52	H	0.841774	0.000038	0.375325
Cl53	Cl	0.854111	-0.609388	-0.383313
H54	H	0.547994	0.137602	-0.349491
Cl55	Cl	0.951216	-0.609878	0.091251
Cl56	Cl	1.164885	-0.610041	-0.231518
Cl57	Cl	0.900263	-0.264349	0.207170
H58	H	1.062174	-0.211640	0.419679
Cl59	Cl	0.404162	-0.287030	-0.174574
H60	H	0.577756	-0.095277	0.018701
H61	H	0.577178	0.095246	0.019072
Cl62	Cl	0.423830	-0.147642	0.053218
H63	H	0.404955	0.138792	-0.344475
H64	H	0.560241	-0.231619	-0.194723
Cl65	Cl	0.576607	0.285237	-0.171818
H66	H	0.549203	-0.141418	-0.348073
