data_functionalizedCrystal
_audit_creation_method	'MofGen! by Chris Wilmer'
_symmetry_space_group_name_H-M	'P1'
_symmetry_Int_Tables_number	1
_symmetry_cell_setting	triclinic
loop_
_symmetry_equiv_pos_as_xyz
  x,y,z
_cell_length_a	12.827893
_cell_length_b	12.759394
_cell_length_c	12.827885
_cell_angle_alpha	89.968422
_cell_angle_beta	90.019462
_cell_angle_gamma	89.977352
loop_
_atom_site_label
_atom_site_type_symbol
_atom_site_fract_x
_atom_site_fract_y
_atom_site_fract_z
Zn1	Zn	1.597620	0.418211	0.590836
Zn2	Zn	2.097620	0.918211	1.090836
Zn3	Zn	1.597492	0.593927	0.416090
Zn4	Zn	2.097492	1.093927	0.916090
Zn5	Zn	1.422861	0.418263	0.416109
Zn6	Zn	1.922861	0.918263	0.916109
Zn7	Zn	1.422825	0.593849	0.590790
Zn8	Zn	1.922825	1.093849	1.090790
O9	O	1.510199	0.506062	0.503456
O10	O	2.010199	1.006062	1.003456
O11	O	1.743839	0.441531	0.567666
O12	O	2.243839	0.941531	1.067666
O13	O	1.574288	0.570679	0.269857
O14	O	2.074288	1.070679	0.769857
O15	O	1.446112	0.271235	0.439314
O16	O	1.946112	0.771235	0.939314
O17	O	1.743745	0.570629	0.439282
O18	O	2.243745	1.070629	0.939282
O19	O	1.574506	0.271197	0.567685
O20	O	2.074506	0.771197	1.067685
O21	O	1.445987	0.441619	0.269871
O22	O	1.945987	0.941619	0.769871
O23	O	1.276620	0.441544	0.439270
O24	O	1.776620	0.941544	0.939270
O25	O	1.446051	0.570496	0.737033
O26	O	1.946051	1.070496	1.237033
O27	O	1.276594	0.570546	0.567608
O28	O	1.776594	1.070546	1.067608
O29	O	1.574472	0.441456	0.737066
O30	O	2.074472	0.941456	1.237066
O31	O	1.574253	0.740938	0.439238
O32	O	2.074253	1.240938	0.939238
O33	O	1.445926	0.740881	0.567589
O34	O	1.945926	1.240881	1.067589
C35	C	1.238690	0.506043	0.503437
C36	C	1.738690	1.006043	1.003437
C37	C	1.122536	0.506060	0.503453
C38	C	1.622536	1.006060	1.003453
C39	C	1.070798	0.442292	0.567081
C40	C	1.570798	0.942292	1.067081
C41	C	0.950748	0.442308	0.567099
C42	C	1.450748	0.942308	1.067099
C43	C	1.510100	0.779030	0.503430
C44	C	2.010100	1.279030	1.003430
C45	C	1.510154	0.895807	0.503453
C46	C	2.010154	1.395807	1.003453
C47	C	1.643751	0.895609	0.637226
C48	C	2.143751	1.395609	1.137226
C49	C	1.710575	0.950371	0.704118
C50	C	2.210575	1.450371	1.204118
C51	C	1.710620	1.060092	0.704136
C52	C	2.210620	1.560092	1.204136
C53	C	1.643833	1.115055	0.637258
C54	C	2.143833	1.615055	1.137258
C55	C	1.577010	1.060293	0.570366
C56	C	2.077010	1.560293	1.070366
C57	C	1.576973	0.950569	0.570352
C58	C	2.076973	1.450569	1.070352
C59	C	1.443409	1.060491	0.436600
C60	C	1.943409	1.560491	0.936600
C61	C	1.443367	0.950769	0.436574
C62	C	1.943367	1.450769	0.936574
C63	C	1.376621	1.115453	0.369721
C64	C	1.876621	1.615453	0.869721
C65	C	1.309802	1.060691	0.302822
C66	C	1.809802	1.560691	0.802822
C67	C	1.309759	0.950963	0.302805
C68	C	1.809759	1.450963	0.802805
C69	C	1.376543	0.896007	0.369682
C70	C	1.876543	1.396007	0.869682
C71	C	1.782770	0.506083	0.503477
C72	C	2.282770	1.006083	1.003477
C73	C	1.898923	0.506091	0.503486
C74	C	2.398923	1.006091	1.003486
C75	C	1.510272	0.505962	0.776027
C76	C	2.010272	1.005962	1.276027
C77	C	1.510302	0.505919	0.892180
C78	C	2.010302	1.005919	1.392180
C79	C	1.510290	1.232029	0.503497
C80	C	2.010290	1.732029	1.003497
C81	C	1.510232	1.115252	0.503492
C82	C	2.010232	1.615252	1.003492
C83	C	1.510188	0.506087	0.231947
C84	C	2.010188	1.006087	0.731947
C85	C	1.510360	0.505834	0.115794
C86	C	2.010360	1.005834	0.615794
C87	C	1.446835	0.442043	0.943972
C88	C	1.946835	0.942043	1.443972
C89	C	1.446866	0.441997	1.064022
C90	C	1.946866	0.941997	1.564022
H91	H	0.906254	0.387717	0.621576
H92	H	1.406254	0.887717	1.121576
H93	H	1.765023	1.104679	0.758617
H94	H	2.265023	1.604679	1.258617
H95	H	1.564660	0.560572	0.936716
H96	H	2.064660	1.060572	1.436716
H97	H	1.255424	1.105450	0.248380
H98	H	1.755424	1.605450	0.748380
Cl99	Cl	1.139620	0.357976	0.651165
Cl100	Cl	1.639620	0.857976	1.151165
H101	H	1.376520	0.806666	0.369671
H102	H	1.876520	1.306666	0.869671
H103	H	0.943410	0.560694	0.449015
H104	H	1.443410	1.060694	0.949015
H105	H	1.077955	0.560664	0.448990
H106	H	1.577955	1.060664	0.948990
H107	H	1.643731	0.806268	0.637207
H108	H	2.143731	1.306268	1.137207
H109	H	1.764950	0.905611	0.758572
H110	H	2.264950	1.405611	1.258572
Cl111	Cl	1.376822	1.253389	0.369601
Cl112	Cl	1.876822	1.753389	0.869601
Cl113	Cl	1.362920	0.357646	0.875220
Cl114	Cl	1.862920	0.857646	1.375220
Cl115	Cl	1.644042	1.252991	0.637135
Cl116	Cl	2.144042	1.752991	1.137135
Cl117	Cl	1.225742	0.882128	0.218712
Cl118	Cl	1.725742	1.382128	0.718712
Cl119	Cl	1.362975	0.357556	1.132782
Cl120	Cl	1.862975	0.857556	1.632782
H121	H	1.564703	0.560519	1.071261
H122	H	2.064703	1.060519	1.571261
