data_functionalizedCrystal
_audit_creation_method	'MofGen! by Chris Wilmer'
_symmetry_space_group_name_H-M	'P1'
_symmetry_Int_Tables_number	1
_symmetry_cell_setting	triclinic
loop_
_symmetry_equiv_pos_as_xyz
  x,y,z
_cell_length_a	15.944551
_cell_length_b	15.944551
_cell_length_c	15.021413
_cell_angle_alpha	89.996935
_cell_angle_beta	89.997174
_cell_angle_gamma	96.501262
loop_
_atom_site_label
_atom_site_type_symbol
_atom_site_fract_x
_atom_site_fract_y
_atom_site_fract_z
O1	O	1.114529	-0.108321	-0.073941
O2	O	0.869979	-0.121677	-0.073964
O3	O	0.998932	0.007276	-0.073944
O4	O	0.985576	-0.237274	-0.073961
O5	O	0.998912	0.007257	0.074121
O6	O	0.869959	-0.121695	0.074101
O7	O	1.114508	-0.108339	0.074123
Zn8	Zn	0.992230	-0.115020	0.097620
Zn9	Zn	0.992257	-0.114996	-0.097461
O10	O	0.985555	-0.237292	0.074103
C11	C	0.838675	-0.121132	0.000066
C12	C	0.745429	-0.119470	0.000057
C13	C	0.998367	0.038561	0.000089
C14	C	0.996705	0.131807	0.000089
C15	C	0.530572	-0.035565	0.000081
C16	C	0.469562	-0.074518	-0.072926
C17	C	0.574703	-0.116462	0.000068
C18	C	0.469564	-0.074556	0.073054
C19	C	0.409790	-0.113551	0.000083
C20	C	0.514921	-0.155438	-0.072998
C21	C	0.514930	-0.155464	0.073047
C22	C	0.453937	-0.194476	0.000023
C23	C	0.669705	-0.118137	0.000059
C24	C	0.314789	-0.111883	0.000085
C25	C	1.145813	-0.108885	0.000092
C26	C	1.239059	-0.110547	0.000094
C27	C	0.986120	-0.268577	0.000069
C28	C	0.987782	-0.361823	0.000063
N29	N	0.992218	-0.115036	0.230758
C30	C	0.912801	0.346663	0.000069
C31	C	0.951753	0.407672	0.073077
C32	C	0.993698	0.302533	0.000082
C33	C	0.951792	0.407673	-0.072903
C34	C	0.990787	0.467445	0.000071
C35	C	1.032672	0.362313	0.073150
C36	C	1.032700	0.362308	-0.072895
C37	C	1.071711	0.423298	0.000131
C38	C	0.995372	0.207530	0.000089
C39	C	0.989119	0.562446	0.000070
N40	N	0.992276	-0.114973	-0.230598
C41	C	0.932581	-0.174636	0.470432
C42	C	1.008481	-0.190943	0.529772
C43	C	0.992239	-0.115015	0.412365
C44	C	0.916360	-0.098727	0.529766
C45	C	0.992253	-0.114997	0.587789
C46	C	1.068178	-0.131360	0.470398
C47	C	0.976006	-0.039111	0.470387
C48	C	1.051962	-0.055386	0.529701
C49	C	0.992230	-0.115028	0.311307
C50	C	0.992271	-0.114984	0.688844
H51	H	0.563905	0.031573	-0.000005
C52	C	0.321635	-0.282915	0.000695
C53	C	0.409164	-0.285199	-0.000033
H54	H	0.293995	-0.338923	0.000663
H55	H	0.305422	-0.253967	-0.050668
H56	H	0.306128	-0.254317	0.052595
H57	H	0.424672	-0.313791	-0.051937
H58	H	0.425384	-0.314159	0.051335
C59	C	0.822408	0.395717	-0.156085
C60	C	0.905601	0.434798	-0.156228
H61	H	0.793891	0.412457	-0.207527
H62	H	0.794218	0.412016	-0.104255
H63	H	0.822696	0.336173	-0.156391
H64	H	0.905314	0.494342	-0.155915
H65	H	0.933798	0.418504	-0.208072
C66	C	0.881766	-0.322177	0.465266
C67	C	0.864546	-0.242751	0.435286
H68	H	0.839770	-0.364227	0.443561
H69	H	0.881634	-0.322971	0.528491
H70	H	0.935568	-0.333202	0.444062
H71	H	0.810746	-0.231723	0.456496
H72	H	0.864670	-0.241954	0.372048
H73	H	0.534918	-0.189621	-0.134787
H74	H	1.132368	-0.145206	0.444430
H75	H	1.022224	-0.255126	0.555856
C76	C	0.481482	0.054878	-0.156101
C77	C	0.442415	-0.028320	-0.156238
H78	H	0.464719	0.083402	-0.207530
H79	H	0.541019	0.054603	-0.156432
H80	H	0.465188	0.083058	-0.104253
H81	H	0.458714	-0.056502	-0.208083
H82	H	0.382865	-0.028049	-0.155915
H83	H	1.102474	-0.004956	0.555561
H84	H	0.535052	-0.189659	0.134767
H85	H	0.852184	-0.084959	0.555847
H86	H	1.066851	0.342314	0.134941
C87	C	0.824638	0.214194	-0.000641
C88	C	0.822156	0.301694	0.000146
H89	H	0.768679	0.186433	-0.000597
H90	H	0.853645	0.198017	0.050697
H91	H	0.853264	0.198789	-0.052565
H92	H	0.793536	0.317100	0.052075
H93	H	0.793137	0.317877	-0.051197
C94	C	0.877881	0.064423	0.465050
C95	C	0.957423	0.047503	0.435135
H96	H	0.866401	0.117892	0.443279
H97	H	0.877239	0.064909	0.528275
H98	H	0.836055	0.021948	0.443869
H99	H	0.999250	0.089974	0.456321
H100	H	0.958071	0.047024	0.371897
C101	C	1.204569	0.445190	0.076697
C102	C	1.162434	0.468072	0.000193
H103	H	1.260574	0.472839	0.076739
H104	H	1.206108	0.385816	0.077181
H105	H	1.175606	0.461413	0.128056
H106	H	1.191393	0.451844	-0.051167
H107	H	1.160899	0.527460	-0.000299
H108	H	1.066896	0.342185	-0.134615
H109	H	0.449470	-0.040332	0.134773
H110	H	0.917528	0.427772	0.134794
