data_functionalizedCrystal
_audit_creation_method	'MofGen! by Chris Wilmer'
_symmetry_space_group_name_H-M	'P1'
_symmetry_Int_Tables_number	1
_symmetry_cell_setting	triclinic
loop_
_symmetry_equiv_pos_as_xyz
  x,y,z
_cell_length_a	13.032831
_cell_length_b	12.594516
_cell_length_c	13.032268
_cell_angle_alpha	97.152436
_cell_angle_beta	90.886977
_cell_angle_gamma	82.821304
loop_
_atom_site_label
_atom_site_type_symbol
_atom_site_fract_x
_atom_site_fract_y
_atom_site_fract_z
Zn1	Zn	1.498496	-0.718822	-0.780872
Zn2	Zn	1.520242	-0.877407	-0.608900
Zn3	Zn	1.348353	-0.674358	-0.587111
Zn4	Zn	1.326490	-0.871652	-0.759025
O5	O	1.423395	-0.785560	-0.683977
O6	O	1.645302	-0.760876	-0.776322
O7	O	1.515691	-0.834272	-0.462092
O8	O	1.368319	-0.531320	-0.612838
O9	O	1.661279	-0.877387	-0.649975
O10	O	1.478628	-0.563987	-0.755193
O11	O	1.389406	-0.685093	-0.446084
O12	O	1.201532	-0.679512	-0.591654
O13	O	1.331056	-0.867579	-0.905841
O14	O	1.185469	-0.824463	-0.717958
O15	O	1.457428	-0.755295	-0.921892
O16	O	1.494491	-1.025580	-0.628791
O17	O	1.352143	-1.021351	-0.739087
C18	C	1.156183	-0.746539	-0.650071
C19	C	1.041866	-0.729875	-0.635591
C20	C	0.982991	-0.794257	-0.691535
C21	C	0.864838	-0.777035	-0.676569
C22	C	1.423329	-1.062090	-0.683958
C23	C	1.423391	-1.180408	-0.683997
C24	C	1.345967	-1.247394	-0.743938
C25	C	1.332833	-1.304009	-0.646920
C26	C	1.436617	-1.334607	-0.781043
C27	C	1.410213	-1.235453	-0.586923
C28	C	1.514033	-1.266057	-0.721115
C29	C	1.500943	-1.322639	-0.624037
C30	C	1.691651	-0.824733	-0.718016
C31	C	1.805965	-0.841426	-0.732521
C32	C	1.389378	-0.815755	-0.952226
C33	C	1.374882	-0.828622	-1.066537
C34	C	1.423487	-0.507956	-0.684022
C35	C	1.423526	-0.389658	-0.684041
C36	C	1.430945	-0.778803	-1.125443
C37	C	1.415964	-0.792101	-1.243590
C38	C	1.457340	-0.755414	-0.416779
C39	C	1.472035	-0.742276	-0.302494
H40	H	1.020059	-0.862124	-0.750512
H41	H	1.256241	-1.321250	-0.615556
H42	H	1.398991	-1.192486	-0.504836
H43	H	1.566484	-1.355404	-0.573298
H44	H	1.590601	-1.248822	-0.752521
C45	C	1.258455	-1.203599	-0.811401
C46	C	1.203543	-1.287751	-0.852662
C47	C	1.122911	-1.247444	-0.914797
H48	H	1.286197	-1.172719	-0.866099
H49	H	1.213251	-1.150062	-0.770851
H50	H	1.248739	-1.341270	-0.893210
H51	H	1.175777	-1.318640	-0.797988
H52	H	1.077708	-1.193907	-0.874247
H53	H	1.150663	-1.216564	-0.969489
H54	H	1.085638	-1.304533	-0.942792
C55	C	0.815460	-0.686379	-0.598059
C56	C	0.838647	-0.587410	-0.623908
C57	C	0.793163	-0.503878	-0.551617
H58	H	0.841722	-0.696453	-0.531096
H59	H	0.742605	-0.686766	-0.598465
H60	H	0.911487	-0.587024	-0.623492
H61	H	0.812384	-0.577301	-0.690859
H62	H	0.720308	-0.504265	-0.552023
H63	H	0.819428	-0.513962	-0.484658
H64	H	0.808881	-0.436717	-0.569151
H65	H	1.004798	-0.662001	-0.576621
C66	C	1.509889	-0.708903	-1.076225
C67	C	1.608355	-0.749836	-1.115211
C68	C	1.681103	-0.685462	-1.069911
H69	H	1.509630	-0.709217	-1.003381
H70	H	1.492710	-0.637150	-1.091914
H71	H	1.625529	-0.821569	-1.099514
H72	H	1.608647	-0.749518	-1.188050
H73	H	1.663924	-0.613709	-1.085599
H74	H	1.680835	-0.685781	-0.997068
H75	H	1.747919	-0.713220	-1.096362
H76	H	1.531123	-0.689768	-1.265462
C77	C	1.451410	-1.392242	-0.890382
C78	C	1.452193	-1.503299	-0.888841
C79	C	1.465795	-1.556420	-0.989547
H80	H	1.515220	-1.378734	-0.917244
H81	H	1.396278	-1.366458	-0.932879
H82	H	1.507321	-1.529075	-0.846360
H83	H	1.388390	-1.516839	-0.861999
H84	H	1.410663	-1.530636	-1.032043
H85	H	1.529605	-1.542904	-1.016400
H86	H	1.466319	-1.631776	-0.988515
C87	C	0.855571	-0.931903	-0.811080
C88	C	0.962902	-0.931022	-0.810286
C89	C	1.008634	-1.014358	-0.882631
H90	H	0.829382	-0.921768	-0.878056
H91	H	0.839989	-0.999177	-0.793703
H92	H	0.978477	-0.863765	-0.827669
H93	H	0.989121	-0.941171	-0.743328
H94	H	0.993051	-1.081631	-0.865254
H95	H	0.982437	-1.004215	-0.949601
H96	H	1.081463	-1.013777	-0.882095
C97	C	1.337261	-0.862108	-1.293158
C98	C	1.338076	-0.861413	-1.400491
C99	C	1.265602	-0.925903	-1.446190
H100	H	1.270314	-0.834561	-1.266958
H101	H	1.354508	-0.933885	-1.277562
H102	H	1.320822	-0.789650	-1.416079
H103	H	1.405005	-0.888969	-1.426720
H104	H	1.282849	-0.997680	-1.430594
H105	H	1.198661	-0.898350	-1.419982
H106	H	1.266152	-0.925447	-1.519020
C107	C	1.296166	-0.898792	-1.115784
C108	C	1.321795	-1.004448	-1.092529
C109	C	1.249296	-1.069118	-1.137862
H110	H	1.296499	-0.898565	-1.188638
H111	H	1.229264	-0.871223	-1.089437
H112	H	1.388679	-1.032010	-1.118881
H113	H	1.321454	-1.004709	-1.019684
H114	H	1.182395	-1.041549	-1.111515
H115	H	1.249635	-1.068881	-1.210714
H116	H	1.266670	-1.140810	-1.122082
