data_functionalizedCrystal
_audit_creation_method	'MofGen! by Chris Wilmer'
_symmetry_space_group_name_H-M	'P1'
_symmetry_Int_Tables_number	1
_symmetry_cell_setting	triclinic
loop_
_symmetry_equiv_pos_as_xyz
  x,y,z
_cell_length_a	12.827893
_cell_length_b	18.050589
_cell_length_c	12.827893
_cell_angle_alpha	89.993168
_cell_angle_beta	90.003786
_cell_angle_gamma	89.965332
loop_
_atom_site_label
_atom_site_type_symbol
_atom_site_fract_x
_atom_site_fract_y
_atom_site_fract_z
Zn1	Zn	1.597370	0.295789	0.590851
Zn2	Zn	1.597252	0.419948	0.416113
Zn3	Zn	1.422658	0.295777	0.416125
Zn4	Zn	1.422537	0.419942	0.590813
O5	O	1.509954	0.357864	0.503476
O6	O	1.743590	0.312267	0.567683
O7	O	1.574093	0.403474	0.269879
O8	O	1.445934	0.191854	0.439324
O9	O	1.743504	0.403486	0.439304
O10	O	1.574294	0.191863	0.567695
O11	O	1.445820	0.312246	0.269887
O12	O	1.276406	0.312239	0.439287
O13	O	1.445728	0.403475	0.737054
O14	O	1.276317	0.403463	0.567629
O15	O	1.574176	0.312261	0.737082
O16	O	1.573976	0.523872	0.439266
O17	O	1.445614	0.523867	0.567617
C18	C	1.238444	0.357850	0.503456
C19	C	1.122291	0.357861	0.503472
C20	C	1.509797	0.550816	0.503459
C21	C	1.509826	0.633362	0.503487
C22	C	1.070490	0.403072	0.566882
C23	C	0.950440	0.403085	0.566900
C24	C	1.440060	0.832837	0.573261
C25	C	1.414601	0.882258	0.477904
C26	C	1.509905	0.784492	0.503501
C27	C	1.535391	0.882153	0.598870
C28	C	1.509979	0.930477	0.503524
C29	C	1.484396	0.832826	0.408094
C30	C	1.605231	0.832717	0.529124
C31	C	1.579808	0.882115	0.433702
C32	C	1.509859	0.700394	0.503490
C33	C	1.510024	1.014574	0.503524
C34	C	1.782524	0.357879	0.503496
C35	C	1.898678	0.357885	0.503505
C36	C	1.509952	0.357869	0.776046
C37	C	1.509951	0.357871	0.892199
C38	C	1.510100	1.164158	0.503516
C39	C	1.510060	1.081613	0.503537
C40	C	1.573504	0.312741	0.943997
C41	C	1.573504	0.312742	1.064048
C42	C	1.509949	0.357876	1.231966
C43	C	1.509950	0.357874	1.115813
H44	H	1.115018	0.441766	0.621160
Cl45	Cl	1.425943	0.417537	1.047050
Cl46	Cl	1.729611	0.799094	0.562623
Cl47	Cl	0.881668	0.462853	0.650715
H48	H	0.943218	0.319179	0.449211
H49	H	1.627918	0.274107	1.108593
H50	H	1.077763	0.319162	0.449202
H51	H	1.638906	0.903617	0.374650
H52	H	1.380917	0.811198	0.632171
H53	H	1.334022	0.904035	0.456253
H54	H	1.462775	0.811248	0.327429
H55	H	1.556919	0.903820	0.679513
Cl56	Cl	1.425935	0.417525	0.960941
H57	H	1.627910	0.274100	0.899467
