data_functionalizedCrystal
_audit_creation_method	'MofGen! by Chris Wilmer'
_symmetry_space_group_name_H-M	'P1'
_symmetry_Int_Tables_number	1
_symmetry_cell_setting	triclinic
loop_
_symmetry_equiv_pos_as_xyz
  x,y,z
_cell_length_a	27.731994
_cell_length_b	14.519731
_cell_length_c	13.596369
_cell_angle_alpha	89.993029
_cell_angle_beta	90.000755
_cell_angle_gamma	83.154694
loop_
_atom_site_label
_atom_site_type_symbol
_atom_site_fract_x
_atom_site_fract_y
_atom_site_fract_z
O1	O	0.641473	0.109493	-0.081653
O2	O	0.500756	0.126230	-0.081686
O3	O	0.574840	-0.016441	-0.081660
O4	O	0.567389	0.252165	-0.081680
O5	O	0.574832	-0.016449	0.081923
O6	O	0.500749	0.126223	0.081896
O7	O	0.641465	0.109486	0.081929
Zn8	Zn	0.571106	0.117853	0.107885
Zn9	Zn	0.571115	0.117863	-0.107642
O10	O	0.567381	0.252158	0.081903
C11	C	0.482743	0.125883	0.000101
C12	C	0.429082	0.124848	0.000089
C13	C	0.574487	-0.050798	0.000131
C14	C	0.573441	-0.153160	0.000132
C15	C	0.572591	-0.236289	0.000129
C16	C	0.571529	-0.340579	0.000122
C17	C	0.570686	-0.423703	0.000115
C18	C	0.569623	-0.528000	0.000109
C19	C	0.096328	0.118328	0.089296
C20	C	-0.105349	0.114395	0.089307
O21	O	-0.131428	0.113843	0.165142
N22	N	-0.130562	0.113910	0.000139
C23	C	-0.105353	0.114403	-0.089040
O24	O	-0.131425	0.113891	-0.164883
C25	C	0.096324	0.118330	-0.089050
C26	C	0.121534	0.118823	0.000125
C27	C	0.121538	0.118821	0.178464
C28	C	0.171954	0.119809	0.178460
C29	C	0.197160	0.120304	0.089288
C30	C	0.171950	0.119812	0.000121
C31	C	0.121533	0.118816	-0.178227
C32	C	0.171956	0.119795	-0.178222
C33	C	0.197166	0.120289	-0.089047
C34	C	0.247572	0.121295	-0.089054
N35	N	0.272785	0.121780	0.000115
C36	C	0.247579	0.121284	0.089286
C37	C	-0.211236	0.112343	-0.089028
C38	C	-0.261655	0.111363	-0.089025
C39	C	-0.261648	0.111353	0.089322
C40	C	-0.211228	0.112340	0.089319
C41	C	-0.186023	0.112828	0.000141
C42	C	0.353456	0.123361	0.089272
C43	C	0.403876	0.124353	0.089260
C44	C	0.403865	0.124358	-0.089087
C45	C	0.353449	0.123371	-0.089076
C46	C	0.328246	0.122869	0.000111
O47	O	0.273682	0.121837	-0.164849
O48	O	0.273661	0.121776	0.165118
C49	C	0.045912	0.117340	0.089300
C50	C	0.020702	0.116847	0.000132
C51	C	0.045908	0.117342	-0.089039
C52	C	-0.029717	0.115867	0.000135
C53	C	-0.054923	0.115371	0.089306
C54	C	-0.029710	0.115856	0.178475
C55	C	0.020706	0.116844	0.178471
C56	C	0.020695	0.116858	-0.178208
C57	C	-0.029721	0.115871	-0.178197
C58	C	-0.054927	0.115375	-0.089026
C59	C	0.659478	0.109833	0.000140
C60	C	0.713139	0.110868	0.000146
C61	C	0.567734	0.286515	0.000109
C62	C	0.568780	0.388876	0.000103
N63	N	0.571103	0.117846	0.254977
N64	N	0.571122	0.117863	-0.254734
C65	C	0.571115	0.117864	0.656268
C66	C	0.571110	0.117862	0.544617
C67	C	0.571109	0.117856	0.455626
C68	C	0.571104	0.117852	0.343968
H69	H	0.424400	0.124758	0.161880
H70	H	0.192476	0.120205	0.251075
N71	N	0.046440	0.117375	-0.269295
N72	N	0.070172	0.182955	-0.289207
H73	H	0.088355	0.183321	-0.353542
N74	N	-0.287397	0.110880	-0.180124
N75	N	-0.264880	0.111323	-0.259730
H76	H	-0.283058	0.110978	-0.324073
N77	N	-0.055478	0.115374	-0.269284
N78	N	-0.088016	0.179847	-0.289197
H79	H	-0.106206	0.179490	-0.353525
N80	N	0.327724	0.122845	0.180381
N81	N	0.350247	0.123285	0.259982
H82	H	0.332075	0.122925	0.324329
H83	H	-0.050241	0.115457	0.251081
N84	N	0.095797	0.118318	-0.269328
N85	N	0.118319	0.118756	-0.348929
H86	H	0.100144	0.118405	-0.413276
H87	H	0.041228	0.117246	0.251086
N88	N	0.095804	0.118308	0.269567
N89	N	0.118329	0.118745	0.349166
H90	H	0.100157	0.118389	0.413514
N91	N	0.327687	0.122883	-0.180156
N92	N	0.295148	0.187357	-0.200059
H93	H	0.276957	0.187006	-0.264387
H94	H	-0.190706	0.112743	0.161933
H95	H	-0.282179	0.110952	0.161929
N96	N	-0.185500	0.112840	-0.180136
N97	N	-0.208024	0.112408	-0.259737
H98	H	-0.189850	0.112761	-0.324084
H99	H	0.424396	0.124765	-0.161688
N100	N	0.197695	0.120286	-0.269326
N101	N	0.175176	0.119842	-0.348932
H102	H	0.193353	0.120189	-0.413275
