data_functionalizedCrystal
_audit_creation_method	'MofGen! by Chris Wilmer'
_symmetry_space_group_name_H-M	'P1'
_symmetry_Int_Tables_number	1
_symmetry_cell_setting	triclinic
loop_
_symmetry_equiv_pos_as_xyz
  x,y,z
_cell_length_a	12.594517
_cell_length_b	12.594516
_cell_length_c	12.594509
_cell_angle_alpha	89.973801
_cell_angle_beta	89.978673
_cell_angle_gamma	90.015853
loop_
_atom_site_label
_atom_site_type_symbol
_atom_site_fract_x
_atom_site_fract_y
_atom_site_fract_z
Zn1	Zn	1.627267	-0.423716	-0.601875
Zn2	Zn	1.627158	-0.601726	-0.423903
Zn3	Zn	1.449271	-0.423761	-0.423904
Zn4	Zn	1.449253	-0.601652	-0.601833
O5	O	1.538237	-0.512714	-0.512879
O6	O	1.776198	-0.447341	-0.578284
O7	O	1.603522	-0.578169	-0.274957
O8	O	1.472936	-0.274809	-0.447530
O9	O	1.776118	-0.578124	-0.447528
O10	O	1.603709	-0.274776	-0.578285
O11	O	1.472830	-0.447419	-0.274958
O12	O	1.300323	-0.447347	-0.447489
O13	O	1.472905	-0.577998	-0.750784
O14	O	1.300310	-0.578042	-0.578213
O15	O	1.603691	-0.447269	-0.750815
O16	O	1.603505	-0.750662	-0.447488
O17	O	1.472799	-0.750608	-0.578212
C18	C	1.261696	-0.512692	-0.512847
C19	C	1.143391	-0.512709	-0.512859
C20	C	1.074114	-0.441526	-0.441894
C21	C	1.003303	-0.538615	-0.415718
C22	C	1.003403	-0.415668	-0.539054
C23	C	1.074138	-0.609849	-0.486632
C24	C	1.074244	-0.486836	-0.610013
C25	C	1.003465	-0.583991	-0.583874
C26	C	1.538167	-0.789255	-0.512868
C27	C	1.538235	-0.907560	-0.512899
C28	C	1.467137	-0.976822	-0.583950
C29	C	1.441204	-1.047688	-0.486827
C30	C	1.564265	-1.047494	-0.610039
C31	C	1.512250	-0.976867	-0.415725
C32	C	1.635357	-0.976667	-0.539002
C33	C	1.609460	-1.047500	-0.441812
C34	C	1.815858	-0.512736	-0.512911
C35	C	1.934163	-0.512745	-0.512924
C36	C	1.538308	-0.512620	-0.790500
C37	C	1.538339	-0.512581	-0.908805
C38	C	1.538336	-0.235093	-0.512912
C39	C	1.538378	-0.116787	-0.512927
C40	C	1.467227	-0.583644	-0.978042
C41	C	1.564347	-0.609650	-1.048833
C42	C	1.441294	-0.486510	-1.048813
C43	C	1.635510	-0.538638	-0.978038
C44	C	1.512391	-0.415453	-0.978012
C45	C	1.609579	-0.441422	-1.048772
C46	C	1.538227	-0.512730	-0.236338
C47	C	1.538403	-0.512470	-0.118033
H48	H	1.105080	-0.691955	-0.464413
H49	H	1.717631	-0.560736	-0.947080
O50	O	1.486325	-0.317518	-0.940812
C51	C	1.570703	-0.277307	-0.879236
H52	H	1.647810	-0.318058	-0.903433
H53	H	1.578182	-0.188127	-0.892861
H54	H	1.554349	-0.293219	-0.791627
O55	O	1.111079	-0.369901	-0.370073
C56	C	1.074903	-0.397589	-0.267784
H57	H	1.055041	-0.485878	-0.265633
H58	H	1.139599	-0.379746	-0.207072
H59	H	1.000819	-0.349533	-0.247933
O60	O	1.343276	-0.460376	-1.085778
C61	C	1.268534	-0.535586	-1.049762
H62	H	1.300031	-0.576170	-0.975237
H63	H	1.190516	-0.493862	-1.030682
H64	H	1.254615	-0.597541	-1.114242
O65	O	1.590745	-0.707511	-1.086013
C66	C	1.683966	-0.700128	-1.147600
H67	H	1.730358	-0.626264	-1.123428
H68	H	1.735000	-0.773619	-1.133962
H69	H	1.661921	-0.694530	-1.235209
O70	O	0.965992	-0.564557	-0.317735
C71	C	0.902876	-0.480852	-0.278516
H72	H	0.871901	-0.431438	-0.347744
H73	H	0.833017	-0.514931	-0.232077
H74	H	0.952671	-0.428501	-0.224015
H75	H	1.669813	-0.381279	-1.079632
H76	H	0.972639	-0.644273	-0.643914
H77	H	1.359136	-1.078906	-0.464772
O78	O	1.395353	-0.939918	-0.655661
C79	C	1.421893	-0.977427	-0.757735
H80	H	1.471998	-1.052419	-0.750210
H81	H	1.346160	-0.996224	-0.803579
H82	H	1.468980	-0.913970	-0.801956
H83	H	1.490197	-0.945972	-0.333563
H84	H	1.105429	-0.464899	-0.692122
O85	O	1.681143	-1.084251	-0.369923
C86	C	1.653395	-1.048048	-0.267697
H87	H	1.565075	-1.028372	-0.265589
H88	H	1.671337	-1.112656	-0.206876
H89	H	1.701333	-0.973845	-0.247964
H90	H	1.586224	-1.078518	-0.692178
O91	O	0.966460	-0.317667	-0.565337
C92	C	1.002434	-0.242865	-0.490255
H93	H	1.076931	-0.274339	-0.449635
H94	H	1.021545	-0.164887	-0.532108
H95	H	0.937916	-0.228881	-0.428309
H96	H	1.407136	-0.643833	-0.946986
O97	O	1.733207	-0.939466	-0.565552
C98	C	1.760281	-0.975407	-0.668050
H99	H	1.684845	-0.995335	-0.713903
H100	H	1.805918	-0.910544	-0.711741
H101	H	1.811973	-1.049403	-0.661390
