data_functionalizedCrystal
_audit_creation_method	'MofGen! by Chris Wilmer'
_symmetry_space_group_name_H-M	'P1'
_symmetry_Int_Tables_number	1
_symmetry_cell_setting	triclinic
loop_
_symmetry_equiv_pos_as_xyz
  x,y,z
_cell_length_a	16.956984
_cell_length_b	22.010155
_cell_length_c	16.974813
_cell_angle_alpha	93.650313
_cell_angle_beta	79.731954
_cell_angle_gamma	90.008306
loop_
_atom_site_label
_atom_site_type_symbol
_atom_site_fract_x
_atom_site_fract_y
_atom_site_fract_z
O1	O	1.058010	0.052138	0.032751
O2	O	1.558010	0.552138	0.532751
O3	O	0.825822	0.053503	0.060514
O4	O	1.325822	0.553503	0.560514
O5	O	0.948388	0.047138	-0.068893
O6	O	1.448388	0.547138	0.431107
O7	O	0.935444	0.058504	0.162158
O8	O	1.435444	0.558504	0.662158
O9	O	0.948365	-0.053912	-0.068873
O10	O	1.448365	0.446088	0.431127
O11	O	0.825799	-0.047546	0.060533
O12	O	1.325799	0.452454	0.560533
O13	O	1.057987	-0.048911	0.032771
O14	O	1.557987	0.451089	0.532771
Cu15	Cu	0.941891	-0.057455	0.046654
Cu16	Cu	1.441891	0.442545	0.546654
Cu17	Cu	0.941918	0.062047	0.046631
Cu18	Cu	1.441918	0.562047	0.546631
O19	O	0.935421	-0.042546	0.162178
O20	O	1.435421	0.457454	0.662178
C21	C	0.796101	0.003049	0.061945
C22	C	1.296101	0.503049	0.561945
C23	C	0.707576	0.003256	0.066172
C24	C	1.207576	0.503256	0.566172
N25	N	0.941879	-0.141507	0.046669
N26	N	1.441879	0.358493	0.546669
C27	C	0.675568	-0.000221	-0.004496
C28	C	1.175568	0.499779	0.495504
C29	C	0.592389	-0.000021	-0.000520
C30	C	1.092389	0.499979	0.499480
C31	C	0.541218	0.003652	0.074125
C32	C	1.041218	0.503652	0.574125
C33	C	0.573230	0.007132	0.144798
C34	C	1.073230	0.507132	0.644798
C35	C	0.656408	0.006936	0.140821
C36	C	1.156408	0.506936	0.640821
C37	C	0.291424	0.004625	0.093809
C38	C	0.791424	0.504625	0.593809
C39	C	0.208241	0.004818	0.097781
C40	C	0.708241	0.504818	0.597781
C41	C	0.227405	-0.002333	-0.047537
C42	C	0.727405	0.497667	0.452463
C43	C	0.310584	-0.002532	-0.051508
C44	C	0.810584	0.497468	0.448492
C45	C	0.342589	0.000950	0.019165
C46	C	0.842589	0.500950	0.519165
N47	N	0.456195	0.003855	0.078191
N48	N	0.956195	0.503855	0.578191
N49	N	0.427611	0.000752	0.015099
N50	N	0.927611	0.500752	0.515099
C51	C	0.996193	-0.564107	-0.010663
C52	C	1.496193	-0.064107	0.489337
C53	C	0.996197	-0.627715	-0.010669
C54	C	1.496197	-0.127715	0.489331
O55	O	1.042345	-0.663003	-0.059403
O56	O	1.542345	-0.163003	0.440597
N57	N	0.941917	-0.656717	0.046614
N58	N	1.441917	-0.156717	0.546614
C59	C	0.887625	-0.622108	0.103902
C60	C	1.387625	-0.122108	0.603902
O61	O	0.841456	-0.652617	0.152624
O62	O	1.341456	-0.152617	0.652624
C63	C	0.887618	-0.558502	0.103903
C64	C	1.387618	-0.058502	0.603903
C65	C	0.941907	-0.529503	0.046621
C66	C	1.441907	-0.029503	0.546621
C67	C	1.050477	-0.535107	-0.067941
C68	C	1.550477	-0.035107	0.432059
C69	C	1.050474	-0.471504	-0.067934
C70	C	1.550474	0.028496	0.432066
C71	C	0.996187	-0.436900	-0.010649
C72	C	1.496187	0.063100	0.489351
C73	C	0.941904	-0.465899	0.046628
C74	C	1.441904	0.034101	0.546628
C75	C	0.833323	-0.523894	0.161186
C76	C	1.333323	-0.023894	0.661186
C77	C	0.833320	-0.460283	0.161182
C78	C	1.333320	0.039717	0.661182
C79	C	0.887609	-0.431284	0.103901
C80	C	1.387609	0.068716	0.603901
C81	C	0.887614	-0.367691	0.103919
C82	C	1.387614	0.132309	0.603919
N83	N	0.941894	-0.338689	0.046636
N84	N	1.441894	0.161311	0.546636
C85	C	0.996180	-0.373293	-0.010648
C86	C	1.496180	0.126707	0.489352
C87	C	0.887643	-0.755686	0.103893
C88	C	1.387643	-0.255686	0.603893
C89	C	0.887653	-0.819291	0.103896
C90	C	1.387653	-0.319291	0.603896
C91	C	0.996224	-0.824894	-0.010675
C92	C	1.496224	-0.324894	0.489325
C93	C	0.996217	-0.761287	-0.010674
C94	C	1.496217	-0.261287	0.489326
C95	C	0.941922	-0.726684	0.046610
C96	C	1.441922	-0.226684	0.546610
C97	C	0.996171	-0.239721	-0.010629
C98	C	1.496171	0.260279	0.489371
C99	C	0.996165	-0.176111	-0.010615
C100	C	1.496165	0.323889	0.489385
C101	C	0.887592	-0.170515	0.103953
C102	C	1.387592	0.329485	0.603953
C103	C	0.887600	-0.234119	0.103943
C104	C	1.387600	0.265881	0.603943
C105	C	0.941892	-0.268720	0.046645
C106	C	1.441892	0.231280	0.546645
O107	O	0.841488	-0.332363	0.152626
O108	O	1.341488	0.167637	0.652626
O109	O	1.042335	-0.342776	-0.059369
O110	O	1.542335	0.157224	0.440631
C111	C	1.087708	0.001545	0.031340
C112	C	1.587708	0.501545	0.531340
C113	C	1.176233	0.001341	0.027113
C114	C	1.676233	0.501341	0.527113
C115	C	0.947884	-0.004833	-0.098309
C116	C	1.447884	0.495167	0.401691
C117	C	0.946406	-0.009143	-0.185988
C118	C	1.446406	0.490857	0.314012
N119	N	0.941937	0.146099	0.046609
N120	N	1.441937	0.646099	0.546609
C121	C	0.945726	0.043914	-0.227186
C122	C	1.445726	0.543914	0.272814
C123	C	0.944333	0.039863	-0.309570
C124	C	1.444333	0.539863	0.190430
C125	C	0.943625	-0.017245	-0.350754
C126	C	1.443625	0.482755	0.149246
C127	C	0.944303	-0.070306	-0.309549
C128	C	1.444303	0.429694	0.190451
C129	C	0.945691	-0.066255	-0.227167
C130	C	1.445691	0.433745	0.272833
C131	C	0.939468	-0.035269	-0.597140
C132	C	1.439468	0.464731	-0.097140
C133	C	0.938083	-0.039317	-0.679529
C134	C	1.438083	0.460683	-0.179529
C135	C	0.938111	0.070853	-0.679543
C136	C	1.438111	0.570853	-0.179543
C137	C	0.939504	0.074900	-0.597160
C138	C	1.439504	0.574900	-0.097160
C139	C	0.940177	0.021839	-0.555961
C140	C	1.440177	0.521839	-0.055961
N141	N	0.942203	-0.021388	-0.434963
N142	N	1.442203	0.478612	0.065037
N143	N	0.941593	0.025982	-0.471753
N144	N	1.441593	0.525982	0.028247
C145	C	0.935925	0.009427	0.191594
C146	C	1.435925	0.509427	0.691594
C147	C	0.937403	0.013740	0.279273
C148	C	1.437403	0.513740	0.779273
H149	H	0.717227	-0.003215	-0.065280
H150	H	1.217227	0.496785	0.434720
C151	C	0.773611	-0.555779	0.224203
C152	C	1.273611	-0.055779	0.724203
H153	H	0.741281	-0.526052	0.258311
H154	H	1.241281	-0.026052	0.758311
H155	H	0.802259	-0.579060	0.255265
H156	H	1.302259	-0.079060	0.755265
H157	H	0.740442	-0.581888	0.197912
H158	H	1.240442	-0.081888	0.697912
H159	H	0.843454	-0.842897	0.150548
H160	H	1.343454	-0.342897	0.650548
C161	C	0.943528	-0.133125	-0.354851
C162	C	1.443528	0.366875	0.145149
H163	H	0.942613	-0.127940	-0.409817
H164	H	1.442613	0.372060	0.090183
H165	H	0.897270	-0.154650	-0.332281
H166	H	1.397270	0.345350	0.167719
H167	H	0.990238	-0.155537	-0.350411
H168	H	1.490238	0.344463	0.149589
C169	C	0.366866	-0.006573	-0.133617
C170	C	0.866866	0.493427	0.366383
H171	H	0.335890	-0.008612	-0.175136
H172	H	0.835890	0.491388	0.324864
H173	H	0.399703	-0.042037	-0.138178
H174	H	0.899703	0.457963	0.361822
H175	H	0.399721	0.028444	-0.138197
H176	H	0.899721	0.528444	0.361803
C177	C	0.516948	0.011176	0.226907
C178	C	1.016948	0.511176	0.726907
H179	H	0.547926	0.013226	0.268425
H180	H	1.047926	0.513226	0.768425
H181	H	0.484092	-0.023836	0.231491
H182	H	0.984092	0.476164	0.731491
H183	H	0.484113	0.046645	0.231467
H184	H	0.984113	0.546645	0.731467
C185	C	0.946441	-0.124617	-0.181849
C186	C	1.446441	0.375383	0.318151
H187	H	0.945828	-0.159210	-0.218176
H188	H	1.445828	0.340790	0.281824
H189	H	0.900501	-0.124880	-0.140644
H190	H	1.400501	0.375120	0.359356
H191	H	0.993468	-0.125773	-0.158780
H192	H	1.493468	0.374227	0.341220
H193	H	0.166578	0.007807	0.158569
H194	H	0.666578	0.507807	0.658569
H195	H	0.566333	-0.002852	-0.058065
H196	H	1.066333	0.497148	0.441935
H197	H	0.946307	0.090418	-0.193661
H198	H	1.446307	0.590418	0.306339
H199	H	0.201337	-0.005162	-0.105075
H200	H	0.701337	0.494838	0.394925
C201	C	0.326620	0.008444	0.171546
C202	C	0.826620	0.508444	0.671546
H203	H	0.284229	0.010651	0.216569
H204	H	0.784229	0.510651	0.716569
H205	H	0.358678	0.043753	0.173018
H206	H	0.858678	0.543753	0.673018
H207	H	0.358659	-0.026728	0.173019
H208	H	0.858659	0.473272	0.673019
C209	C	0.773598	-0.422223	0.224200
C210	C	1.273598	0.077777	0.724200
H211	H	0.741275	-0.448608	0.258314
H212	H	1.241275	0.051392	0.758314
H213	H	0.740435	-0.398703	0.197910
H214	H	1.240435	0.101297	0.697910
H215	H	0.802248	-0.395885	0.255267
H216	H	1.302248	0.104115	0.755267
C217	C	0.691616	0.010760	0.218555
C218	C	1.191616	0.510760	0.718555
H219	H	0.649229	0.012971	0.263581
H220	H	1.149229	0.512971	0.763581
H221	H	0.723673	0.046071	0.220016
H222	H	1.223673	0.546071	0.720016
H223	H	0.723658	-0.024410	0.220032
H224	H	1.223658	0.475590	0.720032
C225	C	0.827876	-0.132443	0.166956
C226	C	1.327876	0.367557	0.666956
H227	H	0.835647	-0.090409	0.158744
H228	H	1.335647	0.409591	0.658744
H229	H	0.836463	-0.140297	0.219176
H230	H	1.336463	0.359703	0.719176
H231	H	0.774667	-0.143127	0.161801
H232	H	1.274667	0.356873	0.661801
H233	H	1.094678	-0.447897	-0.114579
H234	H	1.594678	0.052103	0.385421
H235	H	0.943782	0.083068	-0.343110
H236	H	1.443782	0.583068	0.156890
H237	H	0.940081	0.121404	-0.563633
H238	H	1.440081	0.621404	-0.063633
C239	C	1.055936	-0.862964	-0.073693
C240	C	1.555936	-0.362964	0.426307
H241	H	1.088271	-0.836587	-0.107808
H242	H	1.588271	-0.336587	0.392192
H243	H	1.027286	-0.889306	-0.104749
H244	H	1.527286	-0.389306	0.395251
H245	H	1.089100	-0.886481	-0.047393
H246	H	1.589100	-0.386481	0.452607
H247	H	0.937561	0.114052	-0.713095
H248	H	1.437561	0.614052	-0.213095
C249	C	1.055881	-0.144216	-0.073630
C250	C	1.555881	0.355784	0.426370
H251	H	1.088205	-0.173939	-0.107752
H252	H	1.588205	0.326061	0.392248
H253	H	1.089044	-0.118108	-0.047337
H254	H	1.589044	0.381892	0.452663
H255	H	1.027227	-0.120932	-0.104690
H256	H	1.527227	0.379068	0.395310
C257	C	0.937296	-0.102139	-0.724829
C258	C	1.437296	0.397861	-0.224829
H259	H	0.937887	-0.133160	-0.688493
H260	H	1.437887	0.366840	-0.188493
H261	H	0.983234	-0.106459	-0.766033
H262	H	1.483234	0.393541	-0.266033
H263	H	0.890267	-0.105556	-0.747897
H264	H	1.390267	0.394444	-0.247897
C265	C	1.055894	-0.277774	-0.073652
C266	C	1.555894	0.222226	0.426348
H267	H	1.088223	-0.251385	-0.107755
H268	H	1.588223	0.248615	0.392245
H269	H	1.027256	-0.304116	-0.104720
H270	H	1.527256	0.195884	0.395280
H271	H	1.089062	-0.301290	-0.047355
H272	H	1.589062	0.198710	0.452645
C273	C	1.110201	-0.573163	-0.130955
C274	C	1.610201	-0.073163	0.369045
H275	H	1.142528	-0.546773	-0.165058
H276	H	1.642528	-0.046773	0.334942
H277	H	1.081569	-0.599509	-0.162023
H278	H	1.581569	-0.099509	0.337977
H279	H	1.143371	-0.596674	-0.104655
H280	H	1.643371	-0.096674	0.395345
C281	C	0.940208	-0.093632	-0.551828
C282	C	1.440208	0.406368	-0.051828
H283	H	0.941125	-0.083044	-0.496863
H284	H	1.441125	0.416956	0.003137
H285	H	0.986454	-0.117379	-0.574390
H286	H	1.486454	0.382621	-0.074390
H287	H	0.893487	-0.116478	-0.556264
H288	H	1.393487	0.383522	-0.056264
C289	C	1.055927	-0.729394	-0.073688
C290	C	1.555927	-0.229394	0.426312
H291	H	1.088253	-0.759118	-0.107805
H292	H	1.588253	-0.259118	0.392195
H293	H	1.089088	-0.703282	-0.047398
H294	H	1.589088	-0.203282	0.452602
H295	H	1.027273	-0.706115	-0.104753
H296	H	1.527273	-0.206115	0.395247
H297	H	0.843401	-0.257730	0.150594
H298	H	1.343401	0.242270	0.650594
H299	H	0.843431	-0.727515	0.150547
H300	H	1.343431	-0.227515	0.650547
