data_functionalizedCrystal
_audit_creation_method	'MofGen! by Chris Wilmer'
_symmetry_space_group_name_H-M	'P1'
_symmetry_Int_Tables_number	1
_symmetry_cell_setting	triclinic
loop_
_symmetry_equiv_pos_as_xyz
  x,y,z
_cell_length_a	19.188930
_cell_length_b	14.044220
_cell_length_c	12.503572
_cell_angle_alpha	86.156832
_cell_angle_beta	93.520160
_cell_angle_gamma	88.166828
loop_
_atom_site_label
_atom_site_type_symbol
_atom_site_fract_x
_atom_site_fract_y
_atom_site_fract_z
O1	O	-0.937478	-0.112788	-0.089673
O2	O	-0.687478	0.137212	0.160327
O3	O	-0.437478	0.387212	0.410327
O4	O	-0.187478	0.637212	0.660327
O5	O	-0.735191	-0.128718	-0.089600
O6	O	-0.485191	0.121282	0.160400
O7	O	-0.235191	0.371282	0.410400
O8	O	0.014809	0.621282	0.660400
O9	O	-0.833298	0.017218	-0.089625
O10	O	-0.583298	0.267218	0.160375
O11	O	-0.333298	0.517218	0.410375
O12	O	-0.083298	0.767218	0.660375
O13	O	-0.839371	-0.258724	-0.089648
O14	O	-0.589371	-0.008724	0.160352
O15	O	-0.339371	0.241276	0.410352
O16	O	-0.089371	0.491276	0.660352
O17	O	-0.825920	0.006225	0.089019
O18	O	-0.575920	0.256225	0.339019
O19	O	-0.325920	0.506225	0.589019
O20	O	-0.075920	0.756225	0.839019
O21	O	-0.727814	-0.139712	0.089044
O22	O	-0.477814	0.110288	0.339044
O23	O	-0.227814	0.360288	0.589044
O24	O	0.022186	0.610288	0.839044
O25	O	-0.930100	-0.123781	0.088971
O26	O	-0.680100	0.126219	0.338971
O27	O	-0.430100	0.376219	0.588971
O28	O	-0.180100	0.626219	0.838971
Cu29	Cu	-0.828284	-0.132750	0.105319
Cu30	Cu	-0.578284	0.117250	0.355319
Cu31	Cu	-0.328284	0.367250	0.605319
Cu32	Cu	-0.078284	0.617250	0.855319
Cu33	Cu	-0.837008	-0.119749	-0.105948
Cu34	Cu	-0.587008	0.130251	0.144052
Cu35	Cu	-0.337008	0.380251	0.394052
Cu36	Cu	-0.087008	0.630251	0.644052
O37	O	-0.831994	-0.269718	0.088996
O38	O	-0.581994	-0.019718	0.338996
O39	O	-0.331994	0.230282	0.588996
O40	O	-0.081994	0.480282	0.838996
C41	C	-0.705458	-0.133700	-0.000269
C42	C	-0.455458	0.116300	0.249731
C43	C	-0.205458	0.366300	0.499731
C44	C	0.044542	0.616300	0.749731
C45	C	-0.627852	-0.132153	-0.000240
C46	C	-0.377852	0.117847	0.249760
C47	C	-0.127852	0.367847	0.499760
C48	C	0.122148	0.617847	0.749760
C49	C	-0.826951	0.047025	-0.000302
C50	C	-0.576951	0.297025	0.249698
C51	C	-0.326951	0.547025	0.499698
C52	C	-0.076951	0.797025	0.749698
C53	C	-0.819022	0.152218	-0.000297
C54	C	-0.569022	0.402218	0.249703
C55	C	-0.319022	0.652218	0.499703
C56	C	-0.069022	0.902218	0.749703
C57	C	-0.959834	-0.118799	-0.000363
C58	C	-0.709834	0.131201	0.249637
C59	C	-0.459834	0.381201	0.499637
C60	C	-0.209834	0.631201	0.749637
C61	C	-1.037440	-0.120345	-0.000398
C62	C	-0.787440	0.129655	0.249602
C63	C	-0.537440	0.379655	0.499602
C64	C	-0.287440	0.629655	0.749602
C65	C	-0.588455	-0.217782	-0.000265
C66	C	-0.338455	0.032218	0.249735
C67	C	-0.088455	0.282218	0.499735
C68	C	0.161545	0.532218	0.749735
C69	C	-0.515538	-0.216327	-0.000276
C70	C	-0.265538	0.033673	0.249724
C71	C	-0.015538	0.283673	0.499724
C72	C	0.234462	0.533673	0.749724
C73	C	-0.482022	-0.129237	-0.000285
C74	C	-0.232022	0.120763	0.249715
C75	C	0.017978	0.370763	0.499715
C76	C	0.267978	0.620763	0.749715
C77	C	-0.521428	-0.043597	-0.000255
C78	C	-0.271428	0.206403	0.249745
C79	C	-0.021428	0.456403	0.499745
C80	C	0.228572	0.706403	0.749745
C81	C	-0.594343	-0.045056	-0.000233
C82	C	-0.344343	0.204944	0.249767
C83	C	-0.094343	0.454944	0.499767
C84	C	0.155657	0.704944	0.749767
N85	N	-0.372258	-0.058924	-0.061123
N86	N	-0.122258	0.191076	0.188877
N87	N	0.127742	0.441076	0.438877
N88	N	0.377742	0.691076	0.688877
N89	N	-0.302991	-0.057544	-0.061147
N90	N	-0.052991	0.192456	0.188853
N91	N	0.197009	0.442456	0.438853
N92	N	0.447009	0.692456	0.688853
C93	C	-0.262332	-0.124838	-0.000351
C94	C	-0.012332	0.125162	0.249649
C95	C	0.237668	0.375162	0.499649
C96	C	0.487668	0.625162	0.749649
N97	N	-0.293556	-0.193577	0.060457
N98	N	-0.043556	0.056423	0.310457
N99	N	0.206444	0.306423	0.560457
N100	N	0.456444	0.556423	0.810457
N101	N	-0.362829	-0.194959	0.060475
N102	N	-0.112829	0.055041	0.310475
N103	N	0.137171	0.305041	0.560475
N104	N	0.387171	0.555041	0.810475
C105	C	-0.402958	-0.127646	-0.000309
C106	C	-0.152958	0.122354	0.249691
C107	C	0.097042	0.372354	0.499691
C108	C	0.347042	0.622354	0.749691
C109	C	-0.143870	-0.208894	-0.000386
C110	C	0.106130	0.041106	0.249614
C111	C	0.356130	0.291106	0.499614
C112	C	0.606130	0.541106	0.749614
C113	C	-0.070951	-0.207436	-0.000391
C114	C	0.179049	0.042564	0.249609
C115	C	0.429049	0.292564	0.499609
C116	C	0.679049	0.542564	0.749609
C117	C	-0.076843	-0.034704	-0.000381
C118	C	0.173157	0.215296	0.249619
C119	C	0.423157	0.465296	0.499619
C120	C	0.673157	0.715296	0.749619
C121	C	-0.149759	-0.036165	-0.000365
C122	C	0.100241	0.213835	0.249635
C123	C	0.350241	0.463835	0.499635
C124	C	0.600241	0.713835	0.749635
C125	C	-0.183269	-0.123263	-0.000373
C126	C	0.066731	0.126737	0.249627
C127	C	0.316731	0.376737	0.499627
C128	C	0.566731	0.626737	0.749627
C129	C	-0.838341	-0.299524	-0.000330
C130	C	-0.588341	-0.049524	0.249670
C131	C	-0.338341	0.200476	0.499670
C132	C	-0.088341	0.450476	0.749670
C133	C	-0.846270	-0.404716	-0.000341
C134	C	-0.596270	-0.154716	0.249659
C135	C	-0.346270	0.095284	0.499659
C136	C	-0.096270	0.345284	0.749659
N137	N	-0.822152	-0.141894	0.253913
N138	N	-0.572152	0.108106	0.503913
N139	N	-0.322152	0.358106	0.753913
N140	N	-0.072152	0.608106	1.003913
C141	C	-0.804527	0.344819	-0.000308
C142	C	-0.554527	0.594819	0.249692
C143	C	-0.304527	0.844819	0.499692
C144	C	-0.054527	1.094819	0.749692
C145	C	-0.860762	0.402687	-0.000331
C146	C	-0.610762	0.652687	0.249669
C147	C	-0.360762	0.902687	0.499669
C148	C	-0.110762	1.152687	0.749669
C149	C	-0.852697	0.509858	-0.000337
C150	C	-0.602697	0.759858	0.249663
C151	C	-0.352697	1.009858	0.499663
C152	C	-0.102697	1.259858	0.749663
C153	C	-0.812591	0.237639	-0.000302
C154	C	-0.562591	0.487639	0.249698
C155	C	-0.312591	0.737639	0.499698
C156	C	-0.062591	0.987639	0.749698
N157	N	-0.843144	-0.110598	-0.254542
N158	N	-0.593144	0.139402	-0.004542
N159	N	-0.343144	0.389402	0.245458
N160	N	-0.093144	0.639402	0.495458
C161	C	-0.813134	-0.155352	0.473030
C162	C	-0.563134	0.094648	0.723030
C163	C	-0.313134	0.344648	0.973030
C164	C	-0.063134	0.594648	1.223030
C165	C	-0.852161	-0.097143	0.526347
C166	C	-0.602161	0.152857	0.776347
C167	C	-0.352161	0.402857	1.026347
C168	C	-0.102161	0.652857	1.276347
C169	C	-0.847142	-0.104631	0.648272
C170	C	-0.597142	0.145369	0.898272
C171	C	-0.347142	0.395369	1.148272
C172	C	-0.097142	0.645369	1.398272
C173	C	-0.818151	-0.147865	0.351095
C174	C	-0.568151	0.102135	0.601095
C175	C	-0.318151	0.352135	0.851095
C176	C	-0.068151	0.602135	1.101095
H177	H	-0.615734	-0.288704	-0.000273
H178	H	-0.365734	-0.038704	0.249727
H179	H	-0.115734	0.211296	0.499727
H180	H	0.134266	0.461296	0.749727
Cl181	Cl	-0.755735	-0.240976	0.543924
Cl182	Cl	-0.505735	0.009024	0.793924
Cl183	Cl	-0.255735	0.259024	1.043924
Cl184	Cl	-0.005735	0.509024	1.293924
H185	H	-0.889342	-0.041684	0.480425
H186	H	-0.639342	0.208316	0.730425
H187	H	-0.389342	0.458316	0.980425
H188	H	-0.139342	0.708316	1.230425
H189	H	-0.483454	-0.286058	-0.000293
H190	H	-0.233454	-0.036058	0.249707
H191	H	0.016546	0.213942	0.499707
H192	H	0.266546	0.463942	0.749707
H193	H	-0.494135	0.027313	-0.000277
H194	H	-0.244135	0.277313	0.249723
H195	H	0.005865	0.527313	0.499723
H196	H	0.255865	0.777313	0.749723
H197	H	-0.914967	0.371747	-0.000423
H198	H	-0.664967	0.621747	0.249577
H199	H	-0.414967	0.871747	0.499577
H200	H	-0.164967	1.121747	0.749577
H201	H	-0.049557	0.036211	-0.000455
H202	H	0.200443	0.286211	0.249545
H203	H	0.450443	0.536211	0.499545
H204	H	0.700443	0.786211	0.749545
Cl205	Cl	-0.643874	0.062601	-0.000203
Cl206	Cl	-0.393874	0.312601	0.249797
Cl207	Cl	-0.143874	0.562601	0.499797
Cl208	Cl	0.106126	0.812601	0.749797
Cl209	Cl	-0.021422	-0.315094	-0.000416
Cl210	Cl	0.228578	-0.065094	0.249584
Cl211	Cl	0.478578	0.184906	0.499584
Cl212	Cl	0.728578	0.434906	0.749584
Cl213	Cl	-0.199290	0.071489	-0.000341
Cl214	Cl	0.050710	0.321489	0.249659
Cl215	Cl	0.300710	0.571489	0.499659
Cl216	Cl	0.550710	0.821489	0.749659
Cl217	Cl	-0.185998	-0.318387	-0.000385
Cl218	Cl	0.064002	-0.068387	0.249615
Cl219	Cl	0.314002	0.181613	0.499615
Cl220	Cl	0.564002	0.431613	0.749615
Cl221	Cl	-0.720847	0.392594	-0.000283
Cl222	Cl	-0.470847	0.642594	0.249717
Cl223	Cl	-0.220847	0.892594	0.499717
Cl224	Cl	0.029153	1.142594	0.749717
