data_functionalizedCrystal
_audit_creation_method	'MofGen! by Chris Wilmer'
_symmetry_space_group_name_H-M	'P1'
_symmetry_Int_Tables_number	1
_symmetry_cell_setting	triclinic
loop_
_symmetry_equiv_pos_as_xyz
  x,y,z
_cell_length_a	17.639762
_cell_length_b	25.639240
_cell_length_c	17.640968
_cell_angle_alpha	101.239326
_cell_angle_beta	87.859627
_cell_angle_gamma	101.263786
loop_
_atom_site_label
_atom_site_type_symbol
_atom_site_fract_x
_atom_site_fract_y
_atom_site_fract_z
Zn1	Zn	1.247817	-0.014959	0.195066
Zn2	Zn	1.747817	0.485041	0.695066
Zn3	Zn	1.222013	-0.122837	0.068062
Zn4	Zn	1.722013	0.377163	0.568062
Zn5	Zn	1.095133	-0.048980	0.093707
Zn6	Zn	1.595133	0.451020	0.593707
Zn7	Zn	1.120753	-0.115960	0.220646
Zn8	Zn	1.620753	0.384040	0.720646
O9	O	1.171429	-0.075684	0.144370
O10	O	1.671429	0.424316	0.644370
O11	O	1.350671	-0.017910	0.156781
O12	O	1.850671	0.482090	0.656781
O13	O	1.183662	-0.130156	-0.034812
O14	O	1.683662	0.369844	0.465188
O15	O	1.115465	0.028713	0.107179
O16	O	1.615465	0.528713	0.607179
O17	O	1.331713	-0.097168	0.063472
O18	O	1.831713	0.402832	0.563472
O19	O	1.227641	0.053708	0.181648
O20	O	1.727641	0.553708	0.681648
O21	O	1.090444	-0.075893	-0.015971
O22	O	1.590444	0.424107	0.484029
O23	O	0.992255	-0.069224	0.131983
O24	O	1.492255	0.430776	0.631983
O25	O	1.159129	-0.085446	0.323530
O26	O	1.659129	0.414554	0.823530
O27	O	1.011078	-0.118434	0.225245
O28	O	1.511078	0.381566	0.725245
O29	O	1.252483	-0.011241	0.304736
O30	O	1.752483	0.488759	0.804736
O31	O	1.208504	-0.195104	0.088276
O32	O	1.708504	0.304896	0.588276
O33	O	1.134108	-0.190051	0.200379
O34	O	1.634108	0.309949	0.700379
C35	C	0.974110	-0.096775	0.184173
C36	C	1.474110	0.403225	0.684173
C37	C	0.889700	-0.105808	0.201219
C38	C	1.389700	0.394192	0.701219
C39	C	1.171310	-0.211548	0.144333
C40	C	1.671310	0.288452	0.644333
C41	C	1.171333	-0.269659	0.144328
C42	C	1.671333	0.230341	0.644328
C43	C	0.780532	-0.144218	0.273717
C44	C	1.280532	0.355782	0.773717
C45	C	0.859847	-0.135728	0.257694
C46	C	1.359847	0.364272	0.757694
C47	C	0.840244	-0.084363	0.160747
C48	C	1.340244	0.415637	0.660747
C49	C	0.760927	-0.092847	0.176765
C50	C	1.260927	0.407153	0.676765
C51	C	0.731077	-0.122775	0.233250
C52	C	1.231077	0.377225	0.733250
C53	C	0.711472	-0.071403	0.136297
C54	C	1.211472	0.428597	0.636297
C55	C	0.632160	-0.079889	0.152311
C56	C	1.132160	0.420111	0.652311
C57	C	0.602304	-0.109818	0.208792
C58	C	1.102304	0.390182	0.708792
C59	C	0.651765	-0.131261	0.249264
C60	C	1.151765	0.368739	0.749264
C61	C	0.741322	-0.041478	0.079808
C62	C	1.241322	0.458522	0.579808
C63	C	0.691867	-0.020035	0.039341
C64	C	1.191867	0.479965	0.539341
C65	C	0.612555	-0.028517	0.055358
C66	C	1.112555	0.471483	0.555358
C67	C	0.582699	-0.058446	0.111839
C68	C	1.082699	0.441554	0.611839
C69	C	0.563094	-0.007074	0.014886
C70	C	1.063094	0.492926	0.514886
C71	C	0.483782	-0.015559	0.030900
C72	C	0.983782	0.484441	0.530900
C73	C	0.503387	-0.066931	0.127853
C74	C	1.003387	0.433069	0.627853
C75	C	1.229881	-0.616934	0.183229
C76	C	1.729881	-0.116934	0.683229
C77	C	1.229907	-0.671533	0.183240
C78	C	1.729907	-0.171533	0.683240
O79	O	1.279546	-0.688665	0.216280
O80	O	1.779546	-0.188665	0.716280
N81	N	1.171549	-0.711900	0.144423
N82	N	1.671549	-0.211900	0.644423
C83	C	1.113159	-0.697665	0.105598
C84	C	1.613159	-0.197665	0.605598
O85	O	1.063523	-0.737014	0.072583
O86	O	1.563523	-0.237014	0.572583
C87	C	1.113131	-0.643066	0.105593
C88	C	1.613131	-0.143066	0.605593
C89	C	1.171496	-0.602702	0.144406
C90	C	1.671496	-0.102702	0.644406
C91	C	1.288241	-0.576570	0.222040
C92	C	1.788241	-0.076570	0.722040
C93	C	1.288216	-0.521974	0.222028
C94	C	1.788216	-0.021974	0.722028
C95	C	1.229831	-0.507742	0.183204
C96	C	1.729831	-0.007742	0.683204
C97	C	1.171471	-0.548106	0.144394
C98	C	1.671471	-0.048106	0.644394
C99	C	1.054737	-0.628832	0.066773
C100	C	1.554737	-0.128832	0.566773
C101	C	1.054714	-0.574228	0.066771
C102	C	1.554714	-0.074228	0.566771
C103	C	1.113080	-0.533864	0.105585
C104	C	1.613080	-0.033864	0.605585
C105	C	1.113061	-0.479279	0.105558
C106	C	1.613061	0.020721	0.605558
N107	N	1.171418	-0.438912	0.144375
N108	N	1.671418	0.061088	0.644375
C109	C	1.229803	-0.453144	0.183199
C110	C	1.729803	0.046856	0.683199
C111	C	1.113221	-0.812325	0.105615
C112	C	1.613221	-0.312325	0.605615
C113	C	1.113251	-0.866923	0.105616
C114	C	1.613251	-0.366923	0.605616
C115	C	1.229999	-0.840787	0.183258
C116	C	1.729999	-0.340787	0.683258
C117	C	1.229971	-0.786189	0.183253
C118	C	1.729971	-0.286189	0.683253
C119	C	1.171578	-0.771958	0.144432
C120	C	1.671578	-0.271958	0.644432
C121	C	1.229747	-0.338490	0.183169
C122	C	1.729747	0.161510	0.683169
C123	C	1.229719	-0.283891	0.183151
C124	C	1.729719	0.216109	0.683151
C125	C	1.112969	-0.310031	0.105512
C126	C	1.612969	0.189969	0.605512
C127	C	1.112999	-0.364626	0.105526
C128	C	1.612999	0.135374	0.605526
C129	C	1.171392	-0.378853	0.144361
C130	C	1.671392	0.121147	0.644361
O131	O	1.063445	-0.462106	0.072538
O132	O	1.563445	0.037894	0.572538
O133	O	1.279425	-0.413790	0.216217
O134	O	1.779425	0.086210	0.716217
C135	C	1.369519	-0.054511	0.104413
C136	C	1.869519	0.445489	0.604413
C137	C	1.453932	-0.045488	0.087385
C138	C	1.953932	0.454512	0.587385
C139	C	1.211542	-0.043781	0.342460
C140	C	1.711542	0.456219	0.842460
C141	C	1.228636	-0.030186	0.426873
C142	C	1.728636	0.469814	0.926873
C143	C	1.171573	0.060715	0.144421
C144	C	1.671573	0.560715	0.644421
C145	C	1.171634	0.118840	0.144442
C146	C	1.671634	0.618840	0.644442
C147	C	1.131516	-0.107420	-0.052957
C148	C	1.631516	0.392580	0.447043
C149	C	1.114570	-0.120852	-0.137400
C150	C	1.614570	0.379148	0.362600
C151	C	1.041862	-0.178648	0.753418
C152	C	1.541862	0.321352	1.253418
C153	C	1.057940	-0.165865	0.832734
C154	C	1.557940	0.334135	1.332734
C155	C	1.155141	-0.088602	0.813156
C156	C	1.655141	0.411398	1.313156
C157	C	1.139069	-0.101377	0.733836
C158	C	1.639069	0.398623	1.233836
C159	C	1.082429	-0.146401	0.703974
C160	C	1.582429	0.353599	1.203974
C161	C	1.179635	-0.069130	0.684393
C162	C	1.679635	0.430870	1.184393
C163	C	1.163567	-0.081906	0.605080
C164	C	1.663567	0.418094	1.105080
C165	C	1.106931	-0.126929	0.575211
C166	C	1.606931	0.373071	1.075211
C167	C	1.066360	-0.159177	0.624661
C168	C	1.566360	0.340823	1.124661
C169	C	1.236279	-0.024108	0.714256
C170	C	1.736279	0.475892	1.214256
C171	C	1.276845	0.008139	0.664812
C172	C	1.776845	0.508139	1.164812
C173	C	1.260773	-0.004635	0.585499
C174	C	1.760773	0.495365	1.085499
C175	C	1.204138	-0.049657	0.555630
C176	C	1.704138	0.450343	1.055630
C177	C	1.301344	0.027614	0.536049
C178	C	1.801344	0.527614	1.036049
C179	C	1.285275	0.014838	0.456736
C180	C	1.785275	0.514838	0.956736
C181	C	1.188069	-0.062433	0.476317
C182	C	1.688069	0.437567	0.976317
H183	H	0.479084	-0.091296	0.173856
H184	H	0.979084	0.408704	0.673856
H185	H	0.627462	-0.155626	0.295267
H186	H	1.127462	0.344374	0.795267
F187	F	1.215421	-0.040687	0.844946
F188	F	1.715421	0.459313	1.344946
H189	H	0.537723	-0.116727	0.221828
H190	H	1.037723	0.383273	0.721828
H191	H	0.756228	-0.168583	0.319721
H192	H	1.256228	0.331417	0.819721
H193	H	1.277496	-0.753326	0.214858
H194	H	1.777496	-0.253326	0.714858
F195	F	0.981573	-0.226565	0.721633
F196	F	1.481573	0.273435	1.221633
H197	H	0.900112	-0.153191	0.290653
H198	H	1.400112	0.346809	0.790653
F199	F	0.992562	-0.559088	0.025453
F200	F	1.492562	-0.059088	0.525453
F201	F	1.014757	-0.200190	0.885355
F202	F	1.514757	0.299810	1.385355
H203	H	1.335786	-0.588149	0.253659
H204	H	1.835786	-0.088149	0.753659
F205	F	0.431145	0.007260	-0.012174
F206	F	0.931145	0.507260	0.487826
F207	F	1.051071	-0.797187	0.064289
F208	F	1.551071	-0.297187	0.564289
F209	F	1.253382	-0.010514	0.798668
F210	F	1.753382	0.489486	1.298668
F211	F	1.337125	0.056054	0.696602
F212	F	1.837125	0.556054	1.196602
H213	H	1.347465	0.064269	0.560374
H214	H	1.847465	0.564269	1.060374
H215	H	1.020220	-0.195830	0.600350
H216	H	1.520220	0.304170	1.100350
H217	H	1.277249	-0.251026	0.214757
H218	H	1.777249	0.248974	0.714757
H219	H	1.318308	0.041098	0.416477
H220	H	1.818308	0.541098	0.916477
F221	F	0.723645	0.011816	-0.020774
F222	F	1.223645	0.511816	0.479226
F223	F	1.292137	-0.855943	0.224579
F224	F	1.792137	-0.355943	0.724579
F225	F	0.872021	-0.052512	0.100632
F226	F	1.372021	0.447488	0.600632
H227	H	0.805903	-0.034571	0.066771
H228	H	1.305903	0.465429	0.566771
H229	H	0.587409	0.017290	-0.031110
H230	H	1.087409	0.517290	0.468890
H231	H	1.335741	-0.489111	0.253635
H232	H	1.835741	0.010889	0.753635
F233	F	1.051138	-0.909878	0.064294
F234	F	1.551138	-0.409878	0.564294
H235	H	1.277292	-0.350066	0.214798
H236	H	1.777292	0.149934	0.714798
H237	H	1.007210	-0.661689	0.035167
H238	H	1.507210	-0.161689	0.535167
H239	H	1.065434	-0.298435	0.073900
H240	H	1.565434	0.201565	0.573900
F241	F	1.050888	-0.407587	0.064206
F242	F	1.550888	0.092413	0.564206
F243	F	1.127780	-0.110350	0.444532
F244	F	1.627780	0.389650	0.944532
H245	H	1.093852	-0.137332	0.510628
H246	H	1.593852	0.362668	1.010628
