data_functionalizedCrystal
_audit_creation_method	'MofGen! by Chris Wilmer'
_symmetry_space_group_name_H-M	'P1'
_symmetry_Int_Tables_number	1
_symmetry_cell_setting	triclinic
loop_
_symmetry_equiv_pos_as_xyz
  x,y,z
_cell_length_a	10.654550
_cell_length_b	11.792241
_cell_length_c	9.730223
_cell_angle_alpha	89.996015
_cell_angle_beta	90.000193
_cell_angle_gamma	84.339159
loop_
_atom_site_label
_atom_site_type_symbol
_atom_site_fract_x
_atom_site_fract_y
_atom_site_fract_z
O1	O	-0.172130	-1.507300	-0.114153
O2	O	-0.189870	-1.177000	-0.114184
O3	O	0.001761	-1.349744	-0.114163
O4	O	-0.363761	-1.334556	-0.114174
O5	O	0.001756	-1.349742	0.114417
O6	O	-0.189875	-1.176998	0.114396
O7	O	-0.172135	-1.507298	0.114427
Zn8	Zn	-0.181006	-1.342148	0.150703
Zn9	Zn	-0.180999	-1.342150	-0.150460
O10	O	-0.363766	-1.334554	0.114406
C11	C	0.048553	-1.348628	0.000126
C12	C	0.187987	-1.345291	0.000120
C13	C	-0.188758	-1.134705	0.000102
C14	C	-0.185423	-1.008684	0.000090
C15	C	-0.173247	-1.549592	0.000138
C16	C	-0.176582	-1.675614	0.000141
C17	C	-0.410558	-1.335670	0.000114
C18	C	-0.549992	-1.339006	0.000111
C19	C	0.267760	-1.447000	0.000134
C20	C	0.398772	-1.443858	0.000124
C21	C	0.370224	-1.237290	0.000092
C22	C	0.239215	-1.240433	0.000093
C23	C	0.284243	-1.566261	0.000159
C24	C	0.415255	-1.563120	0.000149
C25	C	-0.179290	-0.777958	0.000129
C26	C	-0.182697	-0.906351	0.000107
N27	N	-0.181009	-1.342154	0.356240
N28	N	-0.180986	-1.342153	-0.355997
C29	C	-0.096184	-1.418665	0.428175
C30	C	-0.096169	-1.418662	0.572058
C31	C	-0.265815	-1.265633	0.572057
C32	C	-0.265823	-1.265632	0.428177
C33	C	0.001756	-1.507018	0.428177
C34	C	0.001772	-1.507015	0.572060
H35	H	0.174267	-1.157611	0.000062
C36	C	-0.039237	-1.618342	0.367890
H37	H	-0.057480	-1.667921	0.440606
H38	H	-0.112416	-1.601613	0.312939
H39	H	0.026915	-1.654185	0.312945
C40	C	0.477143	-1.612374	-0.132854
H41	H	0.414036	-1.636410	-0.192118
H42	H	0.519693	-1.555616	-0.177540
H43	H	0.535893	-1.675668	-0.110860
H44	H	0.255019	-1.612910	-0.095490
H45	H	0.248722	-1.604238	0.098859
C46	C	0.426581	-1.121954	0.000073
H47	H	0.516031	-1.134648	0.000081
H48	H	0.399242	-1.080033	-0.079641
H49	H	0.399248	-1.080034	0.079791
C50	C	-0.359086	-1.181446	0.651186
H51	H	-0.409593	-1.135867	0.587733
H52	H	-0.411677	-1.222656	0.707341
H53	H	-0.313514	-1.133852	0.707285
H54	H	0.457140	-1.608055	0.095812
H55	H	0.092916	-1.479439	0.616675
C56	C	0.132079	-1.480830	0.375409
H57	H	0.185679	-1.470049	0.451345
H58	H	0.167941	-1.542732	0.321174
H59	H	0.123011	-1.413531	0.321168
H60	H	-0.019500	-1.594237	0.611119
C61	C	-0.359123	-1.181463	0.349052
H62	H	-0.409638	-1.135900	0.412505
H63	H	-0.313590	-1.133870	0.292916
H64	H	-0.411723	-1.222700	0.292934
