data_functionalizedCrystal
_audit_creation_method	'MofGen! by Chris Wilmer'
_symmetry_space_group_name_H-M	'P1'
_symmetry_Int_Tables_number	1
_symmetry_cell_setting	triclinic
loop_
_symmetry_equiv_pos_as_xyz
  x,y,z
_cell_length_a	10.723023
_cell_length_b	10.723024
_cell_length_c	9.798715
_cell_angle_alpha	90.001978
_cell_angle_beta	90.003551
_cell_angle_gamma	84.467709
loop_
_atom_site_label
_atom_site_type_symbol
_atom_site_fract_x
_atom_site_fract_y
_atom_site_fract_z
O1	O	1.657188	0.175020	0.113483
O2	O	2.157188	0.675020	0.613483
O3	O	1.294035	0.191774	0.113487
O4	O	1.794035	0.691774	0.613487
O5	O	1.483988	0.001821	0.113480
O6	O	1.983988	0.501821	0.613480
O7	O	1.467235	0.364973	0.113490
O8	O	1.967235	0.864973	0.613490
O9	O	1.483974	0.001820	-0.113502
O10	O	1.983974	0.501820	0.386498
O11	O	1.294021	0.191774	-0.113495
O12	O	1.794021	0.691774	0.386505
O13	O	1.657174	0.175019	-0.113499
O14	O	2.157174	0.675019	0.386501
Zn15	Zn	1.475595	0.183396	-0.149535
Zn16	Zn	1.975595	0.683396	0.350465
Zn17	Zn	1.475614	0.183397	0.149523
Zn18	Zn	1.975614	0.683397	0.649523
O19	O	1.467221	0.364973	-0.113492
O20	O	1.967221	0.864973	0.386508
C21	C	1.247529	0.190555	-0.000004
C22	C	1.747529	0.690555	0.499996
C23	C	1.108974	0.186908	-0.000003
C24	C	1.608974	0.686908	0.499997
C25	C	1.047210	0.185282	0.117581
C26	C	1.547210	0.685282	0.617581
C27	C	0.904007	0.181512	0.117585
C28	C	1.404007	0.681512	0.617585
C29	C	1.482762	-0.044679	-0.000009
C30	C	1.982762	0.455321	0.499991
C31	C	1.479114	-0.183233	-0.000005
C32	C	1.979114	0.316767	0.499995
C33	C	1.585402	-0.258216	-0.000004
C34	C	2.085402	0.241784	0.499996
C35	C	1.581634	-0.401420	0.000001
C36	C	2.081634	0.098580	0.500001
C37	C	1.703680	0.176239	-0.000005
C38	C	2.203680	0.676239	0.499995
C39	C	1.842235	0.179886	0.000003
C40	C	2.342235	0.679886	0.500003
C41	C	1.468447	0.411473	0.000001
C42	C	1.968447	0.911473	0.500001
C43	C	1.472095	0.550027	0.000005
C44	C	1.972095	1.050027	0.500005
N45	N	1.475591	0.183395	-0.353635
N46	N	1.975591	0.683395	0.146365
C47	C	1.555347	0.103288	-0.421415
C48	C	2.055347	0.603288	0.078585
C49	C	1.555367	0.103283	-0.578578
C50	C	2.055367	0.603283	-0.078578
N51	N	1.475627	0.183388	0.353623
N52	N	1.975627	0.683388	0.853623
H53	H	1.055835	0.185516	-0.100668
H54	H	1.555835	0.685516	0.399332
H55	H	1.100348	0.186687	0.218246
H56	H	1.600348	0.686687	0.718246
O57	O	0.912576	0.181758	-0.133355
O58	O	1.412576	0.681758	0.366645
H59	H	0.845535	0.179993	-0.219485
H60	H	1.345535	0.679993	0.280515
O61	O	1.709641	-0.202833	0.000006
O62	O	2.209641	0.297167	0.500006
H63	H	1.763472	-0.234430	-0.092501
H64	H	2.263472	0.265570	0.407499
O65	O	0.833674	0.179634	0.250947
O66	O	1.333674	0.679634	0.750947
H67	H	0.848208	0.265185	0.310334
H68	H	1.348208	0.765185	0.810334
O69	O	1.702174	-0.486753	-0.000001
O70	O	2.202174	0.013247	0.499999
H71	H	1.680299	-0.585839	0.000011
H72	H	2.180299	-0.085839	0.500011
H73	H	1.381099	-0.385548	-0.000005
H74	H	1.881099	0.114452	0.499995
H75	H	1.385328	-0.225055	0.000005
H76	H	1.885328	0.274945	0.500005
H77	H	1.623611	0.034702	-0.363095
H78	H	2.123611	0.534702	0.136905
O79	O	1.645821	0.012427	-0.655770
O80	O	2.145821	0.512427	-0.155770
H81	H	1.631636	0.026674	-0.767097
H82	H	2.131636	0.526674	-0.267097
H83	H	1.407346	0.251980	-0.588098
H84	H	1.907346	0.751980	-0.088098
H85	H	1.407319	0.251971	-0.411957
H86	H	1.907319	0.751971	0.088043
