data_functionalizedCrystal
_audit_creation_method	'MofGen! by Chris Wilmer'
_symmetry_space_group_name_H-M	'P1'
_symmetry_Int_Tables_number	1
_symmetry_cell_setting	triclinic
loop_
_symmetry_equiv_pos_as_xyz
  x,y,z
_cell_length_a	16.959455
_cell_length_b	16.120531
_cell_length_c	16.120297
_cell_angle_alpha	95.610581
_cell_angle_beta	87.126507
_cell_angle_gamma	87.070417
loop_
_atom_site_label
_atom_site_type_symbol
_atom_site_fract_x
_atom_site_fract_y
_atom_site_fract_z
Zn1	Zn	1.167658	0.356817	0.489543
Zn2	Zn	1.167543	0.489506	0.356846
Zn3	Zn	1.042536	0.349745	0.349778
Zn4	Zn	1.028368	0.496539	0.496554
O5	O	1.101526	0.423152	0.423180
O6	O	1.278251	0.374434	0.471964
O7	O	1.156843	0.465064	0.238947
O8	O	1.065111	0.233719	0.362426
O9	O	1.278168	0.471921	0.374472
O10	O	1.157037	0.238914	0.465111
O11	O	1.065001	0.362382	0.233755
O12	O	0.930048	0.369201	0.369224
O13	O	1.040964	0.483907	0.612585
O14	O	0.919639	0.477050	0.477061
O15	O	1.143299	0.381254	0.607434
O16	O	1.143104	0.607403	0.381270
O17	O	1.040853	0.612570	0.483914
C18	C	0.896164	0.423122	0.423137
C19	C	0.808307	0.423131	0.423139
C20	C	0.436778	0.473858	0.372386
C21	C	0.436870	0.372519	0.474080
C22	C	0.519417	0.372505	0.474059
C23	C	0.560649	0.423168	0.423202
C24	C	0.519333	0.473847	0.372365
C25	C	0.560739	0.321833	0.524900
C26	C	0.643291	0.321817	0.524882
C27	C	0.684525	0.372477	0.474020
C28	C	0.643204	0.423157	0.423181
C29	C	0.684435	0.473821	0.372324
C30	C	0.643116	0.524497	0.321480
C31	C	0.560566	0.524507	0.321503
C32	C	0.767075	0.372467	0.473996
C33	C	0.766991	0.473809	0.372303
C34	C	1.090449	0.640315	0.434138
C35	C	1.085782	0.733220	0.438854
C36	C	1.077263	0.903319	0.447481
C37	C	1.125822	0.942141	0.398833
C38	C	1.121082	1.036790	0.403633
C39	C	1.082002	0.808662	0.442682
C40	C	1.307691	0.423182	0.423225
C41	C	1.395546	0.423195	0.423243
C42	C	1.090563	0.434154	0.641184
C43	C	1.085892	0.438842	0.734085
C44	C	1.112640	1.205140	0.412183
C45	C	1.117306	1.112235	0.407457
C46	C	1.112495	0.412132	0.206021
C47	C	1.117332	0.407208	0.113110
C48	C	1.077334	0.447383	0.904174
C49	C	1.125887	0.398669	0.943026
C50	C	1.121126	0.403422	1.037669
C51	C	1.082095	0.442632	0.809522
H52	H	0.676698	0.565752	0.280076
H53	H	1.032133	0.941164	0.492731
H54	H	0.526917	0.565764	0.280108
O55	O	1.017542	0.507353	0.954262
H56	H	0.982703	0.542307	0.911203
O57	O	0.392221	0.528514	0.317547
H58	H	0.327891	0.520016	0.326103
H59	H	1.170954	0.904293	0.353578
H60	H	0.800556	0.515063	0.330885
O61	O	0.392399	0.317873	0.528923
H62	H	0.350759	0.357494	0.573283
O63	O	0.516273	0.267183	0.579744
H64	H	0.451930	0.275695	0.571205
O65	O	1.185697	0.338708	0.892943
H66	H	1.154467	0.294218	0.850999
O67	O	0.687858	0.267150	0.579703
H68	H	0.645317	0.231916	0.615063
H69	H	0.800713	0.331209	0.515394
