data_functionalizedCrystal
_audit_creation_method	'MofGen! by Chris Wilmer'
_symmetry_space_group_name_H-M	'P1'
_symmetry_Int_Tables_number	1
_symmetry_cell_setting	triclinic
loop_
_symmetry_equiv_pos_as_xyz
  x,y,z
_cell_length_a	10.654554
_cell_length_b	8.559649
_cell_length_c	9.730223
_cell_angle_alpha	90.000781
_cell_angle_beta	89.999030
_cell_angle_gamma	77.132754
loop_
_atom_site_label
_atom_site_type_symbol
_atom_site_fract_x
_atom_site_fract_y
_atom_site_fract_z
O1	O	1.644670	0.224213	-0.114307
O2	O	1.276986	0.245564	-0.114304
O3	O	1.493221	0.002647	-0.114304
O4	O	1.428435	0.467131	-0.114306
O5	O	1.493218	0.002653	0.114276
O6	O	1.276984	0.245570	0.114276
O7	O	1.644667	0.224219	0.114273
Zn8	Zn	1.460825	0.234896	0.150567
Zn9	Zn	1.460829	0.234888	-0.150597
O10	O	1.428432	0.467137	0.114274
C11	C	1.498130	-0.056826	-0.000017
C12	C	1.512744	-0.234044	-0.000024
C13	C	1.230349	0.243998	-0.000013
C14	C	1.091391	0.239303	-0.000012
C15	C	0.924516	0.087448	-0.000029
C16	C	1.055082	0.091859	-0.000015
C17	C	0.997126	0.382346	-0.000009
C18	C	0.866563	0.377934	-0.000013
C19	C	0.957977	-0.080263	-0.000039
C20	C	1.088543	-0.075852	-0.000025
C21	C	1.691304	0.225786	-0.000020
C22	C	1.830262	0.230481	-0.000030
C23	C	1.423524	0.526609	-0.000017
C24	C	1.408909	0.703827	-0.000018
N25	N	1.460832	0.234901	0.356103
N26	N	1.460833	0.234871	-0.356134
C27	C	1.556598	0.127373	0.428029
C28	C	1.556597	0.127354	0.571912
C29	C	1.365056	0.342403	0.571931
C30	C	1.365054	0.342413	0.428050
C31	C	1.667186	0.003221	0.428019
C32	C	1.667185	0.003201	0.571902
H33	H	0.789824	0.494405	0.000002
H34	H	1.139415	-0.126529	0.098674
Br35	Br	1.235063	0.488318	0.330433
Br36	Br	1.636272	-0.190014	0.646281
H37	H	1.026699	0.502398	0.000006
Br38	Br	1.679562	-0.371360	-0.000001
Br39	Br	1.823334	0.048765	0.637001
Br40	Br	1.235075	0.488303	0.669580
H41	H	1.308832	-0.213787	-0.000013
Br42	Br	0.920315	-0.189582	0.159384
Br43	Br	1.652572	-0.201252	0.362914
Br44	Br	0.907775	-0.169265	-0.164540
H45	H	1.136828	-0.139038	-0.095687
H46	H	1.754354	0.042097	0.383392
