data_functionalizedCrystal
_audit_creation_method	'MofGen! by Chris Wilmer'
_symmetry_space_group_name_H-M	'P1'
_symmetry_Int_Tables_number	1
_symmetry_cell_setting	triclinic
loop_
_symmetry_equiv_pos_as_xyz
  x,y,z
_cell_length_a	15.995280
_cell_length_b	15.995343
_cell_length_c	8.140239
_cell_angle_alpha	90.007866
_cell_angle_beta	89.997811
_cell_angle_gamma	96.523609
loop_
_atom_site_label
_atom_site_type_symbol
_atom_site_fract_x
_atom_site_fract_y
_atom_site_fract_z
O1	O	-1.111016	0.107645	0.136658
O2	O	-0.867232	0.121034	0.136658
O3	O	-0.995791	-0.007551	0.136627
O4	O	-0.982457	0.236229	0.136688
O5	O	-0.995787	-0.007551	-0.136600
O6	O	-0.867228	0.121033	-0.136569
O7	O	-1.111012	0.107644	-0.136569
Zn8	Zn	-0.989119	0.114338	-0.179950
Zn9	Zn	-0.989125	0.114339	0.180039
O10	O	-0.982452	0.236228	-0.136539
C11	C	-0.836034	0.120490	0.000044
C12	C	-0.743081	0.118862	0.000042
C13	C	-0.405341	0.112876	0.000064
C14	C	-0.428650	0.205679	0.000697
C15	C	-0.525327	0.207439	0.000073
C16	C	-0.572897	0.115846	0.000054
C17	C	-0.543794	0.069449	-0.155977
C18	C	-0.447003	0.068336	-0.156100
C19	C	-0.447153	0.066442	0.154610
C20	C	-0.543646	0.069877	0.156664
C21	C	-0.667594	0.117520	0.000043
C22	C	-0.310644	0.111199	0.000064
C23	C	-0.995239	-0.038746	0.000009
C24	C	-0.993590	-0.131696	-0.000003
C25	C	-0.990596	-0.301882	0.000034
C26	C	-0.897796	-0.325204	0.000037
C27	C	-0.896050	-0.421881	0.000676
C28	C	-0.987648	-0.469441	0.000069
C29	C	-1.034311	-0.440353	0.155781
C30	C	-1.035412	-0.343561	0.155894
C31	C	-1.036766	-0.343666	-0.154828
C32	C	-1.033340	-0.440161	-0.156856
C33	C	-0.985986	-0.564139	0.000094
C34	C	-0.992260	-0.207184	0.000020
C35	C	-0.142208	0.108198	0.000053
C36	C	-0.235157	0.109860	0.000077
C37	C	-0.983005	0.267423	0.000083
C38	C	-0.984654	0.360374	0.000106
N39	N	-0.989122	0.114337	-0.425633
N40	N	-0.989129	0.114334	0.425721
H41	H	-0.400655	0.241452	0.112597
H42	H	-0.563851	0.101668	-0.272083
Cl43	Cl	-0.383844	0.260607	-0.171062
Cl44	Cl	-0.839649	-0.451243	-0.171617
Cl45	Cl	-0.554706	0.263538	0.172761
Cl46	Cl	-0.592989	-0.034616	-0.164955
Cl47	Cl	-0.984887	-0.471348	0.335385
Cl48	Cl	-0.553743	0.263870	-0.172892
Cl49	Cl	-0.991558	-0.300021	-0.337115
H50	H	-0.418826	0.095451	0.272873
H51	H	-0.562216	0.103659	0.272095
H52	H	-0.576618	0.003023	0.166074
H53	H	-0.433161	-0.001868	0.155651
Cl54	Cl	-0.842251	-0.281952	-0.172335
Cl55	Cl	-0.843165	-0.280436	0.172181
Cl56	Cl	-0.839929	-0.450330	0.174033
H57	H	-1.003477	-0.316761	0.272734
H58	H	-0.420183	0.100470	-0.272723
H59	H	-0.432455	0.000292	-0.163201
Cl60	Cl	-1.140479	-0.321082	0.166089
H61	H	-1.101724	-0.472216	0.161137
Cl62	Cl	-0.980877	-0.468808	-0.334720
Cl63	Cl	-1.136558	-0.491009	-0.172036
H64	H	-1.105070	-0.329664	-0.156340
