data_functionalizedCrystal
_audit_creation_method	'MofGen! by Chris Wilmer'
_symmetry_space_group_name_H-M	'P1'
_symmetry_Int_Tables_number	1
_symmetry_cell_setting	triclinic
loop_
_symmetry_equiv_pos_as_xyz
  x,y,z
_cell_length_a	19.805407
_cell_length_b	21.295416
_cell_length_c	19.805399
_cell_angle_alpha	90.028370
_cell_angle_beta	89.975799
_cell_angle_gamma	89.970422
loop_
_atom_site_label
_atom_site_type_symbol
_atom_site_fract_x
_atom_site_fract_y
_atom_site_fract_z
Zn1	Zn	1.034717	0.250636	-0.382799
Zn2	Zn	1.534717	0.750636	0.117201
Zn3	Zn	1.034624	0.355905	-0.269610
Zn4	Zn	1.534624	0.855905	0.230390
Zn5	Zn	0.921532	0.250652	-0.269615
Zn6	Zn	1.421532	0.750652	0.230385
Zn7	Zn	0.921488	0.355870	-0.382747
Zn8	Zn	1.421488	0.855870	0.117253
O9	O	0.978090	0.303266	-0.326193
O10	O	1.478090	0.803266	0.173807
O11	O	1.129422	0.264608	-0.367804
O12	O	1.629422	0.764608	0.132196
O13	O	1.019602	0.341964	-0.174894
O14	O	1.519602	0.841964	0.325106
O15	O	0.936604	0.162561	-0.284653
O16	O	1.436604	0.662561	0.215347
O17	O	1.129353	0.341949	-0.284644
O18	O	1.629353	0.841949	0.215356
O19	O	1.019760	0.162549	-0.367809
O20	O	1.519760	0.662549	0.132191
O21	O	0.936513	0.264636	-0.174898
O22	O	1.436513	0.764636	0.325102
O23	O	0.826809	0.264602	-0.284603
O24	O	1.326809	0.764602	0.215397
O25	O	0.936528	0.341890	-0.477471
O26	O	1.436528	0.841890	0.022529
O27	O	0.826777	0.341905	-0.367720
O28	O	1.326777	0.841905	0.132280
O29	O	1.019717	0.264575	-0.477509
O30	O	1.519717	0.764575	0.022491
O31	O	1.019559	0.443990	-0.284594
O32	O	1.519559	0.943990	0.215406
O33	O	0.936438	0.443964	-0.367715
O34	O	1.436438	0.943964	0.132285
C35	C	0.802234	0.303252	-0.326157
C36	C	1.302234	0.803252	0.173843
C37	C	0.727002	0.303261	-0.326157
C38	C	1.227002	0.803261	0.173843
C39	C	0.265212	0.343594	-0.369448
C40	C	0.765212	0.843594	0.130552
C41	C	0.335901	0.343592	-0.369433
C42	C	0.835901	0.843592	0.130567
C43	C	0.371241	0.303281	-0.326219
C44	C	0.871241	0.803281	0.173781
C45	C	0.335889	0.262973	-0.283012
C46	C	0.835889	0.762973	0.216988
C47	C	0.265201	0.262978	-0.283023
C48	C	0.765201	0.762978	0.216977
C49	C	0.620962	0.262954	-0.282964
C50	C	1.120962	0.762954	0.217036
C51	C	0.691654	0.262951	-0.282958
C52	C	1.191654	0.762951	0.217042
C53	C	0.691661	0.343568	-0.369374
C54	C	1.191661	0.843568	0.130626
C55	C	0.620974	0.343573	-0.369386
C56	C	1.120974	0.843573	0.130614
C57	C	0.585628	0.303268	-0.326176
C58	C	1.085628	0.803268	0.173824
C59	C	0.508980	0.303270	-0.326191
C60	C	1.008980	0.803270	0.173809
C61	C	0.447888	0.303275	-0.326207
C62	C	0.947888	0.803275	0.173793
C63	C	0.978002	0.466818	-0.326163
C64	C	1.478002	0.966818	0.173837
C65	C	0.978026	0.536786	-0.326173
C66	C	1.478026	1.036786	0.173827
C67	C	1.021346	0.569645	-0.282937
C68	C	1.521346	1.069645	0.217063
C69	C	1.021378	0.635387	-0.282955
C70	C	1.521378	1.135387	0.217045
C71	C	0.978078	0.668268	-0.326202
C72	C	1.478078	1.168268	0.173798
C73	C	0.934755	0.635401	-0.369446
C74	C	1.434755	1.135401	0.130554
C75	C	0.934729	0.569660	-0.369432
C76	C	1.434729	1.069660	0.130568
N77	N	0.918868	0.771533	-0.331355
N78	N	1.418868	1.271533	0.168645
N79	N	0.918895	0.833985	-0.331365
N80	N	1.418895	1.333985	0.168635
C81	C	0.978155	0.866343	-0.326250
C82	C	1.478155	1.366343	0.173750
N83	N	1.037388	0.833890	-0.321112
N84	N	1.537388	1.333890	0.178888
N85	N	1.037361	0.771433	-0.321098
N86	N	1.537361	1.271433	0.178902
C87	C	0.978102	0.739554	-0.326223
C88	C	1.478102	1.239554	0.173777
C89	C	1.021513	0.970488	-0.283032
C90	C	1.521513	1.470488	0.216968
C91	C	1.021546	1.036231	-0.283055
C92	C	1.521546	1.536231	0.216945
C93	C	0.934917	1.036244	-0.369542
C94	C	1.434917	1.536244	0.130458
C95	C	0.934890	0.970501	-0.369523
C96	C	1.434890	1.470501	0.130477
C97	C	0.978187	0.937627	-0.326264
C98	C	1.478187	1.437627	0.173736
C99	C	1.154633	0.303281	-0.326229
C100	C	1.654633	0.803281	0.173771
C101	C	1.229865	0.303287	-0.326245
C102	C	1.729865	0.803287	0.173755
C103	C	0.978128	0.303226	-0.502736
C104	C	1.478128	0.803226	-0.002736
C105	C	0.978144	0.303210	-0.577968
C106	C	1.478144	0.803210	-0.077968
C107	C	0.978198	1.139076	-0.326249
C108	C	1.478198	1.639076	0.173751
C109	C	0.978246	1.069108	-0.326303
C110	C	1.478246	1.569108	0.173697
C111	C	1.021462	0.262950	-0.613333
C112	C	1.521462	0.762950	-0.113333
C113	C	1.021469	0.262931	-0.684021
C114	C	1.521469	0.762931	-0.184021
C115	C	0.978161	0.303177	-0.719343
C116	C	1.478161	0.803177	-0.219343
C117	C	0.934839	0.343438	-0.683973
C118	C	1.434839	0.843438	-0.183973
C119	C	0.934829	0.343453	-0.613286
C120	C	1.434829	0.843453	-0.113286
C121	C	0.934877	0.343380	-0.969047
C122	C	1.434877	0.843380	-0.469047
C123	C	0.934892	0.343363	-1.039739
C124	C	1.434892	0.843363	-0.539739
C125	C	1.021517	0.262858	-1.039782
C126	C	1.521517	0.762858	-0.539782
C127	C	1.021507	0.262873	-0.969095
C128	C	1.521507	0.762873	-0.469095
C129	C	0.978183	0.303132	-0.933731
C130	C	1.478183	0.803132	-0.433731
C131	C	0.978175	0.303150	-0.857082
C132	C	1.478175	0.803150	-0.357082
C133	C	0.978172	0.303162	-0.795991
C134	C	1.478172	0.803162	-0.295991
C135	C	0.978091	0.303260	-0.150337
C136	C	1.478091	0.803260	0.349663
C137	C	0.978206	0.303100	-0.075105
C138	C	1.478206	0.803100	0.424895
H139	H	0.364668	0.230154	-0.247823
H140	H	0.864668	0.730154	0.252177
O141	O	1.063614	0.223805	-0.718270
O142	O	1.563614	0.723805	-0.218270
C143	C	1.149515	0.143933	-0.710854
C144	C	1.649515	0.643933	-0.210854
C145	C	1.101829	0.188224	-0.671983
C146	C	1.601829	0.688224	-0.171983
H147	H	1.180414	0.115145	-0.673448
H148	H	1.680414	0.615145	-0.173448
H149	H	1.184935	0.172802	-0.743932
H150	H	1.684935	0.672802	-0.243932
H151	H	1.118458	0.111032	-0.743965
H152	H	1.618458	0.611032	-0.243965
H153	H	1.132831	0.221134	-0.638835
H154	H	1.632831	0.721134	-0.138835
H155	H	1.066408	0.159316	-0.638948
H156	H	1.566408	0.659316	-0.138948
O157	O	0.892786	0.382371	-1.074128
O158	O	1.392786	0.882371	-0.574128
C159	C	0.801392	0.390806	-1.153889
C160	C	1.301392	0.890806	-0.653889
C161	C	0.849038	0.346562	-1.114997
C162	C	1.349038	0.846562	-0.614997
H163	H	0.766001	0.361872	-1.186930
H164	H	1.266001	0.861872	-0.686930
H165	H	0.832416	0.423707	-1.187025
H166	H	1.332416	0.923707	-0.687025
H167	H	0.770454	0.419598	-1.116461
H168	H	1.270454	0.919598	-0.616461
H169	H	0.879986	0.317729	-1.152376
H170	H	1.379986	0.817729	-0.652376
H171	H	0.817976	0.313702	-1.081851
H172	H	1.317976	0.813702	-0.581851
O173	O	1.063516	0.667351	-0.241041
O174	O	1.563516	1.167351	0.258959
C175	C	1.154874	0.741564	-0.232005
C176	C	1.654874	1.241564	0.267995
C177	C	1.107217	0.705392	-0.279556
C178	C	1.607217	1.205392	0.220444
H179	H	1.190209	0.772339	-0.263124
H180	H	1.690209	1.272339	0.236876
H181	H	1.185865	0.706812	-0.201087
H182	H	1.685865	1.206812	0.298913
H183	H	1.123791	0.772354	-0.196590
H184	H	1.623791	1.272354	0.303410
H185	H	1.138248	0.674601	-0.315011
H186	H	1.638248	1.174601	0.184989
H187	H	1.076224	0.740178	-0.310426
H188	H	1.576224	1.240178	0.189574
H189	H	0.720448	0.376389	-0.404556
H190	H	1.220448	0.876389	0.095444
H191	H	0.899609	0.376170	-0.940262
H192	H	1.399609	0.876170	-0.440262
H193	H	1.056792	0.230075	-1.068584
H194	H	1.556792	0.730075	-0.568584
O195	O	0.892831	0.382511	-0.718387
O196	O	1.392831	0.882511	-0.218387
C197	C	0.854424	0.418143	-0.827263
C198	C	1.354424	0.918143	-0.327263
C199	C	0.902043	0.373870	-0.788376
C200	C	1.402043	0.873870	-0.288376
H201	H	0.861845	0.411162	-0.883855
H202	H	1.361845	0.911162	-0.383855
H203	H	0.866274	0.468920	-0.813403
H204	H	1.366274	0.968920	-0.313403
H205	H	0.799860	0.407092	-0.813312
H206	H	1.299860	0.907092	-0.313312
H207	H	0.956623	0.384864	-0.802306
H208	H	1.456623	0.884864	-0.302306
H209	H	0.890135	0.323106	-0.802239
H210	H	1.390135	0.823106	-0.302239
O211	O	0.892737	0.382629	-0.579035
O212	O	1.392737	0.882629	-0.079035
C213	C	0.806802	0.462469	-0.586447
C214	C	1.306802	0.962469	-0.086447
C215	C	0.854446	0.418142	-0.625319
C216	C	1.354446	0.918142	-0.125319
H217	H	0.775821	0.491183	-0.623852
H218	H	1.275821	0.991183	-0.123852
H219	H	0.837827	0.495432	-0.553375
H220	H	1.337827	0.995432	-0.053375
H221	H	0.771451	0.433569	-0.553329
H222	H	1.271451	0.933569	-0.053329
H223	H	0.889807	0.446991	-0.658474
H224	H	1.389807	0.946991	-0.158474
H225	H	0.823380	0.385176	-0.658349
H226	H	1.323380	0.885176	-0.158349
H227	H	0.720426	0.230122	-0.247766
H228	H	1.220426	0.730122	0.252234
H229	H	0.592192	0.230137	-0.247778
H230	H	1.092192	0.730137	0.252222
H231	H	0.592203	0.376396	-0.404578
H232	H	1.092203	0.876396	0.095422
O233	O	1.063477	0.223739	-0.934714
O234	O	1.563477	0.723739	-0.434714
C235	C	1.072602	0.138727	-0.854981
C236	C	1.572602	0.638727	-0.354981
C237	C	1.025001	0.183025	-0.893857
C238	C	1.525001	0.683025	-0.393857
H239	H	1.041512	0.105790	-0.821949
H240	H	1.541512	0.605790	-0.321949
H241	H	1.107966	0.167590	-0.821837
H242	H	1.607966	0.667590	-0.321837
H243	H	1.103572	0.109977	-0.892419
H244	H	1.603572	0.609977	-0.392419
H245	H	0.993987	0.211785	-0.856468
H246	H	1.493987	0.711785	-0.356468
H247	H	0.989681	0.154126	-0.927011
H248	H	1.489681	0.654126	-0.427011
H249	H	1.056770	0.943720	-0.247810
H250	H	1.556770	1.443720	0.252190
H251	H	0.899502	0.662177	-0.404659
H252	H	1.399502	1.162177	0.095341
H253	H	1.056826	1.062984	-0.247849
H254	H	1.556826	1.562984	0.252151
H255	H	0.236443	0.376416	-0.404641
H256	H	0.736443	0.876416	0.095359
O257	O	0.892707	0.537640	-0.411408
O258	O	1.392707	1.037640	0.088592
C259	C	0.854244	0.436368	-0.449679
C260	C	1.354244	0.936368	0.050321
C261	C	0.901881	0.472553	-0.402120
C262	C	1.401881	0.972553	0.097880
H263	H	0.861634	0.383738	-0.442176
H264	H	1.361634	0.883738	0.057824
H265	H	0.866104	0.449197	-0.504288
H266	H	1.366104	0.949197	-0.004288
H267	H	0.799686	0.449386	-0.437749
H268	H	1.299686	0.949386	0.062251
H269	H	0.956454	0.459554	-0.413989
H270	H	1.456454	0.959554	0.086011
H271	H	0.889962	0.459720	-0.347526
H272	H	1.389962	0.959720	0.152474
O273	O	0.370341	0.382720	-0.411343
O274	O	0.870341	0.882720	0.088657
C275	C	0.479242	0.418410	-0.449667
C276	C	0.979242	0.918410	0.050333
C277	C	0.440323	0.374077	-0.402154
C278	C	0.940323	0.874077	0.097846
H279	H	0.535829	0.411428	-0.442264
H280	H	1.035829	0.911428	0.057736
H281	H	0.465364	0.469171	-0.437693
H282	H	0.965364	0.969171	0.062307
H283	H	0.465338	0.407420	-0.504257
H284	H	0.965338	0.907420	-0.004257
H285	H	0.454206	0.385010	-0.347548
H286	H	0.954206	0.885010	0.152452
H287	H	0.454205	0.323329	-0.414186
H288	H	0.954205	0.823329	0.085814
O289	O	0.230968	0.223764	-0.241036
O290	O	0.730968	0.723764	0.258964
C291	C	0.238416	0.143827	-0.155287
C292	C	0.738416	0.643827	0.344713
C293	C	0.277268	0.188192	-0.202819
C294	C	0.777268	0.688192	0.297181
H295	H	0.275833	0.115065	-0.124367
H296	H	0.775833	0.615065	0.375633
H297	H	0.205373	0.110909	-0.186397
H298	H	0.705373	0.610909	0.313603
H299	H	0.205271	0.172699	-0.119875
H300	H	0.705271	0.672699	0.380125
H301	H	0.310451	0.159370	-0.238241
H302	H	0.810451	0.659370	0.261759
H303	H	0.310269	0.221112	-0.171667
H304	H	0.810269	0.721112	0.328333
H305	H	0.899664	1.063015	-0.404758
H306	H	1.399664	1.563015	0.095242
O307	O	1.063474	0.537809	-0.240902
O308	O	1.563474	1.037809	0.259098
C309	C	1.149372	0.544738	-0.155097
C310	C	1.649372	1.044738	0.344903
C311	C	1.101706	0.580871	-0.202674
C312	C	1.601706	1.080871	0.297326
H313	H	1.180286	0.579538	-0.124166
H314	H	1.680286	1.079538	0.375834
H315	H	1.184780	0.513930	-0.186171
H316	H	1.684780	1.013930	0.313829
H317	H	1.118299	0.513988	-0.119695
H318	H	1.618299	1.013988	0.380305
H319	H	1.132725	0.611655	-0.238085
H320	H	1.632725	1.111655	0.261915
H321	H	1.066297	0.611639	-0.171558
H322	H	1.566297	1.111639	0.328442
O323	O	0.892738	0.938676	-0.411537
O324	O	1.392738	1.438676	0.088463
C325	C	0.806844	0.945628	-0.497346
C326	C	1.306844	1.445628	0.002654
C327	C	0.854537	0.981748	-0.449785
C328	C	1.354537	1.481748	0.050215
H329	H	0.775956	0.980436	-0.528292
H330	H	1.275956	1.480436	-0.028292
H331	H	0.771415	0.914918	-0.466258
H332	H	1.271415	1.414918	0.033742
H333	H	0.837895	0.914783	-0.532734
H334	H	1.337895	1.414783	-0.032734
H335	H	0.823540	1.012628	-0.414388
H336	H	1.323540	1.512628	0.085612
H337	H	0.889968	1.012419	-0.480915
H338	H	1.389968	1.512419	0.019085
H339	H	1.056730	0.230179	-0.584579
H340	H	1.556730	0.730179	-0.084579
