data_functionalizedCrystal
_audit_creation_method	'MofGen! by Chris Wilmer'
_symmetry_space_group_name_H-M	'P1'
_symmetry_Int_Tables_number	1
_symmetry_cell_setting	triclinic
loop_
_symmetry_equiv_pos_as_xyz
  x,y,z
_cell_length_a	14.908178
_cell_length_b	12.759401
_cell_length_c	12.759393
_cell_angle_alpha	90.022088
_cell_angle_beta	86.667587
_cell_angle_gamma	86.688272
loop_
_atom_site_label
_atom_site_type_symbol
_atom_site_fract_x
_atom_site_fract_y
_atom_site_fract_z
Zn1	Zn	-0.359187	-1.582094	-0.569908
Zn2	Zn	-0.510086	-1.571837	-0.384072
Zn3	Zn	-0.359228	-1.406393	-0.394233
Zn4	Zn	-0.510011	-1.396239	-0.559708
O5	O	-0.434628	-1.489141	-0.476980
O6	O	-0.379218	-1.727753	-0.545273
O7	O	-0.490123	-1.549848	-0.238396
O8	O	-0.232967	-1.438242	-0.426058
O9	O	-0.490083	-1.720218	-0.408740
O10	O	-0.232937	-1.567329	-0.555126
O11	O	-0.379288	-1.428297	-0.245861
O12	O	-0.379215	-1.258026	-0.416168
O13	O	-0.489955	-1.420936	-0.708085
O14	O	-0.489995	-1.250566	-0.537741
O15	O	-0.379145	-1.557482	-0.715579
O16	O	-0.636331	-1.540002	-0.398849
O17	O	-0.636276	-1.410990	-0.527888
C18	C	-0.434602	-1.216175	-0.476951
C19	C	-0.434612	-1.099398	-0.476961
C20	C	-0.492245	-1.040622	-0.405781
C21	C	-0.492257	-0.930897	-0.405794
C22	C	-0.376995	-0.938734	-0.548171
C23	C	-0.376988	-1.048456	-0.548162
C24	C	-0.558789	-1.036097	-0.323578
C25	C	-0.558800	-0.926372	-0.323590
C26	C	-0.669040	-1.473310	-0.461182
C27	C	-0.769323	-1.466634	-0.454458
C28	C	-0.957583	-1.588404	-0.576366
C29	C	-1.051807	-1.582135	-0.570052
C30	C	-1.051997	-1.447821	-0.435523
C31	C	-0.957773	-1.454090	-0.441837
C32	C	-0.910569	-1.524385	-0.512259
C33	C	-0.816343	-1.530659	-0.518567
C34	C	-0.816535	-1.396341	-0.384044
C35	C	-0.910759	-1.390072	-0.377730
C36	C	-0.199300	-1.505062	-0.492863
C37	C	-0.099018	-1.511847	-0.499632
C38	C	-0.434537	-1.489220	-0.751020
C39	C	-0.434498	-1.489254	-0.867799
C40	C	-0.434646	-0.763173	-0.477000
C41	C	-0.434631	-0.879950	-0.476983
C42	C	-0.376794	-1.560364	-0.926565
C43	C	-0.376761	-1.560391	-1.036292
C44	C	-0.492145	-1.418196	-1.028475
C45	C	-0.492172	-1.418164	-0.918751
C46	C	-0.310181	-1.642463	-0.931079
C47	C	-0.310148	-1.642490	-1.040805
C48	C	-0.434653	-1.489126	-0.204011
C49	C	-0.434438	-1.489313	-0.087249
H50	H	-0.777910	-1.587900	-0.575906
H51	H	-0.243758	-1.617842	-1.079320
C52	C	-0.314471	-1.112131	-0.625618
C53	C	-0.334218	-1.084134	-0.728197
C54	C	-0.276636	-1.142758	-0.799580
H55	H	-0.322660	-1.184794	-0.615568
H56	H	-0.253821	-1.098207	-0.614517
H57	H	-0.394854	-1.098066	-0.739294
H58	H	-0.326024	-1.011481	-0.738280
H59	H	-0.215986	-1.128834	-0.788479
H60	H	-0.284829	-1.215418	-0.789520
H61	H	-0.290021	-1.123764	-0.869187
C62	C	-0.314465	-0.883232	-0.625350
C63	C	-0.326791	-0.774562	-0.610110
C64	C	-0.269194	-0.723403	-0.681180
H65	H	-0.327683	-0.900232	-0.695065
H66	H	-0.253808	-0.905234	-0.614167
H67	H	-0.387435	-0.752568	-0.621301
H68	H	-0.313567	-0.757531	-0.540410
H69	H	-0.208537	-0.745405	-0.669997
H70	H	-0.282417	-0.740411	-0.750890
H71	H	-0.277543	-0.649666	-0.670843
C72	C	-0.533854	-0.888428	-0.216742
C73	C	-0.596705	-0.920892	-0.139429
C74	C	-0.573747	-0.885968	-0.040993
H75	H	-0.533878	-0.813980	-0.216599
H76	H	-0.475622	-0.917184	-0.202547
H77	H	-0.654922	-0.892132	-0.153620
H78	H	-0.596691	-0.995335	-0.139539
H79	H	-0.515515	-0.914724	-0.026798
H80	H	-0.573771	-0.811521	-0.040861
H81	H	-0.616383	-0.907998	0.011477
H82	H	-0.240308	-1.625394	-0.906024
H83	H	-0.628686	-1.061169	-0.340520
C84	C	-0.906208	-1.664560	-0.652884
C85	C	-0.852093	-1.608634	-0.723774
C86	C	-0.804746	-1.678755	-0.794269
H87	H	-0.947598	-1.701827	-0.690267
H88	H	-0.869393	-1.712789	-0.615230
H89	H	-0.888906	-1.560424	-0.761424
H90	H	-0.810687	-1.571371	-0.686421
H91	H	-0.767931	-1.726984	-0.756614
H92	H	-0.846142	-1.716018	-0.831643
H93	H	-0.768018	-1.640821	-0.842369
C94	C	-1.102689	-1.651764	-0.639708
C95	C	-1.041178	-1.714679	-0.702713
C96	C	-1.088016	-1.778843	-0.766889
H97	H	-1.139445	-1.609214	-0.683073
H98	H	-1.139422	-1.695181	-0.597131
H99	H	-1.004459	-1.671267	-0.745286
H100	H	-1.004420	-1.757251	-0.659376
H101	H	-1.124750	-1.822259	-0.724312
H102	H	-1.124771	-1.736284	-0.810248
H103	H	-1.046289	-1.821545	-0.809639
C104	C	-0.554653	-1.340853	-1.083751
C105	C	-0.534987	-1.238227	-1.058396
C106	C	-0.592545	-1.166952	-1.109304
H107	H	-0.615312	-1.351980	-1.061718
H108	H	-0.546363	-1.350984	-1.157526
H109	H	-0.543284	-1.228101	-0.984636
H110	H	-0.474338	-1.227067	-1.080431
H111	H	-0.584255	-1.177082	-1.183079
H112	H	-0.653201	-1.178088	-1.087267
H113	H	-0.579204	-1.097312	-1.092116
C114	C	-0.343554	-1.743348	-0.883647
C115	C	-0.365645	-1.810210	-0.964070
C116	C	-0.396382	-1.903159	-0.920416
H117	H	-0.395340	-1.727493	-0.838254
H118	H	-0.297621	-1.776912	-0.844884
H119	H	-0.411575	-1.776653	-1.002816
H120	H	-0.313873	-1.826095	-1.009469
H121	H	-0.350449	-1.936723	-0.881653
H122	H	-0.448165	-1.887293	-0.875024
H123	H	-0.411366	-1.948540	-0.974976
C124	C	-1.103420	-1.371614	-0.359095
C125	C	-1.195999	-1.379848	-0.367274
C126	C	-1.243397	-1.309676	-0.296872
H127	H	-1.088130	-1.301986	-0.375350
H128	H	-1.088071	-1.388071	-0.289525
H129	H	-1.211342	-1.363384	-0.436828
H130	H	-1.211316	-1.449460	-0.351010
H131	H	-1.228048	-1.326132	-0.227303
H132	H	-1.228100	-1.240052	-0.313133
H133	H	-1.306217	-1.315260	-0.302405
C134	C	-0.647436	-0.875228	-0.356276
C135	C	-0.706142	-0.953192	-0.377928
C136	C	-0.787801	-0.906116	-0.408027
H137	H	-0.636910	-0.834078	-0.417304
H138	H	-0.673542	-0.831570	-0.300962
H139	H	-0.680041	-0.996833	-0.433237
H140	H	-0.716693	-0.994348	-0.316914
H141	H	-0.813908	-0.862457	-0.352713
H142	H	-0.777267	-0.864967	-0.469053
H143	H	-0.827646	-0.959006	-0.422712
H144	H	-0.328865	-1.722601	-1.069329
H145	H	-0.778246	-1.344215	-0.331841
C146	C	-0.961851	-1.313652	-0.301244
C147	C	-0.900507	-1.258913	-0.246470
C148	C	-0.947537	-1.188498	-0.176009
H149	H	-0.998616	-1.351307	-0.252953
H150	H	-0.998592	-1.265347	-0.338902
H151	H	-0.863781	-1.307212	-0.208814
H152	H	-0.863741	-1.221237	-0.294733
H153	H	-0.984279	-1.140192	-0.213667
H154	H	-0.984300	-1.226162	-0.127725
H155	H	-0.905923	-1.151342	-0.138843
C156	C	-0.554962	-1.341061	-0.854999
C157	C	-0.644231	-1.357900	-0.875633
C158	C	-0.702098	-1.286894	-0.816916
H159	H	-0.541850	-1.271331	-0.873822
H160	H	-0.546782	-1.351218	-0.782338
H161	H	-0.652408	-1.347734	-0.948278
H162	H	-0.657371	-1.427616	-0.856805
H163	H	-0.693918	-1.297051	-0.744255
H164	H	-0.688978	-1.217168	-0.835744
H165	H	-0.762673	-1.298315	-0.830901
H166	H	-0.533677	-1.071787	-0.248023
