data_functionalizedCrystal
_audit_creation_method	'MofGen! by Chris Wilmer'
_symmetry_space_group_name_H-M	'P1'
_symmetry_Int_Tables_number	1
_symmetry_cell_setting	triclinic
loop_
_symmetry_equiv_pos_as_xyz
  x,y,z
_cell_length_a	12.759401
_cell_length_b	14.908178
_cell_length_c	12.759393
_cell_angle_alpha	86.668720
_cell_angle_beta	89.979062
_cell_angle_gamma	93.315511
loop_
_atom_site_label
_atom_site_type_symbol
_atom_site_fract_x
_atom_site_fract_y
_atom_site_fract_z
Zn1	Zn	1.582110	-0.359109	-0.569852
Zn2	Zn	1.571850	-0.510006	-0.384017
Zn3	Zn	1.406405	-0.359157	-0.394184
Zn4	Zn	1.396254	-0.509943	-0.559658
O5	O	1.489155	-0.434554	-0.476928
O6	O	1.727769	-0.379132	-0.545212
O7	O	1.549858	-0.490042	-0.238341
O8	O	1.438255	-0.232895	-0.426008
O9	O	1.720231	-0.489996	-0.408679
O10	O	1.567344	-0.232860	-0.555071
O11	O	1.428306	-0.379214	-0.245811
O12	O	1.258038	-0.379153	-0.416123
O13	O	1.420953	-0.489888	-0.708035
O14	O	1.250580	-0.489935	-0.537697
O15	O	1.557501	-0.379071	-0.715524
O16	O	1.540015	-0.636253	-0.398795
O17	O	1.411005	-0.636207	-0.527838
C18	C	1.216188	-0.434543	-0.476908
C19	C	1.099410	-0.434560	-0.476923
C20	C	1.040686	-0.492332	-0.540114
C21	C	0.930962	-0.492335	-0.540135
C22	C	0.938695	-0.376792	-0.413763
C23	C	1.048418	-0.376785	-0.413749
C24	C	0.778888	-0.524709	-0.661816
C25	C	0.720160	-0.582495	-0.724998
C26	C	0.749835	-0.670544	-0.735020
C27	C	0.838235	-0.700825	-0.681844
C28	C	0.896957	-0.643044	-0.618655
C29	C	0.867285	-0.554982	-0.608653
C30	C	1.200493	-0.344420	-0.292065
C31	C	1.259217	-0.286643	-0.228870
C32	C	1.229545	-0.198592	-0.218837
C33	C	1.141141	-0.168314	-0.271994
C34	C	1.082416	-0.226092	-0.335190
C35	C	1.112096	-0.314142	-0.345224
C36	C	1.473323	-0.668967	-0.461130
C37	C	1.466647	-0.769249	-0.454407
C38	C	1.588420	-0.957505	-0.576310
C39	C	1.582150	-1.051729	-0.569996
C40	C	1.447834	-1.051925	-0.435472
C41	C	1.454103	-0.957700	-0.441786
C42	C	1.524400	-0.910494	-0.512206
C43	C	1.530674	-0.816267	-0.518513
C44	C	1.396353	-0.816465	-0.383995
C45	C	1.390083	-0.910689	-0.377681
C46	C	1.763187	-0.434566	-0.476949
C47	C	1.879963	-0.434571	-0.476957
C48	C	1.489239	-0.434467	-0.750967
C49	C	1.489275	-0.434430	-0.867746
C50	C	1.505076	-0.199226	-0.492810
C51	C	1.511861	-0.098943	-0.499579
C52	C	1.560381	-0.376719	-0.926510
C53	C	1.560401	-0.376680	-1.036237
C54	C	1.418206	-0.492072	-1.028426
C55	C	1.418182	-0.492106	-0.918701
C56	C	1.605174	-0.270231	-1.193379
C57	C	1.676296	-0.212527	-1.252146
C58	C	1.779739	-0.198692	-1.217486
C59	C	1.812081	-0.242574	-1.124059
C60	C	1.740964	-0.300285	-1.065298
C61	C	1.637507	-0.314102	-1.099957
C62	C	1.373420	-0.598555	-0.761557
C63	C	1.302307	-0.656271	-0.702793
C64	C	1.198862	-0.670115	-0.737450
C65	C	1.166523	-0.626249	-0.830879
C66	C	1.237635	-0.568534	-0.889644
C67	C	1.341080	-0.554688	-0.854979
C68	C	1.489135	-0.434575	-0.203959
C69	C	1.489320	-0.434358	-0.087198
H70	H	0.862381	-0.772528	-0.690000
N71	N	0.883694	-0.314504	-0.345600
H72	H	0.805274	-0.323283	-0.355185
H73	H	0.901908	-0.328491	-0.269603
H74	H	0.648185	-0.557831	-0.768295
N75	N	1.651180	-1.102436	-0.639155
H76	H	1.696655	-1.058230	-0.684727
H77	H	1.697232	-1.141530	-0.593834
H78	H	1.896319	-0.231311	-1.095852
N79	N	1.372025	-1.102848	-0.359520
H80	H	1.377773	-1.169672	-0.365249
H81	H	1.389527	-1.086416	-0.285604
H82	H	1.224667	-0.416116	-0.300238
H83	H	1.520941	-0.281483	-1.221604
H84	H	1.332847	-0.949138	-0.320350
N85	N	0.992299	-0.675699	-0.561312
H86	H	1.056465	-0.636970	-0.585029
H87	H	0.982034	-0.671758	-0.483259
N88	N	1.327303	-0.765761	-0.314841
H89	H	1.341941	-0.698906	-0.329521
H90	H	1.251158	-0.782275	-0.330012
N91	N	1.122150	-0.732359	-0.674072
H92	H	1.095797	-0.783022	-0.718160
H93	H	1.158386	-0.757991	-0.609633
H94	H	1.618267	-0.329753	-0.885026
N95	N	1.775832	-0.347616	-0.964539
H96	H	1.852160	-0.330100	-0.951498
H97	H	1.731852	-0.329547	-0.904273
N98	N	1.664237	-0.906575	-0.652249
H99	H	1.738225	-0.922922	-0.634904
H100	H	1.646704	-0.922950	-0.726177
H101	H	1.837647	-0.151708	-1.265342
H102	H	1.649953	-0.176799	-1.328215
N103	N	0.746882	-0.429738	-0.651008
H104	H	0.748014	-0.396533	-0.722324
H105	H	0.673696	-0.431407	-0.620503
H106	H	0.702010	-0.717594	-0.786465
N107	N	1.484996	-0.583614	-0.724170
H108	H	1.519748	-0.642877	-0.719044
H109	H	1.525046	-0.540361	-0.775600
N110	N	1.341516	-0.554263	-1.083385
H111	H	1.352316	-0.545482	-1.161813
H112	H	1.353483	-0.618711	-1.059867
H113	H	1.587916	-0.777832	-0.575850
H114	H	1.010439	-0.201429	-0.378481
N115	N	1.202761	-0.521219	-0.990416
H116	H	1.126437	-0.538746	-1.003460
H117	H	1.211870	-0.453959	-0.984492
N118	N	1.054951	-0.641181	-0.868274
H119	H	1.014808	-0.684397	-0.816870
H120	H	1.020292	-0.581878	-0.873421
H121	H	1.116968	-0.096622	-0.263808
N122	N	1.337186	-0.703597	-0.602029
H123	H	1.413509	-0.686067	-0.588984
H124	H	1.293197	-0.685540	-0.541762
N125	N	1.292873	-0.136276	-0.150664
H126	H	1.353375	-0.168816	-0.118501
H127	H	1.320939	-0.081744	-0.194856
H128	H	1.331200	-0.311303	-0.185585
N129	N	1.095688	-0.554642	-0.608248
H130	H	1.041833	-0.591239	-0.648284
H131	H	1.143714	-0.517964	-0.659405
