data_functionalizedCrystal
_audit_creation_method	'MofGen! by Chris Wilmer'
_symmetry_space_group_name_H-M	'P1'
_symmetry_Int_Tables_number	1
_symmetry_cell_setting	triclinic
loop_
_symmetry_equiv_pos_as_xyz
  x,y,z
_cell_length_a	16.109302
_cell_length_b	15.944551
_cell_length_c	15.186229
_cell_angle_alpha	89.995303
_cell_angle_beta	89.994701
_cell_angle_gamma	83.480259
loop_
_atom_site_label
_atom_site_type_symbol
_atom_site_fract_x
_atom_site_fract_y
_atom_site_fract_z
O1	O	1.103165	0.107969	-0.073270
O2	O	0.861108	0.121405	-0.073263
O3	O	0.988746	-0.007590	-0.073259
O4	O	0.975526	0.236964	-0.073274
O5	O	0.988738	-0.007592	0.073198
O6	O	0.861099	0.121403	0.073194
O7	O	1.103157	0.107967	0.073187
Zn8	Zn	0.982127	0.114685	0.096444
Zn9	Zn	0.982138	0.114687	-0.096520
O10	O	0.975518	0.236962	0.073183
C11	C	0.830128	0.120860	-0.000034
C12	C	0.737833	0.119228	-0.000031
C13	C	0.525486	0.115453	0.079794
C14	C	0.438765	0.113910	0.079791
C15	C	0.438785	0.113917	-0.079884
C16	C	0.525505	0.115453	-0.079880
C17	C	0.568852	0.116225	-0.000038
C18	C	0.395412	0.113147	-0.000045
C19	C	0.301386	0.111474	-0.000049
C20	C	0.662885	0.117896	-0.000034
C21	C	0.988193	-0.038885	-0.000030
C22	C	0.986548	-0.132130	-0.000030
C23	C	0.903499	-0.346960	-0.000039
C24	C	0.942060	-0.407990	0.072172
C25	C	0.983571	-0.302855	-0.000036
C26	C	0.942087	-0.407972	-0.072224
C27	C	0.980690	-0.467767	-0.000047
C28	C	1.022155	-0.362658	0.072235
C29	C	1.022171	-0.362633	-0.072226
C30	C	1.060790	-0.423646	0.000003
C31	C	0.985229	-0.207853	-0.000030
C32	C	0.979039	-0.562767	-0.000047
C33	C	1.134136	0.108513	-0.000044
C34	C	1.226432	0.110145	-0.000053
C35	C	0.976071	0.268257	-0.000048
C36	C	0.977716	0.361502	-0.000054
N37	N	0.982125	0.114683	0.228137
N38	N	0.982146	0.114683	-0.228213
C39	C	1.038663	0.057583	0.453861
C40	C	1.038665	0.057581	0.546051
C41	C	0.925602	0.171785	0.546056
C42	C	0.925596	0.171782	0.453868
C43	C	0.982131	0.114682	0.407773
C44	C	0.982140	0.114683	0.592151
C45	C	0.982142	0.114681	0.692107
C46	C	0.982128	0.114683	0.307811
H47	H	0.403460	0.113282	0.144799
O48	O	0.567693	0.116057	-0.157412
C49	C	0.675070	0.045097	-0.250045
C50	C	0.627343	0.044302	-0.162225
H51	H	0.723319	-0.012902	-0.253956
H52	H	0.629237	0.044234	-0.307146
H53	H	0.708024	0.104590	-0.254021
H54	H	0.594386	-0.015182	-0.158163
H55	H	0.673215	0.045209	-0.105165
H56	H	1.056013	-0.342513	-0.133280
O57	O	0.396541	0.113209	-0.157360
C58	C	0.262960	0.110799	-0.228134
C59	C	0.310692	0.111616	-0.140328
H60	H	0.193545	0.109493	-0.214394
H61	H	0.272347	0.169864	-0.267516
H62	H	0.287669	0.052370	-0.267502
H63	H	0.286014	0.170006	-0.100889
H64	H	0.301307	0.052512	-0.101013
O65	O	1.093662	0.002085	0.590684
C66	C	1.205773	-0.111222	0.580944
C67	C	1.143546	-0.048401	0.530288
H68	H	1.246109	-0.152067	0.532136
H69	H	1.247365	-0.074988	0.624071
H70	H	1.169865	-0.153158	0.624137
H71	H	1.179386	-0.006448	0.487048
H72	H	1.101955	-0.084687	0.487217
H73	H	0.837035	-0.313630	0.000035
H74	H	0.908213	-0.428037	-0.133277
O75	O	0.567472	0.116154	0.157428
C76	C	0.558290	0.116025	0.315804
C77	C	0.510643	0.115214	0.227945
H78	H	0.512363	0.115283	0.372840
H79	H	0.606475	0.057981	0.319857
H80	H	0.591308	0.175479	0.319753
H81	H	0.477576	0.055799	0.223937
H82	H	0.462506	0.173298	0.223930
H83	H	0.879558	0.218280	0.416341
O84	O	0.870773	0.227223	0.590971
C85	C	0.820644	0.277813	0.732993
C86	C	0.882794	0.214994	0.682240
H87	H	0.830330	0.267936	0.806793
H88	H	0.831480	0.345111	0.714921
H89	H	0.754062	0.266858	0.714830
H90	H	0.949400	0.225872	0.700377
H91	H	0.871886	0.147718	0.700317
H92	H	1.084696	0.011088	0.416333
O93	O	1.062574	-0.338979	0.145176
C94	C	1.135008	-0.383900	0.278860
C95	C	1.089275	-0.410836	0.196283
H96	H	1.156594	-0.441978	0.320212
H97	H	1.191519	-0.351553	0.258201
H98	H	1.090712	-0.338208	0.319332
H99	H	1.133505	-0.456554	0.155775
H100	H	1.032753	-0.443134	0.217003
O101	O	0.901522	-0.431917	0.144939
C102	C	0.772823	-0.419607	0.227249
C103	C	0.818631	-0.392463	0.144798
H104	H	0.705802	-0.387708	0.227172
H105	H	0.772431	-0.491061	0.226882
H106	H	0.806351	-0.400104	0.288773
H107	H	0.785139	-0.411910	0.083231
H108	H	0.819031	-0.321012	0.145243
H109	H	1.127312	-0.456827	0.000042
