data_functionalizedCrystal
_audit_creation_method	'MofGen! by Chris Wilmer'
_symmetry_space_group_name_H-M	'P1'
_symmetry_Int_Tables_number	1
_symmetry_cell_setting	triclinic
loop_
_symmetry_equiv_pos_as_xyz
  x,y,z
_cell_length_a	14.519709
_cell_length_b	10.540539
_cell_length_c	13.596369
_cell_angle_alpha	89.996161
_cell_angle_beta	90.000291
_cell_angle_gamma	84.102818
loop_
_atom_site_label
_atom_site_type_symbol
_atom_site_fract_x
_atom_site_fract_y
_atom_site_fract_z
O1	O	1.224765	0.166400	-0.081658
O2	O	0.956394	0.185995	-0.081688
O3	O	1.096702	-0.008572	-0.081671
O4	O	1.084457	0.360966	-0.081675
O5	O	1.096688	-0.008582	0.081912
O6	O	0.956380	0.185985	0.081895
O7	O	1.224751	0.166389	0.081924
Zn8	Zn	1.090563	0.176185	0.107882
Zn9	Zn	1.090582	0.176199	-0.107646
O10	O	1.084442	0.360956	0.081908
C11	C	0.922022	0.185077	0.000100
C12	C	0.819626	0.182340	0.000088
C13	C	1.095777	-0.055870	0.000118
C14	C	1.093029	-0.196790	0.000113
C15	C	0.444676	0.172265	0.000133
C16	C	0.548999	0.175063	0.000120
C17	C	0.632148	0.177303	0.000110
C18	C	0.736477	0.180101	0.000099
C19	C	0.987750	-0.379142	-0.000266
C20	C	0.990535	-0.232553	0.000102
C21	C	1.142346	-0.258957	0.093532
C22	C	1.138848	-0.405466	0.093610
C23	C	1.140949	-0.405994	-0.092414
C24	C	1.141893	-0.259022	-0.093649
C25	C	1.259123	0.167308	0.000135
C26	C	1.361519	0.170044	0.000140
C27	C	1.085368	0.408255	0.000116
C28	C	1.088115	0.549175	0.000115
N29	N	1.090557	0.176175	0.254974
N30	N	1.090595	0.176199	-0.254737
C31	C	1.090580	0.176200	0.656265
C32	C	1.090571	0.176198	0.544613
C33	C	1.090569	0.176189	0.455623
C34	C	1.090559	0.176184	0.343964
H35	H	0.947268	-0.407325	-0.067259
N36	N	1.096970	-0.202065	0.185614
H37	H	1.044478	-0.136039	0.167029
H38	H	1.072028	-0.271650	0.225653
H39	H	1.105808	-0.217791	-0.162758
N40	N	1.240879	-0.227959	-0.101118
H41	H	1.255518	-0.172864	-0.043569
H42	H	1.283841	-0.309633	-0.100311
H43	H	0.951729	-0.189549	-0.066865
H44	H	1.107782	-0.437204	-0.163219
N45	N	0.938772	-0.176712	0.088952
H46	H	0.940367	-0.081145	0.089560
H47	H	0.872389	-0.197195	0.086019
H48	H	1.214980	-0.453976	-0.093034
N49	N	0.934329	-0.418596	0.087969
H50	H	0.869940	-0.372113	0.087165
H51	H	0.930147	-0.513601	0.085619
N52	N	1.090552	-0.442335	0.186099
H53	H	1.025600	-0.397694	0.187669
H54	H	1.087866	-0.537693	0.187022
H55	H	1.212560	-0.454188	0.097856
H56	H	1.217615	-0.237372	0.097013
