data_functionalizedCrystal
_audit_creation_method	'MofGen! by Chris Wilmer'
_symmetry_space_group_name_H-M	'P1'
_symmetry_Int_Tables_number	1
_symmetry_cell_setting	triclinic
loop_
_symmetry_equiv_pos_as_xyz
  x,y,z
_cell_length_a	19.188930
_cell_length_b	17.699083
_cell_length_c	16.776229
_cell_angle_alpha	90.007545
_cell_angle_beta	90.021024
_cell_angle_gamma	83.213897
loop_
_atom_site_label
_atom_site_type_symbol
_atom_site_fract_x
_atom_site_fract_y
_atom_site_fract_z
O1	O	-0.926253	-0.094493	-0.066546
O2	O	-0.592920	0.238840	0.266787
O3	O	-0.259587	0.572173	0.600121
O4	O	-0.722956	-0.107213	-0.066492
O5	O	-0.389623	0.226120	0.266842
O6	O	-0.056289	0.559453	0.600175
O7	O	-0.830348	0.009343	-0.066513
O8	O	-0.497015	0.342677	0.266820
O9	O	-0.163682	0.676010	0.600153
O10	O	-0.818861	-0.211050	-0.066524
O11	O	-0.485528	0.122283	0.266809
O12	O	-0.152194	0.455617	0.600142
O13	O	-0.830334	0.009351	0.066063
O14	O	-0.497001	0.342684	0.399397
O15	O	-0.163667	0.676017	0.732730
O16	O	-0.722942	-0.107206	0.066085
O17	O	-0.389609	0.226127	0.399418
O18	O	-0.056275	0.559460	0.732752
O19	O	-0.926239	-0.094486	0.066030
O20	O	-0.592906	0.238847	0.399364
O21	O	-0.259572	0.572181	0.732697
Zn22	Zn	-0.824588	-0.100845	0.087107
Zn23	Zn	-0.491255	0.232488	0.420440
Zn24	Zn	-0.157922	0.565822	0.753774
Zn25	Zn	-0.824607	-0.100854	-0.087568
Zn26	Zn	-0.491274	0.232479	0.245765
Zn27	Zn	-0.157940	0.565812	0.579098
O28	O	-0.818847	-0.211043	0.066052
O29	O	-0.485514	0.122290	0.399386
O30	O	-0.152180	0.455624	0.732719
C31	C	-0.829930	0.037543	-0.000225
C32	C	-0.496596	0.370877	0.333108
C33	C	-0.163263	0.704210	0.666442
C34	C	-0.828695	0.121560	-0.000224
C35	C	-0.495361	0.454893	0.333109
C36	C	-0.162028	0.788227	0.666442
C37	C	-0.696938	-0.106798	-0.000196
C38	C	-0.363604	0.226535	0.333137
C39	C	-0.030271	0.559869	0.666470
C40	C	-0.619432	-0.105561	-0.000175
C41	C	-0.286098	0.227772	0.333158
C42	C	0.047235	0.561105	0.666491
C43	C	-0.952258	-0.094902	-0.000267
C44	C	-0.618924	0.238432	0.333067
C45	C	-0.285591	0.571765	0.666400
C46	C	-1.029763	-0.096138	-0.000293
C47	C	-0.696430	0.237195	0.333041
C48	C	-0.363097	0.570529	0.666374
C49	C	-0.574584	-0.173953	-0.000191
C50	C	-0.241251	0.159380	0.333142
C51	C	0.092082	0.492714	0.666475
C52	C	-0.501759	-0.172791	-0.000200
C53	C	-0.168426	0.160542	0.333133
C54	C	0.164907	0.493875	0.666467
C55	C	-0.473785	-0.103234	-0.000209
C56	C	-0.140451	0.230099	0.333125
C57	C	0.192882	0.563433	0.666458
C58	C	-0.518642	-0.034833	-0.000188
C59	C	-0.185309	0.298500	0.333145
C60	C	0.148025	0.631833	0.666478
C61	C	-0.591465	-0.035997	-0.000172
C62	C	-0.258132	0.297336	0.333162
C63	C	0.075201	0.630670	0.666495
N64	N	-0.365750	-0.050069	-0.045360
N65	N	-0.032416	0.283265	0.287974
N66	N	0.300917	0.616598	0.621307
N67	N	-0.296570	-0.048968	-0.045377
N68	N	0.036763	0.284365	0.287956
N69	N	0.370097	0.617699	0.621289
C70	C	-0.254372	-0.099724	-0.000257
C71	C	0.078961	0.233609	0.333076
C72	C	0.412294	0.566943	0.666409
N73	N	-0.283966	-0.151634	0.044871
N74	N	0.049367	0.181700	0.378204
N75	N	0.382700	0.515033	0.711538
N76	N	-0.353152	-0.152737	0.044885
N77	N	-0.019819	0.180597	0.378218
N78	N	0.313514	0.513930	0.711552
C79	C	-0.394821	-0.101965	-0.000226
C80	C	-0.061487	0.231369	0.333107
C81	C	0.271846	0.564702	0.666440
C82	C	-0.130559	-0.166861	-0.000282
C83	C	0.202774	0.166473	0.333052
C84	C	0.536108	0.499806	0.666385
C85	C	-0.057733	-0.165696	-0.000285
C86	C	0.275600	0.167637	0.333048
C87	C	0.608934	0.500971	0.666381
C88	C	-0.074617	-0.027736	-0.000282
C89	C	0.258716	0.305597	0.333052
C90	C	0.592049	0.638931	0.666385
C91	C	-0.147442	-0.028903	-0.000270
C92	C	0.185892	0.304431	0.333063
C93	C	0.519225	0.637764	0.666397
C94	C	-0.175408	-0.098467	-0.000274
C95	C	0.157925	0.234866	0.333060
C96	C	0.491259	0.568200	0.666393
C97	C	-0.819266	-0.239243	-0.000238
C98	C	-0.485932	0.094090	0.333095
C99	C	-0.152599	0.427424	0.666429
C100	C	-0.820500	-0.323259	-0.000244
C101	C	-0.487167	0.010074	0.333089
C102	C	-0.153834	0.343407	0.666423
N103	N	-0.824581	-0.100838	0.206318
N104	N	-0.491247	0.232495	0.539652
N105	N	-0.157914	0.565828	0.872985
C106	C	-0.891732	0.170264	-0.000240
C107	C	-0.558398	0.503597	0.333093
C108	C	-0.225065	0.836931	0.666427
C109	C	-0.890567	0.249206	-0.000247
C110	C	-0.557234	0.582539	0.333087
C111	C	-0.223901	0.915872	0.666420
C112	C	-0.826365	0.279442	-0.000232
C113	C	-0.493032	0.612775	0.333101
C114	C	-0.159698	0.946109	0.666435
C115	C	-0.763323	0.230732	-0.000219
C116	C	-0.429990	0.564065	0.333115
C117	C	-0.096657	0.897398	0.666448
C118	C	-0.764489	0.151791	-0.000218
C119	C	-0.431155	0.485125	0.333116
C120	C	-0.097822	0.818458	0.666449
C121	C	-0.758623	0.549089	-0.000224
C122	C	-0.425290	0.882422	0.333110
C123	C	-0.091956	1.215755	0.666443
C124	C	-0.757463	0.628035	-0.000222
C125	C	-0.424129	0.961368	0.333111
C126	C	-0.090796	1.294702	0.666444
C127	C	-0.884702	0.646503	-0.000253
C128	C	-0.551368	0.979836	0.333080
C129	C	-0.218035	1.313169	0.666414
C130	C	-0.885867	0.567563	-0.000252
C131	C	-0.552534	0.900896	0.333081
C132	C	-0.219200	1.234229	0.666415
C133	C	-0.822826	0.518859	-0.000243
C134	C	-0.489492	0.852193	0.333091
C135	C	-0.156159	1.185526	0.666424
C136	C	-0.824089	0.433262	-0.000237
C137	C	-0.490756	0.766595	0.333096
C138	C	-0.157422	1.099928	0.666430
C139	C	-0.825101	0.365038	-0.000232
C140	C	-0.491768	0.698371	0.333101
C141	C	-0.158434	1.031705	0.666435
N142	N	-0.824620	-0.100855	-0.206779
N143	N	-0.491287	0.232478	0.126554
N144	N	-0.157954	0.565811	0.459887
C145	C	-0.872148	-0.049248	0.248026
C146	C	-0.538815	0.284085	0.581359
C147	C	-0.205482	0.617419	0.914692
C148	C	-0.872152	-0.049247	0.331478
C149	C	-0.538819	0.284086	0.664811
C150	C	-0.205485	0.617419	0.998145
C151	C	-0.824591	-0.100841	0.373221
C152	C	-0.491258	0.232492	0.706555
C153	C	-0.157924	0.565826	1.039888
C154	C	-0.777018	-0.152434	0.331508
C155	C	-0.443685	0.180899	0.664841
C156	C	-0.110352	0.514233	0.998175
C157	C	-0.777012	-0.152430	0.248057
C158	C	-0.443678	0.180903	0.581391
C159	C	-0.110345	0.514236	0.914724
C160	C	-0.777044	-0.152449	0.668055
C161	C	-0.443710	0.180885	1.001388
C162	C	-0.110377	0.514218	1.334722
C163	C	-0.777055	-0.152450	0.751512
C164	C	-0.443722	0.180884	1.084845
C165	C	-0.110389	0.514217	1.418178
C166	C	-0.872184	-0.049266	0.751476
C167	C	-0.538851	0.284068	1.084809
C168	C	-0.205517	0.617401	1.418142
C169	C	-0.872177	-0.049262	0.668025
C170	C	-0.538844	0.284071	1.001358
C171	C	-0.205511	0.617405	1.334692
C172	C	-0.824602	-0.100852	0.626319
C173	C	-0.491269	0.232482	0.959652
C174	C	-0.157936	0.565815	1.292986
C175	C	-0.824598	-0.100851	0.535831
C176	C	-0.491265	0.232482	0.869164
C177	C	-0.157931	0.565816	1.202497
C178	C	-0.824598	-0.100846	0.463708
C179	C	-0.491265	0.232487	0.797041
C180	C	-0.157932	0.565820	1.130375
H181	H	-0.465238	-0.228486	-0.000211
H182	H	-0.131904	0.104847	0.333123
H183	H	0.201429	0.438181	0.666456
H184	H	-0.183958	0.026790	-0.000261
H185	H	0.149376	0.360123	0.333072
H186	H	0.482709	0.693456	0.666405
H187	H	-0.051841	0.028899	-0.000338
H188	H	0.281492	0.362232	0.332995
H189	H	0.614825	0.695566	0.666328
H190	H	-0.495860	0.021801	-0.000206
H191	H	-0.162527	0.355134	0.333127
H192	H	0.170806	0.688467	0.666460
H193	H	-0.153330	-0.223504	-0.000273
H194	H	0.180003	0.109829	0.333060
H195	H	0.513336	0.443163	0.666394
N196	N	-0.923465	0.006390	0.376460
N197	N	-0.590131	0.339724	0.709794
N198	N	-0.256798	0.673057	1.043127
H199	H	-0.916252	-0.001437	0.435660
H200	H	-0.582919	0.331897	0.768993
H201	H	-0.249585	0.665230	1.102327
H202	H	-0.915498	0.060064	0.361886
H203	H	-0.582164	0.393397	0.695220
H204	H	-0.248831	0.726731	1.028553
N205	N	-0.694074	0.263336	-0.000197
N206	N	-0.360741	0.596670	0.333136
N207	N	-0.027407	0.930003	0.666470
H208	H	-0.666467	0.245556	-0.049336
H209	H	-0.333134	0.578890	0.283997
H210	H	0.000199	0.912223	0.617331
H211	H	-0.702956	0.320730	-0.000166
H212	H	-0.369623	0.654064	0.333167
H213	H	-0.036290	0.987397	0.666501
N214	N	-0.725735	-0.208101	0.623090
N215	N	-0.392402	0.125232	0.956423
N216	N	-0.059069	0.458566	1.289756
H217	H	-0.752350	-0.241542	0.588445
H218	H	-0.419017	0.091791	0.921778
H219	H	-0.085684	0.425124	1.255111
H220	H	-0.694876	-0.179211	0.588536
H221	H	-0.361543	0.154122	0.921869
H222	H	-0.028209	0.487455	1.255203
N223	N	-0.725702	-0.208073	0.203074
N224	N	-0.392369	0.125260	0.536408
N225	N	-0.059036	0.458593	0.869741
H226	H	-0.733647	-0.261772	0.217580
H227	H	-0.400314	0.071561	0.550913
H228	H	-0.066981	0.404895	0.884246
H229	H	-0.732936	-0.200176	0.143889
H230	H	-0.399603	0.133158	0.477222
H231	H	-0.066270	0.466491	0.810556
H232	H	-0.910920	-0.007256	0.785442
H233	H	-0.577587	0.326077	1.118775
H234	H	-0.244253	0.659411	1.452108
N235	N	-0.923478	0.006382	0.623002
N236	N	-0.590144	0.339715	0.956335
N237	N	-0.256811	0.673048	1.289669
H238	H	-0.953612	0.039066	0.662087
H239	H	-0.620279	0.372400	0.995421
H240	H	-0.286946	0.705733	1.328754
H241	H	-0.896804	0.039771	0.588399
H242	H	-0.563470	0.373105	0.921732
H243	H	-0.230137	0.706438	1.255065
N244	N	-0.639842	0.037771	-0.000151
N245	N	-0.306509	0.371104	0.333183
N246	N	0.026825	0.704438	0.666516
H247	H	-0.611073	0.082014	-0.000154
H248	H	-0.277740	0.415347	0.333180
H249	H	0.055594	0.748681	0.666513
H250	H	-0.670448	0.040293	-0.049292
H251	H	-0.337115	0.373626	0.284041
H252	H	-0.003781	0.706959	0.617375
N253	N	-0.725751	-0.208095	0.796538
N254	N	-0.392418	0.125238	1.129871
N255	N	-0.059084	0.458571	1.463204
H256	H	-0.695608	-0.240774	0.757455
H257	H	-0.362275	0.092559	1.090788
H258	H	-0.028942	0.425892	1.424122
H259	H	-0.694948	-0.179193	0.831184
H260	H	-0.361614	0.154140	1.164517
H261	H	-0.028281	0.487473	1.497851
H262	H	-0.597349	-0.230598	-0.000196
H263	H	-0.264016	0.102736	0.333138
H264	H	0.069317	0.436069	0.666471
H265	H	-0.713157	0.112137	-0.000205
H266	H	-0.379824	0.445470	0.333128
H267	H	-0.046491	0.778803	0.666462
H268	H	-0.021218	-0.221391	-0.000294
H269	H	0.312115	0.111942	0.333040
H270	H	0.645448	0.445275	0.666373
N271	N	-0.725714	-0.208078	0.376526
N272	N	-0.392381	0.125256	0.709860
N273	N	-0.059048	0.458589	1.043193
H274	H	-0.732936	-0.200254	0.435721
H275	H	-0.399603	0.133080	0.769055
H276	H	-0.066270	0.466413	1.102388
H277	H	-0.733682	-0.261750	0.361924
H278	H	-0.400349	0.071584	0.695257
H279	H	-0.067015	0.404917	1.028591
H280	H	-0.944012	0.145652	-0.000247
H281	H	-0.610679	0.478986	0.333086
H282	H	-0.277346	0.812319	0.666420
N283	N	-0.958556	0.301738	-0.000256
N284	N	-0.625223	0.635072	0.333077
N285	N	-0.291889	0.968405	0.666410
H286	H	-0.986584	0.292030	-0.049405
H287	H	-0.653251	0.625364	0.283929
H288	H	-0.319918	0.958697	0.617262
H289	H	-0.986505	0.292018	0.048920
H290	H	-0.653172	0.625351	0.382254
H291	H	-0.319838	0.958684	0.715587
N292	N	-0.955113	0.534950	-0.000261
N293	N	-0.621779	0.868284	0.333072
N294	N	-0.288446	1.201617	0.666405
H295	H	-0.994871	0.577784	-0.000273
H296	H	-0.661538	0.911117	0.333060
H297	H	-0.328204	1.244450	0.666393
H298	H	-0.958372	0.502593	-0.049409
H299	H	-0.625039	0.835926	0.283924
H300	H	-0.291706	1.169260	0.617257
H301	H	-0.936033	0.686167	-0.000264
H302	H	-0.602700	1.019500	0.333069
H303	H	-0.269366	1.352834	0.666402
N304	N	-0.923442	0.006397	0.202995
N305	N	-0.590109	0.339731	0.536329
N306	N	-0.256775	0.673064	0.869662
H307	H	-0.972981	-0.002183	0.217487
H308	H	-0.639647	0.331150	0.550820
H309	H	-0.306314	0.664484	0.884154
H310	H	-0.915434	0.060069	0.217548
H311	H	-0.582100	0.393402	0.550881
H312	H	-0.248767	0.726736	0.884214
N313	N	-0.688213	0.660650	-0.000202
N314	N	-0.354880	0.993983	0.333131
N315	N	-0.021547	1.327316	0.666465
H316	H	-0.648453	0.617818	-0.000197
H317	H	-0.315120	0.951152	0.333137
H318	H	0.018214	1.284485	0.666470
H319	H	-0.684967	0.692999	-0.049346
H320	H	-0.351634	1.026332	0.283987
H321	H	-0.018301	1.359665	0.617320
H322	H	-0.707291	0.509443	-0.000216
H323	H	-0.373957	0.842777	0.333117
H324	H	-0.040624	1.176110	0.666451
