data_functionalizedCrystal
_audit_creation_method	'MofGen! by Chris Wilmer'
_symmetry_space_group_name_H-M	'P1'
_symmetry_Int_Tables_number	1
_symmetry_cell_setting	triclinic
loop_
_symmetry_equiv_pos_as_xyz
  x,y,z
_cell_length_a	19.805407
_cell_length_b	13.897448
_cell_length_c	19.805399
_cell_angle_alpha	89.973574
_cell_angle_beta	89.983114
_cell_angle_gamma	90.017692
loop_
_atom_site_label
_atom_site_type_symbol
_atom_site_fract_x
_atom_site_fract_y
_atom_site_fract_z
Zn1	Zn	1.034759	-0.384024	-0.382732
Zn2	Zn	1.034696	-0.545334	-0.269549
Zn3	Zn	0.921579	-0.384054	-0.269556
Zn4	Zn	0.921554	-0.545279	-0.382695
O5	O	0.978147	-0.464673	-0.326133
O6	O	1.129467	-0.405432	-0.367730
O7	O	1.019675	-0.523976	-0.174833
O8	O	0.936629	-0.249069	-0.284588
O9	O	1.129421	-0.523946	-0.284575
O10	O	1.019782	-0.249046	-0.367737
O11	O	0.936568	-0.405484	-0.174839
O12	O	0.826859	-0.405431	-0.284552
O13	O	0.936587	-0.523852	-0.477417
O14	O	0.826841	-0.523882	-0.367675
O15	O	1.019758	-0.405379	-0.477443
O16	O	1.019651	-0.680308	-0.284539
O17	O	0.936526	-0.680268	-0.367668
C18	C	0.802291	-0.464654	-0.326111
C19	C	0.727059	-0.464670	-0.326118
C20	C	0.691723	-0.526440	-0.369330
C21	C	0.621035	-0.526441	-0.369339
C22	C	0.585683	-0.464677	-0.326133
C23	C	0.621024	-0.402900	-0.282919
C24	C	0.691711	-0.402894	-0.282913
C25	C	0.335951	-0.402921	-0.282941
C26	C	0.265259	-0.402934	-0.282949
C27	C	0.265274	-0.526469	-0.369367
C28	C	0.335961	-0.526463	-0.369362
C29	C	0.371296	-0.464683	-0.326151
C30	C	0.447944	-0.464680	-0.326142
C31	C	0.509036	-0.464684	-0.326138
C32	C	0.978098	-0.715287	-0.326113
C33	C	0.978138	-0.822501	-0.326128
C34	C	0.978209	-1.018796	-0.326170
C35	C	0.978168	-0.909564	-0.326149
C36	C	1.154690	-0.464692	-0.326155
C37	C	1.229922	-0.464700	-0.326165
C38	C	0.978177	-0.464606	-0.502676
C39	C	0.978189	-0.464577	-0.577908
C40	C	0.978215	-0.213080	-0.326167
C41	C	0.978244	-0.105866	-0.326182
C42	C	0.934928	-0.402873	-0.613254
C43	C	0.934937	-0.402854	-0.683943
C44	C	0.978212	-0.464536	-0.719283
C45	C	1.021475	-0.526247	-0.683932
C46	C	1.021462	-0.526269	-0.613245
C47	C	1.021529	-0.526156	-0.969005
C48	C	1.021540	-0.526127	-1.039697
C49	C	0.935004	-0.402741	-1.039704
C50	C	0.934991	-0.402764	-0.969016
C51	C	0.978251	-0.464478	-0.933671
C52	C	0.978240	-0.464499	-0.857022
C53	C	0.978227	-0.464510	-0.795931
C54	C	0.978156	-0.464670	-0.150277
C55	C	0.978275	-0.464427	-0.075045
H56	H	0.236496	-0.576769	-0.404554
F57	F	0.729340	-0.592184	-0.415313
F58	F	0.583431	-0.592185	-0.415332
H59	H	0.236478	-0.352632	-0.247765
F60	F	0.373548	-0.337167	-0.236954
H61	H	0.592235	-0.352606	-0.247743
H62	H	0.720481	-0.352590	-0.247729
H63	H	0.364741	-0.576761	-0.404542
F64	F	0.888935	-0.337111	-0.931408
F65	F	0.888872	-0.337217	-0.575649
H66	H	0.899707	-0.352612	-0.712719
F67	F	0.888960	-0.337062	-1.077326
H68	H	1.056781	-0.576359	-1.068470
F69	F	1.067574	-0.591833	-0.931397
H70	H	1.056707	-0.576473	-0.712712
F71	F	1.067504	-0.591947	-0.575627
