data_functionalizedCrystal
_audit_creation_method	'MofGen! by Chris Wilmer'
_symmetry_space_group_name_H-M	'P1'
_symmetry_Int_Tables_number	1
_symmetry_cell_setting	triclinic
loop_
_symmetry_equiv_pos_as_xyz
  x,y,z
_cell_length_a	15.995350
_cell_length_b	14.971486
_cell_length_c	13.448316
_cell_angle_alpha	89.998199
_cell_angle_beta	90.002483
_cell_angle_gamma	96.446749
loop_
_atom_site_label
_atom_site_type_symbol
_atom_site_fract_x
_atom_site_fract_y
_atom_site_fract_z
O1	O	-0.109116	1.186823	-0.082568
O2	O	0.390884	1.686823	0.417432
O3	O	-0.122183	0.926408	-0.082594
O4	O	0.377817	1.426408	0.417406
O5	O	0.006231	1.063734	-0.082584
O6	O	0.506231	1.563734	0.417416
O7	O	-0.237530	1.049497	-0.082578
O8	O	0.262470	1.549497	0.417422
O9	O	0.006239	1.063717	0.082800
O10	O	0.506239	1.563717	0.582800
O11	O	-0.122175	0.926390	0.082790
O12	O	0.377825	1.426390	0.582790
O13	O	-0.109109	1.186805	0.082816
O14	O	0.390891	1.686805	0.582816
Cu15	Cu	-0.115641	1.056596	0.097904
Cu16	Cu	0.384359	1.556596	0.597904
Cu17	Cu	-0.115651	1.056617	-0.097682
Cu18	Cu	0.384349	1.556617	0.402318
O19	O	-0.237523	1.049479	0.082806
O20	O	0.262477	1.549479	0.582806
C21	C	-0.121595	0.893075	0.000094
C22	C	0.378405	1.393075	0.500094
C23	C	-0.119844	0.793780	0.000084
C24	C	0.380156	1.293780	0.500084
C25	C	-0.195284	0.736468	0.000087
C26	C	0.304716	1.236468	0.500087
C27	C	-0.193633	0.643171	0.000102
C28	C	0.306367	1.143171	0.500102
C29	C	-0.116542	0.607187	0.000106
C30	C	0.383458	1.107187	0.500106
C31	C	-0.041097	0.664505	0.000106
C32	C	0.458903	1.164505	0.500106
C33	C	-0.042748	0.757801	0.000098
C34	C	0.457252	1.257801	0.500098
C35	C	-0.037660	0.470047	0.000120
C36	C	0.462340	0.970047	0.500120
C37	C	-0.036008	0.376745	0.000125
C38	C	0.463992	0.876745	0.500125
C39	C	-0.188545	0.355417	0.000123
C40	C	0.311455	0.855417	0.500123
C41	C	-0.190197	0.448712	0.000116
C42	C	0.309803	0.948712	0.500116
C43	C	-0.114751	0.506025	0.000113
C44	C	0.385249	1.006025	0.500113
C45	C	-0.268722	1.050077	0.000115
C46	C	0.231278	1.550077	0.500115
C47	C	-0.361674	1.051841	0.000118
C48	C	0.138326	1.551841	0.500118
C49	C	-0.699428	1.058178	0.000103
C50	C	-0.199428	1.558178	0.500103
C51	C	-0.652092	1.155979	-0.000256
C52	C	-0.152092	1.655979	0.499744
C53	C	-0.555400	1.154214	0.000122
C54	C	-0.055400	1.654214	0.500122
C55	C	-0.531864	1.055035	0.000110
C56	C	-0.031864	1.555035	0.500110
C57	C	-0.572894	1.006786	0.094544
C58	C	-0.072894	1.506786	0.594544
C59	C	-0.669532	1.009243	0.094618
C60	C	-0.169532	1.509243	0.594618
C61	C	-0.669887	1.007242	-0.093455
C62	C	-0.169887	1.507242	0.406545
C63	C	-0.572942	1.007265	-0.094698
C64	C	-0.072942	1.507265	0.405302
C65	C	-0.437165	1.053253	0.000117
C66	C	0.062835	1.553253	0.500117
C67	C	-0.794127	1.059957	0.000103
C68	C	-0.294127	1.559957	0.500103
C69	C	0.037430	1.063137	0.000104
C70	C	0.537430	1.563137	0.500104
C71	C	0.130382	1.061372	0.000095
C72	C	0.630382	1.561372	0.500095
C73	C	-0.109697	1.220138	0.000125
C74	C	0.390303	1.720138	0.500125
C75	C	-0.111448	1.319433	0.000129
C76	C	0.388552	1.819433	0.500129
N77	N	-0.115634	1.056589	0.235468
N78	N	0.384366	1.556589	0.735468
N79	N	-0.115651	1.056632	-0.235246
N80	N	0.384349	1.556632	0.264754
C81	C	-0.058796	1.117415	0.287513
C82	C	0.441204	1.617415	0.787513
C83	C	-0.058795	1.117421	0.391616
C84	C	0.441205	1.617421	0.891616
C85	C	-0.115637	1.056603	0.443672
C86	C	0.384363	1.556603	0.943672
C87	C	-0.172478	0.995770	0.391620
C88	C	0.327522	1.495770	0.891620
C89	C	-0.172474	0.995761	0.287519
C90	C	0.327526	1.495761	0.787519
C91	C	-0.172484	0.995795	0.608600
C92	C	0.327516	1.495795	1.108600
C93	C	-0.172489	0.995805	0.712709
C94	C	0.327511	1.495805	1.212709
C95	C	-0.058805	1.117455	0.712697
C96	C	0.441195	1.617455	1.212697
C97	C	-0.058801	1.117446	0.608596
C98	C	0.441199	1.617446	1.108596
C99	C	-0.115643	1.056613	0.556551
C100	C	0.384357	1.556613	1.056551
H101	H	-0.255064	0.596511	0.000104
H102	H	0.244936	1.096511	0.500104
N103	N	-0.273342	0.487528	0.000092
N104	N	0.226658	0.987528	0.500092
H105	H	-0.320886	0.437066	0.000093
H106	H	0.179114	0.937066	0.500093
H107	H	-0.277351	0.525779	0.061395
H108	H	0.222649	1.025779	0.561395
N109	N	-0.517794	1.204465	-0.089534
N110	N	-0.017794	1.704465	0.410466
H111	H	-0.454769	1.203417	-0.089455
H112	H	0.045231	1.703417	0.410545
H113	H	-0.542355	1.174832	-0.152101
H114	H	-0.042355	1.674832	0.347899
N115	N	-0.269921	0.293608	0.000122
N116	N	0.230079	0.793608	0.500122
H117	H	-0.257180	0.229045	0.000132
H118	H	0.242820	0.729045	0.500132
H119	H	-0.303516	0.305262	0.061427
H120	H	0.196484	0.805262	0.561427
N121	N	0.002493	1.183035	0.447762
N122	N	0.502493	1.683035	0.947762
H123	H	-0.029586	1.222622	0.490942
H124	H	0.470414	1.722622	0.990942
H125	H	0.039605	1.148804	0.490910
H126	H	0.539605	1.648804	0.990910
N127	N	-0.536831	1.053924	-0.187243
N128	N	-0.036831	1.553924	0.312757
H129	H	-0.494040	1.105789	-0.167849
H130	H	0.005960	1.605789	0.332151
H131	H	-0.508788	1.009883	-0.229149
H132	H	-0.008788	1.509883	0.270851
N133	N	-0.676686	1.207761	-0.089971
N134	N	-0.176686	1.707761	0.410029
H135	H	-0.739290	1.211757	-0.088679
H136	H	-0.239290	1.711757	0.411321
H137	H	-0.645556	1.270293	-0.088722
H138	H	-0.145556	1.770293	0.411278
H139	H	-0.687869	1.044413	0.165217
H140	H	-0.187869	1.544413	0.665217
H141	H	-0.218769	0.946255	0.566229
H142	H	0.281231	1.446255	1.066229
H143	H	-0.218775	0.946280	0.755088
H144	H	0.281225	1.446280	1.255088
H145	H	-0.218758	0.946247	0.434011
H146	H	0.281242	1.446247	0.934011
N147	N	-0.712162	0.914136	0.100288
N148	N	-0.212162	1.414136	0.600288
H149	H	-0.668152	0.870802	0.102734
H150	H	-0.168152	1.370802	0.602734
H151	H	-0.748039	0.906974	0.162188
H152	H	-0.248039	1.406974	0.662188
H153	H	-0.557503	0.934942	-0.100412
H154	H	-0.057503	1.434942	0.399588
H155	H	-0.012512	1.166944	0.245135
H156	H	0.487488	1.666944	0.745135
N157	N	-0.678093	1.207529	0.088952
N158	N	-0.178093	1.707529	0.588952
H159	H	-0.720401	1.167804	0.129597
H160	H	-0.220401	1.667804	0.629597
H161	H	-0.627004	1.227029	0.131055
H162	H	-0.127004	1.727029	0.631055
N163	N	-0.233774	0.930151	0.231380
N164	N	0.266226	1.430151	0.731380
H165	H	-0.269785	0.891624	0.280152
H166	H	0.230215	1.391624	0.780152
H167	H	-0.270843	0.964381	0.188174
H168	H	0.229157	1.464381	0.688174
H169	H	-0.544555	1.040291	0.164830
H170	H	-0.044555	1.540291	0.664830
N171	N	0.047144	0.337944	0.000151
N172	N	0.547144	0.837944	0.500151
H173	H	0.051220	0.299714	0.061465
H174	H	0.551220	0.799714	0.561465
H175	H	0.051192	0.299754	-0.061192
H176	H	0.551192	0.799754	0.438808
N177	N	0.043712	0.531865	0.000124
N178	N	0.543712	1.031865	0.500124
H179	H	0.092800	0.494914	0.000124
H180	H	0.592800	0.994914	0.500124
H181	H	0.046345	0.571036	-0.061189
H182	H	0.546345	1.071036	0.438811
N183	N	0.042048	0.625687	0.000110
N184	N	0.542048	1.125687	0.500110
H185	H	0.075102	0.646585	-0.061199
H186	H	0.575102	1.146585	0.438801
H187	H	0.075039	0.646595	0.061458
H188	H	0.575039	1.146595	0.561458
H189	H	-0.258060	0.765759	0.000083
H190	H	0.241940	1.265759	0.500083
N191	N	-0.554090	0.910268	0.099197
N192	N	-0.054090	1.410268	0.599197
H193	H	-0.518708	0.896859	0.039993
H194	H	-0.018708	1.396859	0.539993
H195	H	-0.522427	0.900340	0.162492
H196	H	-0.022427	1.400340	0.662492
N197	N	0.038619	0.819620	0.000102
N198	N	0.538619	1.319620	0.500102
H199	H	0.087707	0.782670	0.000106
H200	H	0.587707	1.282670	0.500106
H201	H	0.041257	0.858795	-0.061208
H202	H	0.541257	1.358795	0.438792
N203	N	-0.518530	1.204763	0.089956
N204	N	-0.018530	1.704763	0.589956
H205	H	-0.531947	1.269043	0.087055
H206	H	-0.031947	1.769043	0.587055
H207	H	-0.543466	1.175216	0.152384
H208	H	-0.043466	1.675216	0.652384
N209	N	0.002503	1.183071	0.768823
N210	N	0.502503	1.683071	1.268823
H211	H	-0.006120	1.173848	0.842670
H212	H	0.493880	1.673848	1.342670
H213	H	0.061921	1.172747	0.750632
H214	H	0.561921	1.672747	1.250632
N215	N	-0.697134	1.049600	-0.188273
N216	N	-0.197134	1.549600	0.311727
H217	H	-0.728909	1.102242	-0.171538
H218	H	-0.228909	1.602242	0.328462
H219	H	-0.645900	1.071149	-0.229249
H220	H	-0.145900	1.571149	0.270751
N221	N	-0.711860	0.911728	-0.094313
N222	N	-0.211860	1.411728	0.405687
H223	H	-0.774931	0.912054	-0.096895
H224	H	-0.274931	1.412054	0.403105
H225	H	-0.692579	0.879387	-0.154579
H226	H	-0.192579	1.379387	0.345421
N227	N	0.002502	1.183041	0.552441
N228	N	0.502502	1.683041	1.052441
H229	H	-0.007240	1.246522	0.570544
H230	H	0.492760	1.746522	1.070544
H231	H	0.061919	1.172670	0.570583
H232	H	0.561919	1.672670	1.070583
