data_functionalizedCrystal
_audit_creation_method	'MofGen! by Chris Wilmer'
_symmetry_space_group_name_H-M	'P1'
_symmetry_Int_Tables_number	1
_symmetry_cell_setting	triclinic
loop_
_symmetry_equiv_pos_as_xyz
  x,y,z
_cell_length_a	14.908993
_cell_length_b	16.120444
_cell_length_c	14.908294
_cell_angle_alpha	95.986824
_cell_angle_beta	96.371074
_cell_angle_gamma	96.051849
loop_
_atom_site_label
_atom_site_type_symbol
_atom_site_fract_x
_atom_site_fract_y
_atom_site_fract_z
Zn1	Zn	1.337642	-0.284423	-0.448593
Zn2	Zn	1.670975	0.048910	-0.115260
Zn3	Zn	2.004308	0.382244	0.218073
Zn4	Zn	1.338595	-0.416138	-0.304903
Zn5	Zn	1.671929	-0.082804	0.028430
Zn6	Zn	2.005262	0.250529	0.361764
Zn7	Zn	1.195014	-0.284463	-0.305974
Zn8	Zn	1.528347	0.048871	0.027360
Zn9	Zn	1.861680	0.382204	0.360693
Zn10	Zn	1.177566	-0.433266	-0.465930
Zn11	Zn	1.510899	-0.099932	-0.132597
Zn12	Zn	1.844233	0.233401	0.200736
O13	O	1.262204	-0.354572	-0.381350
O14	O	1.595537	-0.021239	-0.048017
O15	O	1.928871	0.312094	0.285317
O16	O	1.464850	-0.294711	-0.421829
O17	O	1.798183	0.038623	-0.088495
O18	O	2.131516	0.371956	0.244838
O19	O	1.327250	-0.391519	-0.177968
O20	O	1.660583	-0.058186	0.155366
O21	O	1.993917	0.275147	0.488699
O22	O	1.220836	-0.167060	-0.318085
O23	O	1.554170	0.166273	0.015248
O24	O	1.887503	0.499607	0.348581
O25	O	1.465550	-0.391481	-0.316260
O26	O	1.798884	-0.058147	0.017073
O27	O	2.132217	0.275186	0.350407
O28	O	1.325624	-0.167031	-0.422867
O29	O	1.658958	0.166303	-0.089534
O30	O	1.992291	0.499636	0.243799
O31	O	1.221761	-0.294778	-0.178754
O32	O	1.555094	0.038555	0.154579
O33	O	1.888428	0.371889	0.487912
O34	O	1.065618	-0.311386	-0.334896
O35	O	1.398951	0.021947	-0.001563
O36	O	1.732284	0.355280	0.331771
O37	O	1.191099	-0.420673	-0.590708
O38	O	1.524433	-0.087339	-0.257374
O39	O	1.857766	0.245994	0.075959
O40	O	1.052799	-0.420711	-0.452415
O41	O	1.386132	-0.087378	-0.119082
O42	O	1.719465	0.245955	0.214251
O43	O	1.308706	-0.311319	-0.577970
O44	O	1.642040	0.022015	-0.244637
O45	O	1.975373	0.355348	0.088696
O46	O	1.310332	-0.535807	-0.333071
O47	O	1.643665	-0.202474	0.000263
O48	O	1.976998	0.130859	0.333596
O49	O	1.192024	-0.548391	-0.451377
O50	O	1.525358	-0.215058	-0.118044
O51	O	1.858691	0.118276	0.215290
C52	C	1.026257	-0.367912	-0.395654
C53	C	1.359591	-0.034579	-0.062321
C54	C	1.692924	0.298754	0.271013
C55	C	0.925316	-0.373641	-0.401796
C56	C	1.258649	-0.040307	-0.068462
C57	C	1.591982	0.293026	0.264871
C58	C	1.249412	-0.572539	-0.394007
C59	C	1.582745	-0.239205	-0.060674
C60	C	1.916078	0.094128	0.272659
C61	C	1.244020	-0.665783	-0.399447
C62	C	1.577353	-0.332449	-0.066114
C63	C	1.910687	0.000884	0.267219
C64	C	0.748931	-0.270413	-0.291117
C65	C	1.082265	0.062921	0.042216
C66	C	1.415598	0.396254	0.375550
C67	C	0.654088	-0.275792	-0.296885
C68	C	0.987421	0.057541	0.036448
C69	C	1.320755	0.390875	0.369782
C70	C	0.640784	-0.389782	-0.419094
C71	C	0.974117	-0.056449	-0.085761
C72	C	1.307451	0.276884	0.247573
C73	C	0.735627	-0.384403	-0.413326
C74	C	1.068961	-0.051070	-0.079993
C75	C	1.402294	0.282264	0.253340
C76	C	0.789698	-0.324715	-0.349337
C77	C	1.123031	0.008618	-0.016003
C78	C	1.456365	0.341951	0.317330
C79	C	0.884543	-0.319332	-0.343574
C80	C	1.217876	0.014001	-0.010240
C81	C	1.551210	0.347334	0.323093
C82	C	0.871237	-0.433326	-0.465778
C83	C	1.204571	-0.099993	-0.132445
C84	C	1.537904	0.233341	0.200889
C85	C	0.776394	-0.438705	-0.471546
C86	C	1.109727	-0.105372	-0.138212
C87	C	1.443061	0.227961	0.195121
C88	C	1.290383	-0.871790	-0.353311
C89	C	1.623716	-0.538457	-0.019978
C90	C	1.957050	-0.205123	0.313356
C91	C	1.234193	-0.836494	-0.409388
C92	C	1.567526	-0.503161	-0.076055
C93	C	1.900860	-0.169828	0.257278
C94	C	1.239662	-0.741501	-0.403855
C95	C	1.572996	-0.408168	-0.070522
C96	C	1.906329	-0.074835	0.262811
C97	C	1.284915	-0.966791	-0.358843
C98	C	1.618248	-0.633458	-0.025509
C99	C	1.951581	-0.300125	0.307824
C100	C	1.499072	-0.341181	-0.366991
C101	C	1.832406	-0.007847	-0.033658
C102	C	2.165739	0.325486	0.299676
C103	C	1.600011	-0.335474	-0.360872
C104	C	1.933345	-0.002141	-0.027539
C105	C	2.266678	0.331193	0.305795
C106	C	1.247850	-0.367902	-0.618210
C107	C	1.581183	-0.034569	-0.284877
C108	C	1.914517	0.298765	0.048457
C109	C	1.241733	-0.373582	-0.719146
C110	C	1.575067	-0.040249	-0.385812
C111	C	1.908400	0.293084	-0.052479
C112	C	1.275070	-0.135754	-0.368662
C113	C	1.608404	0.197579	-0.035328
C114	C	1.941737	0.530912	0.298005
C115	C	1.280553	-0.042507	-0.363255
C116	C	1.613886	0.290826	-0.029922
C117	C	1.947220	0.624160	0.303412
C118	C	1.171883	-0.438513	-0.868042
C119	C	1.505216	-0.105179	-0.534709
C120	C	1.838550	0.228154	-0.201375
C121	C	1.177628	-0.433182	-0.773205
C122	C	1.510962	-0.099848	-0.439871
C123	C	1.844295	0.233485	-0.106538
C124	C	1.300095	-0.319308	-0.759931
C125	C	1.633429	0.014025	-0.426597
C126	C	1.966762	0.347359	-0.093264
C127	C	1.294350	-0.324639	-0.854768
C128	C	1.627684	0.008694	-0.521435
C129	C	1.961017	0.342028	-0.188102
C130	C	1.230243	-0.384244	-0.908821
C131	C	1.563576	-0.050911	-0.575488
C132	C	1.896909	0.282422	-0.242154
C133	C	1.224502	-0.389579	-1.003660
C134	C	1.557836	-0.056245	-0.670327
C135	C	1.891169	0.277088	-0.336994
C136	C	1.346965	-0.275701	-0.990385
C137	C	1.680298	0.057632	-0.657051
C138	C	2.013631	0.390965	-0.323718
C139	C	1.352710	-0.270370	-0.895547
C140	C	1.686043	0.062963	-0.562214
C141	C	2.019377	0.396296	-0.228881
C142	C	1.276558	-0.341231	-0.145405
C143	C	1.609891	-0.007898	0.187929
C144	C	1.943225	0.325436	0.521262
C145	C	1.282865	-0.335304	-0.044445
C146	C	1.616198	-0.001971	0.288888
C147	C	1.949531	0.331362	0.622221
H148	H	0.928566	-0.270727	-0.291475
H149	H	1.261899	0.062606	0.041858
H150	H	1.595233	0.395940	0.375191
Br151	Br	1.147163	-0.905033	-0.496332
Br152	Br	1.480497	-0.571699	-0.162998
Br153	Br	1.813830	-0.238366	0.170335
H154	H	1.342593	-0.830670	-0.301149
H155	H	1.675926	-0.497337	0.032184
H156	H	2.009259	-0.164004	0.365517
Br157	Br	0.822317	-0.189402	-0.204287
Br158	Br	1.155650	0.143931	0.129046
Br159	Br	1.488984	0.477265	0.462379
Br160	Br	1.137504	-0.470473	-1.077017
Br161	Br	1.470838	-0.137139	-0.743684
Br162	Br	1.804171	0.196194	-0.410350
Br163	Br	0.598764	-0.202097	-0.217865
Br164	Br	0.932097	0.131237	0.115468
Br165	Br	1.265431	0.464570	0.448801
Br166	Br	1.084893	-0.519411	-0.941403
Br167	Br	1.418226	-0.186078	-0.608070
Br168	Br	1.751560	0.147255	-0.274737
Br169	Br	1.098418	-0.506831	-0.717864
Br170	Br	1.431752	-0.173498	-0.384531
Br171	Br	1.765085	0.159836	-0.051197
H172	H	1.394487	-0.231513	-1.023596
H173	H	1.727820	0.101820	-0.690263
H174	H	2.061154	0.435154	-0.356930
H175	H	1.404902	-0.221840	-0.851525
H176	H	1.738235	0.111494	-0.518192
H177	H	2.071569	0.444827	-0.184858
H178	H	0.596744	-0.438384	-0.471183
H179	H	0.930077	-0.105051	-0.137850
H180	H	1.263411	0.228283	0.195483
H181	H	1.352284	-0.270776	-0.715905
H182	H	1.685617	0.062557	-0.382572
H183	H	2.018951	0.395890	-0.049239
H184	H	0.732357	-0.487303	-0.523642
H185	H	1.065690	-0.153970	-0.190308
H186	H	1.399024	0.179363	0.143025
H187	H	0.904439	-0.477539	-0.513189
H188	H	1.237772	-0.144206	-0.179856
H189	H	1.571106	0.189128	0.153477
