data_functionalizedCrystal
_audit_creation_method	'MofGen! by Chris Wilmer'
_symmetry_space_group_name_H-M	'P1'
_symmetry_Int_Tables_number	1
_symmetry_cell_setting	triclinic
loop_
_symmetry_equiv_pos_as_xyz
  x,y,z
_cell_length_a	16.959455
_cell_length_b	29.839131
_cell_length_c	16.959447
_cell_angle_alpha	89.966004
_cell_angle_beta	89.983056
_cell_angle_gamma	90.038367
loop_
_atom_site_label
_atom_site_type_symbol
_atom_site_fract_x
_atom_site_fract_y
_atom_site_fract_z
Zn1	Zn	1.208287	-0.178881	-0.446889
Zn2	Zn	1.541620	0.154453	-0.113556
Zn3	Zn	1.874954	0.487786	0.219778
Zn4	Zn	1.208154	-0.254014	-0.314702
Zn5	Zn	1.541487	0.079319	0.018631
Zn6	Zn	1.874821	0.412653	0.351965
Zn7	Zn	1.076109	-0.178895	-0.314726
Zn8	Zn	1.409443	0.154438	0.018607
Zn9	Zn	1.742776	0.487772	0.351940
Zn10	Zn	1.076031	-0.253980	-0.446841
Zn11	Zn	1.409364	0.079353	-0.113507
Zn12	Zn	1.742698	0.412686	0.219826
O13	O	1.142145	-0.216443	-0.380790
O14	O	1.475479	0.116891	-0.047456
O15	O	1.808812	0.450224	0.285877
O16	O	1.318880	-0.188855	-0.429364
O17	O	1.652214	0.144478	-0.096031
O18	O	1.985547	0.477811	0.237303
O19	O	1.190615	-0.244069	-0.204094
O20	O	1.523949	0.089264	0.129239
O21	O	1.857282	0.422597	0.462572
O22	O	1.093731	-0.116026	-0.332288
O23	O	1.427065	0.217307	0.001045
O24	O	1.760398	0.550641	0.334378
O25	O	1.318783	-0.244056	-0.332247
O26	O	1.652116	0.089278	0.001086
O27	O	1.985449	0.422611	0.334420
O28	O	1.190842	-0.116015	-0.429388
O29	O	1.524175	0.217318	-0.096054
O30	O	1.857508	0.550651	0.237279
O31	O	1.093603	-0.188880	-0.204112
O32	O	1.426936	0.144454	0.129221
O33	O	1.760269	0.477787	0.462554
O34	O	0.965488	-0.188847	-0.332242
O35	O	1.298821	0.144486	0.001092
O36	O	1.632155	0.477820	0.334425
O37	O	1.093598	-0.243998	-0.557458
O38	O	1.426931	0.089335	-0.224125
O39	O	1.760264	0.422668	0.109209
O40	O	0.965430	-0.244012	-0.429305
O41	O	1.298764	0.089321	-0.095972
O42	O	1.632097	0.422655	0.237361
O43	O	1.190766	-0.188823	-0.557493
O44	O	1.524099	0.144511	-0.224160
O45	O	1.857432	0.477844	0.109173
O46	O	1.190539	-0.316877	-0.332200
O47	O	1.523873	0.016457	0.001133
O48	O	1.857206	0.349790	0.334467
O49	O	1.093469	-0.316852	-0.429282
O50	O	1.426802	0.016481	-0.095948
O51	O	1.760136	0.349815	0.237385
C52	C	0.936779	-0.216428	-0.380771
C53	C	1.270112	0.116906	-0.047438
C54	C	1.603446	0.450239	0.285895
C55	C	0.848922	-0.216432	-0.380782
C56	C	1.182256	0.116901	-0.047449
C57	C	1.515589	0.450234	0.285884
C58	C	0.477453	-0.187695	-0.330354
C59	C	0.810786	0.145639	0.002979
C60	C	1.144119	0.478972	0.336313
C61	C	0.477441	-0.245227	-0.431270
C62	C	0.810775	0.088106	-0.097937
C63	C	1.144108	0.421439	0.235396
C64	C	0.559987	-0.245221	-0.431265
C65	C	0.893320	0.088112	-0.097932
C66	C	1.226654	0.421446	0.235401
C67	C	0.601270	-0.216451	-0.380803
C68	C	0.934603	0.116882	-0.047470
C69	C	1.267936	0.450215	0.285863
C70	C	0.560006	-0.187688	-0.330346
C71	C	0.893339	0.145645	0.002987
C72	C	1.226673	0.478978	0.336321
C73	C	0.601257	-0.273987	-0.481716
C74	C	0.934590	0.059346	-0.148383
C75	C	1.267923	0.392680	0.184950
C76	C	0.683808	-0.273982	-0.481713
C77	C	1.017141	0.059351	-0.148379
C78	C	1.350474	0.392685	0.184954
C79	C	0.725092	-0.245210	-0.431254
C80	C	1.058425	0.088124	-0.097921
C81	C	1.391758	0.421457	0.235413
C82	C	0.683823	-0.216445	-0.380795
C83	C	1.017156	0.116888	-0.047462
C84	C	1.350490	0.450222	0.285871
C85	C	0.725105	-0.187675	-0.330333
C86	C	1.058439	0.145658	0.003000
C87	C	1.391772	0.478991	0.336334
C88	C	0.683838	-0.158908	-0.279878
C89	C	1.017172	0.174425	0.053456
C90	C	1.350505	0.507759	0.386789
C91	C	0.601290	-0.158916	-0.279887
C92	C	0.934623	0.174417	0.053446
C93	C	1.267957	0.507751	0.386780
C94	C	0.807640	-0.245202	-0.431245
C95	C	1.140973	0.088132	-0.097911
C96	C	1.474307	0.421465	0.235422
C97	C	0.807659	-0.187669	-0.330325
C98	C	1.140992	0.145664	0.003008
C99	C	1.474326	0.478998	0.336342
C100	C	1.142003	-0.333165	-0.380750
C101	C	1.475336	0.000168	-0.047417
C102	C	1.808669	0.333502	0.285916
C103	C	1.142014	-0.383100	-0.380760
C104	C	1.475347	-0.049766	-0.047427
C105	C	1.808681	0.283567	0.285907
C106	C	1.192782	-0.692743	-0.330313
C107	C	1.526115	-0.359410	0.003020
C108	C	1.859448	-0.026076	0.336354
C109	C	1.192879	-0.880416	-0.330344
C110	C	1.526213	-0.547083	0.002990
C111	C	1.859546	-0.213750	0.336323
O112	O	1.235931	-0.904681	-0.287422
O113	O	1.569264	-0.571348	0.045912
O114	O	1.902598	-0.238015	0.379245
N115	N	1.142309	-0.903885	-0.380849
N116	N	1.475643	-0.570551	-0.047516
N117	N	1.808976	-0.237218	0.285818
C118	C	1.091715	-0.880432	-0.431354
C119	C	1.425048	-0.547098	-0.098021
C120	C	1.758381	-0.213765	0.235312
O121	O	1.048710	-0.904699	-0.474319
O122	O	1.382043	-0.571366	-0.140985
O123	O	1.715376	-0.238033	0.192348
C124	C	1.091622	-0.692760	-0.431327
C125	C	1.424955	-0.359426	-0.097994
C126	C	1.758288	-0.026093	0.235340
C127	C	1.142190	-0.669294	-0.380812
C128	C	1.475523	-0.335960	-0.047479
C129	C	1.808856	-0.002627	0.285854
C130	C	1.243346	-0.669277	-0.279803
C131	C	1.576679	-0.335944	0.053530
C132	C	1.910013	-0.002610	0.386863
C133	C	1.243318	-0.622362	-0.279793
C134	C	1.576651	-0.289028	0.053540
C135	C	1.909985	0.044305	0.386874
C136	C	1.192726	-0.598912	-0.330293
C137	C	1.526059	-0.265579	0.003041
C138	C	1.859393	0.067754	0.336374
C139	C	1.142162	-0.622378	-0.380802
C140	C	1.475495	-0.289045	-0.047469
C141	C	1.808828	0.044288	0.285864
C142	C	1.041032	-0.669308	-0.481835
C143	C	1.374365	-0.335974	-0.148502
C144	C	1.707699	-0.002641	0.184831
C145	C	1.041015	-0.622387	-0.481826
C146	C	1.374348	-0.289053	-0.148492
C147	C	1.707681	0.044280	0.184841
C148	C	1.091582	-0.598921	-0.431311
C149	C	1.424916	-0.265587	-0.097978
C150	C	1.758249	0.067746	0.235356
C151	C	1.091541	-0.552013	-0.431292
C152	C	1.424875	-0.218680	-0.097958
C153	C	1.758208	0.114653	0.235375
N154	N	1.142112	-0.528545	-0.380786
N155	N	1.475445	-0.195212	-0.047453
N156	N	1.808778	0.138122	0.285881
C157	C	1.192704	-0.551994	-0.330287
C158	C	1.526037	-0.218661	0.003047
C159	C	1.859370	0.114672	0.336380
C160	C	1.091766	-0.978962	-0.431364
C161	C	1.425099	-0.645629	-0.098031
C162	C	1.758433	-0.312296	0.235303
C163	C	1.091788	-1.025880	-0.431370
C164	C	1.425121	-0.692547	-0.098036
C165	C	1.758455	-0.359214	0.235297
C166	C	1.192954	-1.025861	-0.330360
C167	C	1.526287	-0.692528	0.002973
C168	C	1.859621	-0.359195	0.336307
C169	C	1.192927	-0.978943	-0.330351
C170	C	1.526261	-0.645609	0.002983
C171	C	1.859594	-0.312276	0.336316
C172	C	1.142336	-0.955494	-0.380858
C173	C	1.475670	-0.622161	-0.047525
C174	C	1.809003	-0.288827	0.285808
C175	C	1.192641	-0.453469	-0.330268
C176	C	1.525974	-0.120135	0.003065
C177	C	1.859308	0.213198	0.336398
C178	C	1.192606	-0.406549	-0.330260
C179	C	1.525939	-0.073216	0.003073
C180	C	1.859273	0.260118	0.336406
C181	C	1.091444	-0.406572	-0.431273
C182	C	1.424777	-0.073239	-0.097939
C183	C	1.758110	0.260095	0.235394
C184	C	1.091475	-0.453487	-0.431278
C185	C	1.424808	-0.120154	-0.097945
C186	C	1.758142	0.213179	0.235388
C187	C	1.142080	-0.476935	-0.380773
C188	C	1.475413	-0.143601	-0.047440
C189	C	1.808747	0.189732	0.285893
O190	O	1.048519	-0.527719	-0.474197
O191	O	1.381852	-0.194386	-0.140864
O192	O	1.715185	0.138947	0.192469
O193	O	1.235715	-0.527719	-0.287341
O194	O	1.569048	-0.194385	0.045992
O195	O	1.902381	0.138948	0.379326
C196	C	1.192810	-0.739659	-0.330323
C197	C	1.526143	-0.406325	0.003010
C198	C	1.859476	-0.072992	0.336344
C199	C	1.142245	-0.763125	-0.380833
C200	C	1.475579	-0.429791	-0.047500
C201	C	1.808912	-0.096458	0.285834
C202	C	1.091653	-0.739675	-0.431332
C203	C	1.424987	-0.406342	-0.097999
C204	C	1.758320	-0.073008	0.235334
C205	C	1.142268	-0.810042	-0.380839
C206	C	1.475601	-0.476709	-0.047506
C207	C	1.808934	-0.143376	0.285828
C208	C	1.192860	-0.833492	-0.330339
C209	C	1.526193	-0.500159	0.002994
C210	C	1.859526	-0.166825	0.336327
C211	C	1.243430	-0.810023	-0.279834
C212	C	1.576763	-0.476690	0.053499
C213	C	1.910097	-0.143357	0.386833
C214	C	1.243402	-0.763108	-0.279824
C215	C	1.576735	-0.429775	0.053510
C216	C	1.910069	-0.096441	0.386843
C217	C	1.041083	-0.763144	-0.481838
C218	C	1.374416	-0.429810	-0.148505
C219	C	1.707750	-0.096477	0.184829
C220	C	1.041114	-0.810059	-0.481843
C221	C	1.374448	-0.476726	-0.148510
C222	C	1.707781	-0.143392	0.184823
C223	C	1.091707	-0.833508	-0.431344
C224	C	1.425040	-0.500175	-0.098010
C225	C	1.758373	-0.166842	0.235323
C226	C	1.348313	-0.216458	-0.380808
C227	C	1.681647	0.116876	-0.047475
C228	C	2.014980	0.450209	0.285859
C229	C	1.436170	-0.216464	-0.380816
C230	C	1.769503	0.116869	-0.047483
C231	C	2.102837	0.450202	0.285851
C232	C	1.142188	-0.216405	-0.586958
C233	C	1.475521	0.116928	-0.253624
C234	C	1.808854	0.450261	0.079709
C235	C	1.142206	-0.216389	-0.674814
C236	C	1.475539	0.116944	-0.341481
C237	C	1.808872	0.450277	-0.008148
C238	C	1.142310	-0.099264	-0.380846
C239	C	1.475643	0.234069	-0.047513
C240	C	1.808977	0.567403	0.285821
C241	C	1.142380	-0.049330	-0.380870
C242	C	1.475714	0.284004	-0.047537
C243	C	1.809047	0.617337	0.285796
C244	C	1.091765	-0.187607	-1.046306
C245	C	1.425099	0.145726	-0.712973
C246	C	1.758432	0.479060	-0.379639
C247	C	1.192785	-0.245077	-1.046275
C248	C	1.526119	0.088257	-0.712941
C249	C	1.859452	0.421590	-0.379608
C250	C	1.192772	-0.245087	-0.963729
C251	C	1.526105	0.088246	-0.630395
C252	C	1.859438	0.421579	-0.297062
C253	C	1.142253	-0.216358	-0.922468
C254	C	1.475587	0.116976	-0.589134
C255	C	1.808920	0.450309	-0.255801
C256	C	1.091748	-0.187618	-0.963752
C257	C	1.425082	0.145716	-0.630419
C258	C	1.758415	0.479049	-0.297086
C259	C	1.243270	-0.273830	-0.922438
C260	C	1.576603	0.059503	-0.589105
C261	C	1.909937	0.392837	-0.255771
C262	C	1.243258	-0.273842	-0.839887
C263	C	1.576591	0.059491	-0.506554
C264	C	1.909924	0.392825	-0.173220
C265	C	1.192743	-0.245110	-0.798624
C266	C	1.526076	0.088224	-0.465291
C267	C	1.859409	0.421557	-0.131958
C268	C	1.142236	-0.216368	-0.839914
C269	C	1.475570	0.116965	-0.506581
C270	C	1.808903	0.450298	-0.173247
C271	C	1.091718	-0.187639	-0.798653
C272	C	1.425051	0.145695	-0.465319
C273	C	1.758384	0.479028	-0.131986
C274	C	1.041215	-0.158895	-0.839941
C275	C	1.374548	0.174439	-0.506608
C276	C	1.707882	0.507772	-0.173274
C277	C	1.041233	-0.158886	-0.922490
C278	C	1.374567	0.174448	-0.589156
C279	C	1.707900	0.507781	-0.255823
C280	C	1.192724	-0.245119	-0.716076
C281	C	1.526058	0.088215	-0.382742
C282	C	1.859391	0.421548	-0.049409
C283	C	1.091701	-0.187649	-0.716099
C284	C	1.425034	0.145684	-0.382766
C285	C	1.758368	0.479017	-0.049433
C286	C	1.142149	-0.216447	-0.175423
C287	C	1.475482	0.116886	0.157910
C288	C	1.808815	0.450219	0.491243
C289	C	1.142284	-0.216337	-0.087567
C290	C	1.475617	0.116997	0.245766
C291	C	1.808950	0.450330	0.579100
H292	H	0.567639	-0.297413	-0.522794
H293	H	0.900972	0.035921	-0.189461
H294	H	1.234305	0.369254	0.143873
Cl295	Cl	1.028282	-0.151472	-1.098208
Cl296	Cl	1.361616	0.181861	-0.764875
Cl297	Cl	1.694949	0.515195	-0.431542
Cl298	Cl	0.735679	-0.310144	-0.545143
Cl299	Cl	1.069012	0.023189	-0.211810
Cl300	Cl	1.402345	0.356522	0.121523
H301	H	1.234148	-1.044962	-0.289242
H302	H	1.567482	-0.711629	0.044092
H303	H	1.900815	-0.378295	0.377425
Cl304	Cl	1.256258	-0.482938	-0.266774
Cl305	Cl	1.589591	-0.149604	0.066559
Cl306	Cl	1.922925	0.183729	0.399892
H307	H	1.050603	-1.044982	-0.472496
H308	H	1.383937	-0.711649	-0.139163
H309	H	1.717270	-0.378316	0.194170
H310	H	0.999886	-0.744055	-0.522962
H311	H	1.333219	-0.410721	-0.189628
H312	H	1.666552	-0.077388	0.143705
Cl313	Cl	0.977710	-0.122778	-0.788060
Cl314	Cl	1.311043	0.210555	-0.454727
Cl315	Cl	1.644377	0.543888	-0.121393
H316	H	1.284497	-0.603258	-0.238662
H317	H	1.617830	-0.269925	0.094671
H318	H	1.951164	0.063408	0.428004
Cl319	Cl	1.028157	-0.949491	-0.494864
Cl320	Cl	1.361490	-0.616157	-0.161531
Cl321	Cl	1.694824	-0.282824	0.171803
H322	H	1.284549	-0.688365	-0.238680
H323	H	1.617882	-0.355031	0.094653
H324	H	1.951215	-0.021698	0.427986
H325	H	1.233848	-0.268519	-0.682462
H326	H	1.567182	0.064815	-0.349129
H327	H	1.900515	0.398148	-0.015796
H328	H	0.841236	-0.268625	-0.472322
H329	H	1.174569	0.064708	-0.138989
H330	H	1.507903	0.398042	0.194345
Cl331	Cl	1.306766	-0.309949	-0.974312
Cl332	Cl	1.640100	0.023384	-0.640979
Cl333	Cl	1.973433	0.356718	-0.307645
Cl334	Cl	0.735746	-0.122745	-0.216437
Cl335	Cl	1.069079	0.210589	0.116896
Cl336	Cl	1.402413	0.543922	0.450229
Cl337	Cl	1.306749	-0.309974	-0.787989
Cl338	Cl	1.640083	0.023359	-0.454656
Cl339	Cl	1.973416	0.356692	-0.121323
Cl340	Cl	1.028192	-0.151527	-0.664235
Cl341	Cl	1.361526	0.181806	-0.330901
Cl342	Cl	1.694859	0.515139	0.002432
H343	H	1.233784	-0.387444	-0.289123
H344	H	1.567118	-0.054111	0.044211
H345	H	1.900451	0.279222	0.377544
H346	H	1.050249	-0.387472	-0.472387
H347	H	1.383583	-0.054139	-0.139053
H348	H	1.716916	0.279195	0.194280
Cl349	Cl	1.027887	-0.482988	-0.494767
Cl350	Cl	1.361221	-0.149655	-0.161433
Cl351	Cl	1.694554	0.183678	0.171900
H352	H	1.284622	-0.829124	-0.238713
H353	H	1.617955	-0.495791	0.094620
H354	H	1.951288	-0.162458	0.427954
H355	H	1.234104	-0.959839	-0.289218
H356	H	1.567438	-0.626506	0.044115
H357	H	1.900771	-0.293173	0.377449
H358	H	1.233909	-0.268470	-1.079875
H359	H	1.567243	0.064863	-0.746541
H360	H	1.900576	0.398196	-0.413208
Cl361	Cl	0.977466	-0.698796	-0.545353
Cl362	Cl	1.310799	-0.365463	-0.212020
Cl363	Cl	1.644132	-0.032130	0.121314
Cl364	Cl	0.977536	-0.839553	-0.545353
Cl365	Cl	1.310869	-0.506220	-0.212020
Cl366	Cl	1.644203	-0.172887	0.121313
H367	H	0.841265	-0.164238	-0.289237
H368	H	1.174599	0.169095	0.044097
H369	H	1.507932	0.502428	0.377430
Cl370	Cl	1.306980	-0.733615	-0.216320
Cl371	Cl	1.640313	-0.400282	0.117014
Cl372	Cl	1.973647	-0.066948	0.450347
Cl373	Cl	0.977747	-0.122755	-0.974399
Cl374	Cl	1.311081	0.210578	-0.641066
Cl375	Cl	1.644414	0.543911	-0.307733
H376	H	0.999818	-0.603297	-0.522958
H377	H	1.333151	-0.269964	-0.189624
H378	H	1.666485	0.063370	0.143709
H379	H	0.443849	-0.164272	-0.289277
H380	H	0.777183	0.169062	0.044057
H381	H	1.110516	0.502395	0.377390
Cl382	Cl	0.425543	-0.281402	-0.494688
Cl383	Cl	0.758876	0.051931	-0.161355
Cl384	Cl	1.092209	0.385264	0.171979
Cl385	Cl	0.549407	-0.122755	-0.216463
Cl386	Cl	0.882740	0.210578	0.116870
Cl387	Cl	1.216074	0.543911	0.450204
