data_functionalizedCrystal
_audit_creation_method	'MofGen! by Chris Wilmer'
_symmetry_space_group_name_H-M	'P1'
_symmetry_Int_Tables_number	1
_symmetry_cell_setting	triclinic
loop_
_symmetry_equiv_pos_as_xyz
  x,y,z
_cell_length_a	6.394989
_cell_length_b	17.699083
_cell_length_c	16.776229
_cell_angle_alpha	90.001114
_cell_angle_beta	90.003593
_cell_angle_gamma	84.890363
loop_
_atom_site_label
_atom_site_type_symbol
_atom_site_fract_x
_atom_site_fract_y
_atom_site_fract_z
O1	O	-0.264131	-1.006774	-0.066171
O2	O	-0.298495	-0.786746	-0.066197
O3	O	0.022767	-0.899883	-0.066184
O4	O	-0.585393	-0.893637	-0.066184
O5	O	0.022786	-0.899868	0.066392
O6	O	-0.298476	-0.786731	0.066380
O7	O	-0.264112	-1.006758	0.066405
Zn8	Zn	-0.281290	-0.896742	0.087442
Zn9	Zn	-0.281316	-0.896763	-0.087233
O10	O	-0.585374	-0.893621	0.066393
C11	C	-0.297254	-0.758529	0.000088
C12	C	-0.293560	-0.674473	0.000078
C13	C	-0.265353	-1.034976	0.000119
C14	C	-0.269047	-1.119031	0.000123
N15	N	-0.281271	-0.896733	0.206653
C16	C	0.100592	-0.898640	0.000101
C17	C	0.336808	-0.894866	0.000100
N18	N	-0.281319	-0.896777	-0.206444
C19	C	-0.482134	-0.627777	0.000079
C20	C	-0.478651	-0.548798	0.000089
C21	C	-0.286591	-0.516517	0.000093
C22	C	-0.098003	-0.563220	0.000095
C23	C	-0.101488	-0.642197	0.000091
C24	C	-0.083942	-0.244713	0.000115
C25	C	-0.080470	-0.165730	0.000117
C26	C	-0.461104	-0.151314	0.000113
C27	C	-0.464590	-0.230291	0.000109
C28	C	-0.276002	-0.276987	0.000115
C29	C	-0.279782	-0.362625	0.000105
C30	C	-0.282810	-0.430881	0.000097
C31	C	-0.139075	-0.946847	0.248376
C32	C	-0.139073	-0.946851	0.331828
C33	C	-0.281280	-0.896745	0.373556
C34	C	-0.423483	-0.846626	0.331828
C35	C	-0.423473	-0.846619	0.248377
C36	C	-0.423524	-0.846654	0.668375
C37	C	-0.423527	-0.846667	0.751831
C38	C	-0.139124	-0.946886	0.751826
C39	C	-0.139114	-0.946879	0.668375
C40	C	-0.281309	-0.896758	0.626654
C41	C	-0.281307	-0.896753	0.536166
C42	C	-0.281294	-0.896753	0.464043
H43	H	-0.632207	-0.510780	0.000089
O44	O	-0.001243	-0.995567	0.372449
C45	C	-0.112966	-1.043330	0.420696
H46	H	-0.276508	-1.014738	0.433191
H47	H	-0.025758	-1.054477	0.479383
H48	H	-0.126973	-1.099396	0.388531
O49	O	-0.668573	-0.659220	0.000178
C50	C	-0.681997	-0.704461	0.068846
H51	H	-0.517274	-0.722555	0.091739
H52	H	-0.764999	-0.756945	0.053398
H53	H	-0.774570	-0.670468	0.116928
H54	H	0.075937	-0.139450	0.000122
O55	O	-0.561764	-0.798081	0.627771
C56	C	-0.690513	-0.839837	0.579508
H57	H	-0.607101	-0.898259	0.566992
H58	H	-0.723696	-0.808554	0.520832
H59	H	-0.844849	-0.846462	0.611670
O60	O	0.088695	-0.531952	-0.000008
C61	C	0.203591	-0.555622	-0.068681
H62	H	0.146943	-0.610915	-0.091573
H63	H	0.377585	-0.564919	-0.053239
H64	H	0.179157	-0.510173	-0.116761
O65	O	-0.561869	-0.798092	0.792403
C66	C	-0.690571	-0.839848	0.840677
H67	H	-0.693915	-0.899561	0.815517
H68	H	-0.856686	-0.810544	0.841625
H69	H	-0.625188	-0.843205	0.903924
O70	O	-0.644112	-0.105842	0.000150
C71	C	-0.599869	-0.029212	0.000138
H72	H	-0.435830	-0.024620	0.025243
H73	H	-0.720099	0.005404	0.038628
H74	H	-0.607902	-0.006454	-0.063464
H75	H	0.052069	-0.680217	0.000090
H76	H	-0.620984	-0.256569	0.000102
H77	H	0.069618	-0.282724	0.000121
H78	H	-0.023283	-0.987652	0.214406
O79	O	-0.001171	-0.995674	0.792318
C80	C	-0.034831	-1.070911	0.771901
H81	H	-0.202062	-1.072872	0.748961
H82	H	-0.010660	-1.108669	0.826776
H83	H	0.081007	-1.092031	0.723458
O84	O	-0.561334	-0.797919	0.372450
C85	C	-0.449638	-0.750159	0.420719
H86	H	-0.286094	-0.778748	0.433222
H87	H	-0.536865	-0.739025	0.479400
H88	H	-0.435636	-0.694088	0.388568
O89	O	-0.561810	-0.797914	0.207969
C90	C	-0.687297	-0.753678	0.262691
H91	H	-0.689561	-0.784734	0.322174
H92	H	-0.854137	-0.743716	0.238572
H93	H	-0.619668	-0.696814	0.271577
O94	O	-0.000535	-0.995471	0.627943
C95	C	0.206064	-0.981141	0.648455
H96	H	0.206660	-0.920522	0.671363
H97	H	0.311134	-0.988854	0.593636
H98	H	0.267459	-1.022460	0.696951
