data_functionalizedCrystal
_audit_creation_method	'MofGen! by Chris Wilmer'
_symmetry_space_group_name_H-M	'P1'
_symmetry_Int_Tables_number	1
_symmetry_cell_setting	triclinic
loop_
_symmetry_equiv_pos_as_xyz
  x,y,z
_cell_length_a	12.594517
_cell_length_b	12.759400
_cell_length_c	12.759393
_cell_angle_alpha	90.030448
_cell_angle_beta	89.978205
_cell_angle_gamma	89.985516
loop_
_atom_site_label
_atom_site_type_symbol
_atom_site_fract_x
_atom_site_fract_y
_atom_site_fract_z
Zn1	Zn	1.627282	0.418221	-0.594080
Zn2	Zn	1.627176	0.593937	-0.418400
Zn3	Zn	1.449284	0.418272	-0.418408
Zn4	Zn	1.449272	0.593858	-0.594030
O5	O	1.538254	0.506072	-0.506229
O6	O	1.776214	0.441542	-0.570792
O7	O	1.603539	0.570689	-0.271380
O8	O	1.472946	0.271244	-0.441736
O9	O	1.776136	0.570640	-0.441721
O10	O	1.603720	0.271207	-0.570800
O11	O	1.472843	0.441628	-0.271386
O12	O	1.300337	0.441552	-0.441688
O13	O	1.472925	0.570506	-0.741058
O14	O	1.300328	0.570555	-0.570717
O15	O	1.603708	0.441466	-0.741094
O16	O	1.603527	0.740948	-0.441673
O17	O	1.472822	0.740890	-0.570708
C18	C	1.538190	0.779040	-0.506208
C19	C	1.538261	0.895816	-0.506233
C20	C	1.261713	0.506051	-0.506199
C21	C	1.143407	0.506067	-0.506210
C22	C	1.538327	0.505972	-0.780263
C23	C	1.538358	0.505929	-0.897040
C24	C	1.074128	0.435807	-0.436165
C25	C	1.003319	0.531642	-0.410323
C26	C	1.003417	0.410279	-0.532070
C27	C	1.074157	0.601953	-0.480318
C28	C	1.074261	0.480525	-0.602110
C29	C	1.003484	0.576427	-0.576304
C30	C	1.815874	0.506094	-0.506261
C31	C	1.934180	0.506103	-0.506275
C32	C	1.538346	0.232039	-0.506274
C33	C	1.538385	0.115262	-0.506294
C34	C	1.606394	0.950673	-0.439119
C35	C	1.606460	1.060397	-0.439151
C36	C	1.470249	1.060397	-0.573415
C37	C	1.470190	0.950675	-0.573387
C38	C	1.685031	0.950674	-0.361599
C39	C	1.685097	1.060398	-0.361632
C40	C	1.606415	0.573105	-0.951896
C41	C	1.606447	0.573060	-1.061620
C42	C	1.470357	0.438660	-1.061622
C43	C	1.470331	0.438700	-0.951900
C44	C	1.684983	0.650703	-0.951895
C45	C	1.685015	0.650658	-1.061620
C46	C	1.538242	0.506097	-0.233262
C47	C	1.538416	0.505844	-0.116486
H48	H	1.105147	0.376448	-0.376858
H49	H	1.767419	0.628931	-0.922135
H50	H	1.663075	1.090259	-0.280250
Cl51	Cl	1.805998	1.112817	-0.406757
H52	H	1.414921	0.383991	-0.907240
H53	H	1.414720	0.906012	-0.628047
Cl54	Cl	1.384841	0.354149	-1.130597
H55	H	1.655430	0.728009	-0.917846
H56	H	1.105100	0.682998	-0.458382
H57	H	0.972660	0.635927	-0.635566
Cl58	Cl	1.805960	0.605698	-1.114193
Cl59	Cl	1.122407	0.447094	-0.727246
H60	H	1.414829	1.105077	-0.628091
Cl61	Cl	1.650887	0.776260	-1.107580
H62	H	0.972160	0.553268	-0.329250
H63	H	0.972288	0.329268	-0.553880
H64	H	1.767440	0.920817	-0.383456
Cl65	Cl	1.639453	0.898251	-0.242223
