data_functionalizedCrystal
_audit_creation_method	'MofGen! by Chris Wilmer'
_symmetry_space_group_name_H-M	'P1'
_symmetry_Int_Tables_number	1
_symmetry_cell_setting	triclinic
loop_
_symmetry_equiv_pos_as_xyz
  x,y,z
_cell_length_a	16.625546
_cell_length_b	12.827893
_cell_length_c	12.827885
_cell_angle_alpha	90.021189
_cell_angle_beta	89.964876
_cell_angle_gamma	89.979323
loop_
_atom_site_label
_atom_site_type_symbol
_atom_site_fract_x
_atom_site_fract_y
_atom_site_fract_z
Zn1	Zn	-0.321001	-1.597618	-0.590863
Zn2	Zn	0.178999	-1.097618	-0.090863
Zn3	Zn	-0.455855	-1.597491	-0.416107
Zn4	Zn	0.044145	-1.097491	0.083893
Zn5	Zn	-0.321036	-1.422860	-0.416131
Zn6	Zn	0.178964	-0.922860	0.083869
Zn7	Zn	-0.455791	-1.422823	-0.590801
Zn8	Zn	0.044209	-0.922823	-0.090801
O9	O	-0.388421	-1.510198	-0.503476
O10	O	0.111579	-1.010198	-0.003476
O11	O	-0.338902	-1.743837	-0.567698
O12	O	0.161098	-1.243837	-0.067698
O13	O	-0.438013	-1.574287	-0.269874
O14	O	0.061987	-1.074287	0.230126
O15	O	-0.208199	-1.446110	-0.439346
O16	O	0.291801	-0.946110	0.060654
O17	O	-0.437979	-1.743744	-0.439305
O18	O	0.062021	-1.243744	0.060695
O19	O	-0.208173	-1.574505	-0.567721
O20	O	0.291827	-1.074505	-0.067721
O21	O	-0.338962	-1.445987	-0.269892
O22	O	0.161038	-0.945987	0.230108
O23	O	-0.338900	-1.276619	-0.439286
O24	O	0.161100	-0.776619	0.060714
O25	O	-0.437869	-1.446048	-0.737046
O26	O	0.062131	-0.946048	-0.237046
O27	O	-0.437904	-1.276592	-0.567615
O28	O	0.062096	-0.776592	-0.067615
O29	O	-0.338840	-1.574469	-0.737091
O30	O	0.161160	-1.074469	-0.237091
O31	O	-0.568679	-1.574252	-0.439245
O32	O	-0.068679	-1.074252	0.060755
O33	O	-0.568632	-1.445925	-0.567592
O34	O	-0.068632	-0.945925	-0.067592
C35	C	-0.388399	-1.238688	-0.503447
C36	C	0.111601	-0.738688	-0.003447
C37	C	-0.388409	-1.122535	-0.503459
C38	C	0.111591	-0.622535	-0.003459
C39	C	-0.339468	-1.070796	-0.567089
C40	C	0.160532	-0.570796	-0.067089
C41	C	-0.339477	-0.950746	-0.567103
C42	C	0.160523	-0.450746	-0.067103
C43	C	-0.597912	-1.510099	-0.503432
C44	C	-0.097912	-1.010099	-0.003432
C45	C	-0.687533	-1.510152	-0.503448
C46	C	-0.187533	-1.010152	-0.003448
C47	C	-1.015708	-1.510335	-0.503557
C48	C	-0.515708	-1.010335	-0.003557
C49	C	-0.924400	-1.510281	-0.503530
C50	C	-0.424400	-1.010281	-0.003530
C51	C	-0.851624	-1.510243	-0.503502
C52	C	-0.351624	-1.010243	-0.003502
C53	C	-0.760309	-1.510190	-0.503476
C54	C	-0.260309	-1.010190	-0.003476
C55	C	-0.178112	-1.510326	-0.503543
C56	C	0.321888	-1.010326	-0.003543
C57	C	-0.088491	-1.510380	-0.503571
C58	C	0.411509	-1.010380	-0.003571
C59	C	-0.388344	-1.510269	-0.776046
C60	C	0.111656	-1.010269	-0.276046
C61	C	-0.388311	-1.510299	-0.892199
C62	C	0.111689	-1.010299	-0.392199
C63	C	-0.388437	-0.782768	-0.503497
C64	C	0.111563	-0.282768	-0.003497
C65	C	-0.388427	-0.898921	-0.503485
C66	C	0.111573	-0.398921	-0.003485
C67	C	-0.339298	-1.573853	-0.944007
C68	C	0.160702	-1.073853	-0.444007
C69	C	-0.339263	-1.573886	-1.064057
C70	C	0.160737	-1.073886	-0.564057
C71	C	-0.388440	-1.510187	-0.231966
C72	C	0.111560	-1.010187	0.268034
C73	C	-0.388246	-1.510359	-0.115813
C74	C	0.111754	-1.010359	0.384187
H75	H	-0.430314	-1.077954	-0.448992
H76	H	0.069686	-0.577954	0.051008
C77	C	-0.444963	-1.436819	-0.952343
C78	C	0.055037	-0.936819	-0.452343
N79	N	-0.487635	-1.381471	-0.997641
N80	N	0.012365	-0.881471	-0.497641
C81	C	-0.282640	-1.647327	-0.883863
C82	C	0.217360	-1.147327	-0.383863
N83	N	-0.239964	-1.702669	-0.838565
N84	N	0.260036	-1.202669	-0.338565
C85	C	-0.282570	-1.647393	-1.124243
C86	C	0.217430	-1.147393	-0.624243
N87	N	-0.239866	-1.702758	-1.169578
N88	N	0.260134	-1.202758	-0.669578
H89	H	-0.297559	-1.115378	-0.621551
H90	H	0.202441	-0.615378	-0.121551
H91	H	-0.297580	-0.906252	-0.621583
H92	H	0.202420	-0.406252	-0.121583
H93	H	-0.430334	-0.943409	-0.449012
H94	H	0.069666	-0.443409	0.050988
H95	H	-0.430212	-1.455950	-1.071267
H96	H	0.069788	-0.955950	-0.571267
