data_functionalizedCrystal
_audit_creation_method	'MofGen! by Chris Wilmer'
_symmetry_space_group_name_H-M	'P1'
_symmetry_Int_Tables_number	1
_symmetry_cell_setting	triclinic
loop_
_symmetry_equiv_pos_as_xyz
  x,y,z
_cell_length_a	19.851628
_cell_length_b	19.377369
_cell_length_c	19.377372
_cell_angle_alpha	62.058157
_cell_angle_beta	90.000597
_cell_angle_gamma	48.634029
loop_
_atom_site_label
_atom_site_type_symbol
_atom_site_fract_x
_atom_site_fract_y
_atom_site_fract_z
Zr1	Zr	0.527771	0.759387	0.055867
O2	O	0.371506	0.943831	-0.042076
O3	O	0.588403	0.607574	0.064535
O4	O	0.530410	0.806419	-0.072857
O5	O	0.460766	0.696507	0.227987
O6	O	0.641278	0.806400	-0.072843
O7	O	0.429499	0.744986	0.095316
O8	O	0.745016	0.450702	0.172926
O9	O	0.357028	1.052205	-0.017782
O10	O	0.681623	0.657917	0.094045
O11	O	0.622218	0.621752	0.193045
O12	O	0.553939	0.855867	0.031284
O13	O	0.494534	0.819702	0.130285
Zr14	Zr	0.754459	0.682040	0.267483
Zr15	Zr	0.704592	0.759357	0.055888
Zr16	Zr	0.577638	0.682069	0.267462
Zr17	Zr	0.504679	0.932231	0.094613
Zr18	Zr	0.777551	0.509195	0.228737
O19	O	0.693827	0.833853	0.258815
O20	O	0.622922	0.943789	-0.042046
O21	O	0.442411	0.833895	0.258785
O22	O	0.910724	0.497596	0.365426
O23	O	0.839819	0.607531	0.064565
O24	O	0.659307	0.497638	0.365396
O25	O	0.821464	0.744920	0.095363
O26	O	0.751820	0.635008	0.396207
O27	O	0.640952	0.635026	0.396194
O28	O	0.852731	0.696441	0.228034
O29	O	0.497576	1.052182	-0.017765
O30	O	0.784654	0.389245	0.341116
O31	O	0.925202	0.389222	0.341132
O32	O	0.885565	0.450679	0.172943
O33	O	0.396665	0.990748	0.150408
O34	O	0.537214	0.990724	0.150425
O35	O	0.728291	0.585560	0.292066
O36	O	0.787696	0.621725	0.193065
O37	O	0.660012	0.819674	0.130305
O38	O	0.600607	0.783509	0.229306
C39	C	0.670000	0.504511	0.113210
C40	C	0.679803	0.431134	0.096762
C41	C	0.557418	0.095006	0.301332
C42	C	0.566759	0.025941	0.285946
C43	C	0.628773	0.063704	0.182597
C44	C	0.619442	0.132769	0.197977
C45	C	0.583762	0.148416	0.257344
C46	C	0.645786	0.186179	0.153990
C47	C	0.636451	0.255243	0.169365
C48	C	0.600770	0.270898	0.228728
C49	C	0.574426	0.217480	0.272720
C50	C	0.681459	0.170538	0.094617
C51	C	0.707803	0.223947	0.050630
C52	C	0.698475	0.293006	0.066010
C53	C	0.662794	0.308661	0.125373
C54	C	0.724818	0.346424	0.022018
C55	C	0.715482	0.415488	0.037394
C56	C	0.653458	0.377725	0.140749
C57	C	0.419939	0.720751	0.161649
C58	C	0.344874	0.720763	0.161640
C59	C	0.093921	0.828661	0.127449
C60	C	0.068231	0.798867	0.078444
C61	C	0.207478	0.720729	0.161663
C62	C	0.099423	0.750535	0.210650
C63	C	0.074754	0.720702	0.161686
C64	C	0.182763	0.690954	0.112603
C65	C	0.213963	0.642616	0.244864
C66	C	0.188339	0.612749	0.195869
C67	C	0.283934	0.720747	0.161648
C68	C	-0.001697	0.720677	0.161698
C69	C	0.862290	0.720676	0.161702
C70	C	0.937355	0.720664	0.161711
C71	C	0.578739	0.817426	-0.102998
C72	C	0.557569	0.850249	-0.192825
C73	C	0.612230	0.936915	0.210140
C74	C	0.602427	1.010292	0.226589
C75	C	0.821164	0.441574	-0.324459
C76	C	0.801250	0.472444	-0.408875
C77	C	0.667958	0.679089	-0.474382
C78	C	0.687863	0.648236	-0.389971
C79	C	0.764467	0.529477	-0.315015
C80	C	0.631167	0.736139	-0.380526
C81	C	0.651068	0.705288	-0.296122
C82	C	0.727665	0.586535	-0.221163
C83	C	0.784368	0.498627	-0.230611
C84	C	0.554559	0.854897	-0.455484
C85	C	0.497862	0.942800	-0.446039
C86	C	0.517767	0.911950	-0.361634
C87	C	0.594365	0.793197	-0.286674
C88	C	0.461065	0.999859	-0.352186
C89	C	0.480966	0.969008	-0.267782
C90	C	0.614266	0.762346	-0.202270
C91	C	0.703491	0.624001	0.426348
C92	C	0.724661	0.591178	0.516176
C93	C	0.891175	0.504474	0.113237
C94	C	0.976043	0.431085	0.096797
C95	C	0.732376	0.407799	0.377883
C96	C	0.763349	0.301599	0.451262
C97	C	0.953551	0.407762	0.377910
C98	C	1.059589	0.301549	0.451298
C99	C	0.328679	1.033665	-0.054559
C100	C	0.222641	1.139878	-0.127947
C101	C	0.391055	0.936952	0.210114
C102	C	0.306186	1.010342	0.226553
C103	C	0.549854	1.033628	-0.054533
C104	C	0.518881	1.139828	-0.127912
C105	C	0.960527	0.415516	0.037380
C106	C	1.040257	0.346575	0.021916
C107	C	1.135505	0.293198	0.065874
C108	C	1.151019	0.308773	0.125294
C109	C	1.071287	0.377719	0.140753
C110	C	0.833265	0.232830	0.537418
C111	C	0.862365	0.133051	0.606376
C112	C	0.821553	0.102036	0.589174
C113	C	0.751628	0.170815	0.503010
C114	C	0.722524	0.270598	0.434055
C115	C	1.140402	0.270548	0.434084
C116	C	1.240040	0.170762	0.503034
C117	C	1.258863	0.101974	0.589196
C118	C	1.178040	0.132983	0.606409
C119	C	1.078404	0.232772	0.537461
C120	C	0.141827	1.170887	-0.110732
C121	C	0.042186	1.270694	-0.179677
C122	C	0.023363	1.339486	-0.265838
C123	C	0.104186	1.308473	-0.283052
C124	C	0.203823	1.208672	-0.214107
C125	C	0.321700	1.025921	0.285963
C126	C	0.241962	1.094890	0.301408
C127	C	0.146713	1.148270	0.257448
C128	C	0.131201	1.132690	0.198031
C129	C	0.210936	1.063730	0.182582
C130	C	0.559712	1.170809	-0.110683
C131	C	0.530629	1.270583	-0.179625
C132	C	0.460709	1.339380	-0.265793
C133	C	0.419878	1.308392	-0.283021
C134	C	0.448967	1.208614	-0.214081
H135	H	0.736850	0.211203	0.002290
H136	H	1.200419	0.237059	0.053279
H137	H	0.088846	1.364496	-0.353212
H138	H	0.528364	0.107745	0.349675
H139	H	1.339998	0.020723	0.645330
H140	H	0.753859	0.333685	-0.026325
H141	H	0.883546	0.344869	-0.263424
H142	H	0.866505	0.258067	0.551441
H143	H	1.193382	0.076961	0.676571
H144	H	-0.023610	1.295926	-0.165644
H145	H	-0.057773	1.420747	-0.321970
H146	H	0.063430	0.775752	0.252071
H147	H	0.362947	1.364421	-0.353187
H148	H	0.882975	0.458981	0.001571
H149	H	0.676648	0.665641	-0.141235
H150	H	0.227678	0.521424	0.224792
H151	H	0.005890	0.864907	0.008088
H152	H	0.254612	1.107559	0.349793
H153	H	1.125094	0.326544	0.363931
H154	H	0.434794	1.040587	-0.260094
H155	H	0.545300	-0.017542	0.321768
H156	H	1.012610	0.257998	0.551488
H157	H	0.718405	0.145548	0.489016
H158	H	0.743862	0.561419	-0.152437
H159	H	0.665596	0.326580	0.363904
H160	H	0.846750	0.401921	-0.169575
H161	H	1.305837	0.145529	0.489002
H162	H	0.538358	0.880011	-0.524209
H163	H	0.269621	1.183429	-0.228135
H164	H	0.845260	0.020784	0.645330
H165	H	0.399251	0.982459	0.321770
H166	H	0.919304	0.077061	0.676529
H167	H	0.081796	1.204419	0.270036
H168	H	0.847422	0.400854	-0.416556
H169	H	0.157136	1.114882	-0.040581
H170	H	0.053639	1.176163	0.162242
H171	H	1.083936	0.390382	0.189140
H172	H	0.198292	1.051049	0.134208
H173	H	0.657820	0.050960	0.134257
H174	H	0.616644	1.114806	-0.040526
H175	H	0.605585	0.775782	-0.535422
H176	H	0.054731	0.919949	0.098447
H177	H	0.563883	1.295799	-0.165580
H178	H	0.276293	0.576614	0.315210
H179	H	0.415709	1.183403	-0.228121
H180	H	0.624405	0.390464	0.189092
H181	H	0.593165	0.327140	0.241242
H182	H	1.228579	0.265304	0.161080
H183	H	1.027607	0.333904	-0.026468
H184	H	0.435490	1.039493	-0.507079
H185	H	0.437032	1.420623	-0.321920
H186	H	0.545373	0.230218	0.321064
H187	H	0.218622	0.665814	0.071103
H188	H	0.736934	0.458977	0.001574
H189	H	0.689052	0.114307	0.082096
H190	H	0.398689	1.096551	-0.413226
