data_functionalizedCrystal
_audit_creation_method	'MofGen! by Chris Wilmer'
_symmetry_space_group_name_H-M	'P1'
_symmetry_Int_Tables_number	1
_symmetry_cell_setting	triclinic
loop_
_symmetry_equiv_pos_as_xyz
  x,y,z
_cell_length_a	15.944551
_cell_length_b	10.723024
_cell_length_c	9.798715
_cell_angle_alpha	90.001978
_cell_angle_beta	89.999195
_cell_angle_gamma	83.983304
loop_
_atom_site_label
_atom_site_type_symbol
_atom_site_fract_x
_atom_site_fract_y
_atom_site_fract_z
O1	O	-1.115445	-0.160932	-0.113345
O2	O	-0.615445	0.339068	0.386655
O3	O	-0.871009	-0.180773	-0.113379
O4	O	-0.371009	0.319227	0.386621
O5	O	-0.998865	0.010795	-0.113356
O6	O	-0.498865	0.510795	0.386644
O7	O	-0.987588	-0.352500	-0.113368
O8	O	-0.487588	0.147500	0.386632
O9	O	-0.998855	0.010795	0.113626
O10	O	-0.498855	0.510795	0.613626
O11	O	-0.870999	-0.180773	0.113604
O12	O	-0.370999	0.319227	0.613604
O13	O	-1.115435	-0.160931	0.113637
O14	O	-0.615435	0.339069	0.613637
Zn15	Zn	-0.993215	-0.170852	0.149659
Zn16	Zn	-0.493215	0.329148	0.649659
Zn17	Zn	-0.993228	-0.170853	-0.149400
Zn18	Zn	-0.493228	0.329147	0.350600
O19	O	-0.987579	-0.352500	0.113615
O20	O	-0.487579	0.147500	0.613615
C21	C	-0.839705	-0.179949	0.000108
C22	C	-0.339705	0.320051	0.500108
C23	C	-0.746445	-0.177480	0.000095
C24	C	-0.246445	0.322520	0.500095
C25	C	-1.146738	-0.161755	0.000147
C26	C	-0.646738	0.338245	0.500147
C27	C	-1.239999	-0.164225	0.000151
C28	C	-0.739999	0.335775	0.500151
N29	N	-0.993213	-0.170851	0.353758
N30	N	-0.493213	0.329149	0.853758
C31	C	-0.530875	-0.052834	0.000126
C32	C	-0.030875	0.447166	0.500126
C33	C	-0.470191	-0.110716	-0.111790
C34	C	0.029809	0.389284	0.388210
C35	C	-0.575693	-0.173012	0.000112
C36	C	-0.075693	0.326988	0.500112
C37	C	-0.470204	-0.110744	0.111996
C38	C	0.029796	0.389256	0.611996
C39	C	-0.410756	-0.168688	0.000133
C40	C	0.089244	0.331312	0.500133
C41	C	-0.516238	-0.230927	-0.111897
C42	C	-0.016238	0.269073	0.388103
C43	C	-0.516257	-0.230938	0.111990
C44	C	-0.016257	0.269062	0.611990
C45	C	-0.455591	-0.288907	0.000047
C46	C	0.044409	0.211093	0.500047
C47	C	-0.670710	-0.175500	0.000098
C48	C	-0.170710	0.324500	0.500098
C49	C	-0.315741	-0.166210	0.000137
C50	C	0.184259	0.333790	0.500137
C51	C	-0.998039	0.057284	0.000133
C52	C	-0.498039	0.557284	0.500133
C53	C	-0.995584	0.195808	0.000128
C54	C	-0.495584	0.695808	0.500128
C55	C	-0.988404	-0.398989	0.000122
C56	C	-0.488404	0.101011	0.500122
C57	C	-0.990859	-0.537512	0.000118
C58	C	-0.490859	-0.037512	0.500118
C59	C	-1.067126	0.271694	0.000136
C60	C	-0.567126	0.771694	0.500136
C61	C	-1.064590	0.414865	0.000131
C62	C	-0.564590	0.914865	0.500131
N63	N	-0.993237	-0.170844	-0.353500
N64	N	-0.493237	0.329156	0.146500
C65	C	-1.046896	-0.090065	0.421545
C66	C	-0.546896	0.409935	0.921545
C67	C	-1.046910	-0.090061	0.578707
C68	C	-0.546910	0.409939	1.078707
H69	H	-0.563637	0.046904	-0.000009
H70	H	-0.063637	0.546904	0.499991
H71	H	-0.449822	-0.059891	0.206609
H72	H	0.050178	0.440109	0.706609
H73	H	-1.092844	-0.020899	0.363230
H74	H	-0.592844	0.479101	0.863230
H75	H	-0.932457	0.236832	0.000111
H76	H	-0.432457	0.736832	0.500111
H77	H	-1.092874	-0.020901	0.637001
H78	H	-0.592874	0.479099	1.137001
H79	H	-0.947259	-0.240007	0.412075
H80	H	-0.447259	0.259993	0.912075
H81	H	-1.125835	0.480072	0.000144
H82	H	-0.625835	0.980072	0.500144
H83	H	-0.929611	0.397289	0.000121
H84	H	-0.429611	0.897289	0.500121
H85	H	-0.449793	-0.059886	-0.206404
H86	H	0.050207	0.440114	0.293596
H87	H	-0.536520	-0.281719	-0.206616
H88	H	-0.036520	0.218281	0.293384
H89	H	-0.423004	-0.388748	-0.000019
H90	H	0.076996	0.111252	0.499981
H91	H	-1.130253	0.230669	0.000153
H92	H	-0.630253	0.730669	0.500153
H93	H	-0.536675	-0.281726	0.206609
H94	H	-0.036675	0.218274	0.706609
H95	H	-0.947277	-0.240016	0.588216
H96	H	-0.447277	0.259984	1.088216
