data_functionalizedCrystal
_audit_creation_method	'MofGen! by Chris Wilmer'
_symmetry_space_group_name_H-M	'P1'
_symmetry_Int_Tables_number	1
_symmetry_cell_setting	triclinic
loop_
_symmetry_equiv_pos_as_xyz
  x,y,z
_cell_length_a	14.971486
_cell_length_b	14.971486
_cell_length_c	14.048226
_cell_angle_alpha	90.006995
_cell_angle_beta	89.991262
_cell_angle_gamma	83.614129
loop_
_atom_site_label
_atom_site_type_symbol
_atom_site_fract_x
_atom_site_fract_y
_atom_site_fract_z
O1	O	0.116569	1.186936	-0.079052
O2	O	0.130527	0.926535	-0.079078
O3	O	-0.006652	1.063715	-0.079057
O4	O	0.253748	1.049756	-0.079072
O5	O	-0.006668	1.063721	0.079264
O6	O	0.130511	0.926542	0.079244
O7	O	0.116552	1.186942	0.079270
Zn8	Zn	0.123529	1.056743	0.104394
Zn9	Zn	0.123551	1.056734	-0.104202
O10	O	0.253732	1.049762	0.079249
C11	C	0.129895	0.893214	0.000080
C12	C	0.128024	0.793917	0.000070
C13	C	0.208614	0.736692	0.000067
C14	C	0.206850	0.643392	0.000081
C15	C	0.124497	0.607320	0.000092
C16	C	0.043902	0.664552	0.000098
C17	C	0.045666	0.757850	0.000090
C18	C	0.040231	0.470090	0.000111
C19	C	0.038466	0.376786	0.000117
C20	C	0.201415	0.355632	0.000102
C21	C	0.203179	0.448930	0.000094
C22	C	0.122584	0.506156	0.000099
C23	C	-0.039985	1.063094	0.000103
C24	C	-0.139282	1.061223	0.000102
C25	C	-0.196507	1.141812	0.000111
C26	C	-0.289807	1.140049	0.000101
C27	C	-0.325879	1.057696	0.000089
C28	C	-0.268646	0.977101	0.000078
C29	C	-0.175349	0.978865	0.000081
C30	C	-0.463109	0.973430	0.000074
C31	C	-0.556413	0.971665	0.000073
C32	C	-0.577567	1.134614	0.000094
C33	C	-0.484269	1.136378	0.000097
C34	C	-0.427043	1.055782	0.000088
C35	C	0.287065	1.050384	0.000087
C36	C	0.386362	1.052254	0.000082
C37	C	0.117185	1.220263	0.000110
C38	C	0.119056	1.319561	0.000114
N39	N	0.123558	1.056729	-0.246562
C40	C	0.177971	1.110941	-0.703425
C41	C	0.177976	1.110940	-0.603768
C42	C	0.123529	1.056749	-0.553932
C43	C	0.069066	1.002561	-0.603759
C44	C	0.069057	1.002567	-0.703415
C45	C	0.069092	1.002551	-0.396045
C46	C	0.069102	1.002544	-0.296382
C47	C	0.178011	1.110924	-0.296398
C48	C	0.178001	1.110930	-0.396054
C49	C	0.123540	1.056741	-0.445874
N50	N	0.123514	1.056755	0.246754
H51	H	-0.028593	0.347419	0.000127
H52	H	-0.019958	0.804443	0.000093
H53	H	0.270239	0.478296	0.000077
H54	H	0.024713	0.958443	-0.743978
Br55	Br	0.251884	1.184481	-0.536158
Br56	Br	-0.147562	1.253584	0.000140
Br57	Br	-0.605368	0.859899	0.000061
Br58	Br	-0.367467	1.249425	0.000113
H59	H	-0.298024	0.910047	0.000062
Br60	Br	-0.004839	0.929026	-0.463658
H61	H	0.024730	0.958442	-0.563175
Br62	Br	-0.385445	0.864048	0.000057
H63	H	-0.128756	0.913240	0.000074
Br64	Br	-0.435314	1.248144	0.000111
H65	H	-0.624165	1.200238	0.000099
H66	H	0.222359	1.155044	-0.255829
H67	H	0.275675	0.766054	0.000057
H68	H	0.222313	1.155064	-0.743994
Br69	Br	-0.004795	0.929001	-0.228748
H70	H	-0.023152	0.635175	0.000120
H71	H	0.272474	0.596802	0.000077
H72	H	-0.025399	0.516682	0.000116
H73	H	0.222341	1.155053	-0.436627
H74	H	0.267039	0.309033	0.000103
