data_functionalizedCrystal
_audit_creation_method	'MofGen! by Chris Wilmer'
_symmetry_space_group_name_H-M	'P1'
_symmetry_Int_Tables_number	1
_symmetry_cell_setting	triclinic
loop_
_symmetry_equiv_pos_as_xyz
  x,y,z
_cell_length_a	9.065218
_cell_length_b	10.268362
_cell_length_c	11.792241
_cell_angle_alpha	90.005428
_cell_angle_beta	84.604650
_cell_angle_gamma	90.004643
loop_
_atom_site_label
_atom_site_type_symbol
_atom_site_fract_x
_atom_site_fract_y
_atom_site_fract_z
O1	O	1.958842	0.108304	0.166432
O2	O	2.292175	0.441638	0.499766
O3	O	2.625508	0.774971	0.833099
O4	O	1.529429	0.108306	0.180084
O5	O	1.862762	0.441640	0.513417
O6	O	2.196096	0.774973	0.846750
O7	O	1.754556	0.108296	0.008145
O8	O	2.087889	0.441629	0.341479
O9	O	2.421223	0.774963	0.674812
O10	O	1.733715	0.108314	0.338371
O11	O	2.067048	0.441648	0.671704
O12	O	2.400381	0.774981	1.005038
O13	O	1.754536	-0.108305	0.008138
O14	O	2.087870	0.225029	0.341471
O15	O	2.421203	0.558362	0.674805
O16	O	1.529409	-0.108294	0.180076
O17	O	1.862743	0.225039	0.513410
O18	O	2.196076	0.558372	0.846743
O19	O	1.958822	-0.108296	0.166425
O20	O	2.292155	0.225037	0.499758
O21	O	2.625489	0.558370	0.833092
Cu22	Cu	1.744114	-0.128073	0.173250
Cu23	Cu	2.077447	0.205261	0.506583
Cu24	Cu	2.410781	0.538594	0.839917
Cu25	Cu	1.744137	0.128083	0.173259
Cu26	Cu	2.077471	0.461416	0.506592
Cu27	Cu	2.410804	0.794749	0.839925
O28	O	1.733695	-0.108286	0.338364
O29	O	2.067028	0.225047	0.671697
O30	O	2.400362	0.558381	1.005030
C31	C	1.474445	0.000006	0.178768
C32	C	1.807778	0.333339	0.512102
C33	C	2.141112	0.666673	0.845435
C34	C	1.310639	0.000007	0.174845
C35	C	1.643972	0.333340	0.508179
C36	C	1.977305	0.666673	0.841512
N37	N	1.744108	-0.308239	0.173243
N38	N	2.077442	0.025095	0.506577
N39	N	2.410775	0.358428	0.839910
C40	C	1.744130	-0.573909	0.173256
C41	C	2.077463	-0.240576	0.506590
C42	C	2.410796	0.092758	0.839923
C43	C	1.744113	-0.426071	0.173252
C44	C	2.077446	-0.092738	0.506586
C45	C	2.410780	0.240595	0.839919
C46	C	2.013806	0.000007	0.167741
C47	C	2.347140	0.333340	0.501074
C48	C	2.680473	0.666673	0.834407
C49	C	2.177612	0.000015	0.171664
C50	C	2.510946	0.333348	0.504997
C51	C	2.844279	0.666681	0.838330
C52	C	1.753237	-0.000004	-0.034156
C53	C	2.086570	0.333330	0.299177
C54	C	2.419904	0.666663	0.632510
C55	C	1.749319	-0.000002	-0.160192
C56	C	2.082652	0.333331	0.173141
C57	C	2.415985	0.666664	0.506475
N58	N	1.744155	0.308249	0.173257
N59	N	2.077488	0.641582	0.506590
N60	N	2.410821	0.974915	0.839923
C61	C	1.742113	0.000019	-0.390944
C62	C	2.075447	0.333353	-0.057611
C63	C	2.408780	0.666686	0.275723
C64	C	1.746117	0.000007	-0.262537
C65	C	2.079450	0.333341	0.070797
C66	C	2.412783	0.666674	0.404130
C67	C	1.735014	0.000017	0.380665
C68	C	2.068347	0.333350	0.713999
C69	C	2.401681	0.666683	1.047332
C70	C	1.738933	0.000024	0.506701
C71	C	2.072266	0.333357	0.840034
C72	C	2.405599	0.666691	1.173367
