data_functionalizedCrystal
_audit_creation_method	'MofGen! by Chris Wilmer'
_symmetry_space_group_name_H-M	'P1'
_symmetry_Int_Tables_number	1
_symmetry_cell_setting	triclinic
loop_
_symmetry_equiv_pos_as_xyz
  x,y,z
_cell_length_a	16.625548
_cell_length_b	29.839131
_cell_length_c	29.839135
_cell_angle_alpha	90.007589
_cell_angle_beta	90.006463
_cell_angle_gamma	90.042488
loop_
_atom_site_label
_atom_site_type_symbol
_atom_site_fract_x
_atom_site_fract_y
_atom_site_fract_z
Zn1	Zn	1.232462	-0.178948	0.254008
Zn2	Zn	1.732462	0.321052	0.754008
Zn3	Zn	1.232354	-0.254047	0.178878
Zn4	Zn	1.732354	0.245953	0.678878
Zn5	Zn	1.097657	-0.178933	0.178891
Zn6	Zn	1.597657	0.321067	0.678891
Zn7	Zn	1.097550	-0.254054	0.253979
Zn8	Zn	1.597550	0.245946	0.753979
O9	O	1.165006	-0.216496	0.216439
O10	O	1.665006	0.283504	0.716439
O11	O	1.345280	-0.188914	0.244049
O12	O	1.845280	0.311086	0.744049
O13	O	1.214486	-0.244074	0.116013
O14	O	1.714486	0.255926	0.616013
O15	O	1.115629	-0.116068	0.188872
O16	O	1.615629	0.383932	0.688872
O17	O	1.345200	-0.244089	0.188851
O18	O	1.845200	0.255911	0.688851
O19	O	1.214670	-0.116079	0.244061
O20	O	1.714670	0.383921	0.744061
O21	O	1.115524	-0.188888	0.116022
O22	O	1.615524	0.311112	0.616022
O23	O	0.984810	-0.188895	0.188844
O24	O	1.484810	0.311105	0.688844
O25	O	1.115446	-0.244100	0.316850
O26	O	1.615446	0.255900	0.816850
O27	O	0.984731	-0.244085	0.244012
O28	O	1.484731	0.255915	0.744012
O29	O	1.214566	-0.188920	0.316871
O30	O	1.714566	0.311080	0.816871
O31	O	1.214381	-0.316915	0.188823
O32	O	1.714381	0.183085	0.688823
O33	O	1.115341	-0.316920	0.244000
O34	O	1.615341	0.183080	0.744000
C35	C	0.955515	-0.216489	0.216426
C36	C	1.455515	0.283511	0.716426
C37	C	0.865894	-0.216497	0.216432
C38	C	1.365894	0.283503	0.716432
C39	C	0.537718	-0.216500	0.216451
C40	C	1.037718	0.283500	0.716451
C41	C	0.629026	-0.216498	0.216444
C42	C	1.129026	0.283502	0.716444
C43	C	0.701803	-0.216499	0.216441
C44	C	1.201803	0.283501	0.716441
C45	C	0.793117	-0.216496	0.216435
C46	C	1.293117	0.283504	0.716435
C47	C	1.164860	-0.333218	0.216417
C48	C	1.664860	0.166782	0.716417
C49	C	1.164871	-0.383153	0.216422
C50	C	1.664871	0.116847	0.716422
C51	C	1.216669	-0.692781	0.187751
C52	C	1.716669	-0.192781	0.687751
C53	C	1.216769	-0.880454	0.187768
C54	C	1.716769	-0.380454	0.687768
O55	O	1.260694	-0.904706	0.163373
O56	O	1.760694	-0.404706	0.663373
N57	N	1.165173	-0.903938	0.216473
N58	N	1.665173	-0.403938	0.716473
C59	C	1.113552	-0.880500	0.245178
C60	C	1.613552	-0.380500	0.745178
O61	O	1.069674	-0.904781	0.269596
O62	O	1.569674	-0.404781	0.769596
C63	C	1.113457	-0.692828	0.245162
C64	C	1.613457	-0.192828	0.745162
C65	C	1.165051	-0.669347	0.216452
C66	C	1.665051	-0.169347	0.716452
C67	C	1.268260	-0.669300	0.159043
C68	C	1.768260	-0.169300	0.659043
C69	C	1.268231	-0.622384	0.159038
C70	C	1.768231	-0.122384	0.659038
C71	C	1.216612	-0.598950	0.187739
C72	C	1.716612	-0.098950	0.687739
C73	C	1.165022	-0.622431	0.216446
C74	C	1.665022	-0.122431	0.716446
C75	C	1.061840	-0.669391	0.273869
C76	C	1.561840	-0.169391	0.773869
C77	C	1.061823	-0.622470	0.273863
C78	C	1.561823	-0.122470	0.773863
C79	C	1.113417	-0.598989	0.245153
C80	C	1.613417	-0.098989	0.745153
C81	C	1.113375	-0.552082	0.245142
C82	C	1.613375	-0.052082	0.745142
N83	N	1.164971	-0.528598	0.216437
N84	N	1.664971	-0.028598	0.716437
C85	C	1.216590	-0.552032	0.187736
C86	C	1.716590	-0.052032	0.687736
C87	C	1.113604	-0.979031	0.245183
C88	C	1.613604	-0.479031	0.745183
C89	C	1.113627	-1.025949	0.245186
C90	C	1.613627	-0.525949	0.745186
C91	C	1.216845	-1.025899	0.187777
C92	C	1.716845	-0.525899	0.687777
C93	C	1.216818	-0.978980	0.187772
C94	C	1.716818	-0.478980	0.687772
C95	C	1.165200	-0.955547	0.216478
C96	C	1.665200	-0.455547	0.716478
C97	C	1.216526	-0.453506	0.187725
C98	C	1.716526	0.046494	0.687725
C99	C	1.216490	-0.406587	0.187721
C100	C	1.716490	0.093413	0.687721
C101	C	1.113275	-0.406640	0.245131
C102	C	1.613275	0.093360	0.745131
C103	C	1.113307	-0.453556	0.245134
C104	C	1.613307	0.046444	0.745134
C105	C	1.164939	-0.476988	0.216430
C106	C	1.664939	0.023012	0.716430
O107	O	1.069479	-0.527801	0.269528
O108	O	1.569479	-0.027801	0.769528
O109	O	1.260474	-0.527744	0.163327
O110	O	1.760474	-0.027744	0.663327
C111	C	1.216698	-0.739696	0.187756
C112	C	1.716698	-0.239696	0.687756
C113	C	1.165108	-0.763178	0.216464
C114	C	1.665108	-0.263178	0.716464
C115	C	1.113489	-0.739744	0.245165
C116	C	1.613489	-0.239744	0.745165
C117	C	1.165130	-0.810096	0.216467
C118	C	1.665130	-0.310096	0.716467
C119	C	1.216749	-0.833530	0.187766
C120	C	1.716749	-0.333530	0.687766
C121	C	1.268345	-0.810046	0.159061
C122	C	1.768345	-0.310046	0.659061
C123	C	1.268317	-0.763131	0.159055
C124	C	1.768317	-0.263131	0.659055
C125	C	1.061893	-0.763227	0.273870
C126	C	1.561893	-0.263227	0.773870
C127	C	1.061925	-0.810143	0.273873
C128	C	1.561925	-0.310143	0.773873
C129	C	1.113543	-0.833577	0.245172
C130	C	1.613543	-0.333577	0.745172
C131	C	1.375314	-0.216502	0.216452
C132	C	1.875314	0.283498	0.716452
C133	C	1.464935	-0.216505	0.216457
C134	C	1.964935	0.283495	0.716457
C135	C	1.165006	-0.216512	0.333617
C136	C	1.665006	0.283488	0.833617
C137	C	1.165006	-0.216519	0.383552
C138	C	1.665006	0.283481	0.883552
C139	C	1.165174	-0.099317	0.216471
C140	C	1.665174	0.400683	0.716471
C141	C	1.165245	-0.049383	0.216485
C142	C	1.665245	0.450617	0.716485
C143	C	1.216616	-0.187767	0.693209
C144	C	1.716616	0.312233	1.193209
C145	C	1.216622	-0.187762	0.880882
C146	C	1.716622	0.312238	1.380882
O147	O	1.260486	-0.163316	0.905159
O148	O	1.760486	0.336684	1.405159
N149	N	1.165019	-0.216491	0.904337
N150	N	1.665019	0.283509	1.404337
C151	C	1.113407	-0.245222	0.880870
C152	C	1.613407	0.254778	1.380870
O153	O	1.069510	-0.269654	0.905126
O154	O	1.569510	0.230346	1.405126
C155	C	1.113398	-0.245224	0.693198
C156	C	1.613398	0.254776	1.193198
C157	C	1.165010	-0.216496	0.669746
C158	C	1.665010	0.283504	1.169746
C159	C	1.268224	-0.159041	0.669757
C160	C	1.768224	0.340959	1.169757
C161	C	1.268225	-0.159044	0.622842
C162	C	1.768225	0.340956	1.122842
C163	C	1.216618	-0.187774	0.599378
C164	C	1.716618	0.312226	1.099378
C165	C	1.165011	-0.216500	0.622831
C166	C	1.665011	0.283500	1.122831
C167	C	1.061782	-0.273952	0.669732
C168	C	1.561782	0.226048	1.169732
C169	C	1.061783	-0.273949	0.622811
C170	C	1.561783	0.226051	1.122811
C171	C	1.113395	-0.245221	0.599359
C172	C	1.613395	0.254779	1.099359
C173	C	1.113406	-0.245232	0.552452
C174	C	1.613406	0.254768	1.052452
N175	N	1.165009	-0.216503	0.528997
N176	N	1.665009	0.283497	1.028997
C177	C	1.216615	-0.187774	0.552460
C178	C	1.716615	0.312226	1.052460
C179	C	1.113417	-0.245219	0.979401
C180	C	1.613417	0.254781	1.479401
C181	C	1.113420	-0.245219	1.026319
C182	C	1.613420	0.254781	1.526319
C183	C	1.216634	-0.187758	1.026328
C184	C	1.716634	0.312242	1.526328
C185	C	1.216635	-0.187761	0.979409
C186	C	1.716635	0.312239	1.479409
C187	C	1.165020	-0.216490	0.955946
C188	C	1.665020	0.283510	1.455946
C189	C	1.216614	-0.187783	0.453935
C190	C	1.716614	0.312217	0.953935
C191	C	1.216613	-0.187790	0.407015
C192	C	1.716613	0.312210	0.907015
C193	C	1.113396	-0.245249	0.407010
C194	C	1.613396	0.254751	0.907010
C195	C	1.113400	-0.245243	0.453926
C196	C	1.613400	0.254757	0.953926
C197	C	1.165011	-0.216507	0.477387
C198	C	1.665011	0.283493	0.977387
O199	O	1.069558	-0.269662	0.528146
O200	O	1.569558	0.230338	1.028146
O201	O	1.260493	-0.163338	0.528197
O202	O	1.760493	0.336662	1.028197
C203	C	1.216615	-0.187764	0.740125
C204	C	1.716615	0.312236	1.240125
C205	C	1.165008	-0.216490	0.763577
C206	C	1.665008	0.283510	1.263577
C207	C	1.113401	-0.245219	0.740114
C208	C	1.613401	0.254781	1.240114
C209	C	1.165011	-0.216490	0.810495
C210	C	1.665011	0.283510	1.310495
C211	C	1.216617	-0.187760	0.833958
C212	C	1.716617	0.312240	1.333958
C213	C	1.268220	-0.159031	0.810503
C214	C	1.768220	0.340969	1.310503
C215	C	1.268221	-0.159034	0.763588
C216	C	1.768221	0.340966	1.263588
C217	C	1.061798	-0.273948	0.763568
C218	C	1.561798	0.226052	1.263568
C219	C	1.061802	-0.273943	0.810484
C220	C	1.561802	0.226057	1.310484
C221	C	1.113408	-0.245214	0.833947
C222	C	1.613408	0.254786	1.333947
C223	C	1.165006	-0.216491	1.099716
C224	C	1.665006	0.283509	1.599716
C225	C	1.165026	-0.216490	1.049782
C226	C	1.665026	0.283510	1.549782
H227	H	1.258504	-0.387470	0.164340
H228	H	1.758504	0.112530	0.664340
N229	N	1.272469	-0.953654	0.156811
N230	N	1.772469	-0.453654	0.656811
H231	H	1.259998	-0.961833	0.124706
H232	H	1.759998	-0.461833	0.624706
H233	H	1.330049	-0.961798	0.163858
H234	H	1.830049	-0.461798	0.663858
H235	H	1.019754	-0.297345	0.688819
H236	H	1.519754	0.202655	1.188819
H237	H	1.071245	-0.387553	0.268498
H238	H	1.571245	0.112447	0.768498
N239	N	1.272283	-0.156803	0.381722
N240	N	1.772283	0.343197	0.881722
H241	H	1.264459	-0.161164	0.348439
H242	H	1.764459	0.338836	0.848439
H243	H	1.329856	-0.163800	0.389930
H244	H	1.829856	0.336200	0.889930
H245	H	1.019742	-0.297340	0.603711
H246	H	1.519742	0.202660	1.103711
N247	N	1.272213	-0.478775	0.156767
N248	N	1.772213	0.021225	0.656767
H249	H	1.304886	-0.456775	0.138582
H250	H	1.804886	0.043225	0.638582
H251	H	1.239435	-0.498266	0.135960
H252	H	1.739435	0.001734	0.635960
H253	H	1.258875	-1.044987	0.164408
H254	H	1.758875	-0.544987	0.664408
N255	N	1.006212	-0.737954	0.304825
N256	N	1.506212	-0.237954	0.804825
H257	H	1.018686	-0.746105	0.336931
H258	H	1.518686	-0.246105	0.836931
H259	H	0.948642	-0.746169	0.297775
H260	H	1.448642	-0.246169	0.797775
N261	N	1.272275	-0.156787	0.479235
N262	N	1.772275	0.343213	0.979235
H263	H	1.304964	-0.138592	0.457253
H264	H	1.804964	0.361408	0.957253
H265	H	1.309567	-0.175072	0.498703
H266	H	1.809567	0.324928	0.998703
H267	H	1.310246	-0.603268	0.135661
H268	H	1.810246	-0.103268	0.635661
H269	H	1.310251	-0.135650	0.603751
H270	H	1.810251	0.364350	1.103751
H271	H	1.258661	-0.164367	0.960317
H272	H	1.758661	0.335633	1.460317
H273	H	1.019904	-0.829257	0.297252
H274	H	1.519904	-0.329257	0.797252
H275	H	1.019823	-0.688502	0.297245
H276	H	1.519823	-0.188502	0.797245
H277	H	1.310298	-0.688375	0.135671
H278	H	1.810298	-0.188375	0.635671
N279	N	1.057966	-1.051272	0.276144
N280	N	1.557966	-0.551272	0.776144
H281	H	1.025265	-1.029303	0.294324
H282	H	1.525265	-0.529303	0.794324
H283	H	1.090761	-1.070717	0.296955
H284	H	1.590761	-0.570717	0.796955
H285	H	1.310243	-0.135640	0.829615
H286	H	1.810243	0.364360	1.329615
H287	H	1.310329	-0.744015	0.135677
H288	H	1.810329	-0.244015	0.635677
H289	H	1.310248	-0.135644	0.688856
H290	H	1.810248	0.364356	1.188856
H291	H	1.258655	-0.164366	1.045439
H292	H	1.758655	0.335634	1.545439
N293	N	1.057764	-0.276210	1.051611
N294	N	1.557764	0.223790	1.551611
H295	H	1.025073	-0.294408	1.029624
H296	H	1.525073	0.205592	1.529624
H297	H	1.020475	-0.257923	1.071078
H298	H	1.520475	0.242077	1.571078
H299	H	1.019774	-0.297341	0.829574
H300	H	1.519774	0.202659	1.329574
N301	N	1.057727	-0.276198	0.954098
N302	N	1.557727	0.223802	1.454098
H303	H	1.025038	-0.294392	0.976080
H304	H	1.525038	0.205608	1.476080
H305	H	1.090497	-0.296994	0.934625
H306	H	1.590497	0.203006	1.434625
N307	N	1.057923	-0.953759	0.276144
N308	N	1.557923	-0.453759	0.776144
H309	H	1.025243	-0.975760	0.294325
H310	H	1.525243	-0.475760	0.794325
H311	H	1.020625	-0.934319	0.257836
H312	H	1.520625	-0.434319	0.757836
N313	N	1.057739	-0.276235	0.381699
N314	N	1.557739	0.223765	0.881699
H315	H	1.065573	-0.271874	0.348419
H316	H	1.565573	0.228126	0.848419
H317	H	1.000164	-0.269239	0.389896
H318	H	1.500164	0.230761	0.889896
N319	N	1.057745	-0.276233	0.479224
N320	N	1.557745	0.223767	0.979224
H321	H	1.025056	-0.294435	0.457239
H322	H	1.525056	0.205565	0.957239
H323	H	1.020453	-0.257943	0.498687
H324	H	1.520453	0.242057	0.998687
H325	H	1.310249	-0.135641	0.744497
H326	H	1.810249	0.364359	1.244497
H327	H	1.019774	-0.297344	0.744469
H328	H	1.519774	0.202656	1.244469
H329	H	1.019790	-0.603393	0.297240
H330	H	1.519790	-0.103393	0.797240
H331	H	1.310373	-0.829134	0.135690
H332	H	1.810373	-0.329134	0.635690
N333	N	1.057653	-0.478886	0.276094
N334	N	1.557653	0.021114	0.776094
H335	H	1.024946	-0.456919	0.294274
H336	H	1.524946	0.043081	0.794274
H337	H	1.090457	-0.498325	0.296905
H338	H	1.590457	0.001675	0.796905
