data_functionalizedCrystal
_audit_creation_method	'MofGen! by Chris Wilmer'
_symmetry_space_group_name_H-M	'P1'
_symmetry_Int_Tables_number	1
_symmetry_cell_setting	triclinic
loop_
_symmetry_equiv_pos_as_xyz
  x,y,z
_cell_length_a	10.654556
_cell_length_b	11.792254
_cell_length_c	9.730223
_cell_angle_alpha	89.995422
_cell_angle_beta	89.998368
_cell_angle_gamma	84.343067
loop_
_atom_site_label
_atom_site_type_symbol
_atom_site_fract_x
_atom_site_fract_y
_atom_site_fract_z
O1	O	1.667391	0.159453	-0.114239
O2	O	1.301872	0.174634	-0.114253
O3	O	1.493493	0.001895	-0.114236
O4	O	1.475770	0.332193	-0.114256
O5	O	1.493481	0.001890	0.114344
O6	O	1.301859	0.174629	0.114327
O7	O	1.667379	0.159449	0.114341
Zn8	Zn	1.484617	0.167038	0.150626
Zn9	Zn	1.484634	0.167044	-0.150538
O10	O	1.475757	0.332188	0.114324
C11	C	1.255071	0.173516	0.000035
C12	C	1.115637	0.170176	0.000030
C13	C	0.919112	0.165477	-0.124558
C14	C	1.050125	0.168608	-0.124567
C15	C	1.050130	0.168602	0.124644
C16	C	0.919120	0.165463	0.124651
C17	C	1.492371	-0.040401	0.000054
C18	C	1.489029	-0.166422	0.000052
C19	C	1.486314	-0.268765	0.000047
C20	C	1.482919	-0.397159	0.000035
C21	C	1.714180	0.160567	0.000050
C22	C	1.853613	0.163906	0.000046
C23	C	1.476880	0.374484	0.000032
C24	C	1.480222	0.500504	0.000024
N25	N	1.484615	0.167033	0.356163
N26	N	1.484645	0.167040	-0.356074
C27	C	1.569494	0.090577	0.428096
C28	C	1.569507	0.090577	0.571979
C29	C	1.399757	0.243500	0.571982
C30	C	1.399740	0.243494	0.428102
H31	H	1.103448	0.169885	-0.226032
H32	H	1.103482	0.169872	0.226093
C33	C	0.865330	0.261909	-0.336982
C34	C	0.847107	0.163756	-0.261521
H35	H	0.820885	0.260839	-0.421542
H36	H	0.834732	0.327454	-0.285791
H37	H	0.952734	0.263989	-0.354806
H38	H	0.759704	0.161680	-0.243688
H39	H	0.877699	0.098194	-0.312723
C40	C	1.595604	-0.063719	0.266389
C41	C	1.662746	0.006471	0.349052
H42	H	1.653166	-0.115656	0.217600
H43	H	1.543036	-0.104926	0.322562
H44	H	1.545089	-0.018175	0.202928
H45	H	1.713254	-0.039073	0.412520
H46	H	1.715336	0.047682	0.292875
H47	H	1.330655	0.305755	0.630570
C48	C	1.231953	0.394668	0.442546
C49	C	1.306436	0.327545	0.349022
H50	H	1.174359	0.446556	0.393721
H51	H	1.186467	0.347044	0.498679
H52	H	1.284522	0.435940	0.498650
H53	H	1.253867	0.286266	0.292924
H54	H	1.351925	0.375174	0.292865
C55	C	0.932273	0.165785	0.370995
C56	C	0.847114	0.163741	0.261627
H57	H	0.887815	0.164726	0.455552
H58	H	0.992492	0.100943	0.365818
H59	H	0.974249	0.233086	0.365797
H60	H	0.805144	0.096436	0.266819
H61	H	0.786872	0.228590	0.266806
C62	C	1.595740	-0.063667	0.733790
C63	C	1.662811	0.006534	0.651047
H64	H	1.653345	-0.115559	0.782594
H65	H	1.545213	-0.018132	0.797224
H66	H	1.543188	-0.104935	0.677658
H67	H	1.715355	0.047808	0.707180
H68	H	1.713359	-0.039006	0.587605
