data_functionalizedCrystal
_audit_creation_method	'MofGen! by Chris Wilmer'
_symmetry_space_group_name_H-M	'P1'
_symmetry_Int_Tables_number	1
_symmetry_cell_setting	triclinic
loop_
_symmetry_equiv_pos_as_xyz
  x,y,z
_cell_length_a	9.065218
_cell_length_b	9.730217
_cell_length_c	9.065218
_cell_angle_alpha	90.003263
_cell_angle_beta	85.015885
_cell_angle_gamma	90.003784
loop_
_atom_site_label
_atom_site_type_symbol
_atom_site_fract_x
_atom_site_fract_y
_atom_site_fract_z
O1	O	1.960400	0.114287	0.216358
O2	O	1.531115	0.114289	0.234104
O3	O	1.754631	0.114285	0.010589
O4	O	1.736884	0.114291	0.439873
O5	O	1.754614	-0.114295	0.010579
O6	O	1.531099	-0.114291	0.234095
O7	O	1.960384	-0.114293	0.216349
Zn8	Zn	1.745739	-0.150584	0.225220
Zn9	Zn	1.745760	0.150580	0.225232
O10	O	1.736868	-0.114289	0.439864
C11	C	1.476120	-0.000001	0.232394
C12	C	1.312277	-0.000000	0.227294
N13	N	1.745735	-0.356121	0.225211
C14	C	1.564387	-0.356179	0.043710
C15	C	1.473730	-0.428147	-0.047043
C16	C	1.473752	-0.572027	-0.047043
C17	C	1.564438	-0.643941	0.043723
C18	C	1.655096	-0.571972	0.134477
C19	C	1.655067	-0.428089	0.134464
C20	C	1.836433	-0.571915	0.315983
C21	C	1.836421	-0.428035	0.315978
C22	C	1.927119	-0.643829	0.406750
C23	C	2.017787	-0.571860	0.497498
C24	C	2.017763	-0.427971	0.497493
C25	C	1.927079	-0.356066	0.406731
C26	C	2.015378	0.000000	0.218059
C27	C	2.179221	0.000008	0.223158
C28	C	1.752917	-0.000003	-0.044403
C29	C	1.747817	0.000004	-0.208245
N30	N	1.745775	0.356117	0.225230
C31	C	1.738582	0.000002	0.494855
C32	C	1.743681	0.000004	0.658698
H33	H	1.399892	-0.369579	-0.120941
H34	H	1.927123	-0.760983	0.406750
H35	H	1.927054	-0.238911	0.406715
O36	O	1.385896	-0.642094	-0.135280
C37	C	1.474553	-0.725283	-0.234724
H38	H	1.584644	-0.746803	-0.187266
H39	H	1.415045	-0.826478	-0.251987
H40	H	1.495661	-0.669841	-0.345331
O41	O	2.105827	-0.641928	0.585522
C42	C	2.086366	-0.784351	0.566101
H43	H	2.042825	-0.804020	0.453750
H44	H	2.197005	-0.839021	0.571373
H45	H	2.003533	-0.825180	0.657474
H46	H	2.091579	-0.369383	0.571404
O47	O	1.564146	-0.216415	0.043570
C48	C	1.464703	-0.168374	-0.056030
H49	H	1.378984	-0.251306	-0.073062
H50	H	1.406452	-0.072120	-0.008866
H51	H	1.528258	-0.142849	-0.166700
H52	H	1.564434	-0.761096	0.043728
