data_functionalizedCrystal
_audit_creation_method	'MofGen! by Chris Wilmer'
_symmetry_space_group_name_H-M	'P1'
_symmetry_Int_Tables_number	1
_symmetry_cell_setting	triclinic
loop_
_symmetry_equiv_pos_as_xyz
  x,y,z
_cell_length_a	16.120530
_cell_length_b	12.594516
_cell_length_c	16.120297
_cell_angle_alpha	92.877768
_cell_angle_beta	90.128140
_cell_angle_gamma	87.111852
loop_
_atom_site_label
_atom_site_type_symbol
_atom_site_fract_x
_atom_site_fract_y
_atom_site_fract_z
Zn1	Zn	1.247493	-0.539249	-0.534603
Zn2	Zn	1.580827	-0.205916	-0.201269
Zn3	Zn	1.914160	0.127418	0.132064
Zn4	Zn	1.254461	-0.708692	-0.395557
Zn5	Zn	1.587794	-0.375359	-0.062224
Zn6	Zn	1.921127	-0.042025	0.271110
Zn7	Zn	1.115482	-0.521263	-0.388519
Zn8	Zn	1.448815	-0.187930	-0.055186
Zn9	Zn	1.782149	0.145404	0.278147
Zn10	Zn	1.108417	-0.707712	-0.527526
Zn11	Zn	1.441750	-0.374379	-0.194193
Zn12	Zn	1.775084	-0.041045	0.139140
O13	O	1.181463	-0.619229	-0.461551
O14	O	1.514797	-0.285896	-0.128218
O15	O	1.848130	0.047438	0.205115
O16	O	1.364785	-0.569664	-0.522065
O17	O	1.698118	-0.236330	-0.188731
O18	O	2.031451	0.097003	0.144602
O19	O	1.241897	-0.676712	-0.278258
O20	O	1.575231	-0.343379	0.055076
O21	O	1.908564	-0.010046	0.388409
O22	O	1.133034	-0.374707	-0.407914
O23	O	1.466368	-0.041373	-0.074581
O24	O	1.799701	0.291960	0.258753
O25	O	1.369904	-0.694153	-0.419909
O26	O	1.703237	-0.360819	-0.086575
O27	O	2.036570	-0.027486	0.246758
O28	O	1.230022	-0.387921	-0.515241
O29	O	1.563356	-0.054588	-0.181907
O30	O	1.896689	0.278746	0.151426
O31	O	1.139790	-0.539009	-0.273087
O32	O	1.473124	-0.205675	0.060246
O33	O	1.806457	0.127658	0.393580
O34	O	0.998178	-0.538058	-0.401052
O35	O	1.331511	-0.204725	-0.067719
O36	O	1.664844	0.128608	0.265614
O37	O	1.120993	-0.692482	-0.644831
O38	O	1.454327	-0.359149	-0.311498
O39	O	1.787660	-0.025815	0.021836
O40	O	0.992987	-0.675042	-0.503180
O41	O	1.326320	-0.341708	-0.169847
O42	O	1.659654	-0.008375	0.163487
O43	O	1.223172	-0.568713	-0.650030
O44	O	1.556505	-0.235380	-0.316697
O45	O	1.889839	0.097954	0.016637
O46	O	1.235047	-0.857504	-0.413047
O47	O	1.568380	-0.524171	-0.079713
O48	O	1.901714	-0.190838	0.253620
O49	O	1.127749	-0.856784	-0.510004
O50	O	1.461083	-0.523451	-0.176671
O51	O	1.794416	-0.190117	0.156663
C52	C	0.965410	-0.604493	-0.450585
C53	C	1.298743	-0.271159	-0.117252
C54	C	1.632076	0.062174	0.216082
C55	C	0.872980	-0.598215	-0.445913
C56	C	1.206313	-0.264882	-0.112580
C57	C	1.539647	0.068452	0.220753
C58	C	1.181409	-0.895766	-0.461540
C59	C	1.514742	-0.562432	-0.128207
C60	C	1.848076	-0.229099	0.205126
C61	C	1.181461	-1.014076	-0.461567
C62	C	1.514794	-0.680743	-0.128234
C63	C	1.848127	-0.347410	0.205099
C64	C	0.703749	-0.586730	-0.437391
C65	C	1.037083	-0.253396	-0.104058
C66	C	1.370416	0.079937	0.229276
C67	C	0.660015	-0.651810	-0.485772
C68	C	0.993348	-0.318477	-0.152439
C69	C	1.326681	0.014856	0.180894
C70	C	0.565849	-0.645420	-0.481031
C71	C	0.899182	-0.312087	-0.147697
C72	C	1.232515	0.021247	0.185636
C73	C	0.797924	-0.593119	-0.442132
C74	C	1.131257	-0.259785	-0.108798
C75	C	1.464590	0.073548	0.224535
C76	C	1.123098	-1.082974	-0.514263
C77	C	1.456431	-0.749640	-0.180930
C78	C	1.789765	-0.416307	0.152404
C79	C	1.106686	-1.147787	-0.437359
C80	C	1.440019	-0.814454	-0.104026
C81	C	1.773352	-0.481120	0.229307
C82	C	1.197948	-1.160068	-0.538488
C83	C	1.531281	-0.826735	-0.205155
C84	C	1.864615	-0.493401	0.128179
C85	C	1.165010	-1.077326	-0.384621
C86	C	1.498344	-0.743993	-0.051288
C87	C	1.831677	-0.410660	0.282045
C88	C	1.256305	-1.089606	-0.485803
C89	C	1.589639	-0.756273	-0.152470
C90	C	1.922972	-0.422940	0.180864
C91	C	1.239924	-1.154387	-0.408848
C92	C	1.573258	-0.821053	-0.075515
C93	C	1.906591	-0.487720	0.257818
C94	C	1.398360	-0.634024	-0.472561
C95	C	1.731694	-0.300690	-0.139228
C96	C	2.065027	0.032643	0.194106
C97	C	1.490789	-0.640328	-0.477253
C98	C	1.824122	-0.306995	-0.143919
C99	C	2.157456	0.026338	0.189414
C100	C	1.170517	-0.632495	-0.678446
C101	C	1.503851	-0.299161	-0.345113
C102	C	1.837184	0.034172	-0.011780
C103	C	1.165853	-0.638148	-0.770874
C104	C	1.499186	-0.304814	-0.437541
C105	C	1.832520	0.028519	-0.104208
C106	C	1.181539	-0.341615	-0.461582
C107	C	1.514873	-0.008282	-0.128248
C108	C	1.848206	0.325052	0.205085
C109	C	1.181572	-0.223313	-0.461595
C110	C	1.514905	0.110021	-0.128261
C111	C	1.848238	0.443354	0.205072
C112	C	1.157306	-0.648443	-0.940100
C113	C	1.490640	-0.315109	-0.606766
C114	C	1.823973	0.018224	-0.273433
C115	C	1.205784	-0.589708	-0.983863
C116	C	1.539117	-0.256374	-0.650530
C117	C	1.872451	0.076959	-0.317197
C118	C	1.201029	-0.595436	-1.078026
C119	C	1.534362	-0.262103	-0.744693
C120	C	1.867695	0.071231	-0.411359
C121	C	1.162061	-0.642716	-0.845928
C122	C	1.495394	-0.309382	-0.512595
C123	C	1.828727	0.023951	-0.179262
C124	C	1.192414	-0.605942	-0.245502
C125	C	1.525748	-0.272608	0.087831
C126	C	1.859081	0.060725	0.421164
C127	C	1.197240	-0.600000	-0.153083
C128	C	1.530573	-0.266666	0.180250
C129	C	1.863907	0.066667	0.513583
H130	H	0.670473	-0.526218	-0.392412
H131	H	1.003806	-0.192885	-0.059079
H132	H	1.337140	0.140448	0.274254
H133	H	1.250858	-0.535120	-0.950612
H134	H	1.584191	-0.201786	-0.617279
H135	H	1.917525	0.131547	-0.283945
H136	H	1.319532	-1.063819	-0.506317
H137	H	1.652866	-0.730486	-0.172984
H138	H	1.986199	-0.397152	0.160350
H139	H	1.073662	-1.051620	-0.558754
H140	H	1.406996	-0.718287	-0.225420
H141	H	1.740329	-0.384954	0.107913
H142	H	1.112236	-0.703026	-0.973349
H143	H	1.445569	-0.369693	-0.640016
H144	H	1.778903	-0.036359	-0.306682
N145	N	1.146494	-1.029620	-0.298440
N146	N	1.479828	-0.696287	0.034893
N147	N	1.813161	-0.362954	0.368226
H148	H	1.138178	-1.088466	-0.259420
H149	H	1.471511	-0.755132	0.073913
H150	H	1.804845	-0.421799	0.407246
H151	H	1.194541	-0.986679	-0.278430
H152	H	1.527874	-0.653346	0.054903
H153	H	1.861208	-0.320013	0.388236
N154	N	1.022908	-1.181907	-0.410214
N155	N	1.356241	-0.848573	-0.076881
N156	N	1.689574	-0.515240	0.256453
H157	H	0.998351	-1.228524	-0.455793
H158	H	1.331684	-0.895191	-0.122460
H159	H	1.665018	-0.561857	0.210873
H160	H	1.029639	-1.223080	-0.358246
H161	H	1.362972	-0.889746	-0.024913
H162	H	1.696305	-0.556413	0.308420
N163	N	0.704086	-0.731975	-0.545357
N164	N	1.037420	-0.398642	-0.212024
N165	N	1.370753	-0.065309	0.121309
H166	H	0.766083	-0.725238	-0.540341
H167	H	1.099417	-0.391904	-0.207008
H168	H	1.432750	-0.058571	0.126326
H169	H	0.689597	-0.806159	-0.531562
H170	H	1.022930	-0.472825	-0.198229
H171	H	1.356263	-0.139492	0.135104
H172	H	1.211849	-1.196211	-0.603528
H173	H	1.545182	-0.862878	-0.270195
H174	H	1.878516	-0.529545	0.063138
N175	N	1.305372	-1.195650	-0.349772
N176	N	1.638706	-0.862317	-0.016439
N177	N	1.972039	-0.528984	0.316895
H178	H	1.292852	-1.165243	-0.291724
H179	H	1.626186	-0.831910	0.041609
H180	H	1.959519	-0.498576	0.374942
H181	H	1.305356	-1.275882	-0.350531
H182	H	1.638689	-0.942549	-0.017198
H183	H	1.972022	-0.609216	0.316135
