data_functionalizedCrystal
_audit_creation_method	'MofGen! by Chris Wilmer'
_symmetry_space_group_name_H-M	'P1'
_symmetry_Int_Tables_number	1
_symmetry_cell_setting	triclinic
loop_
_symmetry_equiv_pos_as_xyz
  x,y,z
_cell_length_a	16.109301
_cell_length_b	10.654545
_cell_length_c	15.186229
_cell_angle_alpha	89.998599
_cell_angle_beta	89.999362
_cell_angle_gamma	83.973454
loop_
_atom_site_label
_atom_site_type_symbol
_atom_site_fract_x
_atom_site_fract_y
_atom_site_fract_z
O1	O	1.104091	0.161419	-0.073168
O2	O	0.862148	0.181507	-0.073182
O3	O	0.988682	-0.011352	-0.073174
O4	O	0.977557	0.354278	-0.073176
O5	O	0.988673	-0.011354	0.073283
O6	O	0.862140	0.181504	0.073276
O7	O	1.104082	0.161416	0.073289
Zn8	Zn	0.983110	0.171460	0.096536
Zn9	Zn	0.983121	0.171463	-0.096428
O10	O	0.977549	0.354275	0.073281
C11	C	0.831164	0.180692	0.000045
C12	C	0.738855	0.178253	0.000040
C13	C	0.517229	0.287019	0.000050
C14	C	0.430495	0.284717	0.000055
C15	C	0.449008	0.055896	0.000053
C16	C	0.535741	0.058199	0.000053
C17	C	0.569849	0.173764	0.000047
C18	C	0.396382	0.169159	0.000052
C19	C	0.302341	0.166662	0.000058
C20	C	0.663895	0.176262	0.000043
C21	C	0.987860	-0.058140	0.000053
C22	C	0.985416	-0.197550	0.000048
C23	C	0.985435	-0.197556	-0.159625
C24	C	0.984300	-0.263053	-0.239460
C25	C	0.982003	-0.394041	-0.239462
C26	C	0.980840	-0.459533	-0.159618
C27	C	0.981975	-0.394036	-0.079783
C28	C	0.984274	-0.263046	-0.079790
C29	C	0.981950	-0.394029	0.079888
C30	C	0.984253	-0.263043	0.079891
C31	C	0.980787	-0.459522	0.159731
C32	C	0.981928	-0.394026	0.239569
C33	C	0.984226	-0.263031	0.239567
C34	C	0.985388	-0.197546	0.159727
C35	C	1.135066	0.162231	0.000060
C36	C	1.227376	0.164671	0.000060
C37	C	0.978370	0.401063	0.000053
C38	C	0.980815	0.540473	0.000052
N39	N	0.983108	0.171457	0.228228
N40	N	0.983129	0.171457	-0.228121
C41	C	1.039156	0.086088	0.453954
C42	C	1.039159	0.086085	0.546144
C43	C	0.927075	0.256830	0.546146
C44	C	0.927069	0.256826	0.453958
C45	C	0.983114	0.171456	0.407865
C46	C	0.983123	0.171457	0.592242
C47	C	0.983125	0.171455	0.692199
C48	C	0.983111	0.171457	0.307902
H49	H	0.387655	0.376940	0.000059
H50	H	0.421227	-0.038193	0.000063
H51	H	0.985246	-0.209714	-0.304467
C52	C	0.814101	0.284038	0.649838
C53	C	0.865479	0.350671	0.596820
H54	H	0.776079	0.341977	0.681125
H55	H	0.783891	0.231764	0.613880
H56	H	0.847490	0.233199	0.690477
H57	H	0.832090	0.401504	0.556177
H58	H	0.895691	0.402968	0.632781
H59	H	0.544997	0.381119	0.000051
H60	H	1.084793	0.016568	0.583668
C61	C	0.982223	-0.380897	-0.397298
C62	C	0.980730	-0.466038	-0.327217
H63	H	0.981434	-0.425348	-0.451472
H64	H	0.934731	-0.320203	-0.393971
H65	H	1.031526	-0.339415	-0.393984
H66	H	0.931423	-0.507514	-0.330527
H67	H	1.028226	-0.526754	-0.330545
C68	C	0.814075	0.284034	0.350292
C69	C	0.865464	0.350673	0.403289
H70	H	0.776042	0.341969	0.319015
H71	H	0.847449	0.233197	0.309653
H72	H	0.783871	0.231756	0.386270
H73	H	0.895673	0.402944	0.367309
H74	H	0.832086	0.401532	0.443932
H75	H	0.578586	-0.034032	0.000054
C76	C	0.917336	0.004230	0.116243
C77	C	0.987909	-0.053561	0.159724
H78	H	0.918890	0.093121	0.116245
H79	H	0.916836	-0.025405	0.057278
H80	H	0.868421	-0.015819	0.145729
H81	H	1.036825	-0.033521	0.130235
H82	H	0.988418	-0.023915	0.218700
C83	C	0.977559	-0.647174	-0.246553
C84	C	0.978313	-0.603517	-0.159619
H85	H	0.976005	-0.736065	-0.246550
H86	H	0.929687	-0.607950	-0.276036
H87	H	1.026482	-0.627132	-0.276026
H88	H	0.929386	-0.623551	-0.130148
H89	H	1.026189	-0.642755	-0.130124
C90	C	0.909852	-0.420205	0.375655
C91	C	0.980646	-0.466016	0.327324
H92	H	0.909060	-0.464659	0.429829
H93	H	0.911395	-0.332835	0.387081
H94	H	0.861088	-0.432074	0.342834
H95	H	1.029411	-0.454139	0.360142
H96	H	0.979110	-0.553408	0.315900
H97	H	0.987315	-0.090900	-0.159632
H98	H	0.978912	-0.566178	0.159724
H99	H	0.985138	-0.209708	0.304579
C100	C	1.149939	-0.082697	0.463215
C101	C	1.100753	-0.007761	0.403288
H102	H	1.187962	-0.140643	0.431935
H103	H	1.180148	-0.030410	0.499164
H104	H	1.115064	-0.127875	0.499179
H105	H	1.135628	0.037424	0.367328
H106	H	1.070542	-0.060055	0.367324
