data_functionalizedCrystal
_audit_creation_method	'MofGen! by Chris Wilmer'
_symmetry_space_group_name_H-M	'P1'
_symmetry_Int_Tables_number	1
_symmetry_cell_setting	triclinic
loop_
_symmetry_equiv_pos_as_xyz
  x,y,z
_cell_length_a	14.971482
_cell_length_b	15.500227
_cell_length_c	14.971486
_cell_angle_alpha	92.831336
_cell_angle_beta	96.386632
_cell_angle_gamma	92.847292
loop_
_atom_site_label
_atom_site_type_symbol
_atom_site_fract_x
_atom_site_fract_y
_atom_site_fract_z
O1	O	1.191102	0.071933	-0.112399
O2	O	1.691102	0.571933	0.387601
O3	O	0.930702	0.071938	-0.126361
O4	O	1.430702	0.571938	0.373639
O5	O	1.067881	0.071929	0.010819
O6	O	1.567881	0.571929	0.510819
O7	O	1.053923	0.071942	-0.249580
O8	O	1.553923	0.571942	0.250420
O9	O	1.059557	-0.071959	0.002528
O10	O	1.559557	0.428041	0.502528
O11	O	0.922378	-0.071951	-0.134653
O12	O	1.422378	0.428049	0.365347
O13	O	1.182778	-0.071955	-0.120691
O14	O	1.682778	0.428045	0.379309
Cu15	Cu	1.051818	-0.085091	-0.128429
Cu16	Cu	1.551818	0.414909	0.371571
Cu17	Cu	1.061662	0.085074	-0.118623
Cu18	Cu	1.561662	0.585074	0.381377
O19	O	1.045599	-0.071947	-0.257872
O20	O	1.545599	0.428053	0.242128
C21	C	0.893215	-0.000006	-0.129884
C22	C	1.393215	0.499994	0.370116
C23	C	0.793918	-0.000005	-0.128014
C24	C	1.293918	0.499995	0.371986
N25	N	1.044900	-0.204775	-0.135326
N26	N	1.544900	0.295225	0.364674
C27	C	0.742736	-0.078439	-0.131653
C28	C	1.242736	0.421561	0.368347
C29	C	0.649437	-0.078440	-0.129883
C30	C	1.149437	0.421560	0.370117
C31	C	0.607322	-0.000006	-0.124479
C32	C	1.107322	0.499994	0.375521
C33	C	0.658511	0.078435	-0.120837
C34	C	1.158511	0.578435	0.379163
C35	C	0.751809	0.078435	-0.122601
C36	C	1.251809	0.578435	0.377399
C37	C	0.464049	0.078429	-0.117162
C38	C	0.964049	0.578429	0.382838
C39	C	0.370745	0.078429	-0.115399
C40	C	0.870745	0.578429	0.384601
C41	C	0.361677	-0.078446	-0.124443
C42	C	0.861677	0.421554	0.375557
C43	C	0.454975	-0.078446	-0.126208
C44	C	0.954975	0.421554	0.373792
C45	C	0.506158	-0.000005	-0.122567
C46	C	1.006158	0.499995	0.377433
C47	C	1.103048	-0.250056	-0.077219
C48	C	1.603048	0.249944	0.422781
C49	C	1.097824	-0.340628	-0.082443
C50	C	1.597824	0.159372	0.417557
C51	C	1.034457	-0.385919	-0.145779
C52	C	1.534457	0.114081	0.354221
C53	C	0.976303	-0.340632	-0.203888
C54	C	1.476303	0.159368	0.296112
C55	C	0.981523	-0.250061	-0.198659
C56	C	1.481523	0.249939	0.301341
C57	C	1.015653	-0.659385	-0.164600
C58	C	1.515653	-0.159385	0.335400
C59	C	1.010439	-0.749962	-0.169827
C60	C	1.510439	-0.249962	0.330173
C61	C	1.131960	-0.749951	-0.048380
C62	C	1.631960	-0.249951	0.451620
C63	C	1.137178	-0.659379	-0.043160
C64	C	1.637178	-0.159379	0.456840
C65	C	1.079021	-0.614100	-0.101266
C66	C	1.579021	-0.114100	0.398734
C67	C	1.029118	-0.478498	-0.151122
C68	C	1.529118	0.021502	0.348878
C69	C	1.084356	-0.521522	-0.095918
C70	C	1.584356	-0.021522	0.404082
C71	C	1.220265	-0.000009	-0.117169
C72	C	1.720265	0.499991	0.382831
C73	C	1.319563	-0.000005	-0.119038
C74	C	1.819563	0.499995	0.380962
C75	C	1.063095	-0.000015	0.039998
C76	C	1.563095	0.499985	0.539998
C77	C	1.061224	-0.000014	0.139295
C78	C	1.561224	0.499986	0.639295
N79	N	1.068587	0.204758	-0.111720
N80	N	1.568587	0.704758	0.388280
C81	C	1.050385	-0.000001	-0.287051
C82	C	1.550385	0.499999	0.212949
C83	C	1.052256	0.000004	-0.386348
C84	C	1.552256	0.500004	0.113652
C85	C	1.141813	-0.000016	0.196522
C86	C	1.641813	0.499984	0.696522
C87	C	1.140051	-0.000007	0.289821
C88	C	1.640051	0.499993	0.789821
C89	C	1.057698	-0.000003	0.325893
C90	C	1.557698	0.499997	0.825893
C91	C	0.977102	0.000002	0.268660
C92	C	1.477102	0.500002	0.768660
C93	C	0.978866	-0.000001	0.175362
C94	C	1.478866	0.499999	0.675362
C95	C	0.973432	0.000005	0.463122
C96	C	1.473432	0.500005	0.963122
C97	C	0.971667	0.000006	0.556426
C98	C	1.471667	0.500006	1.056426
C99	C	1.134616	-0.000001	0.577582
C100	C	1.634616	0.499999	1.077582
C101	C	1.136380	-0.000004	0.484284
C102	C	1.636380	0.499996	0.984284
C103	C	1.055784	-0.000001	0.427057
C104	C	1.555784	0.499999	0.927057
H105	H	0.777018	-0.142310	-0.136061
H106	H	1.277018	0.357690	0.363939
H107	H	0.624215	0.142297	-0.116430
H108	H	1.124215	0.642297	0.383570
C109	C	1.232410	-0.000021	0.156853
C110	C	1.732410	0.499979	0.656853
N111	N	1.300650	-0.000021	0.126977
N112	N	1.800650	0.499979	0.626977
H113	H	0.910049	0.000011	0.298036
H114	H	1.410049	0.500011	0.798036
C115	C	0.324421	0.164711	-0.109450
C116	C	0.824421	0.664711	0.390550
N117	N	0.289529	0.229700	-0.104969
N118	N	0.789529	0.729700	0.395031
H119	H	0.793481	0.142304	-0.119639
H120	H	1.293481	0.642304	0.380361
C121	C	0.305375	-0.164732	-0.128442
C122	C	0.805375	0.335268	0.371558
N123	N	0.262964	-0.229720	-0.131455
N124	N	0.762964	0.270280	0.368545
C125	C	0.890212	-0.000001	0.112412
C126	C	1.390212	0.499999	0.612412
N127	N	0.823434	0.000002	0.065000
N128	N	1.323434	0.500002	0.565000
H129	H	0.958835	-0.786833	-0.221406
H130	H	1.458835	-0.286833	0.278594
C131	C	0.951794	-0.609590	-0.228636
C132	C	1.451794	-0.109590	0.271364
N133	N	0.903733	-0.572082	-0.276912
N134	N	1.403733	-0.072082	0.223088
C135	C	1.226972	-0.000013	0.444608
C136	C	1.726972	0.499987	0.944608
N137	N	1.295208	-0.000017	0.414724
N138	N	1.795208	0.499983	0.914724
C139	C	0.593138	-0.164724	-0.133907
C140	C	1.093138	0.335276	0.366093
N141	N	0.550732	-0.229717	-0.136945
N142	N	1.050732	0.270283	0.363055
H143	H	1.205675	-0.000011	0.336412
H144	H	1.705675	0.499989	0.836412
C145	C	1.161771	-0.390432	-0.018499
C146	C	1.661771	0.109568	0.481501
N147	N	1.209930	-0.427944	0.029675
N148	N	1.709930	0.072056	0.529675
H149	H	0.924703	-0.377513	-0.255455
H150	H	1.424703	0.122487	0.244545
C151	C	0.520348	0.164719	-0.113161
C152	C	1.020348	0.664719	0.386839
N153	N	0.562751	0.229710	-0.110155
N154	N	1.062751	0.729710	0.389845
C155	C	1.223273	0.000002	0.640534
C156	C	1.723273	0.500002	1.140534
N157	N	1.290046	0.000003	0.687953
N158	N	1.790046	0.500003	1.187953
H159	H	1.154652	-0.213186	-0.025648
H160	H	1.654652	0.286814	0.474352
C161	C	1.206883	-0.609566	0.026519
C162	C	1.706883	-0.109566	0.526519
N163	N	1.259386	-0.572047	0.079001
N164	N	1.759386	-0.072047	0.579001
C165	C	0.881075	0.000022	0.596103
C166	C	1.381075	0.500022	1.096103
N167	N	0.812840	0.000037	0.625988
N168	N	1.312840	0.500037	1.125988
C169	C	0.884771	0.000004	0.400174
C170	C	1.384771	0.500004	0.900174
N171	N	0.817993	-0.000003	0.352761
N172	N	1.317993	0.499997	0.852761
H173	H	1.179308	-0.786825	-0.001071
H174	H	1.679308	-0.286825	0.498929
C175	C	0.917562	-0.200254	-0.262589
C176	C	1.417562	0.299746	0.237411
N177	N	0.869386	-0.162740	-0.310743
N178	N	1.369386	0.337260	0.189257
H179	H	1.135947	-0.484644	-0.044347
H180	H	1.635947	0.015356	0.455653
H181	H	0.489261	-0.142314	-0.130613
H182	H	0.989261	0.357686	0.369387
H183	H	0.977524	-0.515382	-0.202693
H184	H	1.477524	-0.015382	0.297307
