data_functionalizedCrystal
_audit_creation_method	'MofGen! by Chris Wilmer'
_symmetry_space_group_name_H-M	'P1'
_symmetry_Int_Tables_number	1
_symmetry_cell_setting	triclinic
loop_
_symmetry_equiv_pos_as_xyz
  x,y,z
_cell_length_a	12.478026
_cell_length_b	14.628931
_cell_length_c	12.477989
_cell_angle_alpha	124.274522
_cell_angle_beta	84.724577
_cell_angle_gamma	122.958616
loop_
_atom_site_label
_atom_site_type_symbol
_atom_site_fract_x
_atom_site_fract_y
_atom_site_fract_z
Zr1	Zr	1.020291	-1.028696	-0.252411
O2	O	0.837565	-1.237867	-0.418193
O3	O	1.076306	-0.832329	-0.201590
O4	O	1.060651	-1.049627	-0.440332
O5	O	0.865568	-0.999592	0.008873
O6	O	1.236625	-1.051572	-0.457796
O7	O	0.853220	-1.020569	-0.179451
O8	O	1.264630	-0.662865	-0.030729
O9	O	0.837564	-1.388300	-0.418194
O10	O	1.231524	-0.909806	-0.192948
O11	O	1.109412	-0.892700	-0.039371
O12	O	1.090980	-1.148541	-0.320460
O13	O	0.968868	-1.131435	-0.166883
Zr14	Zr	1.320644	-0.998343	0.020091
Zr15	Zr	1.300949	-1.031798	-0.280264
Zr16	Zr	1.039985	-0.995240	0.047944
Zr17	Zr	1.020290	-1.268618	-0.252412
Zr18	Zr	1.320645	-0.758421	0.020092
O19	O	1.264628	-1.194709	-0.030730
O20	O	1.236625	-1.242278	-0.457796
O21	O	0.865568	-1.190298	0.008872
O22	O	1.503370	-0.789171	0.185873
O23	O	1.475367	-0.836740	-0.241192
O24	O	1.104310	-0.784760	0.225476
O25	O	1.475366	-1.027446	-0.241193
O26	O	1.280283	-0.977411	0.208012
O27	O	1.104309	-0.975466	0.225476
O28	O	1.487715	-1.006469	-0.052869
O29	O	1.060650	-1.390766	-0.440333
O30	O	1.280284	-0.636273	0.208013
O31	O	1.503370	-0.638739	0.185874
O32	O	1.487716	-0.665331	-0.052868
O33	O	0.853219	-1.361707	-0.179452
O34	O	1.076305	-1.364173	-0.201591
O35	O	1.249955	-0.878497	0.088140
O36	O	1.372067	-0.895603	-0.065437
O37	O	1.231523	-1.134338	-0.192949
O38	O	1.109411	-1.117232	-0.039372
C39	C	1.170468	-0.713413	-0.116159
C40	C	1.170468	-0.611560	-0.116159
C41	C	1.269064	-0.372164	-0.026706
C42	C	1.269066	-0.477432	-0.026704
C43	C	0.819406	-1.009638	-0.081321
C44	C	0.700259	-1.008321	-0.069496
C45	C	1.521528	-1.017400	-0.150999
C46	C	1.640675	-1.018717	-0.162823
C47	C	1.170467	-0.313625	-0.116161
C48	C	1.170466	-0.415478	-0.116161
C49	C	1.145832	-1.055366	-0.491858
C50	C	1.137471	-1.069569	-0.619366
C51	C	1.195102	-0.971672	0.259538
C52	C	1.203463	-0.957469	0.387047
C53	C	1.521529	-0.717294	-0.150999
C54	C	1.640676	-0.616758	-0.162822
C55	C	1.195103	-0.671566	0.259539
C56	C	1.203464	-0.555510	0.387047
C57	C	1.546164	-0.675446	0.224699
C58	C	1.673672	-0.560708	0.340384
C59	C	0.794770	-1.351592	-0.457019
C60	C	0.667262	-1.466331	-0.572704
C61	C	0.819405	-1.309744	-0.081321
C62	C	0.700258	-1.410281	-0.069497
C63	C	1.145831	-1.355472	-0.491859
C64	C	1.137470	-1.471528	-0.619367
C65	C	1.623266	-0.576960	-0.234947
C66	C	1.735205	-0.482512	-0.246084
C67	C	1.864553	-0.427855	-0.185087
C68	C	1.881961	-0.467662	-0.112960
C69	C	1.770023	-0.562116	-0.101832
C70	C	0.717668	-1.450090	0.002615
C71	C	0.605727	-1.544568	0.013719
C72	C	0.476378	-1.599228	-0.047283
C73	C	0.458971	-1.559416	-0.119404
C74	C	0.570910	-1.464947	-0.130515
C75	C	1.110431	-0.582815	0.456550
C76	C	1.118260	-0.473783	0.576350
C77	C	1.219129	-0.337446	0.626649
C78	C	1.312166	-0.310142	0.557135
C79	C	1.304331	-0.419174	0.437332
C80	C	1.036592	-1.607845	-0.669627
C81	C	1.028732	-1.716904	-0.789423
C82	C	1.121745	-1.689643	-0.858962
C83	C	1.222634	-1.553312	-0.808693
C84	C	1.230498	-1.444256	-0.688894
H85	H	1.353474	-0.440523	0.049887
Br86	Br	0.633371	-0.991790	0.078783
H87	H	1.266354	-0.850630	-0.509915
H88	H	1.225493	-0.248678	0.724200
Br89	Br	0.283416	-1.633607	-0.202180
Br90	Br	1.409770	-0.180465	0.100940
H91	H	0.619926	-1.576965	0.072451
H92	H	1.074561	-1.176415	-0.722413
H93	H	1.086049	-0.648478	-0.192745
H94	H	0.960842	-1.630068	-0.613025
H95	H	1.115323	-1.778457	-0.956511
Br96	Br	1.447735	-0.651120	-0.317747
Br97	Br	1.029774	-0.607179	-0.243825
H98	H	1.721005	-0.450113	-0.304816
Br99	Br	2.057516	-0.393469	-0.030181
Br100	Br	0.893199	-1.375932	0.085411
Br101	Br	1.793676	-0.616107	-0.003933
H102	H	1.955689	-0.350945	-0.194157
Br103	Br	0.547259	-1.410926	-0.228382
H104	H	1.042496	-0.496041	0.632934
Br105	Br	0.973525	-0.767833	0.388316
Br106	Br	0.891802	-1.901909	-0.857621
Br107	Br	1.367400	-1.259258	-0.620716
Br108	Br	1.449054	-0.125104	0.625418
H109	H	0.385241	-1.676150	-0.038225
Br110	Br	1.430609	-0.382091	0.343024
Br111	Br	0.707580	-1.035215	-0.311078
Br112	Br	1.348851	-1.516340	-0.903090
H113	H	1.569194	-0.537786	0.489020
H114	H	1.774425	-0.523984	0.319506
