data_functionalizedCrystal
_audit_creation_method	'MofGen! by Chris Wilmer'
_symmetry_space_group_name_H-M	'P1'
_symmetry_Int_Tables_number	1
_symmetry_cell_setting	triclinic
loop_
_symmetry_equiv_pos_as_xyz
  x,y,z
_cell_length_a	21.295417
_cell_length_b	16.120530
_cell_length_c	16.120297
_cell_angle_alpha	90.128140
_cell_angle_beta	87.132998
_cell_angle_gamma	92.874222
loop_
_atom_site_label
_atom_site_type_symbol
_atom_site_fract_x
_atom_site_fract_y
_atom_site_fract_z
Zn1	Zn	-0.318915	-1.247391	0.534523
Zn2	Zn	0.181085	-0.747391	1.034523
Zn3	Zn	-0.419125	-1.254326	0.395453
Zn4	Zn	0.080875	-0.754326	0.895453
Zn5	Zn	-0.308278	-1.115383	0.388443
Zn6	Zn	0.191722	-0.615383	0.888443
Zn7	Zn	-0.418545	-1.108282	0.527422
Zn8	Zn	0.081455	-0.608282	1.027422
O9	O	-0.366216	-1.181345	0.461460
O10	O	0.133784	-0.681345	0.961460
O11	O	-0.336903	-1.364676	0.521981
O12	O	0.163097	-0.864676	1.021981
O13	O	-0.400212	-1.241769	0.278158
O14	O	0.099788	-0.741769	0.778158
O15	O	-0.221604	-1.132963	0.407859
O16	O	0.278396	-0.632963	0.907859
O17	O	-0.410526	-1.369771	0.419806
O18	O	0.089474	-0.869771	0.919806
O19	O	-0.229419	-1.229949	0.515184
O20	O	0.270581	-0.729949	1.015184
O21	O	-0.318773	-1.139688	0.273008
O22	O	0.181227	-0.639688	0.773008
O23	O	-0.318211	-0.998075	0.400973
O24	O	0.181789	-0.498075	0.900973
O25	O	-0.409538	-1.120862	0.644729
O26	O	0.090462	-0.620862	1.144729
O27	O	-0.399224	-0.992859	0.503081
O28	O	0.100776	-0.492859	1.003081
O29	O	-0.336340	-1.223064	0.649946
O30	O	0.163660	-0.723064	1.149946
O31	O	-0.507133	-1.234884	0.412921
O32	O	-0.007133	-0.734884	0.912921
O33	O	-0.506707	-1.127586	0.509878
O34	O	-0.006707	-0.627586	1.009878
C35	C	-0.357501	-0.965295	0.450496
C36	C	0.142499	-0.465295	0.950496
C37	C	-0.353788	-0.872866	0.445825
C38	C	0.146212	-0.372866	0.945825
C39	C	-0.529761	-1.181239	0.461409
C40	C	-0.029761	-0.681239	0.961409
C41	C	-0.599731	-1.181268	0.461418
C42	C	-0.099731	-0.681268	0.961418
C43	C	-0.374061	-1.170397	0.678353
C44	C	0.125939	-0.670397	1.178353
C45	C	-0.377404	-1.165731	0.770780
C46	C	0.122596	-0.665731	1.270780
C47	C	-0.632802	-1.237182	0.410990
C48	C	-0.132802	-0.737182	0.910990
C49	C	-0.698547	-1.237220	0.411010
C50	C	-0.198547	-0.737220	0.911010
C51	C	-0.731217	-1.181329	0.461450
C52	C	-0.231217	-0.681329	0.961450
C53	C	-0.698138	-1.125411	0.511889
C54	C	-0.198138	-0.625411	1.011889
C55	C	-0.632395	-1.125380	0.511873
C56	C	-0.132395	-0.625380	1.011873
N57	N	-0.831783	-1.108264	0.464098
N58	N	-0.331783	-0.608264	0.964098
N59	N	-0.894236	-1.108296	0.464108
N60	N	-0.394236	-0.608296	0.964108
C61	C	-0.929297	-1.181420	0.461503
C62	C	-0.429297	-0.681420	0.961503
N63	N	-0.899546	-1.254514	0.458870
N64	N	-0.399546	-0.754514	0.958870
N65	N	-0.837087	-1.254481	0.458855
N66	N	-0.337087	-0.754481	0.958855
C67	C	-0.802504	-1.181357	0.461473
C68	C	-0.302504	-0.681357	0.961473
C69	C	-1.033657	-1.237380	0.411094
C70	C	-0.533657	-0.737380	0.911094
C71	C	-1.099403	-1.237419	0.411120
C72	C	-0.599403	-0.737419	0.911120
C73	C	-1.098992	-1.125603	0.511994
C74	C	-0.598992	-0.625603	1.011994
C75	C	-1.033248	-1.125571	0.511973
C76	C	-0.533248	-0.625571	1.011973
C77	C	-1.000584	-1.181459	0.461518
C78	C	-0.500584	-0.681459	0.961518
C79	C	-0.202033	-1.181474	0.461531
C80	C	0.297967	-0.681474	0.961531
C81	C	-0.132068	-1.181529	0.461562
C82	C	0.367932	-0.681529	0.961562
C83	C	-0.374966	-1.398240	0.472468
C84	C	0.125034	-0.898240	0.972468
C85	C	-0.378694	-1.490667	0.477159
C86	C	0.121306	-0.990667	0.977159
C87	C	-0.346996	-0.703638	0.437305
C88	C	0.153004	-0.203638	0.937305
C89	C	-0.385485	-0.659891	0.485677
C90	C	0.114515	-0.159891	0.985677
C91	C	-0.381705	-0.565726	0.480936
C92	C	0.118295	-0.065726	0.980936
C93	C	-0.350774	-0.797811	0.442045
C94	C	0.149226	-0.297811	0.942045
C95	C	-0.358358	-1.192299	0.245413
C96	C	0.141642	-0.692299	0.745413
C97	C	-0.354844	-1.197126	0.152995
C98	C	0.145156	-0.697126	0.652995
C99	C	-0.383493	-1.157183	0.940004
C100	C	0.116507	-0.657183	1.440004
C101	C	-0.348757	-1.205672	0.983777
C102	C	0.151243	-0.705672	1.483777
C103	C	-0.352144	-1.200915	1.077938
C104	C	0.147856	-0.700915	1.577938
C105	C	-0.380106	-1.161938	0.845834
C106	C	0.119894	-0.661938	1.345834
H107	H	-0.725479	-1.282755	0.369945
H108	H	-0.225479	-0.782755	0.869945
H109	H	-0.415774	-1.112102	0.973246
H110	H	0.084226	-0.612102	1.473246
C111	C	-0.273716	-1.310459	0.997644
C112	C	0.226284	-0.810459	1.497644
C113	C	-0.305178	-1.266542	0.938907
C114	C	0.194822	-0.766542	1.438907
H115	H	-0.246812	-1.348033	0.969939
H116	H	0.253188	-0.848033	1.469939
H117	H	-0.303621	-1.340561	1.033134
H118	H	0.196379	-0.840561	1.533134
H119	H	-0.249368	-1.272564	1.029684
H120	H	0.250632	-0.772564	1.529684
H121	H	-0.329529	-1.304437	0.906871
H122	H	0.170471	-0.804437	1.406871
H123	H	-0.275269	-1.236438	0.903403
H124	H	0.224731	-0.736438	1.403403
C125	C	-0.639818	-1.347715	0.311288
C126	C	-0.139818	-0.847715	0.811288
C127	C	-0.596900	-1.298625	0.355543
C128	C	-0.096900	-0.798625	0.855543
H129	H	-0.617651	-1.385651	0.277064
H130	H	-0.117651	-0.885651	0.777064
H131	H	-0.662881	-1.313129	0.277617
H132	H	-0.162881	-0.813129	0.777617
H133	H	-0.668022	-1.377668	0.349173
H134	H	-0.168022	-0.877668	0.849173
H135	H	-0.568699	-1.268667	0.317658
H136	H	-0.068699	-0.768667	0.817658
H137	H	-0.573827	-1.333215	0.389216
H138	H	-0.073827	-0.833215	0.889216
H139	H	-0.724742	-1.079906	0.552959
H140	H	-0.224742	-0.579906	1.052959
C141	C	-0.638594	-1.014859	0.611584
C142	C	-0.138594	-0.514859	1.111584
C143	C	-0.596039	-1.063910	0.567303
C144	C	-0.096039	-0.563910	1.067303
H145	H	-0.616146	-0.976907	0.645799
H146	H	-0.116146	-0.476907	1.145799
H147	H	-0.666807	-1.049470	0.645266
H148	H	-0.166807	-0.549470	1.145266
H149	H	-0.661682	-0.984926	0.573715
H150	H	-0.161682	-0.484926	1.073715
H151	H	-0.572953	-1.093848	0.605173
H152	H	-0.072953	-0.593848	1.105173
H153	H	-0.567815	-1.029295	0.533619
H154	H	-0.067815	-0.529295	1.033619
H155	H	-1.007061	-1.282890	0.370013
H156	H	-0.507061	-0.782890	0.870013
H157	H	-1.125592	-1.080099	0.553068
H158	H	-0.625592	-0.580099	1.053068
C159	C	-1.093200	-1.347926	0.311394
C160	C	-0.593200	-0.847926	0.811394
C161	C	-1.135758	-1.298885	0.355683
C162	C	-0.635758	-0.798885	0.855683
H163	H	-1.115646	-1.385868	0.277166
H164	H	-0.615646	-0.885868	0.777166
H165	H	-1.070115	-1.377864	0.349252
H166	H	-0.570115	-0.877864	0.849252
H167	H	-1.064984	-1.313302	0.277717
H168	H	-0.564984	-0.813302	0.777717
H169	H	-1.163972	-1.333508	0.389365
H170	H	-0.663972	-0.833508	0.889365
H171	H	-1.158853	-1.268944	0.317821
H172	H	-0.658853	-0.768944	0.817821
H173	H	-1.006319	-1.080037	0.553033
H174	H	-0.506319	-0.580037	1.053033
H175	H	-0.421274	-0.693157	0.530651
H176	H	0.078726	-0.193157	1.030651
H177	H	-0.311209	-0.670373	0.392335
H178	H	0.188791	-0.170373	0.892335
