data_functionalizedCrystal
_audit_creation_method	'MofGen! by Chris Wilmer'
_symmetry_space_group_name_H-M	'P1'
_symmetry_Int_Tables_number	1
_symmetry_cell_setting	triclinic
loop_
_symmetry_equiv_pos_as_xyz
  x,y,z
_cell_length_a	15.296720
_cell_length_b	12.759401
_cell_length_c	12.759400
_cell_angle_alpha	90.014845
_cell_angle_beta	80.351640
_cell_angle_gamma	80.335606
loop_
_atom_site_label
_atom_site_type_symbol
_atom_site_fract_x
_atom_site_fract_y
_atom_site_fract_z
Zn1	Zn	-0.510017	-1.503391	0.521031
Zn2	Zn	-0.010017	-1.003391	1.021031
Zn3	Zn	-0.359171	-1.533709	0.666336
Zn4	Zn	0.140829	-1.033709	1.166336
Zn5	Zn	-0.359187	-1.358113	0.490676
Zn6	Zn	0.140813	-0.858113	0.990676
Zn7	Zn	-0.509984	-1.327688	0.696663
Zn8	Zn	-0.009984	-0.827688	1.196663
O9	O	-0.434590	-1.430725	0.593676
O10	O	0.065410	-0.930725	1.093676
O11	O	-0.490014	-1.654432	0.540319
O12	O	0.009986	-1.154432	1.040319
O13	O	-0.232935	-1.535837	0.617639
O14	O	0.267065	-1.035837	1.117639
O15	O	-0.379216	-1.377430	0.347685
O16	O	0.120784	-0.877430	0.847685
O17	O	-0.379188	-1.676707	0.647073
O18	O	0.120812	-1.176707	1.147073
O19	O	-0.490030	-1.484164	0.369988
O20	O	0.009970	-0.984164	0.869988
O21	O	-0.232947	-1.406828	0.488581
O22	O	0.267053	-0.906828	0.988581
O23	O	-0.379184	-1.207058	0.517988
O24	O	0.120816	-0.707058	1.017988
O25	O	-0.636227	-1.325574	0.698761
O26	O	-0.136227	-0.825574	1.198761
O27	O	-0.489974	-1.184704	0.669326
O28	O	0.010026	-0.684704	1.169326
O29	O	-0.636251	-1.454662	0.569725
O30	O	-0.136251	-0.954662	1.069725
O31	O	-0.379156	-1.506335	0.817376
O32	O	0.120844	-1.006335	1.317376
O33	O	-0.489957	-1.354973	0.839657
O34	O	0.010043	-0.854973	1.339657
C35	C	-0.434571	-1.430667	0.866640
C36	C	0.065429	-0.930667	1.366640
C37	C	-0.434593	-1.430732	0.983421
C38	C	0.065407	-0.930732	1.483421
C39	C	-0.434578	-1.157760	0.593655
C40	C	0.065422	-0.657760	1.093655
C41	C	-0.434594	-1.040981	0.593675
C42	C	0.065406	-0.540981	1.093675
C43	C	-0.669886	-1.383342	0.641012
C44	C	-0.169886	-0.883342	1.141012
C45	C	-0.770155	-1.363150	0.661183
C46	C	-0.270155	-0.863150	1.161183
C47	C	-1.052849	-1.575079	0.449323
C48	C	-0.552849	-1.075079	0.949323
C49	C	-0.958641	-1.594057	0.430373
C50	C	-0.458641	-1.094057	0.930373
C51	C	-0.911515	-1.536332	0.488074
C52	C	-0.411515	-1.036332	0.988074
C53	C	-0.958606	-1.459626	0.564729
C54	C	-0.458606	-0.959626	1.064729
C55	C	-1.052823	-1.440652	0.583687
C56	C	-0.552823	-0.940652	1.083687
C57	C	-0.911489	-1.401905	0.622437
C58	C	-0.411489	-0.901905	1.122437
C59	C	-0.958581	-1.325199	0.699092
C60	C	-0.458581	-0.825199	1.199092
C61	C	-1.052789	-1.306228	0.718046
C62	C	-0.552789	-0.806228	1.218046
C63	C	-1.099915	-1.363953	0.660345
C64	C	-0.599915	-0.863953	1.160345
C65	C	-0.817272	-1.420878	0.603479
C66	C	-0.317272	-0.920878	1.103479
C67	C	-0.817247	-1.286452	0.737842
C68	C	-0.317247	-0.786452	1.237842
C69	C	-0.911455	-1.267474	0.756792
C70	C	-0.411455	-0.767474	1.256792
C71	C	-0.200209	-1.477985	0.546449
C72	C	0.299791	-0.977985	1.046449
C73	C	-0.099940	-1.498380	0.525982
C74	C	0.400060	-0.998380	1.025982
C75	C	-0.434603	-1.704756	0.593699
C76	C	0.065397	-1.204756	1.093699
C77	C	-0.434608	-1.821532	0.593709
C78	C	0.065392	-1.321532	1.093709
C79	C	-0.492186	-0.974526	0.672565
C80	C	0.007814	-0.474526	1.172565
C81	C	-0.492196	-0.864800	0.672580
C82	C	0.007804	-0.364800	1.172580
C83	C	-0.377013	-0.887994	0.514811
C84	C	0.122987	-0.387994	1.014811
C85	C	-0.377008	-0.997717	0.514792
C86	C	0.122992	-0.497717	1.014792
C87	C	-0.558684	-0.961134	0.763654
C88	C	-0.058684	-0.461134	1.263654
C89	C	-0.558694	-0.851408	0.763670
C90	C	-0.058694	-0.351408	1.263670
C91	C	-0.434628	-1.430809	0.319651
C92	C	0.065372	-0.930809	0.819651
C93	C	-0.434645	-1.430844	0.202878
C94	C	0.065355	-0.930844	0.702878
C95	C	-0.376962	-1.509608	1.026659
C96	C	0.123038	-1.009608	1.526659
C97	C	-0.376990	-1.509667	1.136389
C98	C	0.123010	-1.009667	1.636389
C99	C	-0.492282	-1.351964	1.159633
C100	C	0.007718	-0.851964	1.659633
C101	C	-0.492258	-1.351910	1.049906
C102	C	0.007742	-0.851910	1.549906
C103	C	-0.310397	-1.600654	1.013240
C104	C	0.189603	-1.100654	1.513240
C105	C	-0.310425	-1.600713	1.122970
C106	C	0.189575	-1.100713	1.622970
H107	H	-0.778940	-1.483332	0.541065
H108	H	-0.278940	-0.983332	1.041065
H109	H	-0.949810	-1.205019	0.819205
H110	H	-0.449810	-0.705019	1.319205
F111	F	-0.343222	-1.695131	1.173956
F112	F	0.156778	-1.195131	1.673956
F113	F	-0.553608	-1.267971	1.003895
F114	F	-0.053608	-0.767971	1.503895
F115	F	-0.534056	-0.817427	0.865021
F116	F	-0.034056	-0.317427	1.365021
F117	F	-0.645504	-0.789457	0.743210
F118	F	-0.145504	-0.289457	1.243210
H119	H	-1.091227	-1.622076	0.402358
H120	H	-0.591227	-1.122076	0.902358
H121	H	-0.539231	-1.287791	1.213778
H122	H	-0.039231	-0.787791	1.713778
H123	H	-0.330117	-1.051821	0.450547
H124	H	0.169883	-0.551821	0.950547
H125	H	-0.628583	-0.976845	0.756048
H126	H	-0.128583	-0.476845	1.256048
H127	H	-0.533539	-1.000220	0.835837
H128	H	-0.033539	-0.500220	1.335837
F129	F	-0.334921	-1.702027	0.979153
F130	F	0.165079	-1.202027	1.479153
H131	H	-0.330130	-0.852756	0.450587
H132	H	0.169870	-0.352756	0.950587
F133	F	-0.767097	-1.225017	0.799260
F134	F	-0.267097	-0.725017	1.299260
F135	F	-0.908529	-1.675690	0.348796
F136	F	-0.408529	-1.175690	0.848796
H137	H	-1.091128	-1.243777	0.780472
H138	H	-0.591128	-0.743777	1.280472
F139	F	-0.223621	-1.580069	0.951367
F140	F	0.276379	-1.080069	1.451367
H141	H	-0.834806	-1.551788	0.472640
H142	H	-0.334806	-1.051788	0.972640
F143	F	-1.200183	-1.343763	0.680514
F144	F	-0.700183	-0.843763	1.180514
H145	H	-0.240548	-1.593069	1.138743
H146	H	0.259452	-1.093069	1.638743
