data_functionalizedCrystal
_audit_creation_method	'MofGen! by Chris Wilmer'
_symmetry_space_group_name_H-M	'P1'
_symmetry_Int_Tables_number	1
_symmetry_cell_setting	triclinic
loop_
_symmetry_equiv_pos_as_xyz
  x,y,z
_cell_length_a	16.992694
_cell_length_b	16.992695
_cell_length_c	12.503572
_cell_angle_alpha	86.236993
_cell_angle_beta	93.753406
_cell_angle_gamma	90.668223
loop_
_atom_site_label
_atom_site_type_symbol
_atom_site_fract_x
_atom_site_fract_y
_atom_site_fract_z
O1	O	-1.055098	-0.162653	-0.089186
O2	O	-0.826700	-0.160821	-0.089218
O3	O	-0.939983	-0.047537	-0.089194
O4	O	-0.941815	-0.275937	-0.089211
O5	O	-0.931464	-0.056072	0.089446
O6	O	-0.818181	-0.169355	0.089422
O7	O	-1.046580	-0.171188	0.089454
Cu8	Cu	-0.931602	-0.171051	0.105749
Cu9	Cu	-0.941677	-0.160958	-0.105513
O10	O	-0.933296	-0.284471	0.089430
C11	C	-0.793080	-0.162732	0.000098
C12	C	-0.705596	-0.155703	0.000086
C13	C	-0.933368	-0.022445	0.000126
C14	C	-0.926339	0.065040	0.000125
C15	C	-1.080199	-0.169277	0.000135
C16	C	-1.167683	-0.176306	0.000140
N17	N	-0.924522	-0.178150	0.254340
C18	C	-0.659606	-0.223521	0.000082
C19	C	-0.577404	-0.216912	0.000097
C20	C	-0.541195	-0.142485	0.000109
C21	C	-0.587192	-0.074663	0.000116
C22	C	-0.669392	-0.081272	0.000109
C23	C	-0.295880	-0.115092	0.000140
C24	C	-0.213674	-0.108488	0.000144
C25	C	-0.203892	-0.250738	0.000127
C26	C	-0.286094	-0.257341	0.000113
C27	C	-0.332083	-0.189518	0.000126
N28	N	-0.457172	-0.135729	0.000121
N29	N	-0.416104	-0.196276	0.000121
C30	C	-0.939911	-0.309564	0.000108
C31	C	-0.946941	-0.397048	0.000102
C32	C	-0.994157	0.111030	0.000135
C33	C	-0.987548	0.193232	0.000124
C34	C	-0.913121	0.229441	0.000110
C35	C	-0.845299	0.183444	0.000096
C36	C	-0.851908	0.101245	0.000100
C37	C	-0.885728	0.474756	0.000091
C38	C	-0.879123	0.556961	0.000091
C39	C	-1.021373	0.566743	0.000117
C40	C	-1.027976	0.484541	0.000127
C41	C	-0.960154	0.438552	0.000107
N42	N	-0.906364	0.313463	0.000102
N43	N	-0.966912	0.354532	0.000108
N44	N	-0.948763	-0.153853	-0.254104
C45	C	-0.914108	-0.188599	0.473453
C46	C	-0.959175	-0.143406	0.526790
C47	C	-0.953380	-0.149220	0.648712
C48	C	-0.919902	-0.182786	0.351520
H49	H	-0.689081	-0.284127	0.000072
O50	O	-1.010419	-0.091976	0.472203
C51	C	-1.051202	-0.051116	0.545807
H52	H	-1.015113	-0.052000	0.626005
H53	H	-1.060703	0.012535	0.513212
H54	H	-1.110766	-0.080839	0.557721
H55	H	-0.871176	-0.231654	0.519351
H56	H	-1.076590	0.604196	0.000131
H57	H	-0.166439	-0.305955	0.000119
H58	H	-1.042773	0.230674	0.000135
O59	O	-0.806763	0.592012	0.000018
C60	C	-0.748316	0.533795	0.000024
H61	H	-0.775490	0.478247	-0.033787
H62	H	-0.699145	0.556603	-0.051859
H63	H	-0.723053	0.519459	0.085719
H64	H	-0.539962	-0.272137	0.000093
H65	H	-0.315569	-0.317947	0.000091
H66	H	-0.184196	-0.047877	0.000153
H67	H	-0.784699	0.212932	0.000078
O68	O	-0.551897	-0.002422	0.000082
C69	C	-0.469482	-0.011130	0.000112
H70	H	-0.455658	-0.069735	-0.033714
H71	H	-0.443835	0.039285	-0.051745
H72	H	-0.442309	-0.009979	0.085816
O73	O	-0.819878	0.430067	-0.000111
C74	C	-0.823859	0.386631	-0.092618
H75	H	-0.865316	0.417261	-0.157277
H76	H	-0.762509	0.382862	-0.123683
H77	H	-0.846970	0.324646	-0.071699
H78	H	-0.706837	-0.026047	0.000112
O79	O	-0.340432	-0.049130	0.000100
C80	C	-0.290842	0.017974	0.000136
H81	H	-0.232424	0.003447	-0.033687
H82	H	-0.320480	0.068290	-0.051721
H83	H	-0.279522	0.036448	0.085842
O84	O	-1.066519	0.075989	0.000098
C85	C	-1.124957	0.134212	0.000128
H86	H	-1.101005	0.192985	-0.033694
H87	H	-1.179082	0.116362	-0.051732
H88	H	-1.142039	0.140368	0.085832
O89	O	-1.100337	0.449499	0.000096
C90	C	-1.158778	0.507718	0.000135
H91	H	-1.134834	0.566491	-0.033700
H92	H	-1.212909	0.489861	-0.051710
H93	H	-1.175849	0.513878	0.085843
H94	H	-0.796684	0.063800	0.000091
