data_functionalizedCrystal
_audit_creation_method	'MofGen! by Chris Wilmer'
_symmetry_space_group_name_H-M	'P1'
_symmetry_Int_Tables_number	1
_symmetry_cell_setting	triclinic
loop_
_symmetry_equiv_pos_as_xyz
  x,y,z
_cell_length_a	14.519709
_cell_length_b	16.992694
_cell_length_c	15.455313
_cell_angle_alpha	92.857794
_cell_angle_beta	92.669068
_cell_angle_gamma	92.825816
loop_
_atom_site_label
_atom_site_type_symbol
_atom_site_fract_x
_atom_site_fract_y
_atom_site_fract_z
O1	O	0.191795	-1.044092	-0.072025
O2	O	0.189648	-0.815805	-0.072051
O3	O	0.056918	-0.936001	-0.072029
O4	O	0.324525	-0.923896	-0.072046
O5	O	0.064474	-0.929127	0.072232
O6	O	0.197205	-0.808932	0.072210
O7	O	0.199352	-1.037219	0.072236
Cu8	Cu	0.198968	-0.922447	0.085395
Cu9	Cu	0.190031	-0.930576	-0.085210
O10	O	0.332082	-0.917023	0.072215
C11	C	0.190666	-0.783152	0.000077
C12	C	0.182430	-0.696097	0.000067
C13	C	0.026296	-0.932000	0.000101
C14	C	-0.076207	-0.930309	0.000102
C15	C	0.198333	-1.069872	0.000107
C16	C	0.206569	-1.156927	0.000111
C17	C	-0.451550	-0.924087	0.000078
C18	C	-0.347118	-0.925815	0.000085
C19	C	-0.263882	-0.927198	0.000091
C20	C	-0.159443	-0.928926	0.000096
C21	C	0.362704	-0.921024	0.000082
C22	C	0.465206	-0.922715	0.000076
N23	N	0.205254	-0.916736	0.205390
C24	C	0.261890	-0.645968	0.000063
C25	C	0.254147	-0.564170	0.000075
C26	C	0.166943	-0.532502	0.000086
C27	C	0.087478	-0.582638	0.000093
C28	C	0.095222	-0.664434	0.000087
C29	C	0.134847	-0.288859	0.000111
C30	C	0.127109	-0.207056	0.000115
C31	C	0.293779	-0.188594	0.000099
C32	C	0.301515	-0.270393	0.000087
C33	C	0.222050	-0.320520	0.000099
N34	N	0.159027	-0.448892	0.000096
N35	N	0.229968	-0.404129	0.000095
N36	N	0.183739	-0.936294	-0.205204
C37	C	0.148889	-0.967817	0.250793
C38	C	0.153651	-0.963505	0.341600
C39	C	0.214784	-0.908115	0.387002
C40	C	0.271151	-0.857028	0.341593
C41	C	0.266383	-0.861337	0.250787
C42	C	0.235339	-0.889516	0.658581
C43	C	0.240104	-0.885212	0.749392
C44	C	0.122602	-0.991689	0.749393
C45	C	0.117844	-0.995996	0.658586
C46	C	0.174208	-0.944907	0.613185
N47	N	0.219655	-0.903708	0.479822
N48	N	0.169331	-0.949311	0.520367
H49	H	0.332900	-0.671744	0.000054
O50	O	0.017939	-0.713022	0.000048
C51	C	-0.148189	-0.722704	0.000112
C52	C	-0.060741	-0.667591	0.000132
H53	H	-0.211822	-0.685995	0.000198
H54	H	-0.151959	-0.764315	-0.060278
H55	H	-0.145515	-0.758609	0.060468
H56	H	-0.063355	-0.631635	-0.060184
H57	H	-0.057003	-0.626032	0.060561
H58	H	0.320923	-0.811924	0.378565
O59	O	0.386203	-0.301185	-0.000096
C60	C	0.487727	-0.386372	-0.074879
C61	C	0.391789	-0.351551	-0.074769
H62	H	0.492268	-0.427113	-0.135236
H63	H	0.543213	-0.336515	-0.074946
H64	H	0.498704	-0.421312	-0.014493
H65	H	0.380723	-0.316620	-0.135145
H66	H	0.336354	-0.401444	-0.074657
O67	O	0.321233	-0.811683	0.206814
C68	C	0.438242	-0.705588	0.216391
C69	C	0.376195	-0.761790	0.266297
H70	H	0.482681	-0.665224	0.264461
H71	H	0.484667	-0.741480	0.173888
H72	H	0.393257	-0.668415	0.173868
H73	H	0.421109	-0.798975	0.308866
H74	H	0.329765	-0.725852	0.308745
H75	H	0.358475	-0.147771	0.000091
H76	H	0.318852	-0.523358	0.000071
H77	H	0.099112	-1.012925	0.213832
H78	H	0.289889	-0.840105	0.786355
O79	O	0.058376	-1.049823	0.614619
C80	C	-0.057629	-1.155008	0.624206
C81	C	0.009658	-1.094072	0.674106
H82	H	-0.097021	-1.190810	0.672280
H83	H	-0.108515	-1.123147	0.581730
H84	H	-0.017111	-1.196217	0.581657
H85	H	-0.030783	-1.052846	0.716702
H86	H	0.060544	-1.125984	0.716528
O87	O	0.289964	-0.839826	0.614442
C88	C	0.296272	-0.737666	0.511886
C89	C	0.234295	-0.793882	0.561842
H90	H	0.251290	-0.700517	0.469333
H91	H	0.340774	-0.697286	0.559892
H92	H	0.342649	-0.773624	0.469402
H93	H	0.187863	-0.757987	0.604327
H94	H	0.189856	-0.834263	0.513789
H95	H	0.016475	-0.556847	0.000114
H96	H	0.056094	-0.181276	0.000123
H97	H	0.070141	-0.329663	0.000121
H98	H	0.076712	-1.033283	0.786368
H99	H	0.107754	-1.005099	0.378567
