data_functionalizedCrystal
_audit_creation_method	'MofGen! by Chris Wilmer'
_symmetry_space_group_name_H-M	'P1'
_symmetry_Int_Tables_number	1
_symmetry_cell_setting	triclinic
loop_
_symmetry_equiv_pos_as_xyz
  x,y,z
_cell_length_a	10.908878
_cell_length_b	10.967829
_cell_length_c	10.065875
_cell_angle_alpha	86.921207
_cell_angle_beta	83.443480
_cell_angle_gamma	72.684712
loop_
_atom_site_label
_atom_site_type_symbol
_atom_site_fract_x
_atom_site_fract_y
_atom_site_fract_z
O1	O	1.712842	-0.205138	-0.065224
O2	O	2.212842	0.294862	0.434776
O3	O	1.343420	-0.112150	-0.087100
O4	O	1.843420	0.387850	0.412900
O5	O	1.529974	-0.334011	-0.034913
O6	O	2.029974	0.165989	0.465087
O7	O	1.526287	0.016723	-0.117412
O8	O	2.026287	0.516723	0.382588
O9	O	1.494408	-0.291565	0.182092
O10	O	1.994408	0.208435	0.682092
O11	O	1.307853	-0.069705	0.129904
O12	O	1.807853	0.430295	0.629904
O13	O	1.677275	-0.162692	0.151780
O14	O	2.177275	0.337308	0.651780
Zn15	Zn	1.486917	-0.109459	0.175296
Zn16	Zn	1.986917	0.390541	0.675296
Zn17	Zn	1.533778	-0.165383	-0.110616
Zn18	Zn	2.033778	0.334617	0.389384
O19	O	1.490720	0.059168	0.099593
O20	O	1.990720	0.559168	0.599593
C21	C	1.278210	-0.082237	0.019357
C22	C	1.778210	0.417763	0.519357
C23	C	1.136894	-0.056358	0.013268
C24	C	1.636894	0.443642	0.513268
C25	C	1.083375	-0.150788	0.035479
C26	C	1.583375	0.349212	0.535479
C27	C	0.937317	-0.124043	0.029186
C28	C	1.437317	0.375957	0.529186
C29	C	1.509235	-0.356985	0.083982
C30	C	2.009235	0.143015	0.583982
C31	C	1.500414	-0.488675	0.114950
C32	C	2.000414	0.011325	0.614950
C33	C	1.514906	-0.569368	0.016340
C34	C	2.014906	-0.069368	0.516340
C35	C	1.505788	-0.705477	0.048343
C36	C	2.005788	-0.205477	0.548343
C37	C	1.742485	-0.192606	0.045320
C38	C	2.242485	0.307394	0.545320
C39	C	1.883803	-0.218487	0.051400
C40	C	2.383803	0.281513	0.551400
C41	C	1.511460	0.082142	-0.019305
C42	C	2.011460	0.582142	0.480695
C43	C	1.520283	0.213830	-0.050281
C44	C	2.020283	0.713830	0.449719
N45	N	1.454945	-0.071295	0.370425
N46	N	1.954945	0.428705	0.870425
N47	N	1.565759	-0.203559	-0.305742
N48	N	2.065759	0.296441	0.194258
C49	C	1.522645	-0.152111	0.457213
C50	C	2.022645	0.347889	0.957213
C51	C	1.498049	-0.122732	0.607470
C52	C	1.998049	0.377268	1.107470
H53	H	0.946110	-0.319142	0.075067
H54	H	1.446110	0.180858	0.575067
Br55	Br	1.693037	-0.354924	0.632671
Br56	Br	2.193037	0.145076	1.132671
H57	H	1.378770	0.019641	0.407360
H58	H	1.878770	0.519641	0.907360
Br59	Br	1.649269	-0.303922	0.395722
Br60	Br	2.149269	0.196078	0.895722
Br61	Br	1.371073	0.028845	0.669012
Br62	Br	1.871073	0.528845	1.169012
Br63	Br	1.552155	-0.733373	-0.230503
Br64	Br	2.052155	-0.233373	0.269497
H65	H	1.074583	0.044287	-0.010412
H66	H	1.574583	0.544287	0.489588
Br67	Br	1.546865	-0.516590	-0.163867
Br68	Br	2.046865	-0.016590	0.336133
Br69	Br	1.468468	-0.541458	0.295157
Br70	Br	1.968468	-0.041458	0.795157
Br71	Br	0.833481	0.043718	-0.010292
Br72	Br	1.333481	0.543718	0.489708
Br73	Br	1.473842	-0.758254	0.228558
Br74	Br	1.973842	-0.258254	0.728558
Br75	Br	1.187219	-0.318547	0.074931
Br76	Br	1.687219	0.181453	0.574931
