data_functionalizedCrystal
_audit_creation_method	'MofGen! by Chris Wilmer'
_symmetry_space_group_name_H-M	'P1'
_symmetry_Int_Tables_number	1
_symmetry_cell_setting	triclinic
loop_
_symmetry_equiv_pos_as_xyz
  x,y,z
_cell_length_a	19.188930
_cell_length_b	19.288856
_cell_length_c	18.266242
_cell_angle_alpha	90.008438
_cell_angle_beta	89.993453
_cell_angle_gamma	96.861229
loop_
_atom_site_label
_atom_site_type_symbol
_atom_site_fract_x
_atom_site_fract_y
_atom_site_fract_z
O1	O	0.087066	-0.921361	-0.060923
O2	O	0.420399	-0.588028	0.272411
O3	O	0.753733	-0.254694	0.605744
O4	O	0.098822	-0.719100	-0.060918
O5	O	0.432155	-0.385767	0.272416
O6	O	0.765489	-0.052434	0.605749
O7	O	-0.008712	-0.826067	-0.060906
O8	O	0.324621	-0.492734	0.272427
O9	O	0.657954	-0.159401	0.605761
O10	O	0.194600	-0.814394	-0.060934
O11	O	0.527934	-0.481060	0.272399
O12	O	0.861267	-0.147727	0.605732
O13	O	-0.008708	-0.826053	0.060856
O14	O	0.324625	-0.492720	0.394189
O15	O	0.657958	-0.159387	0.727523
O16	O	0.098826	-0.719086	0.060844
O17	O	0.432159	-0.385753	0.394178
O18	O	0.765493	-0.052420	0.727511
O19	O	0.087070	-0.921347	0.060839
O20	O	0.420403	-0.588014	0.394173
O21	O	0.753737	-0.254680	0.727506
Zn22	Zn	0.092949	-0.820214	0.080174
Zn23	Zn	0.426282	-0.486881	0.413507
Zn24	Zn	0.759615	-0.153548	0.746841
Zn25	Zn	0.092943	-0.820233	-0.080253
Zn26	Zn	0.426277	-0.486900	0.253081
Zn27	Zn	0.759610	-0.153566	0.586414
O28	O	0.194604	-0.814380	0.060828
O29	O	0.527938	-0.481046	0.394161
O30	O	0.861271	-0.147713	0.727494
C31	C	0.098447	-0.693217	-0.000036
C32	C	0.431780	-0.359883	0.333297
C33	C	0.765113	-0.026550	0.666631
C34	C	0.097314	-0.616113	-0.000034
C35	C	0.430647	-0.282779	0.333300
C36	C	0.763981	0.050554	0.666633
C37	C	0.152749	-0.052076	-0.000031
C38	C	0.486082	0.281258	0.333303
C39	C	0.819416	0.614591	0.666636
C40	C	0.153819	-0.124522	-0.000036
C41	C	0.487152	0.208811	0.333297
C42	C	0.820486	0.542144	0.666630
C43	C	0.090723	-0.169224	-0.000027
C44	C	0.424057	0.164109	0.333306
C45	C	0.757390	0.497442	0.666640
C46	C	0.026552	-0.141474	-0.000031
C47	C	0.359885	0.191859	0.333302
C48	C	0.693219	0.525192	0.666636
C49	C	0.025484	-0.069029	-0.000033
C50	C	0.358817	0.264304	0.333301
C51	C	0.692150	0.597638	0.666634
C52	C	0.043667	-0.290486	0.042639
C53	C	0.377000	0.042847	0.375972
C54	C	0.710334	0.376180	0.709305
C55	C	0.044738	-0.362930	0.042645
C56	C	0.378071	-0.029597	0.375978
C57	C	0.711405	0.303737	0.709312
C58	C	0.094016	-0.392671	-0.000024
C59	C	0.427349	-0.059337	0.333309
C60	C	0.760682	0.273996	0.666642
C61	C	0.142234	-0.349957	-0.042691
C62	C	0.475567	-0.016624	0.290643
C63	C	0.808901	0.316710	0.623976
C64	C	0.141166	-0.277511	-0.042693
C65	C	0.474499	0.055822	0.290641
C66	C	0.807832	0.389155	0.623974
C67	C	0.091875	-0.247780	-0.000025
C68	C	0.425208	0.085553	0.333308
C69	C	0.758541	0.418886	0.666641
C70	C	0.159343	-0.498967	-0.000032
C71	C	0.492677	-0.165634	0.333302
C72	C	0.826010	0.167699	0.666635
C73	C	0.160411	-0.571416	-0.000042
C74	C	0.493744	-0.238082	0.333292
C75	C	0.827077	0.095251	0.666625
C76	C	0.033142	-0.588367	-0.000029
C77	C	0.366475	-0.255033	0.333304
C78	C	0.699809	0.078300	0.666638
C79	C	0.032076	-0.515920	-0.000026
C80	C	0.365410	-0.182586	0.333307
C81	C	0.698743	0.150747	0.666640
C82	C	0.095179	-0.471224	-0.000024
C83	C	0.428512	-0.137891	0.333309
C84	C	0.761845	0.195443	0.666643
C85	C	-0.034721	-0.825682	-0.000023
C86	C	0.298612	-0.492349	0.333310
C87	C	0.631945	-0.159016	0.666644
C88	C	-0.112226	-0.824548	-0.000017
C89	C	0.221108	-0.491214	0.333317
C90	C	0.554441	-0.157881	0.666650
C91	C	-0.157156	-0.887312	-0.000015
C92	C	0.176177	-0.553979	0.333319
C93	C	0.509510	-0.220646	0.666652
C94	C	-0.229980	-0.886246	-0.000026
C95	C	0.103353	-0.552913	0.333307
C96	C	0.436687	-0.219580	0.666640
C97	C	-0.257870	-0.822412	-0.000025
C98	C	0.075464	-0.489078	0.333308
C99	C	0.408797	-0.155745	0.666641
C100	C	-0.212929	-0.759639	-0.000031
C101	C	0.120404	-0.426305	0.333302
C102	C	0.453737	-0.092972	0.666635
C103	C	-0.140107	-0.760707	-0.000027
C104	C	0.193226	-0.427373	0.333306
C105	C	0.526559	-0.094040	0.666640
N106	N	-0.365868	-0.773613	0.041414
N107	N	-0.032535	-0.440280	0.374747
N108	N	0.300798	-0.106946	0.708080
N109	N	-0.435047	-0.772603	0.041411
N110	N	-0.101713	-0.439270	0.374745
N111	N	0.231620	-0.105936	0.708078
C112	C	-0.477278	-0.819190	-0.000040
C113	C	-0.143945	-0.485857	0.333293
C114	C	0.189389	-0.152524	0.666627
N115	N	-0.447719	-0.866837	-0.041479
N116	N	-0.114386	-0.533503	0.291854
N117	N	0.218948	-0.200170	0.625187
N118	N	-0.378534	-0.867849	-0.041474
N119	N	-0.045201	-0.534516	0.291860
N120	N	0.288132	-0.201182	0.625193
C121	C	-0.336832	-0.821247	-0.000030
C122	C	-0.003499	-0.487913	0.333303
C123	C	0.329835	-0.154580	0.666636
C124	C	-0.601173	-0.880804	-0.000052
C125	C	-0.267840	-0.547470	0.333282
C126	C	0.065494	-0.214137	0.666615
C127	C	-0.673998	-0.879735	-0.000068
C128	C	-0.340664	-0.546401	0.333265
C129	C	-0.007331	-0.213068	0.666599
C130	C	-0.656945	-0.753125	-0.000066
C131	C	-0.323612	-0.419792	0.333268
C132	C	0.009721	-0.086459	0.666601
C133	C	-0.584122	-0.754196	-0.000057
C134	C	-0.250789	-0.420863	0.333276
C135	C	0.082544	-0.087529	0.666610
C136	C	-0.556241	-0.818037	-0.000046
C137	C	-0.222907	-0.484704	0.333287
C138	C	0.110426	-0.151370	0.666620
C139	C	0.220613	-0.814765	-0.000057
C140	C	0.553947	-0.481432	0.333276
C141	C	0.887280	-0.148098	0.666610
C142	C	0.298118	-0.815900	-0.000068
C143	C	0.631451	-0.482566	0.333265
C144	C	0.964784	-0.149233	0.666598
C145	C	0.087448	0.052770	-0.000039
C146	C	0.420781	0.386103	0.333295
C147	C	0.754114	0.719436	0.666628
C148	C	0.088586	-0.024333	-0.000031
C149	C	0.421920	0.309000	0.333303
C150	C	0.755253	0.642333	0.666636
N151	N	0.092952	-0.820207	0.189661
N152	N	0.426285	-0.486874	0.522994
N153	N	0.759618	-0.153540	0.856328
C154	C	0.135170	-0.862240	0.771930
C155	C	0.468503	-0.528906	1.105264
C156	C	0.801837	-0.195573	1.438597
C157	C	0.135177	-0.862233	0.695285
C158	C	0.468510	-0.528899	1.028619
C159	C	0.801843	-0.195566	1.361952
C160	C	0.092939	-0.820238	0.656974
C161	C	0.426273	-0.486904	0.990307
C162	C	0.759606	-0.153571	1.323640
C163	C	0.050706	-0.778233	0.695313
C164	C	0.384039	-0.444900	1.028647
C165	C	0.717372	-0.111566	1.361980
C166	C	0.050706	-0.778236	0.771957
C167	C	0.384039	-0.444903	1.105290
C168	C	0.717372	-0.111569	1.438623
N169	N	0.031779	-0.818556	0.536644
N170	N	0.365112	-0.485222	0.869978
N171	N	0.698445	-0.151889	1.203311
N172	N	0.031781	-0.818557	0.463836
N173	N	0.365114	-0.485223	0.797169
N174	N	0.698447	-0.151890	1.130503
C175	C	0.092939	-0.820225	0.426051
C176	C	0.426272	-0.486891	0.759385
C177	C	0.759605	-0.153558	1.092718
N178	N	0.154095	-0.821905	0.463825
N179	N	0.487428	-0.488572	0.797158
N180	N	0.820762	-0.155239	1.130492
N181	N	0.154092	-0.821908	0.536640
N182	N	0.487425	-0.488575	0.869973
N183	N	0.820759	-0.155241	1.203306
C184	C	0.092935	-0.820229	0.573867
C185	C	0.426269	-0.486896	0.907200
C186	C	0.759602	-0.153563	1.240533
C187	C	0.135180	-0.862215	0.304614
C188	C	0.468514	-0.528882	0.637947
C189	C	0.801847	-0.195549	0.971280
C190	C	0.135189	-0.862203	0.227967
C191	C	0.468522	-0.528870	0.561301
C192	C	0.801855	-0.195537	0.894634
C193	C	0.050711	-0.778208	0.227997
C194	C	0.384045	-0.444874	0.561330
C195	C	0.717378	-0.111541	0.894663
C196	C	0.050710	-0.778216	0.304642
C197	C	0.384043	-0.444882	0.637975
C198	C	0.717376	-0.111549	0.971308
C199	C	0.092943	-0.820223	0.342946
C200	C	0.426276	-0.486890	0.676279
C201	C	0.759610	-0.153557	1.009612
N202	N	0.092939	-0.820244	0.810261
N203	N	0.426272	-0.486910	1.143594
N204	N	0.759606	-0.153577	1.476927
H205	H	0.212662	-0.594001	-0.000048
H206	H	0.545995	-0.260667	0.333286
H207	H	0.879328	0.072666	0.666619
H208	H	0.180426	-0.242737	-0.077434
H209	H	0.513759	0.090596	0.255899
H210	H	0.847092	0.423930	0.589232
H211	H	0.016325	-0.744010	0.196804
H212	H	0.349658	-0.410677	0.530138
H213	H	0.682992	-0.077344	0.863471
H214	H	0.169583	-0.896400	0.196760
H215	H	0.502916	-0.563067	0.530094
H216	H	0.836249	-0.229733	0.863427
Cl217	Cl	-0.002387	-0.725421	0.352831
Cl218	Cl	0.330946	-0.392087	0.686164
Cl219	Cl	0.664279	-0.058754	1.019498
Cl220	Cl	0.188276	-0.915021	0.352771
Cl221	Cl	0.521609	-0.581687	0.686104
Cl222	Cl	0.854942	-0.248354	1.019437
Cl223	Cl	-0.015873	-0.416619	0.096288
Cl224	Cl	0.317460	-0.083286	0.429622
Cl225	Cl	0.650794	0.250048	0.762955
H226	H	0.003536	-0.266279	0.077386
H227	H	0.336869	0.067054	0.410720
H228	H	0.670202	0.400388	0.744053
Cl229	Cl	-0.247990	-0.679390	-0.000036
Cl230	Cl	0.085344	-0.346056	0.333297
Cl231	Cl	0.418677	-0.012723	0.666631
H232	H	-0.547539	-0.703086	-0.000054
H233	H	-0.214205	-0.369753	0.333279
H234	H	0.119128	-0.036419	0.666612
H235	H	-0.018232	-0.624763	-0.000027
H236	H	0.315101	-0.291429	0.333306
H237	H	0.648435	0.041904	0.666640
H238	H	0.204132	-0.015688	-0.000033
H239	H	0.537466	0.317645	0.333301
H240	H	0.870799	0.650978	0.666634
H241	H	-0.103524	-0.709594	-0.000028
H242	H	0.229809	-0.376261	0.333305
H243	H	0.563143	-0.042928	0.666638
Cl244	Cl	-0.002390	-0.725437	0.820146
Cl245	Cl	0.330943	-0.392104	1.153479
Cl246	Cl	0.664277	-0.058770	1.486813
Cl247	Cl	0.234487	-0.159407	-0.000034
Cl248	Cl	0.567820	0.173926	0.333299
Cl249	Cl	0.901154	0.507260	0.666633
H250	H	-0.578471	-0.932787	-0.000047
H251	H	-0.245137	-0.599453	0.333287
H252	H	0.088196	-0.266120	0.666620
H253	H	0.169561	-0.896444	0.803113
H254	H	0.502895	-0.563111	1.136446
H255	H	0.836228	-0.229778	1.469779
Cl256	Cl	-0.730484	-0.958647	-0.000070
Cl257	Cl	-0.397150	-0.625313	0.333263
Cl258	Cl	-0.063817	-0.291980	0.666596
Cl259	Cl	-0.286475	-0.965157	-0.000024
Cl260	Cl	0.046859	-0.631823	0.333309
Cl261	Cl	0.380192	-0.298490	0.666642
Cl262	Cl	-0.692000	-0.672875	-0.000069
Cl263	Cl	-0.358667	-0.339542	0.333265
Cl264	Cl	-0.025333	-0.006209	0.666598
Cl265	Cl	0.188260	-0.915043	0.647089
Cl266	Cl	0.521593	-0.581710	0.980422
Cl267	Cl	0.854927	-0.248376	1.313755
Cl268	Cl	-0.002389	-0.725436	0.647151
Cl269	Cl	0.330944	-0.392103	0.980484
Cl270	Cl	0.664277	-0.058769	1.313818
Cl271	Cl	-0.048590	-0.481042	-0.000029
Cl272	Cl	0.284743	-0.147708	0.333305
Cl273	Cl	0.618077	0.185625	0.666638
H274	H	-0.026767	-0.046443	-0.000033
H275	H	0.306567	0.286890	0.333301
H276	H	0.639900	0.620224	0.666634
H277	H	0.210725	-0.462574	-0.000031
H278	H	0.544058	-0.129241	0.333302
H279	H	0.877392	0.204093	0.666635
Cl280	Cl	-0.052769	-0.197670	-0.000022
Cl281	Cl	0.280565	0.135663	0.333311
Cl282	Cl	0.613898	0.468996	0.666644
Cl283	Cl	0.204194	-0.387335	-0.096328
Cl284	Cl	0.537528	-0.054002	0.237006
Cl285	Cl	0.870861	0.279332	0.570339
H286	H	-0.134460	-0.939297	-0.000009
H287	H	0.198873	-0.605963	0.333325
H288	H	0.532206	-0.272630	0.666658
