data_functionalizedCrystal
_audit_creation_method	'MofGen! by Chris Wilmer'
_symmetry_space_group_name_H-M	'P1'
_symmetry_Int_Tables_number	1
_symmetry_cell_setting	triclinic
loop_
_symmetry_equiv_pos_as_xyz
  x,y,z
_cell_length_a	13.033291
_cell_length_b	13.032721
_cell_length_c	12.759393
_cell_angle_alpha	97.149797
_cell_angle_beta	82.789062
_cell_angle_gamma	105.184202
loop_
_atom_site_label
_atom_site_type_symbol
_atom_site_fract_x
_atom_site_fract_y
_atom_site_fract_z
Zn1	Zn	1.570250	-0.216757	-0.822554
Zn2	Zn	1.547560	-0.394413	-0.666642
Zn3	Zn	1.392604	-0.239346	-0.627046
Zn4	Zn	1.370029	-0.416863	-0.822433
O5	O	1.470111	-0.316844	-0.734669
O6	O	1.715883	-0.221474	-0.818493
O7	O	1.526956	-0.373901	-0.514369
O8	O	1.435113	-0.087708	-0.636460
O9	O	1.699213	-0.351997	-0.703945
O10	O	1.565628	-0.071112	-0.780099
O11	O	1.413111	-0.259974	-0.485279
O12	O	1.240966	-0.281743	-0.636343
O13	O	1.396637	-0.390260	-0.969469
O14	O	1.224380	-0.412164	-0.779893
O15	O	1.543738	-0.243243	-0.969558
O16	O	1.505066	-0.546032	-0.703828
O17	O	1.374635	-0.562526	-0.818287
C18	C	1.194132	-0.351841	-0.703809
C19	C	1.076064	-0.366839	-0.690635
C20	C	1.434967	-0.592816	-0.765367
C21	C	1.420030	-0.710866	-0.778546
C22	C	0.909635	-0.324535	-0.727939
C23	C	1.031664	-0.309036	-0.741555
C24	C	1.477963	-0.755294	-0.727844
C25	C	1.462526	-0.877304	-0.741464
C26	C	1.747167	-0.281712	-0.765649
C27	C	1.865232	-0.266740	-0.778851
C28	C	1.470200	-0.316736	-1.008700
C29	C	1.470238	-0.316689	-1.125475
C30	C	1.505420	-0.039791	-0.703876
C31	C	1.520466	0.078272	-0.690754
C32	C	1.529556	-0.375929	-1.305215
C33	C	1.529524	-0.375982	-1.195493
C34	C	1.410973	-0.257348	-1.165184
C35	C	1.411000	-0.257301	-1.274903
C36	C	1.551472	-0.496505	-1.063721
C37	C	1.610748	-0.555834	-1.024017
C38	C	1.712323	-0.558985	-1.073039
C39	C	1.754645	-0.502790	-1.161764
C40	C	1.695376	-0.443454	-1.201463
C41	C	1.593783	-0.440324	-1.152443
C42	C	1.389063	-0.136775	-1.406678
C43	C	1.329799	-0.077432	-1.446379
C44	C	1.228223	-0.074270	-1.397358
C45	C	1.185907	-0.130445	-1.308627
C46	C	1.245171	-0.189789	-1.268927
C47	C	1.346746	-0.192953	-1.317955
C48	C	1.470092	-0.316868	-0.461702
C49	C	1.470298	-0.316589	-0.344917
H50	H	0.857309	-0.385483	-0.674266
Cl51	Cl	1.614700	-0.841007	-0.608166
Cl52	Cl	1.604097	-0.450466	-1.393228
H53	H	1.083988	-0.248074	-0.795221
Cl54	Cl	1.516762	-0.140751	-1.468316
H55	H	1.364266	-0.031682	-1.518624
H56	H	1.359008	-0.763157	-0.832042
H57	H	1.401499	-0.929591	-0.794964
Cl58	Cl	1.748571	-0.372812	-1.312994
H59	H	1.538994	-0.703004	-0.674356
H60	H	1.837364	-0.505350	-1.201665
H61	H	1.023742	-0.427797	-0.636963
H62	H	1.760586	-0.607292	-1.040703
Cl63	Cl	1.557543	-0.626476	-0.912481
Cl64	Cl	0.946012	-0.172623	-0.861707
Cl65	Cl	1.423754	-0.492583	-1.002111
Cl66	Cl	1.336459	-0.182791	-1.077161
Cl67	Cl	1.191972	-0.260413	-1.157378
Cl68	Cl	1.058211	-0.126466	-1.246990
H69	H	1.179978	-0.025934	-1.429684
