data_functionalizedCrystal
_audit_creation_method	'MofGen! by Chris Wilmer'
_symmetry_space_group_name_H-M	'P1'
_symmetry_Int_Tables_number	1
_symmetry_cell_setting	triclinic
loop_
_symmetry_equiv_pos_as_xyz
  x,y,z
_cell_length_a	11.169417
_cell_length_b	13.897448
_cell_length_c	13.897441
_cell_angle_alpha	90.029627
_cell_angle_beta	90.016405
_cell_angle_gamma	90.018571
loop_
_atom_site_label
_atom_site_type_symbol
_atom_site_fract_x
_atom_site_fract_y
_atom_site_fract_z
Zn1	Zn	1.834860	-0.383971	0.545325
Zn2	Zn	2.168194	-0.050637	0.878658
Zn3	Zn	2.501527	0.282696	1.211991
Zn4	Zn	1.834736	-0.545290	0.384026
Zn5	Zn	2.168069	-0.211956	0.717360
Zn6	Zn	2.501403	0.121377	1.050693
Zn7	Zn	1.634158	-0.384013	0.384049
Zn8	Zn	1.967492	-0.050680	0.717383
Zn9	Zn	2.300825	0.282654	1.050716
Zn10	Zn	1.634128	-0.545228	0.545285
Zn11	Zn	1.967461	-0.211895	0.878618
Zn12	Zn	2.300795	0.121439	1.211952
O13	O	1.734471	-0.464625	0.464671
O14	O	2.067804	-0.131292	0.798005
O15	O	2.401137	0.202041	1.131338
O16	O	2.002794	-0.405378	0.523935
O17	O	2.336127	-0.072045	0.857268
O18	O	2.669460	0.261288	1.190602
O19	O	1.808090	-0.523939	0.249048
O20	O	2.141423	-0.190606	0.582381
O21	O	2.474756	0.142727	0.915714
O22	O	1.660847	-0.249026	0.405469
O23	O	1.994180	0.084308	0.738803
O24	O	2.327513	0.417641	1.072136
O25	O	2.002702	-0.523899	0.405430
O26	O	2.336036	-0.190565	0.738763
O27	O	2.669369	0.142768	1.072096
O28	O	1.808302	-0.248995	0.523958
O29	O	2.141635	0.084339	0.857291
O30	O	2.474968	0.417672	1.190624
O31	O	1.660726	-0.405450	0.249065
O32	O	1.994059	-0.072117	0.582398
O33	O	2.327393	0.261217	0.915731
O34	O	1.466205	-0.405390	0.405431
O35	O	1.799538	-0.072057	0.738764
O36	O	2.132871	0.261277	1.072097
O37	O	1.660795	-0.523793	0.680272
O38	O	1.994128	-0.190460	1.013605
O39	O	2.327462	0.142873	1.346939
O40	O	1.466182	-0.523834	0.523890
O41	O	1.799516	-0.190501	0.857223
O42	O	2.132849	0.142832	1.190556
O43	O	1.808272	-0.405318	0.680301
O44	O	2.141606	-0.071985	1.013635
O45	O	2.474939	0.261348	1.346968
O46	O	1.808060	-0.680263	0.405391
O47	O	2.141394	-0.346930	0.738724
O48	O	2.474727	-0.013597	1.072058
O49	O	1.660674	-0.680218	0.523867
O50	O	1.994008	-0.346884	0.857201
O51	O	2.327341	-0.013551	1.190534
C52	C	1.422646	-0.464611	0.464659
C53	C	1.755979	-0.131277	0.797992
C54	C	2.089313	0.202056	1.131326
C55	C	1.289246	-0.464628	0.464676
C56	C	1.622579	-0.131294	0.798010
C57	C	1.955913	0.202039	1.131343
C58	C	1.734383	-0.715240	0.464643
C59	C	2.067717	-0.381906	0.797977
C60	C	2.401050	-0.048573	1.131310
C61	C	1.734456	-0.822454	0.464664
C62	C	2.067789	-0.489120	0.797997
C63	C	2.401122	-0.155787	1.131330
C64	C	1.734582	-1.018749	0.464724
C65	C	2.067915	-0.685415	0.798058
C66	C	2.401248	-0.352082	1.131391
C67	C	1.734508	-0.909516	0.464693
C68	C	2.067841	-0.576183	0.798027
C69	C	2.401175	-0.242850	1.131360
C70	C	2.047513	-0.464641	0.464684
C71	C	2.380846	-0.131307	0.798018
C72	C	2.714180	0.202026	1.131351
C73	C	2.180913	-0.464647	0.464690
C74	C	2.514246	-0.131314	0.798023
C75	C	2.847580	0.202019	1.131357
C76	C	1.734544	-0.464544	0.716264
C77	C	2.067878	-0.131211	1.049598
C78	C	2.401211	0.202122	1.382931
C79	C	1.734576	-0.464510	0.823478
C80	C	2.067909	-0.131177	1.156812
C81	C	2.401242	0.202157	1.490145
C82	C	1.734591	-0.213032	0.464720
C83	C	2.067925	0.120301	0.798054
C84	C	2.401258	0.453634	1.131387
C85	C	1.734643	-0.105818	0.464741
C86	C	2.067976	0.227515	0.798075
C87	C	2.401309	0.560848	1.131408
C88	C	1.734467	-0.464636	0.214057
C89	C	2.067800	-0.131303	0.547390
C90	C	2.401133	0.202030	0.880724
C91	C	1.734668	-0.464399	0.106844
C92	C	2.068001	-0.131066	0.440177
C93	C	2.401335	0.202267	0.773510
C94	C	1.734600	-0.464483	0.910548
C95	C	2.067934	-0.131149	1.243882
C96	C	2.401267	0.202184	1.577215
C97	C	1.734635	-0.464439	1.019781
C98	C	2.067968	-0.131106	1.353114
C99	C	2.401301	0.202228	1.686448
