data_functionalizedCrystal
_audit_creation_method	'MofGen! by Chris Wilmer'
_symmetry_space_group_name_H-M	'P1'
_symmetry_Int_Tables_number	1
_symmetry_cell_setting	triclinic
loop_
_symmetry_equiv_pos_as_xyz
  x,y,z
_cell_length_a	19.805407
_cell_length_b	19.805405
_cell_length_c	19.805399
_cell_angle_alpha	90.028893
_cell_angle_beta	89.983114
_cell_angle_gamma	89.972273
loop_
_atom_site_label
_atom_site_type_symbol
_atom_site_fract_x
_atom_site_fract_y
_atom_site_fract_z
Zn1	Zn	1.034712	0.269469	-0.382720
Zn2	Zn	1.034629	0.382661	-0.269532
Zn3	Zn	0.921531	0.269491	-0.269545
Zn4	Zn	0.921487	0.382622	-0.382679
O5	O	0.978090	0.326061	-0.326119
O6	O	1.129417	0.284492	-0.367717
O7	O	1.019611	0.367674	-0.174817
O8	O	0.936598	0.174771	-0.284580
O9	O	1.129357	0.367653	-0.284559
O10	O	1.019751	0.174756	-0.367730
O11	O	0.936518	0.284528	-0.174826
O12	O	0.826809	0.284491	-0.284540
O13	O	0.936522	0.367587	-0.477401
O14	O	0.826776	0.367608	-0.367659
O15	O	1.019708	0.284454	-0.477431
O16	O	1.019567	0.477372	-0.284519
O17	O	0.936443	0.477344	-0.367647
C18	C	0.978010	0.501917	-0.326092
C19	C	0.978037	0.577149	-0.326103
C20	C	0.802234	0.326048	-0.326097
C21	C	0.727002	0.326059	-0.326104
C22	C	1.021362	0.612485	-0.282864
C23	C	1.021389	0.683174	-0.282881
C24	C	0.978088	0.718524	-0.326134
C25	C	0.934761	0.683183	-0.369378
C26	C	0.934738	0.612496	-0.369363
C27	C	0.934855	0.968256	-0.369437
C28	C	0.934880	1.038948	-0.369446
C29	C	1.021505	1.038934	-0.282955
C30	C	1.021482	0.968247	-0.282941
C31	C	0.978159	0.932912	-0.326186
C32	C	0.978131	0.856263	-0.326168
C33	C	0.978112	0.795171	-0.326150
C34	C	0.691658	0.369403	-0.369314
C35	C	0.620970	0.369404	-0.369323
C36	C	0.585626	0.326064	-0.326119
C37	C	0.620975	0.282715	-0.282907
C38	C	0.691662	0.282711	-0.282901
C39	C	0.335901	0.282730	-0.282929
C40	C	0.265209	0.282739	-0.282937
C41	C	0.265209	0.369423	-0.369351
C42	C	0.335897	0.369419	-0.369346
C43	C	0.371239	0.326068	-0.326137
C44	C	0.447887	0.326066	-0.326128
C45	C	0.508979	0.326068	-0.326124
C46	C	1.154632	0.326074	-0.326141
C47	C	1.229864	0.326080	-0.326151
C48	C	0.978119	0.326014	-0.502662
C49	C	0.978132	0.325994	-0.577894
C50	C	0.978183	1.149518	-0.326169
C51	C	0.978208	1.074286	-0.326211
C52	C	0.934878	0.282696	-0.613242
C53	C	0.934888	0.282683	-0.683931
C54	C	0.978155	0.325964	-0.719269
C55	C	1.021410	0.369267	-0.683916
C56	C	1.021397	0.369283	-0.613229
C57	C	1.021464	0.369204	-0.968989
C58	C	1.021475	0.369183	-1.039682
C59	C	0.934955	0.282603	-1.039691
C60	C	0.934941	0.282619	-0.969004
C61	C	0.978194	0.325924	-0.933657
C62	C	0.978183	0.325939	-0.857008
C63	C	0.978170	0.325947	-0.795917
C64	C	0.978099	0.326059	-0.150263
C65	C	0.978218	0.325888	-0.075031
H66	H	1.056619	0.583707	-0.247640
H67	H	0.236434	0.247442	-0.247754
H68	H	1.056667	0.711942	-0.247672
C69	C	0.887127	0.722071	-0.416954
N70	N	0.851245	0.751361	-0.452787
C71	C	0.374769	0.235047	-0.235394
N72	N	0.404046	0.199130	-0.199586
C73	C	0.887280	0.235082	-0.574376
N74	N	0.851425	0.199220	-0.545104
H75	H	0.899578	0.939492	-0.404647
H76	H	0.592196	0.404700	-0.404509
H77	H	0.364670	0.404713	-0.404525
H78	H	0.720437	0.247412	-0.247719
C79	C	0.582094	0.235039	-0.235383
N80	N	0.552810	0.199129	-0.199586
C81	C	0.887312	0.235045	-0.722811
N82	N	0.851478	0.199159	-0.752095
C83	C	0.887370	0.234972	-1.078580
N84	N	0.851531	0.199096	-1.107869
H85	H	1.056739	0.939467	-0.247718
C86	C	0.226327	0.417105	-0.416888
N87	N	0.197041	0.453019	-0.452692
C88	C	0.887078	0.573626	-0.416929
N89	N	0.851181	0.544350	-0.452760
C90	C	1.069166	1.077809	-0.235387
N91	N	1.105061	1.107089	-0.199558
C92	C	1.069071	0.416803	-1.078553
N93	N	1.104917	0.452669	-1.107830
C94	C	1.069082	0.416803	-0.930117
N95	N	1.104963	0.452643	-0.900835
C96	C	0.887246	1.077832	-0.417034
N97	N	0.851371	1.107120	-0.452875
H98	H	0.720430	0.404697	-0.404494
C99	C	1.068851	0.417031	-0.722791
N100	N	1.104531	0.453061	-0.752071
H101	H	0.899711	0.247373	-0.940235
H102	H	1.056624	0.404536	-0.584449
