data_functionalizedCrystal
_audit_creation_method	'MofGen! by Chris Wilmer'
_symmetry_space_group_name_H-M	'P1'
_symmetry_Int_Tables_number	1
_symmetry_cell_setting	triclinic
loop_
_symmetry_equiv_pos_as_xyz
  x,y,z
_cell_length_a	33.359624
_cell_length_b	33.359674
_cell_length_c	33.359725
_cell_angle_alpha	59.997433
_cell_angle_beta	90.002194
_cell_angle_gamma	119.999922
loop_
_atom_site_label
_atom_site_type_symbol
_atom_site_fract_x
_atom_site_fract_y
_atom_site_fract_z
O1	O	0.341659	-0.286921	0.011932
O2	O	0.283368	-0.204833	-0.011863
O3	O	0.283365	-0.286919	0.070223
O4	O	0.341662	-0.204835	-0.070154
O5	O	0.216694	-0.353589	0.070222
O6	O	0.216697	-0.271504	-0.011864
O7	O	0.274988	-0.353591	0.011931
Zn8	Zn	0.235257	-0.323133	0.000033
Zn9	Zn	0.323099	-0.235292	0.000035
O10	O	0.274991	-0.271505	-0.070155
C11	C	0.146321	-0.044923	-0.028807
C12	C	0.098077	-0.068931	-0.029146
C13	C	0.146322	-0.117510	-0.028812
C14	C	0.098079	-0.141407	-0.029150
C15	C	0.073732	-0.117512	-0.028808
C16	C	0.170558	-0.068929	-0.029149
C17	C	0.219073	0.027640	-0.022916
C18	C	0.242080	0.073495	-0.019196
C19	C	0.217275	0.096491	-0.017328
C20	C	0.242216	0.146208	-0.013293
C21	C	0.169464	0.073641	-0.019184
C22	C	0.146459	0.027790	-0.022906
C23	C	0.171264	0.004789	-0.024770
C24	C	-0.004724	-0.123216	-0.022914
C25	C	-0.054298	-0.149785	-0.019195
C26	C	-0.079161	-0.199451	-0.017332
C27	C	-0.132913	-0.228262	-0.013297
C28	C	-0.054454	-0.222553	-0.019191
C29	C	-0.004881	-0.195985	-0.022912
C30	C	0.019981	-0.146319	-0.024771
C31	C	0.219076	-0.123210	-0.022925
C32	C	0.242082	-0.149780	-0.019203
C33	C	0.217278	-0.199447	-0.017339
C34	C	0.242221	-0.228255	-0.013308
C35	C	0.169469	-0.222551	-0.019193
C36	C	0.146462	-0.195985	-0.022913
C37	C	0.171267	-0.146314	-0.024779
O38	O	-0.150640	-0.271515	-0.011846
O39	O	-0.291018	-0.353608	0.011959
O40	O	-0.208946	-0.271522	-0.070131
O41	O	-0.232712	-0.353601	0.070244
O42	O	-0.208946	-0.204852	-0.070129
O43	O	-0.291019	-0.286938	0.011961
O44	O	-0.150640	-0.204845	-0.011844
Zn45	Zn	-0.220830	-0.235306	0.000059
Zn46	Zn	-0.220829	-0.323147	0.000056
O47	O	-0.232713	-0.286931	0.070246
C48	C	0.412031	-0.117507	-0.367115
C49	C	0.460274	-0.068925	-0.391351
C50	C	0.412032	-0.117506	-0.294526
C51	C	0.460275	-0.068924	-0.318872
C52	C	0.484621	-0.044918	-0.367115
C53	C	0.387795	-0.141403	-0.318872
C54	C	0.339278	-0.196150	-0.366925
C55	C	0.316271	-0.222875	-0.389775
C56	C	0.341074	-0.199937	-0.437577
C57	C	0.316132	-0.228913	-0.462353
C58	C	0.388885	-0.150269	-0.462538
C59	C	0.411890	-0.123545	-0.439691
C60	C	0.387086	-0.146487	-0.391884
C61	C	0.563075	0.027645	-0.439868
C62	C	0.612649	0.073501	-0.462874
C63	C	0.637513	0.096500	-0.438070
C64	C	0.691265	0.146218	-0.463012
C65	C	0.612807	0.073650	-0.390260
C66	C	0.563234	0.027799	-0.367255
C67	C	0.538371	0.004796	-0.392059
C68	C	0.339279	-0.196149	-0.216071
C69	C	0.316275	-0.222877	-0.166495
C70	C	0.341079	-0.199939	-0.141631
C71	C	0.316137	-0.228914	-0.087879
C72	C	0.388888	-0.150275	-0.166336
C73	C	0.411894	-0.123547	-0.215910
C74	C	0.387088	-0.146486	-0.240776
C75	C	0.484614	-0.440932	0.028909
C76	C	0.460267	-0.489515	0.029249
C77	C	0.412026	-0.440929	0.028904
C78	C	0.387790	-0.489512	0.029244
C79	C	0.412025	-0.513521	0.028908
C80	C	0.460268	-0.417034	0.029246
C81	C	0.563068	-0.362290	0.023020
C82	C	0.612641	-0.335567	0.019305
C83	C	0.637504	-0.358507	0.017442
C84	C	0.691255	-0.329533	0.013411
C85	C	0.612797	-0.408175	0.019300
C86	C	0.563226	-0.434899	0.023018
C87	C	0.538363	-0.411954	0.024876
C88	C	0.412213	-0.586087	0.023021
C89	C	0.389363	-0.631944	0.019304
C90	C	0.341562	-0.654941	0.017436
C91	C	0.316785	-0.704659	0.013403
C92	C	0.316601	-0.632089	0.019290
C93	C	0.339449	-0.586236	0.023010
C94	C	0.387255	-0.563235	0.024873
C95	C	0.412215	-0.362284	0.023010
C96	C	0.389369	-0.335553	0.019282
C97	C	0.341567	-0.358490	0.017415
C98	C	0.316791	-0.329513	0.013378
C99	C	0.316608	-0.408154	0.019270
C100	C	0.339453	-0.434885	0.022996
C101	C	0.387256	-0.411947	0.024865
O102	O	0.274983	0.279065	0.011953
O103	O	0.216689	0.162481	-0.011838
O104	O	0.216691	0.162474	0.070246
O105	O	0.274981	0.279072	-0.070131
O106	O	0.283363	0.162476	0.070243
O107	O	0.283361	0.162483	-0.011842
O108	O	0.341655	0.279067	0.011950
Zn109	Zn	0.323094	0.220775	0.000054
Zn110	Zn	0.235250	0.220773	0.000058
O111	O	0.341653	0.279074	-0.070134
O112	O	0.849368	0.279080	-0.495781
O113	O	0.708992	0.162493	-0.437486
O114	O	0.791072	0.162489	-0.437482
O115	O	0.767288	0.279084	-0.495785
O116	O	0.791070	0.162488	-0.504152
O117	O	0.708991	0.162491	-0.504156
O118	O	0.849366	0.279079	-0.562451
Zn119	Zn	0.779178	0.220785	-0.543889
Zn120	Zn	0.779180	0.220787	-0.456048
O121	O	0.767287	0.279083	-0.562455
O122	O	0.283365	-0.286919	-0.562447
O123	O	0.341659	-0.204838	-0.504154
O124	O	0.341658	-0.286922	-0.504149
O125	O	0.283366	-0.204835	-0.562452
O126	O	0.274986	-0.353593	-0.437478
O127	O	0.274987	-0.271509	-0.437483
O128	O	0.216693	-0.353590	-0.495777
Zn129	Zn	0.235255	-0.323135	-0.456044
Zn130	Zn	0.323097	-0.235293	-0.543886
O131	O	0.216695	-0.271506	-0.495781
C132	C	0.073733	-0.513509	0.367183
C133	C	0.098079	-0.489502	0.391419
C134	C	0.146323	-0.440919	0.294593
C135	C	0.170559	-0.417023	0.318940
C136	C	0.146323	-0.440920	0.367183
C137	C	0.098080	-0.489502	0.318940
C138	C	-0.004721	-0.586072	0.366993
C139	C	-0.054295	-0.631928	0.389843
C140	C	-0.079159	-0.654926	0.437645
C141	C	-0.132911	-0.704644	0.462421
C142	C	-0.054452	-0.632076	0.462606
C143	C	-0.004880	-0.586225	0.439759
C144	C	0.019983	-0.563222	0.391952
C145	C	0.146134	-0.435218	0.439935
C146	C	0.168984	-0.408650	0.462942
C147	C	0.216786	-0.358983	0.438138
C148	C	0.241563	-0.330173	0.463079
C149	C	0.241747	-0.335879	0.390327
C150	C	0.218900	-0.362446	0.367323
C151	C	0.171093	-0.412114	0.392127
C152	C	0.146134	-0.435217	0.216139
C153	C	0.168982	-0.408645	0.166562
C154	C	0.216785	-0.358978	0.141699
C155	C	0.241561	-0.330168	0.087947
C156	C	0.241743	-0.335874	0.166404
C157	C	0.218898	-0.362442	0.215978
C158	C	0.171093	-0.412113	0.240843
C159	C	-0.192031	-0.044946	-0.367085
C160	C	-0.191695	-0.068954	-0.391320
C161	C	-0.192020	-0.117531	-0.294497
C162	C	-0.191684	-0.141429	-0.318843
C163	C	-0.192030	-0.117535	-0.367085
C164	C	-0.191685	-0.068950	-0.318843
C165	C	-0.197923	0.027617	-0.366895
C166	C	-0.201644	0.073472	-0.389744
C167	C	-0.203517	0.096468	-0.437544
C168	C	-0.207555	0.146184	-0.462320
C169	C	-0.201663	0.073617	-0.462505
C170	C	-0.197940	0.027767	-0.439659
C171	C	-0.196071	0.004767	-0.391854
C172	C	-0.197932	-0.123240	-0.439835
C173	C	-0.201653	-0.149809	-0.462841
C174	C	-0.203514	-0.199475	-0.438037
C175	C	-0.207551	-0.228287	-0.462978
C176	C	-0.201650	-0.222577	-0.390228
C177	C	-0.197927	-0.196008	-0.367224
C178	C	-0.196070	-0.146342	-0.392028
C179	C	-0.197899	-0.123230	-0.216044
C180	C	-0.201616	-0.149800	-0.166469
C181	C	-0.203477	-0.199466	-0.141606
C182	C	-0.207503	-0.228274	-0.087854
C183	C	-0.201626	-0.222571	-0.166310
C184	C	-0.197911	-0.196005	-0.215883
C185	C	-0.196048	-0.146335	-0.240748
C186	C	-0.249628	-0.440921	0.367200
C187	C	-0.249963	-0.489502	0.391435
C188	C	-0.249639	-0.440923	0.294612
C189	C	-0.249974	-0.489504	0.318957
C190	C	-0.249627	-0.513509	0.367199
C191	C	-0.249974	-0.417026	0.318958
C192	C	-0.243738	-0.362278	0.367012
C193	C	-0.240017	-0.335553	0.389861
C194	C	-0.238144	-0.358490	0.437662
C195	C	-0.234107	-0.329513	0.462438
C196	C	-0.239997	-0.408156	0.462622
C197	C	-0.243720	-0.434881	0.439775
C198	C	-0.245589	-0.411940	0.391970
C199	C	-0.243725	-0.586069	0.439948
C200	C	-0.240003	-0.631924	0.462954
C201	C	-0.238141	-0.654923	0.438149
C202	C	-0.234103	-0.704639	0.463089
C203	C	-0.240005	-0.632075	0.390340
C204	C	-0.243729	-0.586224	0.367337
C205	C	-0.245587	-0.563222	0.392141
C206	C	-0.243760	-0.362283	0.216159
C207	C	-0.240043	-0.335556	0.166584
C208	C	-0.238181	-0.358496	0.141720
C209	C	-0.234155	-0.329522	0.087969
C210	C	-0.240032	-0.408158	0.166424
C211	C	-0.243747	-0.434885	0.215997
C212	C	-0.245611	-0.411945	0.240863
C213	C	0.146321	-0.117568	0.367196
C214	C	0.098078	-0.141469	0.391433
C215	C	0.146321	-0.044969	0.294611
C216	C	0.098077	-0.068981	0.318958
C217	C	0.073731	-0.117570	0.367199
C218	C	0.170557	-0.068979	0.318955
C219	C	0.219075	-0.123267	0.367003
C220	C	0.242083	-0.149836	0.389850
C221	C	0.217279	-0.199510	0.437650
C222	C	0.242222	-0.228322	0.462424
C223	C	0.169467	-0.222619	0.462612
C224	C	0.146462	-0.196049	0.439768
C225	C	0.171266	-0.146375	0.391963
C226	C	-0.004724	-0.196223	0.439951
C227	C	-0.054299	-0.222952	0.462958
C228	C	-0.079162	-0.200010	0.438156
C229	C	-0.132915	-0.228990	0.463098
C230	C	-0.054456	-0.150336	0.390347
C231	C	-0.004883	-0.123608	0.367342
C232	C	0.019980	-0.146554	0.392144
C233	C	0.219074	0.027607	0.216156
C234	C	0.242079	0.073466	0.166581
C235	C	0.217274	0.096467	0.141720
C236	C	0.242216	0.146193	0.087969
C237	C	0.169465	0.073613	0.166425
C238	C	0.146458	0.027753	0.215998
C239	C	0.171265	0.004753	0.240862
O240	O	-0.232795	-0.353622	-0.495745
O241	O	-0.208999	-0.271540	-0.437452
O242	O	-0.291084	-0.353627	-0.437443
O243	O	-0.150711	-0.271535	-0.495754
O244	O	-0.291094	-0.286958	-0.504111
O245	O	-0.209010	-0.204871	-0.504121
O246	O	-0.232805	-0.286954	-0.562414
Zn247	Zn	-0.220909	-0.235327	-0.543852
Zn248	Zn	-0.220896	-0.323166	-0.456013
O249	O	-0.150721	-0.204866	-0.562423
C250	C	0.484613	0.559117	-0.367088
C251	C	0.460266	0.583017	-0.391321
C252	C	0.412023	0.486517	-0.294499
C253	C	0.387787	0.510527	-0.318843
C254	C	0.412023	0.559116	-0.367084
C255	C	0.460267	0.510528	-0.318846
C256	C	0.563068	0.564820	-0.366902
C257	C	0.612643	0.591391	-0.389752
C258	C	0.637506	0.641065	-0.437553
C259	C	0.691258	0.669879	-0.462330
C260	C	0.612799	0.664172	-0.462511
C261	C	0.563227	0.637601	-0.439663
C262	C	0.538363	0.587927	-0.391858
C263	C	0.412211	0.637767	-0.439832
C264	C	0.389360	0.664494	-0.462835
C265	C	0.341558	0.641551	-0.438030
C266	C	0.316781	0.670528	-0.462968
C267	C	0.316597	0.591877	-0.390221
C268	C	0.339445	0.565150	-0.367220
C269	C	0.387252	0.588098	-0.392025
C270	C	0.412212	0.413942	-0.216048
C271	C	0.389364	0.368083	-0.166473
C272	C	0.341561	0.345081	-0.141608
C273	C	0.316785	0.295354	-0.087857
C274	C	0.316602	0.367933	-0.166310
C275	C	0.339448	0.413793	-0.215883
C276	C	0.387253	0.436795	-0.240750
H277	H	0.281006	0.092095	-0.017686
Br278	Br	-0.087820	-0.662938	0.355970
H279	H	-0.245241	-0.567345	0.460150
Br280	Br	0.529703	-0.003210	-0.302374
Br281	Br	0.305572	0.497736	-0.302341
Br282	Br	0.529326	-0.331150	0.025544
Br283	Br	0.529325	0.497401	-0.302026
Br284	Br	0.252742	-0.003606	0.249899
H285	H	0.107211	-0.475664	0.236383
H286	H	0.015235	-0.214794	-0.024430
Br287	Br	-0.246254	-0.502281	0.249523
H288	H	0.632753	-0.295128	0.017791
Br289	Br	-0.088200	-0.289961	-0.016666
Br290	Br	0.252773	-0.331099	0.302443
H291	H	0.479820	0.490444	-0.299300
H292	H	0.277677	-0.650817	0.017765
Br293	Br	0.321732	-0.206565	-0.286289
H294	H	0.319129	-0.475322	0.024504
H295	H	0.210196	-0.048887	0.299408
Br296	Br	-0.190791	-0.035468	-0.457386
H297	H	0.451135	0.656451	-0.460035
Br298	Br	-0.237478	-0.662931	0.527836
H299	H	-0.250496	-0.509586	0.431071
H300	H	-0.245263	-0.343598	0.328088
Br301	Br	0.423235	0.731902	-0.527717
Br302	Br	-0.204203	0.104832	-0.527384
H303	H	0.107535	-0.214797	-0.024427
Br304	Br	-0.088203	-0.119198	0.356688
H305	H	0.239221	-0.343626	0.236091
Br306	Br	-0.195406	-0.227366	-0.249409
Br307	Br	0.646169	0.560031	-0.355882
Br308	Br	0.646544	-0.439311	0.016774
Br309	Br	0.306963	-0.118424	-0.016685
H310	H	-0.238515	-0.426836	0.146176
Br311	Br	0.477091	-0.554875	0.025553
H312	H	0.210197	-0.048833	-0.029698
Br313	Br	0.305572	-0.555236	0.025544
H314	H	0.078531	-0.048888	0.299410
H315	H	0.543110	-0.475339	0.024531
H316	H	0.281006	0.092071	0.146470
Br317	Br	-0.237482	-0.663294	0.356678
Br318	Br	0.422548	-0.119137	-0.527418
Br319	Br	0.251388	-0.290274	-0.355901
Br320	Br	0.492854	-0.035431	-0.286298
Br321	Br	-0.246272	-0.555225	0.302461
H322	H	0.078535	-0.180564	0.431072
H323	H	-0.203144	-0.263017	-0.146061
Br324	Br	0.423239	0.337072	-0.132951
Br325	Br	0.135805	-0.290037	0.527490
Br326	Br	0.476779	-0.056149	-0.249438
Br327	Br	-0.204156	0.104482	-0.355871
H328	H	-0.250522	-0.377933	0.299414
Br329	Br	0.065507	-0.522995	0.457488
H330	H	-0.250529	-0.509600	0.299411
Br331	Br	-0.190779	-0.035469	-0.286261
Br332	Br	0.422556	-0.119143	-0.132590
H333	H	0.149269	0.092372	-0.017663
H334	H	-0.074704	-0.650809	0.501532
H335	H	0.239278	-0.082764	-0.024446
Br336	Br	-0.237529	-0.268158	0.133060
H337	H	0.280674	-0.295434	0.370134
H338	H	0.277669	0.573197	-0.370027
H339	H	0.280668	-0.295425	0.146154
Br340	Br	0.081573	-0.003267	0.249527
H341	H	-0.196418	-0.082798	-0.460035
H342	H	0.348152	-0.509599	0.029785
H343	H	0.149266	0.092341	0.146178
Br344	Br	0.476763	-0.056127	-0.473571
Br345	Br	0.252740	-0.055850	0.302126
H346	H	0.281006	-0.131023	0.369519
H347	H	-0.074408	-0.263394	0.501884
Br348	Br	0.251731	-0.439284	0.016730
H349	H	-0.203169	-0.130993	-0.501768
Br350	Br	-0.195385	-0.003594	-0.302017
Br351	Br	0.305576	0.444809	-0.249408
Br352	Br	0.423237	-0.662955	0.016792
Br353	Br	-0.195366	-0.055818	-0.249789
Br354	Br	-0.237458	-0.439286	0.527500
Br355	Br	0.081575	-0.227414	0.473636
Br356	Br	0.492839	-0.523014	0.030173
Br357	Br	0.135801	-0.289965	-0.016657
H358	H	-0.196438	0.009157	-0.459980
Br359	Br	0.029019	-0.227365	0.473612
Br360	Br	0.251723	0.336717	-0.132563
H361	H	0.015521	-0.567347	0.328068
Br362	Br	0.028647	-0.056197	0.302462
H363	H	0.348148	0.490430	-0.299293
Br364	Br	-0.246292	-0.331152	0.249905
H365	H	0.479818	-0.377938	0.029787
H366	H	-0.203119	-0.130980	-0.146360
Br367	Br	0.236610	-0.351836	0.286349
H368	H	-0.203164	-0.263021	-0.370035
Br369	Br	0.492840	0.648176	-0.457388
H370	H	0.078534	-0.180500	-0.029696
Br371	Br	0.423243	-0.268153	0.016763
Br372	Br	-0.195385	-0.227348	-0.302349
Br373	Br	0.646546	0.731591	-0.527389
Br374	Br	0.081578	-0.003219	-0.025429
H375	H	0.451136	0.432667	-0.236293
H376	H	0.078526	-0.509586	0.299390
H377	H	0.015519	-0.082773	-0.024432
Br378	Br	-0.246207	-0.502264	0.473635
H379	H	0.239275	0.008917	-0.024437
Br380	Br	0.529693	0.668952	-0.473534
H381	H	-0.074409	-0.130967	-0.017684
Br382	Br	0.065498	-0.035443	-0.030057
Br383	Br	0.251393	-0.290276	-0.132969
Br384	Br	0.305609	-0.227277	-0.249818
Br385	Br	0.492858	-0.035445	-0.457413
Br386	Br	-0.190734	-0.206560	-0.286280
H387	H	0.015235	-0.567622	0.460083
H388	H	-0.238512	-0.295119	0.369537
H389	H	0.319077	-0.214832	-0.328000
Br390	Br	0.081254	-0.502624	0.473600
Br391	Br	0.646173	0.104511	-0.527758
Br392	Br	0.529332	-0.003569	-0.473532
Br393	Br	0.646554	0.104870	-0.356598
H394	H	0.451138	-0.343606	0.024535
H395	H	0.148657	-0.427463	0.146453
H396	H	0.148656	-0.427468	0.501869
