data_functionalizedCrystal
_audit_creation_method	'MofGen! by Chris Wilmer'
_symmetry_space_group_name_H-M	'P1'
_symmetry_Int_Tables_number	1
_symmetry_cell_setting	triclinic
loop_
_symmetry_equiv_pos_as_xyz
  x,y,z
_cell_length_a	13.897449
_cell_length_b	13.897448
_cell_length_c	17.077396
_cell_angle_alpha	89.971798
_cell_angle_beta	89.983816
_cell_angle_gamma	90.018972
loop_
_atom_site_label
_atom_site_type_symbol
_atom_site_fract_x
_atom_site_fract_y
_atom_site_fract_z
Zn1	Zn	1.474659	-0.383974	-0.443827
Zn2	Zn	1.974659	0.116026	0.056173
Zn3	Zn	1.474566	-0.545289	-0.312563
Zn4	Zn	1.974566	-0.045289	0.187437
Zn5	Zn	1.313361	-0.384013	-0.312577
Zn6	Zn	1.813361	0.115987	0.187423
Zn7	Zn	1.313330	-0.545232	-0.443789
Zn8	Zn	1.813330	-0.045232	0.056211
O9	O	1.393979	-0.464627	-0.378189
O10	O	1.893979	0.035373	0.121811
O11	O	1.609629	-0.405380	-0.426424
O12	O	2.109629	0.094620	0.073576
O13	O	1.453156	-0.523935	-0.202718
O14	O	1.953156	-0.023935	0.297282
O15	O	1.334810	-0.249026	-0.330009
O16	O	1.834810	0.250974	0.169991
O17	O	1.609560	-0.523898	-0.329985
O18	O	2.109560	-0.023898	0.170015
O19	O	1.453315	-0.248998	-0.426438
O20	O	1.953315	0.251002	0.073562
O21	O	1.334719	-0.405447	-0.202728
O22	O	1.834719	0.094553	0.297272
O23	O	1.178376	-0.405392	-0.329973
O24	O	1.678376	0.094608	0.170027
O25	O	1.334757	-0.523801	-0.553641
O26	O	1.834757	-0.023801	-0.053641
O27	O	1.178353	-0.523839	-0.426374
O28	O	1.678353	-0.023839	0.073626
O29	O	1.453285	-0.405325	-0.553669
O30	O	1.953285	0.094675	-0.053669
O31	O	1.453126	-0.680263	-0.329949
O32	O	1.953126	-0.180263	0.170051
O33	O	1.334666	-0.680221	-0.426360
O34	O	1.834666	-0.180221	0.073640
C35	C	1.143365	-0.464614	-0.378171
C36	C	1.643365	0.035386	0.121829
C37	C	1.036151	-0.464632	-0.378182
C38	C	1.536151	0.035368	0.121818
C39	C	0.839856	-0.464635	-0.378203
C40	C	1.339856	0.035365	0.121797
C41	C	0.949088	-0.464631	-0.378189
C42	C	1.449088	0.035369	0.121811
C43	C	1.393909	-0.715242	-0.378166
C44	C	1.893909	-0.215242	0.121834
C45	C	1.393967	-0.822455	-0.378183
C46	C	1.893967	-0.322455	0.121817
C47	C	1.394068	-1.018750	-0.378232
C48	C	1.894068	-0.518750	0.121768
C49	C	1.394009	-0.909518	-0.378207
C50	C	1.894009	-0.409518	0.121793
C51	C	1.645572	-0.464641	-0.378207
C52	C	2.145572	0.035359	0.121793
C53	C	1.752786	-0.464647	-0.378215
C54	C	2.252786	0.035353	0.121785
C55	C	1.394028	-0.464552	-0.582933
C56	C	1.894028	0.035448	-0.082933
C57	C	1.394048	-0.464521	-0.670183
C58	C	1.894048	0.035479	-0.170183
C59	C	1.394076	-0.213034	-0.378229
C60	C	1.894076	0.286966	0.121771
C61	C	1.394117	-0.105820	-0.378246
C62	C	1.894117	0.394180	0.121754
C63	C	1.332397	-0.402816	-0.711178
C64	C	1.832397	0.097184	-0.211178
C65	C	1.332413	-0.402794	-0.793159
C66	C	1.832413	0.097206	-0.293159
C67	C	1.394085	-0.464473	-0.834143
C68	C	1.894085	0.035527	-0.334143
C69	C	1.455739	-0.526184	-0.793142
C70	C	1.955739	-0.026184	-0.293142
C71	C	1.455718	-0.526210	-0.711163
C72	C	1.955718	-0.026210	-0.211163
C73	C	1.455781	-0.526124	-0.964012
C74	C	1.955781	-0.026124	-0.464012
C75	C	1.455804	-0.526096	-1.045997
C76	C	1.955804	-0.026096	-0.545997
C77	C	1.332476	-0.402708	-1.046008
C78	C	1.832476	0.097292	-0.546008
C79	C	1.332455	-0.402734	-0.964029
C80	C	1.832455	0.097266	-0.464029
C81	C	1.394110	-0.464444	-0.923034
C82	C	1.894110	0.035556	-0.423034
C83	C	1.393986	-0.464632	-0.174241
C84	C	1.893986	0.035368	0.325759
C85	C	1.394153	-0.464392	-0.086992
C86	C	1.894153	0.035608	0.413008
H87	H	1.282207	-0.352552	-0.826533
H88	H	1.782207	0.147448	-0.326533
H89	H	1.282182	-0.352585	-0.677815
H90	H	1.782182	0.147415	-0.177815
H91	H	1.282240	-0.352506	-0.930662
H92	H	1.782240	0.147494	-0.430662
H93	H	1.505996	-0.576366	-0.930637
H94	H	2.005996	-0.076366	-0.430637
O95	O	1.515695	-0.586182	-0.671459
O96	O	2.015695	-0.086182	-0.171459
C97	C	1.570116	-0.640635	-0.725210
C98	C	2.070116	-0.140635	-0.225210
H99	H	1.573494	-0.601105	-0.783654
H100	H	2.073494	-0.101105	-0.283654
H101	H	1.534759	-0.713884	-0.733917
H102	H	2.034759	-0.213884	-0.233917
C103	C	1.668609	-0.703118	-0.621433
C104	C	2.168609	-0.203118	-0.121433
C105	C	1.672766	-0.654562	-0.693213
C106	C	2.172766	-0.154562	-0.193213
H107	H	1.731928	-0.711714	-0.601695
H108	H	2.231928	-0.211714	-0.101695
H109	H	1.631943	-0.666436	-0.585219
H110	H	2.131943	-0.166436	-0.085219
H111	H	1.639141	-0.764154	-0.628699
H112	H	2.139141	-0.264154	-0.128699
H113	H	1.702222	-0.593523	-0.685945
H114	H	2.202222	-0.093523	-0.185945
H115	H	1.709440	-0.691235	-0.729425
H116	H	2.209440	-0.191235	-0.229425
H117	H	1.282275	-0.352460	-1.079390
H118	H	1.782275	0.147540	-0.579390
H119	H	1.506023	-0.576320	-1.079364
H120	H	2.006023	-0.076320	-0.579364
H121	H	1.505949	-0.576408	-0.826518
H122	H	2.005949	-0.076408	-0.326518
