data_functionalizedCrystal
_audit_creation_method	'MofGen! by Chris Wilmer'
_symmetry_space_group_name_H-M	'P1'
_symmetry_Int_Tables_number	1
_symmetry_cell_setting	triclinic
loop_
_symmetry_equiv_pos_as_xyz
  x,y,z
_cell_length_a	14.971491
_cell_length_b	10.654551
_cell_length_c	13.448316
_cell_angle_alpha	89.996249
_cell_angle_beta	89.991393
_cell_angle_gamma	84.050799
loop_
_atom_site_label
_atom_site_type_symbol
_atom_site_fract_x
_atom_site_fract_y
_atom_site_fract_z
O1	O	1.187836	0.163690	-0.082728
O2	O	0.927543	0.183282	-0.082720
O3	O	1.063673	-0.009317	-0.082725
O4	O	1.051705	0.356289	-0.082723
O5	O	1.063656	-0.009329	0.082659
O6	O	0.927526	0.183270	0.082664
O7	O	1.187818	0.163678	0.082656
Cu8	Cu	1.057670	0.173473	0.097761
Cu9	Cu	1.057691	0.173487	-0.097825
O10	O	1.051688	0.356277	0.082660
C11	C	0.894205	0.182398	-0.000027
C12	C	0.794894	0.179769	-0.000024
C13	C	1.062786	-0.056112	-0.000035
C14	C	1.060156	-0.195527	-0.000042
C15	C	0.367136	0.168431	-0.090198
C16	C	0.460449	0.170897	-0.090194
C17	C	0.507093	0.172132	-0.000040
C18	C	0.460418	0.170888	0.090116
C19	C	0.367107	0.168413	0.090111
C20	C	0.654908	0.176051	0.090120
C21	C	0.748226	0.178529	0.090125
C22	C	0.748251	0.178536	-0.090186
C23	C	0.654939	0.176060	-0.090191
C24	C	0.608271	0.174818	-0.000034
C25	C	1.058932	-0.261019	-0.090191
C26	C	1.056453	-0.392013	-0.090186
C27	C	1.056427	-0.392011	0.090125
C28	C	1.058899	-0.261019	0.090119
C29	C	1.058951	-0.261022	-0.194292
C30	C	1.056472	-0.392016	-0.194287
C31	C	1.221156	0.164561	-0.000039
C32	C	1.320468	0.167190	-0.000049
C33	C	1.052575	0.403072	-0.000031
C34	C	1.055205	0.542487	-0.000031
N35	N	1.057663	0.173462	0.235325
N36	N	1.057706	0.173488	-0.235389
C37	C	1.117960	0.088214	0.287363
C38	C	1.117966	0.088213	0.391466
C39	C	1.057677	0.173467	0.443529
C40	C	0.997373	0.258719	0.391484
C41	C	0.997364	0.258713	0.287383
C42	C	0.997398	0.258727	0.608464
C43	C	0.997408	0.258735	0.712572
C44	C	1.118000	0.088228	0.712548
C45	C	1.117991	0.088222	0.608446
C46	C	1.057687	0.173476	0.556408
H47	H	0.329165	0.167434	-0.163612
H48	H	0.498443	0.171900	-0.163603
Br49	Br	0.915584	0.374442	0.783222
H50	H	0.616912	0.175055	0.163535
Br51	Br	0.303772	0.166711	0.212462
H52	H	0.948290	0.328146	0.566098
H53	H	0.786252	0.179549	-0.163595
H54	H	0.498403	0.171886	0.163521
H55	H	0.616964	0.175063	-0.163602
Br56	Br	0.915544	0.374415	0.462137
Br57	Br	0.915522	0.374403	0.216759
Br58	Br	0.955941	-0.182765	-0.260915
H59	H	0.786199	0.179541	0.163537
H60	H	1.059891	-0.207699	0.163527
Br61	Br	0.947750	-0.440144	-0.248126
Br62	Br	1.054716	-0.480900	0.212479
H63	H	1.167086	0.018808	0.566057
H64	H	1.124191	-0.232151	-0.226593
Br65	Br	1.159502	-0.470281	-0.260900
Br66	Br	1.199792	-0.027485	0.216717
Br67	Br	1.199842	-0.027466	0.783174
Br68	Br	1.199796	-0.027486	0.462093
