data_functionalizedCrystal
_audit_creation_method	'MofGen! by Chris Wilmer'
_symmetry_space_group_name_H-M	'P1'
_symmetry_Int_Tables_number	1
_symmetry_cell_setting	triclinic
loop_
_symmetry_equiv_pos_as_xyz
  x,y,z
_cell_length_a	23.532355
_cell_length_b	23.532357
_cell_length_c	10.868271
_cell_angle_alpha	89.989339
_cell_angle_beta	90.001502
_cell_angle_gamma	82.827896
loop_
_atom_site_label
_atom_site_type_symbol
_atom_site_fract_x
_atom_site_fract_y
_atom_site_fract_z
O1	O	0.755266	0.068996	-0.102170
O2	O	0.589397	0.079030	-0.102211
O3	O	0.677348	-0.008921	-0.102164
O4	O	0.667315	0.156948	-0.102217
O5	O	0.677341	-0.008925	0.102481
O6	O	0.589390	0.079027	0.102434
O7	O	0.755259	0.068993	0.102475
Zn8	Zn	0.672323	0.074009	0.134946
Zn9	Zn	0.672333	0.074014	-0.134682
O10	O	0.667308	0.156945	0.102428
C11	C	0.568177	0.078778	0.000107
C12	C	0.504958	0.078024	0.000092
C13	C	0.112941	0.073284	0.111697
C14	C	0.053542	0.072566	0.111702
O15	O	0.022820	0.072174	0.206571
N16	N	0.023837	0.072212	0.000151
C17	C	0.053536	0.072570	-0.111413
O18	O	0.022816	0.072203	-0.206296
C19	C	0.112935	0.073284	-0.111417
C20	C	0.142636	0.073643	0.000142
C21	C	0.142642	0.073643	0.223246
C22	C	0.202037	0.074361	0.223241
C23	C	0.231731	0.074721	0.111686
C24	C	0.202031	0.074362	0.000136
C25	C	0.142633	0.073637	-0.222979
C26	C	0.202036	0.074350	-0.222973
C27	C	0.231736	0.074710	-0.111415
C28	C	0.291120	0.075440	-0.111424
N29	N	0.320824	0.075794	0.000127
C30	C	0.291130	0.075434	0.111682
C31	C	-0.071205	0.071071	-0.111397
C32	C	-0.130603	0.070362	-0.111394
C33	C	-0.130593	0.070357	0.111721
C34	C	-0.071194	0.071070	0.111717
C35	C	-0.041501	0.071425	0.000155
C36	C	0.415864	0.076944	0.111662
C37	C	0.475264	0.077665	0.111647
C38	C	0.475249	0.077666	-0.111468
C39	C	0.415854	0.076948	-0.111453
C40	C	0.386163	0.076585	0.000122
O41	O	0.321880	0.075830	-0.206245
O42	O	0.321859	0.075794	0.206549
C43	C	0.677094	-0.030140	0.000162
C44	C	0.676339	-0.093358	0.000174
C45	C	0.671606	-0.485367	-0.111446
C46	C	0.670889	-0.544766	-0.111453
O47	O	0.670502	-0.575481	-0.206323
N48	N	0.670529	-0.574479	0.000097
C49	C	0.670881	-0.544789	0.111662
O50	O	0.670509	-0.575516	0.206544
C51	C	0.671594	-0.485390	0.111668
C52	C	0.671960	-0.455681	0.000110
C53	C	0.671971	-0.455657	-0.222994
C54	C	0.672689	-0.396262	-0.222986
C55	C	0.673043	-0.366576	-0.111430
C56	C	0.672678	-0.396286	0.000118
C57	C	0.671942	-0.455700	0.223231
C58	C	0.672655	-0.396297	0.223228
C59	C	0.673020	-0.366588	0.111670
C60	C	0.673750	-0.307205	0.111682
N61	N	0.674109	-0.277492	0.000132
C62	C	0.673756	-0.307178	-0.111424
C63	C	0.669382	-0.669530	0.111641
C64	C	0.668673	-0.728928	0.111637
C65	C	0.668680	-0.728901	-0.111479
C66	C	0.669393	-0.669502	-0.111473
C67	C	0.669742	-0.639817	0.000091
C68	C	0.675265	-0.182444	-0.111400
C69	C	0.675985	-0.123044	-0.111382
C70	C	0.675976	-0.123076	0.111732
C71	C	0.675258	-0.182471	0.111715
C72	C	0.674901	-0.212153	0.000139
O73	O	0.674135	-0.276452	0.206504
O74	O	0.674121	-0.276442	-0.206290
C75	C	0.776479	0.069245	0.000155
C76	C	0.839698	0.069999	0.000161
C77	C	0.667562	0.178163	0.000099
C78	C	0.668317	0.241381	0.000080
N79	N	0.672321	0.074006	0.318960
N80	N	0.672339	0.074013	-0.318696
C81	C	0.672330	0.074013	0.569966
C82	C	0.672323	0.074011	0.430289
H83	H	0.499436	0.077961	-0.202293
H84	H	0.391696	0.076653	0.202517
C85	C	0.500251	0.028913	0.301836
C86	C	0.507912	0.078055	0.234280
H87	H	0.520408	0.029153	0.377538
H88	H	0.460630	0.028439	0.317796
H89	H	0.514530	-0.004180	0.255996
H90	H	0.493629	0.111149	0.280117
H91	H	0.547541	0.078536	0.218323
H92	H	0.674971	-0.206604	-0.202256
H93	H	0.672984	-0.372078	-0.313828
H94	H	0.671645	-0.479879	0.314074
H95	H	0.674966	-0.206662	0.202555
H96	H	0.672930	-0.372129	0.314079
C97	C	0.196063	0.074277	0.443774
C98	C	0.234680	0.074748	0.345871
H99	H	0.216215	0.074511	0.519483
H100	H	0.168359	0.107214	0.439122
H101	H	0.177434	0.040780	0.439121
H102	H	0.253307	0.108247	0.350518
H103	H	0.262395	0.041808	0.350525
C104	C	0.355749	0.027179	-0.240878
C105	C	0.383203	0.076559	-0.234079
H106	H	0.335594	0.026938	-0.316582
H107	H	0.383464	-0.005749	-0.236233
H108	H	0.329561	0.026866	-0.174438
H109	H	0.409394	0.076871	-0.300514
H110	H	0.355485	0.109496	-0.238736
C111	C	0.672059	-0.449650	-0.443523
C112	C	0.671587	-0.488282	-0.345631
H113	H	0.671830	-0.469790	-0.519238
H114	H	0.639121	-0.421948	-0.438887
H115	H	0.705555	-0.431019	-0.438842
H116	H	0.638089	-0.506910	-0.350308
H117	H	0.704529	-0.515994	-0.350270
C118	C	0.675916	-0.128992	-0.331928
C119	C	0.676383	-0.090388	-0.234015
H120	H	0.676157	-0.108831	-0.407632
H121	H	0.708851	-0.156699	-0.327282
H122	H	0.642418	-0.147619	-0.327284
H123	H	0.709884	-0.071764	-0.238654
H124	H	0.643445	-0.062670	-0.238664
C125	C	0.082552	0.023870	0.352743
C126	C	0.110011	0.073246	0.345885
H127	H	0.062414	0.023627	0.428466
H128	H	0.056355	0.023560	0.286333
H129	H	0.110268	-0.009064	0.348102
H130	H	0.082295	0.106181	0.350518
H131	H	0.136211	0.073561	0.412314
H132	H	0.669668	-0.645364	0.202495
C133	C	0.619478	-0.740525	0.301788
C134	C	0.668274	-0.761578	0.234268
H135	H	0.619228	-0.760682	0.377496
H136	H	0.619962	-0.700905	0.317736
H137	H	0.586150	-0.745720	0.255929
H138	H	0.701602	-0.756378	0.280123
H139	H	0.667796	-0.801207	0.218324
C140	C	0.669327	-0.675456	-0.332008
C141	C	0.669788	-0.636848	-0.234099
H142	H	0.669566	-0.655297	-0.407714
H143	H	0.702265	-0.703159	-0.327357
H144	H	0.635831	-0.694087	-0.327362
H145	H	0.703286	-0.618219	-0.238740
H146	H	0.636847	-0.609134	-0.238752
C147	C	-0.077164	0.070991	0.332252
C148	C	-0.038549	0.071458	0.234345
H149	H	-0.057011	0.071225	0.407959
H150	H	-0.104867	0.103929	0.327600
H151	H	-0.095796	0.037496	0.327606
H152	H	-0.019921	0.104955	0.238986
H153	H	-0.010836	0.038516	0.238999
C154	C	0.627798	-0.049590	0.241109
C155	C	0.676357	-0.090432	0.234346
H156	H	0.628029	-0.029437	0.316808
H157	H	0.628125	-0.023407	0.174668
H158	H	0.594309	-0.068231	0.236459
H159	H	0.709847	-0.071790	0.238987
H160	H	0.676036	-0.116619	0.300805
C161	C	-0.221646	0.069240	0.210780
C162	C	-0.163239	0.069949	0.234348
H163	H	-0.241799	0.068983	0.286481
H164	H	-0.235919	0.102341	0.164953
H165	H	-0.226829	0.035908	0.164937
H166	H	-0.158056	0.103284	0.280183
H167	H	-0.148962	0.036844	0.280194
H168	H	0.668390	-0.753082	-0.202314
C169	C	-0.155580	0.119113	-0.301586
C170	C	-0.163246	0.069973	-0.234024
H171	H	-0.175728	0.118868	-0.377298
H172	H	-0.169860	0.152204	-0.255764
H173	H	-0.115952	0.119586	-0.317533
H174	H	-0.202874	0.069503	-0.218070
H175	H	-0.148969	0.036873	-0.279856
C176	C	0.002274	0.022916	-0.240861
C177	C	-0.038570	0.071471	-0.234039
H178	H	0.022416	0.023162	-0.316578
H179	H	0.028467	0.023233	-0.174443
H180	H	-0.016364	-0.010576	-0.236207
H181	H	-0.019932	0.104963	-0.238684
H182	H	-0.064767	0.071159	-0.300475
C183	C	0.117669	0.122368	-0.413194
C184	C	0.110000	0.073234	-0.345614
H185	H	0.097527	0.122114	-0.488912
H186	H	0.103384	0.155463	-0.367390
H187	H	0.157298	0.122841	-0.429129
H188	H	0.070371	0.072764	-0.329671
H189	H	0.124283	0.040130	-0.391427
H190	H	0.226209	0.074639	-0.313823
