data_functionalizedCrystal
_audit_creation_method	'MofGen! by Chris Wilmer'
_symmetry_space_group_name_H-M	'P1'
_symmetry_Int_Tables_number	1
_symmetry_cell_setting	triclinic
loop_
_symmetry_equiv_pos_as_xyz
  x,y,z
_cell_length_a	13.635800
_cell_length_b	23.538772
_cell_length_c	12.908943
_cell_angle_alpha	80.276895
_cell_angle_beta	100.860631
_cell_angle_gamma	96.503466
loop_
_atom_site_label
_atom_site_type_symbol
_atom_site_fract_x
_atom_site_fract_y
_atom_site_fract_z
V1	V	1.950545	-0.078444	0.329268
O2	O	1.994886	0.004504	0.322391
O3	O	1.879234	-0.156249	0.327602
O4	O	1.920611	-0.076915	0.472606
O5	O	1.953223	-0.075378	0.176383
V6	V	2.199207	-0.068561	0.310911
O7	O	2.066039	-0.100125	0.369537
O8	O	2.308812	-0.046881	0.270642
O9	O	2.158915	0.009244	0.312577
O10	O	2.213564	-0.151510	0.317788
O11	O	2.255228	-0.071627	0.463796
O12	O	2.117538	-0.070090	0.167573
V13	V	2.450545	-0.078444	0.329268
O14	O	2.494886	0.004504	0.322391
O15	O	2.379234	-0.156249	0.327602
O16	O	2.420611	-0.076915	0.472606
O17	O	2.453223	-0.075378	0.176383
V18	V	2.699207	-0.068561	0.310911
O19	O	2.566039	-0.100125	0.369537
O20	O	2.808812	-0.046881	0.270642
O21	O	2.658915	0.009244	0.312577
O22	O	2.713564	-0.151510	0.317788
O23	O	2.755228	-0.071627	0.463796
O24	O	2.617538	-0.070090	0.167573
C25	C	2.290459	-0.175226	0.322559
C26	C	2.272759	-0.238830	0.322152
C27	C	2.252172	-0.636158	0.325025
C28	C	2.235556	-0.695922	0.324659
O29	O	2.302699	-0.729303	0.328998
N30	N	2.138192	-0.722910	0.319187
C31	C	2.057439	-0.690131	0.314092
O32	O	1.973097	-0.718574	0.309406
C33	C	2.074056	-0.630368	0.314466
C34	C	2.171424	-0.603383	0.319927
C35	C	2.349533	-0.609172	0.330487
C36	C	2.366147	-0.549411	0.330851
C37	C	2.285399	-0.516636	0.325753
C38	C	2.188038	-0.543622	0.320291
C39	C	1.993305	-0.597591	0.309379
C40	C	2.009931	-0.537824	0.309754
C41	C	2.107299	-0.510839	0.315215
C42	C	2.123904	-0.451086	0.315558
N43	N	2.221269	-0.424099	0.321029
C44	C	2.302016	-0.456874	0.326127
C45	C	2.022549	-0.815637	0.313310
C46	C	2.005930	-0.875398	0.312928
C47	C	2.184049	-0.881185	0.323496
C48	C	2.200666	-0.821423	0.323870
C49	C	2.119913	-0.788649	0.318781
C50	C	2.336900	-0.331372	0.326890
C51	C	2.353506	-0.271605	0.327250
C52	C	2.175387	-0.265824	0.316687
C53	C	2.158780	-0.325584	0.316322
C54	C	2.239545	-0.358358	0.321428
O55	O	2.056811	-0.417669	0.311226
O56	O	2.386349	-0.428424	0.330827
C57	C	1.790459	-0.175226	0.322559
C58	C	1.772759	-0.238830	0.322152
C59	C	1.843239	-0.074028	0.507525
C60	C	1.859095	-0.073292	0.624709
C61	C	2.079359	0.028218	0.317618
C62	C	2.086678	0.091821	0.318031
C63	C	2.026580	-0.072980	0.132649
C64	C	2.000345	-0.073712	0.015464
C65	C	1.853506	-0.271605	0.327250
C66	C	1.836891	-0.331370	0.326883
C67	C	1.739526	-0.358358	0.321412
C68	C	1.658773	-0.325578	0.316317
C69	C	1.675391	-0.265816	0.316691
C70	C	2.067076	-0.077588	0.855687
C71	C	2.081978	-0.076897	0.965792
C72	C	1.903803	-0.071216	0.955023
C73	C	1.888901	-0.071907	0.844919
C74	C	1.970541	-0.075094	0.795255
C75	C	1.955637	-0.075788	0.685149
C76	C	1.777464	-0.070103	0.674382
C77	C	1.792366	-0.069412	0.784486
C78	C	2.343239	-0.074028	0.507525
C79	C	2.359095	-0.073292	0.624709
C80	C	2.579359	0.028218	0.317618
C81	C	2.586678	0.091821	0.318031
C82	C	2.526580	-0.072980	0.132649
C83	C	2.500345	-0.073712	0.015464
C84	C	2.567076	-0.077588	0.855687
C85	C	2.581978	-0.076897	0.965792
C86	C	2.403803	-0.071216	0.955023
C87	C	2.388901	-0.071907	0.844919
C88	C	2.470541	-0.075094	0.795255
C89	C	2.455637	-0.075788	0.685149
C90	C	2.277464	-0.070103	0.674382
C91	C	2.292366	-0.069412	0.784486
C92	C	2.678423	0.124596	0.312937
C93	C	2.685310	0.184360	0.313308
C94	C	2.600452	0.211348	0.318782
C95	C	2.508698	0.178569	0.323874
C96	C	2.501810	0.118807	0.323495
H97	H	2.432796	-0.249636	0.331693
H98	H	2.402669	-0.358049	0.331049
H99	H	1.579499	-0.347561	0.311862
H100	H	2.760029	0.211040	0.309163
H101	H	2.160585	-0.078929	1.014992
H102	H	1.956783	-0.788955	0.309158
H103	H	2.606073	0.260011	0.319089
H104	H	2.660585	-0.078929	1.014992
H105	H	2.439609	0.200552	0.328329
H106	H	1.926644	-0.897363	0.308467
H107	H	2.445433	-0.527446	0.335305
H108	H	2.415294	-0.635852	0.334642
H109	H	2.225901	-0.066816	0.824937
H110	H	2.427100	0.092125	0.327653
H111	H	2.279950	-0.799455	0.328315
H112	H	2.022113	-0.078386	0.644716
H113	H	1.726009	-0.407021	0.321108
H114	H	2.249795	-0.907881	0.327639
H115	H	1.837341	-0.068618	0.995478
H116	H	1.914020	-0.619551	0.304924
H117	H	2.633549	-0.080189	0.815252
H118	H	2.133549	-0.080189	0.815252
H119	H	1.944169	-0.511143	0.305615
H120	H	1.902655	-0.358050	0.331029
H121	H	1.609631	-0.239134	0.312534
H122	H	1.725901	-0.066816	0.824937
H123	H	2.079496	-0.347557	0.311882
H124	H	2.198856	-0.068074	0.625166
H125	H	2.337341	-0.068618	0.995478
H126	H	2.747530	0.102631	0.308480
H127	H	2.109647	-0.239127	0.312531
H128	H	1.698856	-0.068074	0.625166
H129	H	1.932792	-0.249639	0.331698
H130	H	2.522113	-0.078386	0.644716
