data_functionalizedCrystal
_audit_creation_method	'MofGen! by Chris Wilmer'
_symmetry_space_group_name_H-M	'P1'
_symmetry_Int_Tables_number	1
_symmetry_cell_setting	triclinic
loop_
_symmetry_equiv_pos_as_xyz
  x,y,z
_cell_length_a	16.109302
_cell_length_b	8.559649
_cell_length_c	14.586319
_cell_angle_alpha	89.989015
_cell_angle_beta	89.989806
_cell_angle_gamma	76.620223
loop_
_atom_site_label
_atom_site_type_symbol
_atom_site_fract_x
_atom_site_fract_y
_atom_site_fract_z
O1	O	1.090048	0.205414	-0.076277
O2	O	0.846358	0.230973	-0.076269
O3	O	0.989672	-0.014420	-0.076272
O4	O	0.946734	0.450806	-0.076273
O5	O	0.989657	-0.014461	0.076208
O6	O	0.846343	0.230931	0.076212
O7	O	1.090033	0.205372	0.076204
Cu8	Cu	0.968186	0.218148	0.090131
Cu9	Cu	0.968205	0.218197	-0.090195
O10	O	0.946718	0.450765	0.076208
C11	C	0.815441	0.229917	-0.000027
C12	C	0.723344	0.226812	-0.000025
C13	C	0.511452	0.219611	0.083084
C14	C	0.424919	0.216676	0.083080
C15	C	0.424946	0.216730	-0.083163
C16	C	0.511479	0.219652	-0.083158
C17	C	0.554728	0.221101	-0.000033
C18	C	0.381662	0.215244	-0.000040
C19	C	0.287839	0.212063	-0.000044
C20	C	0.648558	0.224280	-0.000028
C21	C	0.992919	-0.073972	-0.000034
C22	C	1.002605	-0.251357	-0.000039
C23	C	1.120949	0.206428	-0.000039
C24	C	1.213047	0.209533	-0.000048
C25	C	0.943472	0.510317	-0.000033
C26	C	0.933786	0.687702	-0.000033
N27	N	0.968180	0.218113	0.216963
N28	N	0.968219	0.218220	-0.217027
C29	C	0.923969	0.121238	0.547993
C30	C	0.923964	0.121216	0.452012
C31	C	1.012435	0.315098	0.451949
C32	C	1.012444	0.315111	0.547928
C33	C	0.968207	0.218183	0.595948
C34	C	0.968192	0.218149	0.403987
C35	C	0.968186	0.218126	0.299920
C36	C	0.968213	0.218204	0.700022
H37	H	0.389687	0.215463	0.150762
H38	H	0.887948	0.042313	0.587088
N39	N	0.845923	-0.201660	-0.000043
H40	H	0.801375	-0.267524	-0.000039
H41	H	0.838833	-0.131688	0.056481
H42	H	0.887942	0.042272	0.412972
H43	H	0.389721	0.215552	-0.150841
H44	H	1.048450	0.394015	0.412839
H45	H	1.068938	-0.334897	-0.000034
H46	H	1.048472	0.394056	0.586974
H47	H	0.546716	0.220862	-0.150846
N48	N	0.558102	0.221172	0.172736
H49	H	0.517553	0.219781	0.225388
H50	H	0.607068	0.123388	0.176357
