data_functionalizedCrystal
_audit_creation_method	'MofGen! by Chris Wilmer'
_symmetry_space_group_name_H-M	'P1'
_symmetry_Int_Tables_number	1
_symmetry_cell_setting	triclinic
loop_
_symmetry_equiv_pos_as_xyz
  x,y,z
_cell_length_a	19.077105
_cell_length_b	19.077068
_cell_length_c	19.076929
_cell_angle_alpha	94.467801
_cell_angle_beta	90.078300
_cell_angle_gamma	90.115316
loop_
_atom_site_label
_atom_site_type_symbol
_atom_site_fract_x
_atom_site_fract_y
_atom_site_fract_z
Zn1	Zn	1.044032	-0.340427	-0.453497
Zn2	Zn	1.043949	-0.453583	-0.340339
Zn3	Zn	0.931648	-0.331006	-0.330929
Zn4	Zn	0.921785	-0.453152	-0.453075
O5	O	0.985354	-0.394542	-0.394460
O6	O	1.142180	-0.359560	-0.442602
O7	O	1.033146	-0.433560	-0.240615
O8	O	0.950719	-0.233781	-0.343427
O9	O	1.142120	-0.442695	-0.359465
O10	O	1.033287	-0.240703	-0.433477
O11	O	0.950638	-0.343504	-0.233702
O12	O	0.832180	-0.343086	-0.343017
O13	O	0.933908	-0.441962	-0.551606
O14	O	0.824934	-0.432827	-0.432757
O15	O	1.023722	-0.359143	-0.551917
O16	O	1.023581	-0.552000	-0.359055
O17	O	0.933828	-0.551684	-0.441881
C18	C	0.803105	-0.386888	-0.386820
C19	C	0.725137	-0.383631	-0.383570
C20	C	0.684753	-0.428889	-0.428697
C21	C	0.611494	-0.425820	-0.425645
C22	C	0.578621	-0.377496	-0.377463
C23	C	0.619010	-0.332233	-0.332333
C24	C	0.692268	-0.335299	-0.335389
C25	C	0.359927	-0.363304	-0.363325
C26	C	0.286664	-0.360243	-0.360271
C27	C	0.279153	-0.453830	-0.453584
C28	C	0.352413	-0.456895	-0.456633
C29	C	0.392795	-0.411629	-0.411506
N30	N	0.503738	-0.374359	-0.374341
N31	N	0.467676	-0.414763	-0.414632
C32	C	0.977644	-0.577377	-0.401459
C33	C	0.974409	-0.655598	-0.404480
C34	C	1.019652	-0.692490	-0.362814
C35	C	1.016613	-0.765988	-0.365660
C36	C	0.968327	-0.802591	-0.410167
C37	C	0.923082	-0.765693	-0.451837
C38	C	0.926124	-0.692198	-0.448995
C39	C	0.954215	-1.022385	-0.423291
C40	C	0.951175	-1.095885	-0.426128
C41	C	1.044708	-1.096175	-0.339951
C42	C	1.047743	-1.022677	-0.337110
C43	C	1.002500	-0.985786	-0.378782
N44	N	0.965218	-0.877717	-0.413075
N45	N	1.005613	-0.910662	-0.375878
C46	C	1.168313	-0.402226	-0.402130
C47	C	1.246280	-0.405501	-0.405398
C48	C	0.977724	-0.401555	-0.578009
C49	C	0.974473	-0.404544	-0.656227
C50	C	0.993112	-0.210995	-0.387450
C51	C	0.996418	-0.132778	-0.384462
C52	C	0.951156	-0.426035	-1.096494
C53	C	0.954209	-0.423217	-1.023000
C54	C	1.002500	-0.378692	-0.986418
C55	C	1.047737	-0.336978	-1.023334
C56	C	1.044681	-0.339794	-1.096827
C57	C	1.016653	-0.365645	-0.766636
C58	C	1.019708	-0.362835	-0.693138
C59	C	0.926178	-0.449072	-0.692809
C60	C	0.923129	-0.451887	-0.766303
C61	C	0.968363	-0.410170	-0.803213
N62	N	1.005623	-0.375812	-0.911295
N63	N	0.965236	-0.413048	-0.878334
C64	C	0.992996	-0.387507	-0.211625
C65	C	0.996391	-0.384326	-0.133405
H66	H	0.259901	-0.320883	-0.321039
O67	O	0.882245	-0.656251	-0.489443
C68	C	0.845453	-0.542894	-0.523228
C69	C	0.895197	-0.583515	-0.477391
H70	H	0.855897	-0.484079	-0.513490
H71	H	0.854773	-0.559942	-0.581067
H72	H	0.788822	-0.554593	-0.509026
H73	H	0.951846	-0.571837	-0.491532
H74	H	0.885816	-0.566462	-0.419565
H75	H	0.379173	-0.496247	-0.495867
H76	H	1.059032	-0.326573	-0.663355
H77	H	1.087061	-0.992876	-0.300868
H78	H	1.058969	-0.662693	-0.326568
O79	O	1.094668	-0.293666	-0.987908
C80	C	1.187144	-0.208461	-0.996000
C81	C	1.134014	-0.257468	-1.036204
H82	H	1.218979	-0.179193	-1.035031
H83	H	1.157964	-0.168948	-0.958858
H84	H	1.223856	-0.241004	-0.964344
H85	H	1.097288	-0.224982	-1.067901
H86	H	1.163240	-0.296982	-1.073304
H87	H	0.917376	-0.992354	-0.457221
O88	O	0.904184	-0.469303	-1.131916
C89	C	0.811764	-0.554569	-1.123826
C90	C	0.864919	-0.505588	-1.083626
H91	H	0.780015	-0.583930	-1.084802
H92	H	0.774975	-0.522068	-1.155445
H93	H	0.840992	-0.594009	-1.161004
H94	H	0.835750	-0.466139	-1.046412
H95	H	0.901707	-0.538135	-1.052053
H96	H	1.081543	-1.126219	-0.306024
O97	O	0.882214	-0.489666	-0.657065
C98	C	0.789107	-0.575481	-0.664494
C99	C	0.838867	-0.529553	-0.705061
H100	H	0.754038	-0.607730	-0.703280
H101	H	0.821157	-0.612358	-0.632865
H102	H	0.755256	-0.540311	-0.627294
H103	H	0.872729	-0.564669	-0.742297
H104	H	0.806776	-0.492671	-0.736644
H105	H	0.883769	-0.795502	-0.488079
H106	H	1.053455	-0.796022	-0.331731
H107	H	0.883806	-0.488144	-0.796083
O108	O	1.088524	-0.299200	-1.132709
C109	C	1.098525	-0.207795	-1.212493
C110	C	1.048795	-0.253714	-1.171884
H111	H	1.066424	-0.171019	-1.244187
H112	H	1.133555	-0.175438	-1.173753
H113	H	1.132419	-0.242976	-1.249641
H114	H	1.014856	-0.218586	-1.134735
H115	H	1.013813	-0.286077	-1.210663
H116	H	0.911862	-1.125686	-0.462384
O117	O	0.399044	-0.319306	-0.319419
C118	C	0.398756	-0.226122	-0.226578
C119	C	0.354368	-0.275926	-0.276249
H120	H	0.362654	-0.191027	-0.191673
H121	H	0.433207	-0.258356	-0.192342
H122	H	0.433275	-0.192080	-0.258988
H123	H	0.319808	-0.309979	-0.243895
H124	H	0.319962	-0.243650	-0.310488
H125	H	0.725148	-0.298442	-0.298645
H126	H	0.578617	-0.462675	-0.462392
O127	O	0.239820	-0.497722	-0.497392
C128	C	0.123634	-0.534504	-0.534018
C129	C	0.168093	-0.484745	-0.484372
H130	H	0.065635	-0.524040	-0.523499
H131	H	0.136156	-0.525002	-0.590926
H132	H	0.136206	-0.591350	-0.524351
H133	H	0.155547	-0.427881	-0.493976
H134	H	0.155565	-0.494308	-0.427481
O135	O	0.587045	-0.285385	-0.285459
C136	C	0.508632	-0.268671	-0.186677
C137	C	0.544799	-0.321803	-0.239709
H138	H	0.474457	-0.298094	-0.149684
H139	H	0.550050	-0.236856	-0.154896
H140	H	0.474575	-0.231718	-0.216228
H141	H	0.578853	-0.358801	-0.210214
H142	H	0.503346	-0.353568	-0.271489
O143	O	0.910364	-0.463771	-0.987079
C144	C	0.900341	-0.555240	-0.907371
C145	C	0.950081	-0.509345	-0.947994
H146	H	0.932432	-0.592108	-0.875771
H147	H	0.866465	-0.520112	-0.870153
H148	H	0.865293	-0.587512	-0.946160
H149	H	0.985173	-0.477067	-0.909257
H150	H	0.983908	-0.544512	-0.985222
O151	O	1.060668	-0.325105	-0.802377
C152	C	1.153737	-0.239249	-0.794939
C153	C	1.103937	-0.285135	-0.754373
H154	H	1.188722	-0.206910	-0.756145
H155	H	1.187665	-0.274384	-0.832098
H156	H	1.121649	-0.202443	-0.826614
H157	H	1.135970	-0.321946	-0.722658
H158	H	1.070007	-0.249957	-0.717257
H159	H	0.711513	-0.468243	-0.467930
