data_functionalizedCrystal
_audit_creation_method	'MofGen! by Chris Wilmer'
_symmetry_space_group_name_H-M	'P1'
_symmetry_Int_Tables_number	1
_symmetry_cell_setting	triclinic
loop_
_symmetry_equiv_pos_as_xyz
  x,y,z
_cell_length_a	27.731993
_cell_length_b	27.732048
_cell_length_c	26.809956
_cell_angle_alpha	89.999364
_cell_angle_beta	90.002784
_cell_angle_gamma	82.631525
loop_
_atom_site_label
_atom_site_type_symbol
_atom_site_fract_x
_atom_site_fract_y
_atom_site_fract_z
O1	O	0.640948	0.057385	-0.041351
O2	O	0.500151	0.066158	-0.041382
O3	O	0.574923	-0.008626	-0.041356
O4	O	0.566177	0.132169	-0.041377
O5	O	0.574908	-0.008615	0.041603
O6	O	0.500137	0.066169	0.041577
O7	O	0.640934	0.057396	0.041609
Zn8	Zn	0.570533	0.061784	0.054764
Zn9	Zn	0.570552	0.061769	-0.054538
O10	O	0.566163	0.132180	0.041582
C11	C	0.482137	0.065983	0.000094
C12	C	0.428480	0.065441	0.000082
C13	C	0.574732	-0.026628	0.000125
C14	C	0.574179	-0.080282	0.000129
C15	C	0.045328	0.061504	-0.045114
C16	C	0.246985	0.063571	-0.045128
O17	O	0.273065	0.063814	-0.083588
N18	N	0.272198	0.063836	0.000092
C19	C	0.246993	0.063581	0.045319
O20	O	0.273066	0.063849	0.083781
C21	C	0.045337	0.061510	0.045332
C22	C	0.020127	0.061251	0.000109
C23	C	0.020117	0.061244	-0.090333
C24	C	-0.030295	0.060730	-0.090329
C25	C	-0.055496	0.060476	-0.045106
C26	C	-0.030285	0.060736	0.000113
C27	C	0.020134	0.061252	0.090558
C28	C	-0.030283	0.060733	0.090558
C29	C	-0.055493	0.060473	0.045335
C30	C	-0.105898	0.059969	0.045340
N31	N	-0.131110	0.059704	0.000120
C32	C	-0.105909	0.059958	-0.045103
C33	C	0.352866	0.064669	0.045309
C34	C	0.403279	0.065187	0.045306
C35	C	0.403268	0.065177	-0.045141
C36	C	0.352853	0.064662	-0.045138
C37	C	0.327653	0.064404	0.000089
C38	C	-0.211777	0.058878	-0.045091
C39	C	-0.262194	0.058366	-0.045083
C40	C	-0.262178	0.058374	0.045363
C41	C	-0.211766	0.058889	0.045356
C42	C	-0.186567	0.059139	0.000124
O43	O	-0.132008	0.059720	0.083780
O44	O	-0.131989	0.059679	-0.083559
C45	C	0.095740	0.062018	-0.045118
C46	C	0.120950	0.062279	0.000101
C47	C	0.095749	0.062025	0.045325
C48	C	0.171364	0.062797	0.000098
C49	C	0.196565	0.063051	-0.045125
C50	C	0.171352	0.062786	-0.090345
C51	C	0.120941	0.062272	-0.090341
C52	C	0.120962	0.062290	0.090545
C53	C	0.171373	0.062805	0.090537
C54	C	0.196574	0.063058	0.045314
C55	C	0.614884	-0.419105	0.000113
C56	C	0.612833	-0.620765	0.000105
O57	O	0.650055	-0.652028	0.000092
N58	N	0.568497	-0.639880	0.000096
C59	C	0.524670	-0.608576	0.000085
O60	O	0.486912	-0.629462	0.000072
C61	C	0.526721	-0.406918	0.000089
C62	C	0.571061	-0.387806	0.000103
C63	C	0.659220	-0.399993	0.000126
C64	C	0.659732	-0.349581	0.000131
C65	C	0.615909	-0.318282	0.000122
C66	C	0.571573	-0.337394	0.000108
C67	C	0.482895	-0.375616	0.000074
C68	C	0.483412	-0.325199	0.000074
C69	C	0.527751	-0.306087	0.000089
C70	C	0.528262	-0.255683	0.000103
N71	N	0.572598	-0.236568	0.000112
C72	C	0.616422	-0.267867	0.000122
C73	C	0.523596	-0.714450	0.000084
C74	C	0.523083	-0.764865	0.000084
C75	C	0.611246	-0.777049	0.000103
C76	C	0.611759	-0.726634	0.000107
C77	C	0.567932	-0.695335	0.000093
C78	C	0.617494	-0.161998	0.000132
C79	C	0.618003	-0.111582	0.000138
C80	C	0.529839	-0.099401	0.000117
C81	C	0.529331	-0.149814	0.000113
C82	C	0.573162	-0.181112	0.000118
O83	O	0.491060	-0.224392	0.000111
O84	O	0.654174	-0.246972	0.000124
C85	C	0.614372	-0.469517	0.000108
C86	C	0.570036	-0.488630	0.000094
C87	C	0.526213	-0.457331	0.000085
C88	C	0.569523	-0.539044	0.000094
C89	C	0.613346	-0.570343	0.000103
C90	C	0.657683	-0.551228	0.000113
C91	C	0.658195	-0.500817	0.000117
C92	C	0.481876	-0.476446	0.000075
C93	C	0.481368	-0.526858	0.000071
C94	C	0.525191	-0.558157	0.000081
C95	C	0.658949	0.057570	0.000132
C96	C	0.712605	0.058113	0.000140
C97	C	0.566353	0.150181	0.000100
C98	C	0.566906	0.203836	0.000093
N99	N	0.570524	0.061794	0.129360
N100	N	0.570565	0.061756	-0.129134
C101	C	0.603656	0.028663	0.473998
C102	C	0.603668	0.028656	0.682876
O103	O	0.631819	0.000489	0.709889
N104	N	0.570555	0.061759	0.708988
C105	C	0.537434	0.094864	0.682877
O106	O	0.509266	0.123016	0.709879
C107	C	0.537421	0.094869	0.474000
C108	C	0.570539	0.061767	0.447891
C109	C	0.636772	-0.004437	0.447889
C110	C	0.636771	-0.004433	0.395673
C111	C	0.603654	0.028671	0.369565
C112	C	0.570538	0.061771	0.395675
C113	C	0.504298	0.127971	0.447890
C114	C	0.504297	0.127968	0.395668
C115	C	0.537415	0.094867	0.369559
C116	C	0.537419	0.094878	0.317351
N117	N	0.570533	0.061775	0.291239
C118	C	0.603650	0.028671	0.317347
C119	C	0.537444	0.094860	0.792540
C120	C	0.537448	0.094859	0.844759
C121	C	0.603681	0.028650	0.844754
C122	C	0.603679	0.028653	0.792534
C123	C	0.570557	0.061757	0.766428
C124	C	0.603644	0.028683	0.207689
C125	C	0.603641	0.028691	0.155468
C126	C	0.537406	0.094898	0.155477
C127	C	0.537411	0.094891	0.207693
C128	C	0.570532	0.061780	0.233798
O129	O	0.509280	0.123026	0.290305
O130	O	0.631806	0.000516	0.290335
C131	C	0.603658	0.028659	0.526214
C132	C	0.570542	0.061759	0.552324
C133	C	0.537425	0.094862	0.526216
C134	C	0.570546	0.061758	0.604542
C135	C	0.603663	0.028655	0.630650
C136	C	0.636777	-0.004448	0.604538
C137	C	0.636775	-0.004444	0.552322
C138	C	0.504312	0.127965	0.552328
C139	C	0.504316	0.127959	0.604545
C140	C	0.537433	0.094855	0.630652
H141	H	-0.282718	0.058156	-0.081911
H142	H	-0.282706	0.058170	0.082183
H143	H	0.477329	0.154925	0.469141
H144	H	0.493226	-0.165375	0.000115
H145	H	0.663744	-0.031401	0.625803
H146	H	0.663743	-0.031399	0.531067
H147	H	0.477348	0.154919	0.625799
H148	H	0.494160	-0.073909	0.000111
H149	H	-0.050798	0.060527	0.127387
H150	H	0.445259	-0.542414	0.000064
H151	H	0.654110	-0.096024	0.000151
H152	H	0.447722	-0.299717	0.000062
H153	H	0.040631	0.061449	-0.127161
H154	H	0.510484	0.121819	0.866013
H155	H	0.100419	0.062060	-0.127166
H156	H	0.191895	0.063020	0.127366
H157	H	0.332329	0.064450	-0.081962
H158	H	-0.050816	0.060516	-0.127155
H159	H	-0.191240	0.059110	0.082180
H160	H	0.510471	0.121817	0.771288
H161	H	0.423795	0.065385	-0.081964
H162	H	0.647864	-0.711077	0.000118
H163	H	-0.191266	0.059083	-0.081923
H164	H	0.694301	-0.485261	0.000129
H165	H	0.693365	-0.576721	0.000122
H166	H	0.191879	0.062995	-0.127167
H167	H	0.100448	0.062081	0.127372
H168	H	0.423800	0.065407	0.082131
H169	H	0.653186	-0.187476	0.000135
H170	H	0.695838	-0.334025	0.000141
H171	H	0.486977	-0.780421	0.000081
H172	H	0.663740	-0.031396	0.469141
H173	H	0.694908	-0.425472	0.000132
H174	H	0.446189	-0.450966	0.000067
H175	H	0.332353	0.064458	0.082140
H176	H	0.477323	0.154925	0.374414
H177	H	0.510447	0.121851	0.228952
H178	H	0.630612	0.001735	0.134211
H179	H	0.646929	-0.802542	0.000111
H180	H	0.040652	0.061462	0.127384
H181	H	0.487905	-0.688970	0.000073
H182	H	0.446789	-0.391168	0.000060
H183	H	0.630614	0.001719	0.228937
H184	H	0.510444	0.121852	0.134212
H185	H	0.663737	-0.031388	0.374418
H186	H	0.630647	0.001699	0.771280
H187	H	0.630647	0.001697	0.866020
H188	H	0.477343	0.154922	0.531076
