data_functionalizedCrystal
_audit_creation_method	'MofGen! by Chris Wilmer'
_symmetry_space_group_name_H-M	'P1'
_symmetry_Int_Tables_number	1
_symmetry_cell_setting	triclinic
loop_
_symmetry_equiv_pos_as_xyz
  x,y,z
_cell_length_a	19.377372
_cell_length_b	12.970454
_cell_length_c	19.377476
_cell_angle_alpha	111.038879
_cell_angle_beta	75.981423
_cell_angle_gamma	72.113047
loop_
_atom_site_label
_atom_site_type_symbol
_atom_site_fract_x
_atom_site_fract_y
_atom_site_fract_z
Zr1	Zr	0.538614	1.413300	0.191988
O2	O	0.422169	1.566824	0.284518
O3	O	0.574311	1.217082	0.163621
O4	O	0.543067	1.415655	0.306614
O5	O	0.478058	1.381281	0.028731
O6	O	0.638434	1.466078	0.324045
O7	O	0.453413	1.368252	0.141525
O8	O	0.694322	1.110867	0.068257
O9	O	0.422169	1.736492	0.284518
O10	O	0.660705	1.351231	0.164532
O11	O	0.607927	1.323326	0.067347
O12	O	0.571142	1.557119	0.235702
O13	O	0.518364	1.529214	0.138517
Zr14	Zr	0.730018	1.514499	0.039893
Zr15	Zr	0.690712	1.493718	0.219787
Zr16	Zr	0.577920	1.434081	0.012093
Zr17	Zr	0.538614	1.683900	0.191988
Zr18	Zr	0.730018	1.243899	0.039892
O19	O	0.694322	1.710716	0.068259
O20	O	0.638434	1.681168	0.324045
O21	O	0.478057	1.596372	0.028732
O22	O	0.846463	1.360974	-0.052637
O23	O	0.790575	1.331426	0.203149
O24	O	0.630199	1.246630	-0.092165
O25	O	0.790575	1.546517	0.203150
O26	O	0.725565	1.512143	-0.074734
O27	O	0.630198	1.461721	-0.092164
O28	O	0.815220	1.559547	0.090355
O29	O	0.543067	1.800413	0.306615
O30	O	0.725565	1.127385	-0.074735
O31	O	0.846463	1.191307	-0.052638
O32	O	0.815220	1.174789	0.090354
O33	O	0.453412	1.753010	0.141527
O34	O	0.574310	1.816931	0.163624
O35	O	0.697490	1.370679	-0.003822
O36	O	0.750269	1.398585	0.093363
O37	O	0.660705	1.604473	0.164533
O38	O	0.607927	1.576567	0.067348
C39	C	0.634316	1.125420	0.115939
C40	C	0.634316	1.010543	0.115939
C41	C	0.444064	1.363309	0.081167
C42	C	0.379495	1.329169	0.069366
C43	C	-0.066618	1.754232	0.216303
C44	C	-0.127279	1.722124	0.205202
C45	C	-0.033772	1.507193	0.130907
C46	C	0.026899	1.539283	0.141997
C47	C	0.010469	1.662804	0.184697
C48	C	0.103985	1.447855	0.110391
C49	C	0.164650	1.479943	0.121484
C50	C	0.148227	1.603458	0.164184
C51	C	0.071133	1.694892	0.195790
C52	C	0.120413	1.324334	0.067697
C53	C	0.197499	1.232907	0.036090
C54	C	0.258166	1.264994	0.047179
C55	C	0.241744	1.388509	0.089878
C56	C	0.335260	1.173560	0.015573
C57	C	0.395925	1.205648	0.026666
C58	C	0.302408	1.420597	0.100972
C59	C	0.824568	1.564490	0.150713
C60	C	0.889138	1.598630	0.162515
C61	C	0.585150	1.437905	0.340960
C62	C	0.568464	1.429083	0.417330
C63	C	0.634316	1.802378	0.115941
C64	C	0.634316	1.917255	0.115942
C65	C	0.776256	1.538940	0.716529
C66	C	0.760557	1.530642	0.788287
C67	C	0.655488	1.475089	0.769065
C68	C	0.671174	1.483388	0.697305
C69	C	0.731560	1.515312	0.671043
C70	C	0.626479	1.459760	0.651820
C71	C	0.642168	1.468052	0.580064
C72	C	0.702552	1.499971	0.553795
C73	C	0.747249	1.523604	0.599288
C74	C	0.566097	1.427828	0.678081
C75	C	0.521402	1.404200	0.632595
C76	C	0.537087	1.412500	0.560841
C77	C	0.597471	1.444419	0.534571
C78	C	0.492390	1.388868	0.515348
C79	C	0.508078	1.397159	0.443593
C80	C	0.613159	1.452711	0.462816
C81	C	0.683486	1.489894	0.890921
C82	C	0.700187	1.498721	0.814552
C83	C	0.824568	1.226011	0.150712
C84	C	0.889138	1.145274	0.162513
C85	C	0.683482	1.151414	-0.109081
C86	C	0.700169	1.045359	-0.185451
C87	C	0.873734	1.252005	-0.074308
C88	C	0.954990	1.180090	-0.138877
C89	C	0.394898	1.675794	0.306189
C90	C	0.313642	1.747709	0.370757
C91	C	0.444064	1.701788	0.081168
C92	C	0.379494	1.782525	0.069367
C93	C	0.585150	1.776385	0.340962
C94	C	0.568464	1.882439	0.417332
C95	C	0.872708	1.082640	0.205212
C96	C	0.933368	1.006788	0.216317
C97	C	1.010460	0.993566	0.184716
C98	C	1.026889	1.056210	0.142016
C99	C	0.966227	1.132067	0.130917
C100	C	0.754757	1.020274	-0.258473
C101	C	0.770435	0.920639	-0.330238
C102	C	0.731527	0.846085	-0.328979
C103	C	0.676932	0.871178	-0.255950
C104	C	0.661251	0.970817	-0.184188
C105	C	1.020705	1.160887	-0.118468
C106	C	1.097058	1.093333	-0.179129
C107	C	1.107695	1.044974	-0.260198
C108	C	1.041972	1.064183	-0.280607
C109	C	0.965621	1.131744	-0.219946
C110	C	0.247927	1.766924	0.350348
C111	C	0.171574	1.834512	0.411009
C112	C	0.160938	1.882877	0.492079
C113	C	0.226660	1.863661	0.512487
C114	C	0.303012	1.796081	0.451827
C115	C	0.395923	1.845169	0.026676
C116	C	0.335258	1.921048	0.015591
C117	C	0.258166	1.934274	0.047194
C118	C	0.241738	1.871625	0.089891
C119	C	0.302401	1.795755	0.100980
C120	C	0.607385	1.956965	0.416048
C121	C	0.591721	2.056609	0.487801
C122	C	0.537133	2.081729	0.560837
C123	C	0.498211	2.007192	0.562119
C124	C	0.513878	1.907545	0.490368
H125	H	0.289033	1.521183	0.135717
C126	C	1.214855	1.122469	-0.188433
C127	C	1.169285	1.072248	-0.156674
H128	H	1.259438	1.109466	-0.174561
H129	H	1.232130	1.083993	-0.245390
H130	H	1.183903	1.208015	-0.166874
H131	H	1.200236	0.986699	-0.178237
H132	H	1.152012	1.110720	-0.099705
H133	H	0.979617	1.183056	0.096143
H134	H	0.524382	2.162872	0.619256
H135	H	-0.190049	1.796585	0.230945
C136	C	0.783172	1.542597	0.906817
C137	C	0.809690	1.556619	0.838289
H138	H	0.813509	1.558625	0.937681
H139	H	0.729113	1.598580	0.938389
H140	H	0.788923	1.461068	0.890853
H141	H	0.803934	1.638151	0.854253
H142	H	0.863763	1.500634	0.806711
C143	C	0.482277	0.989960	-0.047911
C144	C	0.480665	1.105153	-0.008083
H145	H	0.534594	0.927921	-0.069367
H146	H	0.447992	0.977313	-0.010944
H147	H	0.465349	0.986521	-0.090443
H148	H	0.497588	1.108595	0.034453
H149	H	0.514962	1.117804	-0.045053
H150	H	0.471683	1.377917	0.406556
H151	H	0.662326	1.478719	0.441437
C152	C	0.419115	1.350112	0.606381
C153	C	0.455031	1.369102	0.661463
H154	H	0.378144	1.328435	0.624201
H155	H	0.397510	1.423254	0.602565
H156	H	0.457334	1.285749	0.555024
H157	H	0.416813	1.433470	0.712819
H158	H	0.476636	1.295950	0.665289
H159	H	0.356516	1.780437	0.468454
C160	C	0.652336	1.598101	0.480815
C161	C	0.719799	1.509101	0.474925
H162	H	0.662987	1.603744	0.432127
H163	H	0.609987	1.575697	0.489936
H164	H	0.638289	1.675228	0.524372
H165	H	0.733843	1.431972	0.431371
H166	H	0.762161	1.531499	0.465795
C167	C	0.849544	1.577696	0.625493
C168	C	0.813624	1.558700	0.570414
H169	H	0.890522	1.599354	0.607662
H170	H	0.811334	1.642058	0.676842
H171	H	0.871148	1.504548	0.629315
H172	H	0.792015	1.631852	0.566596
H173	H	0.851841	1.494333	0.519051
H174	H	0.348649	1.972047	-0.019179
H175	H	0.458691	1.834409	0.000933
C176	C	0.787130	0.982480	0.206541
C177	C	0.787972	1.097164	0.239957
H178	H	0.734818	0.991448	0.228000
H179	H	0.805075	0.949870	0.149713
H180	H	0.820917	0.928351	0.219262
H181	H	0.754189	1.151291	0.227231
H182	H	0.770016	1.129791	0.296798
C183	C	0.672937	1.826167	0.273053
C184	C	0.667394	1.929365	0.335772
H185	H	0.709985	1.809138	0.223497
H186	H	0.689903	1.757662	0.282701
H187	H	0.622682	1.841726	0.270418
H188	H	0.717648	1.913803	0.338411
H189	H	0.650432	1.997886	0.326122
H190	H	0.919977	0.955789	0.251086
H191	H	0.208777	1.996056	0.038159
H192	H	0.912117	1.147365	-0.236575
H193	H	0.256573	1.727544	0.284341
C194	C	0.792783	0.899264	-0.463088
C195	C	0.830451	0.893071	-0.410502
H196	H	0.829834	0.882254	-0.512635
H197	H	0.771862	0.840606	-0.472617
H198	H	0.751113	0.979143	-0.439679
H199	H	0.872118	0.813189	-0.433909
H200	H	0.851385	0.951732	-0.400975
H201	H	1.050645	1.024800	-0.346621
C202	C	-0.085242	1.362562	0.080904
C203	C	-0.015717	1.371423	0.083969
H204	H	-0.074091	1.278742	0.051920
H205	H	-0.123071	1.396856	0.134100
H206	H	-0.105707	1.406066	0.054601
H207	H	0.004745	1.327926	0.110277
H208	H	0.022125	1.337113	0.030763
H209	H	0.453763	2.027661	0.621595
H210	H	1.169869	0.989964	-0.309584
C211	C	0.419857	1.868753	0.571046
C212	C	0.471081	1.825643	0.491786
H213	H	0.393430	1.818195	0.571923
H214	H	0.449302	1.866607	0.603622
H215	H	0.382089	1.950689	0.591341
H216	H	0.508852	1.743709	0.471493
H217	H	0.441633	1.827776	0.459198
C218	C	0.132082	1.846890	0.061893
C219	C	0.156997	1.886159	0.124618
H220	H	0.079767	1.855854	0.083328
H221	H	0.133191	1.895059	0.034888
H222	H	0.166384	1.763116	0.024929
H223	H	0.122697	1.969937	0.161578
H224	H	0.155881	1.837991	0.151635
C225	C	0.848733	1.059160	-0.339130
C226	C	0.797520	1.102228	-0.259873
H227	H	0.875125	1.109764	-0.339999
H228	H	0.886521	0.977249	-0.359432
H229	H	0.819279	1.061281	-0.371708
H230	H	0.826975	1.100099	-0.227296
H231	H	0.759726	1.184160	-0.239561
H232	H	0.197625	1.629581	0.173217
C233	C	0.353857	1.657484	0.150961
C234	C	0.284338	1.726881	0.147897
H235	H	0.342699	1.614971	0.179931
H236	H	0.391690	1.600012	0.097765
H237	H	0.374321	1.710410	0.177280
H238	H	0.263878	1.673953	0.121573
H239	H	0.246492	1.784358	0.201103
C240	C	0.146029	1.088276	-0.013912
C241	C	0.215554	1.097136	-0.010847
H242	H	0.157181	1.004455	-0.042896
H243	H	0.108200	1.122570	0.039284
H244	H	0.125564	1.131780	-0.040215
H245	H	0.236016	1.053640	0.015461
H246	H	0.253397	1.062826	-0.064053
C247	C	0.659497	0.696437	-0.332984
C248	C	0.634186	0.789197	-0.254572
H249	H	0.633117	0.645813	-0.332131
H250	H	0.647646	0.732297	-0.366136
H251	H	0.714893	0.648278	-0.353857
H252	H	0.578791	0.837362	-0.233701
H253	H	0.646031	0.753335	-0.221408
C254	C	0.250164	1.997260	0.617729
C255	C	0.215019	1.916648	0.601585
H256	H	0.242988	2.029921	0.672732
H257	H	0.305025	1.954290	0.584489
H258	H	0.226303	2.062253	0.606926
H259	H	0.238884	1.851650	0.612383
H260	H	0.160148	1.959619	0.634836
H261	H	0.118070	1.850143	0.394377
H262	H	0.744303	0.764957	-0.387419
H263	H	0.616802	0.991226	-0.124733
H264	H	0.098763	1.937902	0.541464
C265	C	0.685709	2.095453	0.407114
C266	C	0.634500	2.138540	0.486377
H267	H	0.712113	2.146039	0.406234
H268	H	0.723488	2.013536	0.386814
H269	H	0.656249	2.097582	0.374541
H270	H	0.663961	2.136401	0.518948
H271	H	0.596716	2.220478	0.506687
H272	H	0.057758	1.795478	0.230536
H273	H	1.012059	1.200253	-0.052461
H274	H	-0.079993	1.854818	0.251048
C275	C	0.584776	1.437720	0.870528
C276	C	0.589110	1.440007	0.797940
H277	H	0.543792	1.416071	0.888355
H278	H	0.633693	1.379015	0.862466
H279	H	0.573890	1.516531	0.909997
H280	H	0.600002	1.361193	0.758470
H281	H	0.540181	1.498714	0.805999
H282	H	0.071012	1.298213	0.058672
H283	H	0.825422	1.564948	0.695150
H284	H	0.348625	1.072989	-0.019186
H285	H	0.443229	1.362863	0.536737
H286	H	0.553329	1.421072	0.736507
H287	H	1.059847	0.931794	0.193759
H288	H	1.089664	1.045433	0.116290
