data_functionalizedCrystal
_audit_creation_method	'MofGen! by Chris Wilmer'
_symmetry_space_group_name_H-M	'P1'
_symmetry_Int_Tables_number	1
_symmetry_cell_setting	triclinic
loop_
_symmetry_equiv_pos_as_xyz
  x,y,z
_cell_length_a	10.686220
_cell_length_b	14.908520
_cell_length_c	10.686551
_cell_angle_alpha	90.862058
_cell_angle_beta	89.692081
_cell_angle_gamma	97.432636
loop_
_atom_site_label
_atom_site_type_symbol
_atom_site_fract_x
_atom_site_fract_y
_atom_site_fract_z
Zn1	Zn	1.955965	-0.219792	0.581359
Zn2	Zn	2.455965	0.280208	1.081359
Zn3	Zn	1.927617	-0.382972	0.385681
Zn4	Zn	2.427617	0.117028	0.885681
Zn5	Zn	1.728371	-0.242855	0.389666
Zn6	Zn	2.228371	0.257145	0.889666
Zn7	Zn	1.734183	-0.381145	0.611301
Zn8	Zn	2.234183	0.118855	1.111301
O9	O	1.836534	-0.306691	0.492002
O10	O	2.336534	0.193309	0.992002
O11	O	2.128406	-0.232550	0.541203
O12	O	2.628406	0.267450	1.041203
O13	O	1.886890	-0.374801	0.211563
O14	O	2.386890	0.125199	0.711563
O15	O	1.767993	-0.113630	0.404231
O16	O	2.267993	0.386370	0.904231
O17	O	2.107579	-0.352438	0.397440
O18	O	2.607579	0.147562	0.897440
O19	O	1.935205	-0.096685	0.545067
O20	O	2.435205	0.403315	1.045067
O21	O	1.740505	-0.271858	0.214490
O22	O	2.240505	0.228142	0.714490
O23	O	1.552940	-0.270087	0.433264
O24	O	2.052940	0.229913	0.933264
O25	O	1.777899	-0.349325	0.781975
O26	O	2.277899	0.150675	1.281975
O27	O	1.557210	-0.371688	0.596099
O28	O	2.057210	0.128312	1.096099
O29	O	1.940841	-0.230779	0.759977
O30	O	2.440841	0.269221	1.259977
O31	O	1.892526	-0.508895	0.426474
O32	O	2.392526	-0.008895	0.926474
O33	O	1.750411	-0.507553	0.592235
O34	O	2.250411	-0.007553	1.092235
C35	C	1.509387	-0.323193	0.518364
C36	C	2.009387	0.176807	1.018364
C37	C	1.369434	-0.330272	0.529673
C38	C	1.869434	0.169728	1.029673
C39	C	1.819059	-0.540934	0.512196
C40	C	2.319059	-0.040934	1.012196
C41	C	1.811702	-0.641136	0.520867
C42	C	2.311702	-0.141136	1.020867
C43	C	1.946039	-0.830747	0.364670
C44	C	2.446039	-0.330747	0.864670
C45	C	1.939130	-0.924896	0.372813
C46	C	2.439130	-0.424896	0.872813
C47	C	1.790984	-0.923584	0.545302
C48	C	2.290984	-0.423584	1.045302
C49	C	1.797893	-0.829435	0.537158
C50	C	2.297893	-0.329435	1.037158
C51	C	1.875421	-0.783020	0.446838
C52	C	2.375421	-0.283020	0.946838
C53	C	1.882322	-0.688870	0.438690
C54	C	2.382322	-0.188870	0.938690
C55	C	1.734184	-0.687559	0.611184
C56	C	2.234184	-0.187559	1.111184
C57	C	1.727275	-0.781708	0.619327
C58	C	2.227275	-0.281708	1.119327
C59	C	2.164958	-0.290125	0.465537
C60	C	2.664958	0.209875	0.965537
C61	C	2.304912	-0.283066	0.454260
C62	C	2.804912	0.216934	0.954260
C63	C	1.863180	-0.287276	0.817526
C64	C	2.363180	0.212724	1.317526
C65	C	1.874536	-0.279002	0.956246
C66	C	2.374536	0.220998	1.456246
C67	C	1.854113	-0.071529	0.471753
C68	C	2.354113	0.428471	0.971753
C69	C	1.861604	0.028682	0.463125
C70	C	2.361604	0.528682	0.963125
C71	C	1.810068	-0.325962	0.167732
C72	C	2.310068	0.174038	0.667732
C73	C	1.798976	-0.333969	0.028971
C74	C	2.298976	0.166031	0.528971
H75	H	1.945446	-0.651080	0.365144
H76	H	2.445446	-0.151080	0.865144
H77	H	1.317604	-0.376105	0.602888
H78	H	1.817604	0.123895	1.102888
Br79	Br	1.996859	-0.190016	1.029348
Br80	Br	2.496859	0.309984	1.529348
Br81	Br	1.622072	-0.844707	0.741905
Br82	Br	2.122072	-0.344707	1.241905
H83	H	2.009156	-0.792956	0.291119
H84	H	2.509156	-0.292956	0.791119
Br85	Br	1.391295	-0.206681	0.332203
Br86	Br	1.891295	0.293319	0.832203
H87	H	1.996637	-0.963751	0.305905
H88	H	2.496637	-0.463751	0.805905
H89	H	1.725602	-0.387361	0.985110
H90	H	2.225602	0.112639	1.485110
H91	H	1.676678	-0.648690	0.678088
H92	H	2.176678	-0.148690	1.178088
Br93	Br	1.685799	-0.986588	0.667888
Br94	Br	2.185799	-0.486588	1.167888
