data_functionalizedCrystal
_audit_creation_method	'MofGen! by Chris Wilmer'
_symmetry_space_group_name_H-M	'P1'
_symmetry_Int_Tables_number	1
_symmetry_cell_setting	triclinic
loop_
_symmetry_equiv_pos_as_xyz
  x,y,z
_cell_length_a	10.723024
_cell_length_b	10.723024
_cell_length_c	9.198806
_cell_angle_alpha	89.998891
_cell_angle_beta	89.997255
_cell_angle_gamma	84.467869
loop_
_atom_site_label
_atom_site_type_symbol
_atom_site_fract_x
_atom_site_fract_y
_atom_site_fract_z
O1	O	1.657188	0.175024	-0.120845
O2	O	1.294035	0.191778	-0.120856
O3	O	1.483988	0.001825	-0.120849
O4	O	1.467235	0.364977	-0.120853
O5	O	1.483973	0.001824	0.120937
O6	O	1.294020	0.191777	0.120929
O7	O	1.657173	0.175024	0.120940
Cu8	Cu	1.475595	0.183401	0.143011
Cu9	Cu	1.475613	0.183401	-0.142928
O10	O	1.467220	0.364977	0.120932
C11	C	1.482762	-0.044675	0.000041
C12	C	1.479114	-0.183229	0.000034
C13	C	1.703680	0.176243	0.000045
C14	C	1.842234	0.179891	0.000040
C15	C	1.468447	0.411477	0.000039
C16	C	1.472094	0.550031	0.000037
C17	C	1.247528	0.190558	0.000035
C18	C	1.108974	0.186911	0.000030
C19	C	1.917217	0.073603	0.000040
C20	C	2.060420	0.077371	0.000034
N21	N	1.475592	0.183399	0.344125
C22	C	1.365807	0.625014	0.000033
C23	C	1.369574	0.768217	0.000031
N24	N	1.475626	0.183393	-0.344042
C25	C	1.555347	0.103292	0.416325
C26	C	1.555367	0.103288	0.583738
H27	H	1.875395	-0.020182	0.000065
C28	C	1.239101	0.568520	0.000042
N29	N	1.143663	0.525972	0.000056
C30	C	2.021939	0.309845	0.000032
N31	N	1.956375	0.402439	0.000037
H32	H	1.278584	0.832650	0.000037
C33	C	1.602048	0.729736	0.000039
N34	N	1.694642	0.664172	0.000042
C35	C	1.647556	0.010619	0.332402
N36	N	1.717004	-0.059191	0.269192
C37	C	1.647615	0.010631	0.667615
N38	N	1.717098	-0.059163	0.730795
C39	C	1.383373	0.276052	0.572091
N40	N	1.313886	0.345842	0.508911
H41	H	1.407319	0.251975	0.406250
H42	H	2.124853	-0.013619	0.000025
H43	H	1.884056	0.273677	0.000045
H44	H	1.565880	0.591853	-0.000013
