data_functionalizedCrystal
_audit_creation_method	'MofGen! by Chris Wilmer'
_symmetry_space_group_name_H-M	'P1'
_symmetry_Int_Tables_number	1
_symmetry_cell_setting	triclinic
loop_
_symmetry_equiv_pos_as_xyz
  x,y,z
_cell_length_a	18.215407
_cell_length_b	16.625546
_cell_length_c	18.215398
_cell_angle_alpha	89.973350
_cell_angle_beta	89.980536
_cell_angle_gamma	90.022916
loop_
_atom_site_label
_atom_site_type_symbol
_atom_site_fract_x
_atom_site_fract_y
_atom_site_fract_z
Zn1	Zn	1.125082	-0.321020	-0.416110
Zn2	Zn	1.375082	-0.071020	-0.166110
Zn3	Zn	1.625082	0.178980	0.083890
Zn4	Zn	1.875082	0.428980	0.333890
Zn5	Zn	1.124996	-0.455855	-0.293041
Zn6	Zn	1.374996	-0.205855	-0.043041
Zn7	Zn	1.624996	0.044145	0.206959
Zn8	Zn	1.874996	0.294145	0.456959
Zn9	Zn	1.002015	-0.321041	-0.293057
Zn10	Zn	1.252015	-0.071041	-0.043057
Zn11	Zn	1.502015	0.178959	0.206943
Zn12	Zn	1.752015	0.428959	0.456943
Zn13	Zn	1.001985	-0.455816	-0.416066
Zn14	Zn	1.251985	-0.205816	-0.166066
Zn15	Zn	1.501985	0.044184	0.083934
Zn16	Zn	1.751985	0.294184	0.333934
O17	O	1.063519	-0.388433	-0.354568
O18	O	1.313519	-0.138433	-0.104568
O19	O	1.563519	0.111567	0.145432
O20	O	1.813519	0.361567	0.395432
O21	O	1.228055	-0.338914	-0.399796
O22	O	1.478055	-0.088914	-0.149796
O23	O	1.728055	0.161086	0.100204
O24	O	1.978055	0.411086	0.350204
O25	O	1.108659	-0.437996	-0.190059
O26	O	1.358659	-0.187996	0.059941
O27	O	1.608659	0.062004	0.309941
O28	O	1.858659	0.312004	0.559941
O29	O	1.018388	-0.208206	-0.309405
O30	O	1.268388	0.041794	-0.059405
O31	O	1.518388	0.291794	0.190595
O32	O	1.768388	0.541794	0.440595
O33	O	1.227992	-0.437976	-0.309378
O34	O	1.477992	-0.187976	-0.059378
O35	O	1.727992	0.062024	0.190622
O36	O	1.977992	0.312024	0.440622
O37	O	1.108805	-0.208191	-0.399812
O38	O	1.358805	0.041809	-0.149812
O39	O	1.608805	0.291809	0.100188
O40	O	1.858805	0.541809	0.350188
O41	O	1.018305	-0.338949	-0.190070
O42	O	1.268305	-0.088949	0.059930
O43	O	1.518305	0.161051	0.309930
O44	O	1.768305	0.411051	0.559930
O45	O	0.899027	-0.338911	-0.309363
O46	O	1.149027	-0.088911	-0.059363
O47	O	1.399027	0.161089	0.190637
O48	O	1.649027	0.411089	0.440637
O49	O	1.018338	-0.437910	-0.519056
O50	O	1.268338	-0.187910	-0.269056
O51	O	1.518338	0.062090	-0.019056
O52	O	1.768338	0.312090	0.230944
O53	O	0.899005	-0.437930	-0.399737
O54	O	1.149005	-0.187930	-0.149737
O55	O	1.399005	0.062070	0.100263
O56	O	1.649005	0.312070	0.350263
O57	O	1.108776	-0.338876	-0.519088
O58	O	1.358776	-0.088876	-0.269088
O59	O	1.608776	0.161124	-0.019088
O60	O	1.858776	0.411124	0.230912
O61	O	1.108630	-0.568682	-0.309335
O62	O	1.358630	-0.318682	-0.059335
O63	O	1.608630	-0.068682	0.190665
O64	O	1.858630	0.181318	0.440665
O65	O	1.018255	-0.568653	-0.399721
O66	O	1.268255	-0.318653	-0.149721
O67	O	1.518255	-0.068653	0.100279
O68	O	1.768255	0.181347	0.350279
C69	C	0.872313	-0.388419	-0.354547
C70	C	1.122313	-0.138419	-0.104547
C71	C	1.372313	0.111581	0.145453
C72	C	1.622313	0.361581	0.395453
C73	C	0.790514	-0.388433	-0.354556
C74	C	1.040514	-0.138433	-0.104556
C75	C	1.290514	0.111567	0.145444
C76	C	1.540514	0.361567	0.395444
C77	C	0.602328	-0.440073	-0.401554
C78	C	0.852328	-0.190073	-0.151554
C79	C	1.102328	0.059927	0.098446
C80	C	1.352328	0.309927	0.348446
C81	C	0.525470	-0.440075	-0.401563
C82	C	0.775470	-0.190075	-0.151563
C83	C	1.025470	0.059925	0.098437
C84	C	1.275470	0.309925	0.348437
C85	C	0.525463	-0.336808	-0.307598
C86	C	0.775463	-0.086808	-0.057598
C87	C	1.025463	0.163192	0.192402
C88	C	1.275463	0.413192	0.442402
C89	C	0.602320	-0.336802	-0.307593
C90	C	0.852320	-0.086802	-0.057593
C91	C	1.102320	0.163198	0.192407
C92	C	1.352320	0.413198	0.442407
C93	C	0.640751	-0.388439	-0.354570
C94	C	0.890751	-0.138439	-0.104570
C95	C	1.140751	0.111561	0.145430
C96	C	1.390751	0.361561	0.395430
C97	C	0.487035	-0.388447	-0.354584
C98	C	0.737035	-0.138447	-0.104584
C99	C	0.987035	0.111553	0.145416
C100	C	1.237035	0.361553	0.395416
C101	C	0.403701	-0.388450	-0.354594
C102	C	0.653701	-0.138450	-0.104594
C103	C	0.903701	0.111550	0.145406
C104	C	1.153701	0.361550	0.395406
C105	C	0.724090	-0.388436	-0.354562
C106	C	0.974090	-0.138436	-0.104562
C107	C	1.224090	0.111564	0.145438
C108	C	1.474090	0.361564	0.395438
C109	C	1.063450	-0.597924	-0.354537
C110	C	1.313450	-0.347924	-0.104537
C111	C	1.563450	-0.097924	0.145463
C112	C	1.813450	0.152076	0.395463
C113	C	1.063487	-0.687545	-0.354549
C114	C	1.313487	-0.437545	-0.104549
C115	C	1.563487	-0.187545	0.145451
C116	C	1.813487	0.062455	0.395451
C117	C	1.063616	-1.015720	-0.354625
C118	C	1.313616	-0.765720	-0.104625
C119	C	1.563616	-0.515720	0.145375
C120	C	1.813616	-0.265720	0.395375
C121	C	1.063578	-0.924412	-0.354606
C122	C	1.313578	-0.674412	-0.104606
C123	C	1.563578	-0.424412	0.145394
C124	C	1.813578	-0.174412	0.395394
C125	C	1.063551	-0.851636	-0.354587
C126	C	1.313551	-0.601636	-0.104587
C127	C	1.563551	-0.351636	0.145413
C128	C	1.813551	-0.101636	0.395413
C129	C	1.063514	-0.760321	-0.354568
C130	C	1.313514	-0.510321	-0.104568
C131	C	1.563514	-0.260321	0.145432
C132	C	1.813514	-0.010321	0.395432
C133	C	1.255472	-0.388447	-0.354590
C134	C	1.505472	-0.138447	-0.104590
C135	C	1.755472	0.111553	0.145410
C136	C	2.005472	0.361553	0.395410
C137	C	1.337271	-0.388453	-0.354599
C138	C	1.587271	-0.138453	-0.104599
C139	C	1.837271	0.111547	0.145401
C140	C	2.087271	0.361547	0.395401
C141	C	1.063563	-0.388387	-0.546521
C142	C	1.313563	-0.138387	-0.296521
C143	C	1.563563	0.111613	-0.046521
C144	C	1.813563	0.361613	0.203479
C145	C	1.063582	-0.388367	-0.628320
C146	C	1.313582	-0.138367	-0.378320
C147	C	1.563582	0.111633	-0.128320
C148	C	1.813582	0.361633	0.121680
C149	C	1.063609	-0.178124	-0.354615
C150	C	1.313609	0.071876	-0.104615
C151	C	1.563609	0.321876	0.145385
C152	C	1.813609	0.571876	0.395385
C153	C	1.063648	-0.088503	-0.354635
C154	C	1.313648	0.161497	-0.104635
C155	C	1.563648	0.411497	0.145365
C156	C	1.813648	0.661497	0.395365
C157	C	1.110662	-0.439841	-0.893376
C158	C	1.360662	-0.189841	-0.643376
C159	C	1.610662	0.060159	-0.393376
C160	C	1.860662	0.310159	-0.143376
C161	C	1.110651	-0.439869	-0.816517
C162	C	1.360651	-0.189869	-0.566517
C163	C	1.610651	0.060131	-0.316517
C164	C	1.860651	0.310131	-0.066517
C165	C	1.016556	-0.336737	-0.816513
C166	C	1.266556	-0.086737	-0.566513
C167	C	1.516556	0.163263	-0.316513
C168	C	1.766556	0.413263	-0.066513
C169	C	1.016565	-0.336714	-0.893370
C170	C	1.266565	-0.086714	-0.643370
C171	C	1.516565	0.163286	-0.393370
C172	C	1.766565	0.413286	-0.143370
C173	C	1.063622	-0.388264	-0.931800
C174	C	1.313622	-0.138264	-0.681800
C175	C	1.563622	0.111736	-0.431800
C176	C	1.813622	0.361736	-0.181800
C177	C	1.063602	-0.388316	-0.778084
C178	C	1.313602	-0.138316	-0.528084
C179	C	1.563602	0.111684	-0.278084
C180	C	1.813602	0.361684	-0.028084
C181	C	1.063590	-0.388346	-0.694750
C182	C	1.313590	-0.138346	-0.444750
C183	C	1.563590	0.111654	-0.194750
C184	C	1.813590	0.361654	0.055250
C185	C	1.063633	-0.388236	-1.015139
C186	C	1.313633	-0.138236	-0.765139
C187	C	1.563633	0.111764	-0.515139
C188	C	1.813633	0.361764	-0.265139
C189	C	1.063518	-0.388421	-0.163362
C190	C	1.313518	-0.138421	0.086638
C191	C	1.563518	0.111579	0.336638
C192	C	1.813518	0.361579	0.586638
C193	C	1.063642	-0.388213	-0.081563
C194	C	1.313642	-0.138213	0.168437
C195	C	1.563642	0.111787	0.418437
C196	C	1.813642	0.361787	0.668437
H197	H	0.633616	-0.482117	-0.439808
H198	H	0.883616	-0.232117	-0.189808
H199	H	1.133616	0.017883	0.060192
H200	H	1.383616	0.267883	0.310192
H201	H	0.494189	-0.482119	-0.439823
H202	H	0.744189	-0.232119	-0.189823
H203	H	0.994189	0.017881	0.060177
H204	H	1.244189	0.267881	0.310177
H205	H	0.633605	-0.294750	-0.269333
H206	H	0.883605	-0.044750	-0.019333
H207	H	1.133605	0.205250	0.230667
H208	H	1.383605	0.455250	0.480667
H209	H	1.148956	-0.481868	-0.785236
H210	H	1.398956	-0.231868	-0.535236
H211	H	1.648956	0.018132	-0.285236
H212	H	1.898956	0.268132	-0.035236
C213	C	0.964805	-0.280028	-0.774238
C214	C	1.214805	-0.030028	-0.524238
C215	C	1.464805	0.219972	-0.274238
C216	C	1.714805	0.469972	-0.024238
H217	H	0.971543	-0.287421	-0.722961
H218	H	1.221543	-0.037421	-0.472961
H219	H	1.471543	0.212579	-0.222961
H220	H	1.721543	0.462579	0.027039
H221	H	0.915354	-0.291820	-0.786818
H222	H	1.165354	-0.041820	-0.536818
H223	H	1.415354	0.208180	-0.286818
H224	H	1.665354	0.458180	-0.036818
H225	H	0.975604	-0.225847	-0.786848
H226	H	1.225604	0.024153	-0.536848
H227	H	1.475604	0.274153	-0.286848
H228	H	1.725604	0.524153	-0.036848
C229	C	0.483187	-0.280021	-0.255920
C230	C	0.733187	-0.030021	-0.005920
C231	C	0.983187	0.219979	0.244080
C232	C	1.233187	0.469979	0.494080
H233	H	0.431910	-0.287425	-0.262645
H234	H	0.681910	-0.037425	-0.012645
H235	H	0.931910	0.212575	0.237355
H236	H	1.181910	0.462575	0.487355
H237	H	0.495800	-0.225858	-0.266772
H238	H	0.745800	0.024142	-0.016772
H239	H	0.995800	0.274142	0.233228
H240	H	1.245800	0.524142	0.483228
H241	H	0.495762	-0.291759	-0.206452
H242	H	0.745762	-0.041759	0.043548
H243	H	0.995762	0.208241	0.293548
H244	H	1.245762	0.458241	0.543548
C245	C	0.964819	-0.279975	-0.935640
C246	C	1.214819	-0.029975	-0.685640
C247	C	1.464819	0.220025	-0.435640
C248	C	1.714819	0.470025	-0.185640
H249	H	0.936800	-0.249268	-0.901746
H250	H	1.186800	0.000732	-0.651746
H251	H	1.436800	0.250732	-0.401746
H252	H	1.686800	0.500732	-0.151746
H253	H	0.932747	-0.310809	-0.965610
H254	H	1.182747	-0.060809	-0.715610
H255	H	1.432747	0.189191	-0.465610
H256	H	1.682747	0.439191	-0.215610
H257	H	0.992993	-0.244832	-0.965633
H258	H	1.242993	0.005168	-0.715633
H259	H	1.492993	0.255168	-0.465633
H260	H	1.742993	0.505168	-0.215633
C261	C	1.162419	-0.496548	-0.935646
C262	C	1.412419	-0.246548	-0.685646
C263	C	1.662419	0.003452	-0.435646
C264	C	1.912419	0.253452	-0.185646
H265	H	1.190428	-0.527274	-0.901752
H266	H	1.440428	-0.277274	-0.651752
H267	H	1.690428	-0.027274	-0.401752
H268	H	1.940428	0.222726	-0.151752
H269	H	1.194500	-0.465697	-0.965641
H270	H	1.444500	-0.215697	-0.715641
H271	H	1.694500	0.034303	-0.465641
H272	H	1.944500	0.284303	-0.215641
H273	H	1.134254	-0.531674	-0.965615
H274	H	1.384254	-0.281674	-0.715615
H275	H	1.634254	-0.031674	-0.465615
H276	H	1.884254	0.218326	-0.215615
