data_functionalizedCrystal
_audit_creation_method	'MofGen! by Chris Wilmer'
_symmetry_space_group_name_H-M	'P1'
_symmetry_Int_Tables_number	1
_symmetry_cell_setting	triclinic
loop_
_symmetry_equiv_pos_as_xyz
  x,y,z
_cell_length_a	13.635800
_cell_length_b	23.752963
_cell_length_c	12.908943
_cell_angle_alpha	83.485559
_cell_angle_beta	100.860631
_cell_angle_gamma	79.933268
loop_
_atom_site_label
_atom_site_type_symbol
_atom_site_fract_x
_atom_site_fract_y
_atom_site_fract_z
V1	V	1.989773	-0.078447	0.329295
O2	O	1.992633	0.004505	0.322390
O3	O	1.957370	-0.156253	0.327655
O4	O	1.959074	-0.076918	0.472633
O5	O	1.990918	-0.075381	0.176409
V6	V	2.233492	-0.068563	0.310934
O7	O	2.116108	-0.100128	0.369571
O8	O	2.332256	-0.046882	0.270658
O9	O	2.154292	0.009244	0.312574
O10	O	2.289331	-0.151514	0.317839
O11	O	2.291047	-0.071629	0.463820
O12	O	2.152588	-0.070092	0.167597
V13	V	2.489773	-0.078447	0.329295
O14	O	2.492633	0.004505	0.322390
O15	O	2.457370	-0.156253	0.327655
O16	O	2.459074	-0.076918	0.472633
O17	O	2.490918	-0.075381	0.176409
V18	V	2.733492	-0.068563	0.310934
O19	O	2.616108	-0.100128	0.369571
O20	O	2.832256	-0.046882	0.270658
O21	O	2.654292	0.009244	0.312574
O22	O	2.789331	-0.151514	0.317839
O23	O	2.791047	-0.071629	0.463820
O24	O	2.652588	-0.070092	0.167597
C25	C	1.878085	-0.175231	0.322618
C26	C	1.892192	-0.238837	0.322233
C27	C	1.964962	-0.625294	0.223129
C28	C	1.978229	-0.685058	0.222752
O29	O	1.972545	-0.709199	0.140407
N30	N	1.999650	-0.722908	0.319165
C31	C	2.007815	-0.700993	0.415963
O32	O	2.027255	-0.738676	0.497935
C33	C	1.994555	-0.641230	0.416339
C34	C	1.973123	-0.603382	0.319918
C35	C	1.943532	-0.587446	0.126716
C36	C	1.930264	-0.527687	0.127093
C37	C	1.938426	-0.505775	0.223883
C38	C	1.959855	-0.543622	0.320295
C39	C	2.002727	-0.619316	0.513135
C40	C	1.989466	-0.559549	0.513503
C41	C	1.968034	-0.521701	0.417083
C42	C	1.954749	-0.461951	0.417462
N43	N	1.933327	-0.424100	0.321048
C44	C	1.925166	-0.446012	0.224259
C45	C	2.035663	-0.826498	0.415166
C46	C	2.048915	-0.886259	0.414790
C47	C	2.019330	-0.870320	0.221579
C48	C	2.006070	-0.810557	0.221955
C49	C	2.014241	-0.788647	0.318752
C50	C	1.897302	-0.320513	0.225058
C51	C	1.884030	-0.260749	0.225443
C52	C	1.913622	-0.276694	0.418654
C53	C	1.926888	-0.336453	0.418269
C54	C	1.918730	-0.358360	0.321462
O55	O	1.960422	-0.437769	0.499765
O56	O	1.905740	-0.408324	0.142301
C57	C	1.880259	-0.074030	0.507550
C58	C	1.895746	-0.073294	0.624733
C59	C	2.065248	0.028219	0.317608
C60	C	2.040760	0.091824	0.318000
C61	C	2.063075	-0.072982	0.132673
C62	C	2.037207	-0.073714	0.015489
C63	C	2.378085	-0.175231	0.322618
C64	C	2.392192	-0.238837	0.322233
C65	C	2.380259	-0.074030	0.507550
C66	C	2.395746	-0.073294	0.624733
C67	C	2.105876	-0.077590	0.855713
C68	C	2.120432	-0.076899	0.965818
C69	C	1.939416	-0.071218	0.955047
C70	C	1.924860	-0.071909	0.844943
C71	C	2.008094	-0.075096	0.795280
C72	C	1.993537	-0.075791	0.685175
C73	C	1.812521	-0.070105	0.674405
C74	C	1.827078	-0.069414	0.784510
C75	C	2.565248	0.028219	0.317608
C76	C	2.540760	0.091824	0.318000
C77	C	2.563075	-0.072982	0.132673
C78	C	2.537207	-0.073714	0.015489
C79	C	2.489329	-0.271613	0.327342
C80	C	2.502601	-0.331379	0.326996
C81	C	2.418732	-0.358368	0.321533
C82	C	2.321587	-0.325588	0.316427
C83	C	2.308318	-0.265823	0.316781
C84	C	2.605876	-0.077590	0.855713
C85	C	2.620432	-0.076899	0.965818
C86	C	2.439416	-0.071218	0.955047
C87	C	2.424860	-0.071909	0.844943
C88	C	2.508094	-0.075096	0.795280
C89	C	2.493537	-0.075791	0.685175
C90	C	2.312521	-0.070105	0.674405
C91	C	2.327078	-0.069414	0.784510
C92	C	2.616116	0.124599	0.312894
C93	C	2.593117	0.184365	0.313246
C94	C	2.494762	0.211354	0.318710
C95	C	2.419400	0.178574	0.323813
C96	C	2.442398	0.118810	0.323454
H97	H	1.890657	-0.338343	0.146229
H98	H	2.700055	-0.078931	1.015019
N99	N	2.072030	-0.927081	0.518782
H100	H	2.016651	-0.950265	0.519348
H101	H	2.075209	-0.904088	0.580095
H102	H	2.339319	0.200557	0.328261
H103	H	2.429550	-0.407032	0.321246
N104	N	2.044467	-0.802868	0.519573
H105	H	2.060047	-0.835918	0.580586
H106	H	1.978059	-0.776450	0.520347
H107	H	1.866575	-0.229934	0.146922
H108	H	2.557630	-0.249647	0.331783
N109	N	2.583303	-0.079218	0.631607
H110	H	2.559248	-0.079277	0.552685
H111	H	2.634792	-0.115947	0.663720
N112	N	1.849641	-0.067759	1.008607
H113	H	1.816931	-0.102240	0.997618
H114	H	1.798219	-0.031001	0.976523
N115	N	1.907103	-0.486867	0.023094
H116	H	1.903934	-0.509824	-0.038271
H117	H	1.962480	-0.463680	0.022592
H118	H	2.253306	-0.347571	0.311980
H119	H	2.654493	0.211046	0.309091
H120	H	1.759314	-0.066818	0.824960
N121	N	2.010542	-0.893958	0.117180
H122	H	1.953844	-0.916432	0.109123
H123	H	2.076982	-0.920340	0.116393
N124	N	2.349650	-0.067772	1.008619
H125	H	2.373713	-0.067710	1.087538
H126	H	2.316994	-0.102263	0.997549
N127	N	1.707047	-0.067407	0.609219
H128	H	1.656533	-0.065283	0.657391
H129	H	1.706478	-0.103182	0.573821
H130	H	2.476049	0.260018	0.319001
H131	H	2.173650	-0.080191	0.815279
N132	N	2.607379	-0.366727	0.332501
H133	H	2.658488	-0.340557	0.336003
H134	H	2.606767	-0.386240	0.266889
N135	N	2.361116	0.083462	0.328966
H136	H	2.295325	0.109632	0.332484
H137	H	2.383547	0.053128	0.394746
H138	H	1.944323	-0.367270	0.496781
H139	H	2.229216	-0.239141	0.312615
H140	H	1.936886	-0.605279	0.047894
H141	H	2.673650	-0.080191	0.815279
H142	H	2.259314	-0.066818	0.824960
H143	H	2.200055	-0.078931	1.015019
H144	H	2.232898	-0.068076	0.625189
H145	H	1.988618	-0.779744	0.143441
N146	N	2.722323	0.095462	0.307476
H147	H	2.725513	0.052613	0.308186
H148	H	2.772597	0.101846	0.371104
N149	N	2.025847	-0.660130	0.617132
H150	H	1.968465	-0.651240	0.655844
H151	H	2.091580	-0.655157	0.662928
N152	N	1.998284	-0.535918	0.617908
H153	H	2.013873	-0.568966	0.678925
H154	H	1.931877	-0.509501	0.618687
H155	H	2.061312	-0.078388	0.644742
N156	N	1.922411	-0.253054	0.523044
H157	H	1.910755	-0.209451	0.508643
H158	H	1.992739	-0.268945	0.568759
