data_functionalizedCrystal
_audit_creation_method	'MofGen! by Chris Wilmer'
_symmetry_space_group_name_H-M	'P1'
_symmetry_Int_Tables_number	1
_symmetry_cell_setting	triclinic
loop_
_symmetry_equiv_pos_as_xyz
  x,y,z
_cell_length_a	10.723024
_cell_length_b	11.792240
_cell_length_c	9.798715
_cell_angle_alpha	89.987502
_cell_angle_beta	90.003391
_cell_angle_gamma	95.669357
loop_
_atom_site_label
_atom_site_type_symbol
_atom_site_fract_x
_atom_site_fract_y
_atom_site_fract_z
O1	O	1.656766	-0.159192	0.113514
O2	O	2.156766	0.340808	0.613514
O3	O	1.293573	-0.174430	0.113521
O4	O	1.793573	0.325570	0.613521
O5	O	1.483983	-0.001660	0.113476
O6	O	1.983983	0.498340	0.613476
O7	O	1.466356	-0.331962	0.113559
O8	O	1.966356	0.168038	0.613559
O9	O	1.483969	-0.001659	-0.113506
O10	O	1.983969	0.498341	0.386494
O11	O	1.293559	-0.174430	-0.113461
O12	O	1.793559	0.325570	0.386539
O13	O	1.656752	-0.159192	-0.113469
O14	O	2.156752	0.340808	0.386531
Zn15	Zn	1.475153	-0.166811	-0.149503
Zn16	Zn	1.975153	0.333189	0.350497
Zn17	Zn	1.475172	-0.166811	0.149556
Zn18	Zn	1.975172	0.333189	0.649556
O19	O	1.466342	-0.331962	-0.113423
O20	O	1.966342	0.168038	0.386577
C21	C	1.247070	-0.173321	0.000030
C22	C	1.747070	0.326679	0.500030
C23	C	1.108524	-0.170003	0.000031
C24	C	1.608524	0.329997	0.500031
C25	C	1.033286	-0.266676	0.000057
C26	C	1.533286	0.233324	0.500057
C27	C	0.890091	-0.263250	0.000058
C28	C	1.390091	0.236750	0.500058
C29	C	1.482869	0.040634	-0.000023
C30	C	1.982869	0.540634	0.499977
C31	C	1.479555	0.166655	-0.000046
C32	C	1.979555	0.666655	0.499954
C33	C	1.473461	0.397380	-0.000068
C34	C	1.973461	0.897380	0.499932
C35	C	1.476847	0.268988	-0.000055
C36	C	1.976847	0.768988	0.499945
C37	C	1.703256	-0.160301	0.000025
C38	C	2.203256	0.339699	0.500025
C39	C	1.841801	-0.163619	0.000033
C40	C	2.341801	0.336381	0.500033
C41	C	1.467456	0.625745	0.000030
C42	C	1.967456	1.125745	0.500030
C43	C	1.470770	0.499724	-0.000083
C44	C	1.970770	0.999724	0.499917
N45	N	1.475150	-0.166810	-0.353603
N46	N	1.975150	0.333190	0.146397
C47	C	1.555098	-0.093948	-0.421399
C48	C	2.055098	0.406052	0.078601
C49	C	1.555118	-0.093944	-0.578562
C50	C	2.055118	0.406056	-0.078562
N51	N	1.475186	-0.166803	0.353655
N52	N	1.975186	0.333197	0.853655
H53	H	0.906445	-0.080854	0.000020
H54	H	1.406445	0.419146	0.500020
F55	F	1.385719	-0.248349	-0.570152
F56	F	1.885719	0.251651	-0.070152
F57	F	1.644324	-0.012213	-0.345192
F58	F	2.144324	0.487787	0.154808
H59	H	1.623571	-0.031569	-0.636863
H60	H	2.123571	0.468431	-0.136863
F61	F	1.385694	-0.248337	-0.429810
F62	F	1.885694	0.251663	0.070190
H63	H	0.825440	-0.346009	0.000085
H64	H	1.325440	0.153991	0.500085
F65	F	1.054162	-0.058503	-0.000006
F66	F	1.554162	0.441497	0.499994
F67	F	1.087648	-0.378177	0.000080
F68	F	1.587648	0.121823	0.500080
