data_functionalizedCrystal
_audit_creation_method	'MofGen! by Chris Wilmer'
_symmetry_space_group_name_H-M	'P1'
_symmetry_Int_Tables_number	1
_symmetry_cell_setting	triclinic
loop_
_symmetry_equiv_pos_as_xyz
  x,y,z
_cell_length_a	17.638336
_cell_length_b	17.637651
_cell_length_c	19.077174
_cell_angle_alpha	81.471232
_cell_angle_beta	77.003791
_cell_angle_gamma	87.821411
loop_
_atom_site_label
_atom_site_type_symbol
_atom_site_fract_x
_atom_site_fract_y
_atom_site_fract_z
Zn1	Zn	1.117029	-0.563498	-0.497177
Zn2	Zn	1.617029	-0.063498	0.002823
Zn3	Zn	1.086283	-0.682955	-0.352431
Zn4	Zn	1.586283	-0.182955	0.147569
Zn5	Zn	0.985358	-0.530735	-0.361734
Zn6	Zn	1.485358	-0.030735	0.138266
Zn7	Zn	0.962782	-0.662368	-0.451601
Zn8	Zn	1.462782	-0.162368	0.048399
O9	O	1.037863	-0.609889	-0.415736
O10	O	1.537863	-0.109889	0.084264
O11	O	1.219741	-0.601672	-0.493157
O12	O	1.719741	-0.101672	0.006843
O13	O	1.069476	-0.657667	-0.255479
O14	O	1.569476	-0.157667	0.244521
O15	O	1.025140	-0.430000	-0.402668
O16	O	1.525140	0.070000	0.097332
O17	O	1.197152	-0.689436	-0.386813
O18	O	1.697152	-0.189436	0.113187
O19	O	1.121878	-0.454070	-0.502177
O20	O	1.621878	0.045930	-0.002177
O21	O	0.995326	-0.545832	-0.262313
O22	O	1.495326	-0.045832	0.237687
O23	O	0.875573	-0.525870	-0.358474
O24	O	1.375573	-0.025870	0.141526
O25	O	0.986662	-0.654348	-0.555833
O26	O	1.486662	-0.154348	-0.055833
O27	O	0.858986	-0.622579	-0.424499
O28	O	1.358986	-0.122579	0.075501
O29	O	1.099987	-0.581709	-0.589318
O30	O	1.599987	-0.081709	-0.089318
O31	O	1.047585	-0.785306	-0.342619
O32	O	1.547585	-0.285306	0.157381
O33	O	0.956849	-0.770180	-0.415479
O34	O	1.456849	-0.270180	0.084521
C35	C	0.839590	-0.568436	-0.387551
C36	C	1.339590	-0.068436	0.112449
C37	C	0.754764	-0.550721	-0.375506
C38	C	1.254764	-0.050721	0.124494
C39	C	0.643837	-0.475331	-0.324238
C40	C	1.143837	0.024669	0.175762
C41	C	0.723543	-0.491982	-0.335561
C42	C	1.223543	0.008018	0.164439
C43	C	0.706285	-0.592834	-0.404141
C44	C	1.206285	-0.092834	0.095859
C45	C	0.626576	-0.576193	-0.392821
C46	C	1.126576	-0.076193	0.107179
C47	C	0.595359	-0.517440	-0.352870
C48	C	1.095359	-0.017440	0.147130
C49	C	0.578098	-0.618303	-0.421453
C50	C	1.078098	-0.118303	0.078547
C51	C	0.498396	-0.601661	-0.410137
C52	C	0.998396	-0.101661	0.089863
C53	C	0.467173	-0.542909	-0.370190
C54	C	0.967173	-0.042909	0.129810
C55	C	0.515657	-0.500798	-0.341554
C56	C	1.015657	-0.000798	0.158446
C57	C	0.609318	-0.677052	-0.461409
C58	C	1.109318	-0.177052	0.038591
C59	C	0.560839	-0.719161	-0.490040
C60	C	1.060839	-0.219161	0.009960
C61	C	0.481135	-0.702523	-0.478720
C62	C	0.981135	-0.202523	0.021280
C63	C	0.449912	-0.643772	-0.438773
C64	C	0.949912	-0.143772	0.061227
C65	C	0.432651	-0.744634	-0.507356
C66	C	0.932651	-0.244634	-0.007356
C67	C	0.352950	-0.727992	-0.496040
C68	C	0.852950	-0.227992	0.003960
C69	C	0.370211	-0.627129	-0.427457
C70	C	0.870211	-0.127129	0.072543
C71	C	0.996452	-0.804995	-0.373112
C72	C	1.496452	-0.304995	0.126888
C73	C	0.978807	-0.888477	-0.354911
C74	C	1.478807	-0.388477	0.145089
C75	C	1.172415	-1.225379	-0.554299
C76	C	1.672415	-0.725379	-0.054299
C77	C	1.155810	-1.303819	-0.537181
C78	C	1.655810	-0.803819	-0.037181
C79	C	1.055138	-1.278870	-0.433484
C80	C	1.555138	-0.778870	0.066516
C81	C	1.071737	-1.200428	-0.450592
C82	C	1.571737	-0.700428	0.049408
C83	C	1.130376	-1.173689	-0.511001
C84	C	1.630376	-0.673689	-0.011001
C85	C	1.029698	-1.148737	-0.407293
C86	C	1.529698	-0.648737	0.092707
C87	C	1.046294	-1.070301	-0.424402
C88	C	1.546294	-0.570301	0.075598
C89	C	1.104928	-1.043556	-0.484809
C90	C	1.604928	-0.543556	0.015191
C91	C	1.146971	-1.095253	-0.528109
C92	C	1.646971	-0.595253	-0.028109
C93	C	0.971056	-1.175477	-0.346887
C94	C	1.471056	-0.675477	0.153113
C95	C	0.929017	-1.123786	-0.303588
C96	C	1.429017	-0.623786	0.196412
C97	C	0.945616	-1.045349	-0.320694
C98	C	1.445616	-0.545349	0.179306
C99	C	1.004250	-1.018604	-0.381101
C100	C	1.504250	-0.518604	0.118899
C101	C	0.903573	-0.993652	-0.277394
C102	C	1.403573	-0.493652	0.222606
C103	C	0.920168	-0.915216	-0.294502
C104	C	1.420168	-0.415216	0.205498
C105	C	1.020846	-0.940168	-0.398210
C106	C	1.520846	-0.440168	0.101790
C107	C	1.236910	-0.651505	-0.444031
C108	C	1.736910	-0.151505	0.055969
C109	C	1.321732	-0.669239	-0.456089
C110	C	1.821732	-0.169239	0.043911
C111	C	1.044236	-0.619387	-0.598746
C112	C	1.544236	-0.119387	-0.098746
C113	C	1.046952	-0.623434	-0.676734
C114	C	1.546952	-0.123434	-0.176734
C115	C	1.079457	-0.414027	-0.458544
C116	C	1.579457	0.085973	0.041456
C117	C	1.097182	-0.330562	-0.476786
C118	C	1.597182	0.169438	0.023214
C119	C	1.009624	-0.567110	-0.716931
C120	C	1.509624	-0.067110	-0.216931
C121	C	1.012172	-0.570919	-0.790207
C122	C	1.512172	-0.070919	-0.290207
C123	C	1.052052	-0.631049	-0.823287
C124	C	1.552052	-0.131049	-0.323287
C125	C	1.089381	-0.687378	-0.783084
C126	C	1.589381	-0.187378	-0.283084
C127	C	1.086828	-0.683572	-0.709807
C128	C	1.586828	-0.183572	-0.209807
C129	C	1.063822	-0.648678	-1.042056
C130	C	1.563822	-0.148678	-0.542056
C131	C	1.066374	-0.652479	-1.115338
C132	C	1.566374	-0.152479	-0.615338
C133	C	0.989164	-0.536020	-1.122456
C134	C	1.489164	-0.036020	-0.622456
C135	C	0.986619	-0.532217	-1.049180
C136	C	1.486619	-0.032217	-0.549180
C137	C	1.023944	-0.588548	-1.008982
C138	C	1.523944	-0.088548	-0.508982
N139	N	1.054660	-0.634942	-0.898187
N140	N	1.554660	-0.134942	-0.398187
N141	N	1.021331	-0.584658	-0.934082
N142	N	1.521331	-0.084658	-0.434082
C143	C	1.031570	-0.600383	-0.233456
C144	C	1.531570	-0.100383	0.266544
C145	C	1.029047	-0.596155	-0.155535
C146	C	1.529047	-0.096155	0.344465
H147	H	0.344792	-0.579287	-0.394925
H148	H	0.844792	-0.079287	0.105075
H149	H	0.954141	-0.483254	-1.022251
H150	H	1.454141	0.016746	-0.522251
H151	H	0.674217	-0.690595	-0.470626
H152	H	1.174217	-0.190595	0.029374
O153	O	1.201160	-1.359566	-0.583891
O154	O	1.701160	-0.859566	-0.083891
H155	H	1.160649	-1.390009	-0.606911
H156	H	1.660649	-0.890009	-0.106911
O157	O	1.104082	-0.709427	-0.998702
O158	O	1.604082	-0.209427	-0.498702
H159	H	1.148875	-0.682196	-0.978178
H160	H	1.648875	-0.182196	-0.478178
H161	H	1.220170	-1.203610	-0.603486
H162	H	1.720170	-0.703610	-0.103486
H163	H	0.313478	-0.762280	-0.519358
H164	H	0.813478	-0.262280	-0.019358
O165	O	0.594514	-0.782514	-0.533148
O166	O	1.094514	-0.282514	-0.033148
H167	H	0.658081	-0.787009	-0.536212
H168	H	1.158081	-0.287009	-0.036212
H169	H	0.958775	-0.490159	-1.155193
H170	H	1.458775	0.009841	-0.655193
O171	O	1.109389	-0.717340	-1.151015
O172	O	1.609389	-0.217340	-0.651015
H173	H	1.104900	-0.710515	-1.208724
H174	H	1.604900	-0.210515	-0.708724
O175	O	0.381206	-0.524968	-0.357983
O176	O	0.881206	-0.024968	0.142017
H177	H	0.372692	-0.464707	-0.381640
H178	H	0.872692	0.035293	0.118360
H179	H	0.855825	-1.015435	-0.228213
H180	H	1.355825	-0.515435	0.271787
O181	O	0.775832	-0.446560	-0.304677
O182	O	1.275832	0.053440	0.195323
H183	H	0.803778	-0.485836	-0.266756
H184	H	1.303778	0.014164	0.233244
O185	O	0.481976	-0.437430	-0.298463
O186	O	0.981976	0.062570	0.201537
H187	H	0.529075	-0.410939	-0.280454
H188	H	1.029075	0.089061	0.219546
H189	H	1.121848	-0.736340	-0.810021
H190	H	1.621848	-0.236340	-0.310021
O191	O	1.210222	-1.066411	-0.593264
O192	O	1.710222	-0.566411	-0.093264
H193	H	1.255547	-1.037158	-0.575204
H194	H	1.755547	-0.537158	-0.075204
H195	H	1.068601	-0.918398	-0.447397
H196	H	1.568601	-0.418398	0.052603
O197	O	1.127097	-0.744314	-0.666449
O198	O	1.627097	-0.244314	-0.166449
H199	H	1.155266	-0.786761	-0.701763
H200	H	1.655266	-0.286761	-0.201763
H201	H	0.618419	-0.427488	-0.291706
H202	H	1.118419	0.072512	0.208294
H203	H	0.731714	-0.640669	-0.436671
H204	H	1.231714	-0.140669	0.063329
H205	H	0.458082	-0.792465	-0.539890
H206	H	0.958082	-0.292465	-0.039890
O207	O	1.122837	-0.958958	-0.503261
O208	O	1.622837	-0.458958	-0.003261
H209	H	1.070128	-0.927003	-0.513713
H210	H	1.570128	-0.427003	-0.013713
O211	O	0.991905	-1.307712	-0.368321
O212	O	1.491905	-0.807712	0.131679
H213	H	0.987433	-1.370939	-0.363692
H214	H	1.487433	-0.870939	0.136308
H215	H	0.957540	-1.239344	-0.332965
H216	H	1.457540	-0.739344	0.167035
H217	H	0.885935	-0.873128	-0.259244
H218	H	1.385935	-0.373128	0.240756
O219	O	0.865784	-1.152629	-0.238425
O220	O	1.365784	-0.652629	0.261575
H221	H	0.861312	-1.215855	-0.233796
H222	H	1.361312	-0.715855	0.266204
O223	O	0.966614	-0.502253	-0.681254
O224	O	1.466614	-0.002253	-0.181254
H225	H	0.941082	-0.463731	-0.721518
H226	H	1.441082	0.036269	-0.221518
H227	H	0.981773	-0.525056	-0.822932
H228	H	1.481773	-0.025056	-0.322932
