data_functionalizedCrystal
_audit_creation_method	'MofGen! by Chris Wilmer'
_symmetry_space_group_name_H-M	'P1'
_symmetry_Int_Tables_number	1
_symmetry_cell_setting	triclinic
loop_
_symmetry_equiv_pos_as_xyz
  x,y,z
_cell_length_a	17.699083
_cell_length_b	14.519709
_cell_length_c	16.176319
_cell_angle_alpha	89.992256
_cell_angle_beta	89.998611
_cell_angle_gamma	83.481580
loop_
_atom_site_label
_atom_site_type_symbol
_atom_site_fract_x
_atom_site_fract_y
_atom_site_fract_z
O1	O	1.004413	0.116624	-0.068632
O2	O	0.784078	0.131798	-0.068660
O3	O	0.900087	-0.010052	-0.068638
O4	O	0.888403	0.258474	-0.068654
O5	O	0.900071	-0.010061	0.068855
O6	O	0.784062	0.131789	0.068833
O7	O	1.004397	0.116615	0.068861
Cu8	Cu	0.894228	0.124201	0.081401
Cu9	Cu	0.894247	0.124212	-0.081200
O10	O	0.888387	0.258465	0.068839
C11	C	0.755871	0.131249	0.000083
C12	C	0.671848	0.129618	0.000073
C13	C	0.623466	0.212881	0.000068
C14	C	0.544518	0.211343	0.000079
C15	C	0.513954	0.126541	0.000089
C16	C	0.562343	0.043272	0.000096
C17	C	0.641289	0.044811	0.000091
C18	C	0.243962	0.037064	0.000117
C19	C	0.165010	0.035531	0.000119
C20	C	0.147191	0.203596	0.000105
C21	C	0.226137	0.205135	0.000100
C22	C	0.274519	0.121866	0.000112
C23	C	0.360123	0.123535	0.000102
C24	C	0.428352	0.124872	0.000093
C25	C	0.899534	-0.044414	0.000109
C26	C	0.897903	-0.146789	0.000109
C27	C	0.891896	-0.521659	0.000087
C28	C	0.893564	-0.417358	0.000093
C29	C	0.894899	-0.334227	0.000099
C30	C	0.896568	-0.229920	0.000104
C31	C	1.032603	0.117164	0.000116
C32	C	1.116626	0.118795	0.000121
C33	C	0.888940	0.292827	0.000090
C34	C	0.890572	0.395202	0.000085
N35	N	0.894220	0.124193	0.195767
N36	N	0.894260	0.124213	-0.195565
C37	C	0.945604	0.061408	0.239040
C38	C	0.945608	0.061407	0.325588
C39	C	0.894231	0.124196	0.368859
C40	C	0.842841	0.186985	0.325579
C41	C	0.842834	0.186981	0.239034
C42	C	0.842867	0.187002	0.674608
C43	C	0.842879	0.187003	0.761159
C44	C	0.945641	0.061428	0.761161
C45	C	0.945634	0.061424	0.674616
C46	C	0.894242	0.124209	0.631343
C47	C	0.894237	0.124208	0.537499
C48	C	0.894238	0.124202	0.462702
H49	H	0.251017	0.274189	0.000088
C50	C	1.048480	0.041039	0.577099
C51	C	1.001976	-0.007679	0.626971
H52	H	1.083225	-0.001651	0.547667
H53	H	1.017869	0.078508	0.539009
H54	H	1.075893	0.079290	0.610803
H55	H	0.974559	-0.045925	0.593266
H56	H	1.032591	-0.045165	0.665065
C57	C	1.047207	-0.062696	0.316897
C58	C	1.002104	-0.007595	0.373154
H59	H	1.082090	-0.105290	0.346264
H60	H	1.015664	-0.095835	0.283156
H61	H	1.074464	-0.024331	0.283126
H62	H	0.974842	-0.045960	0.406921
H63	H	1.033650	0.025546	0.406909
C64	C	0.741262	0.311119	0.247719
C65	C	0.786354	0.256001	0.191464
H66	H	0.706395	0.353731	0.218350
H67	H	0.713992	0.272773	0.281483
H68	H	0.772819	0.344244	0.281467
H69	H	0.754797	0.222870	0.157720
H70	H	0.813625	0.294351	0.157686
C71	C	0.587893	-0.122704	0.000112
C72	C	0.528751	-0.049946	0.000106
H73	H	0.567154	-0.180253	0.000121
H74	H	0.618312	-0.118604	-0.047832
H75	H	0.618315	-0.118605	0.048062
H76	H	0.498332	-0.054041	-0.047847
H77	H	0.498319	-0.054047	0.048056
H78	H	0.680683	-0.022990	0.000095
C79	C	0.989881	-0.098300	0.787818
C80	C	1.002125	-0.007599	0.808729
H81	H	1.024755	-0.140911	0.817181
H82	H	0.939365	-0.108232	0.802012
H83	H	0.997232	-0.107273	0.730081
H84	H	0.994768	0.001375	0.866466
H85	H	1.052653	0.002336	0.794541
H86	H	0.648344	0.281937	0.000060
C87	C	0.741296	0.311137	0.683311
C88	C	0.786383	0.256022	0.627050
H89	H	0.706428	0.353752	0.653946
H90	H	0.714028	0.272791	0.717075
H91	H	0.772857	0.344259	0.717057
H92	H	0.754823	0.222894	0.593307
H93	H	0.813653	0.294373	0.593271
C94	C	0.797226	0.242759	0.458245
C95	C	0.786366	0.256007	0.373142
H96	H	0.762364	0.285378	0.487604
H97	H	0.788925	0.181230	0.472437
H98	H	0.847753	0.252699	0.472409
H99	H	0.735841	0.246060	0.358976
H100	H	0.794662	0.317550	0.358944
H101	H	0.505128	0.279144	0.000074
H102	H	0.107789	0.271397	0.000100
H103	H	0.283346	-0.030739	0.000127
H104	H	0.140129	-0.033529	0.000128
H105	H	0.987445	0.010281	0.203814
H106	H	0.801038	0.238136	0.796389
