data_functionalizedCrystal
_audit_creation_method	'MofGen! by Chris Wilmer'
_symmetry_space_group_name_H-M	'P1'
_symmetry_Int_Tables_number	1
_symmetry_cell_setting	triclinic
loop_
_symmetry_equiv_pos_as_xyz
  x,y,z
_cell_length_a	17.640112
_cell_length_b	16.625546
_cell_length_c	17.640968
_cell_angle_alpha	78.766516
_cell_angle_beta	92.139080
_cell_angle_gamma	101.247770
loop_
_atom_site_label
_atom_site_type_symbol
_atom_site_fract_x
_atom_site_fract_y
_atom_site_fract_z
Zn1	Zn	1.247778	-0.023167	-0.195079
Zn2	Zn	1.222008	-0.189521	-0.068091
Zn3	Zn	1.095110	-0.075617	-0.093723
Zn4	Zn	1.120749	-0.178908	-0.220673
O5	O	1.171411	-0.116803	-0.144392
O6	O	1.350629	-0.027726	-0.156795
O7	O	1.183660	-0.200804	0.034783
O8	O	1.115417	0.044187	-0.107184
O9	O	1.331696	-0.149946	-0.063498
O10	O	1.227581	0.082722	-0.181650
O11	O	1.090428	-0.117119	0.015951
O12	O	0.992242	-0.106828	-0.132002
O13	O	1.159114	-0.131856	-0.323552
O14	O	1.011078	-0.182715	-0.225272
O15	O	1.252442	-0.017434	-0.304748
O16	O	1.208521	-0.300961	-0.088315
O17	O	1.134126	-0.293163	-0.200417
C18	C	0.974106	-0.149311	-0.184196
C19	C	0.889701	-0.163234	-0.201243
C20	C	1.171333	-0.326314	-0.144374
C21	C	1.171374	-0.415926	-0.144378
C22	C	0.563039	-0.011024	-0.014898
C23	C	0.483730	-0.024119	-0.030926
C24	C	0.503365	-0.103324	-0.127880
C25	C	0.582678	-0.090232	-0.111863
C26	C	0.612508	-0.044082	-0.055370
C27	C	0.632147	-0.123289	-0.152335
C28	C	0.711452	-0.110201	-0.136316
C29	C	0.741288	-0.064056	-0.079824
C30	C	0.691813	-0.030994	-0.039351
C31	C	0.602314	-0.169444	-0.208823
C32	C	0.651783	-0.202502	-0.249296
C33	C	0.731091	-0.189409	-0.233281
C34	C	0.760927	-0.143264	-0.176789
C35	C	0.780566	-0.222471	-0.273754
C36	C	0.859871	-0.209383	-0.257735
C37	C	0.840232	-0.130176	-0.160770
C38	C	1.171522	-0.744060	-0.144431
C39	C	1.171479	-0.652763	-0.144419
C40	C	1.171448	-0.579996	-0.144404
C41	C	1.171406	-0.488693	-0.144393
C42	C	1.369487	-0.084169	-0.104432
C43	C	1.453895	-0.070262	-0.087404
C44	C	1.211513	-0.067611	-0.342476
C45	C	1.228602	-0.046647	-0.426888
C46	C	1.171514	0.093533	-0.144422
C47	C	1.171558	0.183166	-0.144434
C48	C	1.041880	-0.275571	-0.753453
C49	C	1.057954	-0.255860	-0.832768
C50	C	1.155128	-0.136723	-0.813179
C51	C	1.139059	-0.156422	-0.733861
C52	C	1.082435	-0.225847	-0.704005
C53	C	1.179615	-0.106698	-0.684413
C54	C	1.163551	-0.126397	-0.605102
C55	C	1.106931	-0.195821	-0.575239
C56	C	1.066371	-0.245547	-0.624694
C57	C	1.236243	-0.037276	-0.714270
C58	C	1.276798	0.012448	-0.664822
C59	C	1.260730	-0.007248	-0.585510
C60	C	1.204111	-0.076672	-0.555647
C61	C	1.301290	0.042478	-0.536055
C62	C	1.285226	0.022778	-0.456744
C63	C	1.188046	-0.096371	-0.476336
C64	C	1.131509	-0.165740	0.052931
C65	C	1.114568	-0.186451	0.137372
H66	H	0.864523	-0.092581	-0.114780
C67	C	1.363574	0.118844	-0.568909
N68	N	1.410484	0.176367	-0.593654
C69	C	0.747740	-0.273240	-0.335890
N70	N	0.723017	-0.311479	-0.382692
C71	C	0.979589	-0.351942	-0.720608
N72	N	0.932677	-0.409465	-0.695868
C73	C	0.470543	-0.154086	-0.190021
N74	N	0.445822	-0.192317	-0.236829
C75	C	1.004081	-0.321918	-0.591849
N76	N	0.957168	-0.379440	-0.567108
H77	H	0.900151	-0.236301	-0.290693
H78	H	0.716104	0.006601	0.006640
C79	C	0.618961	-0.253264	-0.311437
N80	N	0.594240	-0.291495	-0.358245
H81	H	1.141919	-0.152888	-0.452030
C82	C	0.828527	-0.049657	-0.062205
N83	N	0.894236	-0.038809	-0.048936
H84	H	1.201233	-0.080199	-0.837498
H85	H	1.024924	-0.296357	-0.873027
H86	H	1.318249	0.063269	-0.416482
C87	C	1.089259	-0.217491	-0.487995
N88	N	1.075947	-0.233811	-0.422282
H89	H	1.249322	-0.021240	-0.778850
H90	H	1.322904	0.068973	-0.689141
C91	C	0.429316	0.012252	0.013601
N92	N	0.388331	0.039645	0.047139
C93	C	0.595857	0.039748	0.047244
N94	N	0.620575	0.077985	0.094049
H95	H	0.537739	-0.180099	-0.221864
