data_functionalizedCrystal
_audit_creation_method	'MofGen! by Chris Wilmer'
_symmetry_space_group_name_H-M	'P1'
_symmetry_Int_Tables_number	1
_symmetry_cell_setting	triclinic
loop_
_symmetry_equiv_pos_as_xyz
  x,y,z
_cell_length_a	10.489746
_cell_length_b	15.500215
_cell_length_c	10.489741
_cell_angle_alpha	86.843495
_cell_angle_beta	95.459762
_cell_angle_gamma	93.153996
loop_
_atom_site_label
_atom_site_type_symbol
_atom_site_fract_x
_atom_site_fract_y
_atom_site_fract_z
O1	O	1.699384	0.071886	-0.185333
O2	O	1.328190	0.071900	-0.202220
O3	O	1.522233	0.071888	-0.008178
O4	O	1.505341	0.071899	-0.379374
O5	O	1.511539	-0.072002	0.002503
O6	O	1.317496	-0.071989	-0.191538
O7	O	1.688690	-0.072003	-0.174651
Cu8	Cu	1.502117	-0.085134	-0.182120
Cu9	Cu	1.514763	0.085031	-0.194752
O10	O	1.494647	-0.071991	-0.368693
C11	C	1.275312	-0.000042	-0.195602
C12	C	1.133683	-0.000037	-0.191783
C13	C	0.980824	-0.000053	-0.066058
C14	C	1.052946	-0.070993	-0.123649
C15	C	1.063444	0.070870	-0.134209
C16	C	0.953449	-0.071058	-0.242626
C17	C	0.963947	0.070870	-0.253173
C18	C	1.036019	-0.000088	-0.310850
N19	N	1.493231	-0.204820	-0.173234
C20	C	1.567942	-0.250093	-0.248000
C21	C	1.561239	-0.340666	-0.241272
C22	C	1.479817	-0.385964	-0.159785
C23	C	1.405104	-0.340684	-0.085011
C24	C	1.411815	-0.250113	-0.091732
C25	C	1.455656	-0.659432	-0.135575
C26	C	1.448948	-0.750010	-0.128861
C27	C	1.605086	-0.749986	-0.285122
C28	C	1.611784	-0.659413	-0.291842
C29	C	1.537075	-0.614140	-0.217063
C30	C	1.472961	-0.478544	-0.152909
C31	C	1.543939	-0.521562	-0.223933
C32	C	1.741569	-0.000059	-0.181269
C33	C	1.883198	-0.000058	-0.185089
C34	C	1.515610	-0.000056	0.044694
C35	C	1.511793	-0.000055	0.186324
N36	N	1.523659	0.204717	-0.203627
C37	C	1.501270	-0.000045	-0.421565
C38	C	1.505088	-0.000041	-0.563195
C39	C	1.388330	-0.000044	0.254465
C40	C	1.441380	-0.070991	0.351853
C41	C	1.451953	0.070873	0.341297
C42	C	1.564890	-0.071060	0.281851
C43	C	1.575450	0.070867	0.271280
C44	C	1.628589	-0.000098	0.368642
H45	H	0.905708	-0.131102	-0.288383
H46	H	1.610237	-0.484677	-0.290275
H47	H	1.091965	-0.130973	-0.068948
F48	F	1.362285	-0.798217	-0.042126
F49	F	1.376105	-0.611261	-0.056026
H50	H	1.404155	0.130859	0.367809
F51	F	1.367275	-0.149385	0.398209
F52	F	1.332307	-0.201929	-0.012146
H53	H	1.111345	0.130846	-0.088390
F54	F	1.654600	-0.201892	-0.334734
F55	F	1.068006	-0.000130	-0.446233
H56	H	1.406666	-0.515436	-0.086562
H57	H	1.678089	-0.622537	-0.358194
F58	F	0.912912	0.149271	-0.324614
H59	H	1.622079	-0.377524	-0.302152
H60	H	1.730189	-0.000141	0.418067
H61	H	1.338815	-0.377573	-0.018655
H62	H	1.286813	-0.000111	0.204821
F63	F	1.684591	-0.798174	-0.364700
F64	F	1.649503	0.149265	0.224879
F65	F	0.948501	-0.000148	0.069230
F66	F	1.627285	-0.149546	0.247382
