data_functionalizedCrystal
_audit_creation_method	'MofGen! by Chris Wilmer'
_symmetry_space_group_name_H-M	'P1'
_symmetry_Int_Tables_number	1
_symmetry_cell_setting	triclinic
loop_
_symmetry_equiv_pos_as_xyz
  x,y,z
_cell_length_a	13.033291
_cell_length_b	13.032721
_cell_length_c	19.805399
_cell_angle_alpha	82.844098
_cell_angle_beta	97.208163
_cell_angle_gamma	105.184202
loop_
_atom_site_label
_atom_site_type_symbol
_atom_site_fract_x
_atom_site_fract_y
_atom_site_fract_z
Zn1	Zn	1.570185	-0.216859	0.529924
Zn2	Zn	2.070185	0.283141	1.029924
Zn3	Zn	1.547507	-0.394496	0.429478
Zn4	Zn	2.047507	0.105504	0.929478
Zn5	Zn	1.392554	-0.239424	0.403969
Zn6	Zn	1.892554	0.260576	0.903969
Zn7	Zn	1.369964	-0.416965	0.529846
Zn8	Zn	1.869964	0.083035	1.029846
O9	O	1.470052	-0.316936	0.473304
O10	O	1.970052	0.183064	0.973304
O11	O	1.715818	-0.221576	0.527307
O12	O	2.215818	0.278424	1.027307
O13	O	1.526916	-0.373965	0.331378
O14	O	2.026916	0.126035	0.831378
O15	O	1.435062	-0.087787	0.410034
O16	O	1.935062	0.412213	0.910034
O17	O	1.699157	-0.352085	0.453511
O18	O	2.199157	0.147915	0.953511
O19	O	1.565567	-0.071209	0.502572
O20	O	2.065567	0.428791	1.002572
O21	O	1.413073	-0.260035	0.312637
O22	O	1.913073	0.239965	0.812637
O23	O	1.240916	-0.281822	0.409959
O24	O	1.740916	0.218178	0.909959
O25	O	1.396560	-0.390381	0.624572
O26	O	1.896560	0.109619	1.124572
O27	O	1.224319	-0.412261	0.502440
O28	O	1.724319	0.087739	1.002440
O29	O	1.543662	-0.243364	0.624630
O30	O	2.043662	0.256636	1.124630
O31	O	1.505011	-0.546120	0.453436
O32	O	2.005011	-0.046120	0.953436
O33	O	1.374570	-0.562628	0.527175
O34	O	1.874570	-0.062628	1.027175
C35	C	1.194076	-0.351929	0.453423
C36	C	1.694076	0.148071	0.953423
C37	C	1.076009	-0.366925	0.444936
C38	C	1.576009	0.133075	0.944936
C39	C	1.434907	-0.592912	0.493082
C40	C	1.934907	-0.092912	0.993082
C41	C	1.419969	-0.710963	0.501572
C42	C	1.919969	-0.210963	1.001572
C43	C	0.909577	-0.324626	0.468969
C44	C	1.409577	0.175374	0.968969
C45	C	1.031606	-0.309129	0.477741
C46	C	1.531606	0.190871	0.977741
C47	C	1.477905	-0.755384	0.468908
C48	C	1.977905	-0.255384	0.968908
C49	C	1.462467	-0.877396	0.477682
C50	C	1.962467	-0.377396	0.977682
C51	C	1.747106	-0.281807	0.493263
C52	C	2.247106	0.218193	0.993263
C53	C	1.865170	-0.266838	0.501769
C54	C	2.365170	0.233162	1.001769
C55	C	1.470121	-0.316862	0.649847
C56	C	1.970121	0.183138	1.149847
C57	C	1.470150	-0.316830	0.725078
C58	C	1.970150	0.183170	1.225078
C59	C	1.505364	-0.039879	0.453467
C60	C	2.005364	0.460121	0.953467
C61	C	1.520412	0.078186	0.445013
C62	C	2.020412	0.578186	0.945013
C63	C	1.470055	-0.316926	0.297448
C64	C	1.970055	0.183074	0.797448
C65	C	1.470270	-0.316632	0.222210
C66	C	1.970270	0.183368	0.722210
C67	C	1.546747	-0.240275	0.760453
C68	C	2.046747	0.259725	1.260453
C69	C	1.546762	-0.240242	0.831140
C70	C	2.046762	0.259758	1.331140
C71	C	1.470183	-0.316771	0.866452
C72	C	1.970183	0.183229	1.366452
C73	C	1.393577	-0.393331	0.831072
C74	C	1.893577	0.106669	1.331072
C75	C	1.393559	-0.393357	0.760385
C76	C	1.893559	0.106643	1.260385
C77	C	1.393650	-0.393224	1.116142
C78	C	1.893650	0.106776	1.616142
C79	C	1.393676	-0.393193	1.186834
C80	C	1.893676	0.106807	1.686834
C81	C	1.546853	-0.240109	1.186897
C82	C	2.046853	0.259891	1.686897
C83	C	1.546835	-0.240136	1.116211
C84	C	2.046835	0.259864	1.616211
C85	C	1.470226	-0.316691	1.080836
C86	C	1.970226	0.183309	1.580836
C87	C	1.470210	-0.316724	1.004189
C88	C	1.970210	0.183276	1.504189
C89	C	1.470203	-0.316744	0.943099
C90	C	1.970203	0.183256	1.443099
H91	H	0.857255	-0.385568	0.434391
H92	H	1.357255	0.114432	0.934391
H93	H	1.538941	-0.703088	0.434449
H94	H	2.038941	-0.203088	0.934449
N95	N	1.006723	-0.447668	0.399134
N96	N	1.506723	0.052332	0.899134
H97	H	1.028054	-0.428647	0.350973
H98	H	1.528054	0.071353	0.850973
H99	H	0.929395	-0.447261	0.399415
H100	H	1.429395	0.052739	0.899415
N101	N	1.310934	-0.475918	0.722226
N102	N	1.810934	0.024082	1.222226
H103	H	1.262423	-0.524395	0.755320
H104	H	1.762423	-0.024395	1.255320
H105	H	1.347889	-0.519608	0.699529
H106	H	1.847889	-0.019608	1.199529
H107	H	1.358942	-0.763261	0.536037
H108	H	1.858942	-0.263261	1.036037
N109	N	1.100895	-0.228396	0.523548
N110	N	1.600895	0.271604	1.023548
H111	H	1.178245	-0.228773	0.523324
H112	H	1.678245	0.271227	1.023324
H113	H	1.079470	-0.247474	0.571683
H114	H	1.579470	0.252526	1.071683
H115	H	0.917493	-0.205886	0.536340
H116	H	1.417493	0.294114	1.036340
N117	N	1.381623	-0.946654	0.523338
N118	N	1.881623	-0.446654	1.023338
H119	H	1.382055	-1.023998	0.523136
H120	H	1.882055	-0.523998	1.023136
H121	H	1.308189	-0.937022	0.505925
H122	H	1.808189	-0.437022	1.005925
H123	H	1.581451	-0.869520	0.410552
H124	H	2.081451	-0.369520	0.910552
H125	H	1.609110	-0.177959	0.731708
H126	H	2.109110	0.322041	1.231708
N127	N	1.629360	-0.157654	0.869292
N128	N	2.129360	0.342346	1.369292
H129	H	1.677867	-0.109177	0.836196
H130	H	2.177867	0.390823	1.336196
H131	H	1.673019	-0.194629	0.905268
H132	H	2.173019	0.305371	1.405268
N133	N	1.629482	-0.157533	1.225051
N134	N	2.129482	0.342467	1.725051
H135	H	1.617876	-0.169121	1.275188
H136	H	2.117876	0.330879	1.775188
H137	H	1.622620	-0.083771	1.206070
H138	H	2.122620	0.416229	1.706070
H139	H	1.609196	-0.177821	1.087464
H140	H	2.109196	0.322179	1.587464
N141	N	1.311077	-0.475739	1.224923
N142	N	1.811077	0.024261	1.724923
H143	H	1.262540	-0.524239	1.191788
H144	H	1.762540	-0.024239	1.691788
H145	H	1.267448	-0.438715	1.247615
H146	H	1.767448	0.061285	1.747615
H147	H	1.331284	-0.455574	1.087351
H148	H	1.831284	0.044426	1.587351
H149	H	1.331222	-0.455638	0.859828
H150	H	1.831222	0.044362	1.359828
