data_functionalizedCrystal
_audit_creation_method	'MofGen! by Chris Wilmer'
_symmetry_space_group_name_H-M	'P1'
_symmetry_Int_Tables_number	1
_symmetry_cell_setting	triclinic
loop_
_symmetry_equiv_pos_as_xyz
  x,y,z
_cell_length_a	17.038275
_cell_length_b	15.186229
_cell_length_c	17.038272
_cell_angle_alpha	90.000406
_cell_angle_beta	88.889085
_cell_angle_gamma	89.993521
loop_
_atom_site_label
_atom_site_type_symbol
_atom_site_fract_x
_atom_site_fract_y
_atom_site_fract_z
O1	O	-1.048756	0.073248	0.170520
O2	O	-0.548756	0.573248	0.670520
O3	O	-0.820944	0.073246	0.167815
O4	O	-0.320944	0.573246	0.667815
O5	O	-0.933496	0.073240	0.055261
O6	O	-0.433496	0.573240	0.555261
O7	O	-0.936204	0.073254	0.283073
O8	O	-0.436204	0.573254	0.783073
O9	O	-0.933482	-0.073218	0.055267
O10	O	-0.433482	0.426782	0.555267
O11	O	-0.820930	-0.073212	0.167820
O12	O	-0.320930	0.426788	0.667820
O13	O	-1.048742	-0.073210	0.170526
O14	O	-0.548742	0.426790	0.670526
Zn15	Zn	-0.934834	-0.096464	0.169174
Zn16	Zn	-0.434834	0.403536	0.669174
Zn17	Zn	-0.934852	0.096500	0.169166
Zn18	Zn	-0.434852	0.596500	0.669166
O19	O	-0.936190	-0.073204	0.283079
O20	O	-0.436190	0.426796	0.783079
C21	C	-0.791645	0.000017	0.165355
C22	C	-0.291645	0.500017	0.665355
C23	C	-0.704361	0.000016	0.158008
C24	C	-0.204361	0.500016	0.658008
N25	N	-0.934827	-0.228156	0.169179
N26	N	-0.434827	0.271844	0.669179
C27	C	-0.210935	0.000011	0.112871
C28	C	0.289065	0.500011	0.612871
C29	C	-0.292947	0.000007	0.119781
C30	C	0.207053	0.500007	0.619781
C31	C	-0.329347	0.000016	0.194154
C32	C	0.170653	0.500016	0.694154
C33	C	-0.283730	0.000020	0.261622
C34	C	0.216270	0.500020	0.761622
C35	C	-0.201720	0.000018	0.254712
C36	C	0.298280	0.500018	0.754712
C37	C	-0.576734	0.000018	0.218566
C38	C	-0.076734	0.500018	0.718566
C39	C	-0.658751	0.000022	0.225471
C40	C	-0.158751	0.500022	0.725471
C41	C	-0.667962	0.000008	0.083629
C42	C	-0.167962	0.500008	0.583629
C43	C	-0.585949	0.000011	0.076725
C44	C	-0.085949	0.500011	0.576725
C45	C	-0.540340	0.000010	0.144193
C46	C	-0.040340	0.500010	0.644193
C47	C	-0.413176	0.000015	0.201218
C48	C	0.086824	0.500015	0.701218
C49	C	-0.456513	0.000005	0.137128
C50	C	0.043487	0.500005	0.637128
C51	C	-0.985639	-0.453876	0.219994
C52	C	-0.485639	0.046124	0.719994
C53	C	-0.985647	-0.546065	0.219989
C54	C	-0.485647	-0.046065	0.719989
C55	C	-0.884051	-0.546082	0.118335
C56	C	-0.384051	-0.046082	0.618335
C57	C	-0.884047	-0.453894	0.118337
C58	C	-0.384047	0.046106	0.618337
C59	C	-0.934840	-0.407793	0.169171
C60	C	-0.434840	0.092207	0.669171
C61	C	-0.934852	-0.592171	0.169164
C62	C	-0.434852	-0.092171	0.669164
C63	C	-0.934860	-0.692127	0.169158
C64	C	-0.434860	-0.192127	0.669158
C65	C	-0.934833	-0.307831	0.169176
C66	C	-0.434833	0.192169	0.669176
C67	C	-0.078041	0.000019	0.172986
C68	C	0.421959	0.500019	0.672986
C69	C	-0.165325	0.000018	0.180334
C70	C	0.334675	0.500018	0.680334
C71	C	-0.931026	0.000011	0.025972
C72	C	-0.431026	0.500011	0.525972
C73	C	-0.923678	0.000011	-0.061312
C74	C	-0.423678	0.500011	0.438688
N75	N	-0.934864	0.228193	0.169155
N76	N	-0.434864	0.728193	0.669155
C77	C	-0.991142	0.000011	-0.106922
C78	C	-0.491142	0.500011	0.393078
C79	C	-0.984233	0.000019	-0.188934
C80	C	-0.484233	0.500019	0.311066
C81	C	-0.909860	0.000022	-0.225334
C82	C	-0.409860	0.500022	0.274666
C83	C	-0.842391	0.000025	-0.179718
C84	C	-0.342391	0.500025	0.320282
C85	C	-0.849301	0.000023	-0.097708
C86	C	-0.349301	0.500023	0.402292
C87	C	-0.885449	0.000033	-0.472722
C88	C	-0.385449	0.500033	0.027278
C89	C	-0.878544	0.000033	-0.554738
C90	C	-0.378544	0.500033	-0.054738
C91	C	-1.020387	0.000029	-0.563948
C92	C	-0.520387	0.500029	-0.063948
C93	C	-1.027290	0.000022	-0.481936
C94	C	-0.527290	0.500022	0.018064
C95	C	-0.959821	0.000029	-0.436327
C96	C	-0.459821	0.500029	0.063673
C97	C	-0.902796	0.000027	-0.309163
C98	C	-0.402796	0.500027	0.190837
C99	C	-0.966886	0.000030	-0.352499
C100	C	-0.466886	0.500030	0.147501
C101	C	-0.938660	0.000027	0.312369
C102	C	-0.438660	0.500027	0.812369
C103	C	-0.946008	0.000032	0.399652
C104	C	-0.446008	0.500032	0.899652
H105	H	-0.330080	-0.000002	0.064844
H106	H	0.169920	0.499998	0.564844
O107	O	-1.034869	-0.409054	0.269450
O108	O	-0.534869	0.090946	0.769450
C109	C	-0.990549	-0.355722	0.319817
C110	C	-0.490549	0.144278	0.819817
H111	H	-0.928620	-0.383513	0.324060
H112	H	-0.428620	0.116487	0.824060
H113	H	-1.019581	-0.354674	0.380657
H114	H	-0.519581	0.145326	0.880657
H115	H	-0.987607	-0.285853	0.295464
H116	H	-0.487607	0.214147	0.795464
O117	O	-0.834623	-0.409260	0.068939
O118	O	-0.334623	0.090740	0.568939
C119	C	-0.789802	-0.469715	0.024062
C120	C	-0.289802	0.030285	0.524062
H121	H	-0.787379	-0.535432	0.056262
H122	H	-0.287379	-0.035432	0.556262
H123	H	-0.727725	-0.443085	0.015049
H124	H	-0.227725	0.056915	0.515049
H125	H	-0.818056	-0.479514	-0.035413
H126	H	-0.318056	0.020486	0.464587
O127	O	-0.694237	0.000051	0.297662
O128	O	-0.194237	0.500051	0.797662
C129	C	-0.776401	0.000028	0.289289
C130	C	-0.276401	0.500028	0.789289
H131	H	-0.791561	0.027767	0.229287
H132	H	-0.291561	0.527767	0.729287
H133	H	-0.804636	0.042537	0.337214
H134	H	-0.304636	0.542537	0.837214
H135	H	-0.799446	-0.070237	0.294598
H136	H	-0.299446	0.429763	0.794598
H137	H	-1.027013	-0.583582	0.261373
H138	H	-0.527013	-0.083582	0.761373
H139	H	-0.442822	0.000025	0.261774
H140	H	0.057178	0.500025	0.761774
O141	O	-0.834733	-0.590999	0.069036
O142	O	-0.334733	-0.090999	0.569036
C143	C	-0.845595	-0.682250	0.079958
C144	C	-0.345595	-0.182250	0.579958
H145	H	-0.871911	-0.694822	0.140956
H146	H	-0.371911	-0.194822	0.640956
H147	H	-0.786590	-0.717265	0.074025
H148	H	-0.286590	-0.217265	0.574025
H149	H	-0.887065	-0.708452	0.033727
H150	H	-0.387065	-0.208452	0.533727
O151	O	-1.063449	0.000050	-0.071692
O152	O	-0.563449	0.500050	0.428308
C153	C	-1.121511	0.000033	-0.129539
C154	C	-0.621511	0.500033	0.370461
H155	H	-1.095795	0.027759	-0.186647
H156	H	-0.595795	0.527759	0.313353
H157	H	-1.173111	0.042556	-0.109067
H158	H	-0.673111	0.542556	0.390933
H159	H	-1.142579	-0.070229	-0.139679
H160	H	-0.642579	0.429771	0.360321
O161	O	-1.049746	0.000175	-0.233269
O162	O	-0.549746	0.500175	0.266731
C163	C	-1.049998	0.076021	-0.280990
C164	C	-0.549998	0.576021	0.219010
H165	H	-1.011838	0.129035	-0.253660
H166	H	-0.511838	0.629035	0.246340
H167	H	-1.112647	0.101481	-0.285987
H168	H	-0.612647	0.601481	0.214013
H169	H	-1.025712	0.058879	-0.341910
H170	H	-0.525712	0.558879	0.158090
O171	O	-0.770084	0.000069	-0.214949
O172	O	-0.270084	0.500069	0.285051
C173	C	-0.712021	0.000049	-0.157103
C174	C	-0.212021	0.500049	0.342897
H175	H	-0.737741	0.027775	-0.099993
H176	H	-0.237741	0.527775	0.400007
H177	H	-0.660429	0.042572	-0.177575
H178	H	-0.160429	0.542572	0.322425
H179	H	-0.690940	-0.070213	-0.146965
H180	H	-0.190940	0.429787	0.353035
O181	O	-0.421247	0.000116	0.064842
O182	O	0.078753	0.500116	0.564842
C183	C	-0.444076	0.075979	0.023390
C184	C	0.055924	0.575979	0.523390
H185	H	-0.502315	0.101269	0.048565
H186	H	-0.002315	0.601269	0.548565
H187	H	-0.451087	0.058919	-0.041254
H188	H	0.048913	0.558919	0.458746
H189	H	-0.397285	0.129092	0.029338
H190	H	0.102715	0.629092	0.529338
H191	H	-1.087853	0.000020	-0.452305
H192	H	-0.587853	0.500020	0.047695
H193	H	-0.842241	0.000027	-0.338809
H194	H	-0.342241	0.500027	0.161191
H195	H	-1.075316	0.000025	-0.601091
H196	H	-0.575316	0.500025	-0.101091
O197	O	-0.806234	0.000084	-0.589972
O198	O	-0.306234	0.500084	-0.089972
C199	C	-0.748165	0.000072	-0.532132
C200	C	-0.248165	0.500072	-0.032132
H201	H	-0.773883	0.027795	-0.475021
H202	H	-0.273883	0.527795	0.024979
H203	H	-0.696580	0.042601	-0.552609
H204	H	-0.196580	0.542601	-0.052609
H205	H	-0.727076	-0.070187	-0.521996
H206	H	-0.227076	0.429813	-0.021996
O207	O	-0.532554	0.000061	0.284183
O208	O	-0.032554	0.500061	0.784183
C209	C	-0.582270	0.000051	0.351305
C210	C	-0.082270	0.500051	0.851305
H211	H	-0.642081	0.027781	0.335433
H212	H	-0.142081	0.527781	0.835433
H213	H	-0.555358	0.042575	0.398908
H214	H	-0.055358	0.542575	0.898908
H215	H	-0.589574	-0.070209	0.373852
H216	H	-0.089574	0.429791	0.873852
O217	O	-0.783790	0.000177	-0.053365
O218	O	-0.283790	0.500177	0.446635
C219	C	-0.783563	0.076017	-0.005637
C220	C	-0.283563	0.576017	0.494363
H221	H	-0.821732	0.129032	-0.032967
H222	H	-0.321732	0.629032	0.467033
H223	H	-0.720920	0.101480	-0.000630
H224	H	-0.220920	0.601480	0.499370
H225	H	-0.807852	0.058868	0.055279
H226	H	-0.307852	0.558868	0.555279
O227	O	-0.175706	-0.000034	0.040564
O228	O	0.324294	0.499966	0.540564
C229	C	-0.233553	-0.000020	-0.017498
C230	C	0.266447	0.499980	0.482502
H231	H	-0.290659	-0.027744	0.008222
H232	H	0.209341	0.472256	0.508222
H233	H	-0.213078	-0.042546	-0.069092
H234	H	0.286922	0.457454	0.430908
H235	H	-0.243700	0.070241	-0.038575
H236	H	0.256300	0.570241	0.461425
O237	O	-0.550719	-0.000045	0.004418
O238	O	-0.050719	0.499955	0.504418
C239	C	-0.608563	-0.000031	-0.053647
C240	C	-0.108563	0.499969	0.446353
H241	H	-0.665671	-0.027752	-0.027928
H242	H	-0.165671	0.472248	0.472072
H243	H	-0.588086	-0.042562	-0.105238
H244	H	-0.088086	0.457438	0.394762
H245	H	-0.618706	0.070228	-0.074728
H246	H	-0.118706	0.570228	0.425272
H247	H	-0.830511	0.000039	-0.435596
H248	H	-0.330511	0.500039	0.064404
O249	O	-1.039173	-0.000088	-0.317235
O250	O	-0.539173	0.499912	0.182765
C251	C	-1.080613	-0.075953	-0.340058
C252	C	-0.580613	0.424047	0.159942
H253	H	-1.055433	-0.101241	-0.398295
H254	H	-0.555433	0.398759	0.101705
H255	H	-1.145259	-0.058897	-0.347072
H256	H	-0.645259	0.441103	0.152928
H257	H	-1.074658	-0.129066	-0.293263
H258	H	-0.574658	0.370934	0.206737
H259	H	-0.313374	0.000022	0.322179
H260	H	0.186626	0.500022	0.822179
O261	O	-0.157445	0.000184	0.320269
O262	O	0.342555	0.500184	0.820269
C263	C	-0.174700	0.076031	0.365105
C264	C	0.325300	0.576031	0.865105
H265	H	-0.199945	0.129043	0.325505
H266	H	0.300055	0.629043	0.825505
H267	H	-0.118678	0.101492	0.392727
H268	H	0.381322	0.601492	0.892727
H269	H	-0.219428	0.058889	0.413339
H270	H	0.280572	0.558889	0.913339
H271	H	-0.705105	0.000007	0.028700
H272	H	-0.205105	0.500007	0.528700
