data_functionalizedCrystal
_audit_creation_method	'MofGen! by Chris Wilmer'
_symmetry_space_group_name_H-M	'P1'
_symmetry_Int_Tables_number	1
_symmetry_cell_setting	triclinic
loop_
_symmetry_equiv_pos_as_xyz
  x,y,z
_cell_length_a	14.908558
_cell_length_b	12.827892
_cell_length_c	12.827885
_cell_angle_alpha	90.031912
_cell_angle_beta	86.686119
_cell_angle_gamma	93.279629
loop_
_atom_site_label
_atom_site_type_symbol
_atom_site_fract_x
_atom_site_fract_y
_atom_site_fract_z
Zn1	Zn	1.379203	0.508332	-0.682897
Zn2	Zn	1.879203	1.008332	-0.182897
Zn3	Zn	1.379086	0.683102	-0.508143
Zn4	Zn	1.879086	1.183102	-0.008143
Zn5	Zn	1.228334	0.498281	-0.498100
Zn6	Zn	1.728334	0.998281	0.001900
Zn7	Zn	1.228296	0.672928	-0.672777
Zn8	Zn	1.728296	1.172928	-0.172777
O9	O	1.303730	0.590661	-0.590479
O10	O	1.803730	1.090661	-0.090479
O11	O	1.505433	0.539980	-0.668153
O12	O	2.005433	1.039980	-0.168153
O13	O	1.359055	0.658637	-0.360572
O14	O	1.859055	1.158637	0.139428
O15	O	1.248412	0.353383	-0.522645
O16	O	1.748412	0.853383	-0.022645
O17	O	1.505346	0.668383	-0.539762
O18	O	2.005346	1.168383	-0.039762
O19	O	1.359255	0.360767	-0.658415
O20	O	1.859255	0.860767	-0.158415
O21	O	1.248298	0.522850	-0.353193
O22	O	1.748298	1.022850	0.146807
O23	O	1.102084	0.512984	-0.512833
O24	O	1.602084	1.012984	-0.012833
O25	O	1.248348	0.651042	-0.820358
O26	O	1.748348	1.151042	-0.320358
O27	O	1.102056	0.641296	-0.641168
O28	O	1.602056	1.141296	-0.141168
O29	O	1.359218	0.530115	-0.827793
O30	O	1.859218	1.030115	-0.327793
O31	O	1.359018	0.827984	-0.529950
O32	O	1.859018	1.327984	-0.029950
O33	O	1.248234	0.820509	-0.650906
O34	O	1.748234	1.320509	-0.150906
C35	C	1.069336	0.574946	-0.574813
C36	C	1.569336	1.074946	-0.074813
C37	C	0.969062	0.568248	-0.568136
C38	C	1.469062	1.068248	-0.068136
C39	C	0.827717	0.491906	-0.492017
C40	C	1.327717	0.991906	0.007983
C41	C	0.921934	0.498193	-0.498287
C42	C	1.421934	0.998193	0.001713
C43	C	0.921966	0.632018	-0.631722
C44	C	1.421966	1.132018	-0.131722
C45	C	0.827749	0.625730	-0.625453
C46	C	1.327749	1.125730	-0.125453
C47	C	0.780628	0.555673	-0.555597
C48	C	1.280628	1.055673	-0.055597
C49	C	0.686409	0.549391	-0.549323
C50	C	1.186409	1.049391	-0.049323
C51	C	0.686442	0.683210	-0.682763
C52	C	1.186442	1.183210	-0.182763
C53	C	0.780659	0.689498	-0.689032
C54	C	1.280659	1.189498	-0.189032
C55	C	1.303634	0.862164	-0.590444
C56	C	1.803634	1.362164	-0.090444
C57	C	1.303675	0.978320	-0.590470
C58	C	1.803675	1.478320	-0.090470
C59	C	1.358491	1.033674	-0.657706
C60	C	1.858491	1.533674	-0.157706
C61	C	1.358535	1.153727	-0.657734
C62	C	1.858535	1.653727	-0.157734
C63	C	1.539039	0.606438	-0.606207
C64	C	2.039039	1.106438	-0.106207
C65	C	1.639313	0.613161	-0.612909
C66	C	2.139313	1.113161	-0.112909
C67	C	1.303792	0.590565	-0.863054
C68	C	1.803792	1.090565	-0.363054
C69	C	1.303818	0.590524	-0.979209
C70	C	1.803818	1.090524	-0.479209
C71	C	1.303814	1.318096	-0.590528
C72	C	1.803814	1.818096	-0.090528
C73	C	1.303756	1.201939	-0.590520
C74	C	1.803756	1.701939	-0.090520
C75	C	1.249030	0.523321	-1.027343
C76	C	1.749030	1.023321	-0.527343
C77	C	1.249056	0.523277	-1.147395
C78	C	1.749056	1.023277	-0.647395
C79	C	1.303720	0.590685	-0.318968
C80	C	1.803720	1.090685	0.181032
C81	C	1.303868	0.590443	-0.202826
C82	C	1.803868	1.090443	0.297174
H83	H	0.819038	0.746534	-0.745909
H84	H	1.319038	1.246534	-0.245909
O85	O	1.186874	0.447144	-0.964208
O86	O	1.686874	0.947144	-0.464208
H87	H	1.116047	0.460293	-0.980350
H88	H	1.616047	0.960293	-0.480350
H89	H	1.256826	1.154358	-0.532950
H90	H	1.756826	1.654358	-0.032950
O91	O	1.241556	1.033275	-0.514242
O92	O	1.741556	1.533275	-0.014242
H93	H	1.170716	1.007710	-0.527342
H94	H	1.670716	1.507710	-0.027342
H95	H	0.960347	0.689051	-0.688600
H96	H	1.460347	1.189051	-0.188600
O97	O	0.635655	0.751992	-0.751349
O98	O	1.135655	1.251992	-0.251349
H99	H	0.562223	0.735849	-0.735260
H100	H	1.062223	1.235849	-0.235260
H101	H	1.405469	1.201316	-0.715294
H102	H	1.905469	1.701316	-0.215294
H103	H	0.648045	0.492346	-0.492443
H104	H	1.148045	0.992346	0.007557
H105	H	1.405387	0.992187	-0.715253
H106	H	1.905387	1.492187	-0.215253
H107	H	1.202154	0.465738	-1.188805
H108	H	1.702154	0.965738	-0.688805
H109	H	1.350780	0.647977	-1.161424
H110	H	1.850780	1.147977	-0.661424
O111	O	1.365973	0.666710	-1.042334
O112	O	1.865973	1.166710	-0.542334
H113	H	1.436799	0.653575	-1.026179
H114	H	1.936799	1.153575	-0.526179
O115	O	0.776873	0.416366	-0.416672
O116	O	1.276873	0.916366	0.083328
H117	H	0.794964	0.335570	-0.435931
H118	H	1.294964	0.835570	0.064069
O119	O	0.972728	0.429433	-0.429698
O120	O	1.472728	0.929433	0.070302
H121	H	0.924130	0.379674	-0.380063
H122	H	1.424130	0.879674	0.119937
