data_functionalizedCrystal
_audit_creation_method	'MofGen! by Chris Wilmer'
_symmetry_space_group_name_H-M	'P1'
_symmetry_Int_Tables_number	1
_symmetry_cell_setting	triclinic
loop_
_symmetry_equiv_pos_as_xyz
  x,y,z
_cell_length_a	12.827892
_cell_length_b	11.169417
_cell_length_c	12.827885
_cell_angle_alpha	90.019767
_cell_angle_beta	89.970214
_cell_angle_gamma	89.985670
loop_
_atom_site_label
_atom_site_type_symbol
_atom_site_fract_x
_atom_site_fract_y
_atom_site_fract_z
Zn1	Zn	-0.416012	-1.834897	-0.590862
Zn2	Zn	0.083988	-1.334897	-0.090862
Zn3	Zn	-0.590789	-1.834776	-0.416123
Zn4	Zn	-0.090789	-1.334776	0.083877
Zn5	Zn	-0.416060	-1.634190	-0.416135
Zn6	Zn	0.083940	-1.134190	0.083865
Zn7	Zn	-0.590708	-1.634173	-0.590821
Zn8	Zn	-0.090708	-1.134173	-0.090821
O9	O	-0.503392	-1.734509	-0.503485
O10	O	-0.003392	-1.234509	-0.003485
O11	O	-0.439211	-2.002831	-0.567695
O12	O	0.060789	-1.502831	-0.067695
O13	O	-0.567665	-1.808124	-0.269888
O14	O	-0.067665	-1.308124	0.230112
O15	O	-0.269817	-1.660872	-0.439335
O16	O	0.230183	-1.160872	0.060665
O17	O	-0.567619	-2.002742	-0.439315
O18	O	-0.067619	-1.502742	0.060685
O19	O	-0.269782	-1.808331	-0.567707
O20	O	0.230218	-1.308331	-0.067707
O21	O	-0.439292	-1.660754	-0.269897
O22	O	0.060708	-1.160754	0.230103
O23	O	-0.439213	-1.466238	-0.439295
O24	O	0.060787	-0.966238	0.060705
O25	O	-0.567481	-1.660844	-0.737063
O26	O	-0.067481	-1.160844	-0.237063
O27	O	-0.567527	-1.466226	-0.567636
O28	O	-0.067527	-0.966226	-0.067636
O29	O	-0.439132	-1.808315	-0.737093
O30	O	0.060868	-1.308315	-0.237093
O31	O	-0.737015	-1.808108	-0.439275
O32	O	-0.237015	-1.308108	0.060725
O33	O	-0.736955	-1.660726	-0.567625
O34	O	-0.236955	-1.160726	-0.067625
C35	C	-0.503367	-1.422684	-0.503463
C36	C	-0.003367	-0.922684	-0.003463
C37	C	-0.503382	-1.289284	-0.503478
C38	C	-0.003382	-0.789284	-0.003478
C39	C	-0.774902	-1.734434	-0.503467
C40	C	-0.274902	-1.234434	-0.003467
C41	C	-0.891055	-1.734512	-0.503494
C42	C	-0.391055	-1.234512	-0.003494
C43	C	-0.942835	-1.807528	-0.440053
C44	C	-0.442835	-1.307528	0.059947
C45	C	-1.062885	-1.807610	-0.440079
C46	C	-0.562885	-1.307610	0.059921
C47	C	-0.230822	-1.734617	-0.503527
C48	C	0.269178	-1.234617	-0.003527
C49	C	-0.114669	-1.734663	-0.503544
C50	C	0.385331	-1.234663	-0.003544
C51	C	-0.503292	-1.734591	-0.776056
C52	C	-0.003292	-1.234591	-0.276056
C53	C	-0.503249	-1.734626	-0.892209
C54	C	-0.003249	-1.234626	-0.392209
C55	C	-0.503409	-1.047551	-0.503500
C56	C	-0.003409	-0.547551	-0.003500
C57	C	-0.503394	-1.180951	-0.503485
C58	C	-0.003394	-0.680951	-0.003485
C59	C	-0.439726	-1.807607	-0.944009
C60	C	0.060274	-1.307607	-0.444009
C61	C	-0.439680	-1.807645	-1.064059
C62	C	0.060320	-1.307645	-0.564059
C63	C	-0.503417	-1.734497	-0.231975
C64	C	-0.003417	-1.234497	0.268025
C65	C	-0.503165	-1.734695	-0.115823
C66	C	-0.003165	-1.234695	0.384177
H67	H	-1.107414	-1.870118	-0.385762
H68	H	-0.607414	-1.370118	0.114238
N69	N	-1.055696	-1.651847	-0.575488
N70	N	-0.555696	-1.151847	-0.075488
H71	H	-1.010336	-1.700604	-0.623903
H72	H	-0.510336	-1.200604	-0.123903
H73	H	-1.106817	-1.603192	-0.617775
H74	H	-0.606817	-1.103192	-0.117775
H75	H	-0.935602	-1.672066	-0.557832
H76	H	-0.435602	-1.172066	-0.057832
H77	H	-0.385371	-1.870057	-0.899479
H78	H	0.114629	-1.370057	-0.399479
N79	N	-0.367642	-1.890422	-1.123054
N80	N	0.132358	-1.390422	-0.623054
H81	H	-0.377822	-1.878718	-1.200451
H82	H	0.122178	-1.378718	-0.700451
H83	H	-0.292997	-1.871786	-1.104041
H84	H	0.207003	-1.371786	-0.604041
N85	N	-0.575216	-1.651914	-1.056846
N86	N	-0.075216	-1.151914	-0.556846
H87	H	-0.623628	-1.700696	-1.011556
H88	H	-0.123628	-1.200696	-0.511556
H89	H	-0.532648	-1.596358	-1.011624
H90	H	-0.032648	-1.096358	-0.511624
N91	N	-0.883842	-1.890266	-0.368084
N92	N	-0.383842	-1.390266	0.131916
H93	H	-0.806444	-1.878482	-0.378269
H94	H	-0.306444	-1.378482	0.121731
H95	H	-0.902932	-1.871669	-0.293422
H96	H	-0.402932	-1.371669	0.206578
N97	N	-0.575242	-1.651898	-0.951193
N98	N	-0.075242	-1.151898	-0.451193
H99	H	-0.649936	-1.670480	-0.932249
H100	H	-0.149936	-1.170480	-0.432249
H101	H	-0.558941	-1.566159	-0.932230
H102	H	-0.058941	-1.066159	-0.432230
