data_functionalizedCrystal
_audit_creation_method	'MofGen! by Chris Wilmer'
_symmetry_space_group_name_H-M	'P1'
_symmetry_Int_Tables_number	1
_symmetry_cell_setting	triclinic
loop_
_symmetry_equiv_pos_as_xyz
  x,y,z
_cell_length_a	27.731994
_cell_length_b	19.288865
_cell_length_c	18.366186
_cell_angle_alpha	90.011479
_cell_angle_beta	89.997037
_cell_angle_gamma	97.121609
loop_
_atom_site_label
_atom_site_type_symbol
_atom_site_fract_x
_atom_site_fract_y
_atom_site_fract_z
O1	O	0.641197	-0.082470	-0.060454
O2	O	1.141197	0.417530	0.439546
O3	O	0.500437	-0.095076	-0.060479
O4	O	1.000437	0.404924	0.439521
O5	O	0.574884	0.012384	-0.060452
O6	O	1.074884	0.512384	0.439548
O7	O	0.566750	-0.189930	-0.060482
O8	O	1.066750	0.310070	0.439518
O9	O	0.574872	0.012389	0.060648
O10	O	1.074872	0.512389	0.560648
O11	O	0.500425	-0.095071	0.060620
O12	O	1.000425	0.404929	0.560620
O13	O	0.641184	-0.082465	0.060645
O14	O	1.141184	0.417535	0.560645
Zn15	Zn	0.570802	-0.088767	0.079860
Zn16	Zn	1.070802	0.411233	0.579860
Zn17	Zn	0.570819	-0.088774	-0.079694
Zn18	Zn	1.070819	0.411226	0.420306
O19	O	0.566737	-0.189925	0.060618
O20	O	1.066737	0.310075	0.560618
C21	C	0.482423	-0.094815	0.000067
C22	C	0.982423	0.405185	0.500067
C23	C	0.428764	-0.094035	0.000058
C24	C	0.928764	0.405965	0.500058
C25	C	0.096024	-0.089124	0.066098
C26	C	0.596024	0.410876	0.566098
C27	C	-0.105643	-0.086162	0.066107
C28	C	0.394357	0.413838	0.566107
O29	O	-0.131723	-0.085747	0.122247
O30	O	0.368277	0.414253	0.622247
N31	N	-0.130852	-0.085797	0.000096
N32	N	0.369148	0.414203	0.500096
C33	C	-0.105641	-0.086168	-0.065922
C34	C	0.394359	0.413832	0.434078
O35	O	-0.131709	-0.085782	-0.122068
O36	O	0.368291	0.414218	0.377932
C37	C	0.096026	-0.089125	-0.065930
C38	C	0.596026	0.410875	0.434070
C39	C	0.121232	-0.089497	0.000085
C40	C	0.621232	0.410503	0.500085
C41	C	0.121230	-0.089496	0.132108
C42	C	0.621230	0.410504	0.632108
C43	C	0.171643	-0.090240	0.132106
C44	C	0.671643	0.409760	0.632106
C45	C	0.196851	-0.090613	0.066093
C46	C	0.696851	0.409387	0.566093
C47	C	0.171645	-0.090242	0.000083
C48	C	0.671645	0.409758	0.500083
C49	C	0.121237	-0.089491	-0.131947
C50	C	0.621237	0.410509	0.368053
C51	C	0.171657	-0.090229	-0.131943
C52	C	0.671657	0.409771	0.368057
C53	C	0.196862	-0.090601	-0.065928
C54	C	0.696862	0.409399	0.434072
C55	C	0.247266	-0.091359	-0.065933
C56	C	0.747266	0.408641	0.434067
N57	N	0.272475	-0.091724	0.000078
N58	N	0.772475	0.408276	0.500078
C59	C	0.247267	-0.091351	0.066091
C60	C	0.747267	0.408649	0.566091
C61	C	-0.211519	-0.084616	-0.065913
C62	C	0.288481	0.415384	0.434087
C63	C	-0.261935	-0.083878	-0.065912
C64	C	0.238065	0.416122	0.434088
C65	C	-0.261934	-0.083871	0.066118
C66	C	0.238066	0.416129	0.566118
C67	C	-0.211517	-0.084614	0.066115
C68	C	0.288483	0.415386	0.566115
C69	C	-0.186310	-0.084982	0.000098
C70	C	0.313690	0.415018	0.500098
C71	C	0.353139	-0.092915	0.066080
C72	C	0.853139	0.407085	0.566080
C73	C	0.403557	-0.093662	0.066071
C74	C	0.903557	0.406338	0.566071
C75	C	0.403551	-0.093666	-0.065958
C76	C	0.903551	0.406334	0.434042
C77	C	0.353138	-0.092922	-0.065950
C78	C	0.853138	0.407078	0.434050
C79	C	0.327933	-0.092544	0.000075
C80	C	0.827933	0.407456	0.500075
O81	O	0.273377	-0.091767	-0.122044
O82	O	0.773377	0.408233	0.377956
O83	O	0.273346	-0.091722	0.122229
O84	O	0.773346	0.408278	0.622229
C85	C	0.045611	-0.088380	0.066101
C86	C	0.545611	0.411620	0.566101
C87	C	0.020405	-0.088009	0.000091
C88	C	0.520405	0.411991	0.500091
C89	C	0.045612	-0.088382	-0.065922
C90	C	0.545612	0.411618	0.434078
C91	C	-0.030012	-0.087271	0.000093
C92	C	0.469988	0.412729	0.500093
C93	C	-0.055219	-0.086898	0.066106
C94	C	0.444781	0.413102	0.566106
C95	C	-0.030010	-0.087263	0.132117
C96	C	0.469990	0.412737	0.632117
C97	C	0.020403	-0.088007	0.132114
C98	C	0.520403	0.411993	0.632114
C99	C	0.020403	-0.088017	-0.131933
C100	C	0.520403	0.411983	0.368067
C101	C	-0.030010	-0.087273	-0.131925
C102	C	0.469990	0.412727	0.368075
C103	C	-0.055218	-0.086900	-0.065912
C104	C	0.444782	0.413100	0.434088
C105	C	0.574616	0.038261	0.000100
C106	C	1.074616	0.538261	0.500100
C107	C	0.573831	0.115360	0.000107
C108	C	1.073831	0.615360	0.500107
C109	C	0.659198	-0.082726	0.000097
C110	C	1.159198	0.417274	0.500097
C111	C	0.712857	-0.083505	0.000101
C112	C	1.212857	0.416495	0.500101
C113	C	0.567005	-0.215802	0.000064
C114	C	1.067005	0.284198	0.500064
C115	C	0.567791	-0.292900	0.000053
C116	C	1.067791	0.207100	0.500053
N117	N	0.570795	-0.088762	0.188751
N118	N	1.070795	0.411238	0.688751
C119	C	0.617513	0.160341	0.000118
C120	C	1.117513	0.660341	0.500118
C121	C	0.616774	0.232783	0.000106
C122	C	1.116774	0.732783	0.500106
C123	C	0.572352	0.260241	0.000098
C124	C	1.072352	0.760241	0.500098
C125	C	0.528664	0.215250	0.000082
C126	C	1.028664	0.715250	0.500082
C127	C	0.529403	0.142809	0.000087
C128	C	1.029403	0.642809	0.500087
C129	C	0.537426	0.368303	0.042510
C130	C	1.037426	0.868303	0.542510
C131	C	0.536688	0.440742	0.042510
C132	C	1.036688	0.940742	0.542510
C133	C	0.570069	0.483672	0.000081
C134	C	1.070069	0.983672	0.500081
C135	C	0.604196	0.454154	-0.042339
C136	C	1.104196	0.954154	0.457661
C137	C	0.604936	0.381713	-0.042334
C138	C	1.104936	0.881713	0.457666
C139	C	0.571545	0.338790	0.000093
C140	C	1.071545	0.838790	0.500093
C141	C	0.612954	0.607203	0.000079
C142	C	1.112954	1.107203	0.500079
C143	C	0.612214	0.679647	0.000063
C144	C	1.112214	1.179647	0.500063
C145	C	0.524102	0.662112	0.000046
C146	C	1.024102	1.162112	0.500046
C147	C	0.524844	0.589671	0.000055
C148	C	1.024844	1.089671	0.500055
C149	C	0.569271	0.562221	0.000075
C150	C	1.069271	1.062221	0.500075
N151	N	0.570831	-0.088773	-0.188585
N152	N	1.070831	0.411227	0.311415
C153	C	0.603770	-0.041202	0.226864
C154	C	1.103770	0.458798	0.726864
C155	C	0.603773	-0.041199	0.303092
C156	C	1.103773	0.458801	0.803092
C157	C	0.570805	-0.088768	0.341204
C158	C	1.070805	0.411232	0.841204
C159	C	0.537823	-0.136331	0.303082
C160	C	1.037823	0.363669	0.803082
C161	C	0.537818	-0.136328	0.226855
C162	C	1.037818	0.363672	0.726855
C163	C	0.564334	-0.152098	0.461954
C164	C	1.064334	0.347902	0.961954
C165	C	0.564343	-0.152101	0.538179
C166	C	1.064343	0.347899	1.038179
C167	C	0.570819	-0.088776	0.576311
C168	C	1.070819	0.411224	1.076311
C169	C	0.577296	-0.025444	0.538209
C170	C	1.077296	0.474556	1.038209
C171	C	0.577291	-0.025442	0.461983
C172	C	1.077291	0.474558	0.961983
C173	C	0.570807	-0.088776	0.423858
C174	C	1.070807	0.411224	0.923858
C175	C	0.603800	-0.041209	0.697079
C176	C	1.103800	0.458791	1.197079
C177	C	0.603800	-0.041205	0.773308
C178	C	1.103800	0.458795	1.273308
C179	C	0.537852	-0.136343	0.773297
C180	C	1.037852	0.363657	1.273297
C181	C	0.537850	-0.136341	0.697069
C182	C	1.037850	0.363659	1.197069
C183	C	0.570826	-0.088775	0.658965
C184	C	1.070826	0.411225	1.158965
H185	H	0.040921	-0.088310	0.185871
H186	H	0.540921	0.411690	0.685871
O187	O	-0.057230	-0.087160	0.203319
O188	O	0.442770	0.412840	0.703319
H189	H	-0.096531	-0.086685	0.192221
H190	H	0.403469	0.413315	0.692221
O191	O	-0.289119	-0.083465	-0.137113
O192	O	0.210881	0.416535	0.362887
H193	H	-0.263114	-0.083834	-0.183012
H194	H	0.236886	0.416166	0.316988
O195	O	-0.184333	-0.085016	-0.137121
O196	O	0.315667	0.414984	0.362879
H197	H	-0.198423	-0.132240	-0.168776
H198	H	0.301577	0.367760	0.331224
H199	H	0.192162	-0.090539	0.185862
H200	H	0.692162	0.409461	0.685862
O201	O	0.557360	-0.220405	0.579273
O202	O	1.057360	0.279595	1.079273
H203	H	0.589641	-0.224536	0.613984
H204	H	1.089641	0.275464	1.113984
O205	O	0.665430	0.130738	0.000134
O206	O	1.165430	0.630738	0.500134
H207	H	0.658608	0.072808	0.000141
H208	H	1.158608	0.572808	0.500141
H209	H	0.487932	0.684468	0.000036
H210	H	0.987932	1.184468	0.500036
O211	O	0.501422	0.322005	0.088283
O212	O	1.001422	0.822005	0.588283
H213	H	0.478971	0.284460	0.052505
H214	H	0.978971	0.784460	0.552505
H215	H	0.582570	0.026121	0.569255
H216	H	1.082570	0.526121	1.069255
O217	O	0.557353	-0.220402	0.420826
O218	O	1.057353	0.279598	0.920826
H219	H	0.552859	-0.264439	0.460125
H220	H	1.052859	0.235561	0.960125
H221	H	0.630650	-0.002475	0.666053
H222	H	1.130650	0.497525	1.166053
H223	H	0.100712	-0.089190	0.185867
H224	H	0.600712	0.410810	0.685867
O225	O	0.430743	-0.094075	0.137276
O226	O	0.930743	0.405925	0.637276
H227	H	0.404742	-0.093688	0.183177
H228	H	0.904742	0.406312	0.683177
H229	H	0.192178	-0.090528	-0.185704
H230	H	0.692178	0.409472	0.314296
O231	O	-0.184331	-0.085019	0.137316
O232	O	0.315669	0.414981	0.637316
H233	H	-0.210335	-0.084636	0.183215
H234	H	0.289665	0.415364	0.683215
H235	H	0.511000	-0.175072	0.666036
H236	H	1.011000	0.324928	1.166036
H237	H	0.493831	0.106185	0.000078
H238	H	0.993831	0.606185	0.500078
O239	O	0.502247	-0.187631	0.185751
O240	O	1.002247	0.312369	0.685751
H241	H	0.478816	-0.158625	0.151041
H242	H	0.978816	0.341375	0.651041
H243	H	-0.282467	-0.083569	0.119868
H244	H	0.217533	0.416431	0.619868
O245	O	0.477729	0.541148	0.000061
O246	O	0.977729	1.041148	0.500061
H247	H	0.446714	0.572409	0.000062
H248	H	0.946714	1.072409	0.500062
O249	O	0.480749	0.244859	0.000081
O250	O	0.980749	0.744859	0.500081
H251	H	0.487573	0.302789	0.000090
H252	H	0.987573	0.802789	0.500090
O253	O	0.094060	-0.089054	-0.203150
O254	O	0.594060	0.410946	0.296850
H255	H	0.120069	-0.089416	-0.249046
H256	H	0.620069	0.410584	0.250954
H257	H	0.508898	0.464769	0.077047
H258	H	1.008898	0.964769	0.577047
O259	O	0.639330	0.010108	0.185763
O260	O	1.139330	0.510108	0.685763
H261	H	0.662257	0.043186	0.225077
H262	H	1.162257	0.543186	0.725077
O263	O	0.639346	0.010093	0.344214
O264	O	1.139346	0.510093	0.844214
H265	H	0.662278	0.043164	0.304911
H266	H	1.162278	0.543164	0.804911
O267	O	0.325949	-0.092522	-0.137151
O268	O	0.825949	0.407478	0.362849
H269	H	0.331210	-0.140023	-0.168818
H270	H	0.831210	0.359977	0.331182
O271	O	0.325956	-0.092516	0.137290
O272	O	0.825956	0.407484	0.637290
H273	H	0.351960	-0.092908	0.183184
H274	H	0.851960	0.407092	0.683184
O275	O	0.430745	-0.094052	-0.137157
O276	O	0.930745	0.405948	0.362843
H277	H	0.470037	-0.094619	-0.126061
H278	H	0.970037	0.405381	0.373939
O279	O	-0.057193	-0.086850	-0.203132
O280	O	0.442807	0.413150	0.296868
H281	H	-0.031188	-0.087220	-0.249031
H282	H	0.468812	0.412780	0.250969
O283	O	0.047588	-0.088425	-0.203136
O284	O	0.547588	0.411575	0.296864
H285	H	0.021584	-0.088051	-0.249031
H286	H	0.521584	0.411949	0.250969
H287	H	0.652347	0.269413	0.000113
H288	H	1.152347	0.769413	0.500113
O289	O	0.641733	0.349871	-0.088094
O290	O	1.141733	0.849871	0.411906
H291	H	0.664819	0.391887	-0.117607
H292	H	1.164819	0.891887	0.382393
H293	H	0.511007	-0.175072	0.804327
H294	H	1.011007	0.324928	1.304327
H295	H	0.582564	0.026125	0.430963
H296	H	1.082564	0.526125	0.930963
H297	H	0.630651	-0.002472	0.804340
H298	H	1.130651	0.497528	1.304340
H299	H	0.510979	-0.175062	0.334117
H300	H	1.010979	0.324938	0.834117
H301	H	0.631378	0.489106	-0.076889
H302	H	1.131378	0.989106	0.423111
H303	H	0.649129	0.584853	0.000092
H304	H	1.149129	1.084853	0.500092
H305	H	0.647787	0.716270	0.000068
H306	H	1.147787	1.216270	0.500068
