data_functionalizedCrystal
_audit_creation_method	'MofGen! by Chris Wilmer'
_symmetry_space_group_name_H-M	'P1'
_symmetry_Int_Tables_number	1
_symmetry_cell_setting	triclinic
loop_
_symmetry_equiv_pos_as_xyz
  x,y,z
_cell_length_a	10.654550
_cell_length_b	10.654548
_cell_length_c	9.730223
_cell_angle_alpha	90.000884
_cell_angle_beta	89.997197
_cell_angle_gamma	84.484652
loop_
_atom_site_label
_atom_site_type_symbol
_atom_site_fract_x
_atom_site_fract_y
_atom_site_fract_z
O1	O	-1.667833	-0.176400	-0.114173
O2	O	-1.302354	-0.193207	-0.114197
O3	O	-1.493497	-0.002064	-0.114190
O4	O	-1.476690	-0.367543	-0.114180
O5	O	-1.493496	-0.002055	0.114390
O6	O	-1.302353	-0.193198	0.114383
O7	O	-1.667831	-0.176392	0.114407
Zn8	Zn	-1.485092	-0.184793	0.150687
Zn9	Zn	-1.485094	-0.184805	-0.150477
O10	O	-1.476688	-0.367534	0.114400
C11	C	-1.255555	-0.191968	0.000090
C12	C	-1.116112	-0.188276	0.000080
C13	C	-1.714630	-0.177630	0.000117
C14	C	-1.854073	-0.181322	0.000118
C15	C	-1.492263	0.044738	0.000095
C16	C	-1.488572	0.184182	0.000082
N17	N	-1.485096	-0.184804	-0.356014
C18	C	-1.036626	-0.300818	0.000087
C19	C	-0.905605	-0.297341	0.000111
C20	C	-0.933570	-0.068772	0.000115
C21	C	-1.064588	-0.072250	0.000101
C22	C	-1.483357	0.380717	-0.124511
C23	C	-1.486838	0.249697	-0.124516
C24	C	-1.486837	0.249695	0.124694
C25	C	-1.483365	0.380714	0.124698
C26	C	-1.477924	0.585664	0.000105
C27	C	-1.481619	0.446221	0.000091
C28	C	-1.569895	-0.100334	-0.427936
C29	C	-1.569900	-0.100327	-0.571819
C30	C	-1.400297	-0.269264	-0.571844
C31	C	-1.400298	-0.269276	-0.427964
N32	N	-1.485099	-0.184785	0.356223
H33	H	-0.840892	-0.388984	0.000119
O34	O	-0.877988	0.056363	0.000131
H35	H	-0.955275	0.134037	0.000139
H36	H	-1.129309	0.019401	0.000099
H37	H	-1.331254	-0.338038	-0.630440
O38	O	-1.481466	0.451377	-0.258901
H39	H	-1.483264	0.383812	-0.345544
H40	H	-1.488255	0.196370	-0.225980
H41	H	-1.331245	-0.338068	-0.369400
H42	H	-1.481953	0.434048	0.226170
O43	O	-1.092206	-0.425954	0.000093
H44	H	-1.014917	-0.503626	0.000120
O45	O	-1.488710	0.179041	0.259089
H46	H	-1.491404	0.076929	0.238156
H47	H	-1.638944	-0.031553	-0.369358
O48	O	-1.661352	-0.009212	-0.649399
H49	H	-1.720305	0.049528	-0.575190
