data_functionalizedCrystal
_audit_creation_method	'MofGen! by Chris Wilmer'
_symmetry_space_group_name_H-M	'P1'
_symmetry_Int_Tables_number	1
_symmetry_cell_setting	triclinic
loop_
_symmetry_equiv_pos_as_xyz
  x,y,z
_cell_length_a	18.215407
_cell_length_b	16.625546
_cell_length_c	18.215399
_cell_angle_alpha	90.029176
_cell_angle_beta	90.019833
_cell_angle_gamma	90.022916
loop_
_atom_site_label
_atom_site_type_symbol
_atom_site_fract_x
_atom_site_fract_y
_atom_site_fract_z
Zn1	Zn	1.125084	-0.321000	0.416110
Zn2	Zn	1.458418	0.012333	0.749443
Zn3	Zn	1.791751	0.345666	1.082776
Zn4	Zn	1.124998	-0.455841	0.293041
Zn5	Zn	1.458331	-0.122507	0.626374
Zn6	Zn	1.791665	0.210826	0.959707
Zn7	Zn	1.002017	-0.321027	0.293057
Zn8	Zn	1.335350	0.012307	0.626390
Zn9	Zn	1.668684	0.345640	0.959724
Zn10	Zn	1.001988	-0.455796	0.416066
Zn11	Zn	1.335321	-0.122462	0.749399
Zn12	Zn	1.668655	0.210871	1.082732
O13	O	1.063522	-0.388416	0.354568
O14	O	1.396855	-0.055082	0.687902
O15	O	1.730188	0.278251	1.021235
O16	O	1.228057	-0.338895	0.399796
O17	O	1.561390	-0.005562	0.733129
O18	O	1.894724	0.327772	1.066463
O19	O	1.108660	-0.437987	0.190059
O20	O	1.441993	-0.104654	0.523392
O21	O	1.775327	0.228680	0.856725
O22	O	1.018390	-0.208191	0.309405
O23	O	1.351724	0.125143	0.642739
O24	O	1.685057	0.458476	0.976072
O25	O	1.227994	-0.437961	0.309378
O26	O	1.561327	-0.104628	0.642711
O27	O	1.894660	0.228705	0.976044
O28	O	1.108807	-0.208171	0.399812
O29	O	1.442141	0.125162	0.733145
O30	O	1.775474	0.458495	1.066478
O31	O	1.018307	-0.338940	0.190070
O32	O	1.351640	-0.005606	0.523404
O33	O	1.684973	0.327727	0.856737
O34	O	0.899029	-0.338896	0.309363
O35	O	1.232362	-0.005563	0.642696
O36	O	1.565695	0.327770	0.976029
O37	O	1.018341	-0.437885	0.519056
O38	O	1.351674	-0.104552	0.852389
O39	O	1.685008	0.228782	1.185722
O40	O	0.899008	-0.437910	0.399737
O41	O	1.232341	-0.104577	0.733070
O42	O	1.565674	0.228756	1.066403
O43	O	1.108779	-0.338851	0.519088
O44	O	1.442113	-0.005518	0.852421
O45	O	1.775446	0.327815	1.185755
O46	O	1.108632	-0.568667	0.309335
O47	O	1.441965	-0.235334	0.642668
O48	O	1.775299	0.098000	0.976002
O49	O	1.018257	-0.568634	0.399721
O50	O	1.351591	-0.235301	0.733054
O51	O	1.684924	0.098033	1.066387
C52	C	0.872315	-0.388402	0.354547
C53	C	1.205649	-0.055069	0.687880
C54	C	1.538982	0.278265	1.021214
C55	C	0.790517	-0.388415	0.354556
C56	C	1.123850	-0.055082	0.687889
C57	C	1.457183	0.278251	1.021222
C58	C	0.602331	-0.440053	0.401554
C59	C	0.935664	-0.106720	0.734887
C60	C	1.268998	0.226613	1.068221
C61	C	0.525472	-0.440056	0.401563
C62	C	0.858805	-0.106722	0.734897
C63	C	1.192139	0.226611	1.068230
C64	C	0.525465	-0.336793	0.307598
C65	C	0.858798	-0.003460	0.640932
C66	C	1.192131	0.329874	0.974265
C67	C	0.602322	-0.336787	0.307593
C68	C	0.935655	-0.003454	0.640927
C69	C	1.268989	0.329880	0.974260
C70	C	0.640753	-0.388422	0.354570
C71	C	0.974086	-0.055088	0.687904
C72	C	1.307420	0.278245	1.021237
C73	C	0.487037	-0.388430	0.354584
C74	C	0.820370	-0.055097	0.687918
C75	C	1.153704	0.278237	1.021251
C76	C	0.403703	-0.388433	0.354594
C77	C	0.737037	-0.055099	0.687927
C78	C	1.070370	0.278234	1.021261
C79	C	0.724092	-0.388418	0.354562
C80	C	1.057425	-0.055085	0.687895
C81	C	1.390759	0.278248	1.021228
C82	C	1.063452	-0.597907	0.354537
C83	C	1.396785	-0.264573	0.687871
C84	C	1.730119	0.068760	1.021204
C85	C	1.063490	-0.687528	0.354549
C86	C	1.396823	-0.354194	0.687882
C87	C	1.730156	-0.020861	1.021215
C88	C	1.063618	-1.015703	0.354625
C89	C	1.396951	-0.682370	0.687959
C90	C	1.730285	-0.349037	1.021292
C91	C	1.063580	-0.924395	0.354606
C92	C	1.396913	-0.591062	0.687940
C93	C	1.730247	-0.257728	1.021273
C94	C	1.063553	-0.851618	0.354587
C95	C	1.396887	-0.518285	0.687920
C96	C	1.730220	-0.184952	1.021253
C97	C	1.063516	-0.760304	0.354568
C98	C	1.396850	-0.426971	0.687902
C99	C	1.730183	-0.093637	1.021235
C100	C	1.255475	-0.388430	0.354590
C101	C	1.588808	-0.055097	0.687923
C102	C	1.922141	0.278236	1.021256
C103	C	1.337274	-0.388436	0.354599
C104	C	1.670607	-0.055103	0.687932
C105	C	2.003940	0.278230	1.021266
C106	C	1.063567	-0.388360	0.546521
C107	C	1.396900	-0.055027	0.879855
C108	C	1.730233	0.278306	1.213188
C109	C	1.063586	-0.388336	0.628320
C110	C	1.396919	-0.055003	0.961653
C111	C	1.730252	0.278330	1.294987
C112	C	1.063612	-0.178107	0.354615
C113	C	1.396945	0.155227	0.687949
C114	C	1.730278	0.488560	1.021282
C115	C	1.063650	-0.088486	0.354635
C116	C	1.396983	0.244848	0.687969
C117	C	1.730317	0.578181	1.021302
C118	C	1.063519	-0.388413	0.163362
C119	C	1.396853	-0.055080	0.496695
C120	C	1.730186	0.278254	0.830029
C121	C	1.063643	-0.388209	0.081563
C122	C	1.396976	-0.054876	0.414897
C123	C	1.730310	0.278457	0.748230
C124	C	1.110694	-0.336721	0.816532
C125	C	1.444027	-0.003388	1.149866
C126	C	1.777361	0.329945	1.483199
C127	C	1.110703	-0.336698	0.893391
C128	C	1.444036	-0.003365	1.226724
C129	C	1.777369	0.329969	1.560058
C130	C	1.016530	-0.439827	0.893346
C131	C	1.349863	-0.106493	1.226679
C132	C	1.683196	0.226840	1.560013
C133	C	1.016518	-0.439846	0.816489
C134	C	1.349851	-0.106512	1.149822
C135	C	1.683184	0.226821	1.483155
C136	C	1.063604	-0.388294	0.778084
C137	C	1.396937	-0.054961	1.111417
C138	C	1.730271	0.278373	1.444750
C139	C	1.063625	-0.388252	0.931800
C140	C	1.396958	-0.054918	1.265133
C141	C	1.730291	0.278415	1.598467
C142	C	1.063634	-0.388227	1.015134
C143	C	1.396967	-0.054893	1.348467
C144	C	1.730301	0.278440	1.681800
C145	C	1.063594	-0.388318	0.694745
C146	C	1.396927	-0.054985	1.028078
C147	C	1.730261	0.278349	1.361411
H148	H	0.633606	-0.294737	0.269333
H149	H	0.966940	0.038596	0.602667
H150	H	1.300273	0.371929	0.936000
H151	H	1.149033	-0.294743	0.785265
H152	H	1.482366	0.038591	1.118598
H153	H	1.815699	0.371924	1.451932
H154	H	1.149047	-0.294701	0.924692
H155	H	1.482380	0.038632	1.258026
H156	H	1.815713	0.371966	1.591359
C157	C	1.006237	-0.548323	0.730017
C158	C	1.339571	-0.214989	1.063350
C159	C	1.672904	0.118344	1.396684
C160	C	0.964754	-0.496539	0.774217
C161	C	1.298087	-0.163205	1.107551
C162	C	1.631421	0.170128	1.440884
H163	H	0.974279	-0.583315	0.703918
H164	H	1.307613	-0.249981	1.037251
H165	H	1.640946	0.083352	1.370584
H166	H	1.038285	-0.579160	0.759998
H167	H	1.371618	-0.245826	1.093331
H168	H	1.704951	0.087507	1.426665
H169	H	1.034272	-0.517610	0.696150
H170	H	1.367606	-0.184277	1.029484
H171	H	1.700939	0.149057	1.362817
H172	H	0.936723	-0.527251	0.808088
H173	H	1.270056	-0.193917	1.141421
H174	H	1.603389	0.139416	1.474755
H175	H	0.932694	-0.465698	0.744234
H176	H	1.266027	-0.132365	1.077567
H177	H	1.599361	0.200968	1.410901
C178	C	0.439086	-0.451403	0.500549
C179	C	0.772420	-0.118069	0.833882
C180	C	1.105753	0.215264	1.167215
C181	C	0.483239	-0.496812	0.453209
C182	C	0.816573	-0.163479	0.786543
C183	C	1.149906	0.169855	1.119876
H184	H	0.413018	-0.486444	0.532437
H185	H	0.746352	-0.153111	0.865770
H186	H	1.079685	0.180223	1.199104
H187	H	0.405200	-0.420664	0.472573
H188	H	0.738533	-0.087331	0.805906
H189	H	1.071866	0.246003	1.139240
H190	H	0.469102	-0.416313	0.528750
H191	H	0.802435	-0.082979	0.862083
H192	H	1.135768	0.250354	1.195416
H193	H	0.453223	-0.531898	0.425004
H194	H	0.786557	-0.198565	0.758338
H195	H	1.119890	0.134768	1.091671
H196	H	0.517130	-0.527564	0.481188
H197	H	0.850463	-0.194231	0.814521
H198	H	1.183797	0.139102	1.147854
H199	H	0.978195	-0.481800	0.924625
H200	H	1.311528	-0.148467	1.257958
H201	H	1.644862	0.184867	1.591291
H202	H	0.494165	-0.294755	0.269350
H203	H	0.827498	0.038578	0.602684
H204	H	1.160831	0.371912	0.936017
C205	C	0.594616	-0.542115	0.494443
C206	C	0.927949	-0.208781	0.827776
C207	C	1.261282	0.124552	1.161109
C208	C	0.644575	-0.496800	0.453198
C209	C	0.977908	-0.163467	0.786532
C210	C	1.311242	0.169867	1.119865
H211	H	0.620695	-0.577143	0.526331
H212	H	0.954029	-0.243810	0.859664
H213	H	1.287362	0.089524	1.192997
H214	H	0.564619	-0.572917	0.462333
H215	H	0.897952	-0.239584	0.795666
H216	H	1.231286	0.093750	1.128999
H217	H	0.564658	-0.507014	0.522646
H218	H	0.897991	-0.173680	0.855979
H219	H	1.231325	0.159653	1.189313
H220	H	0.674529	-0.531901	0.424991
H221	H	1.007862	-0.198568	0.758324
H222	H	1.341196	0.134766	1.091658
H223	H	0.674584	-0.465996	0.485313
H224	H	1.007918	-0.132662	0.818646
H225	H	1.341251	0.200671	1.151979
