data_functionalizedCrystal
_audit_creation_method	'MofGen! by Chris Wilmer'
_symmetry_space_group_name_H-M	'P1'
_symmetry_Int_Tables_number	1
_symmetry_cell_setting	triclinic
loop_
_symmetry_equiv_pos_as_xyz
  x,y,z
_cell_length_a	13.032891
_cell_length_b	12.759400
_cell_length_c	12.759393
_cell_angle_alpha	89.970195
_cell_angle_beta	82.805360
_cell_angle_gamma	82.820421
loop_
_atom_site_label
_atom_site_type_symbol
_atom_site_fract_x
_atom_site_fract_y
_atom_site_fract_z
Zn1	Zn	1.597754	-0.622487	-0.797725
Zn2	Zn	1.597646	-0.798189	-0.622033
Zn3	Zn	1.422984	-0.600194	-0.599778
Zn4	Zn	1.422976	-0.775779	-0.775401
O5	O	1.510340	-0.699162	-0.698734
O6	O	1.743982	-0.664502	-0.793075
O7	O	1.574435	-0.771973	-0.472054
O8	O	1.446216	-0.456136	-0.626065
O9	O	1.743902	-0.793590	-0.663995
O10	O	1.574619	-0.472515	-0.771495
O11	O	1.446111	-0.626507	-0.455704
O12	O	1.276741	-0.604778	-0.604419
O13	O	1.446203	-0.755396	-0.925389
O14	O	1.276735	-0.733779	-0.733448
O15	O	1.574612	-0.642773	-0.941790
O16	O	1.574427	-0.942231	-0.642349
O17	O	1.446098	-0.925767	-0.755028
C18	C	1.238819	-0.664428	-0.664097
C19	C	1.122662	-0.649594	-0.649304
C20	C	0.950844	-0.691579	-0.691175
C21	C	1.070899	-0.706916	-0.706462
C22	C	1.510278	-0.972122	-0.698708
C23	C	1.510348	-1.088907	-0.698744
C24	C	1.577178	-1.152204	-0.774523
C25	C	1.577236	-1.261935	-0.774559
C26	C	1.443632	-1.245063	-0.623027
C27	C	1.443569	-1.135333	-0.622997
C28	C	1.782921	-0.734032	-0.733507
C29	C	1.899079	-0.748892	-0.748326
C30	C	1.510418	-0.699071	-0.972778
C31	C	1.510452	-0.699033	-1.089559
C32	C	1.510431	-0.425140	-0.698788
C33	C	1.510469	-0.308369	-0.698810
C34	C	1.577319	-0.640380	-1.152963
C35	C	1.577337	-0.640337	-1.262689
C36	C	1.443617	-0.757608	-1.245597
C37	C	1.443595	-0.757645	-1.135872
C38	C	1.510322	-0.699185	-0.425765
C39	C	1.510492	-0.698953	-0.309010
H40	H	1.115457	-0.767337	-0.766718
O41	O	1.642216	-0.583528	-1.107804
C42	C	1.701391	-0.531542	-0.946338
C43	C	1.627864	-0.596000	-0.997340
H44	H	1.689797	-0.541585	-0.857018
H45	H	1.785682	-0.560761	-0.978588
H46	H	1.683075	-0.444490	-0.965654
H47	H	1.646086	-0.683066	-0.978044
H48	H	1.543595	-0.566694	-0.965088
O49	O	1.378782	-0.814696	-1.074177
C50	C	1.364654	-0.954813	-0.948510
C51	C	1.438169	-0.890276	-1.018311
H52	H	1.412639	-1.015950	-0.903341
H53	H	1.310035	-0.899661	-0.890106
H54	H	1.316856	-0.996654	-1.000474
H55	H	1.486035	-0.848428	-0.966431
H56	H	1.492719	-0.945479	-1.076721
H57	H	1.389264	-1.282878	-0.561355
H58	H	0.906282	-0.631153	-0.630933
H59	H	1.631785	-0.592574	-1.314309
H60	H	1.389142	-1.083793	-0.561287
H61	H	0.943641	-0.809309	-0.808577
O62	O	1.069354	-0.577610	-0.577409
C63	C	0.901091	-0.496654	-0.496659
C64	C	0.961331	-0.578209	-0.578114
H65	H	0.813744	-0.497096	-0.497218
H66	H	0.922386	-0.517746	-0.414594
H67	H	0.922558	-0.414681	-0.517916
H68	H	0.939897	-0.660211	-0.556956
H69	H	0.940031	-0.557027	-0.660156
H70	H	1.631552	-1.114406	-0.836202
O71	O	1.378779	-0.814525	-1.290765
C72	C	1.319505	-0.866395	-1.452220
C73	C	1.393004	-0.801906	-1.401212
H74	H	1.330965	-0.856197	-1.541523
H75	H	1.337823	-0.953486	-1.433049
H76	H	1.235252	-0.837183	-1.419833
H77	H	1.477282	-0.831027	-1.433571
H78	H	1.374597	-0.714826	-1.420377
O79	O	1.642256	-1.323272	-0.848215
C80	C	1.774724	-1.328413	-0.998547
C81	C	1.701159	-1.258830	-0.915171
H82	H	1.822352	-1.276339	-1.052716
H83	H	1.829490	-1.386748	-0.957404
H84	H	1.726730	-1.373672	-1.047291
H85	H	1.749070	-1.213504	-0.866402
H86	H	1.646391	-1.200561	-0.956379
