data_functionalizedCrystal
_audit_creation_method	'MofGen! by Chris Wilmer'
_symmetry_space_group_name_H-M	'P1'
_symmetry_Int_Tables_number	1
_symmetry_cell_setting	triclinic
loop_
_symmetry_equiv_pos_as_xyz
  x,y,z
_cell_length_a	27.732048
_cell_length_b	27.732048
_cell_length_c	26.210047
_cell_angle_alpha	90.000479
_cell_angle_beta	89.996535
_cell_angle_gamma	97.357345
loop_
_atom_site_label
_atom_site_type_symbol
_atom_site_fract_x
_atom_site_fract_y
_atom_site_fract_z
O1	O	0.640931	-0.057510	-0.042369
O2	O	0.500138	-0.066256	-0.042385
O3	O	0.574907	0.008514	-0.042367
O4	O	0.566162	-0.132279	-0.042387
O5	O	0.574893	0.008502	0.042491
O6	O	0.500123	-0.066267	0.042473
O7	O	0.640917	-0.057522	0.042489
Cu8	Cu	0.570519	-0.061896	0.050229
Cu9	Cu	0.570536	-0.061882	-0.050125
O10	O	0.566147	-0.132291	0.042471
C11	C	0.482124	-0.066078	0.000042
C12	C	0.428469	-0.065525	0.000036
C13	C	0.089654	-0.106229	0.000053
C14	C	-0.112006	-0.104178	0.000057
O15	O	-0.143262	-0.141398	0.000074
N16	N	-0.131130	-0.059843	0.000063
C17	C	-0.099835	-0.016017	0.000071
O18	O	-0.120728	0.021740	0.000081
C19	C	0.101824	-0.018068	0.000069
C20	C	0.120944	-0.062407	0.000059
C21	C	0.108775	-0.150563	0.000043
C22	C	0.159187	-0.151076	0.000039
C23	C	0.190477	-0.107253	0.000045
C24	C	0.171356	-0.062919	0.000055
C25	C	0.133117	0.025757	0.000081
C26	C	0.183535	0.025240	0.000082
C27	C	0.202655	-0.019098	0.000071
C28	C	0.253059	-0.019609	0.000057
N29	N	0.272183	-0.063944	0.000051
C30	C	0.240892	-0.107766	0.000045
C31	C	-0.205709	-0.014943	0.000070
C32	C	-0.256124	-0.014430	0.000070
C33	C	-0.268291	-0.102591	0.000057
C34	C	-0.217876	-0.103104	0.000054
C35	C	-0.186585	-0.059278	0.000065
C36	C	0.346761	-0.108839	0.000036
C37	C	0.397178	-0.109347	0.000030
C38	C	0.409341	-0.021186	0.000045
C39	C	0.358929	-0.020678	0.000049
C40	C	0.327639	-0.064508	0.000046
O41	O	0.284343	0.017592	0.000046
O42	O	0.261794	-0.145518	0.000047
C43	C	0.039242	-0.105716	0.000057
C44	C	0.020120	-0.061382	0.000067
C45	C	0.051411	-0.017560	0.000073
C46	C	-0.030294	-0.060869	0.000066
C47	C	-0.061585	-0.104691	0.000060
C48	C	-0.042461	-0.149026	0.000054
C49	C	0.007951	-0.149539	0.000050
C50	C	0.032287	0.026775	0.000078
C51	C	-0.018125	0.027284	0.000082
C52	C	-0.049416	-0.016538	0.000076
C53	C	0.574716	0.026515	0.000064
C54	C	0.574164	0.080170	0.000068
C55	C	0.658931	-0.057699	0.000061
C56	C	0.712586	-0.058252	0.000064
C57	C	0.566338	-0.150292	0.000040
C58	C	0.566891	-0.203947	0.000032
N59	N	0.570510	-0.061905	0.120813
C60	C	0.614867	0.418985	0.000046
C61	C	0.612816	0.620645	0.000039
O62	O	0.650037	0.651900	0.000021
N63	N	0.568481	0.639768	0.000034
C64	C	0.524656	0.608474	0.000028
O65	O	0.486899	0.629367	0.000019
C66	C	0.526707	0.406815	0.000032
C67	C	0.571045	0.387694	0.000042
C68	C	0.659202	0.399864	0.000056
C69	C	0.659714	0.349452	0.000060
C70	C	0.615892	0.318161	0.000056
C71	C	0.571557	0.337282	0.000046
C72	C	0.482882	0.375521	0.000022
C73	C	0.483399	0.325104	0.000022
C74	C	0.527737	0.305983	0.000032
C75	C	0.528247	0.255580	0.000046
N76	N	0.572583	0.236456	0.000051
C77	C	0.616405	0.267747	0.000056
C78	C	0.523582	0.714348	0.000027
C79	C	0.523069	0.764762	0.000027
C80	C	0.611230	0.776930	0.000037
C81	C	0.611742	0.726514	0.000041
C82	C	0.567917	0.695224	0.000032
C83	C	0.617477	0.161878	0.000066
C84	C	0.617986	0.111461	0.000073
C85	C	0.529825	0.099298	0.000060
C86	C	0.529316	0.149710	0.000056
C87	C	0.573147	0.180999	0.000057
O88	O	0.491047	0.224296	0.000059
O89	O	0.654156	0.246844	0.000054
C90	C	0.614355	0.469397	0.000042
C91	C	0.570021	0.488518	0.000033
C92	C	0.526198	0.457228	0.000028
C93	C	0.569508	0.538933	0.000033
C94	C	0.613330	0.570223	0.000037
C95	C	0.657665	0.551100	0.000042
C96	C	0.658177	0.500688	0.000046
C97	C	0.481863	0.476351	0.000023
C98	C	0.481355	0.526764	0.000019
C99	C	0.525177	0.558054	0.000024
N100	N	0.570548	-0.061868	-0.120709
C101	C	0.603640	-0.028781	0.473336
C102	C	0.603651	-0.028774	0.686994
O103	O	0.631801	-0.000614	0.714623
N104	N	0.570538	-0.061871	0.713707
C105	C	0.537419	-0.094970	0.687003
O106	O	0.509251	-0.123117	0.714626
C107	C	0.537406	-0.094974	0.473345
C108	C	0.570524	-0.061878	0.446635
C109	C	0.636755	0.004312	0.446625
C110	C	0.636754	0.004308	0.393214
C111	C	0.603638	-0.028789	0.366513
C112	C	0.570523	-0.061882	0.393223
C113	C	0.504284	-0.128070	0.446641
C114	C	0.504283	-0.128067	0.393223
C115	C	0.537401	-0.094971	0.366513
C116	C	0.537405	-0.094983	0.313111
N117	N	0.570518	-0.061886	0.286397
C118	C	0.603634	-0.028789	0.313098
C119	C	0.537428	-0.094966	0.799176
C120	C	0.537432	-0.094965	0.852590
C121	C	0.603664	-0.028769	0.852578
C122	C	0.603662	-0.028773	0.799163
C123	C	0.570541	-0.061869	0.772463
C124	C	0.603629	-0.028800	0.200931
C125	C	0.603626	-0.028808	0.147514
C126	C	0.537393	-0.095002	0.147531
C127	C	0.537397	-0.094996	0.200943
C128	C	0.570517	-0.061891	0.227641
O129	O	0.509267	-0.123125	0.285449
O130	O	0.631790	-0.000639	0.285466
C131	C	0.603641	-0.028777	0.526747
C132	C	0.570527	-0.061871	0.553457
C133	C	0.537410	-0.094968	0.526756
C134	C	0.570530	-0.061870	0.606872
C135	C	0.603646	-0.028773	0.633573
C136	C	0.636759	0.004323	0.606859
C137	C	0.636758	0.004320	0.553448
C138	C	0.504298	-0.128064	0.553470
C139	C	0.504302	-0.128058	0.606881
C140	C	0.537418	-0.094961	0.633582
H141	H	-0.202311	-0.139207	0.000049
O142	O	0.635848	0.003425	0.773298
C143	C	0.665085	0.032625	0.808325
H144	H	0.645273	0.033031	0.846403
H145	H	0.672750	0.071282	0.792896
H146	H	0.700874	0.017176	0.814001
H147	H	0.477334	-0.155013	0.628625
O148	O	0.668973	0.036495	0.632723
C149	C	0.698194	0.065720	0.597699
H150	H	0.698599	0.045906	0.559623
H151	H	0.736849	0.073365	0.613136
H152	H	0.682765	0.101519	0.592018
O153	O	0.439248	0.446028	0.000045
C154	C	0.400012	0.473724	0.000026
H155	H	0.412573	0.511446	0.016087
H156	H	0.369326	0.454909	0.024664
H157	H	0.386408	0.477212	-0.040685
H158	H	0.343360	0.015426	0.000050
O159	O	0.439810	0.021336	0.000075
C160	C	0.488406	0.011371	0.000060
H161	H	0.490055	-0.026587	0.016115
H162	H	0.511453	0.039318	0.024705
H163	H	0.503004	0.013323	-0.040650
O164	O	0.177819	-0.194113	0.000093
C165	C	0.206608	-0.197065	0.044044
H166	H	0.219444	-0.158875	0.058707
H167	H	0.239483	-0.216080	0.034149
H168	H	0.184175	-0.218629	0.074814
O169	O	0.472065	-0.160237	0.472500
C170	C	0.442847	-0.189450	0.437469
H171	H	0.442456	-0.169631	0.399395
H172	H	0.404187	-0.197088	0.452899
H173	H	0.458268	-0.225254	0.431785
O174	O	0.415810	-0.152388	0.000085
C175	C	0.444600	-0.155338	0.044036
H176	H	0.457436	-0.117146	0.058697
H177	H	0.477476	-0.174352	0.034142
H178	H	0.422169	-0.176900	0.074808
H179	H	0.445246	0.542327	0.000016
O180	O	0.213861	0.067857	0.000066
C181	C	0.186168	0.107096	0.000088
H182	H	0.148448	0.094539	-0.015976
H183	H	0.204988	0.137782	-0.024544
H184	H	0.182677	0.120698	0.040802
O185	O	0.026441	-0.192652	0.000066
C186	C	-0.011996	-0.231215	0.000049
H187	H	-0.046147	-0.217922	0.016117
H188	H	-0.001693	-0.262198	0.024681
H189	H	-0.019228	-0.244708	-0.040664
H190	H	0.487892	0.688875	0.000020
H191	H	0.510434	-0.121950	0.222691
H192	H	0.083302	-0.186251	0.000039
O193	O	-0.072911	-0.191564	-0.000019
C194	C	-0.102428	-0.193902	-0.043973
H195	H	-0.104690	-0.155551	-0.058620
H196	H	-0.140457	-0.212192	-0.034088
H197	H	-0.086005	-0.215853	-0.074751
H198	H	0.477330	-0.155015	0.531734
H199	H	0.321291	-0.144530	0.000036
O200	O	0.653755	0.807399	0.000015
C201	C	0.643789	0.855994	0.000025
H202	H	0.605835	0.857643	-0.016038
H203	H	0.671742	0.879042	-0.024616
H204	H	0.645731	0.870592	0.040734
H205	H	0.693347	0.576585	0.000048
O206	O	-0.298671	-0.145174	-0.000036
C207	C	-0.290048	-0.172123	-0.043979
H208	H	-0.272625	-0.146474	-0.074697
H209	H	-0.325965	-0.191776	-0.058729
H210	H	-0.264584	-0.199909	-0.034043
O211	O	0.635704	0.003417	0.121545
C212	C	0.609993	0.033062	0.090704
H213	H	0.572052	0.013499	0.082672
H214	H	0.630225	0.040934	0.053155
H215	H	0.606911	0.068724	0.111345
H216	H	-0.033688	0.063392	0.000086
H217	H	-0.180236	0.020747	0.000079
O218	O	-0.274614	0.028683	0.000097
C219	C	-0.236179	0.067248	0.000090
H220	H	-0.202029	0.053953	0.016153
H221	H	-0.246488	0.098223	0.024732
H222	H	-0.228942	0.080752	-0.040618
O223	O	0.062611	0.069391	0.000060
C224	C	0.034915	0.108627	0.000079
H225	H	-0.002806	0.096065	-0.015983
H226	H	0.053731	0.139312	-0.024556
H227	H	0.031423	0.122231	0.040792
H228	H	0.654093	0.095896	0.000082
O229	O	0.472176	-0.160239	0.367232
C230	C	0.497834	-0.189896	0.336344
H231	H	0.535802	-0.170385	0.328335
H232	H	0.477598	-0.197686	0.298787
H233	H	0.500849	-0.225598	0.356933
O234	O	0.505218	-0.127136	0.878454
C235	C	0.475998	-0.156353	0.843427
H236	H	0.475603	-0.136536	0.805352
H237	H	0.437340	-0.163993	0.858860
H238	H	0.491421	-0.192156	0.837743
H239	H	0.510432	-0.121951	0.125783
H240	H	0.510456	-0.121918	0.777440
H241	H	0.653168	0.187348	0.000065
O242	O	0.701235	0.482094	0.000142
C243	C	0.704164	0.453288	0.044085
H244	H	0.678989	0.465023	0.074801
H245	H	0.743154	0.458104	0.058839
H246	H	0.692718	0.413444	0.034148
O247	O	0.702797	0.330906	-0.000026
C248	C	0.729495	0.346943	-0.043967
H249	H	0.703563	0.357235	-0.074686
H250	H	0.749836	0.316554	-0.058717
H251	H	0.756675	0.380005	-0.034029
O252	O	0.114530	0.068816	0.000003
C253	C	0.085726	0.071764	-0.043937
H254	H	0.097459	0.046599	-0.074662
H255	H	0.090546	0.110760	-0.058678
H256	H	0.045881	0.060318	-0.034001
H257	H	0.630598	-0.001842	0.222662
H258	H	0.647846	0.710950	0.000048
O259	O	0.668873	0.036587	0.367365
C260	C	0.661300	0.084335	0.380536
H261	H	0.622575	0.084218	0.395175
H262	H	0.667059	0.108721	0.345476
H263	H	0.688140	0.098678	0.411607
O264	O	0.701762	0.430274	-0.000029
C265	C	0.704116	0.459812	-0.043970
H266	H	0.679260	0.441173	-0.074693
H267	H	0.743100	0.465757	-0.058714
H268	H	0.691892	0.496389	-0.034035
O269	O	0.479956	0.783252	0.000001
C270	C	0.441391	0.744818	0.000009
H271	H	0.454686	0.710667	-0.016054
H272	H	0.410417	0.755124	-0.024633
H273	H	0.427885	0.737584	0.040717
H274	H	0.446777	0.391080	0.000011
H275	H	0.447710	0.299629	0.000014
O276	O	0.668829	0.036553	0.527487
C277	C	0.643110	0.066201	0.496657
H278	H	0.605173	0.046630	0.488616
H279	H	0.663343	0.074092	0.459111
H280	H	0.640016	0.101853	0.517311
H281	H	0.663722	0.031266	0.468360
O282	O	0.486205	0.168206	0.000026
C283	C	0.447637	0.129775	0.000038
H284	H	0.460930	0.095619	-0.016017
H285	H	0.416665	0.140080	-0.024609
H286	H	0.434128	0.122549	0.040747
H287	H	0.630629	-0.001821	0.874327
H288	H	0.494146	0.073812	0.000058
