data_functionalizedCrystal
_audit_creation_method	'MofGen! by Chris Wilmer'
_symmetry_space_group_name_H-M	'P1'
_symmetry_Int_Tables_number	1
_symmetry_cell_setting	triclinic
loop_
_symmetry_equiv_pos_as_xyz
  x,y,z
_cell_length_a	18.050591
_cell_length_b	12.827892
_cell_length_c	18.050582
_cell_angle_alpha	90.018439
_cell_angle_beta	89.979078
_cell_angle_gamma	89.988602
loop_
_atom_site_label
_atom_site_type_symbol
_atom_site_fract_x
_atom_site_fract_y
_atom_site_fract_z
Zn1	Zn	1.135359	0.416211	-0.420053
Zn2	Zn	1.135297	0.590954	-0.295872
Zn3	Zn	1.011178	0.416215	-0.295864
Zn4	Zn	1.011154	0.590898	-0.420007
O5	O	1.073247	0.503569	-0.357949
O6	O	1.239275	0.439412	-0.403602
O7	O	1.118817	0.567799	-0.191946
O8	O	1.027687	0.269978	-0.312354
O9	O	1.239230	0.567795	-0.312367
O10	O	1.118922	0.269975	-0.403595
O11	O	1.027627	0.439419	-0.191940
O12	O	0.907250	0.439366	-0.312309
O13	O	1.027645	0.567701	-0.523938
O14	O	0.907232	0.567705	-0.403517
O15	O	1.118898	0.439359	-0.523971
O16	O	1.118793	0.737182	-0.312323
O17	O	1.027586	0.737142	-0.403525
C18	C	0.880295	0.503530	-0.357908
C19	C	0.797749	0.503539	-0.357908
C20	C	1.073276	0.503523	-0.551655
C21	C	1.073288	0.503503	-0.634200
C22	C	1.073200	0.775079	-0.357936
C23	C	1.073249	0.891232	-0.357955
C24	C	0.598286	0.433667	-0.308423
C25	C	0.548882	0.528981	-0.290152
C26	C	0.646619	0.503571	-0.357941
C27	C	0.548941	0.408290	-0.376211
C28	C	0.500634	0.503593	-0.357972
C29	C	0.598301	0.598934	-0.339635
C30	C	0.598365	0.478179	-0.425725
C31	C	0.548983	0.573559	-0.407479
C32	C	0.730717	0.503556	-0.357922
C33	C	0.416537	0.503618	-0.357992
C34	C	1.266953	0.503609	-0.357991
C35	C	1.349498	0.503626	-0.358008
C36	C	1.073314	0.230999	-0.357978
C37	C	1.073342	0.114846	-0.357991
C38	C	1.118435	0.943003	-0.312876
C39	C	1.118485	1.063053	-0.312894
C40	C	1.023703	0.573200	-0.833633
C41	C	1.091462	0.598752	-0.883033
C42	C	1.073325	0.503424	-0.785331
C43	C	1.005603	0.477843	-0.883013
C44	C	1.073354	0.503348	-0.931316
C45	C	1.141120	0.529025	-0.833643
C46	C	1.055215	0.408072	-0.833619
C47	C	1.123021	0.433587	-0.882997
C48	C	1.073307	0.503469	-0.701233
C49	C	1.073380	0.503302	-1.015413
C50	C	1.073261	0.503540	-0.164997
C51	C	1.073392	0.503266	-0.082451
H52	H	0.527148	0.550474	-0.232842
O53	O	1.164437	0.889811	-0.266735
C54	C	1.122119	0.826738	-0.218770
H55	H	1.063666	0.859765	-0.214107
H56	H	1.149014	0.825402	-0.161645
H57	H	1.119457	0.744045	-0.241772
O58	O	1.027118	1.061910	-0.404064
C59	C	0.985170	1.133385	-0.446013
H60	H	0.982599	1.211242	-0.415654
H61	H	0.926660	1.101826	-0.453854
H62	H	1.012330	1.144882	-0.502451
O63	O	0.624177	0.695029	-0.321114
C64	C	0.702283	0.693853	-0.321311
H65	H	0.722728	0.610559	-0.313145
H66	H	0.723821	0.745056	-0.274399
H67	H	0.723458	0.724992	-0.376544
O68	O	0.937287	0.451879	-0.908847
C69	C	0.917782	0.352089	-0.882575
H70	H	0.970130	0.306836	-0.867955
H71	H	0.885873	0.308445	-0.927386
H72	H	0.881570	0.360294	-0.831143
O73	O	1.027243	0.944490	-0.404054
C74	C	1.069562	1.007520	-0.452046
H75	H	1.125878	1.023720	-0.425904
H76	H	1.039389	1.084342	-0.461932
H77	H	1.077640	0.965466	-0.507110
O78	O	0.523346	0.644311	-0.457368
C79	C	0.548649	0.744606	-0.437858
H80	H	0.562402	0.746470	-0.376238
H81	H	0.503586	0.804376	-0.450259
H82	H	0.600416	0.764072	-0.471300
H83	H	0.981779	0.632286	-0.811959
O84	O	1.109775	0.694833	-0.909060
C85	C	1.110171	0.693204	-0.987162
H86	H	1.118847	0.609858	-1.007313
H87	H	1.157023	0.744648	-1.008528
H88	H	1.054965	0.723788	-1.008798
O89	O	1.209427	0.554946	-0.807763
C90	C	1.208583	0.554691	-0.729657
H91	H	1.149395	0.566310	-0.709203
H92	H	1.245014	0.620631	-0.708097
H93	H	1.230656	0.476929	-0.708512
O94	O	1.173253	0.363271	-0.908664
C95	C	1.244546	0.390573	-0.883356
H96	H	1.245934	0.477282	-0.869570
H97	H	1.287014	0.373020	-0.928429
H98	H	1.258340	0.343497	-0.831607
O99	O	1.036813	0.312023	-0.807608
C100	C	0.972524	0.319624	-0.763547
H101	H	0.966703	0.402725	-0.741914
H102	H	0.976986	0.263464	-0.714818
H103	H	0.921898	0.298828	-0.798279
H104	H	0.620117	0.456657	-0.483018
O105	O	0.624083	0.363335	-0.258315
C106	C	0.598850	0.390501	-0.186942
H107	H	0.584992	0.477182	-0.185437
H108	H	0.643995	0.372977	-0.144586
H109	H	0.547159	0.343311	-0.173087
O110	O	0.523162	0.312074	-0.394549
C111	C	0.548268	0.238623	-0.342165
H112	H	0.600251	0.269523	-0.313828
H113	H	0.561599	0.162072	-0.371371
H114	H	0.503256	0.224880	-0.298940
H115	H	1.157169	1.107574	-0.274298
