data_functionalizedCrystal
_audit_creation_method	'MofGen! by Chris Wilmer'
_symmetry_space_group_name_H-M	'P1'
_symmetry_Int_Tables_number	1
_symmetry_cell_setting	triclinic
loop_
_symmetry_equiv_pos_as_xyz
  x,y,z
_cell_length_a	15.995350
_cell_length_b	11.792241
_cell_length_c	10.868271
_cell_angle_alpha	90.000107
_cell_angle_beta	89.997096
_cell_angle_gamma	96.157105
loop_
_atom_site_label
_atom_site_type_symbol
_atom_site_fract_x
_atom_site_fract_y
_atom_site_fract_z
O1	O	0.114763	-1.505951	-0.102196
O2	O	0.614763	-1.005951	0.397804
O3	O	0.126591	-1.175511	-0.102224
O4	O	0.626591	-0.675511	0.397776
O5	O	-0.001170	-1.349764	-0.102208
O6	O	0.498830	-0.849764	0.397792
O7	O	0.242524	-1.331698	-0.102212
O8	O	0.742524	-0.831698	0.397788
O9	O	-0.001175	-1.349750	0.102436
O10	O	0.498825	-0.849750	0.602436
O11	O	0.126586	-1.175497	0.102420
O12	O	0.626586	-0.675497	0.602420
O13	O	0.114758	-1.505937	0.102448
O14	O	0.614758	-1.005937	0.602448
Zn15	Zn	0.120671	-1.340715	0.134926
Zn16	Zn	0.620671	-0.840715	0.634926
Zn17	Zn	0.120678	-1.340734	-0.134702
Zn18	Zn	0.620678	-0.840734	0.365298
O19	O	0.242519	-1.331684	0.102432
O20	O	0.742519	-0.831684	0.602432
C21	C	0.125845	-1.133220	0.000094
C22	C	0.625845	-0.633220	0.500094
C23	C	0.123621	-1.007224	0.000084
C24	C	0.623621	-0.507224	0.500084
C25	C	-0.032370	-1.349010	0.000112
C26	C	0.467630	-0.849010	0.500112
C27	C	-0.125331	-1.346771	0.000104
C28	C	0.374669	-0.846771	0.500104
C29	C	0.115504	-1.548229	0.000127
C30	C	0.615504	-1.048229	0.500127
C31	C	0.117727	-1.674224	0.000130
C32	C	0.617727	-1.174224	0.500130
C33	C	-0.463115	-1.338730	0.000108
C34	C	0.036885	-0.838730	0.500108
C35	C	-0.416244	-1.214630	-0.000362
C36	C	0.083756	-0.714630	0.499638
C37	C	-0.319544	-1.216870	0.000100
C38	C	0.180456	-0.716870	0.500100
C39	C	-0.295536	-1.342718	0.000105
C40	C	0.204464	-0.842718	0.500105
C41	C	-0.336339	-1.403921	0.116971
C42	C	0.163661	-0.903921	0.616971
C43	C	-0.432989	-1.400803	0.117068
C44	C	0.067011	-0.900803	0.617068
C45	C	-0.433329	-1.403383	-0.115651
C46	C	0.066671	-0.903383	0.384349
C47	C	-0.336384	-1.403354	-0.117195
C48	C	0.163616	-0.903354	0.382805
C49	C	-0.200829	-1.344979	0.000108
C50	C	0.299171	-0.844979	0.500108
C51	C	-0.557823	-1.336473	0.000113
C52	C	-0.057823	-0.836473	0.500113
C53	C	0.273719	-1.332438	0.000110
C54	C	0.773719	-0.832438	0.500110
C55	C	0.366680	-1.334677	0.000109
C56	C	0.866680	-0.834677	0.500109
N57	N	0.120666	-1.340710	0.318940
N58	N	0.620666	-0.840710	0.818940
C59	C	0.119532	-0.776546	0.000119
C60	C	0.619532	-0.276546	0.500119
C61	C	0.121804	-0.904913	0.000099
C62	C	0.621804	-0.404913	0.500099
N63	N	0.120676	-1.340747	-0.318716
N64	N	0.620676	-0.840747	0.181284
C65	C	0.120676	-1.340728	0.569946
C66	C	0.620676	-0.840728	1.069946
C67	C	0.120673	-1.340714	0.430269
C68	C	0.620673	-0.840714	0.930269
H69	H	-0.291338	-1.168760	-0.083674
H70	H	0.208662	-0.668760	0.416326
H71	H	-0.320605	-1.495128	-0.124247
H72	H	0.179395	-0.995128	0.375753
H73	H	-0.464675	-1.494881	-0.116432
H74	H	0.035325	-0.994881	0.383568
H75	H	-0.309336	-1.358607	-0.203649
H76	H	0.190664	-0.858607	0.296351
O77	O	-0.319096	-1.514261	0.122333
O78	O	0.180904	-1.014261	0.622333
C79	C	-0.356620	-1.566611	0.228290
C80	C	0.143380	-1.066611	0.728290
H81	H	-0.411338	-1.518754	0.258687
H82	H	0.088662	-1.018754	0.758687
H83	H	-0.380762	-1.658914	0.206539
H84	H	0.119238	-1.158914	0.706539
H85	H	-0.308104	-1.564496	0.305324
H86	H	0.191896	-1.064496	0.805324
O87	O	-0.458153	-1.355151	-0.221357
O88	O	0.041847	-0.855151	0.278643
C89	C	-0.510403	-1.436588	-0.288928
C90	C	-0.010403	-0.936588	0.211072
H91	H	-0.539558	-1.505873	-0.224106
H92	H	-0.039558	-1.005873	0.275894
H93	H	-0.562398	-1.393255	-0.335446
H94	H	-0.062398	-0.893255	0.164554
H95	H	-0.471506	-1.476488	-0.361871
H96	H	0.028494	-0.976488	0.138129
O97	O	-0.302661	-1.353033	0.220599
O98	O	0.197339	-0.853033	0.720599
C99	C	-0.242191	-1.262166	0.187862
C100	C	0.257809	-0.762166	0.687862
H101	H	-0.255688	-1.231937	0.090951
H102	H	0.244312	-0.731937	0.590951
H103	H	-0.245152	-1.188778	0.255454
H104	H	0.254848	-0.688778	0.755454
H105	H	-0.176839	-1.292305	0.190710
H106	H	0.323161	-0.792305	0.690710
H107	H	-0.464823	-1.491915	0.122375
H108	H	0.035177	-0.991915	0.622375
O109	O	-0.438495	-1.155308	-0.100301
O110	O	0.061505	-0.655308	0.399699
C111	C	-0.395452	-1.044540	-0.097966
C112	C	0.104548	-0.544540	0.402034
H113	H	-0.336108	-1.044601	-0.039895
H114	H	0.163892	-0.544601	0.460105
H115	H	-0.377577	-1.016599	-0.195755
H116	H	0.122423	-0.516599	0.304245
H117	H	-0.437864	-0.982849	-0.056363
H118	H	0.062136	-0.482849	0.443637
O119	O	-0.439942	-1.155887	0.099148
O120	O	0.060058	-0.655887	0.599148
C121	C	-0.498744	-1.226436	0.169166
C122	C	0.001256	-0.726436	0.669166
H123	H	-0.491115	-1.319688	0.149295
H124	H	0.008885	-0.819688	0.649295
H125	H	-0.487529	-1.208399	0.271226
H126	H	0.012471	-0.708399	0.771226
H127	H	-0.565135	-1.208268	0.143597
H128	H	-0.065135	-0.708268	0.643597
O129	O	-0.286506	-1.158927	0.100073
O130	O	0.213494	-0.658927	0.600073
C131	C	-0.229095	-1.066812	0.061178
C132	C	0.270905	-0.566812	0.561178
H133	H	-0.244490	-1.042662	-0.037182
H134	H	0.255510	-0.542662	0.462818
H135	H	-0.233891	-0.990611	0.124358
H136	H	0.266109	-0.490611	0.624358
H137	H	-0.162480	-1.092674	0.064906
H138	H	0.337520	-0.592674	0.564906
O139	O	-0.455133	-1.347719	0.221354
O140	O	0.044867	-0.847719	0.721354
C141	C	-0.511161	-1.423114	0.290534
C142	C	-0.011161	-0.923114	0.790534
H143	H	-0.502574	-1.514819	0.264610
H144	H	-0.002574	-1.014819	0.764610
H145	H	-0.497645	-1.409587	0.392778
H146	H	0.002355	-0.909587	0.892778
H147	H	-0.578567	-1.405902	0.270158
H148	H	-0.078567	-0.905902	0.770158
