data_functionalizedCrystal
_audit_creation_method	'MofGen! by Chris Wilmer'
_symmetry_space_group_name_H-M	'P1'
_symmetry_Int_Tables_number	1
_symmetry_cell_setting	triclinic
loop_
_symmetry_equiv_pos_as_xyz
  x,y,z
_cell_length_a	10.654550
_cell_length_b	27.732048
_cell_length_c	9.130313
_cell_angle_alpha	89.993840
_cell_angle_beta	89.996220
_cell_angle_gamma	83.563778
loop_
_atom_site_label
_atom_site_type_symbol
_atom_site_fract_x
_atom_site_fract_y
_atom_site_fract_z
O1	O	1.664980	0.067884	-0.121937
O2	O	1.299230	0.074351	-0.121916
O3	O	1.493465	0.000792	-0.121899
O4	O	1.470746	0.141444	-0.121954
O5	O	1.493462	0.000794	0.121700
O6	O	1.299228	0.074353	0.121683
O7	O	1.664978	0.067886	0.121661
Cu8	Cu	1.482103	0.071120	0.143915
Cu9	Cu	1.482105	0.071117	-0.144169
O10	O	1.470743	0.141446	0.121645
C11	C	1.252451	0.073878	-0.000113
C12	C	1.113067	0.072457	-0.000103
C13	C	1.031761	0.115768	-0.000142
C14	C	0.900796	0.114430	-0.000166
C15	C	0.932457	0.026466	-0.000121
C16	C	1.063419	0.027805	-0.000086
C17	C	1.013480	0.166553	-0.000174
C18	C	0.882516	0.165215	-0.000199
C19	C	1.492987	-0.017217	-0.000096
C20	C	1.491551	-0.070881	-0.000084
C21	C	1.597290	-0.409038	-0.000165
C22	C	1.591962	-0.610731	-0.000185
O23	O	1.688653	-0.641384	-0.000255
N24	N	1.476789	-0.630572	-0.000177
C25	C	1.362940	-0.599986	-0.000173
O26	O	1.264856	-0.621490	-0.000182
C27	C	1.368269	-0.398294	-0.000164
C28	C	1.483449	-0.378456	-0.000157
C29	C	1.712461	-0.389199	-0.000160
C30	C	1.713792	-0.338779	-0.000147
C31	C	1.599951	-0.308197	-0.000139
C32	C	1.484780	-0.328036	-0.000144
C33	C	1.254421	-0.367709	-0.000171
C34	C	1.255764	-0.317284	-0.000172
C35	C	1.370944	-0.297446	-0.000165
C36	C	1.372271	-0.247034	-0.000123
N37	N	1.487444	-0.227193	-0.000131
C38	C	1.601284	-0.257775	-0.000139
C39	C	1.360150	-0.705877	-0.000175
C40	C	1.358817	-0.756300	-0.000175
C41	C	1.587840	-0.767041	-0.000190
C42	C	1.589171	-0.716618	-0.000180
C43	C	1.475323	-0.686036	-0.000184
C44	C	1.604070	-0.151888	-0.000111
C45	C	1.605391	-0.101463	-0.000092
C46	C	1.376369	-0.090726	-0.000085
C47	C	1.375047	-0.141147	-0.000096
C48	C	1.488908	-0.171727	-0.000114
O49	O	1.275631	-0.216352	-0.000070
O50	O	1.699354	-0.236261	-0.000163
C51	C	1.595959	-0.459458	-0.000178
C52	C	1.480788	-0.479296	-0.000183
C53	C	1.366948	-0.448715	-0.000175
C54	C	1.479455	-0.529719	-0.000183
C55	C	1.593296	-0.560301	-0.000191
C56	C	1.708469	-0.540460	-0.000199
C57	C	1.709800	-0.490040	-0.000186
C58	C	1.251774	-0.468556	-0.000167
C59	C	1.250453	-0.518976	-0.000178
C60	C	1.364293	-0.549558	-0.000186
C61	C	1.711757	0.068360	-0.000144
C62	C	1.851141	0.069780	-0.000164
C63	C	1.471221	0.159454	-0.000162
C64	C	1.472657	0.213118	-0.000183
N65	N	1.482110	0.071121	0.346538
N66	N	1.482108	0.071112	-0.346792
C67	C	1.568138	0.038560	0.423197
C68	C	1.568135	0.038554	0.576534
C69	C	1.396071	0.103675	0.576538
C70	C	1.396069	0.103678	0.423204
C71	C	1.667482	0.000964	0.423195
C72	C	1.667479	0.000959	0.576532
H73	H	1.041976	0.186415	0.101770
O74	O	1.312375	0.135317	0.650789
C75	C	1.236465	0.164066	0.550241
H76	H	1.235442	0.144248	0.440938
H77	H	1.136040	0.171076	0.594545
H78	H	1.276527	0.200120	0.533934
O79	O	1.717204	-0.082136	-0.000287
C80	C	1.724844	-0.053294	-0.126462
H81	H	1.625624	-0.041071	-0.168513
H82	H	1.774252	-0.020113	-0.098084
H83	H	1.780835	-0.075373	-0.214814
H84	H	1.682961	-0.700469	-0.000176
H85	H	0.839980	0.184349	-0.102160
O86	O	1.714788	-0.181520	-0.000058
C87	C	1.816713	-0.153188	-0.000086
H88	H	1.784073	-0.115674	0.046037
H89	H	1.896418	-0.171512	0.070636
H90	H	1.852069	-0.149469	-0.116951
H91	H	1.647601	-0.036186	0.381591
O92	O	1.055127	0.185927	-0.125561
C93	C	0.996863	0.233830	-0.142060
H94	H	0.964409	0.248894	-0.030482
H95	H	1.067249	0.257382	-0.191151
H96	H	0.911822	0.233951	-0.217886
O97	O	1.263245	-0.160479	-0.000285
C98	C	1.255613	-0.189303	-0.126480
H99	H	1.354835	-0.201516	-0.168549
H100	H	1.206213	-0.222490	-0.098122
H101	H	1.199618	-0.167212	-0.214811
O102	O	1.249632	-0.676124	0.000024
C103	C	1.243527	-0.646649	0.126205
H104	H	1.343146	-0.643755	0.168257
H105	H	1.195986	-0.608919	0.097836
H106	H	1.186515	-0.663437	0.214554
H107	H	1.163052	-0.292386	-0.000177
O108	O	1.138446	-0.538164	-0.000247
C109	C	1.038263	-0.500353	-0.000204
H110	H	1.072799	-0.465983	-0.046304
H111	H	0.957794	-0.511155	-0.070940
H112	H	1.003185	-0.493347	0.116662
H113	H	0.892018	-0.009888	-0.000129
O114	O	1.312668	0.135328	0.348581
C115	C	1.379322	0.165402	0.259909
H116	H	1.477957	0.146506	0.236925
H117	H	1.326757	0.172864	0.152091
H118	H	1.387151	0.201152	0.319005
O119	O	1.265904	-0.060945	-0.000144
C120	C	1.291792	-0.012188	-0.000102
H121	H	1.390392	-0.009922	-0.046213
H122	H	1.219181	0.010412	-0.070829
H123	H	1.286736	0.002371	0.116765
H124	H	1.758171	0.012736	0.375626
O125	O	1.822973	-0.418952	0.000029
C126	C	1.829076	-0.448435	0.126212
H127	H	1.729457	-0.451333	0.168272
H128	H	1.876624	-0.486162	0.097842
H129	H	1.886082	-0.431650	0.214555
H130	H	1.680533	-0.791950	-0.000196
H131	H	1.265026	-0.772447	-0.000155
H132	H	1.638442	-0.034148	0.624095
O133	O	1.782300	0.010777	0.626012
C134	C	1.876461	-0.024968	0.574440
H135	H	1.841156	-0.042622	0.471875
H136	H	1.965400	-0.007445	0.547097
H137	H	1.898970	-0.053740	0.662643
H138	H	0.836198	0.180563	0.104963
H139	H	1.129616	-0.007463	-0.000034
H140	H	1.160629	-0.383852	-0.000185
O141	O	1.825790	-0.319592	-0.000218
C142	C	1.925968	-0.357404	-0.000193
H143	H	1.891431	-0.391768	-0.046309
H144	H	2.006445	-0.346596	-0.070924
H145	H	1.961037	-0.364426	0.116670
H146	H	1.801162	-0.565369	-0.000199
H147	H	1.803591	-0.473893	-0.000181
O148	O	1.141267	-0.438802	0.000041
C149	C	1.135164	-0.409332	0.126231
H150	H	1.234784	-0.406440	0.168284
H151	H	1.087623	-0.371601	0.097873
H152	H	1.078153	-0.426123	0.214575
