data_functionalizedCrystal
_audit_creation_method	'MofGen! by Chris Wilmer'
_symmetry_space_group_name_H-M	'P1'
_symmetry_Int_Tables_number	1
_symmetry_cell_setting	triclinic
loop_
_symmetry_equiv_pos_as_xyz
  x,y,z
_cell_length_a	16.959455
_cell_length_b	21.295417
_cell_length_c	21.295120
_cell_angle_alpha	89.638316
_cell_angle_beta	89.934064
_cell_angle_gamma	90.027454
loop_
_atom_site_label
_atom_site_type_symbol
_atom_site_fract_x
_atom_site_fract_y
_atom_site_fract_z
Zn1	Zn	1.208730	-0.248620	-0.355904
Zn2	Zn	1.208509	-0.354497	-0.250626
Zn3	Zn	1.076439	-0.249239	-0.250648
Zn4	Zn	1.076499	-0.353850	-0.355863
O5	O	1.142545	-0.301551	-0.303260
O6	O	1.319312	-0.262676	-0.341947
O7	O	1.190872	-0.341064	-0.162537
O8	O	1.094055	-0.161068	-0.264636
O9	O	1.319149	-0.340463	-0.264599
O10	O	1.191249	-0.160613	-0.341968
O11	O	1.093841	-0.263732	-0.162553
O12	O	0.965836	-0.263105	-0.264597
O13	O	1.094158	-0.339361	-0.443961
O14	O	0.965880	-0.339962	-0.341898
O15	O	1.191307	-0.262049	-0.443991
O16	O	1.190930	-0.442500	-0.264560
O17	O	1.093943	-0.442025	-0.341877
C18	C	0.937178	-0.301531	-0.303246
C19	C	0.849322	-0.301537	-0.303255
C20	C	0.477799	-0.261499	-0.263094
C21	C	0.477893	-0.341656	-0.343463
C22	C	0.560439	-0.341647	-0.343459
C23	C	0.601669	-0.301564	-0.303271
C24	C	0.560352	-0.261490	-0.263087
C25	C	0.601762	-0.381725	-0.383638
C26	C	0.684313	-0.381718	-0.383636
C27	C	0.725544	-0.341631	-0.343450
C28	C	0.684222	-0.301555	-0.303265
C29	C	0.725452	-0.261472	-0.263077
C30	C	0.684132	-0.221392	-0.222894
C31	C	0.601583	-0.221403	-0.222902
C32	C	0.808092	-0.341620	-0.343443
C33	C	0.808005	-0.261463	-0.263071
C34	C	1.142441	-0.465103	-0.303226
C35	C	1.142469	-0.535071	-0.303232
C36	C	1.193015	-0.568164	-0.263014
C37	C	1.193052	-0.633907	-0.263028
C38	C	1.142529	-0.666554	-0.303253
C39	C	1.091979	-0.633453	-0.343479
C40	C	1.091949	-0.567712	-0.343468
N41	N	1.073387	-0.769789	-0.308048
N42	N	1.073418	-0.832240	-0.308054
C43	C	1.142617	-0.864628	-0.303289
N44	N	1.211786	-0.832205	-0.298506
N45	N	1.211755	-0.769748	-0.298496
C46	C	1.142556	-0.737839	-0.303270
C47	C	1.193208	-0.969007	-0.263085
C48	C	1.193246	-1.034750	-0.263103
C49	C	1.092166	-1.034295	-0.343551
C50	C	1.092135	-0.968553	-0.343536
C51	C	1.142655	-0.935912	-0.303299
C52	C	1.348713	-0.301573	-0.303275
C53	C	1.436569	-0.301582	-0.303282
C54	C	1.142764	-0.300564	-0.467456
C55	C	1.142857	-0.300143	-0.537427
C56	C	1.142670	-0.137361	-0.303309
C57	C	1.142724	-0.067393	-0.303330
C58	C	1.142372	-0.302490	-0.139703
C59	C	1.142431	-0.302734	-0.069733
C60	C	1.192662	-0.262027	-0.037393
C61	C	1.192720	-0.261709	0.028348
C62	C	1.142534	-0.302091	0.061745
C63	C	1.092299	-0.342805	0.029397
C64	C	1.092248	-0.343127	-0.036342
N65	N	1.073466	-0.306808	0.165118
N66	N	1.073517	-0.306499	0.227568
C67	C	1.142686	-0.301127	0.259814
N68	N	1.211804	-0.296062	0.227252
N69	N	1.211752	-0.296368	0.164797
C70	C	1.142584	-0.301748	0.133029
C71	C	1.192984	-0.260073	0.363438
C72	C	1.193043	-0.259760	0.429180
C73	C	1.092615	-0.340853	0.430228
C74	C	1.092563	-0.341169	0.364487
C75	C	1.142746	-0.300776	0.331097
H76	H	0.841731	-0.374254	-0.376157
N77	N	1.247514	-0.532960	-0.219628
H78	H	1.235235	-0.544699	-0.174641
H79	H	1.303974	-0.544319	-0.229507
N80	N	1.037426	-0.532011	-0.386843
H81	H	1.049721	-0.543148	-0.431833
H82	H	0.980974	-0.543568	-0.376974
N83	N	0.557016	-0.178187	-0.179558
H84	H	0.595658	-0.152792	-0.154097
H85	H	0.522814	-0.148946	-0.205236
H86	H	0.444152	-0.228865	-0.230380
H87	H	1.234347	-0.942430	-0.230324
H88	H	0.568187	-0.414363	-0.416353
H89	H	0.444319	-0.374293	-0.376179
N90	N	0.728876	-0.424944	-0.426972
H91	H	0.690231	-0.450338	-0.452430
H92	H	0.763181	-0.399186	-0.456151
H93	H	1.233845	-0.227182	0.336250
H94	H	1.233953	-0.226613	0.455511
H95	H	1.234216	-0.660856	-0.230278
H96	H	1.051755	-0.373735	0.457419
H97	H	1.050844	-0.660038	-0.376232
H98	H	1.234412	-1.061693	-0.230354
N99	N	1.037678	-1.069497	-0.386944
H100	H	1.045368	-1.116166	-0.380850
H101	H	0.981217	-1.058109	-0.377104
H102	H	1.050972	-0.941607	-0.376283
N103	N	1.246777	-0.218455	-0.073407
H104	H	1.278604	-0.192617	-0.042940
H105	H	1.283555	-0.243993	-0.100454
H106	H	1.233624	-0.228559	0.054685
N107	N	0.852463	-0.218227	-0.219721
H108	H	0.886654	-0.243934	-0.190495
H109	H	0.886721	-0.188945	-0.245398
H110	H	1.051656	-0.374315	0.338155
N111	N	1.038165	-0.386362	0.065408
H112	H	1.070549	-0.415217	0.092965
H113	H	1.001348	-0.360813	0.092412
N114	N	0.728603	-0.178165	-0.179545
H115	H	0.787167	-0.184246	-0.185639
H116	H	0.714218	-0.133163	-0.189427
N117	N	1.038069	-0.387034	-0.071229
H118	H	1.006285	-0.412570	-0.040099
H119	H	1.001253	-0.361751	-0.098735
