data_functionalizedCrystal
_audit_creation_method	'MofGen! by Chris Wilmer'
_symmetry_space_group_name_H-M	'P1'
_symmetry_Int_Tables_number	1
_symmetry_cell_setting	triclinic
loop_
_symmetry_equiv_pos_as_xyz
  x,y,z
_cell_length_a	15.625163
_cell_length_b	13.339070
_cell_length_c	11.804365
_cell_angle_alpha	105.124870
_cell_angle_beta	119.371346
_cell_angle_gamma	80.848902
loop_
_atom_site_label
_atom_site_type_symbol
_atom_site_fract_x
_atom_site_fract_y
_atom_site_fract_z
O1	O	0.465609	-1.321854	0.102028
O2	O	0.402672	-1.032850	0.074852
O3	O	0.297043	-1.197437	0.029235
O4	O	0.571237	-1.157267	0.147645
O5	O	0.324812	-1.154111	0.239283
O6	O	0.430441	-0.989524	0.284900
O7	O	0.493378	-1.278528	0.312076
Cu8	Cu	0.464445	-1.130070	0.317667
Cu9	Cu	0.431605	-1.181308	0.069261
O10	O	0.599006	-1.113941	0.357693
C11	C	0.405925	-0.974431	0.175286
C12	C	0.374236	-0.864911	0.161602
C13	C	0.275117	-1.178252	0.118791
C14	C	0.168408	-1.185625	0.072702
C15	C	0.490124	-1.336948	0.211640
C16	C	0.521812	-1.446470	0.225315
C17	C	0.002874	-1.219630	-0.106746
C18	C	0.103145	-1.212700	-0.063425
C19	C	0.133417	-1.165463	0.165561
C20	C	0.033146	-1.172384	0.122258
C21	C	-0.032118	-1.199469	-0.013897
C22	C	-0.001846	-1.152224	0.215108
C23	C	-0.102108	-1.159150	0.171809
C24	C	-0.167378	-1.186236	0.035660
C25	C	-0.132380	-1.206395	-0.057196
C26	C	0.063420	-1.125146	0.351263
C27	C	0.028428	-1.104986	0.444113
C28	C	-0.071837	-1.111904	0.400814
C29	C	-0.137106	-1.138991	0.264665
C30	C	-0.106834	-1.091745	0.493669
C31	C	-0.207096	-1.098671	0.450370
C32	C	-0.237368	-1.145916	0.221365
C33	C	0.620932	-1.133126	0.268134
C34	C	0.727640	-1.125756	0.314215
N35	N	0.487544	-1.094039	0.492384
C36	C	0.620634	-0.478494	0.267989
C37	C	0.650410	-0.581394	0.280843
C38	C	0.581369	-0.652278	0.251034
C39	C	0.482547	-0.620252	0.208368
C40	C	0.452766	-0.517344	0.195503
C41	C	0.413501	-0.691128	0.178548
C42	C	0.314679	-0.659103	0.135883
C43	C	0.284904	-0.556204	0.123020
C44	C	0.353945	-0.485320	0.152829
C45	C	0.443282	-0.794036	0.191414
C46	C	0.275415	-0.832887	0.118928
C47	C	0.245638	-0.729987	0.106074
N48	N	0.408500	-1.217347	-0.105458
C49	C	0.353012	-1.303872	0.808232
C50	C	0.335533	-1.331129	0.676022
C51	C	0.373534	-1.271858	0.630106
C52	C	0.429017	-1.185328	0.716413
C53	C	0.446505	-1.158073	0.848639
C54	C	0.467027	-1.126059	0.670512
C55	C	0.522510	-1.039528	0.756820
C56	C	0.539994	-1.012278	0.889032
C57	C	0.501993	-1.071548	0.934949
C58	C	0.449539	-1.153314	0.538286
C59	C	0.543032	-1.007515	0.578693
C60	C	0.560511	-0.980258	0.710903
H61	H	-0.249016	-1.191878	0.000408
H62	H	0.219195	-0.890603	0.094649
H63	H	0.131630	-1.229119	-0.139045
C64	C	0.621518	-0.885062	0.805833
H65	H	0.641635	-0.853652	0.759555
H66	H	0.677833	-0.906447	0.878794
H67	H	0.582703	-0.836341	0.837696
H68	H	0.573979	-0.959253	0.541311
H69	H	0.730869	-0.607463	0.315572
H70	H	0.523744	-0.820100	0.226157
C71	C	0.354299	-1.301833	0.484674
H72	H	0.315805	-1.361849	0.439845
H73	H	0.415152	-1.316143	0.482738
H74	H	0.320048	-1.245997	0.441704
C75	C	-0.309169	-1.175699	0.071597
H76	H	-0.373893	-1.176929	0.059113
H77	H	-0.290610	-1.242489	0.035242
H78	H	-0.307313	-1.126035	0.028045
C79	C	-0.204171	-1.236221	-0.206963
H80	H	-0.168972	-1.247251	-0.256065
H81	H	-0.252283	-1.181702	-0.232253
H82	H	-0.235536	-1.298138	-0.224964
C83	C	0.274499	-1.426298	0.581092
H84	H	0.254363	-1.457688	0.627368
H85	H	0.313280	-1.475035	0.549194
H86	H	0.218183	-1.404878	0.508152
C87	C	-0.068917	-1.249455	-0.256514
H88	H	-0.033718	-1.260486	-0.305616
H89	H	-0.117028	-1.194937	-0.281803
H90	H	-0.100282	-1.311373	-0.274515
H91	H	0.322082	-1.352127	0.845631
H92	H	0.186568	-1.143415	0.276419
C93	C	0.321188	-0.372131	0.138683
H94	H	0.252446	-0.363207	0.109004
H95	H	0.335768	-0.356785	0.075915
H96	H	0.355133	-0.326568	0.222419
C97	C	0.521223	-1.041571	1.080383
H98	H	0.490646	-1.089267	1.095362
H99	H	0.494899	-0.973409	1.097235
H100	H	0.589996	-1.043567	1.138278
H101	H	0.165174	-0.703899	0.071324
C102	C	0.173707	-1.117528	0.398900
H103	H	0.207566	-1.098524	0.493285
H104	H	0.182450	-1.066461	0.362806
H105	H	0.199150	-1.182913	0.370012
H106	H	0.081579	-1.082937	0.554971
C107	C	0.601042	-0.917111	0.983975
H108	H	0.621168	-0.885712	0.937696
H109	H	0.657352	-0.938534	1.056909
H110	H	0.562261	-0.868367	1.015876
H111	H	0.404365	-1.223767	0.468026
C112	C	-0.035038	-1.061959	0.643429
H113	H	0.029686	-1.060719	0.655918
H114	H	-0.036901	-1.111607	0.686989
H115	H	-0.053599	-0.995157	0.679770
C116	C	-0.245596	-1.076497	0.552495
H117	H	-0.314654	-1.084512	0.507205
H118	H	-0.231302	-1.007436	0.603032
H119	H	-0.214593	-1.123888	0.610242
C120	C	0.614123	-0.765462	0.265188
H121	H	0.682866	-0.774381	0.294879
H122	H	0.580176	-0.811034	0.181470
H123	H	0.599552	-0.780793	0.327979
C124	C	0.696567	-0.400532	0.300760
H125	H	0.759686	-0.434340	0.328005
H126	H	0.698126	-0.344463	0.370491
H127	H	0.678744	-0.374707	0.223979
C128	C	0.176203	-0.520979	0.076084
H129	H	0.139350	-0.577926	0.060185
H130	H	0.151409	-0.496753	-0.003689
H131	H	0.170789	-0.466532	0.142822
