data_functionalizedCrystal
_audit_creation_method	'MofGen! by Chris Wilmer'
_symmetry_space_group_name_H-M	'P1'
_symmetry_Int_Tables_number	1
_symmetry_cell_setting	triclinic
loop_
_symmetry_equiv_pos_as_xyz
  x,y,z
_cell_length_a	16.992694
_cell_length_b	27.732048
_cell_length_c	15.455313
_cell_angle_alpha	92.637842
_cell_angle_beta	87.142206
_cell_angle_gamma	86.655439
loop_
_atom_site_label
_atom_site_type_symbol
_atom_site_fract_x
_atom_site_fract_y
_atom_site_fract_z
O1	O	1.042606	0.100467	-0.072038
O2	O	0.814336	0.099342	-0.072063
O3	O	0.935560	0.029815	-0.072033
O4	O	0.921382	0.169994	-0.072068
O5	O	0.928628	0.033773	0.072227
O6	O	0.807404	0.103301	0.072197
O7	O	1.035674	0.104425	0.072223
Cu8	Cu	0.920906	0.104225	0.085382
Cu9	Cu	0.929104	0.099543	-0.085222
O10	O	0.914450	0.173953	0.072193
C11	C	0.781675	0.099876	0.000064
C12	C	0.694684	0.095561	0.000055
C13	C	0.643939	0.137184	0.000046
C14	C	0.562201	0.133129	0.000059
C15	C	0.531209	0.087449	0.000075
C16	C	0.581960	0.045823	0.000087
C17	C	0.663696	0.049880	0.000080
C18	C	0.287814	0.070637	0.000102
C19	C	0.206071	0.066583	0.000106
C20	C	0.186318	0.153889	0.000080
C21	C	0.268057	0.157941	0.000068
C22	C	0.318800	0.116315	0.000084
N23	N	0.447660	0.083302	0.000086
N24	N	0.402347	0.120463	0.000080
C25	C	0.931796	0.013774	0.000100
C26	C	0.930900	-0.039919	0.000107
C27	C	0.996895	-0.375882	0.000069
C28	C	0.993571	-0.577686	0.000057
O29	O	1.053919	-0.606333	0.000026
N30	N	0.921689	-0.599917	0.000050
C31	C	0.850634	-0.571695	0.000040
O32	O	0.789419	-0.595235	0.000025
C33	C	0.853960	-0.369892	0.000046
C34	C	0.925846	-0.347663	0.000062
C35	C	1.068775	-0.353652	0.000084
C36	C	1.069605	-0.303204	0.000092
C37	C	0.998556	-0.274986	0.000085
C38	C	0.926676	-0.297215	0.000070
C39	C	0.782906	-0.341671	0.000030
C40	C	0.783744	-0.291218	0.000030
C41	C	0.855630	-0.268989	0.000046
C42	C	0.856457	-0.218549	0.000071
N43	N	0.928338	-0.196317	0.000078
C44	C	0.999387	-0.224535	0.000085
C45	C	0.848893	-0.677644	0.000038
C46	C	0.848061	-0.728095	0.000038
C47	C	0.990998	-0.734082	0.000054
C48	C	0.991829	-0.683630	0.000060
C49	C	0.920775	-0.655413	0.000046
C50	C	1.001126	-0.118591	0.000102
C51	C	1.001949	-0.068138	0.000114
C52	C	0.859013	-0.062155	0.000094
C53	C	0.858189	-0.112603	0.000087
C54	C	0.929251	-0.140820	0.000088
O55	O	0.796141	-0.189872	0.000092
O56	O	1.060595	-0.200987	0.000081
C57	C	0.996065	-0.426330	0.000062
C58	C	0.924185	-0.448559	0.000047
C59	C	0.853136	-0.420341	0.000039
C60	C	0.923354	-0.499010	0.000047
C61	C	0.994403	-0.527228	0.000054
C62	C	1.066285	-0.504997	0.000061
C63	C	1.067115	-0.454549	0.000069
C64	C	0.781254	-0.442573	0.000032
C65	C	0.780430	-0.493021	0.000025
C66	C	0.851480	-0.521240	0.000033
C67	C	1.068335	0.103892	0.000094
C68	C	1.155327	0.108206	0.000097
C69	C	0.918214	0.189993	0.000058
C70	C	0.919111	0.243687	0.000046
N71	N	0.915146	0.107517	0.205376
N72	N	0.934870	0.096247	-0.205217
C73	C	0.966664	0.077992	0.250783
C74	C	0.962315	0.080486	0.341590
C75	C	0.906451	0.112509	0.386988
C76	C	0.854928	0.142036	0.341575
C77	C	0.859274	0.139538	0.250770
C78	C	0.887693	0.123276	0.658565
C79	C	0.883353	0.125773	0.749377
C80	C	0.990739	0.064222	0.749385
C81	C	0.995083	0.061730	0.658578
C82	C	0.943557	0.091254	0.613173
N83	N	0.902006	0.115061	0.479807
N84	N	0.947999	0.088700	0.520356
H85	H	0.669166	0.174382	0.000032
H86	H	0.144995	0.187778	0.000068
O87	O	1.040890	0.035589	0.793451
C88	C	1.119438	0.045844	0.771231
H89	H	1.120552	0.083855	0.746258
H90	H	1.155980	0.043455	0.830943
H91	H	1.145299	0.018514	0.718526
O92	O	0.298261	0.202287	0.000147
C93	C	0.341369	0.209310	0.074853
H94	H	0.360984	0.172704	0.099795
H95	H	0.395480	0.230161	0.058012
H96	H	0.302505	0.230742	0.127160
H97	H	1.004264	0.056444	0.378560
H98	H	1.125651	-0.436454	0.000081
O99	O	0.337127	0.030222	0.000261
C100	C	0.381434	0.032009	0.074960
H101	H	0.348695	0.056989	0.127180
H102	H	0.389897	-0.005866	0.100043
H103	H	0.441535	0.046347	0.058061
O104	O	0.837762	0.151985	0.614375
C105	C	0.881885	0.181992	0.561851
H106	H	0.944091	0.164762	0.548236
H107	H	0.852132	0.186612	0.498003
H108	H	0.885111	0.218866	0.596839
O109	O	0.513022	0.173609	0.000010
C110	C	0.557902	0.214797	0.000010
H111	H	0.620369	0.204140	-0.027306
H112	H	0.529382	0.243005	-0.041879
H113	H	0.560246	0.230551	0.069214
H114	H	0.180842	0.029383	0.000119
H115	H	0.705012	0.015986	0.000088
H116	H	0.556720	0.008630	0.000113
H117	H	0.721887	-0.511115	0.000020
H118	H	1.060489	-0.050041	0.000129
H119	H	1.058992	-0.141559	0.000100
H120	H	0.789524	-0.746189	0.000040
O121	O	1.139507	-0.281693	0.000062
C122	C	1.202029	-0.317426	0.000087
H123	H	1.181786	-0.353255	-0.027227
H124	H	1.254268	-0.306095	-0.041791
H125	H	1.220591	-0.321821	0.069298
H126	H	1.126636	-0.376623	0.000087
O127	O	1.061729	-0.662118	0.000028
C128	C	1.124254	-0.697848	0.000059
H129	H	1.104014	-0.733680	-0.027250
H130	H	1.176492	-0.686518	-0.041821
H131	H	1.142815	-0.702240	0.069270
H132	H	1.040572	0.035654	0.621617
H133	H	0.799653	-0.130703	0.000098
O134	O	0.809195	0.168270	0.206793
C135	C	0.758943	0.197062	0.266332
H136	H	0.787970	0.200642	0.331056
H137	H	0.747771	0.234457	0.240078
H138	H	0.700456	0.179369	0.276007
H139	H	0.837859	0.151851	0.786336
H140	H	1.048849	-0.757066	0.000060
O141	O	0.779792	-0.650308	0.000071
C142	C	0.716179	-0.680755	0.000046
H143	H	0.735239	-0.716847	0.027356
H144	H	0.664422	-0.662943	0.041928
H145	H	0.697438	-0.687095	-0.069164
H146	H	0.724370	-0.359761	0.000012
H147	H	0.725882	-0.268245	0.000017
O148	O	0.800625	0.173077	0.385770
C149	C	0.750069	0.146761	0.438300
H150	H	0.781093	0.110546	0.451915
H151	H	0.734372	0.168200	0.502148
H152	H	0.693862	0.140258	0.403318
O153	O	0.790072	-0.034668	0.000047
C154	C	0.806228	0.014627	0.000075
H155	H	0.869078	0.018191	-0.027222
H156	H	0.762923	0.034571	-0.041818
H157	H	0.799748	0.030979	0.069284
H158	H	1.124135	-0.527981	0.000070
H159	H	0.723396	-0.419602	0.000024
H160	H	1.012157	0.051917	0.213826
