data_functionalizedCrystal
_audit_creation_method	'MofGen! by Chris Wilmer'
_symmetry_space_group_name_H-M	'P1'
_symmetry_Int_Tables_number	1
_symmetry_cell_setting	triclinic
loop_
_symmetry_equiv_pos_as_xyz
  x,y,z
_cell_length_a	11.792241
_cell_length_b	27.732025
_cell_length_c	10.268362
_cell_angle_alpha	90.009256
_cell_angle_beta	89.999626
_cell_angle_gamma	83.413442
loop_
_atom_site_label
_atom_site_type_symbol
_atom_site_fract_x
_atom_site_fract_y
_atom_site_fract_z
O1	O	1.504777	0.066249	-0.108128
O2	O	1.174216	0.073077	-0.108154
O3	O	1.349776	-0.000675	-0.108180
O4	O	1.329217	0.140001	-0.108102
O5	O	1.349761	-0.000678	0.108421
O6	O	1.174201	0.073073	0.108446
O7	O	1.504762	0.066246	0.108472
Cu8	Cu	1.339480	0.069659	0.128237
Cu9	Cu	1.339498	0.069663	-0.127919
O10	O	1.329202	0.139998	0.108498
C11	C	1.131932	0.072646	0.000142
C12	C	1.005959	0.071362	0.000130
C13	C	0.775323	0.069002	0.000166
C14	C	0.903666	0.070314	0.000146
C15	C	1.349341	-0.018686	0.000107
C16	C	1.348054	-0.072349	0.000069
C17	C	1.338913	-0.455566	-0.117925
C18	C	1.343732	-0.253879	-0.117967
O19	O	1.344408	-0.227806	-0.218383
N20	N	1.344326	-0.228656	0.000099
C21	C	1.343723	-0.253858	0.118183
O22	O	1.344351	-0.227777	0.218604
C23	C	1.338912	-0.455545	0.118223
C24	C	1.338307	-0.480765	0.000150
C25	C	1.338309	-0.480786	-0.235989
C26	C	1.337098	-0.531205	-0.235977
C27	C	1.336491	-0.556403	-0.117902
C28	C	1.337096	-0.531183	0.000161
C29	C	1.338317	-0.480747	0.236306
C30	C	1.337118	-0.531172	0.236306
C31	C	1.336512	-0.556392	0.118232
C32	C	1.335278	-0.606800	0.118248
N33	N	1.334684	-0.632023	0.000183
C34	C	1.335291	-0.606825	-0.117893
C35	C	1.346247	-0.147969	0.118154
C36	C	1.347447	-0.097548	0.118144
C37	C	1.347458	-0.097572	-0.118007
C38	C	1.346249	-0.147994	-0.117996
C39	C	1.345652	-0.173192	0.000088
C40	C	1.332747	-0.712707	-0.117859
C41	C	1.331531	-0.763130	-0.117837
C42	C	1.331526	-0.763101	0.118312
C43	C	1.332736	-0.712683	0.118291
C44	C	1.333350	-0.687487	0.000195
O45	O	1.334615	-0.632905	0.218612
O46	O	1.334688	-0.632916	-0.218299
C47	C	1.340124	-0.405148	-0.117937
C48	C	1.340728	-0.379928	0.000127
C49	C	1.340122	-0.405126	0.118202
C50	C	1.341929	-0.329506	0.000117
C51	C	1.342535	-0.304308	-0.117958
C52	C	1.341941	-0.329531	-0.236024
C53	C	1.340730	-0.379949	-0.236012
C54	C	1.340716	-0.379903	0.236267
C55	C	1.341926	-0.329485	0.236246
C56	C	1.342532	-0.304286	0.118171
C57	C	1.547047	0.066676	0.000173
C58	C	1.673019	0.067960	0.000177
C59	C	1.329637	0.158009	0.000208
C60	C	1.330925	0.211672	0.000238
N61	N	1.339476	0.069657	0.308403
N62	N	1.339511	0.069662	-0.308085
C63	C	1.339492	0.069662	0.574073
C64	C	1.339479	0.069660	0.426235
H65	H	1.331033	-0.783661	-0.213991
H66	H	1.333248	-0.692199	-0.214025
H67	H	1.338823	-0.460222	0.332454
H68	H	1.336632	-0.551686	0.332466
H69	H	1.338806	-0.460275	-0.332145
H70	H	1.340225	-0.400415	0.332421
H71	H	1.345761	-0.168481	0.214317
H72	H	1.333184	-0.692145	0.214436
H73	H	1.345754	-0.168525	-0.214141
H74	H	1.331028	-0.783627	0.214446
H75	H	1.340237	-0.400479	-0.332160
H76	H	1.342427	-0.309005	-0.332165
H77	H	1.342408	-0.308954	0.332403
H78	H	1.347944	-0.077046	-0.214148
H79	H	1.336612	-0.551734	-0.332125
H80	H	1.347919	-0.077017	0.214291
