data_functionalizedCrystal
_audit_creation_method	'MofGen! by Chris Wilmer'
_symmetry_space_group_name_H-M	'P1'
_symmetry_Int_Tables_number	1
_symmetry_cell_setting	triclinic
loop_
_symmetry_equiv_pos_as_xyz
  x,y,z
_cell_length_a	23.532407
_cell_length_b	23.532407
_cell_length_c	22.610064
_cell_angle_alpha	89.999397
_cell_angle_beta	89.997161
_cell_angle_gamma	82.848678
loop_
_atom_site_label
_atom_site_type_symbol
_atom_site_fract_x
_atom_site_fract_y
_atom_site_fract_z
O1	O	0.755263	0.069127	-0.049117
O2	O	1.255263	0.569127	0.450883
O3	O	0.589400	0.079130	-0.049135
O4	O	1.089400	0.579130	0.450865
O5	O	0.677333	-0.008803	-0.049114
O6	O	1.177333	0.491197	0.450886
O7	O	0.667330	0.157060	-0.049137
O8	O	1.167330	0.657060	0.450863
O9	O	0.677318	-0.008790	0.049255
O10	O	1.177318	0.491210	0.549255
O11	O	0.589385	0.079143	0.049234
O12	O	1.089385	0.579143	0.549234
O13	O	0.755248	0.069140	0.049252
O14	O	1.255248	0.569140	0.549252
Zn15	Zn	0.672314	0.074144	0.064862
Zn16	Zn	1.172314	0.574144	0.564862
Zn17	Zn	0.672334	0.074127	-0.064744
Zn18	Zn	1.172334	0.574127	0.435256
O19	O	0.667315	0.157073	0.049232
O20	O	1.167315	0.657073	0.549232
C21	C	0.568176	0.078882	0.000048
C22	C	1.068176	0.578882	0.500048
C23	C	0.504959	0.078116	0.000041
C24	C	1.004959	0.578116	0.500041
C25	C	0.105856	0.125350	0.000061
C26	C	0.605856	0.625350	0.500061
C27	C	0.046456	0.124638	0.000065
C28	C	0.546456	0.624638	0.500065
O29	O	0.009711	0.168424	0.000081
O30	O	0.509711	0.668424	0.500081
N31	N	0.023830	0.072362	0.000071
N32	N	0.523830	0.572362	0.500071
C33	C	0.060607	0.020794	0.000080
C34	C	0.560607	0.520794	0.500080
O35	O	0.035908	-0.023737	0.000086
O36	O	0.535908	0.476263	0.500086
C37	C	0.120006	0.021506	0.000080
C38	C	0.620006	0.521506	0.500080
C39	C	0.142629	0.073785	0.000068
C40	C	0.642629	0.573785	0.500068
C41	C	0.128479	0.177625	0.000050
C42	C	0.628479	0.677625	0.500050
C43	C	0.187876	0.178336	0.000045
C44	C	0.687876	0.678336	0.500045
C45	C	0.224649	0.126772	0.000052
C46	C	0.724649	0.626772	0.500052
C47	C	0.202025	0.074497	0.000063
C48	C	0.702025	0.574497	0.500063
C49	C	0.156783	-0.030062	0.000093
C50	C	0.656783	0.469938	0.500093
C51	C	0.216185	-0.029345	0.000094
C52	C	0.716185	0.470655	0.500094
C53	C	0.238808	0.022934	0.000082
C54	C	0.738808	0.522934	0.500082
C55	C	0.298194	0.023643	0.000065
C56	C	0.798194	0.523643	0.500065
N57	N	0.320820	0.075920	0.000059
N58	N	0.820820	0.575920	0.500059
C59	C	0.284048	0.127484	0.000052
C60	C	0.784048	0.627484	0.500052
C61	C	-0.064135	0.019302	0.000080
C62	C	0.435865	0.519302	0.500080
C63	C	-0.123533	0.018589	0.000075
C64	C	0.376467	0.518589	0.500075
C65	C	-0.137680	0.122434	0.000061
C66	C	0.362320	0.622434	0.500061
C67	C	-0.078281	0.123146	0.000062
C68	C	0.421719	0.623146	0.500062
C69	C	-0.041509	0.071578	0.000074
C70	C	0.458491	0.571578	0.500074
C71	C	0.408784	0.128974	0.000042
C72	C	0.908784	0.628974	0.500042
C73	C	0.468186	0.129680	0.000034
C74	C	0.968186	0.629680	0.500034
C75	C	0.482329	0.025836	0.000051
C76	C	0.982329	0.525836	0.500051
C77	C	0.422932	0.025129	0.000055
C78	C	0.922932	0.525129	0.500055
C79	C	0.386160	0.076702	0.000052
C80	C	0.886160	0.576702	0.500052
O81	O	0.334974	-0.020119	0.000052
O82	O	0.834974	0.479881	0.500052
O83	O	0.308755	0.172007	0.000054
O84	O	0.808755	0.672007	0.500054
C85	C	0.677071	-0.030013	0.000072
C86	C	1.177071	0.469987	0.500072
C87	C	0.676305	-0.093230	0.000076
C88	C	1.176305	0.406770	0.500076
C89	C	0.723539	-0.492333	0.000049
C90	C	1.223539	0.007667	0.500049
C91	C	0.722827	-0.551733	0.000044
C92	C	1.222827	-0.051733	0.500044
O93	O	0.766613	-0.588478	0.000027
O94	O	1.266613	-0.088478	0.500027
N95	N	0.670551	-0.574359	0.000039
N96	N	1.170551	-0.074359	0.500039
C97	C	0.618983	-0.537582	0.000032
C98	C	1.118983	-0.037582	0.500032
O99	O	0.574452	-0.562281	0.000027
O100	O	1.074452	-0.062281	0.500027
C101	C	0.619695	-0.478182	0.000033
C102	C	1.119695	0.021818	0.500033
C103	C	0.671974	-0.455560	0.000044
C104	C	1.171974	0.044440	0.500044
C105	C	0.775814	-0.469710	0.000060
C106	C	1.275814	0.030290	0.500060
C107	C	0.776525	-0.410313	0.000065
C108	C	1.276525	0.089687	0.500065
C109	C	0.724961	-0.373540	0.000060
C110	C	1.224961	0.126460	0.500060
C111	C	0.672685	-0.396164	0.000050
C112	C	1.172685	0.103836	0.500050
C113	C	0.568127	-0.441406	0.000022
C114	C	1.068127	0.058594	0.500022
C115	C	0.568844	-0.382004	0.000021
C116	C	1.068844	0.117996	0.500021
C117	C	0.621123	-0.359381	0.000033
C118	C	1.121123	0.140619	0.500033
C119	C	0.621832	-0.299995	0.000050
C120	C	1.121832	0.200005	0.500050
N121	N	0.674109	-0.277368	0.000056
N122	N	1.174109	0.222632	0.500056
C123	C	0.725673	-0.314141	0.000061
C124	C	1.225673	0.185859	0.500061
C125	C	0.617491	-0.662324	0.000031
C126	C	1.117491	-0.162324	0.500031
C127	C	0.616778	-0.721722	0.000034
C128	C	1.116778	-0.221722	0.500034
C129	C	0.720623	-0.735869	0.000045
C130	C	1.220623	-0.235869	0.500045
C131	C	0.721335	-0.676470	0.000046
C132	C	1.221335	-0.176470	0.500046
C133	C	0.669767	-0.639698	0.000036
C134	C	1.169767	-0.139698	0.500036
C135	C	0.727163	-0.189405	0.000073
C136	C	1.227163	0.310595	0.500073
C137	C	0.727869	-0.130003	0.000081
C138	C	1.227869	0.369997	0.500081
C139	C	0.624025	-0.115860	0.000067
C140	C	1.124025	0.384140	0.500067
C141	C	0.623318	-0.175257	0.000062
C142	C	1.123318	0.324743	0.500062
C143	C	0.674891	-0.212029	0.000063
C144	C	1.174891	0.287971	0.500063
O145	O	0.578070	-0.263215	0.000065
O146	O	1.078070	0.236785	0.500065
O147	O	0.770196	-0.289433	0.000058
O148	O	1.270196	0.210567	0.500058
C149	C	0.776472	0.069388	0.000069
C150	C	1.276472	0.569388	0.500069
C151	C	0.839689	0.070154	0.000071
C152	C	1.339689	0.570154	0.500071
C153	C	0.667577	0.178283	0.000045
C154	C	1.167577	0.678283	0.500045
C155	C	0.668343	0.241500	0.000036
C156	C	1.168343	0.741500	0.500036
N157	N	0.672304	0.074155	0.153314
N158	N	1.172304	0.574155	0.653314
N159	N	0.672349	0.074111	-0.153196
N160	N	1.172349	0.574111	0.346804
C161	C	0.711273	0.035196	0.561965
C162	C	1.211273	0.535196	1.061965
C163	C	0.711276	0.035192	0.623884
C164	C	1.211276	0.535192	1.123884
O165	O	0.744384	0.002076	0.655911
O166	O	1.244384	0.502076	1.155911
N167	N	0.672334	0.074115	0.654851
N168	N	1.172334	0.574115	1.154851
C169	C	0.633383	0.113041	0.623895
C170	C	1.133383	0.613041	1.123895
O171	O	0.600259	0.146147	0.655920
O172	O	1.100259	0.646147	1.155920
C173	C	0.633377	0.113042	0.561976
C174	C	1.133377	0.613042	1.061976
C175	C	0.672326	0.074120	0.531013
C176	C	1.172326	0.574120	1.031013
C177	C	0.750218	-0.003724	0.531001
C178	C	1.250218	0.496276	1.031001
C179	C	0.750215	-0.003719	0.469085
C180	C	1.250215	0.496281	0.969085
C181	C	0.711268	0.035206	0.438133
C182	C	1.211268	0.535206	0.938133
C183	C	0.672323	0.074125	0.469097
C184	C	1.172323	0.574125	0.969097
C185	C	0.594424	0.151965	0.531021
C186	C	1.094424	0.651965	1.031021
C187	C	0.594422	0.151962	0.469098
C188	C	1.094422	0.651962	0.969098
C189	C	0.633370	0.113040	0.438134
C190	C	1.133370	0.613040	0.938134
C191	C	0.633374	0.113054	0.376229
C192	C	1.133374	0.613054	0.876229
N193	N	0.672316	0.074131	0.345262
N194	N	1.172316	0.574131	0.845262
C195	C	0.711263	0.035207	0.376214
C196	C	1.211263	0.535207	0.876214
C197	C	0.633396	0.113035	0.753928
C198	C	1.133396	0.613035	1.253928
C199	C	0.633403	0.113037	0.815846
C200	C	1.133403	0.613037	1.315846
C201	C	0.711296	0.035187	0.815831
C202	C	1.211296	0.535187	1.315831
C203	C	0.711291	0.035188	0.753913
C204	C	1.211291	0.535188	1.253913
C205	C	0.672338	0.074112	0.722962
C206	C	1.172338	0.574112	1.222962
C207	C	0.711255	0.035220	0.246187
C208	C	1.211255	0.535220	0.746187
C209	C	0.711251	0.035230	0.184266
C210	C	1.211251	0.535230	0.684266
C211	C	0.633357	0.113078	0.184286
C212	C	1.133357	0.613078	0.684286
C213	C	0.633363	0.113071	0.246202
C214	C	1.133363	0.613071	0.746202
C215	C	0.672314	0.074137	0.277151
C216	C	1.172314	0.574137	0.777151
O217	O	0.600281	0.146152	0.344163
O218	O	1.100281	0.646152	0.844163
O219	O	0.744376	0.002101	0.344182
O220	O	1.244376	0.502101	0.844182
H221	H	0.512280	-0.016146	0.000054
H222	H	1.012280	0.483854	0.500054
N223	N	0.792219	-0.045702	0.435692
N224	N	1.292219	0.454298	0.935692
H225	H	0.832600	-0.039350	0.446467
H226	H	1.332600	0.460650	0.946467
H227	H	0.785838	-0.086070	0.446486
H228	H	1.285838	0.413930	0.946486
H229	H	0.206289	0.220908	0.000035
H230	H	0.706289	0.720908	0.500035
N231	N	0.591355	0.155055	0.279595
N232	N	1.091355	0.655055	0.779595
H233	H	0.566263	0.133417	0.305283
H234	H	1.066263	0.633417	0.805283
H235	H	0.613010	0.180151	0.305254
H236	H	1.113010	0.680151	0.805254
H237	H	0.486602	0.172255	0.000024
H238	H	0.986602	0.672255	0.500024
H239	H	0.743005	0.003494	0.728706
H240	H	1.243005	0.503494	1.228706
N241	N	0.255847	-0.084966	0.000110
N242	N	0.755847	0.415034	0.500110
H243	H	0.232498	-0.118189	0.000119
H244	H	0.732498	0.381811	0.500119
H245	H	0.280802	-0.086943	-0.036357
H246	H	0.780802	0.413057	0.463643
H247	H	0.580748	-0.193677	0.000069
H248	H	1.080748	0.306323	0.500069
H249	H	0.770443	-0.111587	0.000092
H250	H	1.270443	0.388413	0.500092
N251	N	0.511742	-0.465802	0.000002
N252	N	1.011742	0.034198	0.500002
H253	H	0.509118	-0.490133	0.036464
H254	H	1.009118	0.009867	0.536464
H255	H	0.479220	-0.433458	-0.000028
H256	H	0.979220	0.066542	0.499972
N257	N	0.591351	0.155060	0.150896
N258	N	1.091351	0.655060	0.650896
H259	H	0.597261	0.149151	0.106973
H260	H	1.097261	0.649151	0.606973
H261	H	0.550991	0.148680	0.161722
H262	H	1.050991	0.648680	0.661722
N263	N	0.753272	-0.006767	0.279559
N264	N	1.253272	0.493233	0.779559
H265	H	0.778364	0.014869	0.305246
H266	H	1.278364	0.514869	0.805246
H267	H	0.731623	-0.031872	0.305217
H268	H	1.231623	0.468128	0.805217
N269	N	0.552404	0.193945	0.435720
N270	N	1.052404	0.693945	0.935720
H271	H	0.558730	0.234333	0.446498
H272	H	1.058730	0.734333	0.946498
H273	H	0.558328	0.187996	0.391806
H274	H	1.058328	0.687996	0.891806
H275	H	-0.167632	0.164421	0.000059
H276	H	0.332368	0.664421	0.500059
N277	N	0.753305	-0.006797	0.849221
N278	N	1.253305	0.493203	1.349221
H279	H	0.747393	-0.000890	0.893144
H280	H	1.247393	0.499110	1.393144
H281	H	0.746956	-0.047167	0.838400
H282	H	1.246956	0.452833	1.338400
N283	N	0.132392	-0.086450	0.000115
N284	N	0.632392	0.413550	0.500115
H285	H	0.108064	-0.089076	-0.036348
H286	H	0.608064	0.410924	0.463652
H287	H	0.164739	-0.118969	0.000146
H288	H	0.664739	0.381031	0.500146
H289	H	0.098544	0.219617	0.000046
H290	H	0.598544	0.719617	0.500046
H291	H	0.378851	0.170970	0.000041
H292	H	0.878851	0.670970	0.500041
N293	N	0.513223	-0.342342	0.000008
N294	N	1.013223	0.157658	0.500008
H295	H	0.480000	-0.365691	0.000000
H296	H	0.980000	0.134309	0.500000
H297	H	0.511246	-0.317390	0.036476
H298	H	1.011246	0.182610	0.536476
H299	H	-0.059867	0.165717	0.000055
H300	H	0.440133	0.665717	0.500055
N301	N	0.591398	0.155020	0.849239
N302	N	1.091398	0.655020	1.349239
H303	H	0.566726	0.179676	0.820230
H304	H	1.066726	0.679676	1.320230
H305	H	0.566347	0.133340	0.874928
H306	H	1.066347	0.633340	1.374928
H307	H	-0.141947	-0.023982	0.000076
H308	H	0.358053	0.476018	0.500076
N309	N	0.792237	-0.045701	0.564379
N310	N	1.292237	0.454299	1.064379
H311	H	0.816907	-0.070349	0.535359
H312	H	1.316907	0.429651	1.035359
H313	H	0.817289	-0.024015	0.590058
H314	H	1.317289	0.475985	1.090058
N315	N	0.782787	-0.229060	0.000074
N316	N	1.282787	0.270940	0.500074
H317	H	0.816007	-0.205707	0.000083
H318	H	1.316007	0.294293	0.500083
H319	H	0.784749	-0.254014	0.036540
H320	H	1.284749	0.245986	0.536540
N321	N	0.591389	0.155027	0.720545
N322	N	1.091389	0.655027	1.220545
H323	H	0.566293	0.133396	0.694858
H324	H	1.066293	0.633396	1.194858
H325	H	0.566762	0.179673	0.749597
H326	H	1.066762	0.679673	1.249597
N327	N	0.560388	-0.746112	0.000029
N328	N	1.060388	-0.246112	0.500029
H329	H	0.557779	-0.770438	-0.036439
H330	H	1.057779	-0.270438	0.463561
H331	H	0.557801	-0.770414	0.036516
H332	H	1.057801	-0.270414	0.536516
N333	N	0.568411	-0.076193	0.000078
N334	N	1.068411	0.423807	0.500078
H335	H	0.576799	-0.035132	0.000085
H336	H	1.076799	0.464868	0.500085
H337	H	0.545612	-0.083476	-0.036390
H338	H	1.045612	0.416524	0.463610
H339	H	-0.034198	-0.022693	0.000084
H340	H	0.465802	0.477307	0.500084
H341	H	0.404512	-0.017441	0.000056
H342	H	0.904512	0.482559	0.500056
H343	H	0.819097	-0.391900	0.000072
H344	H	1.319097	0.108100	0.500072
N345	N	0.561868	-0.622664	0.000025
N346	N	1.061868	-0.122664	0.500025
H347	H	0.528647	-0.646015	0.000023
H348	H	1.028647	-0.146015	0.500023
H349	H	0.559894	-0.597711	0.036492
H350	H	1.059894	-0.097711	0.536492
H351	H	0.763906	-0.658056	0.000054
H352	H	1.263906	-0.158056	0.500054
N353	N	0.831434	-0.509367	0.000066
N354	N	1.331434	-0.009367	0.500066
H355	H	0.864653	-0.486012	0.000073
H356	H	1.364653	0.013988	0.500073
H357	H	0.833396	-0.534317	0.036534
H358	H	1.333396	-0.034317	0.536534
N359	N	0.776241	-0.775538	0.000051
N360	N	1.276241	-0.275538	0.500051
H361	H	0.767853	-0.816598	0.000047
H362	H	1.267853	-0.316598	0.500047
H363	H	0.799045	-0.768246	-0.036413
H364	H	1.299045	-0.268246	0.463587
N365	N	0.753263	-0.006749	0.150870
N366	N	1.253263	0.493251	0.650870
H367	H	0.777934	-0.031409	0.179877
H368	H	1.277934	0.468591	0.679877
H369	H	0.731605	-0.031816	0.125179
H370	H	1.231605	0.468184	0.625179
H371	H	0.562709	0.183658	0.556223
H372	H	1.062709	0.683658	1.056223
