data_functionalizedCrystal
_audit_creation_method	'MofGen! by Chris Wilmer'
_symmetry_space_group_name_H-M	'P1'
_symmetry_Int_Tables_number	1
_symmetry_cell_setting	triclinic
loop_
_symmetry_equiv_pos_as_xyz
  x,y,z
_cell_length_a	17.640112
_cell_length_b	21.295417
_cell_length_c	17.639306
_cell_angle_alpha	101.182150
_cell_angle_beta	87.804122
_cell_angle_gamma	101.256239
loop_
_atom_site_label
_atom_site_type_symbol
_atom_site_fract_x
_atom_site_fract_y
_atom_site_fract_z
Zn1	Zn	1.247725	-0.080914	-0.195061
Zn2	Zn	1.221964	-0.169894	-0.068081
Zn3	Zn	1.095076	-0.089221	-0.093713
Zn4	Zn	1.120668	-0.210748	-0.220650
O5	O	1.171358	-0.137694	-0.144376
O6	O	1.350585	-0.072143	-0.156781
O7	O	1.183640	-0.145572	0.034784
O8	O	1.115396	-0.000021	-0.107176
O9	O	1.331658	-0.137517	-0.063489
O10	O	1.227547	0.006082	-0.181636
O11	O	1.090416	-0.086302	0.015952
O12	O	0.992193	-0.125916	-0.131988
O13	O	1.159014	-0.207146	-0.323521
O14	O	1.010995	-0.215201	-0.225248
O15	O	1.252363	-0.111758	-0.304721
O16	O	1.208455	-0.263411	-0.088301
O17	O	1.134034	-0.293426	-0.200393
C18	C	0.974038	-0.175893	-0.184177
C19	C	0.889627	-0.192253	-0.201221
C20	C	0.563034	-0.013405	-0.014896
C21	C	0.483719	-0.028791	-0.030922
C22	C	0.503318	-0.121853	-0.127866
C23	C	0.582637	-0.106473	-0.111851
C24	C	0.612488	-0.052248	-0.055364
C25	C	0.632091	-0.145316	-0.152319
C26	C	0.711402	-0.129939	-0.136301
C27	C	0.741259	-0.075718	-0.079816
C28	C	0.691799	-0.036871	-0.039347
C29	C	0.602238	-0.199543	-0.208801
C30	C	0.651692	-0.238387	-0.249269
C31	C	0.731005	-0.223007	-0.233256
C32	C	0.760862	-0.168786	-0.176771
C33	C	0.780465	-0.261854	-0.273725
C34	C	0.859776	-0.246477	-0.257708
C35	C	0.840173	-0.153409	-0.160753
C36	C	1.171250	-0.301260	-0.144354
C37	C	1.171278	-0.371224	-0.144356
C38	C	1.210083	-0.388439	-0.086031
C39	C	1.210122	-0.454176	-0.086041
C40	C	1.171341	-0.502698	-0.144371
C41	C	1.132535	-0.485477	-0.202706
C42	C	1.132504	-0.419740	-0.202699
N43	N	1.106074	-0.619573	-0.163561
N44	N	1.106105	-0.682020	-0.163563
C45	C	1.171435	-0.700762	-0.144397
N46	N	1.236732	-0.654696	-0.125214
N47	N	1.236699	-0.592243	-0.125209
C48	C	1.171372	-0.573981	-0.144386
C49	C	1.210286	-0.789256	-0.086079
C50	C	1.210327	-0.854996	-0.086094
C51	C	1.132733	-0.886296	-0.202757
C52	C	1.132699	-0.820557	-0.202745
C53	C	1.171474	-0.772041	-0.144402
C54	C	1.369449	-0.099346	-0.104421
C55	C	1.453863	-0.083005	-0.087395
C56	C	1.211417	-0.163082	-0.342445
C57	C	1.228487	-0.173901	-0.426850
C58	C	1.171491	0.026512	-0.144411
C59	C	1.171547	0.096487	-0.144426
C60	C	1.041970	-0.055212	-0.753490
C61	C	1.058028	-0.065388	-0.832798
C62	C	1.155092	-0.127100	-0.813170
C63	C	1.139045	-0.116926	-0.733858
C64	C	1.082483	-0.080983	-0.704025
C65	C	1.179558	-0.142697	-0.684394
C66	C	1.163509	-0.132527	-0.605089
C67	C	1.106948	-0.096587	-0.575250
C68	C	1.066434	-0.070813	-0.624721
C69	C	1.236116	-0.178644	-0.714229
C70	C	1.276629	-0.204415	-0.664764
C71	C	1.260584	-0.194241	-0.585458
C72	C	1.204023	-0.158301	-0.555619
C73	C	1.301098	-0.220015	-0.535987
C74	C	1.285049	-0.209845	-0.456683
C75	C	1.187974	-0.148131	-0.476315
C76	C	1.131499	-0.112351	0.052930
C77	C	1.114576	-0.101326	0.137364
H78	H	0.443456	0.002848	0.002031
C79	C	1.252807	-0.473118	-0.021873
N80	N	1.284955	-0.487384	0.026460
C81	C	1.090029	-0.801620	-0.266920
N82	N	1.057898	-0.787357	-0.315267
H83	H	1.241932	-0.869008	-0.038600
C84	C	1.363153	-0.259716	-0.568847
N85	N	1.409837	-0.289677	-0.593609
H86	H	1.249183	-0.186921	-0.778804
H87	H	0.479002	-0.166004	-0.173855
H88	H	1.322679	-0.233683	-0.689066
C89	C	1.252952	-0.735885	-0.021911
N90	N	1.285091	-0.695688	0.026419
H91	H	1.025036	-0.044397	-0.873071
H92	H	1.101161	-0.925802	-0.250253
C93	C	0.724639	0.022781	0.022789
N94	N	0.749375	0.067708	0.069588
C95	C	0.747617	-0.321502	-0.335854
N96	N	0.722875	-0.366429	-0.382651
H97	H	0.805839	-0.063200	-0.066774
H98	H	0.537657	-0.212061	-0.221840
H99	H	1.201142	-0.156368	-0.837472
H100	H	1.318049	-0.230819	-0.416405
H101	H	0.864481	-0.109246	-0.114768
H102	H	0.995919	-0.025935	-0.729197
C103	C	0.595874	0.046247	0.047239
N104	N	0.620610	0.091174	0.094039
C105	C	1.125756	-0.108588	-0.443493
N106	N	1.078893	-0.078807	-0.418772
H107	H	0.627375	-0.282538	-0.295258
C108	C	1.004216	-0.031270	-0.591900
N109	N	0.957353	-0.001489	-0.567179
H110	H	1.100961	-0.524988	-0.250200
H111	H	1.100904	-0.405725	-0.250195
H112	H	0.900043	-0.278107	-0.290662
C113	C	1.252727	-0.335074	-0.021846
N114	N	1.284842	-0.294880	0.026502
H115	H	1.093877	-0.088312	-0.510676
