data_functionalizedCrystal
_audit_creation_method	'MofGen! by Chris Wilmer'
_symmetry_space_group_name_H-M	'P1'
_symmetry_Int_Tables_number	1
_symmetry_cell_setting	triclinic
loop_
_symmetry_equiv_pos_as_xyz
  x,y,z
_cell_length_a	16.992694
_cell_length_b	15.995350
_cell_length_c	16.053802
_cell_angle_alpha	92.567808
_cell_angle_beta	87.249047
_cell_angle_gamma	87.080299
loop_
_atom_site_label
_atom_site_type_symbol
_atom_site_fract_x
_atom_site_fract_y
_atom_site_fract_z
O1	O	1.043694	0.174244	-0.069318
O2	O	0.815410	0.172295	-0.069342
O3	O	0.935792	0.051799	-0.069329
O4	O	0.923312	0.294739	-0.069332
O5	O	0.929166	0.058403	0.069530
O6	O	0.808784	0.178898	0.069516
O7	O	1.037068	0.180847	0.069540
Zn8	Zn	0.921874	0.180921	0.091575
Zn9	Zn	0.930604	0.172221	-0.091377
O10	O	0.916685	0.301343	0.069527
C11	C	0.782884	0.173091	0.000083
C12	C	0.695841	0.165614	0.000074
C13	C	0.645600	0.237749	0.000074
C14	C	0.563813	0.230720	0.000085
C15	C	0.532268	0.151555	0.000091
C16	C	0.582515	0.079414	0.000094
C17	C	0.664300	0.086444	0.000088
C18	C	0.288669	0.122417	0.000114
C19	C	0.206878	0.115392	0.000117
C20	C	0.188181	0.266699	0.000110
C21	C	0.269969	0.273722	0.000099
C22	C	0.320209	0.201582	0.000106
N23	N	0.448669	0.144368	0.000100
N24	N	0.403806	0.208770	0.000103
C25	C	0.931963	0.023872	0.000099
C26	C	0.930417	-0.069182	0.000094
C27	C	0.924861	-0.407302	0.000096
C28	C	0.839142	-0.365620	-0.000225
C29	C	0.840674	-0.268811	0.000089
C30	C	0.927617	-0.239557	0.000095
C31	C	0.966120	-0.274034	0.079392
C32	C	0.963963	-0.370810	0.079459
C33	C	0.973269	-0.378559	-0.078449
C34	C	0.973299	-0.281665	-0.079497
C35	C	0.929179	-0.144755	0.000096
C36	C	0.923302	-0.502103	0.000100
C37	C	1.069593	0.180051	0.000113
C38	C	1.156637	0.187528	0.000117
C39	C	0.920515	0.329270	0.000097
C40	C	0.922061	0.422324	0.000097
N41	N	0.915921	0.186859	0.216434
N42	N	0.936563	0.166277	-0.216236
C43	C	0.967163	0.135608	0.260134
C44	C	0.963006	0.139770	0.347541
C45	C	0.907611	0.195187	0.391245
C46	C	0.856364	0.246439	0.347539
C47	C	0.860518	0.242273	0.260135
C48	C	0.889469	0.213363	0.652653
C49	C	0.885321	0.217528	0.740064
C50	C	0.991962	0.110857	0.740059
C51	C	0.996114	0.106699	0.652652
C52	C	0.944864	0.157948	0.608954
N53	N	0.903363	0.199444	0.480589
N54	N	0.949109	0.153686	0.519612
H55	H	0.181198	0.050923	0.000121
C56	C	0.547822	-0.007668	0.000099
H57	H	0.589459	-0.049622	0.000106
H58	H	0.518610	-0.015859	-0.048322
H59	H	0.514002	-0.011251	0.048530
H60	H	0.147268	0.325432	0.000106
C61	C	0.719565	0.007095	0.000080
H62	H	0.689067	-0.041061	0.000075
H63	H	0.749557	0.008993	0.048499
H64	H	0.754159	0.004392	-0.048353
C65	C	1.048326	0.054478	0.788124
H66	H	1.081914	0.020881	0.749576
H67	H	1.018502	0.019345	0.822229
H68	H	1.079348	0.088430	0.822212
C69	C	0.343922	0.043066	0.000116
H70	H	0.313420	-0.005087	0.000111
H71	H	0.373911	0.044963	0.048538
H72	H	0.378520	0.040357	-0.048314
H73	H	0.295647	0.338187	0.000085
H74	H	0.810146	-0.245316	-0.056756
H75	H	1.036930	-0.262288	-0.084280
C76	C	0.508549	0.310066	0.000077
H77	H	0.455322	0.294544	0.000089
H78	H	0.520415	0.339993	-0.048351
H79	H	0.515807	0.344610	0.048501
C80	C	0.796506	-0.397412	-0.077037
H81	H	0.830596	-0.436395	-0.109599
H82	H	0.782296	-0.351445	-0.109693
H83	H	0.750325	-0.424033	-0.059203
H84	H	0.948107	-0.403833	-0.138552
H85	H	1.004731	0.098037	0.383120
C86	C	1.057044	0.045735	0.604583
H87	H	1.086962	0.015802	0.643128
H88	H	1.091300	0.076432	0.570476
H89	H	1.030453	0.007348	0.570497
C90	C	1.052219	-0.248995	0.083390
H91	H	1.074366	-0.270483	0.131799
H92	H	1.053609	-0.189645	0.085766
H93	H	1.081805	-0.271429	0.035070
H94	H	1.036506	-0.406115	-0.078977
H95	H	1.012274	0.090486	0.224555
C96	C	0.824384	0.278486	0.788142
H97	H	0.829259	0.273633	0.846455
H98	H	0.772736	0.265175	0.773832
H99	H	0.833579	0.334264	0.773808
C100	C	0.804155	0.298651	0.212065
H101	H	0.770574	0.332259	0.250611
H102	H	0.773139	0.264702	0.177976
H103	H	0.833984	0.333789	0.177961
C104	C	0.922642	-0.234568	0.159110
H105	H	0.946380	-0.255825	0.206765
H106	H	0.868836	-0.248103	0.159817
H107	H	0.925899	-0.175424	0.159931
H108	H	0.802329	-0.384808	0.056318
H109	H	0.930299	-0.388357	0.138731
H110	H	0.804493	-0.240478	0.057023
H111	H	0.945181	-0.259275	-0.138159
C112	C	0.833103	0.269743	0.604596
H113	H	0.799525	0.303349	0.643145
H114	H	0.802083	0.235797	0.570507
H115	H	0.862931	0.304881	0.570492
C116	C	1.048758	-0.408457	0.084341
H117	H	1.084370	-0.364592	0.086282
H118	H	1.061856	-0.444525	0.036529
H119	H	1.052362	-0.439468	0.133242
C120	C	0.795407	0.307371	0.395609
H121	H	0.765472	0.337284	0.357062
H122	H	0.821964	0.345767	0.429710
H123	H	0.761158	0.276642	0.429700
C124	C	0.680292	0.324832	0.000067
H125	H	0.638654	0.366786	0.000076
H126	H	0.714111	0.328419	-0.048358
H127	H	0.709503	0.333022	0.048494
