data_functionalizedCrystal
_audit_creation_method	'MofGen! by Chris Wilmer'
_symmetry_space_group_name_H-M	'P1'
_symmetry_Int_Tables_number	1
_symmetry_cell_setting	triclinic
loop_
_symmetry_equiv_pos_as_xyz
  x,y,z
_cell_length_a	16.959455
_cell_length_b	16.959453
_cell_length_c	12.759393
_cell_angle_alpha	89.964958
_cell_angle_beta	89.973386
_cell_angle_gamma	90.017008
loop_
_atom_site_label
_atom_site_type_symbol
_atom_site_fract_x
_atom_site_fract_y
_atom_site_fract_z
Zn1	Zn	1.208433	-0.314698	-0.594183
Zn2	Zn	1.208341	-0.446899	-0.418493
Zn3	Zn	1.076247	-0.314732	-0.418498
Zn4	Zn	1.076226	-0.446831	-0.594109
O5	O	1.142312	-0.380790	-0.506321
O6	O	1.319032	-0.332249	-0.570907
O7	O	1.190789	-0.429410	-0.271472
O8	O	1.093829	-0.204116	-0.441836
O9	O	1.318964	-0.429377	-0.441827
O10	O	1.190945	-0.204091	-0.570911
O11	O	1.093740	-0.332307	-0.271476
O12	O	0.965633	-0.332241	-0.441764
O13	O	1.093793	-0.429261	-0.741140
O14	O	0.965618	-0.429294	-0.570785
O15	O	1.190925	-0.332183	-0.741195
O16	O	1.190769	-0.557501	-0.441756
O17	O	1.093705	-0.557451	-0.570781
C18	C	0.936946	-0.380764	-0.506268
C19	C	0.849089	-0.380772	-0.506270
C20	C	1.142246	-0.586156	-0.506282
C21	C	1.142290	-0.674013	-0.506301
C22	C	1.192945	-1.045417	-0.573657
C23	C	1.091899	-1.045560	-0.439141
C24	C	1.091870	-0.963014	-0.439116
C25	C	1.142378	-0.921666	-0.506365
C26	C	1.192916	-0.962863	-0.573637
C27	C	1.041328	-0.921810	-0.371853
C28	C	1.041296	-0.839259	-0.371827
C29	C	1.091809	-0.797910	-0.439071
C30	C	1.142349	-0.839112	-0.506345
C31	C	1.192857	-0.797764	-0.573594
C32	C	1.243402	-0.838965	-0.640863
C33	C	1.243429	-0.921514	-0.640881
C34	C	1.091782	-0.715361	-0.439053
C35	C	1.192828	-0.715210	-0.573574
C36	C	0.477568	-0.431314	-0.439075
C37	C	0.477659	-0.330331	-0.573695
C38	C	0.560205	-0.330318	-0.573669
C39	C	0.601436	-0.380805	-0.506347
C40	C	0.560121	-0.431305	-0.439050
C41	C	0.601526	-0.279825	-0.640972
C42	C	0.684077	-0.279811	-0.640950
C43	C	0.725310	-0.330294	-0.573622
C44	C	0.683990	-0.380795	-0.506321
C45	C	0.725221	-0.431282	-0.438999
C46	C	0.683902	-0.481780	-0.371692
C47	C	0.601354	-0.481788	-0.371721
C48	C	0.807858	-0.330286	-0.573593
C49	C	0.807774	-0.431272	-0.438973
C50	C	1.348480	-0.380816	-0.506375
C51	C	1.436337	-0.380828	-0.506398
C52	C	1.142367	-0.380710	-0.780354
C53	C	1.142391	-0.380676	-0.897131
C54	C	1.142400	-0.174622	-0.506383
C55	C	1.142437	-0.086765	-0.506409
C56	C	1.192974	-0.330123	-0.952023
C57	C	1.192993	-0.330094	-1.061747
C58	C	1.091843	-0.431179	-1.061678
C59	C	1.091821	-0.431203	-0.951956
C60	C	1.251375	-0.271765	-0.952064
C61	C	1.251394	-0.271736	-1.061788
C62	C	1.142302	-0.380812	-0.233354
C63	C	1.142432	-0.380624	-0.116577
H64	H	1.233961	-0.681550	-0.628332
H65	H	1.312611	-0.288135	-1.091577
Br66	Br	1.261543	-1.101328	-0.664942
Br67	Br	0.545567	-0.211325	-0.732350
H68	H	0.717483	-0.522890	-0.316884
Br69	Br	1.224090	-0.169739	-0.902462
H70	H	1.284522	-0.805290	-0.695623
H71	H	1.050775	-1.079231	-0.384394
Br72	Br	1.023153	-0.499798	-0.877461
Br73	Br	0.545275	-0.550315	-0.280386
Br74	Br	1.023213	-0.499747	-1.136089
Br75	Br	1.348265	-0.308344	-0.895340
Br76	Br	0.421497	-0.499838	-0.347728
Br77	Br	1.214767	-0.174845	-1.118550
H78	H	0.717712	-0.238692	-0.695755
H79	H	1.000205	-0.955482	-0.317106
H80	H	1.284579	-0.955067	-0.695650
H81	H	0.444084	-0.289232	-0.628511
Br82	Br	0.972698	-0.783351	-0.280539
H83	H	0.841339	-0.472382	-0.384147
Br84	Br	1.023188	-0.659448	-0.347771
Br85	Br	0.863930	-0.261765	-0.664937
