data_functionalizedCrystal
_audit_creation_method	'MofGen! by Chris Wilmer'
_symmetry_space_group_name_H-M	'P1'
_symmetry_Int_Tables_number	1
_symmetry_cell_setting	triclinic
loop_
_symmetry_equiv_pos_as_xyz
  x,y,z
_cell_length_a	14.908571
_cell_length_b	12.645330
_cell_length_c	14.908308
_cell_angle_alpha	93.270481
_cell_angle_beta	90.175053
_cell_angle_gamma	86.714080
loop_
_atom_site_label
_atom_site_type_symbol
_atom_site_fract_x
_atom_site_fract_y
_atom_site_fract_z
Zn1	Zn	1.345316	-0.553227	-0.587609
Zn2	Zn	1.845316	-0.053227	-0.087609
Zn3	Zn	1.353903	-0.720906	-0.437258
Zn4	Zn	1.853903	-0.220906	0.062742
Zn5	Zn	1.203631	-0.532865	-0.428606
Zn6	Zn	1.703631	-0.032865	0.071394
Zn7	Zn	1.194931	-0.719646	-0.578909
Zn8	Zn	1.694931	-0.219646	-0.078909
O9	O	1.274445	-0.631661	-0.508096
O10	O	1.774445	-0.131661	-0.008096
O11	O	1.472282	-0.584518	-0.574926
O12	O	1.972282	-0.084518	-0.074926
O13	O	1.341204	-0.687967	-0.310285
O14	O	1.841204	-0.187967	0.189715
O15	O	1.222473	-0.387223	-0.449718
O16	O	1.722473	0.112777	0.050282
O17	O	1.478590	-0.707711	-0.464464
O18	O	1.978590	-0.207711	0.035536
O19	O	1.326569	-0.402183	-0.566537
O20	O	1.826569	0.097817	-0.066537
O21	O	1.230799	-0.549815	-0.303929
O22	O	1.730799	-0.049815	0.196071
O23	O	1.076650	-0.548593	-0.441282
O24	O	1.576650	-0.048593	0.058718
O25	O	1.207645	-0.705565	-0.705889
O26	O	1.707645	-0.205565	-0.205889
O27	O	1.070259	-0.685821	-0.551710
O28	O	1.570259	-0.185821	-0.051710
O29	O	1.318133	-0.583297	-0.712280
O30	O	1.818133	-0.083297	-0.212280
O31	O	1.332768	-0.869081	-0.456028
O32	O	1.832768	-0.369081	0.043972
O33	O	1.215971	-0.868156	-0.560099
O34	O	1.715971	-0.368156	-0.060099
C35	C	1.040829	-0.614862	-0.494614
C36	C	1.540829	-0.114862	0.005386
C37	C	0.940886	-0.607702	-0.488867
C38	C	1.440886	-0.107702	0.011133
C39	C	0.746483	-0.737343	-0.592903
C40	C	1.246483	-0.237343	-0.092903
C41	C	0.652577	-0.730619	-0.587507
C42	C	1.152577	-0.230619	-0.087507
C43	C	0.659166	-0.587526	-0.472684
C44	C	1.159166	-0.087526	0.027316
C45	C	0.753072	-0.594249	-0.478080
C46	C	1.253072	-0.094249	0.021920
C47	C	0.796727	-0.669162	-0.538191
C48	C	1.296727	-0.169162	-0.038191
C49	C	0.890635	-0.675890	-0.543582
C50	C	1.390635	-0.175890	-0.043582
C51	C	0.897222	-0.532792	-0.428764
C52	C	1.397222	-0.032792	0.071236
C53	C	0.803316	-0.526068	-0.423368
C54	C	1.303316	-0.026068	0.076632
C55	C	1.274380	-0.907085	-0.508079
C56	C	1.774380	-0.407085	-0.008079
C57	C	1.274433	-1.024921	-0.508107
C58	C	1.774433	-0.524921	-0.008107
C59	C	1.201231	-1.191981	-0.573809
C60	C	1.701231	-0.691981	-0.073809
C61	C	1.200890	-1.069382	-0.573564
C62	C	1.700890	-0.569382	-0.073564
C63	C	1.254254	-1.061620	-0.411871
C64	C	1.754254	-0.561620	0.088129
C65	C	1.253808	-1.184216	-0.412269
C66	C	1.753808	-0.684216	0.087731
C67	C	1.368282	-1.200403	-0.537898
C68	C	1.868282	-0.700403	-0.037898
C69	C	1.367579	-1.077886	-0.539936
C70	C	1.867579	-0.577886	-0.039936
C71	C	1.508974	-0.648527	-0.521631
C72	C	2.008974	-0.148527	-0.021631
C73	C	1.608916	-0.655714	-0.527399
C74	C	2.108916	-0.155714	-0.027399
C75	C	1.260961	-0.646562	-0.742622
C76	C	1.760961	-0.146562	-0.242622
C77	C	1.255214	-0.652912	-0.842563
C78	C	1.755214	-0.152912	-0.342563
C79	C	1.274534	-0.355164	-0.508133
C80	C	1.774534	0.144836	-0.008133
C81	C	1.274571	-0.237338	-0.508149
C82	C	1.774571	0.262662	-0.008149
C83	C	1.359465	-0.537502	-1.037020
C84	C	1.859465	-0.037502	-0.537020
C85	C	1.354068	-0.543464	-1.130923
C86	C	1.854068	-0.043464	-0.630923
C87	C	1.239021	-0.670794	-1.124275
C88	C	1.739021	-0.170794	-0.624275
C89	C	1.244418	-0.664831	-1.030371
C90	C	1.744418	-0.164831	-0.530371
C91	C	1.304642	-0.598184	-0.986747
C92	C	1.804642	-0.098184	-0.486747
C93	C	1.310043	-0.592227	-0.892842
C94	C	1.810043	-0.092227	-0.392842
C95	C	1.194992	-0.719550	-0.886195
C96	C	1.694992	-0.219550	-0.386195
C97	C	1.189595	-0.725513	-0.980099
C98	C	1.689595	-0.225513	-0.480099
C99	C	1.287929	-0.616745	-0.274485
C100	C	1.787929	-0.116745	0.225515
C101	C	1.293850	-0.610109	-0.174555
C102	C	1.793850	-0.110109	0.325445
H103	H	0.611672	-0.786137	-0.632061
H104	H	1.111672	-0.286137	-0.132061
C105	C	1.217085	-1.036262	-0.669736
C106	C	1.717085	-0.536262	-0.169736
N107	N	1.229280	-1.011321	-0.742178
N108	N	1.729280	-0.511321	-0.242178
H109	H	1.186661	-1.024731	-0.386976
H110	H	1.686661	-0.524731	0.113024
H111	H	1.305205	-1.213914	-0.361385
H112	H	1.805205	-0.713914	0.138615
C113	C	1.324453	-1.022364	-0.343645
C114	C	1.824453	-0.522364	0.156355
N115	N	1.377326	-0.992792	-0.292258
N116	N	1.877326	-0.492792	0.207742
C117	C	1.388295	-1.046355	-0.635636
C118	C	1.888295	-0.546355	-0.135636
N119	N	1.403903	-1.022585	-0.707712
N120	N	1.903903	-0.522585	-0.207712
C121	C	1.414380	-0.476712	-1.186220
C122	C	1.914380	0.023288	-0.686220
N123	N	1.459809	-0.426432	-1.227870
N124	N	1.959809	0.073568	-0.727870
C125	C	1.172757	-0.744071	-1.172277
C126	C	1.672757	-0.244071	-0.672277
N127	N	1.122841	-0.799257	-1.208433
N128	N	1.622841	-0.299257	-0.708433
C129	C	1.394591	-1.250195	-0.631484
C130	C	1.894591	-0.750195	-0.131484
N131	N	1.414397	-1.287698	-0.701976
N132	N	1.914397	-0.787698	-0.201976
H133	H	0.926177	-0.736889	-0.592525
H134	H	1.426177	-0.236889	-0.092525
C135	C	1.217205	-1.239348	-0.670281
C136	C	1.717205	-0.739348	-0.170281
N137	N	1.229237	-1.275035	-0.742946
N138	N	1.729237	-0.775035	-0.242946
C139	C	1.107803	-1.225543	-0.546905
C140	C	1.607803	-0.725543	-0.046905
N141	N	1.037433	-1.250819	-0.526636
N142	N	1.537433	-0.750819	-0.026636
C143	C	1.106867	-1.021657	-0.546420
C144	C	1.606867	-0.521657	-0.046420
N145	N	1.036038	-0.985712	-0.525996
N146	N	1.536038	-0.485712	-0.025996
H147	H	1.150354	-0.768965	-0.845253
H148	H	1.650354	-0.268965	-0.345253
C149	C	1.444695	-1.037700	-0.480620
C150	C	1.944695	-0.537700	0.019380
N151	N	1.502778	-1.007432	-0.435934
N152	N	2.002778	-0.507432	0.064066
H153	H	1.140561	-0.779773	-1.015631
H154	H	1.640561	-0.279773	-0.515631
C155	C	1.442009	-1.240204	-0.473386
C156	C	1.942009	-0.740204	0.026614
N157	N	1.497534	-1.270189	-0.424794
N158	N	1.997534	-0.770189	0.075206
H159	H	0.938141	-0.477276	-0.384212
H160	H	1.438141	0.022724	0.115788
H161	H	1.359082	-0.537961	-0.857325
H162	H	1.859082	-0.037961	-0.357325
H163	H	1.408506	-0.483240	-1.001501
H164	H	1.908506	0.016760	-0.501501
H165	H	0.782028	-0.798344	-0.641842
H166	H	1.282028	-0.298344	-0.141842
C167	C	0.755285	-0.443669	-0.357251
C168	C	1.255285	0.056331	0.142749
N169	N	0.719109	-0.381607	-0.307448
N170	N	1.219109	0.118393	0.192552
H171	H	1.185468	-1.206601	-0.387705
H172	H	1.685468	-0.706601	0.112295
H173	H	0.623606	-0.526530	-0.423751
H174	H	1.123606	-0.026530	0.076249
