data_functionalizedCrystal
_audit_creation_method	'MofGen! by Chris Wilmer'
_symmetry_space_group_name_H-M	'P1'
_symmetry_Int_Tables_number	1
_symmetry_cell_setting	triclinic
loop_
_symmetry_equiv_pos_as_xyz
  x,y,z
_cell_length_a	14.519709
_cell_length_b	19.188924
_cell_length_c	12.996460
_cell_angle_alpha	89.991787
_cell_angle_beta	90.000034
_cell_angle_gamma	83.411055
loop_
_atom_site_label
_atom_site_type_symbol
_atom_site_fract_x
_atom_site_fract_y
_atom_site_fract_z
O1	O	1.223297	0.091525	-0.085438
O2	O	1.723297	0.591525	0.414562
O3	O	0.954753	0.102303	-0.085470
O4	O	1.454753	0.602303	0.414530
O5	O	1.096778	-0.004714	-0.085441
O6	O	1.596778	0.495286	0.414559
O7	O	1.081272	0.198542	-0.085467
O8	O	1.581272	0.698542	0.414533
O9	O	1.096763	-0.004720	0.085693
O10	O	1.596763	0.495280	0.585693
O11	O	0.954738	0.102297	0.085664
O12	O	1.454738	0.602297	0.585664
O13	O	1.223282	0.091519	0.085696
O14	O	1.723282	0.591519	0.585696
Cu15	Cu	1.089009	0.096907	0.101306
Cu16	Cu	1.589009	0.596907	0.601306
Cu17	Cu	1.089026	0.096914	-0.101080
Cu18	Cu	1.589026	0.596914	0.398920
O19	O	1.081257	0.198536	0.085667
O20	O	1.581257	0.698536	0.585667
C21	C	0.920389	0.101798	0.000093
C22	C	1.420389	0.601798	0.500093
C23	C	0.818017	0.100292	0.000081
C24	C	1.318017	0.600292	0.500081
C25	C	0.443156	0.094751	0.000129
C26	C	0.943156	0.594751	0.500129
C27	C	0.547454	0.096290	0.000115
C28	C	1.047454	0.596290	0.500115
C29	C	0.630583	0.097522	0.000104
C30	C	1.130583	0.597522	0.500104
C31	C	0.734888	0.099061	0.000093
C32	C	1.234888	0.599061	0.500093
C33	C	1.096270	-0.030730	0.000127
C34	C	1.596270	0.469270	0.500127
C35	C	1.094765	-0.108240	0.000130
C36	C	1.594765	0.391760	0.500130
C37	C	1.094071	-0.144639	-0.093156
C38	C	1.594071	0.355361	0.406844
C39	C	1.092645	-0.217466	-0.093164
C40	C	1.592645	0.282534	0.406836
C41	C	1.091931	-0.253895	0.000119
C42	C	1.591931	0.246105	0.500119
C43	C	1.092620	-0.217488	0.093417
C44	C	1.592620	0.282512	0.593417
C45	C	1.094037	-0.144660	0.093422
C46	C	1.594037	0.355340	0.593422
N47	N	1.142181	-0.373382	0.069553
N48	N	1.642181	0.126618	0.569553
N49	N	1.140836	-0.442565	0.069542
N50	N	1.640836	0.057435	0.569542
C51	C	1.087660	-0.473319	0.000109
C52	C	1.587660	0.026681	0.500109
N53	N	1.035889	-0.432279	-0.069328
N54	N	1.535889	0.067721	0.430672
N55	N	1.037238	-0.363089	-0.069320
N56	N	1.537238	0.136911	0.430680
C57	C	1.090394	-0.332864	0.000124
C58	C	1.590394	0.167136	0.500124
C59	C	1.085418	-0.588686	-0.093192
C60	C	1.585418	-0.088686	0.406808
C61	C	1.083985	-0.661514	-0.093196
C62	C	1.583985	-0.161514	0.406804
C63	C	1.083970	-0.661535	0.093387
C64	C	1.583970	-0.161535	0.593387
C65	C	1.085393	-0.588707	0.093388
C66	C	1.585393	-0.088707	0.593388
C67	C	1.086121	-0.552287	0.000096
C68	C	1.586121	-0.052287	0.500096
C69	C	1.257646	0.092024	0.000131
C70	C	1.757646	0.592024	0.500131
C71	C	1.360018	0.093529	0.000136
C72	C	1.860018	0.593529	0.500136
C73	C	1.081766	0.224552	0.000097
C74	C	1.581766	0.724552	0.500097
C75	C	1.083270	0.302062	0.000088
C76	C	1.583270	0.802062	0.500088
N77	N	1.089004	0.096902	0.243653
N78	N	1.589004	0.596902	0.743653
N79	N	1.089039	0.096914	-0.243427
N80	N	1.589039	0.596914	0.256573
C81	C	1.089025	0.096915	0.663467
C82	C	1.589025	0.596915	1.163467
C83	C	1.089016	0.096914	0.546662
C84	C	1.589016	0.596914	1.046662
C85	C	1.089015	0.096909	0.453564
C86	C	1.589015	0.596909	0.953564
C87	C	1.089005	0.096907	0.336751
C88	C	1.589005	0.596907	0.836751
H89	H	1.094662	-0.114990	-0.169122
H90	H	1.594662	0.385010	0.330878
H91	H	1.083416	-0.691148	-0.169163
H92	H	1.583416	-0.191148	0.330837
H93	H	1.083381	-0.691194	0.169340
H94	H	1.583381	-0.191194	0.669340
H95	H	1.092036	-0.247152	0.169368
H96	H	1.592036	0.252848	0.669368
O97	O	1.086165	-0.549449	0.194008
O98	O	1.586165	-0.049449	0.694008
H99	H	1.023054	-0.557289	0.238743
H100	H	1.523054	-0.057289	0.738743
O101	O	1.091899	-0.256739	-0.193781
O102	O	1.591899	0.243261	0.306219
H103	H	1.092647	-0.219179	-0.258651
H104	H	1.592647	0.280821	0.241349
O105	O	1.086187	-0.549400	-0.193812
O106	O	1.586187	-0.049400	0.306188
H107	H	1.087302	-0.492644	-0.178137
H108	H	1.587302	0.007356	0.321863
O109	O	1.094802	-0.105397	0.194040
O110	O	1.594802	0.394603	0.694040
H111	H	1.094073	-0.142960	0.258908
H112	H	1.594073	0.357040	0.758908
