data_functionalizedCrystal
_audit_creation_method	'MofGen! by Chris Wilmer'
_symmetry_space_group_name_H-M	'P1'
_symmetry_Int_Tables_number	1
_symmetry_cell_setting	triclinic
loop_
_symmetry_equiv_pos_as_xyz
  x,y,z
_cell_length_a	12.827893
_cell_length_b	12.827892
_cell_length_c	12.827885
_cell_angle_alpha	90.029786
_cell_angle_beta	90.019272
_cell_angle_gamma	90.015553
loop_
_atom_site_label
_atom_site_type_symbol
_atom_site_fract_x
_atom_site_fract_y
_atom_site_fract_z
Zn1	Zn	-1.597672	0.415978	-0.590843
Zn2	Zn	-1.597565	0.590755	-0.416104
Zn3	Zn	-1.422912	0.416029	-0.416118
Zn4	Zn	-1.422898	0.590678	-0.590804
O5	O	-1.510262	0.503360	-0.503467
O6	O	-1.743893	0.439173	-0.567674
O7	O	-1.574358	0.567631	-0.269869
O8	O	-1.446145	0.269787	-0.439318
O9	O	-1.743815	0.567581	-0.439294
O10	O	-1.574540	0.269749	-0.567688
O11	O	-1.446042	0.439261	-0.269880
O12	O	-1.276674	0.439186	-0.439280
O13	O	-1.446121	0.567450	-0.737046
O14	O	-1.276664	0.567500	-0.567621
O15	O	-1.574526	0.439098	-0.737074
O16	O	-1.574345	0.736981	-0.439256
O17	O	-1.446018	0.736924	-0.567608
C18	C	-1.238752	0.503341	-0.503448
C19	C	-1.122599	0.503358	-0.503465
C20	C	-1.510196	0.774870	-0.503449
C21	C	-1.510264	0.891023	-0.503476
C22	C	-1.510334	0.503260	-0.776038
C23	C	-1.510365	0.503217	-0.892191
C24	C	-1.782832	0.503380	-0.503487
C25	C	-1.898985	0.503389	-0.503495
C26	C	-1.070792	0.439780	-0.440070
C27	C	-0.950741	0.439796	-0.440086
C28	C	-1.510356	0.230790	-0.503509
C29	C	-1.510396	0.114637	-0.503526
C30	C	-1.573840	0.942801	-0.440034
C31	C	-1.573911	1.062852	-0.440060
C32	C	-1.446890	0.439683	-0.943981
C33	C	-1.446920	0.439637	-1.064031
C34	C	-1.510250	0.503385	-0.231957
C35	C	-1.510422	0.503133	-0.115805
H36	H	-1.115314	0.385341	-0.385780
N37	N	-1.378744	0.371381	-1.119876
N38	N	-1.385694	0.274948	-1.107776
H39	H	-1.337542	0.226738	-1.147217
N40	N	-0.894861	0.371491	-0.372011
N41	N	-0.833967	0.305004	-0.408959
H42	H	-0.794499	0.256759	-0.360881
H43	H	-1.455892	0.935571	-0.557815
H44	H	-1.392520	0.385327	-0.899443
N45	N	-1.642181	1.118718	-0.371916
N46	N	-1.642139	1.216160	-0.372030
H47	H	-1.690356	1.255620	-0.323901
N48	N	-1.578600	0.571392	-1.059965
N49	N	-1.638298	0.631091	-1.108588
H50	H	-1.686449	0.679300	-1.069145
H51	H	-1.564729	0.557578	-0.936728
H52	H	-0.943531	0.557818	-0.557778
H53	H	-1.628221	0.898256	-0.385702
N54	N	-1.066758	0.571678	-0.571554
N55	N	-1.005812	0.638182	-0.534621
H56	H	-0.966376	0.686438	-0.582710
N57	N	-1.442124	1.058778	-0.571674
N58	N	-1.478879	0.997770	-0.638226
H59	H	-1.430663	0.958312	-0.686358
