data_functionalizedCrystal
_audit_creation_method	'MofGen! by Chris Wilmer'
_symmetry_space_group_name_H-M	'P1'
_symmetry_Int_Tables_number	1
_symmetry_cell_setting	triclinic
loop_
_symmetry_equiv_pos_as_xyz
  x,y,z
_cell_length_a	11.169417
_cell_length_b	15.297327
_cell_length_c	11.169409
_cell_angle_alpha	80.360209
_cell_angle_beta	90.019824
_cell_angle_gamma	99.707226
loop_
_atom_site_label
_atom_site_type_symbol
_atom_site_fract_x
_atom_site_fract_y
_atom_site_fract_z
Zn1	Zn	1.752166	-0.359064	0.761131
Zn2	Zn	1.717262	-0.509956	0.595155
Zn3	Zn	1.551440	-0.359119	0.560478
Zn4	Zn	1.516683	-0.509883	0.795783
O5	O	1.634387	-0.434505	0.678137
O6	O	1.915484	-0.379088	0.739125
O7	O	1.695203	-0.490001	0.422618
O8	O	1.607220	-0.232867	0.558081
O9	O	1.889840	-0.489948	0.617183
O10	O	1.754693	-0.232827	0.705500
O11	O	1.573374	-0.379181	0.397141
O12	O	1.378881	-0.379110	0.591682
O13	O	1.547982	-0.489823	0.959124
O14	O	1.353345	-0.489876	0.764559
O15	O	1.720991	-0.379016	0.933665
O16	O	1.661501	-0.636191	0.650783
O17	O	1.514136	-0.636137	0.798184
C18	C	1.322566	-0.434492	0.678118
C19	C	1.189162	-0.434508	0.678144
C20	C	1.580292	-0.668898	0.732033
C21	C	1.557259	-0.769172	0.755130
C22	C	1.799500	-1.051814	0.513469
C23	C	1.821139	-0.957602	0.491762
C24	C	1.755172	-0.910490	0.557602
C25	C	1.667560	-0.957599	0.645153
C26	C	1.645911	-1.051821	0.666855
C27	C	1.601583	-0.910496	0.710988
C28	C	1.513971	-0.957606	0.798539
C29	C	1.492327	-1.051818	0.820238
C30	C	1.558295	-1.098930	0.754397
C31	C	1.623232	-0.816275	0.689286
C32	C	1.469643	-0.816281	0.842672
C33	C	1.448003	-0.910493	0.864379
C34	C	1.947426	-0.434520	0.678156
C35	C	2.080825	-0.434526	0.678165
C36	C	1.634503	-0.434405	0.991157
C37	C	1.634552	-0.434362	1.124547
C38	C	1.688727	-0.199198	0.624057
C39	C	1.711884	-0.098924	0.601011
C40	C	1.634357	-0.434540	0.366320
C41	C	1.634599	-0.434329	0.232872
H42	H	1.694565	-0.777926	0.618002
C43	C	1.397072	-0.764469	0.915107
C44	C	1.317738	-0.699784	0.848123
C45	C	1.245169	-0.647966	0.920549
C46	C	1.251936	-0.660834	1.059959
C47	C	1.331273	-0.725522	1.126951
C48	C	1.403841	-0.777340	1.054525
H49	H	1.312726	-0.690256	0.744917
H50	H	1.186439	-0.600080	0.870957
H51	H	1.198217	-0.622475	1.113574
H52	H	1.336285	-0.735050	1.230158
H53	H	1.462572	-0.825226	1.104117
C54	C	1.395944	-1.103644	0.916529
C55	C	1.433036	-1.168333	1.025692
C56	C	1.336651	-1.220159	1.121980
C57	C	1.203174	-1.207295	1.109105
C58	C	1.166075	-1.142603	0.999937
C59	C	1.262460	-1.090777	0.903649
H60	H	1.531850	-1.177858	1.035228
H61	H	1.364115	-1.268048	1.202794
H62	H	1.131824	-1.245660	1.180383
H63	H	1.067261	-1.133078	0.990401
H64	H	1.234996	-1.042888	0.822835
C65	C	1.779084	-0.806855	0.533782
C66	C	1.906379	-0.755058	0.552882
C67	C	1.930350	-0.651419	0.529086
C68	C	1.827026	-0.599577	0.486189
C69	C	1.699721	-0.651374	0.467087
C70	C	1.675750	-0.755013	0.490883
H71	H	1.982874	-0.793435	0.584639
H72	H	2.024590	-0.613076	0.543227
H73	H	1.844770	-0.522857	0.468573
H74	H	1.623226	-0.612997	0.435330
H75	H	1.581511	-0.793356	0.476742
H76	H	1.376668	-0.948863	0.935663
H77	H	1.892471	-0.919249	0.420479
H78	H	1.853194	-1.090182	0.459864
H79	H	1.540684	-1.175646	0.772069
