data_functionalizedCrystal
_audit_creation_method	'MofGen! by Chris Wilmer'
_symmetry_space_group_name_H-M	'P1'
_symmetry_Int_Tables_number	1
_symmetry_cell_setting	triclinic
loop_
_symmetry_equiv_pos_as_xyz
  x,y,z
_cell_length_a	19.851628
_cell_length_b	20.875641
_cell_length_c	20.875641
_cell_angle_alpha	60.088404
_cell_angle_beta	89.993945
_cell_angle_gamma	57.583630
loop_
_atom_site_label
_atom_site_type_symbol
_atom_site_fract_x
_atom_site_fract_y
_atom_site_fract_z
Zr1	Zr	-0.087906	0.653215	0.666366
O2	O	-0.204804	0.794455	0.565427
O3	O	-0.048641	0.517379	0.693784
O4	O	-0.194130	0.650841	0.698872
O5	O	0.051547	0.660981	0.560335
O6	O	-0.189611	0.642821	0.808147
O7	O	-0.059315	0.660993	0.560338
O8	O	0.070640	0.404082	0.799044
O9	O	-0.208705	0.899719	0.569437
O10	O	-0.032667	0.565263	0.791287
O11	O	0.046696	0.571240	0.709734
O12	O	-0.124598	0.728374	0.715725
O13	O	-0.045234	0.734350	0.634172
Zr14	Zr	0.096112	0.640404	0.840641
Zr15	Zr	-0.080700	0.640424	0.840647
Zr16	Zr	0.088906	0.653195	0.666361
Zr17	Zr	-0.094129	0.821100	0.672763
Zr18	Zr	0.102334	0.472519	0.834245
O19	O	0.056847	0.776239	0.813224
O20	O	-0.194557	0.776267	0.813231
O21	O	0.046601	0.794427	0.565419
O22	O	0.213009	0.499164	0.941581
O23	O	-0.038395	0.499192	0.941588
O24	O	0.202763	0.517352	0.693776
O25	O	-0.043341	0.632638	0.946673
O26	O	0.202335	0.642778	0.808135
O27	O	0.197817	0.650798	0.698861
O28	O	0.067521	0.632626	0.946669
O29	O	-0.202977	0.889552	0.707967
O30	O	0.211183	0.404067	0.799040
O31	O	0.216911	0.393900	0.937570
O32	O	0.076368	0.393915	0.937574
O33	O	-0.068163	0.899704	0.569433
O34	O	-0.062435	0.889537	0.707963
O35	O	0.132803	0.565245	0.791282
O36	O	0.053440	0.559269	0.872835
O37	O	-0.038490	0.722379	0.797273
O38	O	0.040873	0.728355	0.715720
C39	C	0.011886	0.436811	0.745503
C40	C	0.014528	0.365539	0.742787
C41	C	-0.025658	0.328936	0.784079
C42	C	-0.023168	0.261964	0.781529
C43	C	0.019503	0.231601	0.737683
C44	C	0.059694	0.268207	0.696390
C45	C	0.057209	0.335173	0.698944
C46	C	0.031384	0.031651	0.725482
C47	C	0.033864	-0.035317	0.722929
C48	C	-0.048998	-0.041557	0.808070
C49	C	-0.051484	0.025415	0.810617
C50	C	-0.011289	0.062011	0.769327
N51	N	0.022047	0.163147	0.735074
N52	N	-0.013828	0.130459	0.771941
C53	C	-0.217062	0.646834	0.753510
C54	C	-0.292124	0.646842	0.753512
C55	C	-0.523593	0.735757	0.712300
C56	C	-0.541200	0.687305	0.787345
C57	C	-0.429530	0.646819	0.753508
C58	C	-0.545664	0.695276	0.678469
C59	C	-0.562262	0.646803	0.753499
C60	C	-0.446146	0.598363	0.828598
C61	C	-0.450615	0.606350	0.719668
C62	C	-0.468165	0.557832	0.794756
C63	C	-0.353068	0.646830	0.753513
C64	C	-0.638718	0.646784	0.753501
C65	C	0.225268	0.646785	0.753497
C66	C	0.300329	0.646777	0.753495
C67	C	-0.004911	0.662809	0.535505
C68	C	-0.007970	0.668240	0.461519
C69	C	-0.003680	0.856808	0.761505
C70	C	-0.006322	0.928080	0.764221
C71	C	0.038575	0.585651	0.466200
C72	C	0.035698	0.590759	0.396679
C73	C	-0.013729	0.678456	0.322478
C74	C	-0.060275	0.761051	0.317798
C75	C	-0.057393	0.755942	0.387318
C76	C	-0.027489	0.702865	0.110330
C77	C	-0.030369	0.707968	0.040808
C78	C	0.065606	0.537675	0.119693
C79	C	0.068479	0.532574	0.189211
C80	C	0.021936	0.615169	0.184526
N81	N	-0.016672	0.683679	0.251415
N82	N	0.024885	0.609945	0.255588
C83	C	0.013117	0.630810	0.971502
C84	C	0.016176	0.625379	1.045489
C85	C	0.020900	0.420811	0.963501
C86	C	0.026601	0.344109	1.034772
C87	C	0.233051	0.436787	0.745496
C88	C	0.310754	0.365507	0.742778
C89	C	0.242065	0.420787	0.963495
C90	C	0.322827	0.344077	1.034764
C91	C	-0.233860	0.872832	0.543513
C92	C	-0.314622	0.949542	0.472244
C93	C	-0.012694	0.872808	0.543507
C94	C	-0.018395	0.949510	0.472235
C95	C	-0.224846	0.856832	0.761511
C96	C	-0.302549	0.928112	0.764229
C97	C	-0.015677	0.311218	1.025675
C98	C	-0.010337	0.239158	1.092635
C99	C	0.037285	0.199986	1.168692
C100	C	0.079563	0.232884	1.177788
C101	C	0.074218	0.304947	1.110829
C102	C	0.392199	0.328904	0.784069
C103	C	0.465215	0.261939	0.781513
C104	C	0.456786	0.231572	0.737670
C105	C	0.375333	0.268182	0.696374
C106	C	0.302318	0.335151	0.698926
C107	C	0.319328	0.304933	1.110809
C108	C	0.395206	0.232864	1.177781
C109	C	0.474582	0.199937	1.168705
C110	C	0.478080	0.239088	1.092651
C111	C	0.402203	0.311159	1.025682
C112	C	-0.311122	0.988694	0.396199
C113	C	-0.387001	1.060784	0.329228
C114	C	-0.466378	1.093715	0.338304
C115	C	-0.469875	1.054559	0.414357
C116	C	-0.393998	0.982476	0.481327
C117	C	0.023875	0.982408	0.481333
C118	C	0.018515	1.054486	0.414373
C119	C	-0.029110	1.093660	0.338316
C120	C	-0.071384	1.060760	0.329220
C121	C	-0.066029	0.988687	0.396179
C122	C	-0.294092	0.958457	0.808080
C123	C	-0.367094	1.025421	0.810649
C124	C	-0.448553	1.062046	0.769362
C125	C	-0.457009	1.031695	0.725510
C126	C	-0.384007	0.964726	0.722946
H127	H	-0.081721	-0.071361	0.841687
H128	H	-0.033463	1.152346	0.283800
H129	H	-0.054466	0.343111	0.963751
H130	H	-0.360193	1.050126	0.846357
H131	H	0.073602	0.523507	0.400498
H132	H	0.392343	0.200994	1.239701
C133	C	-0.528848	1.135716	0.772182
H134	H	-0.512138	1.148546	0.804207
H135	H	-0.559006	1.112108	0.794138
H136	H	-0.564931	1.191958	0.719936
H137	H	0.542719	0.212267	1.085273
H138	H	-0.227770	0.928647	0.841701
C139	C	-0.084741	0.804437	-0.040817
H140	H	-0.079798	0.795646	-0.081548
H141	H	-0.064914	0.838582	-0.045639
H142	H	-0.143062	0.838587	-0.045624
H143	H	-0.390905	0.940028	0.687235
C144	C	-0.546618	1.072044	0.680043
H145	H	-0.541210	1.044398	0.653544
H146	H	-0.579883	1.138223	0.642187
H147	H	-0.574043	1.058405	0.716338
H148	H	0.254702	0.331731	1.118214
C149	C	-0.072593	0.362326	0.832314
H150	H	-0.096161	0.330924	0.856548
H151	H	-0.117326	0.428250	0.797987
H152	H	-0.033235	0.348379	0.872183
H153	H	0.536360	0.141251	1.223243
H154	H	-0.403427	0.557413	0.892086
C155	C	0.406063	0.354200	0.942035
H156	H	0.464207	0.324255	0.946229
H157	H	0.376812	0.419548	0.915541
H158	H	0.379568	0.345329	0.912736
H159	H	-0.528156	1.152410	0.283766
H160	H	0.041631	0.141308	1.223208
C161	C	-0.223819	0.952493	0.386200
H162	H	-0.232615	0.986152	0.331314
H163	H	-0.191112	0.887407	0.409131
H164	H	-0.193876	0.961611	0.411971
C165	C	-0.383138	1.103834	0.245579
H166	H	-0.324995	1.073881	0.249771
H167	H	-0.412379	1.169178	0.219094
H168	H	-0.409645	1.094980	0.216271
H169	H	-0.055890	0.232162	0.815153
C170	C	-0.098413	0.058806	0.858853
H171	H	-0.094143	0.103935	0.854456
H172	H	-0.072987	0.006616	0.913024
H173	H	-0.157073	0.086484	0.838824
C174	C	0.080865	-0.068774	0.674749
H175	H	0.104472	-0.037411	0.650545
H176	H	0.041559	-0.054868	0.634874
H177	H	0.125591	-0.134703	0.709130
C178	C	-0.397887	0.560179	0.680983
H179	H	-0.341398	0.506662	0.718409
H180	H	-0.395585	0.604017	0.636340
H181	H	-0.424148	0.541362	0.664339
C182	C	0.075586	0.071908	0.680057
H183	H	0.101345	0.044241	0.653571
H184	H	0.118382	0.058232	0.716378
H185	H	0.034293	0.138096	0.642181
C186	C	-0.112517	0.952494	0.386166
H187	H	-0.102516	0.903962	0.436933
H188	H	-0.091411	0.928498	0.356279
H189	H	-0.172316	1.002700	0.359114
H190	H	0.399079	0.353620	0.819771
H191	H	0.118336	0.200980	1.239723
H192	H	-0.044766	0.212382	1.085213
H193	H	0.078827	0.514238	0.526614
H194	H	0.108712	0.461162	0.249626
H195	H	-0.534513	1.081381	0.421738
C196	C	-0.603506	0.750632	0.592748
H197	H	-0.607051	0.710221	0.586694
H198	H	-0.579951	0.774288	0.556859
H199	H	-0.659213	0.801536	0.581813
H200	H	-0.580231	0.721516	0.815965
H201	H	-0.396857	0.950599	0.543244
C202	C	0.065030	1.090655	0.424393
H203	H	0.094171	1.056986	0.479280
H204	H	0.024371	1.155740	0.401467
H205	H	0.105260	1.081532	0.398624
H206	H	-0.110160	1.092666	0.267285
H207	H	0.089930	0.364977	0.665318
C208	C	0.106630	0.234811	0.648158
H209	H	0.102347	0.189694	0.652543
H210	H	0.165285	0.207138	0.668181
H211	H	0.081197	0.287007	0.593983
C212	C	-0.554226	0.837333	0.665317
H213	H	-0.585745	0.865944	0.689485
H214	H	-0.589824	0.872052	0.612245
H215	H	-0.505997	0.836662	0.665255
H216	H	0.108651	0.331717	1.118247
H217	H	0.062661	0.950517	0.543257
H218	H	-0.445314	0.482567	0.829650
H219	H	0.103499	0.470431	0.123499
H220	H	0.531531	0.232138	0.815144
H221	H	0.368482	0.243448	0.660677
C222	C	-0.078693	0.793716	0.105169
H223	H	-0.108550	0.846674	0.051020
H224	H	-0.040497	0.795266	0.130643
H225	H	-0.118641	0.795265	0.130652
C226	C	0.537105	0.157904	0.734869
H227	H	0.520426	0.145061	0.702841
H228	H	0.573188	0.101677	0.787116
H229	H	0.567247	0.181537	0.712910
H230	H	-0.100515	0.832456	0.257377
H231	H	-0.095285	0.823195	0.383502
H232	H	0.236005	0.364945	0.665304
