data_functionalizedCrystal
_audit_creation_method	'MofGen! by Chris Wilmer'
_symmetry_space_group_name_H-M	'P1'
_symmetry_Int_Tables_number	1
_symmetry_cell_setting	triclinic
loop_
_symmetry_equiv_pos_as_xyz
  x,y,z
_cell_length_a	27.440280
_cell_length_b	19.377369
_cell_length_c	19.377372
_cell_angle_alpha	82.774679
_cell_angle_beta	90.003735
_cell_angle_gamma	48.634130
loop_
_atom_site_label
_atom_site_type_symbol
_atom_site_fract_x
_atom_site_fract_y
_atom_site_fract_z
Zr1	Zr	0.364741	0.795977	0.044268
O2	O	0.281625	0.916275	-0.033337
O3	O	0.405956	0.649841	0.051137
O4	O	0.405990	0.758704	-0.057726
O5	O	0.263663	0.845824	0.180647
O6	O	0.486193	0.758694	-0.057715
O7	O	0.281590	0.807412	0.075525
O8	O	0.486131	0.563958	0.137021
O9	O	0.263725	1.040560	-0.014088
O10	O	0.464377	0.719511	0.074519
O11	O	0.391144	0.748185	0.152962
O12	O	0.391185	0.876357	0.024790
O13	O	0.317952	0.905031	0.103233
Zr14	Zr	0.464064	0.857224	0.211943
Zr15	Zr	0.492655	0.795961	0.044286
Zr16	Zr	0.336150	0.857240	0.211926
Zr17	Zr	0.336194	0.994197	0.074968
Zr18	Zr	0.492611	0.659004	0.181243
O19	O	0.422849	1.003360	0.205075
O20	O	0.463502	0.916253	-0.033313
O21	O	0.240972	1.003382	0.205050
O22	O	0.547180	0.736926	0.289549
O23	O	0.587833	0.649819	0.051161
O24	O	0.365303	0.736948	0.289524
O25	O	0.565142	0.807377	0.075564
O26	O	0.422815	0.894497	0.313938
O27	O	0.342612	0.894507	0.313927
O28	O	0.547215	0.845789	0.180686
O29	O	0.365400	1.040547	-0.014075
O30	O	0.463405	0.612654	0.270286
O31	O	0.565080	0.612641	0.270300
O32	O	0.587806	0.563946	0.137034
O33	O	0.240999	1.089255	0.119177
O34	O	0.342674	1.089243	0.119191
O35	O	0.437620	0.776844	0.231421
O36	O	0.510853	0.748170	0.152978
O37	O	0.437661	0.905016	0.103249
O38	O	0.364428	0.933690	0.181693
C39	C	0.450111	0.578657	0.089705
C40	C	0.462230	0.494508	0.076672
C41	C	0.311170	0.292359	0.238762
C42	C	0.322630	0.213217	0.226572
C43	C	0.399080	0.183293	0.144683
C44	C	0.387629	0.262432	0.156869
C45	C	0.343673	0.316959	0.203909
C46	C	0.420131	0.287032	0.122016
C47	C	0.408678	0.366166	0.134199
C48	C	0.364723	0.420700	0.181235
C49	C	0.332220	0.396094	0.216092
C50	C	0.464083	0.232507	0.074973
C51	C	0.496585	0.257107	0.040119
C52	C	0.485136	0.336239	0.052306
C53	C	0.441181	0.390773	0.099342
C54	C	0.517639	0.360846	0.017449
C55	C	0.506186	0.439980	0.029632
C56	C	0.429728	0.469907	0.111525
C57	C	0.254402	0.826620	0.128084
C58	C	0.200099	0.826627	0.128077
C59	C	-0.098395	0.744719	0.154082
C60	C	-0.149414	0.744716	0.154088
O61	O	-0.143313	0.675095	0.176188
N62	N	-0.213136	0.826586	0.128130
C63	C	-0.225840	0.908468	0.102170
O64	O	-0.284725	0.978105	0.080091
C65	C	-0.174822	0.908472	0.102168
C66	C	-0.111099	0.826594	0.128122
C67	C	-0.034675	0.662848	0.180035
C68	C	0.016340	0.662851	0.180028
C69	C	0.003636	0.744725	0.154068
C70	C	-0.060084	0.826597	0.128115
C71	C	-0.187527	0.990354	0.076213
C72	C	-0.136503	0.990351	0.076215
C73	C	-0.072780	0.908473	0.102169
C74	C	-0.021773	0.908475	0.102148
N75	N	0.041949	0.826604	0.128107
C76	C	0.054653	0.744730	0.154067
C77	C	-0.332977	0.908453	0.102175
C78	C	-0.383993	0.908448	0.102171
C79	C	-0.307564	0.744696	0.154092
C80	C	-0.256547	0.744700	0.154090
C81	C	-0.269255	0.826583	0.128134
C82	C	0.161786	0.744742	0.154049
C83	C	0.212803	0.744752	0.154037
C84	C	0.136369	0.908505	0.102120
C85	C	0.085357	0.908494	0.102129
C86	C	0.098070	0.826607	0.128098
O87	O	-0.027825	0.978060	0.080062
O88	O	0.113538	0.675107	0.176150
C89	C	0.574403	0.826581	0.128127
C90	C	0.628706	0.826574	0.128135
C91	C	0.450165	0.749970	-0.081608
C92	C	0.462303	0.723963	-0.152783
C93	C	0.378694	1.074544	0.166507
C94	C	0.366575	1.158693	0.179540
C95	C	0.311190	1.047777	-0.516655
C96	C	0.322601	1.023317	-0.583528
C97	C	0.399008	0.859582	-0.531606
C98	C	0.387601	0.884028	-0.464727
C99	C	0.343692	0.978127	-0.457258
C100	C	0.420103	0.814378	-0.405330
C101	C	0.408699	0.838822	-0.338457
C102	C	0.364794	0.932917	-0.330982
C103	C	0.332288	1.002571	-0.390385
C104	C	0.464015	0.720280	-0.412800
C105	C	0.496517	0.650630	-0.353403
C106	C	0.485110	0.675074	-0.286529
C107	C	0.441205	0.769168	-0.279053
C108	C	0.517615	0.605419	-0.227125
C109	C	0.506212	0.629864	-0.160252
C110	C	0.429801	0.793612	-0.212181
C111	C	0.378640	0.903231	0.337820
C112	C	0.366502	0.929238	0.408995
C113	C	0.610112	0.578638	0.089726
C114	C	0.676534	0.494482	0.076701
C115	C	0.414348	0.655288	0.299419
C116	C	0.414330	0.597146	0.357561
C117	C	0.574349	0.655268	0.299440
C118	C	0.628633	0.597120	0.357590
C119	C	0.254456	0.997933	-0.043229
C120	C	0.200172	1.056082	-0.101378
C121	C	0.218693	1.074563	0.166485
C122	C	0.152271	1.158719	0.179511
C123	C	0.414457	0.997913	-0.043207
C124	C	0.414475	1.056055	-0.101349
C125	C	0.683467	0.439999	0.029622
C126	C	0.745874	0.360930	0.017369
C127	C	0.801346	0.336343	0.052199
C128	C	0.794410	0.390834	0.099281
C129	C	0.732004	0.469904	0.111529
C130	C	0.438580	0.584804	0.425827
C131	C	0.438557	0.530187	0.480466
C132	C	0.414289	0.487907	0.466836
C133	C	0.390035	0.500253	0.398563
C134	C	0.390054	0.554875	0.343926
C135	C	0.692358	0.554845	0.343951
C136	C	0.743368	0.500217	0.398584
C137	C	0.730653	0.487859	0.466854
C138	C	0.666922	0.530141	0.480493
C139	C	0.615912	0.584773	0.425861
C140	C	0.136446	1.098366	-0.087738
C141	C	0.085432	1.153018	-0.142367
C142	C	0.098146	1.165380	-0.210637
C143	C	0.161878	1.123093	-0.224276
C144	C	0.212890	1.068447	-0.169647
C145	C	0.145338	1.213208	0.226584
C146	C	0.082931	1.292292	0.238822
C147	C	0.027459	1.316881	0.203989
C148	C	0.034395	1.262387	0.156911
C149	C	0.096801	1.183309	0.144670
C150	C	0.438749	1.098320	-0.087698
C151	C	0.438779	1.152942	-0.142324
C152	C	0.414530	1.165305	-0.210599
C153	C	0.390256	1.123033	-0.224250
C154	C	0.390231	1.068407	-0.169626
H155	H	0.275377	0.336759	0.277067
H156	H	0.296158	0.193195	0.254955
F157	F	0.175400	1.136257	-0.296939
F158	F	0.364246	0.567998	0.271272
H159	H	0.434867	0.138890	0.106381
F160	F	0.414559	1.223448	-0.268729
H161	H	0.190499	1.193197	0.254956
H162	H	0.751509	0.316571	-0.020968
H163	H	0.264690	0.678074	0.175173
F164	F	0.784949	0.429710	0.524992
H165	H	0.370277	0.465821	0.387475
H166	H	0.056603	1.209879	-0.255113
F167	F	0.075563	1.350273	0.288931
H168	H	-0.435874	0.975118	0.081027
H169	H	-0.146860	1.057035	0.055088
F170	F	0.624438	0.466152	-0.007458
F171	F	0.364388	1.023437	-0.184164
H172	H	0.296526	1.079196	-0.384305
H173	H	-0.010779	1.282421	0.128553
H174	H	0.102438	1.138946	0.106340
F175	F	0.464612	1.197927	-0.127781
H176	H	0.370513	1.133108	-0.279847
H177	H	0.656578	0.520071	0.536086
F178	F	0.382949	0.527940	0.161595
F179	F	0.175325	0.657588	0.181687
H180	H	-0.023352	1.381274	0.213963
H181	H	0.473403	0.168075	0.065051
H182	H	0.264779	1.034017	-0.180762
F183	F	0.383072	0.893764	-0.204229
F184	F	0.464560	1.085174	-0.015038
H185	H	0.296427	0.440494	0.254397
F186	F	0.352531	0.504926	0.194197
H187	H	0.532373	0.212704	0.001817
F188	F	-0.188731	0.657556	0.181715
H189	H	0.553423	0.316445	-0.020856
F190	F	0.724634	0.527879	0.161642
H191	H	0.532652	0.460009	0.001250
H192	H	0.564026	0.619187	0.436976
H193	H	0.068223	0.596176	0.201159
F194	F	0.867761	0.252184	0.039157
F195	F	0.464414	0.629791	0.440348
F196	F	-0.294051	0.657558	0.181721
H197	H	0.414278	0.443432	0.511331
H198	H	0.795257	0.465794	0.387466
F199	F	0.264461	1.147928	-0.508704
F200	F	-0.021141	0.575699	0.207670
H201	H	0.839584	0.370802	0.127636
F202	F	0.122900	1.085219	-0.015084
H203	H	0.458310	0.520142	0.536051
H204	H	0.033543	1.187441	-0.131248
F205	F	0.476156	0.694266	-0.483974
H206	H	0.434760	0.782967	-0.537697
F207	F	-0.346511	0.995607	0.074540
F208	F	-0.255339	1.077504	0.048594
H209	H	0.033471	0.975163	0.080985
H210	H	0.126036	0.975164	0.080981
H211	H	0.296130	1.080041	-0.631892
F212	F	0.352659	0.958933	-0.259809
F213	F	0.705904	0.567990	0.271297
H214	H	0.553371	0.528805	-0.233218
F215	F	0.543246	0.550487	-0.361361
F216	F	0.540815	0.555735	-0.097034
