data_functionalizedCrystal
_audit_creation_method	'MofGen! by Chris Wilmer'
_symmetry_space_group_name_H-M	'P1'
_symmetry_Int_Tables_number	1
_symmetry_cell_setting	triclinic
loop_
_symmetry_equiv_pos_as_xyz
  x,y,z
_cell_length_a	11.026607
_cell_length_b	12.837942
_cell_length_c	9.482900
_cell_angle_alpha	100.328050
_cell_angle_beta	78.636152
_cell_angle_gamma	101.707478
loop_
_atom_site_label
_atom_site_type_symbol
_atom_site_fract_x
_atom_site_fract_y
_atom_site_fract_z
O1	O	1.678880	0.430677	-0.120903
O2	O	1.319732	0.380157	-0.120904
O3	O	1.491341	0.253029	-0.120894
O4	O	1.507271	0.557805	-0.120912
O5	O	1.456499	0.278984	0.120896
O6	O	1.284890	0.406113	0.120887
O7	O	1.644038	0.456632	0.120888
Cu8	Cu	1.461282	0.433742	0.142965
Cu9	Cu	1.502487	0.403047	-0.142981
O10	O	1.472429	0.583760	0.120878
C11	C	1.256022	0.383815	-0.000009
C12	C	1.118096	0.356032	-0.000009
C13	C	1.053162	0.432745	-0.000014
C14	C	0.910607	0.404032	-0.000015
C15	C	1.468539	0.226382	0.000000
C16	C	1.452492	0.108310	-0.000002
C17	C	1.645414	-0.096652	-0.000032
C18	C	1.630343	-0.207590	-0.000035
C19	C	1.407280	-0.224509	-0.000020
C20	C	1.422352	-0.113570	-0.000018
C21	C	1.541422	-0.049645	-0.000021
C22	C	1.556492	0.061297	-0.000009
C23	C	1.333431	0.044375	-0.000005
C24	C	1.318360	-0.066563	-0.000007
C25	C	1.707748	0.452974	-0.000011
C26	C	1.845676	0.480756	-0.000020
C27	C	1.495231	0.610407	-0.000019
C28	C	1.511279	0.728478	-0.000026
N29	N	1.432310	0.455332	0.344083
N30	N	1.531469	0.381450	-0.344099
C31	C	1.493932	0.409408	0.416286
C32	C	1.469837	0.427381	0.583702
H33	H	0.895613	0.567697	-0.000015
H34	H	1.564524	0.356779	0.354162
H35	H	1.361709	0.507952	0.406209
C36	C	1.051297	0.240166	-0.000079
C37	C	0.923191	0.234716	-0.000116
C38	C	0.861623	0.127994	-0.000202
H39	H	1.061671	0.214824	0.084216
H40	H	1.086048	0.196809	-0.084430
H41	H	0.888450	0.278057	0.084227
H42	H	0.912779	0.260036	-0.084405
H43	H	0.896375	0.084637	-0.084553
H44	H	0.872007	0.102661	0.084095
H45	H	0.774700	0.124281	-0.000241
C46	C	1.277907	-0.293768	0.000193
C47	C	1.196345	-0.258533	0.124570
C48	C	1.077151	-0.322297	0.124800
H49	H	1.283637	-0.366594	0.000255
H50	H	1.246637	-0.288080	-0.084081
H51	H	1.227607	-0.264231	0.208822
H52	H	1.190577	-0.185716	0.124534
H53	H	1.045882	-0.316609	0.040526
H54	H	1.082895	-0.395120	0.124859
H55	H	1.021795	-0.298394	0.209182
C56	C	1.774797	-0.027430	-0.000109
C57	C	1.862651	-0.092346	-0.000149
C58	C	1.981855	-0.028620	-0.000243
H59	H	1.773344	0.025264	0.084184
H60	H	1.797528	0.007127	-0.084463
H61	H	1.839927	-0.126885	0.084195
H62	H	1.864144	-0.145038	-0.084436
H63	H	2.004586	0.005936	-0.084596
H64	H	1.980389	0.024071	0.084051
H65	H	2.041480	-0.072657	-0.000284
C66	C	1.189103	-0.135953	-0.000302
C67	C	1.143411	-0.127439	-0.124708
C68	C	1.024350	-0.191355	-0.125035
H69	H	1.133462	-0.112271	0.083923
H70	H	1.194980	-0.208780	-0.000386
H71	H	1.137527	-0.054629	-0.124610
H72	H	1.199017	-0.151130	-0.208952
H73	H	1.030226	-0.264181	-0.125120
H74	H	0.968720	-0.167667	-0.040805
H75	H	0.993338	-0.185595	-0.209449
H76	H	1.248752	0.082660	0.000016
H77	H	1.103105	0.519680	-0.000011
C78	C	1.375492	0.497386	0.666445
C79	C	1.256845	0.453725	0.629582
C80	C	1.169902	0.518173	0.705792
H81	H	1.400753	0.567971	0.641632
H82	H	1.371722	0.500119	0.767973
H83	H	1.260618	0.451003	0.528076
H84	H	1.231545	0.383147	0.654399
H85	H	1.166132	0.520906	0.807320
H86	H	1.195175	0.588755	0.680973
H87	H	1.089388	0.488552	0.680801
C88	C	1.625309	0.311078	0.572823
C89	C	1.630394	0.307086	0.423288
C90	C	1.716702	0.242157	0.346713
H91	H	1.599682	0.240531	0.597709
H92	H	1.706048	0.340304	0.597413
H93	H	1.549672	0.277856	0.398708
H94	H	1.656035	0.377615	0.398358
H95	H	1.797440	0.271383	0.371302
H96	H	1.691066	0.171614	0.371611
H97	H	1.720171	0.239448	0.245246
H98	H	1.653444	0.113344	-0.000006
H99	H	0.860673	0.317088	-0.000047
H100	H	1.715025	-0.245859	-0.000048
