data_functionalizedCrystal
_audit_creation_method	'MofGen! by Chris Wilmer'
_symmetry_space_group_name_H-M	'P1'
_symmetry_Int_Tables_number	1
_symmetry_cell_setting	triclinic
loop_
_symmetry_equiv_pos_as_xyz
  x,y,z
_cell_length_a	13.262390
_cell_length_b	13.339070
_cell_length_c	9.730223
_cell_angle_alpha	90.000235
_cell_angle_beta	74.082492
_cell_angle_gamma	99.429367
loop_
_atom_site_label
_atom_site_type_symbol
_atom_site_fract_x
_atom_site_fract_y
_atom_site_fract_z
O1	O	1.432392	0.136405	-0.649720
O2	O	1.131129	0.151242	-0.537109
O3	O	1.247185	-0.003585	-0.580486
O4	O	1.316336	0.291232	-0.606343
O5	O	1.247185	-0.003581	-0.351906
O6	O	1.131128	0.151246	-0.308529
O7	O	1.432392	0.136409	-0.421140
Zn8	Zn	1.281760	0.143828	-0.328542
Zn9	Zn	1.281761	0.143823	-0.629707
O10	O	1.316335	0.291236	-0.377763
C11	C	1.091783	0.150413	-0.408111
C12	C	0.974540	0.147925	-0.364287
C13	C	1.235504	-0.041322	-0.461832
C14	C	1.200686	-0.153770	-0.448823
C15	C	0.644060	0.140890	-0.739168
C16	C	0.754214	0.143223	-0.780345
C17	C	0.809301	0.144399	-0.676334
C18	C	0.754223	0.143241	-0.531138
C19	C	0.644057	0.140901	-0.489956
C20	C	0.809298	0.144409	-0.427123
C21	C	0.754220	0.143252	-0.281927
C22	C	0.644064	0.140912	-0.240752
C23	C	0.588977	0.139736	-0.344763
C24	C	0.919464	0.146750	-0.468305
C25	C	0.919461	0.146761	-0.219093
C26	C	0.809307	0.144428	-0.177916
C27	C	1.471412	-0.517426	-0.550019
C28	C	1.504129	-0.411776	-0.562235
C29	C	1.428271	-0.347269	-0.533883
C30	C	1.319691	-0.388423	-0.493312
C31	C	1.286971	-0.494083	-0.481084
C32	C	1.243830	-0.323926	-0.464949
C33	C	1.135250	-0.365080	-0.424378
C34	C	1.102536	-0.470730	-0.412152
C35	C	1.178394	-0.535237	-0.440504
C36	C	1.276550	-0.218266	-0.477177
C37	C	1.092109	-0.194923	-0.408243
C38	C	1.059392	-0.300573	-0.396026
C39	C	1.471738	0.137238	-0.550141
C40	C	1.588980	0.139725	-0.593975
C41	C	1.328017	0.328972	-0.496420
C42	C	1.362835	0.441420	-0.509439
N43	N	1.281767	0.143831	-0.123009
N44	N	1.281760	0.143812	-0.835243
C45	C	1.333181	0.075297	-0.070299
C46	C	1.333175	0.075284	0.073586
C47	C	1.230339	0.212350	0.112040
C48	C	1.230339	0.212356	-0.031840
C49	C	1.384609	0.006771	-0.161468
C50	C	1.436029	-0.061768	-0.108761
C51	C	1.436022	-0.061780	0.035125
C52	C	1.384596	0.006747	0.126303
H53	H	0.964299	0.147695	-0.586524
H54	H	0.964313	0.147717	-0.134398
O55	O	0.916312	0.146714	-0.716578
C56	C	1.074385	0.150000	-0.912408
C57	C	0.953194	0.147397	-0.867024
H58	H	1.104238	0.150532	-1.034044
H59	H	1.115364	0.221457	-0.872597
H60	H	1.093260	0.079859	-0.864160
H61	H	0.934222	0.217488	-0.915254
H62	H	0.912279	0.075895	-0.906813
H63	H	0.599196	0.139923	-0.823837
O64	O	1.180219	0.278814	0.200609
C65	C	1.014762	0.337328	0.306438
C66	C	1.071383	0.261982	0.206128
H67	H	0.926764	0.323760	0.310909
H68	H	1.023505	0.325551	0.418376
H69	H	1.052128	0.418513	0.264206
H70	H	1.034056	0.180767	0.248229
H71	H	1.062647	0.273848	0.094206
H72	H	0.599220	0.139951	-0.122523
H73	H	1.364956	-0.184770	-0.510210
O74	O	1.460230	-0.244664	-0.545887
C75	C	1.608382	-0.105856	-0.601177
C76	C	1.572329	-0.222078	-0.587658
H77	H	1.699016	-0.087558	-0.634919
H78	H	1.576479	-0.071953	-0.684941
H79	H	1.576328	-0.072012	-0.493564
H80	H	1.604370	-0.256009	-0.695200
H81	H	1.604219	-0.255907	-0.503825
O82	O	1.609636	-0.371970	-0.601719
C83	C	1.789122	-0.406279	-0.668704
C84	C	1.669662	-0.451494	-0.624033
H85	H	1.837687	-0.470552	-0.686729
H86	H	1.809121	-0.357430	-0.771857
H87	H	1.808993	-0.357367	-0.580488
H88	H	1.649705	-0.500452	-0.712152
H89	H	1.649726	-0.500285	-0.520840
O90	O	1.180545	0.279072	-0.083048
C91	C	1.170192	0.454896	-0.123142
C92	C	1.226697	0.379457	-0.065129
H93	H	1.207468	0.536073	-0.108649
H94	H	1.179051	0.443212	-0.241662
H95	H	1.082163	0.441240	-0.061968
H96	H	1.314744	0.393066	-0.126195
H97	H	1.217752	0.391158	0.053403
H98	H	1.384587	0.006724	0.243466
H99	H	0.799050	0.144160	-0.898563
H100	H	0.970985	-0.334096	-0.362992
H101	H	1.384621	0.006777	-0.278629
H102	H	0.499281	0.137840	-0.311244
O103	O	1.485793	-0.128411	-0.197378
C104	C	1.467806	-0.266721	-0.352969
C105	C	1.411340	-0.191265	-0.252702
H106	H	1.407631	-0.317572	-0.397704
H107	H	1.533030	-0.222840	-0.444821
H108	H	1.504558	-0.315660	-0.290521
H109	H	1.374524	-0.142307	-0.315027
H110	H	1.346171	-0.235207	-0.160850
O111	O	1.486054	-0.128396	0.086083
C112	C	1.588003	-0.264383	0.032767
C113	C	1.531397	-0.188981	-0.025131
H114	H	1.624659	-0.313401	-0.057113
H115	H	1.653293	-0.220457	0.075692
H116	H	1.527888	-0.315162	0.122628
H117	H	1.591432	-0.138183	-0.115036
H118	H	1.466090	-0.232971	-0.067963
H119	H	0.764447	0.143485	-0.059695
O120	O	0.997021	-0.510541	-0.372774
C121	C	0.817534	-0.476235	-0.305602
C122	C	0.936994	-0.431017	-0.350218
H123	H	0.768968	-0.411962	-0.287323
H124	H	0.797546	-0.525080	-0.393813
H125	H	0.797653	-0.525150	-0.202532
H126	H	0.956960	-0.382056	-0.453255
H127	H	0.956919	-0.382230	-0.261921
O128	O	1.018312	-0.132376	-0.380849
C129	C	0.870729	-0.080048	-0.444151
C130	C	0.954222	-0.150964	-0.475304
H131	H	0.818905	-0.095036	-0.520519
H132	H	0.818741	-0.095074	-0.329124
H133	H	0.912787	0.002526	-0.459807
H134	H	0.912253	-0.233563	-0.459730
H135	H	1.006205	-0.135850	-0.590320
O136	O	1.545048	-0.580129	-0.577778
C137	C	1.615099	-0.713023	-0.722322
C138	C	1.531660	-0.642052	-0.691059
H139	H	1.604289	-0.763121	-0.813890
H140	H	1.698352	-0.665518	-0.753524
H141	H	1.604381	-0.763021	-0.622608
H142	H	1.542279	-0.592040	-0.790719
H143	H	1.448438	-0.689617	-0.659797
H144	H	1.151761	-0.621267	-0.430564
