data_functionalizedCrystal
_audit_creation_method	'MofGen! by Chris Wilmer'
_symmetry_space_group_name_H-M	'P1'
_symmetry_Int_Tables_number	1
_symmetry_cell_setting	triclinic
loop_
_symmetry_equiv_pos_as_xyz
  x,y,z
_cell_length_a	19.188905
_cell_length_b	23.532407
_cell_length_c	18.266242
_cell_angle_alpha	89.988983
_cell_angle_beta	89.983837
_cell_angle_gamma	82.991616
loop_
_atom_site_label
_atom_site_type_symbol
_atom_site_fract_x
_atom_site_fract_y
_atom_site_fract_z
O1	O	0.925934	0.071034	-0.061009
O2	O	1.425934	0.571034	0.438991
O3	O	0.722589	0.080620	-0.060985
O4	O	1.222589	0.580620	0.439015
O5	O	0.830393	-0.007092	-0.060984
O6	O	1.330393	0.492908	0.439016
O7	O	0.818130	0.158746	-0.061010
O8	O	1.318130	0.658746	0.438990
O9	O	0.830375	-0.007096	0.060778
O10	O	1.330375	0.492904	0.560778
O11	O	0.722571	0.080616	0.060777
O12	O	1.222571	0.580616	0.560777
O13	O	0.925916	0.071030	0.060753
O14	O	1.425916	0.571030	0.560753
Zn15	Zn	0.824240	0.075822	0.080097
Zn16	Zn	1.324240	0.575822	0.580097
Zn17	Zn	0.824264	0.075828	-0.080329
Zn18	Zn	1.324264	0.575828	0.419671
O19	O	0.818112	0.158742	0.060752
O20	O	1.318112	0.658742	0.560752
C21	C	0.696570	0.080310	-0.000101
C22	C	1.196570	0.580310	0.499899
C23	C	0.619067	0.079385	-0.000091
C24	C	1.119067	0.579385	0.499909
C25	C	0.582687	0.078944	-0.066465
C26	C	1.082687	0.578944	0.433535
C27	C	0.509866	0.078068	-0.066474
C28	C	1.009866	0.578068	0.433526
C29	C	0.473430	0.077623	-0.000105
C30	C	0.973430	0.577623	0.499895
C31	C	0.509819	0.078068	0.066278
C32	C	1.009819	0.578068	0.566278
C33	C	0.582638	0.078949	0.066285
C34	C	1.082638	0.578949	0.566285
N35	N	0.364511	0.043829	0.049292
N36	N	0.864511	0.543829	0.549292
N37	N	0.295336	0.042991	0.049281
N38	N	0.795336	0.542991	0.549281
C39	C	0.254032	0.074970	-0.000122
C40	C	0.754032	0.574970	0.499878
N41	N	0.284517	0.107812	-0.049525
N42	N	0.784517	0.607812	0.450475
N43	N	0.353698	0.108648	-0.049516
N44	N	0.853698	0.608648	0.450484
C45	C	0.394471	0.076668	-0.000105
C46	C	0.894471	0.576668	0.499895
C47	C	0.138691	0.073580	-0.066511
C48	C	0.638691	0.573580	0.433489
C49	C	0.065868	0.072709	-0.066517
C50	C	0.565868	0.572709	0.433483
C51	C	0.065824	0.072703	0.066237
C52	C	0.565824	0.572703	0.566237
C53	C	0.138644	0.073580	0.066241
C54	C	0.638644	0.573580	0.566241
C55	C	0.175074	0.074016	-0.000135
C56	C	0.675074	0.574016	0.499865
C57	C	0.830072	-0.028311	-0.000101
C58	C	1.330072	0.471689	0.499899
C59	C	0.829133	-0.091530	-0.000096
C60	C	1.329133	0.408470	0.499904
C61	C	0.887040	-0.490514	-0.000143
C62	C	1.387040	0.009486	0.499857
C63	C	0.886168	-0.549916	-0.000148
C64	C	1.386168	-0.049916	0.499852
O65	O	0.939848	-0.586551	-0.000181
O66	O	1.439848	-0.086551	0.499819
N67	N	0.822078	-0.572674	-0.000140
N68	N	1.322078	-0.072674	0.499860
C69	C	0.758857	-0.536026	-0.000134
C70	C	1.258857	-0.036026	0.499866
O71	O	0.704264	-0.560837	-0.000128
O72	O	1.204264	-0.060837	0.499872
C73	C	0.759730	-0.476625	-0.000134
C74	C	1.259730	0.023375	0.499866
C75	C	0.823824	-0.453871	-0.000134
C76	C	1.323824	0.046129	0.499866
C77	C	0.951129	-0.467759	-0.000144
C78	C	1.451129	0.032241	0.499856
C79	C	0.952000	-0.408362	-0.000137
C80	C	1.452000	0.091638	0.499863
C81	C	0.888784	-0.371718	-0.000129
C82	C	1.388784	0.128282	0.499871
C83	C	0.824696	-0.394473	-0.000127
C84	C	1.324696	0.105527	0.499873
C85	C	0.696509	-0.439978	-0.000133
C86	C	1.196509	0.060022	0.499867
C87	C	0.697388	-0.380574	-0.000133
C88	C	1.197388	0.119426	0.499867
C89	C	0.761482	-0.357820	-0.000134
C90	C	1.261482	0.142180	0.499866
C91	C	0.762351	-0.298432	-0.000112
C92	C	1.262351	0.201568	0.499888
N93	N	0.826440	-0.275674	-0.000120
N94	N	1.326440	0.224326	0.499880
C95	C	0.889657	-0.312317	-0.000129
C96	C	1.389657	0.187683	0.499871
C97	C	0.757029	-0.660772	-0.000136
C98	C	1.257029	-0.160772	0.499864
C99	C	0.756155	-0.720172	-0.000131
C100	C	1.256155	-0.220172	0.499869
C101	C	0.883466	-0.734058	-0.000146
C102	C	1.383466	-0.234058	0.499854
C103	C	0.884339	-0.674657	-0.000146
C104	C	1.384339	-0.174657	0.499854
C105	C	0.821118	-0.638014	-0.000144
C106	C	1.321118	-0.138014	0.499856
C107	C	0.891483	-0.187577	-0.000114
C108	C	1.391483	0.312423	0.499886
C109	C	0.892350	-0.128173	-0.000104
C110	C	1.392350	0.371827	0.499896
C111	C	0.765039	-0.114292	-0.000092
C112	C	1.265039	0.385708	0.499908
C113	C	0.764172	-0.173691	-0.000098
C114	C	1.264172	0.326309	0.499902
C115	C	0.827400	-0.210332	-0.000111
C116	C	1.327400	0.289668	0.499889
O117	O	0.708699	-0.261762	-0.000082
O118	O	1.208699	0.238238	0.499918
O119	O	0.944241	-0.287498	-0.000144
O120	O	1.444241	0.212502	0.499856
C121	C	0.951935	0.071340	-0.000133
C122	C	1.451935	0.571340	0.499867
C123	C	1.029437	0.072265	-0.000147
C124	C	1.529437	0.572265	0.499853
C125	C	0.818433	0.179961	-0.000132
C126	C	1.318433	0.679961	0.499868
C127	C	0.819372	0.243180	-0.000143
C128	C	1.319372	0.743180	0.499857
N129	N	0.824229	0.075818	0.189584
N130	N	1.324229	0.575818	0.689584
N131	N	0.824281	0.075828	-0.189816
N132	N	1.324281	0.575828	0.310184
C133	C	0.871980	0.036998	0.227893
C134	C	1.371980	0.536998	0.727893
C135	C	0.871985	0.036995	0.304538
C136	C	1.371985	0.536995	0.804538
C137	C	0.824245	0.075822	0.342871
C138	C	1.324245	0.575822	0.842871
C139	C	0.776485	0.114645	0.304553
C140	C	1.276485	0.614645	0.804553
C141	C	0.776477	0.114643	0.227909
C142	C	1.276477	0.614643	0.727909
N143	N	0.815008	0.126238	0.463197
N144	N	1.315008	0.626238	0.963197
N145	N	0.815020	0.126238	0.536005
N146	N	1.315020	0.626238	1.036005
C147	C	0.824264	0.075830	0.573794
C148	C	1.324264	0.575830	1.073794
N149	N	0.833511	0.025420	0.536024
N150	N	1.333511	0.525420	1.036024
N151	N	0.833503	0.025421	0.463209
N152	N	1.333503	0.525421	0.963209
C153	C	0.824248	0.075829	0.425978
C154	C	1.324248	0.575829	0.925978
C155	C	0.872023	0.037004	0.695210
C156	C	1.372023	0.537004	1.195210
C157	C	0.872022	0.037001	0.771856
C158	C	1.372022	0.537001	1.271856
C159	C	0.776526	0.114656	0.771869
C160	C	1.276526	0.614656	1.271869
C161	C	0.776523	0.114654	0.695224
C162	C	1.276523	0.614654	1.195224
C163	C	0.824275	0.075829	0.656899
C164	C	1.324275	0.575829	1.156899
H165	H	0.480239	0.077709	-0.120526
H166	H	0.980239	0.577709	0.379474
H167	H	0.480148	0.077708	0.120316
H168	H	0.980148	0.577708	0.620316
F169	F	0.922842	-0.004319	0.654421
F170	F	1.422842	0.495681	1.154421
F171	F	0.725652	0.155962	0.187136
F172	F	1.225652	0.655962	0.687136
H173	H	0.944544	-0.109650	-0.000103
H174	H	1.444544	0.390350	0.499897
H175	H	1.004192	-0.389841	-0.000141
H176	H	1.504192	0.110159	0.499859
H177	H	0.612258	0.079310	0.120337
H178	H	1.112258	0.579310	0.620337
H179	H	0.737642	0.146268	0.664031
H180	H	1.237642	0.646268	1.164031
F181	F	0.177464	0.074048	-0.137153
F182	F	0.677464	0.574048	0.362847
F183	F	0.922844	-0.004322	0.812629
F184	F	1.422844	0.495678	1.312629
F185	F	0.950747	-0.773067	-0.000159
F186	F	1.450747	-0.273067	0.499841
F187	F	0.621454	0.079409	-0.137109
F188	F	1.121454	0.579409	0.362891
H189	H	0.703964	-0.738692	-0.000117
H190	H	1.203964	-0.238692	0.499883
F191	F	0.689736	-0.621778	-0.000126
F192	F	1.189736	-0.121778	0.499874
F193	F	0.177365	0.074048	0.136887
F194	F	0.677365	0.574048	0.636887
F195	F	0.725713	0.155975	0.812662
F196	F	1.225713	0.655975	1.312662
H197	H	0.036248	0.072352	-0.120569
H198	H	0.536248	0.572352	0.379431
H199	H	0.910861	0.005383	0.196691
H200	H	1.410861	0.505383	0.696691
F201	F	0.027050	0.072234	0.136873
F202	F	0.527050	0.572234	0.636873
F203	F	0.958778	-0.226566	-0.000128
F204	F	1.458778	0.273434	0.499872
F205	F	0.952555	-0.650446	-0.000147
F206	F	1.452555	-0.150446	0.499853
F207	F	1.018418	-0.506750	-0.000153
F208	F	1.518418	-0.006750	0.499847
H209	H	0.644318	-0.458493	-0.000137
H210	H	1.144318	0.041507	0.499863
F211	F	0.630097	-0.341579	-0.000132
F212	F	1.130097	0.158421	0.499868
F213	F	0.695957	-0.197908	-0.000084
F214	F	1.195957	0.302092	0.499916
H215	H	0.910871	0.005382	0.335735
H216	H	1.410871	0.505382	0.835735
F217	F	0.697763	-0.075283	-0.000083
F218	F	1.197763	0.424717	0.499917
F219	F	0.725674	0.155966	0.345350
F220	F	1.225674	0.655966	0.845350
