data_functionalizedCrystal
_audit_creation_method	'MofGen! by Chris Wilmer'
_symmetry_space_group_name_H-M	'P1'
_symmetry_Int_Tables_number	1
_symmetry_cell_setting	triclinic
loop_
_symmetry_equiv_pos_as_xyz
  x,y,z
_cell_length_a	10.540539
_cell_length_b	23.532407
_cell_length_c	9.616153
_cell_angle_alpha	89.993077
_cell_angle_beta	89.995174
_cell_angle_gamma	83.687085
loop_
_atom_site_label
_atom_site_type_symbol
_atom_site_fract_x
_atom_site_fract_y
_atom_site_fract_z
O1	O	1.683259	0.080251	-0.115596
O2	O	1.313597	0.087813	-0.115615
O3	O	1.509575	0.001174	-0.115579
O4	O	1.487281	0.166890	-0.115631
O5	O	1.509548	0.001176	0.115712
O6	O	1.313571	0.087814	0.115677
O7	O	1.683232	0.080253	0.115695
Zn8	Zn	1.498397	0.084034	0.152408
Zn9	Zn	1.498432	0.084032	-0.152328
O10	O	1.487254	0.166892	0.115660
C11	C	1.266300	0.087246	0.000029
C12	C	1.125407	0.085550	0.000023
C13	C	0.944114	0.020541	0.000583
C14	C	1.090676	0.022261	0.000047
C15	C	1.062750	0.116006	-0.132060
C16	C	0.916277	0.113846	-0.132156
C17	C	0.915716	0.115136	0.130865
C18	C	1.062678	0.115719	0.132597
C19	C	1.508994	-0.020045	0.000070
C20	C	1.507287	-0.083273	0.000080
C21	C	1.612557	-0.481681	0.000010
C22	C	1.610971	-0.541092	-0.000001
O23	O	1.708557	-0.577192	-0.000048
N24	N	1.494462	-0.564488	-0.000006
C25	C	1.379532	-0.528469	-0.000014
O26	O	1.280287	-0.553824	-0.000021
C27	C	1.381119	-0.469060	-0.000014
C28	C	1.497635	-0.445667	0.000005
C29	C	1.729064	-0.458288	0.000027
C30	C	1.730649	-0.398882	0.000040
C31	C	1.615727	-0.362868	0.000036
C32	C	1.499220	-0.386261	0.000019
C33	C	1.266190	-0.433042	-0.000032
C34	C	1.267787	-0.373629	-0.000032
C35	C	1.384303	-0.350237	-0.000013
C36	C	1.385883	-0.290840	0.000028
N37	N	1.502392	-0.267444	0.000032
C38	C	1.617314	-0.303458	0.000037
C39	C	1.376208	-0.653234	-0.000018
C40	C	1.374620	-0.712642	-0.000009
C41	C	1.606059	-0.725261	0.000002
C42	C	1.607646	-0.665851	0.000002
C43	C	1.492717	-0.629838	-0.000013
C44	C	1.620634	-0.178700	0.000066
C45	C	1.622209	-0.119287	0.000085
C46	C	1.390770	-0.106674	0.000067
C47	C	1.389194	-0.166081	0.000055
C48	C	1.504137	-0.202093	0.000050
O49	O	1.288349	-0.254705	0.000068
O50	O	1.716543	-0.278095	0.000025
C51	C	1.730530	0.080819	0.000049
C52	C	1.871422	0.082516	0.000045
C53	C	1.487835	0.188111	0.000008
C54	C	1.489542	0.251339	-0.000012
N55	N	1.498382	0.084035	0.360383
N56	N	1.498457	0.084026	-0.360302
C57	C	1.393237	0.130226	0.580734
C58	C	1.393459	0.130399	0.419567
C59	C	1.630662	0.097553	0.418834
C60	C	1.630087	0.097880	0.580052
C61	C	1.472575	0.024176	0.580312
C62	C	1.469515	0.024564	0.419085
H63	H	1.104360	0.093469	0.230311
H64	H	1.294317	-0.185128	0.000078
C65	C	1.732476	-0.764881	-0.000004
H66	H	1.802100	-0.742444	0.000012
H67	H	1.736668	-0.788314	-0.080663
H68	H	1.736653	-0.788323	0.080660
C69	C	1.415677	0.190382	0.367421
H70	H	1.424614	0.214737	0.444768
H71	H	1.344987	0.205567	0.312588
H72	H	1.491163	0.187848	0.312751
C73	C	1.750381	-0.093559	0.000097
H74	H	1.818594	-0.123520	0.000083
H75	H	1.755809	-0.070652	0.080757
H76	H	1.755820	-0.070641	-0.080566
C77	C	1.662385	0.155875	0.364269
H78	H	1.595196	0.172061	0.305884
H79	H	1.739699	0.150824	0.312745
H80	H	1.671804	0.180726	0.440529
C81	C	1.093352	0.178053	0.143356
H82	H	1.145037	0.186534	0.066788
H83	H	1.137776	0.183055	0.227649
H84	H	1.016155	0.203030	0.142235
H85	H	1.822652	-0.487605	0.000025
H86	H	1.702524	-0.646810	0.000017
H87	H	1.133224	-0.001874	-0.094785
H88	H	1.106044	0.094848	-0.230346
C89	C	1.138023	-0.458764	-0.000070
H90	H	1.153517	-0.499304	-0.000066
H91	H	1.090764	-0.446423	-0.080735
H92	H	1.090721	-0.446437	0.080588
C93	C	1.747067	-0.218304	0.000072
H94	H	1.816673	-0.195856	0.000097
H95	H	1.751287	-0.241739	-0.080585
H96	H	1.751251	-0.241746	0.080738
H97	H	0.884830	0.094655	0.230983
C98	C	0.879167	0.083434	-0.265507
H99	H	0.789500	0.081851	-0.266745
H100	H	0.921786	0.045715	-0.267554
H101	H	0.903308	0.103982	-0.344499
C102	C	1.858817	-0.373158	0.000035
H103	H	1.927023	-0.403121	0.000019
H104	H	1.864259	-0.350247	0.080687
H105	H	1.864253	-0.350243	-0.080636
H106	H	0.914735	-0.004357	-0.093599
H107	H	1.710791	0.064822	0.380495
H108	H	1.710789	0.065586	0.619054
H109	H	0.866988	0.160849	0.131743
C110	C	1.576231	-0.022280	0.631831
H111	H	1.635003	-0.005315	0.689254
H112	H	1.620084	-0.040083	0.554306
H113	H	1.537549	-0.050094	0.683749
H114	H	1.378260	0.011310	0.621049
C115	C	1.338069	0.010720	0.367488
H116	H	1.300930	0.041051	0.310401
H117	H	1.284138	0.006303	0.444996
H118	H	1.348051	-0.023733	0.315204
H119	H	1.297204	-0.077341	0.000068
C120	C	1.246456	-0.738370	-0.000014
H121	H	1.261958	-0.778911	-0.000010
H122	H	1.199180	-0.726032	-0.080670
H123	H	1.199166	-0.726045	0.080653
C124	C	1.149298	-0.010112	0.127952
H125	H	1.083549	-0.024438	0.180706
H126	H	1.191861	0.015162	0.183815
H127	H	1.208634	-0.041043	0.098241
C128	C	1.249777	-0.613624	-0.000009
H129	H	1.180170	-0.636070	0.000001
H130	H	1.245579	-0.590179	-0.080661
H131	H	1.245575	-0.590192	0.080662
C132	C	1.566395	-0.024113	0.364690
H133	H	1.625986	-0.008734	0.305209
H134	H	1.522682	-0.050730	0.314366
H135	H	1.610313	-0.042899	0.440952
H136	H	0.916338	-0.004461	0.095309
H137	H	0.866815	0.159363	-0.138165
H138	H	1.083578	0.162484	-0.136989
C139	C	1.141360	-0.334018	-0.000044
H140	H	1.071749	-0.356462	-0.000046
H141	H	1.137176	-0.310573	-0.080695
H142	H	1.137153	-0.310587	0.080628
C143	C	1.260594	0.119422	0.366175
H144	H	1.205994	0.114819	0.443016
H145	H	1.267980	0.085709	0.311111
H146	H	1.225823	0.150979	0.311479
H147	H	1.294574	0.122217	0.619543
H148	H	1.409455	0.174378	0.621220
H149	H	1.653008	0.141545	0.617628
