data_functionalizedCrystal
_audit_creation_method	'MofGen! by Chris Wilmer'
_symmetry_space_group_name_H-M	'P1'
_symmetry_Int_Tables_number	1
_symmetry_cell_setting	triclinic
loop_
_symmetry_equiv_pos_as_xyz
  x,y,z
_cell_length_a	18.215407
_cell_length_b	16.625545
_cell_length_c	18.215399
_cell_angle_alpha	89.973113
_cell_angle_beta	89.982632
_cell_angle_gamma	90.023001
loop_
_atom_site_label
_atom_site_type_symbol
_atom_site_fract_x
_atom_site_fract_y
_atom_site_fract_z
Zn1	Zn	1.125068	-0.321065	-0.416073
Zn2	Zn	1.375068	-0.071065	-0.166073
Zn3	Zn	1.625068	0.178935	0.083927
Zn4	Zn	1.875068	0.428935	0.333927
Zn5	Zn	1.124975	-0.455905	-0.293009
Zn6	Zn	1.374975	-0.205905	-0.043009
Zn7	Zn	1.624975	0.044095	0.206991
Zn8	Zn	1.874975	0.294095	0.456991
Zn9	Zn	1.002001	-0.321084	-0.293026
Zn10	Zn	1.252001	-0.071084	-0.043026
Zn11	Zn	1.502001	0.178916	0.206974
Zn12	Zn	1.752001	0.428916	0.456974
Zn13	Zn	1.001965	-0.455853	-0.416039
Zn14	Zn	1.251965	-0.205853	-0.166039
Zn15	Zn	1.501965	0.044147	0.083961
Zn16	Zn	1.751965	0.294147	0.333961
O17	O	1.063503	-0.388477	-0.354537
O18	O	1.313503	-0.138477	-0.104537
O19	O	1.563503	0.111523	0.145463
O20	O	1.813503	0.361523	0.395463
O21	O	1.228040	-0.338965	-0.399755
O22	O	1.478040	-0.088965	-0.149755
O23	O	1.728040	0.161035	0.100245
O24	O	1.978040	0.411035	0.350245
O25	O	1.108639	-0.438051	-0.190027
O26	O	1.358639	-0.188051	0.059973
O27	O	1.608639	0.061949	0.309973
O28	O	1.858639	0.311949	0.559973
O29	O	1.018380	-0.208249	-0.309369
O30	O	1.268380	0.041751	-0.059369
O31	O	1.518380	0.291751	0.190631
O32	O	1.768380	0.541751	0.440631
O33	O	1.227972	-0.438032	-0.309341
O34	O	1.477972	-0.188032	-0.059341
O35	O	1.727972	0.061968	0.190659
O36	O	1.977972	0.311968	0.440659
O37	O	1.108797	-0.208235	-0.399772
O38	O	1.358797	0.041765	-0.149772
O39	O	1.608797	0.291765	0.100228
O40	O	1.858797	0.541765	0.350228
O41	O	1.018290	-0.338998	-0.190039
O42	O	1.268290	-0.088998	0.059961
O43	O	1.518290	0.161002	0.309961
O44	O	1.768290	0.411002	0.559961
O45	O	0.899012	-0.338948	-0.309336
O46	O	1.149012	-0.088948	-0.059336
O47	O	1.399012	0.161052	0.190664
O48	O	1.649012	0.411052	0.440664
O49	O	1.018319	-0.437943	-0.519028
O50	O	1.268319	-0.187943	-0.269028
O51	O	1.518319	0.062057	-0.019028
O52	O	1.768319	0.312057	0.230972
O53	O	0.898986	-0.437962	-0.399714
O54	O	1.148986	-0.187962	-0.149714
O55	O	1.398986	0.062038	0.100286
O56	O	1.648986	0.312038	0.350286
O57	O	1.108763	-0.338915	-0.519053
O58	O	1.358763	-0.088915	-0.269053
O59	O	1.608763	0.161085	-0.019053
O60	O	1.858763	0.411085	0.230947
O61	O	1.108604	-0.568731	-0.309308
O62	O	1.358604	-0.318731	-0.059308
O63	O	1.608604	-0.068731	0.190692
O64	O	1.858604	0.181269	0.440692
O65	O	1.018229	-0.568693	-0.399698
O66	O	1.268229	-0.318693	-0.149698
O67	O	1.518229	-0.068693	0.100302
O68	O	1.768229	0.181307	0.350302
C69	C	0.872296	-0.388452	-0.354524
C70	C	1.122296	-0.138452	-0.104524
C71	C	1.372296	0.111548	0.145476
C72	C	1.622296	0.361548	0.395476
C73	C	0.790497	-0.388461	-0.354536
C74	C	1.040497	-0.138461	-0.104536
C75	C	1.290497	0.111539	0.145464
C76	C	1.540497	0.361539	0.395464
C77	C	0.602338	-0.336983	-0.401689
C78	C	0.852338	-0.086983	-0.151689
C79	C	1.102338	0.163017	0.098311
C80	C	1.352338	0.413017	0.348311
C81	C	0.525479	-0.336990	-0.401691
C82	C	0.775479	-0.086990	-0.151691
C83	C	1.025479	0.163010	0.098309
C84	C	1.275479	0.413010	0.348309
C85	C	0.525419	-0.439993	-0.307397
C86	C	0.775419	-0.189993	-0.057397
C87	C	1.025419	0.060007	0.192603
C88	C	1.275419	0.310007	0.442603
C89	C	0.602276	-0.439982	-0.307392
C90	C	0.852276	-0.189982	-0.057392
C91	C	1.102276	0.060018	0.192608
C92	C	1.352276	0.310018	0.442608
C93	C	0.640734	-0.388478	-0.354542
C94	C	0.890734	-0.138478	-0.104542
C95	C	1.140734	0.111522	0.145458
C96	C	1.390734	0.361522	0.395458
C97	C	0.487018	-0.388496	-0.354550
C98	C	0.737018	-0.138496	-0.104550
C99	C	0.987018	0.111504	0.145450
C100	C	1.237018	0.361504	0.395450
C101	C	0.403684	-0.388504	-0.354552
C102	C	0.653684	-0.138504	-0.104552
C103	C	0.903684	0.111496	0.145448
C104	C	1.153684	0.361496	0.395448
C105	C	0.724073	-0.388469	-0.354539
C106	C	0.974073	-0.138469	-0.104539
C107	C	1.224073	0.111531	0.145461
C108	C	1.474073	0.361531	0.395461
C109	C	1.063423	-0.597968	-0.354513
C110	C	1.313423	-0.347968	-0.104513
C111	C	1.563423	-0.097968	0.145487
C112	C	1.813423	0.152032	0.395487
C113	C	1.063456	-0.687589	-0.354528
C114	C	1.313456	-0.437589	-0.104528
C115	C	1.563456	-0.187589	0.145472
C116	C	1.813456	0.062411	0.395472
C117	C	1.063484	-0.760371	-0.354543
C118	C	1.313484	-0.510371	-0.104543
C119	C	1.563484	-0.260371	0.145457
C120	C	1.813484	-0.010371	0.395457
C121	C	1.063527	-0.851680	-0.354559
C122	C	1.313527	-0.601680	-0.104559
C123	C	1.563527	-0.351680	0.145441
C124	C	1.813527	-0.101680	0.395441
C125	C	1.063565	-0.924456	-0.354568
C126	C	1.313565	-0.674456	-0.104568
C127	C	1.563565	-0.424456	0.145432
C128	C	1.813565	-0.174456	0.395432
C129	C	1.063607	-1.015770	-0.354583
C130	C	1.313607	-0.765770	-0.104583
C131	C	1.563607	-0.515770	0.145417
C132	C	1.813607	-0.265770	0.395417
C133	C	1.255455	-0.388502	-0.354550
C134	C	1.505455	-0.138502	-0.104550
C135	C	1.755455	0.111498	0.145450
C136	C	2.005455	0.361498	0.395450
C137	C	1.337254	-0.388513	-0.354556
C138	C	1.587254	-0.138513	-0.104556
C139	C	1.837254	0.111487	0.145444
C140	C	2.087254	0.361487	0.395444
C141	C	1.063547	-0.388421	-0.546490
C142	C	1.313547	-0.138421	-0.296490
C143	C	1.563547	0.111579	-0.046490
C144	C	1.813547	0.361579	0.203510
C145	C	1.063567	-0.388398	-0.628289
C146	C	1.313567	-0.138398	-0.378289
C147	C	1.563567	0.111602	-0.128289
C148	C	1.813567	0.361602	0.121711
C149	C	1.063603	-0.178168	-0.354576
C150	C	1.313603	0.071832	-0.104576
C151	C	1.563603	0.321832	0.145424
C152	C	1.813603	0.571832	0.395424
C153	C	1.063646	-0.088547	-0.354593
C154	C	1.313646	0.161453	-0.104593
C155	C	1.563646	0.411453	0.145407
C156	C	1.813646	0.661453	0.395407
C157	C	1.110677	-0.336785	-0.816497
C158	C	1.360677	-0.086785	-0.566497
C159	C	1.610677	0.163215	-0.316497
C160	C	1.860677	0.413215	-0.066497
C161	C	1.110686	-0.336762	-0.893355
C162	C	1.360686	-0.086762	-0.643355
C163	C	1.610686	0.163238	-0.393355
C164	C	1.860686	0.413238	-0.143355
C165	C	1.016508	-0.439885	-0.893318
C166	C	1.266508	-0.189885	-0.643318
C167	C	1.516508	0.060115	-0.393318
C168	C	1.766508	0.310115	-0.143318
C169	C	1.016496	-0.439904	-0.816461
C170	C	1.266496	-0.189904	-0.566461
C171	C	1.516496	0.060096	-0.316461
C172	C	1.766496	0.310096	-0.066461
C173	C	1.063585	-0.388355	-0.778052
C174	C	1.313585	-0.138355	-0.528052
C175	C	1.563585	0.111645	-0.278052
C176	C	1.813585	0.361645	-0.028052
C177	C	1.063606	-0.388313	-0.931768
C178	C	1.313606	-0.138313	-0.681768
C179	C	1.563606	0.111687	-0.431768
C180	C	1.813606	0.361687	-0.181768
C181	C	1.063615	-0.388288	-1.015102
C182	C	1.313615	-0.138288	-0.765102
C183	C	1.563615	0.111712	-0.515102
C184	C	1.813615	0.361712	-0.265102
C185	C	1.063575	-0.388379	-0.694713
C186	C	1.313575	-0.138379	-0.444713
C187	C	1.563575	0.111621	-0.194713
C188	C	1.813575	0.361621	0.055287
C189	C	1.063500	-0.388474	-0.163330
C190	C	1.313500	-0.138474	0.086670
C191	C	1.563500	0.111526	0.336670
C192	C	1.813500	0.361526	0.586670
C193	C	1.063624	-0.388271	-0.081532
C194	C	1.313624	-0.138271	0.168468
C195	C	1.563624	0.111729	0.418468
C196	C	1.813624	0.361729	0.668468
H197	H	0.633648	-0.295043	-0.440079
H198	H	0.883648	-0.045043	-0.190079
H199	H	1.133648	0.204957	0.059921
H200	H	1.383648	0.454957	0.309921
H201	H	0.633539	-0.481916	-0.268995
H202	H	0.883539	-0.231916	-0.018995
H203	H	1.133539	0.018084	0.231005
H204	H	1.383539	0.268084	0.481005
H205	H	0.978171	-0.481856	-0.924600
H206	H	1.228171	-0.231856	-0.674600
H207	H	1.478171	0.018144	-0.424600
H208	H	1.728171	0.268144	-0.174600
H209	H	1.149032	-0.294767	-0.924654
H210	H	1.399032	-0.044767	-0.674654
H211	H	1.649032	0.205233	-0.424654
H212	H	1.899032	0.455233	-0.174654
N213	N	0.484066	-0.281441	-0.452534
N214	N	0.734066	-0.031441	-0.202534
N215	N	0.984066	0.218559	0.047466
N216	N	1.234066	0.468559	0.297466
H217	H	0.520093	-0.248811	-0.482398
H218	H	0.770093	0.001189	-0.232398
H219	H	1.020093	0.251189	0.017602
H220	H	1.270093	0.501189	0.267602
H221	H	0.452176	-0.314305	-0.486543
H222	H	0.702176	-0.064305	-0.236543
H223	H	0.952176	0.185695	0.013457
H224	H	1.202176	0.435695	0.263457
N225	N	0.483940	-0.495539	-0.256543
N226	N	0.733940	-0.245539	-0.006543
N227	N	0.983940	0.004461	0.243457
N228	N	1.233940	0.254461	0.493457
H229	H	0.429424	-0.487735	-0.263700
H230	H	0.679424	-0.237735	-0.013700
H231	H	0.929424	0.012265	0.236300
H232	H	1.179424	0.262265	0.486300
H233	H	0.497364	-0.553140	-0.267902
H234	H	0.747364	-0.303140	-0.017902
H235	H	0.997364	-0.053140	0.232098
H236	H	1.247364	0.196860	0.482098
N237	N	1.161462	-0.281188	-0.775068
N238	N	1.411462	-0.031188	-0.525068
N239	N	1.661462	0.218812	-0.275068
N240	N	1.911462	0.468812	-0.025068
H241	H	1.191295	-0.248515	-0.811088
H242	H	1.441295	0.001485	-0.561088
H243	H	1.691295	0.251485	-0.311088
H244	H	1.941295	0.501485	-0.061088
H245	H	1.131518	-0.243880	-0.743183
H246	H	1.381518	0.006120	-0.493183
H247	H	1.631518	0.256120	-0.243183
H248	H	1.881518	0.506120	0.006817
N249	N	0.965686	-0.495512	-0.774989
N250	N	1.215686	-0.245512	-0.524989
N251	N	1.465686	0.004488	-0.274989
N252	N	1.715686	0.254488	-0.024989
H253	H	0.935857	-0.528165	-0.810982
H254	H	1.185857	-0.278165	-0.560982
H255	H	1.435857	-0.028165	-0.310982
H256	H	1.685857	0.221835	-0.060982
H257	H	0.995609	-0.532840	-0.743088
H258	H	1.245609	-0.282840	-0.493088
H259	H	1.495609	-0.032840	-0.243088
H260	H	1.745609	0.217160	0.006912
