data_functionalizedCrystal
_audit_creation_method	'MofGen! by Chris Wilmer'
_symmetry_space_group_name_H-M	'P1'
_symmetry_Int_Tables_number	1
_symmetry_cell_setting	triclinic
loop_
_symmetry_equiv_pos_as_xyz
  x,y,z
_cell_length_a	19.288859
_cell_length_b	10.540510
_cell_length_c	17.766277
_cell_angle_alpha	89.996163
_cell_angle_beta	89.989768
_cell_angle_gamma	83.823518
loop_
_atom_site_label
_atom_site_type_symbol
_atom_site_fract_x
_atom_site_fract_y
_atom_site_fract_z
O1	O	0.922403	0.158310	-0.062605
O2	O	1.422403	0.658310	0.437395
O3	O	0.720283	0.179679	-0.062603
O4	O	1.220283	0.679679	0.437397
O5	O	0.825965	-0.015818	-0.062604
O6	O	1.325965	0.484182	0.437396
O7	O	0.816721	0.353807	-0.062604
O8	O	1.316721	0.853807	0.437396
O9	O	0.825946	-0.015828	0.062585
O10	O	1.325946	0.484172	0.562585
O11	O	0.720264	0.179669	0.062586
O12	O	1.220264	0.679669	0.562586
O13	O	0.922384	0.158300	0.062583
O14	O	1.422384	0.658300	0.562583
Cu15	Cu	0.821322	0.168984	0.074015
Cu16	Cu	1.321322	0.668984	0.574015
Cu17	Cu	0.821345	0.168995	-0.074035
Cu18	Cu	1.321345	0.668995	0.425965
O19	O	0.816702	0.353797	0.062584
O20	O	1.316702	0.853797	0.562584
C21	C	0.694392	0.178988	-0.000008
C22	C	1.194392	0.678988	0.499992
C23	C	0.617275	0.176928	-0.000008
C24	C	1.117275	0.676928	0.499992
C25	C	0.053901	0.277700	-0.000009
C26	C	0.553901	0.777700	0.499991
C27	C	0.126360	0.279647	-0.000013
C28	C	0.626360	0.779647	0.499987
C29	C	0.170308	0.164938	-0.000011
C30	C	0.670308	0.664938	0.499989
C31	C	0.141792	0.048274	-0.000025
C32	C	0.641792	0.548274	0.499975
C33	C	0.069333	0.046331	-0.000029
C34	C	0.569333	0.546331	0.499971
C35	C	0.291006	0.079386	0.043851
C36	C	0.791006	0.579386	0.543851
C37	C	0.363463	0.081334	0.043859
C38	C	0.863463	0.581334	0.543859
C39	C	0.393794	0.170928	-0.000003
C40	C	0.893794	0.670928	0.499997
C41	C	0.351658	0.258595	-0.043865
C42	C	0.851658	0.758595	0.456135
C43	C	0.279200	0.256651	-0.043868
C44	C	0.779200	0.756651	0.456132
C45	C	0.248878	0.167033	-0.000008
C46	C	0.748878	0.667033	0.499992
C47	C	0.500871	0.289695	0.000001
C48	C	1.000871	0.789695	0.500001
C49	C	0.573332	0.291637	-0.000008
C50	C	1.073332	0.791637	0.499992
C51	C	0.588762	0.060262	-0.000013
C52	C	1.088762	0.560262	0.499987
C53	C	0.516302	0.058323	-0.000011
C54	C	1.016302	0.558323	0.499989
C55	C	0.472361	0.173043	-0.000001
C56	C	0.972361	0.673043	0.499999
C57	C	0.825267	-0.063111	-0.000011
C58	C	1.325267	0.436889	0.499989
C59	C	0.823206	-0.204015	-0.000015
C60	C	1.323206	0.295985	0.499985
C61	C	0.896622	-0.423109	0.000270
C62	C	1.396622	0.076891	0.500270
C63	C	0.898821	-0.276563	-0.000016
C64	C	1.398821	0.223437	0.499984
C65	C	0.784509	-0.247903	-0.071502
C66	C	1.284509	0.252097	0.428498
C67	C	0.782846	-0.394627	-0.071558
C68	C	1.282846	0.105373	0.428442
C69	C	0.781250	-0.394412	0.070805
C70	C	1.281250	0.105588	0.570805
C71	C	0.784836	-0.248151	0.071745
C72	C	1.284836	0.251849	0.571745
C73	C	0.948274	0.158991	-0.000013
C74	C	1.448274	0.658991	0.499987
C75	C	1.025392	0.161051	-0.000018
C76	C	1.525392	0.661051	0.499982
C77	C	0.817400	0.401090	-0.000010
C78	C	1.317400	0.901090	0.499990
C79	C	0.819461	0.541994	-0.000010
C80	C	1.319461	1.041994	0.499990
N81	N	0.821312	0.168975	0.178146
N82	N	1.321312	0.668975	0.678146
N83	N	0.821361	0.168994	-0.178165
N84	N	1.321361	0.668994	0.321835
C85	C	0.868123	0.082451	0.217532
C86	C	1.368123	0.582451	0.717532
C87	C	0.868127	0.082445	0.296334
C88	C	1.368127	0.582445	0.796334
C89	C	0.821326	0.168985	0.335746
C90	C	1.321326	0.668985	0.835746
C91	C	0.774506	0.255515	0.296350
C92	C	1.274506	0.755515	0.796350
C93	C	0.774499	0.255510	0.217550
C94	C	1.274499	0.755510	0.717550
C95	C	0.812793	0.284641	0.460584
C96	C	1.312793	0.784641	0.960584
C97	C	0.812805	0.284648	0.539383
C98	C	1.312805	0.784648	1.039383
C99	C	0.821345	0.169000	0.578793
C100	C	1.321345	0.669000	1.078793
C101	C	0.829888	0.053341	0.539394
C102	C	1.329888	0.553341	1.039394
C103	C	0.829881	0.053336	0.460593
C104	C	1.329881	0.553336	0.960593
C105	C	0.821329	0.168999	0.421192
C106	C	1.321329	0.668999	0.921192
C107	C	0.868164	0.082463	0.703625
C108	C	1.368164	0.582463	1.203625
C109	C	0.868163	0.082455	0.782428
C110	C	1.368163	0.582455	1.282428
C111	C	0.774545	0.255536	0.782443
C112	C	1.274545	0.755536	1.282443
C113	C	0.774542	0.255533	0.703641
C114	C	1.274542	0.755533	1.203641
C115	C	0.821355	0.168997	0.664237
C116	C	1.321355	0.668997	1.164237
H117	H	0.018128	0.371115	-0.000004
H118	H	0.518128	0.871115	0.499996
H119	H	0.465092	0.383108	0.000008
H120	H	0.965092	0.883108	0.500008
H121	H	0.906239	0.011986	0.185452
H122	H	1.406239	0.511986	0.685452
H123	H	0.376351	0.331553	-0.079580
H124	H	0.876351	0.831553	0.420420
H125	H	0.728842	-0.199271	-0.074160
H126	H	1.228842	0.300729	0.425840
H127	H	0.266318	0.006421	0.079570
H128	H	0.766318	0.506421	0.579570
H129	H	0.836842	-0.040831	0.571479
H130	H	1.336842	0.459169	1.071479
H131	H	0.811398	-0.217643	-0.124703
H132	H	1.311398	0.282357	0.375297
H133	H	0.906279	0.011997	0.671541
H134	H	1.406279	0.511997	1.171541
H135	H	0.177579	-0.045122	-0.000026
H136	H	0.677579	0.454878	0.499974
H137	H	0.046123	-0.048661	-0.000037
H138	H	0.546123	0.451339	0.499963
H139	H	0.925919	-0.467265	-0.050707
H140	H	1.425919	0.032735	0.449293
H141	H	0.805271	-0.437135	0.124992
H142	H	1.305271	0.062865	0.624992
H143	H	0.929099	-0.247899	0.051228
H144	H	1.429099	0.252101	0.551228
H145	H	0.726290	-0.416359	-0.074796
H146	H	1.226290	0.083641	0.425204
H147	H	0.493091	-0.036665	-0.000015
H148	H	0.993091	0.463335	0.499985
H149	H	0.812993	-0.220172	0.124631
H150	H	1.312993	0.279828	0.624631
H151	H	0.149577	0.374639	0.000002
H152	H	0.649577	0.874639	0.500002
H153	H	0.596541	0.386630	-0.000006
H154	H	1.096541	0.886630	0.499994
H155	H	0.805853	0.378824	0.571455
H156	H	1.305853	0.878824	1.071455
H157	H	0.805826	0.378821	0.428503
H158	H	1.305826	0.878821	0.928503
H159	H	0.906280	0.011991	0.814497
H160	H	1.406280	0.511991	1.314497
H161	H	0.624544	-0.033136	-0.000017
H162	H	1.124544	0.466864	0.499983
H163	H	0.736427	0.325993	0.671571
H164	H	1.236427	0.825993	1.171571
H165	H	0.729631	-0.197852	0.076063
H166	H	1.229631	0.302148	0.576063
H167	H	0.244896	0.328030	-0.079583
H168	H	0.744896	0.828030	0.420417
H169	H	0.736399	0.325975	0.328444
H170	H	1.236399	0.825975	0.828444
H171	H	0.929291	-0.248833	-0.051349
H172	H	1.429291	0.251167	0.448651
H173	H	0.926074	-0.465726	0.051537
H174	H	1.426074	0.034274	0.551537
H175	H	0.736378	0.325969	0.185481
H176	H	1.236378	0.825969	0.685481
H177	H	0.809307	-0.435429	-0.124996
H178	H	1.309307	0.064571	0.375004
H179	H	0.724477	-0.415294	0.071287
H180	H	1.224477	0.084706	0.571287
H181	H	0.906248	0.011985	0.328408
H182	H	1.406248	0.511985	0.828408
H183	H	0.397764	0.009957	0.079577
H184	H	0.897764	0.509957	0.579577
H185	H	0.836835	-0.040838	0.428518
H186	H	1.336835	0.459162	0.928518
H187	H	0.736436	0.325993	0.814532
H188	H	1.236436	0.825993	1.314532
