data_functionalizedCrystal
_audit_creation_method	'MofGen! by Chris Wilmer'
_symmetry_space_group_name_H-M	'P1'
_symmetry_Int_Tables_number	1
_symmetry_cell_setting	triclinic
loop_
_symmetry_equiv_pos_as_xyz
  x,y,z
_cell_length_a	25.639242
_cell_length_b	25.639240
_cell_length_c	18.101390
_cell_angle_alpha	90.042126
_cell_angle_beta	90.020307
_cell_angle_gamma	90.025061
loop_
_atom_site_label
_atom_site_type_symbol
_atom_site_fract_x
_atom_site_fract_y
_atom_site_fract_z
Zn1	Zn	0.799277	-0.208238	0.418705
Zn2	Zn	1.132611	0.125095	0.752038
Zn3	Zn	1.465944	0.458428	1.085372
Zn4	Zn	0.799201	-0.295682	0.294843
Zn5	Zn	1.132534	0.037652	0.628177
Zn6	Zn	1.465867	0.370985	0.961510
Zn7	Zn	0.711845	-0.208250	0.294875
Zn8	Zn	1.045178	0.125083	0.628209
Zn9	Zn	1.378511	0.458416	0.961542
Zn10	Zn	0.711808	-0.295633	0.418641
Zn11	Zn	1.045141	0.037701	0.751975
Zn12	Zn	1.378474	0.371034	1.085308
O13	O	0.755533	-0.251951	0.356766
O14	O	1.088866	0.081383	0.690100
O15	O	1.422199	0.414716	1.023433
O16	O	0.872432	-0.219853	0.402287
O17	O	1.205766	0.113480	0.735621
O18	O	1.539099	0.446813	1.068954
O19	O	0.787596	-0.284109	0.191215
O20	O	1.120929	0.049224	0.524548
O21	O	1.454263	0.382557	0.857881
O22	O	0.723490	-0.135084	0.311342
O23	O	1.056823	0.198250	0.644675
O24	O	1.390157	0.531583	0.978008
O25	O	0.872376	-0.284098	0.311287
O26	O	1.205709	0.049236	0.644620
O27	O	1.539043	0.382569	0.977954
O28	O	0.787727	-0.135075	0.402319
O29	O	1.121060	0.198259	0.735652
O30	O	1.454393	0.531592	1.068985
O31	O	0.723416	-0.219874	0.191238
O32	O	1.056749	0.113459	0.524572
O33	O	1.390083	0.446793	0.857905
O34	O	0.638674	-0.219826	0.311280
O35	O	0.972008	0.113507	0.644613
O36	O	1.305341	0.446840	0.977947
O37	O	0.723427	-0.284014	0.522283
O38	O	1.056761	0.049319	0.855616
O39	O	1.390094	0.382653	1.188949
O40	O	0.638647	-0.284026	0.402210
O41	O	0.971981	0.049308	0.735544
O42	O	1.305314	0.382641	1.068877
O43	O	0.787691	-0.219806	0.522329
O44	O	1.121024	0.113528	0.855663
O45	O	1.454358	0.446861	1.188996
O46	O	0.787560	-0.368840	0.311226
O47	O	1.120894	-0.035507	0.644559
O48	O	1.454227	0.297826	0.977892
O49	O	0.723353	-0.368804	0.402179
O50	O	1.056687	-0.035471	0.735513
O51	O	1.390020	0.297862	1.068846
C52	C	0.619690	-0.251922	0.356742
C53	C	0.953023	0.081411	0.690076
C54	C	1.286357	0.414744	1.023409
C55	C	0.561576	-0.251923	0.356750
C56	C	0.894909	0.081410	0.690083
C57	C	1.228243	0.414744	1.023416
C58	C	0.310420	-0.218558	0.404237
C59	C	0.643753	0.114775	0.737570
C60	C	0.977087	0.448109	1.070903
C61	C	0.365024	-0.218553	0.404232
C62	C	0.698358	0.114780	0.737566
C63	C	1.031691	0.448114	1.070899
O64	O	0.393293	-0.190162	0.444602
O65	O	0.726626	0.143171	0.777936
O66	O	1.059959	0.476505	1.111269
N67	N	0.392302	-0.251945	0.356775
N68	N	0.725635	0.081389	0.690108
N69	N	1.058969	0.414722	1.023441
C70	C	0.364973	-0.285348	0.309324
C71	C	0.698306	0.047986	0.642657
C72	C	1.031640	0.381319	0.975990
O73	O	0.393189	-0.313750	0.268957
O74	O	0.726522	0.019584	0.602291
O75	O	1.059855	0.352917	0.935624
C76	C	0.310370	-0.285355	0.309332
C77	C	0.643703	0.047978	0.642665
C78	C	0.977036	0.381312	0.975999
C79	C	0.283094	-0.251957	0.356788
C80	C	0.616428	0.081376	0.690121
C81	C	0.949761	0.414709	1.023454
C82	C	0.283145	-0.185164	0.451689
C83	C	0.616478	0.148170	0.785022
C84	C	0.949811	0.481503	1.118356
C85	C	0.228544	-0.185168	0.451692
C86	C	0.561878	0.148165	0.785025
C87	C	0.895211	0.481499	1.118359
C88	C	0.201219	-0.218567	0.404243
C89	C	0.534552	0.114766	0.737576
C90	C	0.867885	0.448099	1.070909
C91	C	0.228494	-0.251962	0.356791
C92	C	0.561827	0.081371	0.690124
C93	C	0.895161	0.414705	1.023457
C94	C	0.283041	-0.318760	0.261885
C95	C	0.616375	0.014573	0.595218
C96	C	0.949708	0.347907	0.928552
C97	C	0.228434	-0.318765	0.261898
C98	C	0.561768	0.014569	0.595231
C99	C	0.895101	0.347902	0.928565
C100	C	0.201159	-0.285367	0.309354
C101	C	0.534493	0.047966	0.642687
C102	C	0.867826	0.381300	0.976020
C103	C	0.146568	-0.285366	0.309344
C104	C	0.479901	0.047968	0.642678
C105	C	0.813235	0.381301	0.976011
N106	N	0.119290	-0.251974	0.356802
N107	N	0.452623	0.081360	0.690135
N108	N	0.785957	0.414693	1.023469
C109	C	0.146615	-0.218575	0.404251
C110	C	0.479949	0.114759	0.737585
C111	C	0.813282	0.448092	1.070918
C112	C	0.479643	-0.285330	0.309310
C113	C	0.812977	0.048003	0.642644
C114	C	1.146310	0.381337	0.975977
C115	C	0.534246	-0.285320	0.309297
C116	C	0.867579	0.048013	0.642631
C117	C	1.200912	0.381346	0.975964
C118	C	0.534293	-0.218526	0.404208
C119	C	0.867627	0.114807	0.737541
C120	C	1.200960	0.448140	1.070874
C121	C	0.479690	-0.218534	0.404216
C122	C	0.813023	0.114800	0.737549
C123	C	1.146357	0.448133	1.070883
C124	C	0.452366	-0.251938	0.356768
C125	C	0.785699	0.081395	0.690101
C126	C	1.119032	0.414728	1.023435
C127	C	0.031950	-0.218587	0.404254
C128	C	0.365284	0.114747	0.737587
C129	C	0.698617	0.448080	1.070920
C130	C	-0.022655	-0.218593	0.404250
C131	C	0.310678	0.114741	0.737584
C132	C	0.644012	0.448074	1.070917
C133	C	-0.022698	-0.285388	0.309343
C134	C	0.310636	0.047945	0.642677
C135	C	0.643969	0.381278	0.976010
C136	C	0.031903	-0.285381	0.309344
C137	C	0.365236	0.047953	0.642677
C138	C	0.698569	0.381286	0.976010
C139	C	0.059226	-0.251978	0.356805
C140	C	0.392559	0.081355	0.690138
C141	C	0.725892	0.414689	1.023471
O142	O	0.118265	-0.313743	0.268997
O143	O	0.451598	0.019590	0.602331
O144	O	0.784932	0.352923	0.935664
O145	O	0.118393	-0.190182	0.444618
O146	O	0.451726	0.143151	0.777951
O147	O	0.785060	0.476485	1.111284
C148	C	0.755459	-0.387793	0.356708
C149	C	1.088792	-0.054460	0.690042
C150	C	1.422125	0.278873	1.023375
C151	C	0.755475	-0.445907	0.356708
C152	C	1.088808	-0.112574	0.690042
C153	C	1.422142	0.220759	1.023375
C154	C	0.788997	-0.806227	0.404223
C155	C	1.122330	-0.472894	0.737557
C156	C	1.455664	-0.139561	1.070890
C157	C	0.789013	-0.860832	0.404238
C158	C	1.122346	-0.527498	0.737572
C159	C	1.455679	-0.194165	1.070905
O160	O	0.817426	-0.889032	0.444578
O161	O	1.150760	-0.555698	0.777911
O162	O	1.484093	-0.222365	1.111245
N163	N	0.755605	-0.888190	0.356838
N164	N	1.088938	-0.554856	0.690171
N165	N	1.422272	-0.221523	1.023505
C166	C	0.722176	-0.860941	0.309424
C167	C	1.055510	-0.527608	0.642758
C168	C	1.388843	-0.194274	0.976091
O169	O	0.693762	-0.889225	0.269108
O170	O	1.027095	-0.555892	0.602442
O171	O	1.360428	-0.222558	0.935775
C172	C	0.722159	-0.806338	0.309414
C173	C	1.055492	-0.473004	0.642747
C174	C	1.388825	-0.139671	0.976080
C175	C	0.755572	-0.778982	0.356812
C176	C	1.088905	-0.445649	0.690145
C177	C	1.422239	-0.112315	1.023479
C178	C	0.822407	-0.778872	0.451619
C179	C	1.155741	-0.445538	0.784952
C180	C	1.489074	-0.112205	1.118285
C181	C	0.822392	-0.724271	0.451602
C182	C	1.155726	-0.390938	0.784936
C183	C	1.489059	-0.057605	1.118269
C184	C	0.788967	-0.697026	0.404191
C185	C	1.122301	-0.363693	0.737524
C186	C	1.455634	-0.030360	1.070858
C187	C	0.755557	-0.724382	0.356796
C188	C	1.088891	-0.391048	0.690129
C189	C	1.422224	-0.057715	1.023463
C190	C	0.688728	-0.779090	0.262004
C191	C	1.022061	-0.445756	0.595338
C192	C	1.355394	-0.112423	0.928671
C193	C	0.688713	-0.724483	0.261998
C194	C	1.022046	-0.391149	0.595332
C195	C	1.355379	-0.057816	0.928665
C196	C	0.722126	-0.697127	0.309397
C197	C	1.055459	-0.363794	0.642730
C198	C	1.388793	-0.030461	0.976063
C199	C	0.722117	-0.642536	0.309368
C200	C	1.055451	-0.309203	0.642702
C201	C	1.388784	0.024131	0.976035
N202	N	0.755525	-0.615178	0.356769
N203	N	1.088858	-0.281844	0.690102
N204	N	1.422191	0.051489	1.023436
C205	C	0.788950	-0.642423	0.404180
C206	C	1.122283	-0.309090	0.737514
C207	C	1.455616	0.024244	1.070847
C208	C	0.722215	-0.975611	0.309452
C209	C	1.055549	-0.642278	0.642785
C210	C	1.388882	-0.308945	0.976118
C211	C	0.722235	-1.030214	0.309458
C212	C	1.055569	-0.696880	0.642791
C213	C	1.388902	-0.363547	0.976125
C214	C	0.789071	-1.030101	0.404273
C215	C	1.122404	-0.696767	0.737607
C216	C	1.455738	-0.363434	1.070940
C217	C	0.789053	-0.975497	0.404263
C218	C	1.122387	-0.642164	0.737596
C219	C	1.455720	-0.308831	1.070929
C220	C	0.755623	-0.948253	0.356852
C221	C	1.088956	-0.614920	0.690185
C222	C	1.422289	-0.281587	1.023519
C223	C	0.788916	-0.527758	0.404142
C224	C	1.122250	-0.194424	0.737475
C225	C	1.455583	0.138909	1.070809
C226	C	0.788900	-0.473152	0.404120
C227	C	1.122233	-0.139819	0.737453
C228	C	1.455567	0.193514	1.070786
C229	C	0.722063	-0.473270	0.309307
C230	C	1.055396	-0.139937	0.642641
C231	C	1.388729	0.193396	0.975974
C232	C	0.722081	-0.527871	0.309327
C233	C	1.055414	-0.194538	0.642660
C234	C	1.388747	0.138796	0.975994
C235	C	0.755509	-0.555113	0.356750
C236	C	1.088843	-0.221780	0.690084
C237	C	1.422176	0.111553	1.023417
O238	O	0.693716	-0.614301	0.269052
O239	O	1.027050	-0.280968	0.602385
O240	O	1.360383	0.052365	0.935718
O241	O	0.817355	-0.614132	0.444496
O242	O	1.150688	-0.280799	0.777830
O243	O	1.484021	0.052535	1.111163
C244	C	0.891906	-0.251979	0.356791
C245	C	1.225239	0.081354	0.690124
C246	C	1.558572	0.414687	1.023457
C247	C	0.950020	-0.251992	0.356801
C248	C	1.283353	0.081342	0.690135
C249	C	1.616686	0.414675	1.023468
C250	C	0.755564	-0.251903	0.549928
C251	C	1.088897	0.081430	0.883262
C252	C	1.422230	0.414764	1.216595
C253	C	0.755577	-0.251883	0.632242
C254	C	1.088910	0.081451	0.965576
C255	C	1.422244	0.414784	1.298909
C256	C	0.755621	-0.115578	0.356841
C257	C	1.088954	0.217756	0.690174
C258	C	1.422288	0.551089	1.023507
C259	C	0.755659	-0.057464	0.356872
C260	C	1.088992	0.275870	0.690206
C261	C	1.422325	0.609203	1.023539
C262	C	0.755532	-0.251961	0.164356
C263	C	1.088865	0.081373	0.497689
C264	C	1.422198	0.414706	0.831022
C265	C	0.755620	-0.251834	0.082042
C266	C	1.088953	0.081500	0.415375
C267	C	1.422286	0.414833	0.748709
C268	C	0.755605	-0.251850	0.931334
C269	C	1.088938	0.081483	1.264667
C270	C	1.422272	0.414817	1.598000
C271	C	0.796171	-0.211594	0.900038
C272	C	1.129504	0.121739	1.233371
C273	C	1.462838	0.455073	1.566704
C274	C	0.796045	-0.211445	0.814419
C275	C	1.129378	0.121889	1.147753
C276	C	1.462711	0.455222	1.481086
C277	C	0.755592	-0.251866	0.782951
C278	C	1.088925	0.081467	1.116284
C279	C	1.422258	0.414800	1.449618
C280	C	0.700512	-0.236889	0.814027
C281	C	1.033845	0.096444	1.147360
C282	C	1.367179	0.429777	1.480694
C283	C	0.700755	-0.236587	0.899672
C284	C	1.034088	0.096746	1.233006
C285	C	1.367421	0.430079	1.566339
C286	C	0.769634	-0.307186	0.899733
C287	C	1.102967	0.026147	1.233067
C288	C	1.436300	0.359480	1.566400
C289	C	0.770843	-0.306904	0.814083
C290	C	1.104176	0.026429	1.147417
C291	C	1.437509	0.359762	1.480750
C292	C	0.755581	-0.251876	0.699091
C293	C	1.088914	0.081457	1.032425
C294	C	1.422247	0.414790	1.365758
C295	C	0.755612	-0.251839	1.015193
C296	C	1.088946	0.081495	1.348526
C297	C	1.422279	0.414828	1.681860
H298	H	0.206190	-0.345969	0.223261
H299	H	0.539523	-0.012636	0.556594
H300	H	0.872856	0.320698	0.889928
F301	F	0.684685	-0.184603	0.786024
F302	F	1.018018	0.148731	1.119357
F303	F	1.351351	0.482064	1.452691
H304	H	0.849599	-0.702002	0.490200
H305	H	1.182932	-0.368668	0.823534
H306	H	1.516266	-0.035335	1.156867
H307	H	0.305239	-0.345956	0.223242
H308	H	0.638573	-0.012623	0.556575
H309	H	0.971906	0.320711	0.889908
H310	H	0.816261	-0.953228	0.442859
H311	H	1.149594	-0.619894	0.776192
H312	H	1.482928	-0.286561	1.109525
H313	H	0.740090	-0.337182	0.919976
H314	H	1.073423	-0.003848	1.253310
H315	H	1.406757	0.329485	1.586643
F316	F	0.060932	-0.320927	0.258839
F317	F	0.394265	0.012406	0.592172
F318	F	0.727599	0.345739	0.925505
F319	F	0.784190	-0.158310	0.928200
F320	F	1.117523	0.175023	1.261533
F321	F	1.450856	0.508357	1.594867
F322	F	0.824466	-0.444042	0.454568
F323	F	1.157799	-0.110709	0.787902
F324	F	1.491132	0.222625	1.121235
H325	H	0.457486	-0.191338	0.442858
H326	H	0.790820	0.141995	0.776191
H327	H	1.124153	0.475329	1.109524
F328	F	-0.051789	-0.320931	0.258845
F329	F	0.281544	0.012402	0.592179
F330	F	0.614878	0.345736	0.925512
H331	H	0.694850	-0.451079	0.270703
H332	H	1.028183	-0.117745	0.604037
H333	H	1.361517	0.215588	0.937370
H334	H	0.786759	-0.170450	0.793956
H335	H	1.120092	0.162883	1.127289
H336	H	1.453426	0.496216	1.460623
H337	H	0.836887	-0.220825	0.793410
H338	H	1.170221	0.112509	1.126743
H339	H	1.503554	0.445842	1.460077
H340	H	0.816287	-1.052294	0.442880
H341	H	1.149620	-0.718960	0.776213
H342	H	1.482953	-0.385627	1.109546
H343	H	0.695032	-1.052482	0.270853
H344	H	1.028366	-0.719149	0.604187
H345	H	1.361699	-0.385815	0.937520
F346	F	0.824495	-0.556744	0.454614
F347	F	1.157829	-0.223410	0.787948
F348	F	1.491162	0.109923	1.121281
F349	F	0.821231	-0.324991	0.927970
F350	F	1.154564	0.008342	1.261303
F351	F	1.487897	0.341676	1.594637
H352	H	0.694994	-0.953432	0.270838
H353	H	1.028327	-0.620099	0.604172
H354	H	1.361660	-0.286765	0.937505
F355	F	0.735029	-0.348217	0.786086
F356	F	1.068362	-0.014883	1.119419
F357	F	1.401696	0.318450	1.452753
F358	F	0.857984	-0.807860	0.502088
F359	F	1.191317	-0.474527	0.835421
F360	F	1.524651	-0.141193	1.168754
H361	H	0.811376	-0.318198	0.793772
H362	H	1.144709	0.015135	1.127105
H363	H	1.478043	0.348469	1.460438
F364	F	0.685191	-0.183722	0.925816
F365	F	1.018524	0.149612	1.259149
F366	F	1.351857	0.482945	1.592483
F367	F	0.659901	-0.273237	0.926732
F368	F	0.993234	0.060096	1.260065
F369	F	1.326567	0.393429	1.593399
F370	F	0.653163	-0.808192	0.211558
F371	F	0.986496	-0.474858	0.544891
F372	F	1.319829	-0.141525	0.878224
F373	F	0.563385	-0.182980	0.454708
F374	F	0.896718	0.150354	0.788041
F375	F	1.230051	0.483687	1.121374
H376	H	0.837147	-0.220858	0.920638
H377	H	1.170481	0.112475	1.253972
H378	H	1.503814	0.445808	1.587305
H379	H	0.694877	-0.550145	0.270725
H380	H	1.028210	-0.216811	0.604059
H381	H	1.361544	0.116522	0.937392
H382	H	0.661488	-0.702303	0.223392
H383	H	0.994821	-0.368970	0.556725
H384	H	1.328154	-0.035636	0.890058
F385	F	0.659933	-0.274035	0.787389
F386	F	0.993266	0.059298	1.120722
F387	F	1.326600	0.392632	1.454055
H388	H	0.054190	-0.191387	0.442901
H389	H	0.387523	0.141947	0.776234
H390	H	0.720857	0.475280	1.109567
F391	F	-0.051680	-0.183044	0.454760
F392	F	0.281653	0.150289	0.788093
F393	F	0.614987	0.483623	1.121427
H394	H	0.206342	-0.157975	0.490338
H395	H	0.539675	0.175359	0.823672
H396	H	0.873008	0.508692	1.157005
H397	H	0.305387	-0.157966	0.490331
H398	H	0.638721	0.175368	0.823665
H399	H	0.972054	0.508701	1.156998
F400	F	0.563268	-0.320858	0.258777
F401	F	0.896601	0.012475	0.592110
F402	F	1.229935	0.345809	0.925443
H403	H	0.457399	-0.312531	0.270666
H404	H	0.790733	0.020802	0.603999
H405	H	1.124066	0.354136	0.937333
