data_functionalizedCrystal
_audit_creation_method	'MofGen! by Chris Wilmer'
_symmetry_space_group_name_H-M	'P1'
_symmetry_Int_Tables_number	1
_symmetry_cell_setting	triclinic
loop_
_symmetry_equiv_pos_as_xyz
  x,y,z
_cell_length_a	21.295417
_cell_length_b	21.295418
_cell_length_c	12.594509
_cell_angle_alpha	90.040208
_cell_angle_beta	90.035198
_cell_angle_gamma	90.045515
loop_
_atom_site_label
_atom_site_type_symbol
_atom_site_fract_x
_atom_site_fract_y
_atom_site_fract_z
Zn1	Zn	-0.250324	0.962337	0.602345
Zn2	Zn	-0.355603	0.962248	0.424345
Zn3	Zn	-0.250381	0.857067	0.424315
Zn4	Zn	-0.355589	0.857031	0.602216
O5	O	-0.302974	0.909671	0.513305
O6	O	-0.264272	1.050415	0.578799
O7	O	-0.341675	0.948273	0.275395
O8	O	-0.162284	0.871084	0.447973
O9	O	-0.341620	1.050349	0.448023
O10	O	-0.162243	0.948426	0.578770
O11	O	-0.264368	0.870997	0.275373
O12	O	-0.264354	0.768973	0.447848
O13	O	-0.341596	0.871023	0.751179
O14	O	-0.341650	0.768947	0.578551
O15	O	-0.264258	0.948391	0.751274
O16	O	-0.443691	0.948238	0.447898
O17	O	-0.443680	0.870936	0.578580
C18	C	-0.466526	0.909591	0.513251
C19	C	-0.536494	0.909614	0.513264
C20	C	-0.303007	0.746119	0.513183
C21	C	-0.303037	0.676151	0.513156
C22	C	-0.569282	0.949863	0.581419
C23	C	-0.635024	0.949885	0.581445
C24	C	-0.667977	0.909665	0.513297
C25	C	-0.635181	0.869408	0.445138
C26	C	-0.569439	0.869383	0.445121
N27	N	-0.771244	0.904909	0.420144
N28	N	-0.833696	0.904937	0.420163
C29	C	-0.866051	0.909739	0.513346
N30	N	-0.833596	0.914524	0.606510
N31	N	-0.771139	0.914499	0.606490
C32	C	-0.739262	0.909688	0.513309
C33	C	-0.970125	0.950014	0.581535
C34	C	-1.035868	0.950031	0.581563
C35	C	-1.036023	0.869558	0.445246
C36	C	-0.970281	0.869537	0.445227
C37	C	-0.937335	0.909768	0.513370
C38	C	-0.343338	0.643287	0.581111
C39	C	-0.343323	0.577545	0.581159
C40	C	-0.303012	0.544669	0.513232
C41	C	-0.262703	0.577540	0.445272
C42	C	-0.262715	0.643282	0.445234
N43	N	-0.298099	0.441396	0.420138
N44	N	-0.298091	0.378945	0.420177
C45	C	-0.302972	0.346594	0.513345
N46	N	-0.307873	0.379054	0.606474
N47	N	-0.307885	0.441511	0.606433
C48	C	-0.302994	0.473383	0.513267
C49	C	-0.343259	0.242445	0.581358
C50	C	-0.343239	0.176701	0.581408
C51	C	-0.262623	0.176698	0.445511
C52	C	-0.262639	0.242440	0.445471
C53	C	-0.302961	0.275310	0.513393
C54	C	-0.138784	0.909769	0.513383
C55	C	-0.068816	0.909810	0.513416
C56	C	-0.302919	0.909713	0.790926
C57	C	-0.302896	0.909731	0.909232
C58	C	-0.302942	1.073861	0.513429
C59	C	-0.302928	1.143829	0.513482
C60	C	-0.302984	0.909665	0.236764
C61	C	-0.302830	0.909769	0.118459
C62	C	-0.344936	0.867664	0.978434
C63	C	-0.360300	0.925099	1.049253
C64	C	-0.287493	0.852341	1.049212
C65	C	-0.318291	0.967196	0.978493
C66	C	-0.245457	0.894399	0.978446
C67	C	-0.260799	0.951874	1.049233
H68	H	-0.542460	0.982620	0.636908
O69	O	-0.386818	0.542100	0.654430
H70	H	-0.376109	0.554778	0.738003
H71	H	-0.380542	0.832117	0.947349
H72	H	-0.376056	0.149944	0.636752
H73	H	-0.408847	0.938088	1.080355
H74	H	-1.062852	0.836806	0.389765
H75	H	-0.661726	0.982655	0.636958
H76	H	-0.376170	0.670046	0.636420
H77	H	-1.062563	0.982807	0.637068
H78	H	-0.376088	0.269209	0.636669
H79	H	-0.229881	0.550768	0.389968
O80	O	-0.534076	0.825973	0.371594
H81	H	-0.504141	0.793916	0.419151
H82	H	-0.662014	0.836660	0.389654
H83	H	-0.229895	0.670039	0.389896
H84	H	-0.331346	1.015761	0.947558
H85	H	-0.943299	0.982770	0.637025
O86	O	-0.934915	0.826128	0.371706
H87	H	-0.883666	0.832864	0.383148
H88	H	-0.196924	0.881393	0.947320
O89	O	-0.270267	0.788032	1.090362
H90	H	-0.222948	0.774997	1.060786
H91	H	-0.225220	0.987506	1.080122
H92	H	-0.229825	0.269198	0.390129
O93	O	-0.219149	0.141249	0.372235
H94	H	-0.225914	0.090013	0.383669
