data_functionalizedCrystal
_audit_creation_method	'MofGen! by Chris Wilmer'
_symmetry_space_group_name_H-M	'P1'
_symmetry_Int_Tables_number	1
_symmetry_cell_setting	triclinic
loop_
_symmetry_equiv_pos_as_xyz
  x,y,z
_cell_length_a	10.686220
_cell_length_b	13.897448
_cell_length_c	10.686551
_cell_angle_alpha	94.407384
_cell_angle_beta	89.691918
_cell_angle_gamma	94.399460
loop_
_atom_site_label
_atom_site_type_symbol
_atom_site_fract_x
_atom_site_fract_y
_atom_site_fract_z
Zn1	Zn	1.972272	-0.235165	0.562377
Zn2	Zn	2.305606	0.098169	0.895710
Zn3	Zn	2.638939	0.431502	1.229044
Zn4	Zn	1.956032	-0.409754	0.352612
Zn5	Zn	2.289365	-0.076420	0.685945
Zn6	Zn	2.622698	0.256913	1.019278
Zn7	Zn	1.746389	-0.259840	0.368693
Zn8	Zn	2.079722	0.073493	0.702027
Zn9	Zn	2.413056	0.406827	1.035360
Zn10	Zn	1.762462	-0.407799	0.578389
Zn11	Zn	2.095795	-0.074466	0.911723
Zn12	Zn	2.429128	0.258868	1.245056
O13	O	1.859289	-0.328139	0.465518
O14	O	2.192622	0.005194	0.798851
O15	O	2.525955	0.338527	1.132184
O16	O	2.145660	-0.248816	0.521120
O17	O	2.478994	0.084518	0.854453
O18	O	2.812327	0.417851	1.187786
O19	O	1.914699	-0.401012	0.179199
O20	O	2.248032	-0.067679	0.512532
O21	O	2.581365	0.265655	0.845866
O22	O	1.776423	-0.121579	0.394415
O23	O	2.109757	0.211754	0.727748
O24	O	2.443090	0.545087	1.061082
O25	O	2.133728	-0.377086	0.367006
O26	O	2.467062	-0.043752	0.700339
O27	O	2.800395	0.289581	1.033672
O28	O	1.942379	-0.103450	0.536713
O29	O	2.275712	0.229883	0.870047
O30	O	2.609045	0.563216	1.203380
O31	O	1.760675	-0.290871	0.191014
O32	O	2.094009	0.042462	0.524348
O33	O	2.427342	0.375796	0.857681
O34	O	1.572979	-0.288976	0.409942
O35	O	1.906312	0.044358	0.743275
O36	O	2.239645	0.377691	1.076608
O37	O	1.803817	-0.373754	0.751811
O38	O	2.137150	-0.040421	1.085144
O39	O	2.470484	0.292913	1.418478
O40	O	1.584787	-0.397681	0.564004
O41	O	1.918121	-0.064347	0.897338
O42	O	2.251454	0.268986	1.230671
O43	O	1.957964	-0.246920	0.740047
O44	O	2.291297	0.086413	1.073380
O45	O	2.624630	0.419746	1.406714
O46	O	1.930284	-0.544482	0.382532
O47	O	2.263617	-0.211149	0.715866
O48	O	2.596951	0.122185	1.049199
O49	O	1.788069	-0.543046	0.548410
O50	O	2.121402	-0.209712	0.881744
O51	O	2.454736	0.123621	1.215077
C52	C	1.533367	-0.345794	0.490456
C53	C	1.866700	-0.012461	0.823790
C54	C	2.200033	0.320872	1.157123
C55	C	1.393938	-0.353368	0.501155
C56	C	1.727272	-0.020035	0.834488
C57	C	2.060605	0.313298	1.167822
C58	C	1.859194	-0.578761	0.465489
C59	C	2.192528	-0.245428	0.798822
C60	C	2.525861	0.087906	1.132155
C61	C	1.859272	-0.685969	0.465509
C62	C	2.192605	-0.352636	0.798842
C63	C	2.525939	-0.019302	1.132176
C64	C	1.859410	-0.882252	0.465578
C65	C	2.192743	-0.548919	0.798911
C66	C	2.526076	-0.215585	1.132244
C67	C	1.859330	-0.773026	0.465544
C68	C	2.192663	-0.439693	0.798877
C69	C	2.525997	-0.106360	1.132210
C70	C	2.186483	-0.310416	0.440483
C71	C	2.519817	0.022917	0.773816
C72	C	2.853150	0.356250	1.107149
C73	C	2.325914	-0.302864	0.429814
C74	C	2.659247	0.030470	0.763147
C75	C	2.992581	0.363803	1.096481
C76	C	1.884495	-0.307367	0.792719
C77	C	2.217828	0.025967	1.126052
C78	C	2.551161	0.359300	1.459385
C79	C	1.895236	-0.298514	0.932152
C80	C	2.228569	0.034819	1.265486
C81	C	2.561903	0.368152	1.598819
C82	C	1.859420	-0.076535	0.465572
C83	C	2.192753	0.256798	0.798905
C84	C	2.526086	0.590131	1.132239
C85	C	1.859475	0.030683	0.465595
C86	C	2.192809	0.364016	0.798928
C87	C	2.526142	0.697350	1.132262
C88	C	1.834253	-0.348758	0.139584
C89	C	2.167586	-0.015424	0.472917
C90	C	2.500919	0.317909	0.806251
C91	C	1.823755	-0.357325	0.000133
C92	C	2.157088	-0.023992	0.333466
C93	C	2.490421	0.309342	0.666799
H94	H	1.374343	-0.253831	0.360550
H95	H	1.707676	0.079502	0.693884
H96	H	2.041009	0.412836	1.027217
H97	H	1.345503	-0.402411	0.570415
H98	H	1.678836	-0.069078	0.903748
H99	H	2.012170	0.264256	1.237082
Br100	Br	1.708060	-0.452543	0.919351
Br101	Br	2.041394	-0.119210	1.252684
Br102	Br	2.374727	0.214123	1.586017
Br103	Br	2.010957	-0.203307	1.012937
Br104	Br	2.344290	0.130026	1.346270
Br105	Br	2.677623	0.463360	1.679603
