data_functionalizedCrystal
_audit_creation_method	'MofGen! by Chris Wilmer'
_symmetry_space_group_name_H-M	'P1'
_symmetry_Int_Tables_number	1
_symmetry_cell_setting	triclinic
loop_
_symmetry_equiv_pos_as_xyz
  x,y,z
_cell_length_a	15.944551
_cell_length_b	17.699083
_cell_length_c	16.776229
_cell_angle_alpha	90.002452
_cell_angle_beta	89.994852
_cell_angle_gamma	96.609123
loop_
_atom_site_label
_atom_site_type_symbol
_atom_site_fract_x
_atom_site_fract_y
_atom_site_fract_z
O1	O	0.106207	-1.004258	0.066178
O2	O	0.120026	-0.783903	0.066204
O3	O	-0.009171	-0.900098	0.066183
O4	O	0.235404	-0.888063	0.066199
O5	O	-0.009148	-0.900087	-0.066393
O6	O	0.120049	-0.783892	-0.066372
O7	O	0.106229	-1.004247	-0.066398
Zn8	Zn	0.113143	-0.894068	-0.087435
Zn9	Zn	0.113113	-0.894082	0.087241
O10	O	0.235426	-0.888052	-0.066377
C11	C	0.119542	-0.755700	-0.000080
C12	C	0.118057	-0.671679	-0.000071
C13	C	-0.040453	-0.899593	-0.000105
C14	C	-0.133696	-0.898095	-0.000105
C15	C	0.106713	-1.032450	-0.000112
C16	C	0.108199	-1.116471	-0.000116
C17	C	-0.348393	-0.822492	-0.000085
C18	C	-0.409473	-0.857594	-0.065458
C19	C	-0.304416	-0.895385	-0.000099
C20	C	-0.409479	-0.857622	0.065252
C21	C	-0.469323	-0.892762	-0.000089
C22	C	-0.364268	-0.930507	-0.065525
C23	C	-0.364267	-0.930525	0.065244
C24	C	-0.425329	-0.965680	-0.000145
C25	C	-0.209417	-0.896894	-0.000105
C26	C	-0.564321	-0.891259	-0.000089
C27	C	0.266708	-0.888557	-0.000087
C28	C	0.359951	-0.890055	-0.000082
N29	N	0.113162	-0.894064	-0.206646
C30	C	0.193893	-0.623187	-0.000066
C31	C	0.192492	-0.544242	-0.000076
C32	C	0.115254	-0.513789	-0.000086
C33	C	0.039412	-0.562287	-0.000093
C34	C	0.040814	-0.641231	-0.000088
C35	C	0.033758	-0.243914	-0.000113
C36	C	0.032362	-0.164964	-0.000115
C37	C	0.185436	-0.146925	-0.000101
C38	C	0.186837	-0.225869	-0.000096
C39	C	0.110996	-0.274360	-0.000108
C40	C	0.112516	-0.359962	-0.000098
C41	C	0.113733	-0.428189	-0.000090
C42	C	0.062213	-0.848187	-0.751815
C43	C	0.062220	-0.848186	-0.668363
C44	C	0.113106	-0.894085	-0.626645
C45	C	0.163982	-0.939995	-0.668384
C46	C	0.163969	-0.940000	-0.751834
C47	C	0.164031	-0.939975	-0.331837
C48	C	0.164041	-0.939965	-0.248380
C49	C	0.062281	-0.848161	-0.248365
C50	C	0.062269	-0.848166	-0.331816
C51	C	0.113141	-0.894079	-0.373547
C52	C	0.113132	-0.894081	-0.464036
C53	C	0.113120	-0.894079	-0.536158
N54	N	0.113086	-0.894092	0.206452
H55	H	-0.314958	-0.761987	-0.000143
C56	C	-0.078390	-0.818428	-0.222651
C57	C	0.006353	-0.797696	-0.202493
H58	H	-0.112912	-0.787269	-0.194335
H59	H	-0.094065	-0.870202	-0.208966
H60	H	-0.085665	-0.811860	-0.278323
H61	H	0.013630	-0.804269	-0.146821
H62	H	0.022033	-0.745910	-0.216172
C63	C	0.057147	-0.746380	-0.425664
C64	C	0.006333	-0.797713	-0.377671
H65	H	0.022610	-0.715231	-0.453968
H66	H	0.087438	-0.773720	-0.462459
H67	H	0.095846	-0.715365	-0.393110
H68	H	-0.032363	-0.828731	-0.410226
H69	H	-0.023972	-0.770370	-0.340872
H70	H	0.256789	-0.647975	-0.000058
C71	C	0.343943	-0.534340	-0.000050
C72	C	0.275854	-0.490940	-0.000068
H73	H	0.395408	-0.501432	-0.000041
H74	H	0.341317	-0.565510	-0.046277
H75	H	0.341288	-0.565504	0.046188
H76	H	0.278506	-0.459780	-0.046309
H77	H	0.278482	-0.459757	0.046164
H78	H	0.205396	-0.977381	-0.785812
H79	H	-0.458615	-1.026238	-0.000189
C80	C	-0.359733	-0.933839	0.208237
C81	C	-0.337180	-0.972115	0.139844
H82	H	-0.343003	-0.959509	0.254295
H83	H	-0.419153	-0.932792	0.209038
H84	H	-0.332326	-0.883258	0.207765
H85	H	-0.364592	-1.022694	0.140313
H86	H	-0.277749	-0.973170	0.139043
H87	H	0.020780	-0.810807	-0.785776
H88	H	0.249732	-0.250659	-0.000085
C89	C	0.251270	-0.017897	-0.000112
C90	C	0.268805	-0.093621	-0.000100
H91	H	0.302738	0.015007	-0.000114
H92	H	0.219589	-0.008664	0.046112
H93	H	0.219603	-0.008678	-0.046353
H94	H	0.300467	-0.102842	0.046144
H95	H	0.300499	-0.102858	-0.046329
H96	H	-0.429500	-0.826786	0.120524
C97	C	-0.412584	-0.853423	-0.208473
C98	C	-0.436527	-0.815971	-0.140055
H99	H	-0.429280	-0.827721	-0.254523
H100	H	-0.439192	-0.904275	-0.208545
H101	H	-0.353038	-0.853662	-0.208756
H102	H	-0.496074	-0.815738	-0.139770
H103	H	-0.409921	-0.765106	-0.139984
H104	H	-0.344332	-0.961308	-0.120853
C105	C	-0.053488	-0.343146	0.068039
C106	C	-0.049607	-0.297207	-0.000114
H107	H	-0.104955	-0.376051	0.068036
H108	H	-0.050858	-0.311970	0.114261
H109	H	-0.007288	-0.372582	0.068033
H110	H	-0.095804	-0.267767	-0.000105
H111	H	-0.052246	-0.328387	-0.046348
C112	C	-0.118818	-0.190721	-0.000148
C113	C	-0.052545	-0.131489	-0.000134
H114	H	-0.171231	-0.170053	-0.000164
H115	H	-0.115105	-0.221134	0.046083
H116	H	-0.115070	-0.221140	-0.046382
H117	H	-0.056289	-0.101073	0.046104
H118	H	-0.056260	-0.101063	-0.046369
H119	H	-0.023476	-0.537486	-0.000112
H120	H	0.205481	-0.977344	-0.214416
C121	C	-0.110639	-0.651138	-0.000090
C122	C	-0.042547	-0.694536	-0.000086
H123	H	-0.162103	-0.684047	-0.000085
H124	H	-0.107996	-0.619977	-0.046321
H125	H	-0.108002	-0.619965	0.046144
H126	H	-0.045181	-0.725705	-0.046323
H127	H	-0.045192	-0.725710	0.046150
H128	H	0.020791	-0.810808	-0.634388
H129	H	0.205455	-0.977360	-0.365804
H130	H	0.205410	-0.977371	-0.634410
