data_functionalizedCrystal
_audit_creation_method	'MofGen! by Chris Wilmer'
_symmetry_space_group_name_H-M	'P1'
_symmetry_Int_Tables_number	1
_symmetry_cell_setting	triclinic
loop_
_symmetry_equiv_pos_as_xyz
  x,y,z
_cell_length_a	27.732064
_cell_length_b	26.809956
_cell_length_c	27.731996
_cell_angle_alpha	90.001656
_cell_angle_beta	82.635407
_cell_angle_gamma	90.001122
loop_
_atom_site_label
_atom_site_type_symbol
_atom_site_fract_x
_atom_site_fract_y
_atom_site_fract_z
O1	O	0.640915	0.041397	0.057550
O2	O	0.974248	0.374730	0.390883
O3	O	1.307582	0.708064	0.724216
O4	O	0.500121	0.041418	0.066287
O5	O	0.833454	0.374752	0.399620
O6	O	1.166788	0.708085	0.732954
O7	O	0.574904	0.041396	-0.008480
O8	O	0.908237	0.374730	0.324854
O9	O	1.241571	0.708063	0.658187
O10	O	0.566132	0.041419	0.132317
O11	O	0.899465	0.374752	0.465650
O12	O	1.232799	0.708086	0.798983
O13	O	0.574890	-0.041563	-0.008468
O14	O	0.908223	0.291770	0.324865
O15	O	1.241556	0.625104	0.658198
O16	O	0.500107	-0.041541	0.066299
O17	O	0.833440	0.291793	0.399632
O18	O	1.166774	0.625126	0.732965
O19	O	0.640901	-0.041562	0.057561
O20	O	0.974234	0.291771	0.390895
O21	O	1.307568	0.625104	0.724228
Zn22	Zn	0.570502	-0.054723	0.061932
Zn23	Zn	0.903835	0.278610	0.395265
Zn24	Zn	1.237168	0.611944	0.728598
Zn25	Zn	0.570520	0.054579	0.061917
Zn26	Zn	0.903854	0.387913	0.395250
Zn27	Zn	1.237187	0.721246	0.728583
O28	O	0.566118	-0.041540	0.132328
O29	O	0.899451	0.291793	0.465662
O30	O	1.232785	0.625127	0.798995
C31	C	0.482107	-0.000059	0.066108
C32	C	0.815441	0.333275	0.399442
C33	C	1.148774	0.666608	0.732775
C34	C	0.428453	-0.000051	0.065552
C35	C	0.761786	0.333282	0.398886
C36	C	1.095120	0.666616	0.732219
N37	N	0.570492	-0.129319	0.061942
N38	N	0.903826	0.204014	0.395275
N39	N	1.237159	0.537348	0.728608
C40	C	0.051389	-0.000087	0.017584
C41	C	0.384722	0.333246	0.350917
C42	C	0.718056	0.666580	0.684250
C43	C	0.253049	-0.000074	0.019630
C44	C	0.586382	0.333259	0.352963
C45	C	0.919716	0.666593	0.686297
O46	O	0.284309	-0.000099	-0.017592
O47	O	0.617642	0.333235	0.315741
O48	O	0.950975	0.666568	0.649075
N49	N	0.272168	-0.000064	0.063966
N50	N	0.605501	0.333269	0.397299
N51	N	0.938835	0.666602	0.730632
C52	C	0.240869	-0.000062	0.107793
C53	C	0.574202	0.333272	0.441126
C54	C	0.907536	0.666605	0.774459
O55	O	0.261758	-0.000058	0.145549
O56	O	0.595091	0.333275	0.478883
O57	O	0.928425	0.666608	0.812216
C58	C	0.039210	-0.000078	0.105746
C59	C	0.372543	0.333255	0.439079
C60	C	0.705877	0.666588	0.772412
C61	C	0.020094	-0.000083	0.061407
C62	C	0.353427	0.333251	0.394741
C63	C	0.686760	0.666584	0.728074
C64	C	0.032272	-0.000092	-0.026751
C65	C	0.365606	0.333241	0.306582
C66	C	0.698939	0.666575	0.639916
C67	C	-0.018140	-0.000093	-0.027262
C68	C	0.315194	0.333241	0.306071
C69	C	0.648527	0.666574	0.639405
C70	C	-0.049435	-0.000088	0.016562
C71	C	0.283898	0.333245	0.349895
C72	C	0.617232	0.666578	0.683228
C73	C	-0.030318	-0.000083	0.060896
C74	C	0.303015	0.333250	0.394230
C75	C	0.636348	0.666583	0.727563
C76	C	0.007912	-0.000079	0.149572
C77	C	0.341245	0.333254	0.482906
C78	C	0.674578	0.666587	0.816239
C79	C	-0.042506	-0.000085	0.149057
C80	C	0.290828	0.333249	0.482390
C81	C	0.624161	0.666582	0.815723
C82	C	-0.061622	-0.000089	0.104718
C83	C	0.271711	0.333244	0.438052
C84	C	0.605045	0.666578	0.771385
C85	C	-0.112026	-0.000080	0.104209
C86	C	0.221308	0.333254	0.437542
C87	C	0.554641	0.666587	0.770875
N88	N	-0.131145	-0.000089	0.059873
N89	N	0.202189	0.333244	0.393207
N90	N	0.535522	0.666578	0.726540
C91	C	-0.099849	-0.000093	0.016050
C92	C	0.233484	0.333240	0.349383
C93	C	0.566817	0.666573	0.682716
C94	C	0.346743	-0.000052	0.108864
C95	C	0.680076	0.333282	0.442197
C96	C	1.013410	0.666615	0.775531
C97	C	0.397158	-0.000047	0.109376
C98	C	0.730491	0.333287	0.442709
C99	C	1.063824	0.666620	0.776042
C100	C	0.409334	-0.000060	0.021213
C101	C	0.742668	0.333274	0.354547
C102	C	1.076001	0.666607	0.687880
C103	C	0.358919	-0.000061	0.020702
C104	C	0.692252	0.333272	0.354035
C105	C	1.025585	0.666605	0.687369
C106	C	0.327624	-0.000061	0.064529
C107	C	0.660957	0.333272	0.397862
C108	C	0.994291	0.666606	0.731195
C109	C	-0.205719	-0.000094	0.014980
C110	C	0.127615	0.333239	0.348313
C111	C	0.460948	0.666572	0.681646
C112	C	-0.256136	-0.000093	0.014473
C113	C	0.077198	0.333240	0.347806
C114	C	0.410531	0.666574	0.681139
C115	C	-0.268308	-0.000082	0.102635
C116	C	0.065025	0.333251	0.435968
C117	C	0.398359	0.666584	0.769302
C118	C	-0.217895	-0.000081	0.103142
C119	C	0.115438	0.333252	0.436476
C120	C	0.448771	0.666586	0.769809
C121	C	-0.186601	-0.000089	0.059311
C122	C	0.146732	0.333245	0.392644
C123	C	0.480065	0.666578	0.725978
O124	O	-0.143313	-0.000061	0.141411
O125	O	0.190020	0.333273	0.474744
O126	O	0.523353	0.666606	0.808078
O127	O	-0.120748	-0.000108	-0.021702
O128	O	0.212585	0.333226	0.311632
O129	O	0.545919	0.666559	0.644965
C130	C	0.101801	-0.000087	0.018095
C131	C	0.435134	0.333247	0.351428
C132	C	0.768468	0.666580	0.684762
C133	C	0.120918	-0.000082	0.062430
C134	C	0.454251	0.333252	0.395763
C135	C	0.787584	0.666585	0.729096
C136	C	0.089623	-0.000077	0.106253
C137	C	0.422956	0.333256	0.439587
C138	C	0.756289	0.666589	0.772920
C139	C	0.171332	-0.000077	0.062941
C140	C	0.504666	0.333257	0.396275
C141	C	0.837999	0.666590	0.729608
C142	C	0.202628	-0.000081	0.019118
C143	C	0.535961	0.333253	0.352451
C144	C	0.869294	0.666586	0.685785
C145	C	0.183508	-0.000090	-0.025218
C146	C	0.516842	0.333243	0.308116
C147	C	0.850175	0.666576	0.641449
C148	C	0.133096	-0.000091	-0.025729
C149	C	0.466430	0.333242	0.307605
C150	C	0.799763	0.666576	0.640938
C151	C	0.108742	-0.000068	0.150589
C152	C	0.442075	0.333265	0.483922
C153	C	0.775408	0.666599	0.817255
C154	C	0.159154	-0.000067	0.151096
C155	C	0.492488	0.333267	0.484429
C156	C	0.825821	0.666600	0.817763
C157	C	0.190450	-0.000071	0.107273
C158	C	0.523783	0.333262	0.440606
C159	C	0.857116	0.666596	0.773939
C160	C	0.603630	-0.473955	0.028818
C161	C	0.936963	-0.140622	0.362151
C162	C	1.270296	0.192712	0.695485
C163	C	0.603641	-0.682833	0.028811
C164	C	0.936975	-0.349499	0.362144
C165	C	1.270308	-0.016166	0.695477
O166	O	0.631796	-0.709845	0.000651
O167	O	0.965129	-0.376512	0.333984
O168	O	1.298463	-0.043178	0.667317
N169	N	0.570523	-0.708946	0.061906
N170	N	0.903856	-0.375613	0.395239
N171	N	1.237190	-0.042280	0.728573
C172	C	0.537397	-0.682837	0.095004
C173	C	0.870731	-0.349504	0.428337
C174	C	1.204064	-0.016170	0.761670
O175	O	0.509225	-0.709841	0.123150
O176	O	0.842558	-0.376508	0.456483
O177	O	1.175892	-0.043174	0.789816
C178	C	0.537384	-0.473960	0.095008
C179	C	0.870717	-0.140627	0.428342
C180	C	1.204050	0.192706	0.761675
C181	C	0.570508	-0.447850	0.061914
C182	C	0.903841	-0.114516	0.395247
C183	C	1.237174	0.218817	0.728581
C184	C	0.636751	-0.447844	-0.004274
C185	C	0.970084	-0.114511	0.329059
C186	C	1.303417	0.218823	0.662393
C187	C	0.636749	-0.395628	-0.004270
C188	C	0.970082	-0.062294	0.329063
C189	C	1.303416	0.271039	0.662397
C190	C	0.603627	-0.369522	0.028826
C191	C	0.936960	-0.036189	0.362159
C192	C	1.270294	0.297144	0.695493
C193	C	0.570506	-0.395633	0.061918
C194	C	0.903839	-0.062300	0.395251
C195	C	1.237173	0.271033	0.728585
C196	C	0.504256	-0.447852	0.128103
C197	C	0.837589	-0.114519	0.461436
C198	C	1.170923	0.218814	0.794770
C199	C	0.504255	-0.395630	0.128101
C200	C	0.837588	-0.062296	0.461434
C201	C	1.170922	0.271037	0.794767
C202	C	0.537379	-0.369519	0.095006
C203	C	0.870712	-0.036186	0.428340
C204	C	1.204045	0.297148	0.761673
C205	C	0.537382	-0.317312	0.095018
C206	C	0.870716	0.016022	0.428351
C207	C	1.204049	0.349355	0.761684
N208	N	0.570501	-0.291198	0.061922
N209	N	0.903834	0.042135	0.395256
N210	N	1.237168	0.375469	0.728589
C211	C	0.603623	-0.317303	0.028826
C212	C	0.936956	0.016030	0.362160
C213	C	1.270290	0.349363	0.695493
C214	C	0.537407	-0.792500	0.094999
C215	C	0.870741	-0.459167	0.428333
C216	C	1.204074	-0.125834	0.761666
C217	C	0.537411	-0.844719	0.094999
C218	C	0.870744	-0.511386	0.428332
C219	C	1.204078	-0.178053	0.761665
C220	C	0.603655	-0.844711	0.028805
C221	C	0.936988	-0.511378	0.362138
C222	C	1.270321	-0.178045	0.695472
C223	C	0.603653	-0.792491	0.028808
C224	C	0.936986	-0.459158	0.362142
C225	C	1.270319	-0.125825	0.695475
C226	C	0.570526	-0.766387	0.061904
C227	C	0.903859	-0.433054	0.395237
C228	C	1.237192	-0.099720	0.728571
C229	C	0.603618	-0.207645	0.028837
C230	C	0.936951	0.125688	0.362171
C231	C	1.270284	0.459021	0.695504
C232	C	0.603615	-0.155425	0.028846
C233	C	0.936948	0.177909	0.362179
C234	C	1.270281	0.511242	0.695512
C235	C	0.537370	-0.155437	0.095037
C236	C	0.870703	0.177896	0.428371
C237	C	1.204036	0.511230	0.761704
C238	C	0.537374	-0.207653	0.095031
C239	C	0.870707	0.125680	0.428365
C240	C	1.204041	0.459013	0.761698
C241	C	0.570500	-0.233756	0.061927
C242	C	0.903833	0.099577	0.395260
C243	C	1.237167	0.432910	0.728594
O244	O	0.509239	-0.290267	0.123159
O245	O	0.842572	0.043066	0.456493
O246	O	1.175905	0.376400	0.789826
O247	O	0.631784	-0.290290	0.000677
O248	O	0.965117	0.043043	0.334011
O249	O	1.298451	0.376376	0.667344
C250	C	0.603631	-0.526171	0.028814
C251	C	0.936965	-0.192838	0.362147
C252	C	1.270298	0.140495	0.695481
C253	C	0.570510	-0.552282	0.061906
C254	C	0.903844	-0.218949	0.395239
C255	C	1.237177	0.114385	0.728573
C256	C	0.537388	-0.526177	0.095002
C257	C	0.870722	-0.192843	0.428335
C258	C	1.204055	0.140490	0.761669
C259	C	0.570514	-0.604501	0.061906
C260	C	0.903848	-0.271168	0.395239
C261	C	1.237181	0.062166	0.728572
C262	C	0.603637	-0.630606	0.028810
C263	C	0.936970	-0.297273	0.362143
C264	C	1.270303	0.036060	0.695476
C265	C	0.636755	-0.604493	-0.004286
C266	C	0.970088	-0.271160	0.329048
C267	C	1.303422	0.062174	0.662381
C268	C	0.636753	-0.552277	-0.004282
C269	C	0.970087	-0.218943	0.329051
C270	C	1.303420	0.114390	0.662385
C271	C	0.504270	-0.552290	0.128097
C272	C	0.837603	-0.218957	0.461431
C273	C	1.170937	0.114376	0.794764
C274	C	0.504274	-0.604507	0.128091
C275	C	0.837608	-0.271173	0.461424
C276	C	1.170941	0.062160	0.794758
C277	C	0.537397	-0.630612	0.094995
C278	C	0.870730	-0.297279	0.428329
C279	C	1.204063	0.036055	0.761662
C280	C	0.658915	-0.000084	0.057740
C281	C	0.992248	0.333249	0.391074
C282	C	1.325581	0.666583	0.724407
C283	C	0.712569	-0.000089	0.058296
C284	C	1.045902	0.333245	0.391630
C285	C	1.379236	0.666578	0.724963
C286	C	0.574717	-0.000085	-0.026481
C287	C	0.908050	0.333248	0.306852
C288	C	1.241383	0.666582	0.640185
C289	C	0.574174	-0.000090	-0.080138
C290	C	0.907507	0.333243	0.253196
C291	C	1.240841	0.666577	0.586529
N292	N	0.570533	0.129175	0.061903
N293	N	0.903867	0.462509	0.395236
N294	N	1.237200	0.795842	0.728570
C295	C	0.570767	0.045156	-0.412860
C296	C	0.904100	0.378489	-0.079527
C297	C	1.237434	0.711823	0.253806
C298	C	0.568706	0.045165	-0.614519
C299	C	0.902039	0.378498	-0.281186
C300	C	1.235373	0.711832	0.052148
O301	O	0.568425	0.083624	-0.640595
O302	O	0.901758	0.416957	-0.307261
O303	O	1.235092	0.750291	0.026072
N304	N	0.568442	-0.000056	-0.639730
N305	N	0.901776	0.333278	-0.306396
N306	N	1.235109	0.666611	0.026937
C307	C	0.568691	-0.045282	-0.614523
C308	C	0.902024	0.288052	-0.281189
C309	C	1.235357	0.621385	0.052144
O310	O	0.568414	-0.083744	-0.640592
O311	O	0.901747	0.249589	-0.307259
O312	O	1.235081	0.582922	0.026074
C313	C	0.570748	-0.045290	-0.412865
C314	C	0.904081	0.288043	-0.079531
C315	C	1.237415	0.621376	0.253802
C316	C	0.571017	-0.000067	-0.387657
C317	C	0.904350	0.333267	-0.054324
C318	C	1.237683	0.666600	0.279010
C319	C	0.571035	0.090376	-0.387653
C320	C	0.904368	0.423709	-0.054319
C321	C	1.237702	0.757042	0.279014
C322	C	0.571553	0.090373	-0.337242
C323	C	0.904886	0.423706	-0.003908
C324	C	1.238219	0.757040	0.329425
C325	C	0.571803	0.045150	-0.312038
C326	C	0.905136	0.378484	0.021295
C327	C	1.238469	0.711817	0.354629
C328	C	0.571535	-0.000069	-0.337246
C329	C	0.904868	0.333264	-0.003913
C330	C	1.238201	0.666597	0.329421
C331	C	0.570993	-0.090516	-0.387658
C332	C	0.904326	0.242817	-0.054325
C333	C	1.237660	0.576151	0.279009
C334	C	0.571506	-0.090514	-0.337240
C335	C	0.904840	0.242819	-0.003907
C336	C	1.238173	0.576153	0.329427
C337	C	0.571775	-0.045290	-0.312032
C338	C	0.905108	0.288043	0.021301
C339	C	1.238441	0.621376	0.354634
C340	C	0.572302	-0.045295	-0.261631
C341	C	0.905636	0.288039	0.071702
C342	C	1.238969	0.621372	0.405035
N343	N	0.572566	-0.000074	-0.236420
N344	N	0.905899	0.333259	0.096913
N345	N	1.239233	0.666592	0.430246
C346	C	0.572316	0.045148	-0.261624
C347	C	0.905649	0.378482	0.071710
C348	C	1.238983	0.711815	0.405043
C349	C	0.567611	-0.045274	-0.720396
C350	C	0.900945	0.288059	-0.387063
C351	C	1.234278	0.621393	-0.053729
C352	C	0.567098	-0.045272	-0.770810
C353	C	0.900431	0.288061	-0.437477
C354	C	1.233764	0.621395	-0.104144
C355	C	0.567112	0.045175	-0.770803
C356	C	0.900446	0.378508	-0.437470
C357	C	1.233779	0.711842	-0.104136
C358	C	0.567629	0.045172	-0.720388
C359	C	0.900963	0.378506	-0.387055
C360	C	1.234296	0.711839	-0.053722
C361	C	0.567875	-0.000053	-0.695185
C362	C	0.901208	0.333280	-0.361852
C363	C	1.234542	0.666613	-0.028518
C364	C	0.573404	0.045139	-0.155757
C365	C	0.906737	0.378473	0.177577
C366	C	1.240071	0.711806	0.510910
C367	C	0.573924	0.045133	-0.105341
C368	C	0.907257	0.378466	0.227992
C369	C	1.240591	0.711799	0.561325
C370	C	0.573907	-0.045314	-0.105353
C371	C	0.907240	0.288019	0.227981
C372	C	1.240574	0.621353	0.561314
C373	C	0.573390	-0.045308	-0.155764
C374	C	0.906723	0.288026	0.177569
C375	C	1.240056	0.621359	0.510903
C376	C	0.573137	-0.000077	-0.180964
C377	C	0.906470	0.333256	0.152369
C378	C	1.239803	0.666590	0.485702
O379	O	0.572578	-0.083734	-0.235523
O380	O	0.905911	0.249600	0.097810
O381	O	1.239245	0.582933	0.431143
O382	O	0.572582	0.083605	-0.235544
O383	O	0.905915	0.416939	0.097790
O384	O	1.239249	0.750272	0.431123
C385	C	0.570249	0.045159	-0.463272
C386	C	0.903582	0.378492	-0.129938
C387	C	1.236916	0.711825	0.203395
C388	C	0.569981	-0.000061	-0.488479
C389	C	0.903314	0.333272	-0.155146
C390	C	1.236648	0.666605	0.178187
C391	C	0.570231	-0.045284	-0.463276
C392	C	0.903564	0.288049	-0.129943
C393	C	1.236897	0.621383	0.203391
C394	C	0.569467	-0.000059	-0.538894
C395	C	0.902801	0.333274	-0.205560
C396	C	1.236134	0.666607	0.127773
C397	C	0.569218	0.045163	-0.564097
C398	C	0.902551	0.378497	-0.230764
C399	C	1.235884	0.711830	0.102569
C400	C	0.569481	0.090384	-0.538886
C401	C	0.902815	0.423717	-0.205553
C402	C	1.236148	0.757051	0.127780
C403	C	0.569999	0.090381	-0.488475
C404	C	0.903332	0.423715	-0.155142
C405	C	1.236666	0.757048	0.178192
C406	C	0.569967	-0.090504	-0.488487
C407	C	0.903300	0.242829	-0.155154
C408	C	1.236634	0.576162	0.178180
C409	C	0.569450	-0.090498	-0.538898
C410	C	0.902783	0.242835	-0.205565
C411	C	1.236116	0.576169	0.127768
C412	C	0.569200	-0.045275	-0.564102
C413	C	0.902533	0.288058	-0.230768
C414	C	1.235867	0.621391	0.102565
C415	C	0.566305	-0.000058	0.150330
C416	C	0.899639	0.333276	0.483663
C417	C	1.232972	0.666609	0.816997
C418	C	0.566848	-0.000049	0.203986
C419	C	0.900181	0.333284	0.537319
C420	C	1.233515	0.666617	0.870653
H421	H	-0.271697	-0.000095	-0.021635
H422	H	0.061636	0.333238	0.311699
H423	H	0.394970	0.666572	0.645032
H424	H	0.477284	-0.469104	0.155051
H425	H	0.810617	-0.135771	0.488385
H426	H	1.143950	0.197562	0.821718
H427	H	0.477302	-0.625762	0.155045
H428	H	0.810635	-0.292429	0.488378
H429	H	1.143969	0.040904	0.821711
H430	H	0.208998	-0.000091	-0.060900
H431	H	0.542331	0.333242	0.272433
H432	H	0.875665	0.666576	0.605766
Cl433	Cl	-0.081845	-0.000086	0.204157
Cl434	Cl	0.251488	0.333247	0.537490
Cl435	Cl	0.584822	0.666580	0.870823
H436	H	-0.202330	-0.000077	0.139246
H437	H	0.131003	0.333256	0.472580
H438	H	0.464336	0.666590	0.805913
H439	H	0.510403	-0.134174	0.121985
H440	H	0.843737	0.199159	0.455319
H441	H	1.177070	0.532493	0.788652
Cl442	Cl	0.566795	0.102026	-0.802496
Cl443	Cl	0.900129	0.435359	-0.469163
Cl444	Cl	1.233462	0.768693	-0.135830
H445	H	0.663723	-0.469095	-0.031227
H446	H	0.997056	-0.135761	0.302106
H447	H	1.330389	0.197572	0.635440
Cl448	Cl	0.645260	-0.122602	-0.012761
Cl449	Cl	0.978593	0.210731	0.320573
Cl450	Cl	1.311926	0.544064	0.653906
H451	H	0.477297	-0.531039	0.155048
H452	H	0.810631	-0.197706	0.488381
H453	H	1.143964	0.135627	0.821714
H454	H	0.510406	-0.228913	0.121984
H455	H	0.843740	0.104420	0.455318
H456	H	1.177073	0.437753	0.788651
H457	H	0.570830	0.127204	-0.408168
H458	H	0.904163	0.460537	-0.074834
H459	H	1.237496	0.793870	0.258499
H460	H	0.412717	-0.000036	0.145480
H461	H	0.746050	0.333297	0.478814
H462	H	1.079384	0.666631	0.812147
H463	H	0.630625	-0.865975	0.001858
H464	H	0.963958	-0.532642	0.335191
H465	H	1.297291	-0.199308	0.668524
H466	H	0.570171	-0.127331	-0.467971
H467	H	0.903505	0.206002	-0.134638
H468	H	1.236838	0.539336	0.198695
Cl469	Cl	0.567918	-0.102135	-0.688719
Cl470	Cl	0.901251	0.231198	-0.355386
Cl471	Cl	1.234585	0.564531	-0.022052
Cl472	Cl	0.334893	-0.000069	-0.035040
Cl473	Cl	0.668226	0.333264	0.298294
Cl474	Cl	1.001559	0.666597	0.631627
Cl475	Cl	0.678395	-0.637321	-0.045891
Cl476	Cl	1.011728	-0.303988	0.287443
Cl477	Cl	1.345062	0.029346	0.620776
H478	H	-0.180245	-0.000100	-0.020712
H479	H	0.153089	0.333233	0.312621
H480	H	0.486422	0.666566	0.645955
H481	H	0.573176	-0.082132	-0.176290
H482	H	0.906509	0.251201	0.157044
H483	H	1.239842	0.584534	0.490377
H484	H	0.321266	-0.000051	0.144555
H485	H	0.654600	0.333282	0.477888
H486	H	0.987933	0.666616	0.811222
H487	H	0.574144	0.081961	-0.084820
H488	H	0.907477	0.415294	0.248514
H489	H	1.240810	0.748627	0.581847
Cl490	Cl	0.570336	0.147237	-0.456793
Cl491	Cl	0.903669	0.480570	-0.123460
Cl492	Cl	1.237002	0.813904	0.209874
Cl493	Cl	0.645263	-0.240452	-0.012779
Cl494	Cl	0.978597	0.092881	0.320554
Cl495	Cl	1.311930	0.426215	0.653888
H496	H	0.574113	-0.082133	-0.084823
H497	H	0.907446	0.251200	0.248510
H498	H	1.240779	0.584534	0.581843
Cl499	Cl	0.109073	-0.000094	-0.081471
Cl500	Cl	0.442406	0.333239	0.251862
Cl501	Cl	0.775739	0.666572	0.585195
Cl502	Cl	0.678396	-0.519459	-0.045889
Cl503	Cl	1.011729	-0.186125	0.287444
Cl504	Cl	1.345063	0.147208	0.620778
Cl505	Cl	0.569169	0.147235	-0.570581
Cl506	Cl	0.902503	0.480568	-0.237247
Cl507	Cl	1.235836	0.813901	0.096086
H508	H	0.573196	0.081970	-0.176269
H509	H	0.906529	0.415304	0.157065
H510	H	1.239862	0.748637	0.490398
H511	H	0.571770	0.127199	-0.316722
H512	H	0.905103	0.460532	0.016612
H513	H	1.238436	0.793865	0.349945
H514	H	0.663720	-0.374371	-0.031220
H515	H	0.997053	-0.041038	0.302114
H516	H	1.330387	0.292295	0.635447
H517	H	0.630625	-0.771235	0.001860
H518	H	0.963958	-0.437902	0.335193
H519	H	1.297291	-0.104568	0.668527
Cl520	Cl	0.495774	-0.877539	0.136611
Cl521	Cl	0.829108	-0.544205	0.469944
Cl522	Cl	1.162441	-0.210872	0.803278
Cl523	Cl	0.448686	-0.000065	-0.033879
Cl524	Cl	0.782019	0.333268	0.299454
Cl525	Cl	1.115353	0.666602	0.632788
Cl526	Cl	0.462605	-0.362816	0.169709
Cl527	Cl	0.795939	-0.029483	0.503042
Cl528	Cl	1.129272	0.303850	0.836375
H529	H	0.510430	-0.771250	0.121951
H530	H	0.843764	-0.437916	0.455284
H531	H	1.177097	-0.104583	0.788618
Cl532	Cl	0.567965	0.102027	-0.688704
Cl533	Cl	0.901298	0.435360	-0.355370
Cl534	Cl	1.234632	0.768693	-0.022037
Cl535	Cl	0.566770	-0.102127	-0.802495
Cl536	Cl	0.900103	0.231206	-0.469162
Cl537	Cl	1.233436	0.564540	-0.135828
H538	H	-0.033699	-0.000098	-0.063367
H539	H	0.299634	0.333235	0.269967
H540	H	0.632968	0.666568	0.603300
Cl541	Cl	0.071607	-0.000098	-0.081851
Cl542	Cl	0.404940	0.333235	0.251482
Cl543	Cl	0.738274	0.666569	0.584815
H544	H	0.023467	-0.000073	0.185677
H545	H	0.356800	0.333260	0.519010
H546	H	0.690133	0.666593	0.852344
Cl547	Cl	0.570652	-0.147372	-0.419335
Cl548	Cl	0.903986	0.185961	-0.086001
Cl549	Cl	1.237319	0.519294	0.247332
Cl550	Cl	0.571816	-0.147373	-0.305559
Cl551	Cl	0.905149	0.185960	0.027774
Cl552	Cl	1.238482	0.519294	0.361107
Cl553	Cl	0.569115	-0.147357	-0.570582
Cl554	Cl	0.902448	0.185977	-0.237249
Cl555	Cl	1.235781	0.519310	0.096085
H556	H	0.174713	-0.000060	0.187204
H557	H	0.508047	0.333274	0.520538
H558	H	0.841380	0.666607	0.853871
Cl559	Cl	-0.307660	-0.000075	0.157724
Cl560	Cl	0.025674	0.333259	0.491058
Cl561	Cl	0.359007	0.666592	0.824391
H562	H	0.083265	-0.000065	0.186276
H563	H	0.416599	0.333268	0.519609
H564	H	0.749932	0.666602	0.852943
