data_functionalizedCrystal
_audit_creation_method	'MofGen! by Chris Wilmer'
_symmetry_space_group_name_H-M	'P1'
_symmetry_Int_Tables_number	1
_symmetry_cell_setting	triclinic
loop_
_symmetry_equiv_pos_as_xyz
  x,y,z
_cell_length_a	15.944551
_cell_length_b	16.109302
_cell_length_c	15.186229
_cell_angle_alpha	89.994701
_cell_angle_beta	89.998855
_cell_angle_gamma	96.519741
loop_
_atom_site_label
_atom_site_type_symbol
_atom_site_fract_x
_atom_site_fract_y
_atom_site_fract_z
O1	O	-0.107969	1.103165	-0.073258
O2	O	0.225364	1.436499	0.260075
O3	O	0.558697	1.769832	0.593408
O4	O	-0.121405	0.861108	-0.073250
O5	O	0.211929	1.194441	0.260083
O6	O	0.545262	1.527774	0.593416
O7	O	0.007590	0.988746	-0.073260
O8	O	0.340923	1.322080	0.260074
O9	O	0.674257	1.655413	0.593407
O10	O	-0.236964	0.975526	-0.073249
O11	O	0.096369	1.308860	0.260084
O12	O	0.429703	1.642193	0.593418
O13	O	0.007592	0.988738	0.073198
O14	O	0.340925	1.322071	0.406531
O15	O	0.674258	1.655405	0.739864
O16	O	-0.121403	0.861099	0.073207
O17	O	0.211930	1.194432	0.406540
O18	O	0.545264	1.527766	0.739874
O19	O	-0.107967	1.103157	0.073199
O20	O	0.225366	1.436490	0.406532
O21	O	0.558699	1.769823	0.739866
Zn22	Zn	-0.114685	0.982127	0.096456
Zn23	Zn	0.218648	1.315460	0.429789
Zn24	Zn	0.551982	1.648793	0.763123
Zn25	Zn	-0.114687	0.982138	-0.096508
Zn26	Zn	0.218646	1.315471	0.236826
Zn27	Zn	0.551979	1.648804	0.570159
O28	O	-0.236962	0.975518	0.073208
O29	O	0.096371	1.308851	0.406542
O30	O	0.429705	1.642185	0.739875
C31	C	-0.120860	0.830128	-0.000021
C32	C	0.212474	1.163462	0.333313
C33	C	0.545807	1.496795	0.666646
C34	C	-0.119228	0.737833	-0.000018
C35	C	0.214106	1.071166	0.333315
C36	C	0.547439	1.404499	0.666648
C37	C	-0.115453	0.525486	0.079807
C38	C	0.217880	0.858819	0.413140
C39	C	0.551214	1.192152	0.746473
C40	C	-0.113910	0.438765	0.079804
C41	C	0.219423	0.772099	0.413137
C42	C	0.552756	1.105432	0.746470
C43	C	-0.113917	0.438785	-0.079872
C44	C	0.219417	0.772118	0.253461
C45	C	0.552750	1.105452	0.586795
C46	C	-0.115453	0.525505	-0.079868
C47	C	0.217880	0.858838	0.253465
C48	C	0.551213	1.192171	0.586799
C49	C	-0.116225	0.568852	-0.000026
C50	C	0.217108	0.902186	0.333307
C51	C	0.550441	1.235519	0.666641
C52	C	-0.113147	0.395412	-0.000033
C53	C	0.220187	0.728745	0.333300
C54	C	0.553520	1.062079	0.666633
C55	C	-0.111474	0.301386	-0.000037
C56	C	0.221859	0.634719	0.333296
C57	C	0.555192	0.968052	0.666629
C58	C	-0.117896	0.662885	-0.000022
C59	C	0.215437	0.996218	0.333312
C60	C	0.548770	1.329551	0.666645
C61	C	-0.268257	0.976071	-0.000019
C62	C	0.065076	1.309404	0.333314
C63	C	0.398410	1.642738	0.666648
C64	C	-0.361502	0.977716	-0.000015
C65	C	-0.028169	1.311050	0.333318
C66	C	0.305164	1.644383	0.666651
C67	C	-0.576332	1.060766	-0.000032
C68	C	-0.242999	1.394099	0.333302
C69	C	0.090335	1.727432	0.666635
C70	C	-0.637360	1.022196	0.072182
C71	C	-0.304026	1.355529	0.405515
C72	C	0.029307	1.688863	0.738848
C73	C	-0.532227	0.980693	-0.000023
C74	C	-0.198894	1.314026	0.333310
C75	C	0.134439	1.647360	0.666643
C76	C	-0.637347	1.022186	-0.072214
C77	C	-0.304014	1.355519	0.261120
C78	C	0.029319	1.688852	0.594453
C79	C	-0.697139	0.983574	-0.000035
C80	C	-0.363806	1.316907	0.333298
C81	C	-0.030472	1.650241	0.666632
C82	C	-0.592027	0.942101	0.072249
C83	C	-0.258694	1.275435	0.405583
C84	C	0.074640	1.608768	0.738916
C85	C	-0.592008	0.942102	-0.072211
C86	C	-0.258675	1.275435	0.261122
C87	C	0.074659	1.608769	0.594456
C88	C	-0.653018	0.903474	0.000020
C89	C	-0.319685	1.236808	0.333353
C90	C	0.013648	1.570141	0.666687
C91	C	-0.437225	0.979035	-0.000016
C92	C	-0.103892	1.312369	0.333317
C93	C	0.229441	1.645702	0.666651
C94	C	-0.792140	0.985225	-0.000036
C95	C	-0.458806	1.318559	0.333297
C96	C	-0.125473	1.651892	0.666631
C97	C	0.038885	0.988193	-0.000034
C98	C	0.372218	1.321527	0.333299
C99	C	0.705551	1.654860	0.666632
C100	C	0.132130	0.986548	-0.000044
C101	C	0.465464	1.319881	0.333290
C102	C	0.798797	1.653215	0.666623
C103	C	-0.108513	1.134136	-0.000033
C104	C	0.224821	1.467469	0.333301
C105	C	0.558154	1.800803	0.666634
C106	C	-0.110145	1.226432	-0.000041
C107	C	0.223189	1.559765	0.333292
C108	C	0.556522	1.893098	0.666626
N109	N	-0.114683	0.982125	0.228149
N110	N	0.218651	1.315458	0.561482
N111	N	0.551984	1.648792	0.894815
N112	N	-0.114683	0.982146	-0.228200
N113	N	0.218651	1.315479	0.105133
N114	N	0.551984	1.648813	0.438466
C115	C	-0.057583	1.038663	0.453867
C116	C	0.275750	1.371996	0.787201
C117	C	0.609084	1.705329	1.120534
C118	C	-0.057581	1.038665	0.546057
C119	C	0.275752	1.371999	0.879390
C120	C	0.609086	1.705332	1.212724
C121	C	-0.171785	0.925602	0.546075
C122	C	0.161548	1.258936	0.879408
C123	C	0.494882	1.592269	1.212741
C124	C	-0.171782	0.925596	0.453887
C125	C	0.161551	1.258930	0.787220
C126	C	0.494884	1.592263	1.120553
C127	C	-0.114682	0.982131	0.407785
C128	C	0.218651	1.315465	0.741119
C129	C	0.551984	1.648798	1.074452
C130	C	-0.114683	0.982140	0.592163
C131	C	0.218650	1.315473	0.925496
C132	C	0.551984	1.648806	1.258830
C133	C	-0.114681	0.982142	0.692119
C134	C	0.218652	1.315476	1.025453
C135	C	0.551985	1.648809	1.358786
C136	C	-0.114683	0.982128	0.307823
C137	C	0.218651	1.315461	0.641156
C138	C	0.551984	1.648795	0.974490
H139	H	-0.113282	0.403460	0.144811
H140	H	0.220052	0.736793	0.478145
H141	H	0.553385	1.070127	0.811478
Br142	Br	-0.116498	0.584313	0.188163
Br143	Br	0.216835	0.917646	0.521496
Br144	Br	0.550169	1.250979	0.854830
Br145	Br	-0.116491	0.584366	-0.188221
Br146	Br	0.216842	0.917700	0.145113
Br147	Br	0.550175	1.251033	0.478446
H148	H	-0.218280	0.879558	0.416364
H149	H	0.115053	1.212891	0.749697
H150	H	0.448387	1.546224	1.083031
Br151	Br	-0.249277	0.848881	0.608643
Br152	Br	0.084056	1.182214	0.941977
Br153	Br	0.417390	1.515547	1.275310
H154	H	-0.657427	1.056072	-0.133261
H155	H	-0.324093	1.389405	0.200072
H156	H	0.009240	1.722738	0.533406
H157	H	-0.011085	1.084697	0.583575
H158	H	0.322249	1.418031	0.916908
H159	H	0.655582	1.751364	1.250241
Br160	Br	0.019911	1.115387	0.391305
Br161	Br	0.353245	1.448720	0.724638
Br162	Br	0.686578	1.782053	1.057972
H163	H	-0.572046	0.908257	0.133366
H164	H	-0.238713	1.241590	0.466699
H165	H	0.094620	1.574923	0.800033
H166	H	-0.657455	1.056060	0.133230
H167	H	-0.324121	1.389393	0.466564
H168	H	0.009212	1.722727	0.799897
H169	H	-0.113289	0.403481	-0.144877
H170	H	0.220044	0.736814	0.188457
H171	H	0.553378	1.070147	0.521790
Br172	Br	-0.708314	0.792597	0.000078
Br173	Br	-0.374981	1.125930	0.333411
Br174	Br	-0.041647	1.459264	0.666745
Br175	Br	-0.520780	1.171542	0.000077
Br176	Br	-0.187447	1.504875	0.333411
Br177	Br	0.145886	1.838209	0.666744
H178	H	-0.571891	0.908267	-0.133263
H179	H	-0.238558	1.241600	0.200071
H180	H	0.094776	1.574933	0.533404
