data_functionalizedCrystal
_audit_creation_method	'MofGen! by Chris Wilmer'
_symmetry_space_group_name_H-M	'P1'
_symmetry_Int_Tables_number	1
_symmetry_cell_setting	triclinic
loop_
_symmetry_equiv_pos_as_xyz
  x,y,z
_cell_length_a	11.169417
_cell_length_b	19.120786
_cell_length_c	11.169409
_cell_angle_alpha	87.520717
_cell_angle_beta	89.980487
_cell_angle_gamma	92.466524
loop_
_atom_site_label
_atom_site_type_symbol
_atom_site_fract_x
_atom_site_fract_y
_atom_site_fract_z
Zn1	Zn	1.814457	-0.279552	-0.658094
Zn2	Zn	2.147790	0.053781	-0.324760
Zn3	Zn	2.481123	0.387114	0.008573
Zn4	Zn	1.805729	-0.397034	-0.448821
Zn5	Zn	2.139062	-0.063700	-0.115488
Zn6	Zn	2.472395	0.269633	0.217846
Zn7	Zn	1.613739	-0.279596	-0.457426
Zn8	Zn	1.947073	0.053738	-0.124093
Zn9	Zn	2.280406	0.387071	0.209241
Zn10	Zn	1.605137	-0.396977	-0.649471
Zn11	Zn	1.938470	-0.063644	-0.316138
Zn12	Zn	2.271803	0.269689	0.017196
O13	O	1.709765	-0.338290	-0.553453
O14	O	2.043099	-0.004956	-0.220120
O15	O	2.376432	0.328377	0.113214
O16	O	1.981248	-0.295142	-0.630341
O17	O	2.314582	0.038192	-0.297007
O18	O	2.647915	0.371525	0.036326
O19	O	1.780208	-0.381497	-0.282010
O20	O	2.113542	-0.048164	0.051324
O21	O	2.446875	0.285169	0.384657
O22	O	1.647618	-0.181299	-0.491255
O23	O	1.980951	0.152034	-0.157921
O24	O	2.314285	0.485368	0.175412
O25	O	1.974836	-0.381455	-0.476589
O26	O	2.308169	-0.048122	-0.143256
O27	O	2.641502	0.285212	0.190078
O28	O	1.795084	-0.181267	-0.638684
O29	O	2.128417	0.152066	-0.305351
O30	O	2.461751	0.485400	0.027982
O31	O	1.639155	-0.295216	-0.288332
O32	O	1.972488	0.038117	0.045002
O33	O	2.305821	0.371451	0.378335
O34	O	1.444649	-0.295161	-0.482894
O35	O	1.777982	0.038172	-0.149560
O36	O	2.111316	0.371505	0.183773
O37	O	1.632956	-0.381359	-0.818568
O38	O	1.966289	-0.048026	-0.485235
O39	O	2.299623	0.285308	-0.151901
O40	O	1.438329	-0.381401	-0.623989
O41	O	1.771662	-0.048068	-0.290655
O42	O	2.104995	0.285266	0.042678
O43	O	1.786742	-0.295087	-0.824903
O44	O	2.120076	0.038246	-0.491569
O45	O	2.453409	0.371580	-0.158236
O46	O	1.771867	-0.495317	-0.468228
O47	O	2.105200	-0.161984	-0.134895
O48	O	2.438533	0.171349	0.198439
O49	O	1.624493	-0.495276	-0.615645
O50	O	1.957826	-0.161943	-0.282311
O51	O	2.291159	0.171391	0.051022
C52	C	1.397941	-0.338280	-0.553440
C53	C	1.731275	-0.004947	-0.220107
C54	C	2.064608	0.328386	0.113227
C55	C	1.264540	-0.338293	-0.553462
C56	C	1.597874	-0.004960	-0.220128
C57	C	1.931207	0.328373	0.113205
C58	C	1.696332	-0.520782	-0.540093
C59	C	2.029665	-0.187449	-0.206760
C60	C	2.362998	0.145884	0.126574
C61	C	1.690695	-0.598854	-0.534418
C62	C	2.024028	-0.265520	-0.201085
C63	C	2.357361	0.067813	0.132249
C64	C	1.764767	-0.635455	-0.608573
C65	C	2.098100	-0.302121	-0.275239
C66	C	2.431433	0.031212	0.058094
C67	C	1.759465	-0.708811	-0.603242
C68	C	2.092798	-0.375477	-0.269909
C69	C	2.426132	-0.042144	0.063424
C70	C	1.680097	-0.745565	-0.523750
C71	C	2.013430	-0.412231	-0.190417
C72	C	2.346763	-0.078898	0.142916
C73	C	1.606016	-0.708958	-0.449592
C74	C	1.939350	-0.375625	-0.116259
C75	C	2.272683	-0.042292	0.217074
C76	C	1.611313	-0.635604	-0.454930
C77	C	1.944646	-0.302270	-0.121596
C78	C	2.277979	0.031063	0.211737
C79	C	1.660261	-0.967052	-0.503797
C80	C	1.993595	-0.633719	-0.170464
C81	C	2.326928	-0.300386	0.162869
C82	C	1.654973	-1.040412	-0.498463
C83	C	1.988306	-0.707079	-0.165130
C84	C	2.321640	-0.373746	0.168204
C85	C	1.808421	-1.040259	-0.652115
C86	C	2.141754	-0.706926	-0.318782
C87	C	2.475088	-0.373593	0.014551
C88	C	1.813715	-0.966903	-0.657440
C89	C	2.147049	-0.633570	-0.324107
C90	C	2.480382	-0.300237	0.009226
C91	C	1.739631	-0.930304	-0.583287
C92	C	2.072964	-0.596970	-0.249954
C93	C	2.406297	-0.263637	0.083380
C94	C	1.674678	-0.820546	-0.518297
C95	C	2.008012	-0.487213	-0.184964
C96	C	2.341345	-0.153880	0.148370
C97	C	1.745044	-0.855323	-0.588747
C98	C	2.078377	-0.521990	-0.255414
C99	C	2.411710	-0.188657	0.077920
C100	C	2.022807	-0.338300	-0.553467
C101	C	2.356140	-0.004966	-0.220133
C102	C	2.689474	0.328367	0.113200
C103	C	2.156207	-0.338304	-0.553473
C104	C	2.489540	-0.004971	-0.220139
C105	C	2.822873	0.328363	0.113194
C106	C	1.709863	-0.338212	-0.866501
C107	C	2.043197	-0.004878	-0.533168
C108	C	2.376530	0.328455	-0.199835
C109	C	1.709905	-0.338179	-0.999904
C110	C	2.043238	-0.004845	-0.666570
C111	C	2.376572	0.328488	-0.333237
C112	C	1.723284	-0.155084	-0.566891
C113	C	2.056618	0.178249	-0.233558
C114	C	2.389951	0.511582	0.099775
C115	C	1.729045	-0.077013	-0.572618
C116	C	2.062378	0.256320	-0.239284
C117	C	2.395712	0.589653	0.094049
C118	C	1.709741	-0.338317	-0.241626
C119	C	2.043074	-0.004983	0.091707
C120	C	2.376407	0.328350	0.425040
C121	C	1.709946	-0.338152	-0.108239
C122	C	2.043279	-0.004819	0.225094
C123	C	2.376613	0.328515	0.558428
H124	H	1.819792	-0.738608	-0.663618
H125	H	2.153125	-0.405275	-0.330285
H126	H	2.486458	-0.071941	0.003049
N127	N	1.531423	-0.596130	-0.374937
N128	N	1.864756	-0.262797	-0.041604
N129	N	2.198089	0.070536	0.291730
H130	H	1.582423	-0.565695	-0.321576
H131	H	1.915756	-0.232361	0.011757
H132	H	2.249089	0.100972	0.345091
H133	H	1.477986	-0.565743	-0.425957
H134	H	1.811319	-0.232410	-0.092624
H135	H	2.144652	0.100924	0.240710
N136	N	1.569366	-1.080054	-0.412717
N137	N	1.902699	-0.746721	-0.079384
N138	N	2.236032	-0.413387	0.253950
H139	H	1.615981	-1.110482	-0.354924
H140	H	1.949315	-0.777149	-0.021591
H141	H	2.282648	-0.443816	0.311742
H142	H	1.523260	-1.045691	-0.366636
H143	H	1.856594	-0.712358	-0.033302
H144	H	2.189927	-0.379025	0.300031
H145	H	1.878343	-0.936980	-0.722169
H146	H	2.211677	-0.603646	-0.388836
H147	H	2.545010	-0.270313	-0.055502
H148	H	1.599941	-0.937259	-0.443416
H149	H	1.933274	-0.603925	-0.110083
H150	H	2.266608	-0.270592	0.223250
N151	N	1.830636	-0.815680	-0.674486
N152	N	2.163970	-0.482347	-0.341153
N153	N	2.497303	-0.149013	-0.007819
H154	H	1.888469	-0.785237	-0.627968
H155	H	2.221802	-0.451904	-0.294634
H156	H	2.555136	-0.118571	0.038699
H157	H	1.876683	-0.850036	-0.720640
H158	H	2.210016	-0.516703	-0.387307
H159	H	2.543350	-0.183370	-0.053974
H160	H	1.541388	-0.738889	-0.384873
H161	H	1.874721	-0.405556	-0.051540
H162	H	2.208054	-0.072223	0.281794
N163	N	1.589092	-0.860191	-0.432546
N164	N	1.922425	-0.526858	-0.099213
N165	N	2.255759	-0.193524	0.234120
H166	H	1.542970	-0.825876	-0.386368
H167	H	1.876304	-0.492543	-0.053035
H168	H	2.209637	-0.159210	0.280298
H169	H	1.531327	-0.890633	-0.479137
H170	H	1.864660	-0.557300	-0.145804
H171	H	2.197993	-0.223966	0.187530
N172	N	1.850378	-0.595815	-0.694305
N173	N	2.183712	-0.262482	-0.360972
N174	N	2.517045	0.070851	-0.027638
H175	H	1.896496	-0.630136	-0.740474
H176	H	2.229829	-0.296802	-0.407141
H177	H	2.563162	0.036531	-0.073807
H178	H	1.803694	-0.565379	-0.752019
H179	H	2.137027	-0.232046	-0.418686
H180	H	2.470360	0.101287	-0.085352
H181	H	1.868735	-1.070067	-0.712488
H182	H	2.202068	-0.736733	-0.379155
H183	H	2.535402	-0.403400	-0.045821
