data_functionalizedCrystal
_audit_creation_method	'MofGen! by Chris Wilmer'
_symmetry_space_group_name_H-M	'P1'
_symmetry_Int_Tables_number	1
_symmetry_cell_setting	triclinic
loop_
_symmetry_equiv_pos_as_xyz
  x,y,z
_cell_length_a	12.759401
_cell_length_b	12.645330
_cell_length_c	12.759393
_cell_angle_alpha	90.031109
_cell_angle_beta	90.019802
_cell_angle_gamma	90.011732
loop_
_atom_site_label
_atom_site_type_symbol
_atom_site_fract_x
_atom_site_fract_y
_atom_site_fract_z
Zn1	Zn	1.606281	-0.422014	0.593984
Zn2	Zn	1.606179	-0.599315	0.418302
Zn3	Zn	1.430580	-0.422063	0.418322
Zn4	Zn	1.430578	-0.599233	0.593943
O5	O	1.518405	-0.510656	0.506138
O6	O	1.753289	-0.445547	0.570688
O7	O	1.582843	-0.575856	0.271284
O8	O	1.453931	-0.273709	0.441650
O9	O	1.753213	-0.575809	0.441615
O10	O	1.583018	-0.273673	0.570708
O11	O	1.453831	-0.445630	0.271299
O12	O	1.283559	-0.445551	0.441610
O13	O	1.453928	-0.575670	0.740969
O14	O	1.283557	-0.575717	0.570638
O15	O	1.583016	-0.445468	0.740999
O16	O	1.582841	-0.747651	0.441575
O17	O	1.453828	-0.747591	0.570618
C18	C	1.245437	-0.510631	0.506122
C19	C	1.128661	-0.510646	0.506141
C20	C	1.518352	-0.786086	0.506113
C21	C	1.518426	-0.903916	0.506137
C22	C	0.964101	-0.442966	0.573460
C23	C	1.073825	-0.442945	0.573453
C24	C	1.073766	-0.578380	0.438839
C25	C	0.964044	-0.578406	0.438852
C26	C	1.223832	-0.405184	0.697406
C27	C	1.278723	-0.337440	0.764695
C28	C	1.243117	-0.234029	0.781008
C29	C	1.152623	-0.198340	0.730016
C30	C	1.097738	-0.266077	0.662719
C31	C	1.133342	-0.369503	0.646426
C32	C	0.814035	-0.616156	0.314897
C33	C	0.759148	-0.683889	0.247594
C34	C	0.794752	-0.787302	0.231270
C35	C	0.885250	-0.822988	0.282244
C36	C	0.940137	-0.755255	0.349547
C37	C	0.904526	-0.651843	0.365873
C38	C	1.599457	-1.071473	0.424792
C39	C	1.599721	-0.948913	0.424991
C40	C	1.548455	-0.948290	0.616882
C41	C	1.549098	-1.070889	0.616450
C42	C	1.407332	-1.071243	0.477830
C43	C	1.407865	-0.948639	0.475346
C44	C	1.792438	-0.510682	0.506154
C45	C	1.909214	-0.510692	0.506161
C46	C	1.518483	-0.510554	0.780171
C47	C	1.518517	-0.510511	0.896948
C48	C	1.518486	-0.234151	0.506186
C49	C	1.518521	-0.116321	0.506206
C50	C	1.518387	-0.510681	0.233170
C51	C	1.518557	-0.510426	0.116394
C52	C	1.585738	-0.442704	0.951827
C53	C	1.585756	-0.442658	1.061551
C54	C	1.451328	-0.578236	1.061507
C55	C	1.451306	-0.578275	0.951785
C56	C	1.623363	-0.317585	1.211530
C57	C	1.690601	-0.249787	1.266413
C58	C	1.793113	-0.233536	1.230820
C59	C	1.828409	-0.285098	1.140345
C60	C	1.761177	-0.352903	1.085468
C61	C	1.658650	-0.369135	1.121060
C62	C	1.413709	-0.703350	0.801804
C63	C	1.346481	-0.771161	0.746925
C64	C	1.243967	-0.787424	0.782516
C65	C	1.208676	-0.735881	0.872994
C66	C	1.275903	-0.668069	0.927874
C67	C	1.378416	-0.651805	0.892275
H68	H	0.919462	-0.387829	0.628267
Cl69	Cl	1.268591	-0.535198	0.676918
H70	H	1.347028	-1.100246	0.537127
Cl71	Cl	1.460206	-0.903299	0.713047
Cl72	Cl	1.372897	-0.903872	0.349523
Cl73	Cl	0.645384	-0.639021	0.183501
H74	H	1.539887	-0.330803	1.240514
Cl75	Cl	0.725755	-0.872447	0.146647
H76	H	1.013826	-0.784318	0.391052
Cl77	Cl	1.312125	-0.148869	0.865601
Cl78	Cl	0.930051	-0.952976	0.261674
Cl79	Cl	0.983981	-0.221220	0.598616
H80	H	1.911888	-0.271867	1.111378
H81	H	1.847858	-0.178332	1.275514
Cl82	Cl	1.674578	-1.114914	0.653557
H83	H	0.785035	-0.531949	0.328187
Cl84	Cl	1.366845	-0.663426	1.130453
H85	H	1.580903	-1.101032	0.342436
H86	H	1.247160	-0.626100	1.001546
Cl87	Cl	1.570645	-0.902594	0.298227
H88	H	1.681369	-1.102204	0.443350
H89	H	1.492730	-1.100551	0.679199
Cl90	Cl	1.079798	-0.756326	0.917745
H91	H	1.189235	-0.842652	0.737828
H92	H	1.375229	-0.813140	0.673260
H93	H	1.789915	-0.394888	1.011808
Cl94	Cl	1.542577	-0.682876	0.757031
H95	H	1.352404	-0.366508	0.806213
Cl96	Cl	1.107876	-0.068323	0.750514
Cl97	Cl	1.670227	-0.357510	0.882893
H98	H	1.661854	-0.207806	1.340078
Cl99	Cl	1.142702	-0.663496	0.354222
H100	H	1.682075	-0.919505	0.443760
H101	H	1.628811	-0.917502	0.641319
H102	H	1.380025	-1.102258	0.398482
Cl103	Cl	1.309732	-0.901369	0.560186
