data_functionalizedCrystal
_audit_creation_method	'MofGen! by Chris Wilmer'
_symmetry_space_group_name_H-M	'P1'
_symmetry_Int_Tables_number	1
_symmetry_cell_setting	triclinic
loop_
_symmetry_equiv_pos_as_xyz
  x,y,z
_cell_length_a	17.917603
_cell_length_b	23.196402
_cell_length_c	23.196401
_cell_angle_alpha	60.008520
_cell_angle_beta	90.013379
_cell_angle_gamma	57.010034
loop_
_atom_site_label
_atom_site_type_symbol
_atom_site_fract_x
_atom_site_fract_y
_atom_site_fract_z
Zr1	Zr	0.754874	0.577948	-0.049104
O2	O	0.629715	0.707019	-0.145553
O3	O	0.793245	0.454981	-0.019539
O4	O	0.793202	0.575255	-0.139808
O5	O	0.629788	0.586741	0.069589
O6	O	0.922161	0.566188	-0.135275
O7	O	0.629757	0.586744	-0.025284
O8	O	0.922237	0.351039	0.079865
O9	O	0.629712	0.801889	-0.145551
O10	O	0.905847	0.496532	-0.003544
O11	O	0.809629	0.503296	0.063875
O12	O	0.809579	0.644903	-0.077727
O13	O	0.713362	0.651667	-0.010308
Zr14	Zr	0.960598	0.563482	0.109437
Zr15	Zr	0.960549	0.563488	-0.041874
Zr16	Zr	0.754923	0.577942	0.102207
Zr17	Zr	0.754870	0.729256	-0.049101
Zr18	Zr	0.960602	0.412174	0.109434
O19	O	0.922228	0.686450	0.079872
O20	O	0.922158	0.686458	-0.135272
O21	O	0.629785	0.707010	0.069591
O22	O	1.085757	0.434412	0.205886
O23	O	1.085687	0.434420	-0.009258
O24	O	0.793315	0.454972	0.195605
O25	O	1.085684	0.554690	-0.009256
O26	O	0.922270	0.566175	0.200141
O27	O	0.793311	0.575242	0.195608
O28	O	1.085715	0.554686	0.085617
O29	O	0.793196	0.790395	-0.139804
O30	O	0.922276	0.351035	0.200137
O31	O	1.085760	0.339541	0.205884
O32	O	1.085721	0.339545	0.085612
O33	O	0.629751	0.801885	-0.025279
O34	O	0.793235	0.790391	-0.019532
O35	O	0.905893	0.496527	0.138060
O36	O	1.002110	0.489763	0.070641
O37	O	0.905843	0.638134	-0.003542
O38	O	0.809625	0.644898	0.063877
C39	C	0.857741	0.381452	0.030163
C40	C	0.857743	0.317218	0.030161
C41	C	0.907963	-0.149156	-0.005013
C42	C	0.907960	-0.088797	-0.005020
C43	C	0.857737	-0.055084	0.030173
C44	C	0.807492	-0.081719	0.065359
C45	C	0.807488	-0.142071	0.065358
C46	C	0.864935	0.006436	0.092331
C47	C	0.864946	0.066782	0.092334
C48	C	0.857744	0.131063	0.030173
C49	C	0.850551	0.134982	-0.031989
C50	C	0.850547	0.074630	-0.031989
C51	C	0.857735	0.010358	0.030177
C52	C	0.907977	0.223144	-0.005021
C53	C	0.907968	0.283508	-0.005030
C54	C	0.807507	0.290578	0.065355
C55	C	0.807510	0.230222	0.065357
C56	C	0.857750	0.196505	0.030170
C57	C	0.600469	0.588803	0.021122
C58	C	0.513154	0.594942	0.018053
C59	C	0.353308	0.606155	0.012447
C60	C	0.362157	0.535279	0.047884
C61	C	0.273213	0.541518	0.044765
C62	C	0.442258	0.599917	0.015565
C63	C	1.115004	0.552627	0.039211
C64	C	1.202318	0.546489	0.042280
C65	C	0.857675	0.570722	-0.159100
C66	C	0.857654	0.570725	-0.223335
C67	C	0.857731	0.759978	0.030170
C68	C	0.857729	0.824213	0.030171
C69	C	0.807408	0.648170	-0.292231
C70	C	0.807432	0.648170	-0.352585
C71	C	0.857689	0.570720	-0.344040
C72	C	0.907946	0.493264	-0.275133
C73	C	0.907928	0.493266	-0.214780
C74	C	0.850555	0.514592	-0.411610
C75	C	0.850566	0.514593	-0.471963
C76	C	0.857750	0.570710	-0.530186
C77	C	0.864904	0.626840	-0.528056
C78	C	0.864886	0.626842	-0.467704
C79	C	0.857715	0.570709	-0.409478
C80	C	0.807528	0.648160	-0.664527
C81	C	0.807559	0.648156	-0.724881
C82	C	0.908067	0.493248	-0.647426
C83	C	0.908042	0.493254	-0.587074
C84	C	0.857768	0.570713	-0.595630
C85	C	0.857798	0.570708	0.219433
C86	C	0.857819	0.570705	0.283668
C87	C	1.115009	0.363364	0.039207
C88	C	1.202325	0.292991	0.042275
C89	C	0.857803	0.381445	0.219429
C90	C	0.857826	0.317208	0.283663
C91	C	1.115070	0.363357	0.228473
C92	C	1.202407	0.292981	0.295777
C93	C	0.600402	0.778073	-0.168140
C94	C	0.513065	0.848449	-0.235444
C95	C	0.600463	0.778066	0.021126
C96	C	0.513147	0.848439	0.018058
C97	C	0.857669	0.759986	-0.159096
C98	C	0.857647	0.824222	-0.223330
C99	C	1.193081	0.263477	0.004985
C100	C	1.275116	0.197363	0.007854
C101	C	1.366394	0.160760	0.048017
C102	C	1.375636	0.190281	0.085307
C103	C	1.293602	0.256398	0.082434
C104	C	0.908085	0.283508	0.352559
C105	C	0.908102	0.223160	0.412919
C106	C	0.857866	0.196508	0.404383
C107	C	0.807601	0.230214	0.335480
C108	C	0.807578	0.290565	0.275121
C109	C	1.293655	0.256401	0.292192
C110	C	1.375725	0.190284	0.355425
C111	C	1.366546	0.160744	0.422243
C112	C	1.275288	0.197331	0.425826
C113	C	1.193220	0.263451	0.362594
C114	C	0.421817	0.885036	-0.231859
C115	C	0.339747	0.951172	-0.295092
C116	C	0.348927	0.980716	-0.361910
C117	C	0.440184	0.944125	-0.365493
C118	C	0.522252	0.877994	-0.302261
C119	C	0.522391	0.877960	0.055341
C120	C	0.440356	0.944091	0.052456
C121	C	0.349079	0.980695	0.012291
C122	C	0.339836	0.951172	-0.024997
C123	C	0.421870	0.885046	-0.022115
C124	C	0.907893	0.850855	-0.214771
C125	C	0.907890	0.911203	-0.275119
C126	C	0.857635	0.944921	-0.344027
C127	C	0.807387	0.918283	-0.352585
C128	C	0.807396	0.857932	-0.292237
H129	H	0.844687	0.077825	-0.082604
C130	C	0.258850	1.053429	0.009130
H131	H	0.277437	1.065758	0.037094
H132	H	0.221714	1.103135	-0.039258
H133	H	0.221743	1.036253	0.027621
H134	H	1.301147	0.280443	0.237791
H135	H	1.267829	0.173269	0.480238
H136	H	0.857636	0.994063	-0.393160
C137	C	0.963228	0.312803	-0.043735
H138	H	0.993154	0.284071	-0.064684
H139	H	0.919860	0.372833	-0.080237
H140	H	1.010780	0.299562	-0.010156
C141	C	0.857905	0.130116	0.470782
H142	H	0.895043	0.113860	0.513035
H143	H	0.793904	0.154390	0.468545
H144	H	0.884815	0.081126	0.471737
H145	H	0.766609	0.318031	0.094005
H146	H	0.766699	0.208504	0.328540
C147	C	0.752297	0.327623	0.199340
H148	H	0.722392	0.303096	0.202908
H149	H	0.704743	0.387948	0.172578
H150	H	0.795658	0.314669	0.175786
C151	C	0.252843	0.694451	-0.031706
H152	H	0.205386	0.687108	-0.028041
H153	H	0.245579	0.725364	-0.013729
H154	H	0.245574	0.725348	-0.080598
C155	C	1.476095	0.150042	0.351470
H156	H	1.469801	0.177098	0.302618
H157	H	1.510203	0.157539	0.374666
H158	H	1.510196	0.090660	0.374676
C159	C	1.092853	0.303673	0.366546
H160	H	1.099149	0.276600	0.415398
H161	H	1.058734	0.363054	0.343344
H162	H	1.058763	0.296162	0.343348
C163	C	1.456823	0.088014	0.491795
H164	H	1.438294	0.075660	0.532106
H165	H	1.493941	0.038318	0.493098
H166	H	1.493924	0.105206	0.493091
H167	H	0.414330	0.861013	-0.052474
C168	C	0.963182	0.813771	-0.138981
H169	H	0.993111	0.838276	-0.142536
H170	H	0.919833	0.826712	-0.115420
H171	H	1.010733	0.753443	-0.112232
C172	C	1.303777	0.288859	0.123455
H173	H	1.241853	0.333484	0.115992
H174	H	1.337891	0.243126	0.173273
H175	H	1.337859	0.310010	0.106393
C176	C	0.752043	0.955431	-0.428385
H177	H	0.722100	0.930942	-0.424848
H178	H	0.704514	1.015751	-0.455091
H179	H	0.795359	0.942520	-0.451978
H180	H	0.948994	0.305201	0.359523
C181	C	0.963400	0.186087	0.488704
H182	H	0.956215	0.146334	0.523434
H183	H	1.029494	0.157894	0.496317
H184	H	0.938590	0.231170	0.493118
H185	H	0.766592	0.711231	-0.671494
C186	C	0.963269	0.408068	-0.511287
H187	H	0.956056	0.419162	-0.476568
H188	H	0.938445	0.379463	-0.506900
H189	H	1.029381	0.373028	-0.503634
C190	C	0.963152	0.940504	-0.265693
H191	H	0.993065	0.911788	-0.216011
H192	H	1.010698	0.927267	-0.286019
H193	H	0.919775	1.000538	-0.289226
H194	H	0.766475	0.836255	-0.299216
C195	C	0.411701	0.852560	-0.158368
H196	H	0.345598	0.883837	-0.165299
H197	H	0.441617	0.793476	-0.132230
H198	H	0.441629	0.860353	-0.132241
H199	H	0.447900	0.968117	0.082823
H200	H	0.766647	0.711224	-0.780981
C201	C	0.239377	0.991403	-0.291137
H202	H	0.245672	0.964323	-0.242285
H203	H	0.205270	1.050780	-0.314331
H204	H	0.205275	0.983908	-0.314346
C205	C	0.752117	0.733370	-0.301643
H206	H	0.722202	0.779494	-0.351322
H207	H	0.704571	0.739788	-0.281321
H208	H	0.795478	0.733396	-0.278099
H209	H	0.282094	1.034564	-0.413392
C210	C	0.450269	0.976622	-0.438995
H211	H	0.388319	1.021239	-0.476135
H212	H	0.484354	0.997773	-0.443104
H213	H	0.484342	0.930897	-0.443097
H214	H	0.766581	-0.163753	0.094010
C215	C	0.622621	0.837723	-0.306210
H216	H	0.670191	0.794101	-0.258985
H217	H	0.629766	0.813688	-0.331042
H218	H	0.629832	0.880534	-0.331034
C219	C	0.622786	0.837706	0.099526
H220	H	0.616529	0.864772	0.121308
H221	H	0.656891	0.778328	0.135700
H222	H	0.656869	0.845204	0.068821
C223	C	1.456625	0.088027	0.051179
H224	H	1.512316	0.070453	0.080436
H225	H	1.456625	0.040944	0.070962
H226	H	1.456606	0.107821	0.004087
C227	C	0.462624	0.446975	0.092029
H228	H	0.456478	0.403326	0.113855
H229	H	0.496671	0.441565	0.061297
H230	H	0.496700	0.441553	0.128180
C231	C	0.239430	0.991434	-0.069169
H232	H	0.245664	0.964389	-0.090968
H233	H	0.205359	0.983937	-0.038459
H234	H	0.205328	1.050816	-0.105342
C235	C	0.963228	-0.186247	-0.043712
H236	H	0.956043	-0.226013	-0.038667
H237	H	0.938420	-0.141183	-0.093207
H238	H	1.029331	-0.214449	-0.023121
H239	H	0.948868	-0.067109	-0.033672
C240	C	0.963349	0.408055	-0.638020
H241	H	0.956160	0.419145	-0.683831
H242	H	1.029444	0.373035	-0.610604
H243	H	0.938534	0.379432	-0.613833
H244	H	0.844684	0.187322	-0.082606
H245	H	0.844697	0.468896	-0.364206
C246	C	0.963227	0.186062	-0.043732
H247	H	0.993133	0.210580	-0.064698
H248	H	1.010778	0.125738	-0.010161
H249	H	0.919846	0.199010	-0.080233
H250	H	0.766609	0.208534	0.094011
H251	H	0.948867	0.430204	-0.268179
C252	C	0.842694	0.452857	-0.474307
H253	H	0.843720	0.460900	-0.518592
H254	H	0.895229	0.395504	-0.435736
H255	H	0.784259	0.464095	-0.470050
C256	C	0.872857	0.062470	0.160708
H257	H	0.877128	0.015554	0.197724
H258	H	0.928638	0.055074	0.175667
H259	H	0.817670	0.114120	0.150916
H260	H	0.766513	0.711237	-0.408691
C261	C	0.872760	0.688575	-0.465354
H262	H	0.871713	0.680540	-0.421074
H263	H	0.931190	0.677341	-0.469609
H264	H	0.820220	0.745932	-0.503928
C265	C	0.872829	-0.064255	0.160705
H266	H	0.877119	-0.057948	0.197726
H267	H	0.817638	-0.059682	0.150908
H268	H	0.928607	-0.118744	0.175669
C269	C	0.872829	0.688558	-0.592088
H270	H	0.871832	0.680510	-0.628333
H271	H	0.820297	0.745918	-0.610888
H272	H	0.931264	0.677306	-0.576546
H273	H	0.766598	-0.054265	0.094011
C274	C	1.264932	0.164893	-0.033159
H275	H	1.198820	0.196154	-0.057477
H276	H	1.294821	0.172688	-0.067091
H277	H	1.294861	0.105804	-0.000204
H278	H	0.948846	0.430199	-0.158680
H279	H	1.118765	0.293278	-0.027728
H280	H	1.449965	0.160469	0.118006
