data_functionalizedCrystal
_audit_creation_method	'MofGen! by Chris Wilmer'
_symmetry_space_group_name_H-M	'P1'
_symmetry_Int_Tables_number	1
_symmetry_cell_setting	triclinic
loop_
_symmetry_equiv_pos_as_xyz
  x,y,z
_cell_length_a	19.805407
_cell_length_b	17.640280
_cell_length_c	19.805398
_cell_angle_alpha	78.779257
_cell_angle_beta	89.984135
_cell_angle_gamma	78.800112
loop_
_atom_site_label
_atom_site_type_symbol
_atom_site_fract_x
_atom_site_fract_y
_atom_site_fract_z
Zn1	Zn	1.089261	-0.314691	-0.328315
Zn2	Zn	1.112094	-0.446860	-0.192278
Zn3	Zn	0.976086	-0.314709	-0.215137
Zn4	Zn	0.998944	-0.446822	-0.305431
O5	O	1.044096	-0.380770	-0.260290
O6	O	1.187008	-0.332232	-0.310280
O7	O	1.094042	-0.429353	-0.100589
O8	O	0.971978	-0.204103	-0.249294
O9	O	1.203784	-0.429336	-0.210334
O10	O	1.055127	-0.204090	-0.332446
O11	O	0.994118	-0.332262	-0.117384
O12	O	0.884400	-0.332225	-0.227104
O13	O	1.010935	-0.429271	-0.403187
O14	O	0.901194	-0.429288	-0.293443
O15	O	1.077291	-0.332195	-0.420000
O16	O	1.116206	-0.557458	-0.188144
O17	O	1.033075	-0.557430	-0.271277
C18	C	0.868238	-0.380755	-0.260271
C19	C	0.793008	-0.380768	-0.260275
C20	C	0.766439	-0.431384	-0.294735
C21	C	0.695751	-0.431386	-0.294744
C22	C	0.651633	-0.380774	-0.260290
C23	C	0.678206	-0.330152	-0.225829
C24	C	0.748893	-0.330147	-0.225824
C25	C	0.393136	-0.330169	-0.225849
C26	C	0.322446	-0.330179	-0.225854
C27	C	0.339994	-0.431408	-0.294768
C28	C	0.410680	-0.431403	-0.294763
C29	C	0.437247	-0.380778	-0.260306
C30	C	0.513895	-0.380776	-0.260298
C31	C	0.574987	-0.380779	-0.260294
C32	C	1.079617	-0.586122	-0.224761
C33	C	1.094875	-0.673972	-0.209584
C34	C	0.928462	-0.962966	-0.375833
C35	C	0.942800	-1.045515	-0.361551
C36	C	1.029419	-1.045478	-0.275071
C37	C	1.015090	-0.962928	-0.289349
C38	C	0.964610	-0.921678	-0.339730
C39	C	1.051238	-0.921640	-0.253246
C40	C	1.036908	-0.839097	-0.267520
C41	C	0.986429	-0.797841	-0.317897
C42	C	0.950280	-0.839135	-0.354004
C43	C	1.101714	-0.962891	-0.202862
C44	C	1.137862	-0.921604	-0.166759
C45	C	1.123536	-0.839059	-0.181036
C46	C	1.073057	-0.797803	-0.231413
C47	C	1.159685	-0.797766	-0.144929
C48	C	1.145355	-0.715222	-0.159203
C49	C	1.058727	-0.715260	-0.245687
C50	C	1.220642	-0.380786	-0.260310
C51	C	1.295875	-0.380793	-0.260318
C52	C	1.044115	-0.380726	-0.436841
C53	C	1.044123	-0.380708	-0.512076
C54	C	1.008455	-0.174617	-0.295973
C55	C	0.993267	-0.086766	-0.311179
C56	C	1.078732	-0.330020	-0.982647
C57	C	1.078726	-0.330045	-0.911954
C58	C	1.044174	-0.380598	-0.867857
C59	C	1.009632	-0.431136	-0.894454
C60	C	1.009643	-0.431115	-0.965145
C61	C	1.009588	-0.431222	-0.609366
C62	C	1.009578	-0.431237	-0.538671
C63	C	1.078671	-0.330151	-0.556175
C64	C	1.078682	-0.330130	-0.626866
C65	C	1.044143	-0.380671	-0.653457
C66	C	1.044152	-0.380645	-0.730110
C67	C	1.044161	-0.380620	-0.791206
C68	C	1.044107	-0.380757	-0.084436
C69	C	1.044191	-0.380553	-0.009240
H70	H	0.802356	-0.472601	-0.322789
O71	O	0.972400	-0.717659	-0.331831
C72	C	0.920108	-0.690106	-0.384052
H73	H	0.888821	-0.737707	-0.385259
H74	H	0.944362	-0.675416	-0.435972
C75	C	0.910915	-0.557089	-0.367845
C76	C	0.872484	-0.615551	-0.369324
H77	H	0.881539	-0.511098	-0.358763
H78	H	0.946147	-0.575650	-0.332665
H79	H	0.931124	-0.544857	-0.411114
H80	H	0.852283	-0.627789	-0.326053
H81	H	0.837248	-0.596990	-0.404497
H82	H	0.770523	-0.288925	-0.197768
H83	H	0.674122	-0.472604	-0.322803
O84	O	0.418957	-0.280917	-0.192486
C85	C	0.451051	-0.229937	-0.239908
H86	H	0.428937	-0.225137	-0.294055
H87	H	0.508852	-0.254373	-0.237974
C88	C	0.465063	-0.153616	-0.154673
C89	C	0.437898	-0.147716	-0.221177
H90	H	0.456953	-0.102900	-0.143118
H91	H	0.443443	-0.187964	-0.122723
H92	H	0.513229	-0.173983	-0.153070
H93	H	0.389732	-0.127359	-0.222776
H94	H	0.459509	-0.113363	-0.253127
H95	H	0.286526	-0.288960	-0.197798
H96	H	0.642280	-0.288939	-0.197779
H97	H	1.017626	-0.681673	-0.286718
O98	O	1.112306	-0.280998	-0.669601
C99	C	1.142779	-0.236387	-0.630972
H100	H	1.150711	-0.268774	-0.574978
H101	H	1.107615	-0.176359	-0.633842
C102	C	1.203110	-0.185220	-0.729309
C103	C	1.212858	-0.225001	-0.660538
H104	H	1.246337	-0.178193	-0.747548
H105	H	1.182578	-0.215272	-0.755336
H106	H	1.173804	-0.135200	-0.731692
H107	H	1.242156	-0.275023	-0.658157
H108	H	1.233397	-0.194957	-0.634512
H109	H	1.174790	-0.681605	-0.129804
H110	H	0.909179	-0.805548	-0.395035
O111	O	0.976106	-0.480298	-0.635298
C112	C	0.983516	-0.469440	-0.707147
H113	H	1.031269	-0.443541	-0.721288
H114	H	0.936089	-0.427360	-0.734498
C115	C	0.932520	-0.581221	-0.712219
C116	C	0.991175	-0.549417	-0.729585
H117	H	0.937241	-0.630553	-0.726061
H118	H	0.927525	-0.588535	-0.663813
H119	H	0.893003	-0.546147	-0.735012
H120	H	1.030689	-0.584486	-0.706785
H121	H	0.996176	-0.542111	-0.777988
O122	O	0.453435	-0.480593	-0.328292
C123	C	0.414828	-0.525283	-0.358697
H124	H	0.358841	-0.492919	-0.366689
H125	H	0.417682	-0.585274	-0.323449
C126	C	0.513197	-0.576532	-0.418910
C127	C	0.444433	-0.536779	-0.428731
H128	H	0.531459	-0.583627	-0.462109
H129	H	0.539208	-0.546426	-0.398424
H130	H	0.515565	-0.626520	-0.389535
H131	H	0.442066	-0.486788	-0.458099
H132	H	0.418422	-0.566877	-0.449224
O133	O	0.976029	-0.480227	-0.990871
C134	C	0.945543	-0.524865	-0.936790
H135	H	0.937592	-0.492505	-0.892002
H136	H	0.980709	-0.584896	-0.918884
C137	C	0.885247	-0.575992	-1.017414
C138	C	0.875476	-0.536244	-0.962407
H139	H	0.842027	-0.583015	-1.033216
H140	H	0.905787	-0.545921	-1.053850
H141	H	0.914554	-0.626013	-1.002485
H142	H	0.846177	-0.486220	-0.977339
H143	H	0.854929	-0.566307	-0.925974
O144	O	1.115764	-1.043074	-0.188996
C145	C	1.185396	-1.070579	-0.201694
H146	H	1.216122	-1.022977	-0.198397
H147	H	1.189337	-1.085200	-0.255327
C148	C	1.176892	-1.203642	-0.151617
C149	C	1.214631	-1.145179	-0.147562
H150	H	1.194925	-1.249661	-0.118228
H151	H	1.129978	-1.185113	-0.143064
H152	H	1.180179	-1.215817	-0.196314
H153	H	1.211336	-1.132998	-0.102869
H154	H	1.261545	-1.163708	-0.156106
H155	H	0.913368	-1.079128	-0.390962
O156	O	0.879392	-0.923011	-0.424784
C157	C	0.850576	-0.977150	-0.453612
H158	H	0.858455	-1.036005	-0.415709
H159	H	0.876856	-0.985887	-0.503524
C160	C	0.763276	-0.872699	-0.515432
C161	C	0.772949	-0.944983	-0.468877
H162	H	0.715393	-0.852856	-0.524852
H163	H	0.782692	-0.836224	-0.496013
H164	H	0.785181	-0.879989	-0.557020
H165	H	0.751051	-0.937690	-0.427287
H166	H	0.753528	-0.981457	-0.488290
H167	H	1.070517	-1.079075	-0.234049
H168	H	0.981437	-0.472403	-0.502768
H169	H	0.318355	-0.472626	-0.322828
O170	O	1.186973	-0.961596	-0.117869
C171	C	1.250916	-0.941383	-0.136232
H172	H	1.241901	-0.881436	-0.172617
H173	H	1.281743	-0.987804	-0.163027
C174	C	1.302373	-1.011200	-0.026258
C175	C	1.291300	-0.937570	-0.070942
H176	H	1.327286	-1.008851	0.014016
H177	H	1.259294	-1.024821	-0.013887
H178	H	1.328060	-1.049877	-0.048595
H179	H	1.265606	-0.898896	-0.048607
H180	H	1.334375	-0.923942	-0.083308
H181	H	1.106855	-0.288898	-0.890306
H182	H	1.200780	-0.831364	-0.103904
O183	O	1.112127	-0.281019	-0.530277
C184	C	1.064755	-0.229967	-0.498233
H185	H	1.018282	-0.257846	-0.482810
H186	H	1.047190	-0.171389	-0.535615
C187	C	1.156593	-0.181429	-0.452510
C188	C	1.099516	-0.215674	-0.433562
H189	H	1.178035	-0.172608	-0.412620
H190	H	1.188509	-0.215821	-0.474101
H191	H	1.141947	-0.132617	-0.483662
H192	H	1.114164	-0.264488	-0.402418
H193	H	1.067604	-0.181289	-0.411965
H194	H	1.106863	-0.288849	-1.018548
H195	H	0.981502	-0.472301	-0.858543
