data_functionalizedCrystal
_audit_creation_method	'MofGen! by Chris Wilmer'
_symmetry_space_group_name_H-M	'P1'
_symmetry_Int_Tables_number	1
_symmetry_cell_setting	triclinic
loop_
_symmetry_equiv_pos_as_xyz
  x,y,z
_cell_length_a	14.446369
_cell_length_b	14.446369
_cell_length_c	19.377372
_cell_angle_alpha	48.620146
_cell_angle_beta	89.998266
_cell_angle_gamma	59.996355
loop_
_atom_site_label
_atom_site_type_symbol
_atom_site_fract_x
_atom_site_fract_y
_atom_site_fract_z
Zr1	Zr	0.864564	1.067528	-0.114438
O2	O	0.683690	1.326776	-0.253714
O3	O	0.920018	0.854135	-0.071741
O4	O	0.876821	1.133640	-0.253706
O5	O	0.760953	0.979130	0.071787
O6	O	1.029160	1.133630	-0.253701
O7	O	0.726886	1.047271	-0.071749
O8	O	1.106430	0.633646	0.071801
O9	O	0.683682	1.479113	-0.253715
O10	O	1.057349	0.924916	-0.053529
O11	O	0.969084	0.874071	0.053587
O12	O	0.918226	1.203152	-0.160654
O13	O	0.829961	1.152307	-0.053538
Zr14	Zr	1.161859	0.958834	0.114494
Zr15	Zr	1.107526	1.067511	-0.114429
Zr16	Zr	0.918897	0.958851	0.114486
Zr17	Zr	0.864552	1.310489	-0.114439
Zr18	Zr	1.161870	0.715873	0.114496
O19	O	1.106405	1.172226	0.071797
O20	O	1.029151	1.326751	-0.253702
O21	O	0.760944	1.172251	0.071785
O22	O	1.342733	0.699586	0.253770
O23	O	1.265479	0.854111	-0.071729
O24	O	0.997272	0.699611	0.253758
O25	O	1.265469	1.047232	-0.071731
O26	O	1.149601	0.892721	0.253762
O27	O	0.997263	0.892732	0.253757
O28	O	1.299536	0.979091	0.071805
O29	O	0.876805	1.479099	-0.253708
O30	O	1.149618	0.547263	0.253765
O31	O	1.342740	0.547249	0.253771
O32	O	1.299553	0.633632	0.071808
O33	O	0.726870	1.392729	-0.071752
O34	O	0.919992	1.392716	-0.071745
O35	O	1.108197	0.823210	0.160710
O36	O	1.196461	0.874055	0.053594
O37	O	1.057338	1.152291	-0.053530
O38	O	0.969074	1.101446	0.053585
C39	C	1.013226	0.709274	0.000030
C40	C	1.013231	0.606131	0.000031
C41	C	1.068899	0.598922	-0.067538
C42	C	1.068478	0.492175	-0.067902
C43	C	0.878014	0.570171	-0.048902
C44	C	0.878308	0.677788	-0.049409
C45	C	1.091746	0.423994	0.116564
C46	C	1.094177	0.315616	0.116384
C47	C	0.709303	1.013203	0.000018
C48	C	0.606159	1.013210	0.000014
C49	C	0.371829	1.188517	-0.067209
C50	C	0.478971	1.188793	-0.067587
C51	C	0.591143	0.965372	-0.049265
C52	C	0.483257	0.966516	-0.049758
C53	C	0.524105	0.884587	0.116602
C54	C	0.630030	0.887377	0.116418
C55	C	1.317120	1.013159	0.000039
C56	C	1.420264	1.013152	0.000042
C57	C	0.945249	1.149119	-0.286320
C58	C	0.922183	1.195255	-0.383504
C59	C	1.013197	1.317088	0.000026
C60	C	1.013192	1.420231	0.000025
C61	C	1.209389	0.620826	-0.423546
C62	C	1.187691	0.664216	-0.514880
C63	C	1.042457	0.954674	-0.626700
C64	C	1.064147	0.911308	-0.535374
C65	C	1.147614	0.744381	-0.433802
C66	C	1.002372	1.034863	-0.545631
C67	C	1.024056	0.991500	-0.454312
C68	C	1.107516	0.824581	-0.352738
C69	C	1.169298	0.701018	-0.342484
C70	C	0.918900	1.201789	-0.647204
C71	C	0.857125	1.325344	-0.657460
C72	C	0.878815	1.281982	-0.566141
C73	C	0.962274	1.115063	-0.464566
C74	C	0.817033	1.405545	-0.576395
C75	C	0.838717	1.362182	-0.485076
C76	C	0.983959	1.071700	-0.373248
C77	C	1.081173	0.877243	0.286376
C78	C	1.104239	0.831106	0.383560
C79	C	1.317134	0.709252	0.000041
C80	C	1.420283	0.606102	0.000045
C81	C	1.081188	0.573336	0.286378
C82	C	1.104258	0.424057	0.383563
C83	C	1.385096	0.573314	0.286389
C84	C	1.511311	0.424028	0.383577
C85	C	0.641326	1.453048	-0.286333
C86	C	0.515112	1.602334	-0.383521
C87	C	0.709288	1.317109	0.000015
C88	C	0.606140	1.420260	0.000011
C89	C	0.945235	1.453026	-0.286322
C90	C	0.922164	1.602305	-0.383507
C91	C	1.187710	0.327400	0.485129
C92	C	1.209385	0.187146	0.576453
C93	C	1.147614	0.143544	0.566209
C94	C	1.064152	0.240215	0.464632
C95	C	1.042472	0.380473	0.373311
C96	C	1.616666	0.380461	0.373305
C97	C	1.735265	0.240208	0.464614
C98	C	1.748506	0.143517	0.566196
C99	C	1.643139	0.187094	0.576466
C100	C	1.524543	0.327351	0.485157
C101	C	0.409757	1.645912	-0.373248
C102	C	0.291158	1.786195	-0.464558
C103	C	0.277917	1.882892	-0.566140
C104	C	0.383283	1.839309	-0.576410
C105	C	0.501880	1.699034	-0.485101
C106	C	0.983955	1.645860	-0.373229
C107	C	0.962302	1.786107	-0.464535
C108	C	0.878851	1.882803	-0.566119
C109	C	0.817059	1.839238	-0.576395
C110	C	0.838719	1.698987	-0.485090
C111	C	1.654611	0.427866	0.067261
C112	C	1.547465	0.534614	0.067643
C113	C	1.435313	0.455848	0.049324
C114	C	1.543203	0.348232	0.049812
C115	C	1.502337	0.602189	-0.116549
C116	C	1.396408	0.710579	-0.116361
H117	H	0.832866	0.685671	-0.003363
N118	N	1.254348	0.374396	0.496202
H119	H	1.232779	0.395466	0.536532
H120	H	1.227938	0.477878	0.422911
H121	H	0.974522	0.459159	0.290615
H122	H	1.012623	1.821557	-0.456147
N123	N	1.716137	0.497323	0.023937
H124	H	1.746671	0.500989	0.068304
H125	H	1.654304	0.612844	-0.052638
N126	N	1.876425	-0.007759	0.664675
H127	H	1.941152	-0.020677	0.642743
H128	H	1.886804	-0.108961	0.708587
H129	H	0.296557	1.285111	-0.152673
N130	N	0.751979	0.714550	0.188386
H131	H	0.764770	0.636530	0.262553
H132	H	0.821974	0.714156	0.191528
N133	N	1.199289	0.353365	-0.024489
H134	H	1.224653	0.243519	0.041134
H135	H	1.257655	0.361276	-0.005004
H136	H	1.821046	0.204747	0.456233
H137	H	1.013864	0.204693	0.456307
H138	H	1.165279	0.029333	0.640577
N139	N	0.576306	0.712957	0.183291
H140	H	0.532946	0.718371	0.138279
H141	H	0.562760	0.666689	0.246048
N142	N	0.952445	1.134710	-0.736250
H143	H	0.867395	1.190672	-0.744805
H144	H	0.948183	1.143301	-0.792481
N145	N	0.149998	2.034184	-0.664618
H146	H	0.085271	2.047103	-0.642687
H147	H	0.139623	2.021234	-0.708530
H148	H	0.456115	1.285842	-0.153569
N149	N	0.368992	1.943609	-0.685975
H150	H	0.277872	2.039074	-0.742252
H151	H	0.409827	1.873618	-0.694441
H152	H	0.484993	1.229396	-0.034789
N153	N	1.577742	0.430929	0.181535
H154	H	1.660820	0.315618	0.231687
H155	H	1.511374	0.425132	0.191029
N156	N	0.895539	1.248436	-0.745650
H157	H	0.918863	1.315899	-0.789646
H158	H	0.804732	1.315796	-0.789501
H159	H	1.542583	0.661302	-0.157715
H160	H	1.277349	0.108450	0.659152
H161	H	0.788393	1.663543	-0.493473
N162	N	0.615510	1.652036	-0.496189
H163	H	0.589114	1.734583	-0.574397
H164	H	0.666714	1.537927	-0.460749
H165	H	1.613911	0.216755	0.135583
H166	H	0.789164	1.461255	-0.740170
H167	H	1.388187	0.818544	-0.153173
H168	H	1.605907	0.459172	0.290600
H169	H	0.420515	1.567189	-0.290544
N170	N	0.567247	1.084326	-0.161805
H171	H	0.639345	1.079825	-0.160847
H172	H	0.488635	1.200284	-0.207080
H173	H	1.167859	0.546326	-0.034930
N174	N	0.709483	0.796315	0.012477
H175	H	0.697705	0.768122	-0.020600
H176	H	0.730680	0.711258	0.089109
N177	N	1.657430	0.082797	0.686032
H178	H	1.748551	-0.012665	0.742308
H179	H	1.616598	0.038630	0.694496
H180	H	1.013651	0.729282	-0.152990
H181	H	1.729886	0.297622	0.152724
N182	N	1.410913	0.374326	0.496245
H183	H	1.437309	0.291779	0.574453
H184	H	1.359712	0.374273	0.460804
H185	H	1.304355	0.768497	-0.170682
N186	N	0.727014	1.585581	-0.685945
H187	H	0.641967	1.641534	-0.694494
H188	H	0.722750	1.594169	-0.742175
N189	N	1.316987	0.514606	-0.012412
H190	H	1.333949	0.474852	-0.042187
H191	H	1.252395	0.639492	-0.073018
N192	N	1.073964	1.541583	-0.263671
H193	H	1.109818	1.590471	-0.271030
H194	H	1.143195	1.425151	-0.223347
H195	H	0.483849	0.910939	0.157769
H196	H	1.541231	0.639655	0.034593
H197	H	0.205378	1.821654	-0.456175
N198	N	0.855508	2.034060	-0.664594
H199	H	0.907322	2.046965	-0.642658
H200	H	0.764681	2.135277	-0.708518
N201	N	1.493505	0.337348	-0.010871
H202	H	1.457377	0.285263	0.024615
H203	H	1.563193	0.267455	-0.011010
H204	H	0.749112	1.917989	-0.659117
H205	H	1.453346	0.376956	0.134282
H206	H	0.817270	0.809362	-0.135150
H207	H	0.833358	0.525449	-0.002031
N208	N	1.450144	0.601028	-0.183239
H209	H	1.493512	0.483253	-0.138229
H210	H	1.463686	0.652512	-0.245998
H211	H	1.237270	0.565090	-0.259775
N212	N	0.772086	1.495437	-0.496129
H213	H	0.715923	1.607763	-0.574330
H214	H	0.834996	1.483764	-0.460672
H215	H	1.237998	0.563590	-0.506516
N216	N	0.994683	0.596016	-0.181767
H217	H	0.962294	0.711396	-0.231919
H218	H	0.922607	0.601583	-0.191029
H219	H	1.191103	0.365094	0.157473
N220	N	0.797024	0.674813	-0.161387
H221	H	0.847646	0.625388	-0.180834
H222	H	0.763676	0.790841	-0.212536
N223	N	1.299427	0.440784	-0.313985
H224	H	1.335281	0.369084	-0.321339
H225	H	1.254514	0.416466	-0.273658
N226	N	1.226253	0.172901	0.164801
H227	H	1.227618	0.100057	0.167375
H228	H	1.277825	0.106181	0.239608
H229	H	0.412553	1.057856	-0.135530
N230	N	0.532940	0.798326	0.010917
H231	H	0.599732	0.711489	0.086899
H232	H	0.569005	0.773183	-0.024649
H233	H	1.051771	0.424546	0.167136
N234	N	1.049389	0.238442	0.188652
H235	H	0.975632	0.270351	0.146800
H236	H	1.024288	0.279254	0.217677
H237	H	0.325676	1.229199	-0.034322
H238	H	0.638247	0.921838	0.153232
H239	H	1.125163	0.789279	-0.278383
N240	N	1.073999	0.891658	-0.263687
H241	H	1.044916	0.835690	-0.255118
H242	H	1.078320	0.883094	-0.207468
