data_functionalizedCrystal
_audit_creation_method	'MofGen! by Chris Wilmer'
_symmetry_space_group_name_H-M	'P1'
_symmetry_Int_Tables_number	1
_symmetry_cell_setting	triclinic
loop_
_symmetry_equiv_pos_as_xyz
  x,y,z
_cell_length_a	14.044191
_cell_length_b	12.503572
_cell_length_c	14.044220
_cell_angle_alpha	86.154684
_cell_angle_beta	93.190327
_cell_angle_gamma	93.837835
loop_
_atom_site_label
_atom_site_type_symbol
_atom_site_fract_x
_atom_site_fract_y
_atom_site_fract_z
O1	O	1.282208	0.089264	0.225146
O2	O	1.005536	0.089277	0.216832
O3	O	1.139719	0.089266	0.082653
O4	O	1.148025	0.089275	0.359324
O5	O	1.129629	-0.089375	0.092763
O6	O	0.995446	-0.089364	0.226941
O7	O	1.272118	-0.089378	0.235255
Cu8	Cu	1.132861	-0.105682	0.232021
Cu9	Cu	1.144793	0.105582	0.220066
O10	O	1.137935	-0.089366	0.369434
C11	C	0.964869	-0.000041	0.218250
C12	C	0.858726	-0.000036	0.207403
N13	N	1.124475	-0.254274	0.240430
C14	C	0.613267	-0.000045	0.264504
C15	C	0.664393	-0.000046	0.187587
C16	C	0.772530	-0.000040	0.198615
C17	C	0.505120	-0.000050	0.253477
C18	C	1.112140	-0.473388	0.252808
C19	C	1.165518	-0.526719	0.199275
C20	C	1.158654	-0.648642	0.206162
C21	C	1.119002	-0.351454	0.245922
C22	C	1.312785	-0.000056	0.233837
C23	C	1.418928	-0.000055	0.244684
C24	C	1.131038	-0.000053	0.052086
C25	C	1.120194	-0.000050	-0.054057
N26	N	1.153186	0.254173	0.211650
C27	C	1.146616	-0.000044	0.400001
C28	C	1.157461	-0.000041	0.506144
C29	C	1.177287	-0.000047	0.700482
C30	C	1.100372	-0.000044	0.751610
C31	C	1.111404	-0.000047	0.859747
C32	C	1.166257	-0.000044	0.592336
H33	H	0.626954	0.000027	0.113451
H34	H	1.061291	-0.519291	0.303808
N35	N	0.662851	-0.000029	0.362698
H36	H	0.700328	-0.066245	0.374448
H37	H	0.707742	0.066243	0.366872
N38	N	1.232881	-0.465920	0.131715
H39	H	1.228302	-0.386178	0.136308
H40	H	1.300475	-0.485506	0.149491
H41	H	1.251414	-0.000055	0.737922
H42	H	1.026238	-0.000041	0.714169
