data_functionalizedCrystal
_audit_creation_method	'MofGen! by Chris Wilmer'
_symmetry_space_group_name_H-M	'P1'
_symmetry_Int_Tables_number	1
_symmetry_cell_setting	triclinic
loop_
_symmetry_equiv_pos_as_xyz
  x,y,z
_cell_length_a	23.532361
_cell_length_b	23.532407
_cell_length_c	15.072220
_cell_angle_alpha	89.994175
_cell_angle_beta	89.991810
_cell_angle_gamma	82.839173
loop_
_atom_site_label
_atom_site_type_symbol
_atom_site_fract_x
_atom_site_fract_y
_atom_site_fract_z
O1	O	0.755284	0.069005	-0.073702
O2	O	0.589417	0.079036	-0.073725
O3	O	0.677352	-0.008912	-0.073697
O4	O	0.667348	0.156953	-0.073731
O5	O	0.677330	-0.008907	0.073868
O6	O	0.589395	0.079041	0.073840
O7	O	0.755262	0.069010	0.073863
Zn8	Zn	0.672325	0.074026	0.097281
Zn9	Zn	0.672354	0.074019	-0.097143
O10	O	0.667327	0.156958	0.073834
C11	C	0.568189	0.078787	0.000055
C12	C	0.504971	0.078032	0.000047
C13	C	0.231739	0.074726	-0.080385
C14	C	0.291139	0.075440	-0.080387
O15	O	0.321875	0.075788	-0.148795
N16	N	0.320832	0.075804	0.000051
C17	C	0.291124	0.075447	0.080497
O18	O	0.321836	0.075822	0.148915
C19	C	0.231726	0.074728	0.080498
C20	C	0.202035	0.074370	0.000055
C21	C	0.202047	0.074367	-0.160821
C22	C	0.142651	0.073653	-0.160819
C23	C	0.112947	0.073298	-0.080379
C24	C	0.142639	0.073657	0.000057
C25	C	0.202020	0.074367	0.160943
C26	C	0.142618	0.073648	0.160937
C27	C	0.112926	0.073290	0.080494
C28	C	0.053539	0.072588	0.080499
N29	N	0.023845	0.072224	0.000061
C30	C	0.053549	0.072579	-0.080378
C31	C	0.415864	0.076956	0.080487
C32	C	0.475261	0.077679	0.080487
C33	C	0.475271	0.077671	-0.080397
C34	C	0.415873	0.076952	-0.080396
C35	C	0.386171	0.076593	0.000049
C36	C	-0.071186	0.071080	-0.080366
C37	C	-0.130588	0.070369	-0.080357
C38	C	-0.130593	0.070374	0.080527
C39	C	-0.071197	0.071088	0.080518
C40	C	-0.041495	0.071440	0.000064
O41	O	0.022765	0.072237	0.148872
O42	O	0.022832	0.072197	-0.148785
C43	C	0.677086	-0.030126	0.000088
C44	C	0.676320	-0.093343	0.000095
C45	C	0.723555	-0.492454	0.000052
C46	C	0.722844	-0.551854	0.000046
O47	O	0.766630	-0.588606	0.000019
N48	N	0.670566	-0.574471	0.000039
C49	C	0.618997	-0.537685	0.000031
O50	O	0.574465	-0.562377	0.000024
C51	C	0.619709	-0.478286	0.000031
C52	C	0.671990	-0.455672	0.000046
C53	C	0.775832	-0.469839	0.000067
C54	C	0.776543	-0.410443	0.000075
C55	C	0.724977	-0.373662	0.000069
C56	C	0.672701	-0.396276	0.000055
C57	C	0.568140	-0.441501	0.000016
C58	C	0.568857	-0.382099	0.000016
C59	C	0.621137	-0.359485	0.000031
C60	C	0.621847	-0.300099	0.000057
N61	N	0.674124	-0.277481	0.000064
C62	C	0.725690	-0.314263	0.000070
C63	C	0.617505	-0.662427	0.000028
C64	C	0.616793	-0.721825	0.000034
C65	C	0.720640	-0.735990	0.000047
C66	C	0.721352	-0.676591	0.000048
C67	C	0.669783	-0.639810	0.000034
C68	C	0.727179	-0.189526	0.000089
C69	C	0.727886	-0.130124	0.000101
C70	C	0.624039	-0.115965	0.000083
C71	C	0.623332	-0.175361	0.000075
C72	C	0.674907	-0.212141	0.000075
O73	O	0.578083	-0.263312	0.000081
O74	O	0.770214	-0.289562	0.000065
C75	C	0.776489	0.069258	0.000081
C76	C	0.839708	0.070014	0.000083
C77	C	0.667592	0.178171	0.000048
C78	C	0.668358	0.241388	0.000035
N79	N	0.672310	0.074030	0.229969
N80	N	0.672373	0.074011	-0.229832
C81	C	0.672352	0.074017	0.589171
C82	C	0.625144	0.120920	0.551549
C83	C	0.625250	0.121090	0.448723
C84	C	0.672331	0.074024	0.410967
C85	C	0.731683	0.086657	0.448263
C86	C	0.731418	0.086989	0.551121
C87	C	0.660740	0.014340	0.551281
C88	C	0.659374	0.014746	0.448418
C89	C	0.672322	0.074026	0.310253
C90	C	0.672365	0.074016	0.689884
H91	H	0.118482	0.073359	-0.226324
Cl92	Cl	0.557109	0.109586	0.409789
H93	H	0.580872	0.113573	0.576306
H94	H	-0.047010	0.071367	-0.145879
Cl95	Cl	0.512625	0.078119	-0.181522
H96	H	0.391702	0.076661	-0.145900
Cl97	Cl	0.785465	-0.782241	0.000049
Cl98	Cl	0.842271	-0.382024	0.000070
Cl99	Cl	0.787206	0.036169	0.589547
H100	H	0.525567	-0.459902	-0.000002
H101	H	0.226226	0.074654	-0.226329
H102	H	0.770461	-0.111716	0.000116
Cl103	Cl	0.636384	0.188924	0.591408
Cl104	Cl	0.636623	0.189482	0.410702
H105	H	0.615716	0.005151	0.424042
H106	H	0.499430	0.077980	0.145992
H107	H	0.741703	0.130501	0.575095
Cl108	Cl	0.551065	-0.750246	0.000031
H109	H	0.695171	-0.020560	0.575611
H110	H	0.391683	0.076671	0.145999
H111	H	0.226185	0.074657	0.226448
H112	H	0.691551	-0.021766	0.422721
H113	H	0.526862	-0.352154	0.000004
H114	H	-0.047022	0.071391	0.146021
H115	H	-0.154760	0.070079	-0.145866
H116	H	0.769176	-0.219466	0.000085
Cl117	Cl	0.105281	0.073192	0.262075
H118	H	-0.154789	0.070087	0.146018
Cl119	Cl	0.840666	-0.516069	0.000076
H120	H	0.580761	-0.193774	0.000087
Cl121	Cl	0.787078	-0.648169	0.000066
H122	H	0.767638	0.053389	0.423805
H123	H	0.575509	-0.632483	0.000025
H124	H	0.582056	-0.086007	0.000081
H125	H	0.742222	0.129670	0.422487
H126	H	0.618418	0.002106	0.577269
