data_functionalizedCrystal
_audit_creation_method	'MofGen! by Chris Wilmer'
_symmetry_space_group_name_H-M	'P1'
_symmetry_Int_Tables_number	1
_symmetry_cell_setting	triclinic
loop_
_symmetry_equiv_pos_as_xyz
  x,y,z
_cell_length_a	16.974897
_cell_length_b	13.596369
_cell_length_c	16.992695
_cell_angle_alpha	89.999474
_cell_angle_beta	92.972799
_cell_angle_gamma	93.657496
loop_
_atom_site_label
_atom_site_type_symbol
_atom_site_fract_x
_atom_site_fract_y
_atom_site_fract_z
O1	O	1.055456	0.165717	-0.099976
O2	O	0.826055	0.147478	-0.112693
O3	O	0.939836	0.156516	0.007807
O4	O	0.941675	0.156678	-0.220476
O5	O	0.939821	-0.007068	0.007800
O6	O	0.826041	-0.016106	-0.112700
O7	O	1.055441	0.002133	-0.099983
Zn8	Zn	0.940739	-0.032959	-0.106342
Zn9	Zn	0.940758	0.182570	-0.106334
O10	O	0.941661	-0.006906	-0.220483
C11	C	0.796559	0.063341	-0.112211
C12	C	0.708691	0.056355	-0.110755
N13	N	0.940731	-0.180052	-0.106348
C14	C	0.667411	0.142236	-0.110069
C15	C	0.584849	0.135657	-0.108713
C16	C	0.543569	0.043197	-0.108037
C17	C	0.584855	-0.042690	-0.108726
C18	C	0.667415	-0.036110	-0.110087
C19	C	0.296651	0.013957	-0.103971
C20	C	0.214085	0.007384	-0.102607
C21	C	0.214085	0.185731	-0.102596
C22	C	0.296647	0.192303	-0.103953
C23	C	0.337925	0.106416	-0.104645
N24	N	0.459178	0.036470	-0.106649
N25	N	0.422315	0.113144	-0.106039
C26	C	0.940735	-0.269049	-0.106350
C27	C	0.940743	-0.380700	-0.106344
C28	C	0.940753	-0.469690	-0.106335
C29	C	0.940761	-0.581348	-0.106331
C30	C	1.084937	0.086271	-0.100465
C31	C	1.172805	0.093264	-0.101921
C32	C	0.937462	0.074536	0.037014
C33	C	0.930403	0.073975	0.124051
N34	N	0.940771	0.329663	-0.106322
C35	C	0.944034	0.075076	-0.249690
C36	C	0.951093	0.075644	-0.336727
C37	C	0.998518	0.079390	0.174361
C38	C	0.991880	0.078871	0.256141
C39	C	0.917126	0.072931	0.287609
C40	C	0.849006	0.067519	0.237292
C41	C	0.855645	0.068045	0.155513
C42	C	0.889612	0.070757	0.531178
C43	C	0.882978	0.070229	0.612963
C44	C	1.025853	0.081583	0.631807
C45	C	1.032485	0.082102	0.550026
C46	C	0.964365	0.076696	0.499716
N47	N	0.910340	0.072398	0.371201
N48	N	0.971152	0.077236	0.416126
H49	H	0.551243	0.205590	-0.108154
O50	O	0.776373	0.061925	0.267820
C51	C	0.652221	0.136777	0.276696
C52	C	0.734461	0.143248	0.242087
H53	H	0.618305	0.202507	0.255891
H54	H	0.659130	0.137389	0.343790
H55	H	0.618323	0.065593	0.255984
H56	H	0.768404	0.214424	0.262739
H57	H	0.727496	0.142581	0.174996
H58	H	0.701016	0.217526	-0.110616
H59	H	0.330253	0.267593	-0.104497
H60	H	1.059390	0.084221	0.148747
O61	O	1.058127	0.084087	0.304901
C62	C	1.200539	0.095448	0.314961
C63	C	1.125576	0.089523	0.259652
H64	H	1.255090	0.099865	0.278400
H65	H	1.201048	0.027014	0.353706
H66	H	1.200972	0.163927	0.353733
H67	H	1.125094	0.021087	0.220830
H68	H	1.125097	0.158004	0.220960
O69	O	0.789502	0.062959	0.106606
C70	C	0.714115	0.141688	0.003304
C71	C	0.789047	0.147577	0.058657
H72	H	0.713731	0.210083	-0.035489
H73	H	0.659517	0.137412	0.039800
H74	H	0.713652	0.073161	-0.035419
H75	H	0.789587	0.216098	0.097391
H76	H	0.843611	0.151800	0.022114
O77	O	0.336771	-0.069440	-0.104773
C78	C	0.425363	-0.165863	-0.174173
C79	C	0.379949	-0.071386	-0.173377
H80	H	0.460298	-0.167456	-0.229625
H81	H	0.381711	-0.233113	-0.173501
H82	H	0.467748	-0.166928	-0.119941
H83	H	0.337565	-0.070224	-0.227599
H84	H	0.423647	-0.004178	-0.174008
H85	H	1.093357	0.086939	0.524412
H86	H	1.081312	0.085987	0.672777
O87	O	0.173892	-0.082384	-0.102063
C88	C	0.076053	-0.193693	-0.168458
C89	C	0.121500	-0.091998	-0.169162
H90	H	0.033695	-0.201507	-0.222709
H91	H	0.041111	-0.200965	-0.113014
H92	H	0.119757	-0.253927	-0.169152
H93	H	0.077850	-0.031704	-0.168496
H94	H	0.156454	-0.084811	-0.224601
H95	H	0.180468	0.255655	-0.102034
H96	H	0.701023	-0.106043	-0.110649
O97	O	0.544851	-0.132561	-0.107966
C98	C	0.524222	-0.286616	-0.039638
C99	C	0.569593	-0.184876	-0.040415
H100	H	0.544196	-0.328933	0.014980
H101	H	0.536705	-0.329659	-0.094714
H102	H	0.458124	-0.276542	-0.038583
H103	H	0.635702	-0.194859	-0.041442
H104	H	0.557043	-0.141868	0.014658
O105	O	0.810298	0.064508	0.643401
C106	C	0.669285	0.053267	0.616085
C107	C	0.751540	0.059763	0.581509
H108	H	0.621758	0.049408	0.566062
H109	H	0.662571	0.121209	0.653873
H110	H	0.662635	-0.015704	0.653928
H111	H	0.758247	0.128692	0.543630
H112	H	0.758217	-0.008228	0.543766
O113	O	0.823464	0.065675	0.482285
C114	C	0.748058	0.144401	0.378995
C115	C	0.822998	0.150293	0.434336
H116	H	0.747665	0.212796	0.340203
H117	H	0.693466	0.140123	0.415500
H118	H	0.747590	0.075875	0.340272
H119	H	0.823544	0.218814	0.473071
H120	H	0.877556	0.154518	0.397784
