data_functionalizedCrystal
_audit_creation_method	'MofGen! by Chris Wilmer'
_symmetry_space_group_name_H-M	'P1'
_symmetry_Int_Tables_number	1
_symmetry_cell_setting	triclinic
loop_
_symmetry_equiv_pos_as_xyz
  x,y,z
_cell_length_a	16.992694
_cell_length_b	14.044220
_cell_length_c	15.455313
_cell_angle_alpha	92.908275
_cell_angle_beta	87.142206
_cell_angle_gamma	91.928550
loop_
_atom_site_label
_atom_site_type_symbol
_atom_site_fract_x
_atom_site_fract_y
_atom_site_fract_z
O1	O	1.057683	0.198159	-0.072025
O2	O	1.557683	0.698159	0.427975
O3	O	0.829244	0.195941	-0.072050
O4	O	1.329244	0.695941	0.427950
O5	O	0.940034	0.058806	-0.072029
O6	O	1.440034	0.558806	0.427971
O7	O	0.946893	0.335294	-0.072046
O8	O	1.446893	0.835294	0.427954
O9	O	0.933696	0.066614	0.072232
O10	O	1.433696	0.566614	0.572232
O11	O	0.822906	0.203749	0.072211
O12	O	1.322906	0.703749	0.572211
O13	O	1.051345	0.205967	0.072236
O14	O	1.551345	0.705967	0.572236
Cu15	Cu	0.936547	0.205571	0.085396
Cu16	Cu	1.436547	0.705571	0.585396
Cu17	Cu	0.944042	0.196337	-0.085210
Cu18	Cu	1.444042	0.696337	0.414790
O19	O	0.940555	0.343102	0.072215
O20	O	1.440555	0.843102	0.572215
C21	C	0.796663	0.196993	0.000077
C22	C	1.296663	0.696993	0.500077
C23	C	0.709024	0.188484	0.000068
C24	C	1.209024	0.688484	0.500068
C25	C	0.664526	0.270581	0.000063
C26	C	1.164526	0.770581	0.500063
C27	C	0.582179	0.262581	0.000076
C28	C	1.082179	0.762581	0.500076
C29	C	0.544332	0.172483	0.000086
C30	C	1.044332	0.672483	0.500086
C31	C	0.588836	0.090381	0.000093
C32	C	1.088836	0.590381	0.500093
C33	C	0.671181	0.098382	0.000087
C34	C	1.171181	0.598382	0.500087
C35	C	0.298414	0.139322	0.000112
C36	C	0.798414	0.639322	0.500112
C37	C	0.216063	0.131327	0.000115
C38	C	0.716063	0.631327	0.500115
C39	C	0.209411	0.303528	0.000100
C40	C	0.709411	0.803528	0.500100
C41	C	0.291759	0.311521	0.000088
C42	C	0.791759	0.811521	0.500088
C43	C	0.336255	0.229419	0.000099
C44	C	0.836255	0.729419	0.500099
N45	N	0.460161	0.164304	0.000096
N46	N	0.960161	0.664304	0.500096
N47	N	0.420425	0.237599	0.000096
N48	N	0.920425	0.737599	0.500096
C49	C	0.933863	0.027168	0.000101
C50	C	1.433863	0.527168	0.500101
C51	C	0.924909	-0.078736	0.000101
C52	C	1.424909	0.421264	0.500101
C53	C	0.908540	-0.272638	0.000087
C54	C	1.408540	0.227362	0.500087
C55	C	0.972046	-0.325460	0.000092
C56	C	1.472046	0.174540	0.500092
C57	C	0.962938	-0.433354	0.000084
C58	C	1.462938	0.066646	0.500084
C59	C	0.917647	-0.164734	0.000095
C60	C	1.417647	0.335266	0.500095
C61	C	1.083926	0.204915	0.000107
C62	C	1.583926	0.704915	0.500107
C63	C	1.171565	0.213424	0.000111
C64	C	1.671565	0.713424	0.500111
C65	C	0.946726	0.374740	0.000083
C66	C	1.446726	0.874740	0.500083
C67	C	0.955680	0.480644	0.000077
C68	C	1.455680	0.980644	0.500077
N69	N	0.931281	0.212065	0.205390
N70	N	1.431281	0.712065	0.705390
N71	N	0.949314	0.189836	-0.205204
N72	N	1.449314	0.689836	0.294796
C73	C	0.978368	0.153829	0.250793
C74	C	1.478368	0.653829	0.750793
C75	C	0.974393	0.158750	0.341600
C76	C	1.474393	0.658750	0.841600
C77	C	0.923335	0.221911	0.387003
C78	C	1.423335	0.721911	0.887003
C79	C	0.876243	0.280149	0.341594
C80	C	1.376243	0.780149	0.841594
C81	C	0.880214	0.275223	0.250788
C82	C	1.380214	0.775223	0.750788
C83	C	0.906193	0.243148	0.658581
C84	C	1.406193	0.743148	1.158581
C85	C	0.902227	0.248072	0.749393
C86	C	1.402227	0.748072	1.249393
C87	C	1.000377	0.126671	0.749394
C88	C	1.500377	0.626671	1.249394
C89	C	1.004347	0.121754	0.658586
C90	C	1.504347	0.621754	1.158586
C91	C	0.957251	0.179989	0.613185
C92	C	1.457251	0.679989	1.113185
N93	N	0.919273	0.226945	0.479822
N94	N	1.419273	0.726945	0.979822
N95	N	0.961310	0.174950	0.520367
N96	N	1.461310	0.674950	1.020367
H97	H	0.322568	0.384887	0.000070
H98	H	0.822568	0.884887	0.500070
H99	H	0.847335	-0.308444	0.000078
H100	H	1.347335	0.191556	0.500078
H101	H	1.019948	0.102401	0.213833
H102	H	1.519948	0.602401	0.713833
H103	H	1.033258	-0.289655	0.000040
H104	H	1.533258	0.210345	0.500040
C105	C	1.071830	0.038285	0.332480
C106	C	1.571830	0.538285	0.832480
C107	C	1.026166	0.094751	0.391507
C108	C	1.526166	0.594751	0.891507
H109	H	1.103799	-0.001219	0.363292
H110	H	1.603799	0.498781	0.863292
H111	H	1.038176	-0.000433	0.297079
H112	H	1.538176	0.499567	0.797079
H113	H	1.104494	0.078217	0.297047
H114	H	1.604494	0.578217	0.797047
H115	H	0.993498	0.054819	0.426937
H116	H	1.493498	0.554819	0.926937
H117	H	1.059824	0.133473	0.426923
H118	H	1.559824	0.633473	0.926923
H119	H	1.045922	0.070323	0.621622
H120	H	1.545922	0.570323	1.121622
H121	H	0.173174	0.370371	0.000092
H122	H	0.673174	0.870371	0.500092
C123	C	0.764394	0.011493	0.074248
C124	C	1.264394	0.511493	0.574248
C125	C	0.720095	0.008137	0.000090
C126	C	1.220095	0.508137	0.500090
H127	H	0.794586	-0.044226	0.074253
H128	H	1.294586	0.455774	0.574253
H129	H	0.798716	0.066289	0.074235
H130	H	1.298716	0.566289	0.574235
H131	H	0.729920	0.014676	0.124550
H132	H	1.229920	0.514676	0.624550
H133	H	0.754570	0.004961	-0.050213
H134	H	1.254570	0.504961	0.449787
H135	H	0.685771	-0.046673	0.000095
H136	H	1.185771	0.453327	0.500095
C137	C	0.742465	0.327177	0.369571
C138	C	1.242465	0.827177	0.869571
C139	C	0.820115	0.349572	0.391502
C140	C	1.320115	0.849572	0.891502
H141	H	0.707815	0.370034	0.400387
H142	H	1.207815	0.870034	0.900387
H143	H	0.738094	0.332585	0.309001
H144	H	1.238094	0.832585	0.809001
H145	H	0.728822	0.263728	0.384468
H146	H	1.228822	0.763728	0.884468
H147	H	0.833760	0.413019	0.376599
H148	H	1.333760	0.913019	0.876599
H149	H	0.824489	0.344173	0.452086
H150	H	1.324489	0.844173	0.952086
H151	H	0.334634	0.072468	0.000121
H152	H	0.834634	0.572468	0.500121
H153	H	0.695334	0.343947	0.000054
H154	H	1.195334	0.843947	0.500054
H155	H	0.860647	0.299509	0.786355
H156	H	1.360647	0.799509	1.286355
C157	C	1.033903	-0.033242	0.777364
C158	C	1.533903	0.466758	1.277364
C159	C	1.052131	0.062651	0.799302
C160	C	1.552131	0.562651	1.299302
H161	H	1.065856	-0.072768	0.808173
H162	H	1.565856	0.427232	1.308173
H163	H	0.979924	-0.046792	0.792257
H164	H	1.479924	0.453208	1.292257
H165	H	1.043579	-0.045201	0.716785
H166	H	1.543579	0.454799	1.216785
H167	H	1.042450	0.074611	0.859880
H168	H	1.542450	0.574611	1.359880
H169	H	1.106122	0.076206	0.784415
H170	H	1.606122	0.576206	1.284415
C171	C	0.465563	0.001654	0.000101
C172	C	0.965563	0.501654	0.500101
C173	C	0.547237	-0.008657	0.000103
C174	C	1.047237	0.491343	0.500103
H175	H	0.439885	-0.059491	0.000100
H176	H	0.939885	0.440509	0.500100
H177	H	0.448501	0.038435	0.050404
H178	H	0.948501	0.538435	0.550404
H179	H	0.452913	0.032998	-0.050211
H180	H	0.952913	0.532998	0.449789
H181	H	0.559888	-0.039995	0.050419
H182	H	1.059888	0.460005	0.550419
H183	H	0.564306	-0.045453	-0.050204
H184	H	1.064306	0.454547	0.449796
H185	H	0.185251	0.057956	0.000123
H186	H	0.685251	0.557956	0.500123
C187	C	0.808786	0.363649	0.667714
C188	C	1.308786	0.863649	1.167714
C189	C	0.854433	0.307167	0.608684
C190	C	1.354433	0.807167	1.108684
H191	H	0.776835	0.403177	0.636905
H192	H	1.276835	0.903177	1.136905
H193	H	0.776112	0.323736	0.703141
H194	H	1.276112	0.823736	1.203141
H195	H	0.842457	0.402352	0.703122
H196	H	1.342457	0.902352	1.203122
H197	H	0.820761	0.268458	0.573280
H198	H	1.320761	0.768458	1.073280
H199	H	0.887109	0.347085	0.573242
H200	H	1.387109	0.847085	1.073242
C201	C	0.846682	0.435137	0.222802
C202	C	1.346682	0.935137	0.722802
C203	C	0.828459	0.339241	0.200875
C204	C	1.328459	0.839241	0.700875
H205	H	0.814731	0.474656	0.191983
H206	H	1.314731	0.974656	0.691983
H207	H	0.837007	0.447105	0.283371
H208	H	1.337007	0.947105	0.783371
H209	H	0.900667	0.448688	0.207906
H210	H	1.400667	0.948688	0.707906
H211	H	0.774474	0.325687	0.215777
H212	H	1.274474	0.825687	0.715777
H213	H	0.838128	0.327268	0.140292
H214	H	1.338128	0.827268	0.640292
H215	H	0.545952	0.329433	0.000072
H216	H	1.045952	0.829433	0.500072
