data_functionalizedCrystal
_audit_creation_method	'MofGen! by Chris Wilmer'
_symmetry_space_group_name_H-M	'P1'
_symmetry_Int_Tables_number	1
_symmetry_cell_setting	triclinic
loop_
_symmetry_equiv_pos_as_xyz
  x,y,z
_cell_length_a	6.817900
_cell_length_b	11.102188
_cell_length_c	11.102291
_cell_angle_alpha	91.949911
_cell_angle_beta	108.605752
_cell_angle_gamma	108.603875
loop_
_atom_site_label
_atom_site_type_symbol
_atom_site_fract_x
_atom_site_fract_y
_atom_site_fract_z
V1	V	-4.111529	-0.175855	-0.396259
O2	O	-4.070572	0.008434	-0.388716
O3	O	-4.088297	-0.348675	-0.393549
O4	O	-4.088314	-0.173157	-0.569081
O5	O	-4.070554	-0.168299	-0.211968
V6	V	-4.588633	-0.153811	-0.374216
O7	O	-4.386870	-0.224210	-0.444611
O8	O	-4.763490	-0.105456	-0.325864
O9	O	-4.388658	0.019009	-0.376926
O10	O	-4.746987	-0.338100	-0.381760
O11	O	-4.747005	-0.161367	-0.558507
O12	O	-4.388641	-0.156509	-0.201394
C13	C	-3.938605	-0.390804	-0.387298
C14	C	-4.001065	-0.532087	-0.386234
C15	C	-3.938626	-0.166912	-0.611205
C16	C	-4.001095	-0.165850	-0.752488
C17	C	-3.970237	-0.580308	-0.269349
C18	C	-4.028949	-0.713059	-0.268355
C19	C	-4.149307	-0.749358	-0.501140
C20	C	-4.090610	-0.616610	-0.502134
C21	C	-4.155140	-0.876831	-0.131241
C22	C	-4.124276	-0.925054	-0.014349
C23	C	-3.933807	-0.861788	0.092166
C24	C	-3.774150	-0.750299	0.081795
C25	C	-3.805000	-0.702082	-0.035099
C26	C	-3.995513	-0.765347	-0.141611
C27	C	-3.964397	-0.452834	-0.639239
C28	C	-3.995231	-0.404614	-0.756133
C29	C	-4.185693	-0.467879	-0.862658
C30	C	-4.345328	-0.579373	-0.852299
C31	C	-4.314493	-0.627593	-0.735405
C32	C	-4.124031	-0.564319	-0.628879
C33	C	-4.214449	-0.171690	-0.825336
C34	C	-4.273121	-0.170667	-0.958082
C35	C	-3.905065	-0.157969	-0.945121
C36	C	-3.846392	-0.158983	-0.812376
C37	C	-4.369152	-0.178556	-0.765448
C38	C	-4.582522	-0.184398	-0.838297
C39	C	-4.641194	-0.183375	-0.971043
C40	C	-4.486495	-0.176510	-1.030941
C41	C	-4.201692	0.061132	-0.383174
C42	C	-4.118473	0.202413	-0.384246
C43	C	-4.201671	-0.162757	-0.159264
C44	C	-4.118439	-0.163813	-0.017979
H45	H	-3.897326	-0.511492	-0.174976
H46	H	-4.444486	-0.718381	-0.726977
H47	H	-4.708463	-0.189979	-0.789519
Br48	Br	-3.891921	-0.927240	0.250802
Br49	Br	-4.566110	-0.175090	-1.211093
Br50	Br	-4.289544	-0.179958	-0.585296
Br51	Br	-3.588348	-0.550788	-0.049183
Br52	Br	-4.340945	-1.076355	-0.000274
H53	H	-3.779123	-0.152382	-0.993900
Br54	Br	-3.556819	-0.151032	-0.713498
H55	H	-3.619046	-0.698803	0.168530
Br56	Br	-4.227523	-0.402447	-1.021309
Br57	Br	-4.930752	-0.191287	-1.069905
H58	H	-4.310260	-0.928343	-0.217962
H59	H	-4.222217	-0.818192	-0.595501
H60	H	-3.865223	-0.313836	-0.764566
Br61	Br	-4.603820	-0.665245	-0.996872
H62	H	-3.809299	-0.401309	-0.552500
