data_functionalizedCrystal
_audit_creation_method	'MofGen! by Chris Wilmer'
_symmetry_space_group_name_H-M	'P1'
_symmetry_Int_Tables_number	1
_symmetry_cell_setting	triclinic
loop_
_symmetry_equiv_pos_as_xyz
  x,y,z
_cell_length_a	23.532407
_cell_length_b	23.532355
_cell_length_c	22.610064
_cell_angle_alpha	89.997644
_cell_angle_beta	89.988412
_cell_angle_gamma	97.161913
loop_
_atom_site_label
_atom_site_type_symbol
_atom_site_fract_x
_atom_site_fract_y
_atom_site_fract_z
O1	O	-0.068986	0.755283	-0.049095
O2	O	-0.079020	0.589415	-0.049112
O3	O	0.008929	0.677351	-0.049110
O4	O	-0.156936	0.667347	-0.049097
O5	O	0.008916	0.677335	0.049259
O6	O	-0.079033	0.589400	0.049257
O7	O	-0.068999	0.755267	0.049274
Zn8	Zn	-0.074018	0.672331	0.064884
Zn9	Zn	-0.074001	0.672351	-0.064722
O10	O	-0.156949	0.667332	0.049273
C11	C	-0.078776	0.568191	0.000070
C12	C	-0.078022	0.504972	0.000063
C13	C	-0.073291	0.112950	0.053708
C14	C	-0.072573	0.053550	0.053710
O15	O	-0.072189	0.022825	0.099312
N16	N	-0.072211	0.023850	0.000090
C17	C	-0.072560	0.053554	-0.053537
O18	O	-0.072185	0.022837	-0.099146
C19	C	-0.073273	0.112953	-0.053539
C20	C	-0.073641	0.142649	0.000086
C21	C	-0.073659	0.142646	0.107328
C22	C	-0.074377	0.202041	0.107326
C23	C	-0.074728	0.231740	0.053703
C24	C	-0.074360	0.202044	0.000083
C25	C	-0.073618	0.142655	-0.107165
C26	C	-0.074331	0.202058	-0.107162
C27	C	-0.074699	0.231754	-0.053537
C28	C	-0.075429	0.291138	-0.053542
N29	N	-0.075792	0.320838	0.000079
C30	C	-0.075441	0.291139	0.053702
C31	C	-0.071061	-0.071188	-0.053530
C32	C	-0.070351	-0.130586	-0.053529
C33	C	-0.070364	-0.130585	0.053719
C34	C	-0.071077	-0.071186	0.053717
C35	C	-0.071423	-0.041488	0.000091
C36	C	-0.076951	0.415873	0.053692
C37	C	-0.077671	0.475273	0.053685
C38	C	-0.077656	0.475267	-0.053562
C39	C	-0.076938	0.415872	-0.053555
C40	C	-0.076583	0.386177	0.000077
O41	O	-0.075812	0.321902	-0.099120
O42	O	-0.075809	0.321864	0.099303
C43	C	-0.178158	0.667594	0.000090
C44	C	-0.241375	0.668360	0.000096
C45	C	-0.640487	0.621125	0.000060
C46	C	-0.699887	0.621837	0.000056
O47	O	-0.736640	0.578050	0.000030
N48	N	-0.722504	0.674114	0.000063
C49	C	-0.685717	0.725684	0.000067
O50	O	-0.710408	0.770216	0.000071
C51	C	-0.626318	0.724972	0.000067
C52	C	-0.603705	0.672691	0.000066
C53	C	-0.617874	0.568849	0.000059
C54	C	-0.558478	0.568137	0.000065
C55	C	-0.521695	0.619703	0.000071
C56	C	-0.544309	0.671980	0.000072
C57	C	-0.589532	0.776541	0.000067
C58	C	-0.530129	0.775824	0.000066
C59	C	-0.507516	0.723543	0.000066
C60	C	-0.448130	0.722834	0.000083
N61	N	-0.425514	0.670556	0.000077
C62	C	-0.462296	0.618991	0.000071
C63	C	-0.810459	0.727175	0.000066
C64	C	-0.869857	0.727888	0.000071
C65	C	-0.884023	0.624041	0.000059
C66	C	-0.824624	0.623329	0.000059
C67	C	-0.787842	0.674898	0.000060
C68	C	-0.337560	0.617501	0.000082
C69	C	-0.278158	0.616794	0.000090
C70	C	-0.263996	0.720642	0.000098
C71	C	-0.323393	0.721349	0.000094
C72	C	-0.360174	0.669774	0.000083
O73	O	-0.411343	0.766598	0.000107
O74	O	-0.437597	0.574467	0.000058
C75	C	0.030139	0.677088	0.000071
C76	C	0.093356	0.676322	0.000061
C77	C	-0.069244	0.776491	0.000091
C78	C	-0.069998	0.839710	0.000094
N79	N	-0.074029	0.672321	0.153336
N80	N	-0.073986	0.672366	-0.153174
C81	C	-0.035063	0.711291	0.561979
C82	C	-0.035059	0.711294	0.623898
O83	O	-0.001937	0.744403	0.655918
N84	N	-0.073990	0.672351	0.654874
C85	C	-0.112923	0.633399	0.623925
O86	O	-0.146036	0.600275	0.655958
C87	C	-0.112924	0.633394	0.562007
C88	C	-0.073995	0.672343	0.531035
C89	C	0.003863	0.750237	0.531007
C90	C	0.003858	0.750234	0.469091
C91	C	-0.035073	0.711286	0.438147
C92	C	-0.074000	0.672340	0.469119
C93	C	-0.151854	0.594439	0.531060
C94	C	-0.151851	0.594437	0.469137
C95	C	-0.112922	0.633386	0.438165
C96	C	-0.112936	0.633390	0.376260
N97	N	-0.074006	0.672333	0.345285
C98	C	-0.035074	0.711281	0.376228
C99	C	-0.112917	0.633412	0.753959
C100	C	-0.112919	0.633419	0.815877
C101	C	-0.035055	0.711314	0.815845
C102	C	-0.035056	0.711309	0.753927
C103	C	-0.073987	0.672355	0.722984
C104	C	-0.035088	0.711273	0.246201
C105	C	-0.035098	0.711269	0.184280
C106	C	-0.112960	0.633373	0.184317
C107	C	-0.112953	0.633379	0.246232
C108	C	-0.074012	0.672331	0.277173
O109	O	-0.146040	0.600296	0.344201
O110	O	-0.001962	0.744395	0.344189
H111	H	-0.076667	0.391701	0.097365
H112	H	-0.003354	0.743027	0.841051
H113	H	-0.074674	0.226215	0.150992
C114	C	-0.078075	0.507939	0.112673
H115	H	-0.078558	0.547568	0.104995
H116	H	-0.044745	0.502739	0.134703
H117	H	-0.111181	0.493665	0.134706
C118	C	-0.253284	0.559285	0.000087
H119	H	-0.212640	0.566243	0.000095
H120	H	-0.265921	0.538073	-0.034220
H121	H	-0.265941	0.538063	0.034392
C122	C	-0.924492	0.567319	0.000042
H123	H	-0.963105	0.575235	0.000035
H124	H	-0.917683	0.545856	0.034341
H125	H	-0.917659	0.545879	-0.034270
H126	H	-0.070060	-0.154761	-0.097195
C127	C	-0.155778	0.590529	0.150271
H128	H	-0.150196	0.596104	0.108959
H129	H	-0.193759	0.596489	0.160422
H130	H	-0.149782	0.552557	0.160420
C131	C	-0.155742	0.590576	0.849939
H132	H	-0.178923	0.567378	0.822637
H133	H	-0.179344	0.610921	0.874102
H134	H	-0.135372	0.566984	0.874086
H135	H	-0.073317	0.118487	-0.150832
H136	H	-0.183553	0.562714	0.443946
C137	C	-0.155752	0.590568	0.719927
H138	H	-0.178938	0.567382	0.747247
H139	H	-0.135396	0.566972	0.695769
H140	H	-0.179356	0.610921	0.695779
H141	H	-0.074613	0.226236	-0.150832
C142	C	-0.076551	0.383203	-0.112540
H143	H	-0.076865	0.409399	-0.144475
H144	H	-0.109488	0.355497	-0.114759
H145	H	-0.043052	0.364567	-0.114780
H146	H	-0.003378	0.742991	0.271386
C147	C	-0.078036	0.507944	-0.112542
H148	H	-0.078509	0.547573	-0.104859
H149	H	-0.111128	0.493681	-0.134580
H150	H	-0.044692	0.502747	-0.134571
H151	H	-0.341805	0.763920	0.000102
H152	H	0.035569	0.781953	0.556196
H153	H	-0.073372	0.118472	0.150996
C154	C	0.007717	0.754121	0.150212
H155	H	0.002136	0.748550	0.108902
H156	H	0.045699	0.748163	0.160345
H157	H	0.001719	0.792092	0.160365
C158	C	-0.378010	0.560770	0.000075
H159	H	-0.356028	0.529538	0.000081
H160	H	-0.401469	0.558887	-0.034228
H161	H	-0.401483	0.558883	0.034383
C162	C	-0.155752	0.590515	0.280303
H163	H	-0.178930	0.567310	0.253003
H164	H	-0.179360	0.610838	0.304481
H165	H	-0.135357	0.566933	0.304434
H166	H	-0.071378	-0.047012	0.097383
C167	C	-0.533611	0.510628	0.000056
H168	H	-0.564031	0.480024	0.000046
H169	H	-0.510742	0.508178	0.034358
H170	H	-0.510729	0.508197	-0.034253
H171	H	0.035559	0.781948	0.443877
H172	H	-0.806218	0.580757	0.000061
C173	C	0.007770	0.754148	0.719863
H174	H	0.030956	0.777341	0.747166
H175	H	-0.012589	0.777737	0.695707
H176	H	0.031375	0.733792	0.695710
C177	C	-0.658326	0.512121	0.000057
H178	H	-0.636342	0.480890	0.000061
H179	H	-0.681789	0.510236	-0.034244
H180	H	-0.681796	0.510235	0.034368
H181	H	-0.183553	0.562723	0.556268
C182	C	-0.070141	-0.163284	0.112703
H183	H	-0.069708	-0.202918	0.105020
H184	H	-0.103527	-0.158033	0.134631
H185	H	-0.037090	-0.149085	0.134843
H186	H	-0.888262	0.770461	0.000080
C187	C	-0.614393	0.834051	0.000059
H188	H	-0.583972	0.864654	0.000053
H189	H	-0.637280	0.836495	0.034358
H190	H	-0.637257	0.836489	-0.034253
C191	C	-0.770003	0.783905	0.000079
H192	H	-0.791984	0.815138	0.000088
H193	H	-0.746527	0.785799	-0.034223
H194	H	-0.746547	0.785781	0.034389
C195	C	-0.071453	-0.038526	-0.112522
H196	H	-0.071140	-0.064726	-0.144453
H197	H	-0.038517	-0.010819	-0.114763
H198	H	-0.104953	-0.019892	-0.114749
C199	C	-0.489672	0.832552	0.000070
H200	H	-0.511651	0.863787	0.000075
H201	H	-0.466195	0.834439	-0.034231
H202	H	-0.466217	0.834430	0.034381
H203	H	-0.234038	0.762625	0.000106
