data_functionalizedCrystal
_audit_creation_method	'MofGen! by Chris Wilmer'
_symmetry_space_group_name_H-M	'P1'
_symmetry_Int_Tables_number	1
_symmetry_cell_setting	triclinic
loop_
_symmetry_equiv_pos_as_xyz
  x,y,z
_cell_length_a	14.519709
_cell_length_b	7.088929
_cell_length_c	8.559649
_cell_angle_alpha	84.655815
_cell_angle_beta	103.270595
_cell_angle_gamma	83.779193
loop_
_atom_site_label
_atom_site_type_symbol
_atom_site_fract_x
_atom_site_fract_y
_atom_site_fract_z
O1	O	1.198225	0.158735	-0.225782
O2	O	0.927974	0.158792	-0.250449
O3	O	1.086909	0.158756	-0.005581
O4	O	1.039290	0.158770	-0.470650
O5	O	1.108154	-0.159224	0.027217
O6	O	0.949219	-0.159188	-0.217651
O7	O	1.219470	-0.159245	-0.192984
Cu8	Cu	1.086285	-0.188251	-0.202323
Cu9	Cu	1.061160	0.187797	-0.241111
O10	O	1.060535	-0.159210	-0.437852
C11	C	0.904319	-0.000190	-0.232902
C12	C	0.802183	-0.000168	-0.229460
N13	N	1.103963	-0.452743	-0.175040
C14	C	0.428203	-0.000256	-0.216772
C15	C	0.532257	-0.000231	-0.220295
C16	C	0.615190	-0.000210	-0.223116
C17	C	0.719250	-0.000189	-0.226640
C18	C	1.243125	-0.000259	-0.210532
C19	C	1.345260	-0.000268	-0.213975
N20	N	1.043489	0.452289	-0.268380
C21	C	1.101140	-0.000231	0.070337
C22	C	1.111881	-0.000223	0.247686
C23	C	1.046304	-0.000218	-0.513771
C24	C	1.035562	-0.000214	-0.691121
H25	H	1.166646	-0.534413	-0.078319
O26	O	0.938119	-0.000184	0.198570
H27	H	0.944687	-0.000160	0.071909
H28	H	0.980816	-0.466050	-0.365107
H29	H	1.185445	-0.000254	0.330985
