data_functionalizedCrystal
_audit_creation_method	'MofGen! by Chris Wilmer'
_symmetry_space_group_name_H-M	'P1'
_symmetry_Int_Tables_number	1
_symmetry_cell_setting	triclinic
loop_
_symmetry_equiv_pos_as_xyz
  x,y,z
_cell_length_a	6.817900
_cell_length_b	15.866870
_cell_length_c	14.125465
_cell_angle_alpha	113.228420
_cell_angle_beta	100.398878
_cell_angle_gamma	102.655915
loop_
_atom_site_label
_atom_site_type_symbol
_atom_site_fract_x
_atom_site_fract_y
_atom_site_fract_z
V1	V	-4.011086	-0.131684	-0.346677
O2	O	-3.978431	0.007174	-0.291722
O3	O	-3.982395	-0.261921	-0.390814
O4	O	-3.946868	-0.129287	-0.476657
O5	O	-4.014203	-0.126378	-0.205284
V6	V	-4.494210	-0.115118	-0.324116
O7	O	-4.273220	-0.168021	-0.396168
O8	O	-4.682273	-0.078781	-0.274625
O9	O	-4.299695	0.015119	-0.279979
O10	O	-4.644262	-0.253977	-0.379072
O11	O	-4.608490	-0.120424	-0.465510
O12	O	-4.335221	-0.117516	-0.194136
C13	C	-3.832702	-0.293681	-0.397345
C14	C	-3.890424	-0.400149	-0.434299
C15	C	-3.787383	-0.124492	-0.506846
C16	C	-3.816292	-0.123394	-0.613411
C17	C	-3.921038	-0.683174	-0.091525
C18	C	-3.975283	-0.783222	-0.126281
C19	C	-4.038973	-0.810065	-0.312008
C20	C	-3.984723	-0.710017	-0.277268
C21	C	-3.925761	-0.646580	-0.167026
C22	C	-3.989445	-0.673422	-0.352768
C23	C	-3.935210	-0.573384	-0.318031
C24	C	-3.876253	-0.509940	-0.207793
C25	C	-3.871526	-0.546541	-0.132288
C26	C	-4.048422	-0.736862	-0.463011
C27	C	-4.053145	-0.700267	-0.538511
C28	C	-3.998894	-0.600227	-0.503774
C29	C	-3.939937	-0.536783	-0.393536
C30	C	-4.003621	-0.563626	-0.579279
C31	C	-3.949386	-0.463587	-0.544541
C32	C	-3.885702	-0.436744	-0.358798
C33	C	-3.869280	-0.121380	-0.808519
C34	C	-4.055384	-0.125420	-0.862273
C35	C	-4.084869	-0.124299	-0.970839
C36	C	-3.839787	-0.122501	-0.699944
C37	C	-4.112731	0.046874	-0.273447
C38	C	-4.034246	0.153341	-0.236501
C39	C	-4.158049	-0.122313	-0.163944
C40	C	-4.108378	-0.123406	-0.057376
H41	H	-3.837657	-0.385088	-0.269027
C42	C	-4.240724	-0.131241	-0.814302
N43	N	-4.380318	-0.135630	-0.778169
C44	C	-3.970072	-0.823471	-0.043215
N45	N	-3.966148	-0.853786	0.019350
H46	H	-4.086995	-0.861729	-0.401769
H47	H	-4.101166	-0.751931	-0.628272
C48	C	-3.683915	-0.115492	-0.856456
N49	N	-3.544288	-0.111029	-0.892558
H50	H	-3.832101	-0.428483	-0.179512
H51	H	-3.872993	-0.631518	-0.001754
C52	C	-4.107924	-0.846904	-0.501215
N53	N	-4.152680	-0.929785	-0.529986
C54	C	-3.806657	-0.476753	-0.011015
N55	N	-3.757807	-0.424189	0.080324
H56	H	-4.051655	-0.615292	-0.669039
H57	H	-3.953263	-0.433793	-0.606022
