data_functionalizedCrystal
_audit_creation_method	'MofGen! by Chris Wilmer'
_symmetry_space_group_name_H-M	'P1'
_symmetry_Int_Tables_number	1
_symmetry_cell_setting	triclinic
loop_
_symmetry_equiv_pos_as_xyz
  x,y,z
_cell_length_a	10.723024
_cell_length_b	10.723023
_cell_length_c	7.681481
_cell_angle_alpha	84.204195
_cell_angle_beta	95.778575
_cell_angle_gamma	84.467709
loop_
_atom_site_label
_atom_site_type_symbol
_atom_site_fract_x
_atom_site_fract_y
_atom_site_fract_z
O1	O	1.645491	0.186740	-0.146414
O2	O	2.145491	0.686740	0.353586
O3	O	1.282338	0.203494	-0.146419
O4	O	1.782338	0.703494	0.353581
O5	O	1.472292	0.013540	-0.146409
O6	O	1.972292	0.513540	0.353591
O7	O	1.455537	0.376693	-0.146424
O8	O	1.955537	0.876693	0.353576
O9	O	1.495672	-0.009894	0.146450
O10	O	1.995672	0.490106	0.646450
O11	O	1.305718	0.180060	0.146440
O12	O	1.805718	0.680060	0.646440
O13	O	1.668871	0.163306	0.146445
O14	O	2.168871	0.663306	0.646445
Zn15	Zn	1.491006	0.167963	0.192940
Zn16	Zn	1.991006	0.667963	0.692940
Zn17	Zn	1.460203	0.198837	-0.192914
Zn18	Zn	1.960203	0.698837	0.307086
O19	O	1.478917	0.353260	0.146435
O20	O	1.978917	0.853260	0.646435
C21	C	1.247528	0.190558	0.000009
C22	C	1.747528	0.690558	0.500009
C23	C	1.108974	0.186910	0.000007
C24	C	1.608974	0.686910	0.500007
C25	C	0.917217	0.073603	0.000009
C26	C	1.417217	0.573603	0.500009
C27	C	1.060421	0.077370	0.000011
C28	C	1.560421	0.577370	0.500011
C29	C	1.482763	-0.044676	0.000018
C30	C	1.982763	0.455324	0.500018
C31	C	1.479115	-0.183230	0.000013
C32	C	1.979115	0.316770	0.500013
C33	C	1.465378	-0.232857	-0.151700
C34	C	1.965378	0.267143	0.348300
C35	C	1.461607	-0.376059	-0.151709
C36	C	1.961607	0.123941	0.348291
C37	C	1.703680	0.176242	0.000013
C38	C	2.203680	0.676242	0.500013
C39	C	1.842234	0.179891	0.000003
C40	C	2.342234	0.679891	0.500003
C41	C	1.468446	0.411477	0.000004
C42	C	1.968446	0.911477	0.500004
C43	C	1.472092	0.550031	-0.000002
C44	C	1.972092	1.050031	0.499998
N45	N	1.512038	0.146891	0.456275
N46	N	2.012038	0.646891	0.956275
N47	N	1.439181	0.219899	-0.456250
N48	N	1.939181	0.719899	0.043750
H49	H	1.124853	-0.013620	0.000004
H50	H	1.624853	0.486380	0.500004
H51	H	1.456402	-0.169326	-0.281579
H52	H	1.956402	0.330674	0.218421
H53	H	1.449846	-0.418784	-0.281595
H54	H	1.949846	0.081216	0.218405
H55	H	0.884056	0.273676	0.000010
H56	H	1.384056	0.773676	0.500010
O57	O	1.340635	0.318591	0.444157
O58	O	1.840635	0.818591	0.944157
H59	H	1.343349	0.315833	0.300520
H60	H	1.843349	0.815833	0.800520
H61	H	1.044548	0.277907	-0.000004
H62	H	1.544548	0.777907	0.499996
O63	O	1.487689	-0.393405	0.172071
O64	O	1.987689	0.106595	0.672071
H65	H	1.404944	-0.324301	0.179618
H66	H	1.904944	0.175699	0.679618
O67	O	0.861840	-0.050639	0.000020
O68	O	1.361840	0.449361	0.500020
H69	H	0.758052	-0.034101	0.000009
H70	H	1.258052	0.465899	0.500009
O71	O	1.491004	-0.267381	0.172056
O72	O	1.991004	0.232619	0.672056
H73	H	1.412865	-0.238215	0.248654
H74	H	1.912865	0.261785	0.748654
O75	O	1.610569	0.048174	0.555877
O76	O	2.110569	0.548174	1.055877
H77	H	1.607839	0.050911	0.699514
H78	H	2.107839	0.550911	1.199514
