data_functionalizedCrystal
_audit_creation_method	'MofGen! by Chris Wilmer'
_symmetry_space_group_name_H-M	'P1'
_symmetry_Int_Tables_number	1
_symmetry_cell_setting	triclinic
loop_
_symmetry_equiv_pos_as_xyz
  x,y,z
_cell_length_a	15.711784
_cell_length_b	15.995343
_cell_length_c	14.185569
_cell_angle_alpha	76.840771
_cell_angle_beta	107.179161
_cell_angle_gamma	101.538992
loop_
_atom_site_label
_atom_site_type_symbol
_atom_site_fract_x
_atom_site_fract_y
_atom_site_fract_z
O1	O	1.127293	0.472221	-0.083511
O2	O	1.627293	0.972221	0.416489
O3	O	0.875635	0.408463	-0.083496
O4	O	1.375635	0.908463	0.416504
O5	O	1.008351	0.320559	-0.083485
O6	O	1.508351	0.820559	0.416515
O7	O	0.994577	0.560125	-0.083522
O8	O	1.494577	1.060125	0.416478
O9	O	1.047557	0.294596	0.083353
O10	O	1.547557	0.794596	0.583353
O11	O	0.914840	0.382499	0.083342
O12	O	1.414840	0.882499	0.583342
O13	O	1.166499	0.446258	0.083327
O14	O	1.666499	0.946258	0.583327
Cu15	Cu	1.044249	0.412008	0.098568
Cu16	Cu	1.544249	0.912008	0.598568
Cu17	Cu	0.997884	0.442712	-0.098737
Cu18	Cu	1.497884	0.942712	0.401263
O19	O	1.033782	0.534161	0.083316
O20	O	1.533782	1.034161	0.583316
C21	C	0.863034	0.385065	-0.000075
C22	C	1.363034	0.885065	0.499925
C23	C	0.767078	0.354021	-0.000069
C24	C	1.267078	0.854021	0.499931
C25	C	0.642138	0.237150	-0.000050
C26	C	1.142138	0.737150	0.499950
C27	C	0.732302	0.266329	-0.000056
C28	C	1.232302	0.766329	0.499944
C29	C	0.711695	0.412569	-0.000082
C30	C	1.211695	0.912569	0.499918
C31	C	0.621526	0.383402	-0.000081
C32	C	1.121526	0.883402	0.499919
C33	C	0.586756	0.295692	-0.000064
C34	C	1.086756	0.795692	0.499936
C35	C	0.566144	0.441944	-0.000095
C36	C	1.066144	0.941944	0.499905
C37	C	0.475984	0.412779	-0.000090
C38	C	0.975984	0.912779	0.499910
C39	C	0.441207	0.325072	-0.000070
C40	C	0.941207	0.825072	0.499930
C41	C	0.496596	0.266526	-0.000058
C42	C	0.996596	0.766526	0.499942
C43	C	0.600918	0.529653	-0.000105
C44	C	1.100918	1.029653	0.499895
C45	C	0.545535	0.588195	-0.000120
C46	C	1.045535	1.088195	0.499880
C47	C	0.455372	0.559031	-0.000121
C48	C	0.955372	1.059031	0.499879
C49	C	0.420595	0.471324	-0.000101
C50	C	0.920595	0.971324	0.499899
C51	C	0.399983	0.617576	-0.000132
C52	C	0.899983	1.117576	0.499868
C53	C	0.309824	0.588411	-0.000126
C54	C	0.809824	1.088411	0.499874
C55	C	0.330436	0.442159	-0.000095
C56	C	0.830436	0.942159	0.499905
C57	C	1.027386	0.276208	-0.000064
C58	C	1.527386	0.776208	0.499936
C59	C	1.025686	0.182735	-0.000056
C60	C	1.525686	0.682735	0.499944
C61	C	1.022590	0.011605	-0.000078
C62	C	1.522590	0.511605	0.499922
C63	C	0.926792	-0.041084	-0.000075
C64	C	1.426792	0.458916	0.499925
C65	C	0.924898	-0.138253	-0.000465
C66	C	1.424898	0.361747	0.499535
C67	C	1.019541	-0.156884	-0.000100
C68	C	1.519541	0.343116	0.499900
C69	C	1.045367	-0.098233	-0.095183
C70	C	1.545367	0.401767	0.404817
C71	C	1.046487	-0.001082	-0.095252
C72	C	1.546487	0.498918	0.404748
C73	C	1.092475	-0.030283	0.094480
C74	C	1.592475	0.469717	0.594480
C75	C	1.089229	-0.128054	0.095719
C76	C	1.589229	0.371946	0.595719
C77	C	1.017822	-0.252105	-0.000115
C78	C	1.517822	0.247895	0.499885
C79	C	1.024310	0.106828	-0.000070
C80	C	1.524310	0.606828	0.499930
C81	C	1.179099	0.469655	-0.000096
C82	C	1.679099	0.969655	0.499904
C83	C	1.275053	0.500701	-0.000109
C84	C	1.775053	1.000701	0.499891
C85	C	1.014746	0.578512	-0.000108
C86	C	1.514746	1.078512	0.499892
C87	C	1.016445	0.671987	-0.000122
C88	C	1.516445	1.171987	0.499878
N89	N	1.076866	0.390413	0.237342
N90	N	1.576866	0.890413	0.737342
N91	N	0.965274	0.464303	-0.237511
N92	N	1.465274	0.964303	0.262489
C93	C	0.869445	0.527711	0.604974
C94	C	1.369445	1.027711	1.104974
C95	C	0.894158	0.511361	0.709998
C96	C	1.394158	1.011361	1.209998
C97	C	1.011702	0.433572	0.709969
C98	C	1.511702	0.933572	1.209969
C99	C	0.986996	0.449912	0.604943
C100	C	1.486996	0.949912	1.104943
C101	C	0.915868	0.496983	0.552454
C102	C	1.415868	0.996983	1.052454
C103	C	1.033419	0.419184	0.552423
C104	C	1.533419	0.919184	1.052423
C105	C	1.008718	0.435527	0.447406
C106	C	1.508718	0.935527	0.947406
C107	C	0.937594	0.482598	0.394910
C108	C	1.437594	0.982598	0.894910
C109	C	0.891166	0.513326	0.447438
C110	C	1.391166	1.013326	0.947438
C111	C	1.104551	0.372118	0.604914
C112	C	1.604551	0.872118	1.104914
C113	C	1.150974	0.341390	0.552393
C114	C	1.650974	0.841390	1.052393
C115	C	1.126269	0.357728	0.447375
C116	C	1.626269	0.857728	0.947375
C117	C	1.055145	0.404799	0.394879
C118	C	1.555145	0.904799	0.894879
C119	C	1.172696	0.327000	0.394847
C120	C	1.672696	0.827000	0.894847
C121	C	1.147995	0.343342	0.289831
C122	C	1.647995	0.843342	0.789831
C123	C	1.030444	0.421141	0.289862
C124	C	1.530444	0.921141	0.789862
H125	H	0.302121	0.370738	-0.000092
H126	H	0.802121	0.870738	0.499908
H127	H	1.208890	0.303067	0.595142
H128	H	1.708890	0.803067	1.095142
Br129	Br	0.592733	0.707227	-0.000142
Br130	Br	1.092733	1.207227	0.499858
Br131	Br	0.963595	0.045251	-0.214162
Br132	Br	1.463595	0.545251	0.285838
H133	H	0.856349	0.536389	0.752755
H134	H	1.356349	1.036389	1.252755
Br135	Br	0.723305	0.569219	-0.000003
Br136	Br	1.223305	1.069219	0.499997
Br137	Br	0.318849	0.285484	-0.000050
Br138	Br	0.818849	0.785484	0.499950
Br139	Br	0.449398	0.147489	-0.000036
Br140	Br	0.949398	0.647489	0.499964
H141	H	0.613824	0.165729	-0.000047
H142	H	1.113824	0.665729	0.499953
H143	H	1.230615	0.288681	0.437597
H144	H	1.730615	0.788681	0.937597
Br145	Br	0.835497	-0.170358	-0.114735
Br146	Br	1.335497	0.329642	0.385265
Br147	Br	0.807465	0.186869	-0.000032
Br148	Br	1.307465	0.686869	0.499968
H149	H	1.159643	-0.140806	0.101742
H150	H	1.659643	0.359194	0.601742
H151	H	0.428310	0.688989	-0.000136
H152	H	0.928310	1.188989	0.499864
Br153	Br	1.210360	0.028834	0.096007
Br154	Br	1.710360	0.528834	0.596007
H155	H	1.185798	0.318321	0.247068
H156	H	1.685798	0.818321	0.747068
Br157	Br	0.888737	-0.206893	0.113114
Br158	Br	1.388737	0.293107	0.613114
H159	H	0.811519	0.566033	0.562236
H160	H	1.311519	1.066033	1.062236
H161	H	1.115786	0.035641	-0.099308
H162	H	1.615786	0.535641	0.400692
Br163	Br	1.160076	-0.114927	-0.100645
Br164	Br	1.660076	0.385073	0.399355
Br165	Br	0.234659	0.667858	-0.000132
Br166	Br	0.734659	1.167858	0.499868
H167	H	0.995624	-0.117388	-0.166212
H168	H	1.495624	0.382612	0.333788
Br169	Br	0.904075	0.504786	0.252385
Br170	Br	1.404075	1.004786	0.752385
H171	H	1.124663	0.358818	0.690425
H172	H	1.624663	0.858818	1.190425
Br173	Br	0.891595	-0.031051	0.113557
Br174	Br	1.391595	0.468949	0.613557
H175	H	0.740019	0.483983	-0.000092
H176	H	1.240019	0.983983	0.499908
H177	H	0.874266	-0.012688	-0.068155
H178	H	1.374266	0.487312	0.431845
Br179	Br	1.070336	-0.017307	0.214646
Br180	Br	1.570336	0.482693	0.714646
Br181	Br	1.058318	-0.195146	0.212969
Br182	Br	1.558318	0.304854	0.712969
H183	H	0.972518	0.459463	0.247124
H184	H	1.472518	0.959463	0.747124
H185	H	0.833240	0.551647	0.404699
H186	H	1.333240	1.051647	0.904699
Br187	Br	1.108235	0.369697	0.781210
Br188	Br	1.608235	0.869697	1.281210
