data_functionalizedCrystal
_audit_creation_method	'MofGen! by Chris Wilmer'
_symmetry_space_group_name_H-M	'P1'
_symmetry_Int_Tables_number	1
_symmetry_cell_setting	triclinic
loop_
_symmetry_equiv_pos_as_xyz
  x,y,z
_cell_length_a	6.817900
_cell_length_b	14.712618
_cell_length_c	16.417823
_cell_angle_alpha	84.298978
_cell_angle_beta	103.385419
_cell_angle_gamma	77.863674
loop_
_atom_site_label
_atom_site_type_symbol
_atom_site_fract_x
_atom_site_fract_y
_atom_site_fract_z
V1	V	-4.010897	0.290284	-0.116424
V2	V	-3.510897	0.790284	0.383576
O3	O	-3.999226	0.284427	0.005040
O4	O	-3.499226	0.784427	0.505040
O5	O	-3.962028	0.288617	-0.230317
O6	O	-3.462028	0.788617	0.269683
O7	O	-3.955802	0.416742	-0.114877
O8	O	-3.455802	0.916742	0.385123
O9	O	-4.005495	0.155416	-0.111199
O10	O	-3.505495	0.655416	0.388801
V11	V	-4.495453	0.274114	-0.101867
V12	V	-3.995453	0.774114	0.398133
O13	O	-4.269889	0.325754	-0.148357
O14	O	-3.769889	0.825754	0.351643
O15	O	-4.686658	0.238644	-0.069934
O16	O	-4.186658	0.738644	0.430066
O17	O	-4.321115	0.275781	0.012025
O18	O	-3.821115	0.775781	0.512025
O19	O	-4.624520	0.279971	-0.223331
O20	O	-4.124520	0.779971	0.276669
O21	O	-4.618252	0.408983	-0.107093
O22	O	-4.118252	0.908983	0.392907
O23	O	-4.327341	0.147656	-0.103415
O24	O	-3.827341	0.647656	0.396585
C25	C	-3.807131	0.284120	-0.258073
C26	C	-3.307131	0.784120	0.241927
C27	C	-3.848417	0.283600	-0.351183
C28	C	-3.348417	0.783600	0.148817
C29	C	-3.946606	0.196764	-0.640787
C30	C	-3.446606	0.696764	-0.140787
C31	C	-3.907787	0.197238	-0.553298
C32	C	-3.407787	0.697238	-0.053298
C33	C	-3.979116	0.367644	-0.577516
C34	C	-3.479116	0.867644	-0.077516
C35	C	-4.017920	0.367169	-0.665003
C36	C	-3.517920	0.867169	-0.165003
C37	C	-4.001673	0.281727	-0.696637
C38	C	-3.501673	0.781727	-0.196637
C39	C	-3.924050	0.282675	-0.521660
C40	C	-3.424050	0.782675	-0.021660
C41	C	-3.881961	0.283189	-0.426801
C42	C	-3.381961	0.783189	0.073199
C43	C	-4.043761	0.281212	-0.791502
C44	C	-3.543761	0.781212	-0.291502
C45	C	-4.147296	0.116839	-0.107477
C46	C	-3.647296	0.616839	0.392523
C47	C	-4.090300	0.013456	-0.107984
C48	C	-3.590300	0.513456	0.392016
C49	C	-3.881704	-0.365107	-0.109882
C50	C	-3.381704	0.134893	0.390118
C51	C	-3.939750	-0.259780	-0.109354
C52	C	-3.439750	0.240220	0.390646
C53	C	-3.986001	-0.175829	-0.108934
C54	C	-3.486001	0.324171	0.391066
C55	C	-4.044049	-0.070495	-0.108404
C56	C	-3.544049	0.429505	0.391596
C57	C	-3.799189	0.447555	-0.110818
C58	C	-3.299189	0.947555	0.389182
C59	C	-3.835424	0.550936	-0.110306
C60	C	-3.335424	1.050936	0.389694
C61	C	-4.139354	0.280276	0.039777
C62	C	-3.639354	0.780276	0.539777
C63	C	-4.077306	0.280802	0.132887
C64	C	-3.577306	0.780802	0.632887
H65	H	-3.992343	0.437208	-0.551750
H66	H	-3.492343	0.937208	-0.051750
C67	C	-4.078501	0.460639	-0.726442
C68	C	-3.578501	0.960639	-0.226442
N69	N	-4.124124	0.531038	-0.772717
N70	N	-3.624124	1.031038	-0.272717
H71	H	-3.933368	0.127191	-0.666540
H72	H	-3.433368	0.627191	-0.166540
H73	H	-3.862945	0.128053	-0.507828
H74	H	-3.362945	0.628053	-0.007828
