data_functionalizedCrystal
_audit_creation_method	'MofGen! by Chris Wilmer'
_symmetry_space_group_name_H-M	'P1'
_symmetry_Int_Tables_number	1
_symmetry_cell_setting	triclinic
loop_
_symmetry_equiv_pos_as_xyz
  x,y,z
_cell_length_a	10.654554
_cell_length_b	10.967829
_cell_length_c	9.730223
_cell_angle_alpha	77.870761
_cell_angle_beta	89.999030
_cell_angle_gamma	84.600790
loop_
_atom_site_label
_atom_site_type_symbol
_atom_site_fract_x
_atom_site_fract_y
_atom_site_fract_z
O1	O	1.667804	0.175298	-0.155828
O2	O	1.302324	0.191991	-0.159779
O3	O	1.493494	0.002069	-0.114794
O4	O	1.476634	0.365220	-0.200813
O5	O	1.493492	0.002074	0.113785
O6	O	1.302322	0.191996	0.068800
O7	O	1.667802	0.175303	0.072751
Zn8	Zn	1.485061	0.183650	0.107067
Zn9	Zn	1.485064	0.183644	-0.194095
O10	O	1.476631	0.365225	0.027766
C11	C	1.255525	0.190767	-0.045198
C12	C	1.116083	0.187096	-0.044328
C13	C	0.933539	0.068370	-0.016224
C14	C	1.064560	0.071818	-0.017026
C15	C	1.036577	0.298932	-0.070814
C16	C	0.905558	0.295483	-0.070001
C17	C	0.949696	-0.062752	0.014825
C18	C	1.080717	-0.059304	0.014022
C19	C	1.492266	-0.044428	0.010507
C20	C	1.488595	-0.182984	0.043317
C21	C	1.486960	-0.244753	-0.060467
C22	C	1.483166	-0.387957	-0.026558
C23	C	1.714601	0.176527	-0.041833
C24	C	1.854043	0.180198	-0.042712
C25	C	1.477859	0.411722	-0.097538
C26	C	1.481530	0.550278	-0.130357
N27	N	1.485069	0.183654	0.312603
N28	N	1.485067	0.183630	-0.399628
C29	C	1.569741	0.099585	0.404441
C30	C	1.569738	0.099570	0.548328
C31	C	1.400386	0.267703	0.508522
C32	C	1.400384	0.267711	0.364640
C33	C	1.667519	0.002518	0.427423
C34	C	1.667515	0.002503	0.571309
H35	H	0.914074	-0.104507	-0.073982
H36	H	1.122482	-0.108705	-0.069939
F37	F	1.639510	-0.122851	0.406065
F38	F	0.820957	0.414505	-0.098176
F39	F	1.310262	0.357157	0.563916
F40	F	1.091415	0.421620	-0.099857
F41	F	1.786688	0.042259	0.359672
H42	H	1.487179	-0.236119	0.157274
F43	F	1.627642	-0.115966	0.657694
H44	H	0.920339	-0.114034	0.122625
H45	H	1.481749	-0.441087	0.087406
F46	F	1.310252	0.357172	0.266902
F47	F	1.793658	0.030442	0.615739
F48	F	1.488823	-0.175309	-0.209420
F49	F	1.483332	-0.380279	-0.279320
H50	H	1.126360	-0.098925	0.122106
