data_functionalizedCrystal
_audit_creation_method	'MofGen! by Chris Wilmer'
_symmetry_space_group_name_H-M	'P1'
_symmetry_Int_Tables_number	1
_symmetry_cell_setting	triclinic
loop_
_symmetry_equiv_pos_as_xyz
  x,y,z
_cell_length_a	10.654550
_cell_length_b	19.288862
_cell_length_c	9.730223
_cell_angle_alpha	89.988703
_cell_angle_beta	90.000649
_cell_angle_gamma	83.810108
loop_
_atom_site_label
_atom_site_type_symbol
_atom_site_fract_x
_atom_site_fract_y
_atom_site_fract_z
O1	O	-1.665748	-0.097554	0.114213
O2	O	-1.300071	-0.106848	0.114240
O3	O	-1.493477	-0.001140	0.114191
O4	O	-1.472341	-0.203263	0.114262
O5	O	-1.493467	-0.001138	-0.114389
O6	O	-1.300061	-0.106847	-0.114340
O7	O	-1.665738	-0.097552	-0.114367
Zn8	Zn	-1.482898	-0.102199	-0.150645
Zn9	Zn	-1.482911	-0.102202	0.150519
O10	O	-1.472331	-0.203261	-0.114317
C11	C	-1.253282	-0.106165	-0.000047
C12	C	-1.113883	-0.104123	-0.000038
C13	C	-1.492793	0.024742	-0.000105
C14	C	-1.490753	0.101859	-0.000123
C15	C	-1.712526	-0.098236	-0.000077
C16	C	-1.851926	-0.100277	-0.000077
C17	C	-1.033064	-0.166363	-0.000020
C18	C	-0.902084	-0.164440	-0.000044
C19	C	-0.932755	-0.038033	-0.000099
C20	C	-1.063732	-0.039957	-0.000085
C21	C	-1.604235	0.145812	-0.000142
C22	C	-1.602318	0.218272	-0.000126
C23	C	-1.486913	0.246775	-0.000119
C24	C	-1.373416	0.202812	-0.000092
C25	C	-1.375336	0.130354	-0.000095
C26	C	-1.396189	0.355657	-0.080187
C27	C	-1.394274	0.428114	-0.080193
C28	C	-1.480987	0.470260	-0.000105
C29	C	-1.569637	0.439940	0.079972
C30	C	-1.571556	0.367482	0.079969
C31	C	-1.484819	0.325343	-0.000115
C32	C	-1.592399	0.592783	-0.000104
C33	C	-1.590477	0.665243	-0.000079
C34	C	-1.361572	0.649782	-0.000060
C35	C	-1.363497	0.577323	-0.000070
C36	C	-1.478914	0.548828	-0.000099
C37	C	-1.473020	0.770858	-0.000038
C38	C	-1.475071	0.693741	-0.000070
N39	N	-1.482898	-0.102197	-0.356182
C40	C	-1.568573	-0.055407	-0.572022
C41	C	-1.568565	-0.055408	-0.428139
C42	C	-1.397241	-0.148993	-0.428115
C43	C	-1.397256	-0.148995	-0.571995
N44	N	-1.482921	-0.102198	0.356055
H45	H	-0.836286	-0.215122	-0.000032
H46	H	-1.325574	0.321348	-0.145412
H47	H	-1.638313	-0.017307	-0.369583
H48	H	-1.643735	0.342799	0.145173
C49	C	-0.878546	0.031700	-0.000200
C50	C	-0.977363	0.085796	-0.000248
C51	C	-0.927478	0.150045	-0.000352
H52	H	-0.828104	0.035176	0.079486
H53	H	-0.828130	0.035117	-0.079946
H54	H	-1.027758	0.082380	0.079491
H55	H	-1.027813	0.082343	-0.079927
H56	H	-0.877062	0.153462	-0.080098
H57	H	-0.877036	0.153513	0.079335
H58	H	-0.994516	0.186756	-0.000397
C59	C	-1.661721	-0.004572	-0.649892
C60	C	-1.736749	0.036394	-0.556101
C61	C	-1.822583	0.083226	-0.627780
H62	H	-1.616867	0.024639	-0.706040
H63	H	-1.713925	-0.029808	-0.705976
H64	H	-1.684551	0.061628	-0.500041
H65	H	-1.781631	0.007202	-0.499950
H66	H	-1.874788	0.057990	-0.683864
H67	H	-1.777719	0.112432	-0.683925
H68	H	-1.873508	0.111022	-0.564154
H69	H	-1.327507	-0.187102	-0.630559
C70	C	-1.248209	0.233850	0.000128
C71	C	-1.240443	0.275001	0.117708
C72	C	-1.125125	0.303611	0.117956
H73	H	-1.180786	0.197365	0.000209
H74	H	-1.242686	0.261841	-0.079543
H75	H	-1.245954	0.247012	0.197358
H76	H	-1.307840	0.311497	0.117652
H77	H	-1.119601	0.331602	0.038286
H78	H	-1.057711	0.267122	0.118034
H79	H	-1.119845	0.331540	0.197726
C80	C	-1.304374	-0.199906	-0.350065
C81	C	-1.324367	-0.268267	-0.384998
C82	C	-1.238849	-0.315186	-0.313114
H83	H	-1.220559	-0.192026	-0.373601
H84	H	-1.316635	-0.193250	-0.254061
H85	H	-1.312096	-0.274921	-0.480980
H86	H	-1.408165	-0.276170	-0.361458
H87	H	-1.251110	-0.308529	-0.217110
H88	H	-1.155039	-0.307299	-0.336656
H89	H	-1.252410	-0.361574	-0.336796
C90	C	-1.087271	-0.236097	-0.000052
C91	C	-0.988452	-0.290191	-0.000080
C92	C	-1.038335	-0.354441	-0.000133
H93	H	-1.137700	-0.239576	0.079643
H94	H	-1.137700	-0.239511	-0.079789
H95	H	-0.938045	-0.286778	0.079648
H96	H	-0.938015	-0.286735	-0.079770
H97	H	-1.088763	-0.357856	-0.079870
H98	H	-1.088763	-0.357913	0.079564
H99	H	-0.971295	-0.391152	-0.000165
H100	H	-1.129539	0.010730	-0.000103
H101	H	-1.698216	0.122616	-0.000161
H102	H	-1.694732	0.254065	-0.000135
H103	H	-1.640246	0.474254	0.145188
H104	H	-1.267607	0.672988	-0.000047
H105	H	-1.686378	0.569581	-0.000121
H106	H	-1.682892	0.701030	-0.000087
H107	H	-1.271087	0.541535	-0.000063
H108	H	-1.322085	0.452794	-0.145388
H109	H	-1.282922	0.094566	-0.000080
