data_functionalizedCrystal
_audit_creation_method	'MofGen! by Chris Wilmer'
_symmetry_space_group_name_H-M	'P1'
_symmetry_Int_Tables_number	1
_symmetry_cell_setting	triclinic
loop_
_symmetry_equiv_pos_as_xyz
  x,y,z
_cell_length_a	21.295420
_cell_length_b	21.295417
_cell_length_c	12.759393
_cell_angle_alpha	89.960830
_cell_angle_beta	89.978261
_cell_angle_gamma	90.026289
loop_
_atom_site_label
_atom_site_type_symbol
_atom_site_fract_x
_atom_site_fract_y
_atom_site_fract_z
Zn1	Zn	0.962338	-0.250643	-0.594017
Zn2	Zn	0.962245	-0.355927	-0.418313
Zn3	Zn	0.857066	-0.250668	-0.418346
Zn4	Zn	0.857030	-0.355870	-0.593945
O5	O	0.909670	-0.303277	-0.506155
O6	O	1.050415	-0.264622	-0.570726
O7	O	0.948269	-0.341998	-0.271297
O8	O	0.871084	-0.162575	-0.441693
O9	O	1.050347	-0.341974	-0.441637
O10	O	0.948427	-0.162557	-0.570757
O11	O	0.870995	-0.264665	-0.271321
O12	O	0.768972	-0.264610	-0.441623
O13	O	0.871023	-0.341878	-0.740976
O14	O	0.768946	-0.341902	-0.570635
O15	O	0.948392	-0.264568	-0.741028
O16	O	0.948235	-0.444009	-0.441568
O17	O	0.870934	-0.443967	-0.570603
C18	C	0.746118	-0.303253	-0.506126
C19	C	0.676150	-0.303258	-0.506138
C20	C	0.176727	-0.263095	-0.573497
C21	C	0.242469	-0.263090	-0.573496
C22	C	0.275311	-0.303296	-0.506180
C23	C	0.242404	-0.343521	-0.438877
C24	C	0.176663	-0.343529	-0.438887
N25	N	0.378503	-0.308049	-0.414185
N26	N	0.440955	-0.308037	-0.414179
C27	C	0.473385	-0.303275	-0.506149
N28	N	0.441005	-0.298513	-0.598127
N29	N	0.378548	-0.298521	-0.598132
C30	C	0.346596	-0.303292	-0.506162
C31	C	0.577570	-0.263051	-0.573452
C32	C	0.643313	-0.263051	-0.573454
C33	C	0.643247	-0.343478	-0.438825
C34	C	0.577504	-0.343482	-0.438833
C35	C	0.544670	-0.303265	-0.506145
C36	C	0.909587	-0.466829	-0.506097
C37	C	0.909610	-0.536797	-0.506107
C38	C	0.949896	-0.569664	-0.438987
C39	C	0.949925	-0.635407	-0.439011
C40	C	0.909657	-0.668279	-0.506144
C41	C	0.869368	-0.635404	-0.573277
C42	C	0.869344	-0.569663	-0.573259
N43	N	0.854590	-0.771540	-0.514143
N44	N	0.854615	-0.833992	-0.514154
C45	C	0.909728	-0.866354	-0.506204
N46	N	0.964817	-0.833905	-0.498222
N47	N	0.964792	-0.771448	-0.498205
C48	C	0.909679	-0.739565	-0.506171
C49	C	0.950050	-0.970507	-0.439106
C50	C	0.950080	-1.036251	-0.439137
C51	C	0.869517	-1.036247	-0.573397
C52	C	0.869492	-0.970504	-0.573372
C53	C	0.909758	-0.937638	-0.506220
C54	C	1.073860	-0.303302	-0.506186
C55	C	1.143828	-0.303312	-0.506199
C56	C	0.909714	-0.303214	-0.780189
C57	C	0.909733	-0.303186	-0.896965
C58	C	0.909770	-0.139087	-0.506237
C59	C	0.909812	-0.069119	-0.506271
C60	C	0.950024	-0.262927	-0.951857
C61	C	0.950039	-0.262904	-1.061581
C62	C	0.869469	-0.343406	-1.061513
C63	C	0.869452	-0.343425	-0.951791
C64	C	0.996543	-0.216452	-0.951897
C65	C	0.996558	-0.216430	-1.061621
C66	C	0.909662	-0.303295	-0.233188
C67	C	0.909765	-0.303145	-0.116412
H68	H	0.550718	-0.376229	-0.384027
C69	C	0.993807	-0.934740	-0.366380
C70	C	1.034108	-0.896919	-0.425915
C71	C	1.074420	-0.863958	-0.358956
H72	H	1.017868	-0.963662	-0.326391
H73	H	0.969749	-0.909103	-0.320571
H74	H	1.058163	-0.922553	-0.471706
H75	H	1.010065	-0.867985	-0.465903
H76	H	1.050363	-0.838322	-0.313147
H77	H	1.098477	-0.892885	-0.318970
H78	H	1.101766	-0.838288	-0.399340
H79	H	1.042836	-0.233932	-0.917861
H80	H	0.979127	-0.170108	-1.095677
C81	C	0.979122	-0.151418	-0.912428
C82	C	0.968485	-0.111617	-0.997979
C83	C	0.952428	-0.051708	-0.961661
H84	H	1.012460	-0.135151	-0.871108
H85	H	0.942097	-0.154045	-0.871090
H86	H	1.005506	-0.108988	-1.039300
H87	H	0.935145	-0.127865	-1.039307
H88	H	0.915402	-0.054335	-0.920323
H89	H	0.985768	-0.035447	-0.920341
H90	H	0.945202	-0.024698	-1.019701
C91	C	0.140908	-0.387272	-0.365986
C92	C	0.103178	-0.427672	-0.425359
C93	C	0.070237	-0.467982	-0.358239
H94	H	0.115208	-0.363238	-0.320262
H95	H	0.169861	-0.411256	-0.325914
H96	H	0.074229	-0.403691	-0.465413
H97	H	0.128863	-0.451721	-0.471081
H98	H	0.099190	-0.491966	-0.318167
H99	H	0.044541	-0.443942	-0.312518
H100	H	0.044639	-0.495402	-0.398514
H101	H	0.836733	-1.063011	-0.628062
H102	H	0.982734	-0.662172	-0.384354
C103	C	0.993962	-1.071937	-0.366491
C104	C	1.034317	-1.109560	-0.426124
C105	C	1.074782	-1.142422	-0.359264
H106	H	0.970039	-1.097703	-0.320617
H107	H	1.017971	-1.042938	-0.326568
H108	H	1.010310	-1.138556	-0.466029
H109	H	1.058254	-1.083810	-0.471995
H110	H	1.098791	-1.113423	-0.319341
H111	H	1.050853	-1.168185	-0.313394
H112	H	1.102171	-1.167949	-0.399716
C113	C	0.825676	-0.934929	-0.646275
C114	C	0.790403	-0.977786	-0.705054
C115	C	0.750026	-0.945037	-0.772217
H116	H	0.849659	-0.909236	-0.692175
H117	H	0.798218	-0.909341	-0.606054
H118	H	0.817857	-1.003362	-0.745271
H119	H	0.766407	-1.003479	-0.659181
H120	H	0.722569	-0.919449	-0.731997
H121	H	0.774015	-0.919345	-0.818111
H122	H	0.726085	-0.974110	-0.812100
H123	H	1.045308	-0.229490	-1.091401
C124	C	0.141000	-0.219540	-0.646650
C125	C	0.103256	-0.255233	-0.713874
C126	C	0.070329	-0.215134	-0.781271
H127	H	0.169942	-0.195575	-0.686832
H128	H	0.115314	-0.192097	-0.606581
H129	H	0.128940	-0.282665	-0.753939
H130	H	0.074302	-0.279197	-0.673721
H131	H	0.044643	-0.187691	-0.741202
H132	H	0.099276	-0.191170	-0.821445
H133	H	0.044712	-0.239345	-0.826883
C134	C	0.541947	-0.219475	-0.646717
C135	C	0.557947	-0.233265	-0.750624
C136	C	0.525139	-0.193143	-0.818145
H137	H	0.552704	-0.177145	-0.631613
H138	H	0.498076	-0.225243	-0.637150
H139	H	0.601809	-0.227492	-0.760186
H140	H	0.547188	-0.275588	-0.765760
H141	H	0.481268	-0.198912	-0.808578
H142	H	0.535899	-0.150815	-0.803032
H143	H	0.535987	-0.202498	-0.888653
C144	C	0.678861	-0.387238	-0.365867
C145	C	0.662864	-0.449538	-0.388578
C146	C	0.695668	-0.489870	-0.321401
H147	H	0.668098	-0.378063	-0.295267
H148	H	0.722733	-0.381519	-0.375508
H149	H	0.619002	-0.455255	-0.378928
H150	H	0.673629	-0.458733	-0.459165
H151	H	0.739540	-0.484151	-0.331042
H152	H	0.684903	-0.480690	-0.250805
H153	H	0.684823	-0.532146	-0.336807
C154	C	0.278085	-0.219355	-0.646607
C155	C	0.235258	-0.184128	-0.705542
C156	C	0.268042	-0.143827	-0.772892
H157	H	0.303738	-0.243392	-0.692401
H158	H	0.303715	-0.191865	-0.606514
H159	H	0.209639	-0.211614	-0.745632
H160	H	0.209604	-0.160078	-0.659775
H161	H	0.293672	-0.116338	-0.732799
H162	H	0.293694	-0.167869	-0.818679
H163	H	0.238989	-0.119917	-0.812880
C164	C	0.277976	-0.387138	-0.365619
C165	C	0.261946	-0.373378	-0.261714
C166	C	0.294695	-0.413555	-0.194203
H167	H	0.321851	-0.381414	-0.375106
H168	H	0.267179	-0.429455	-0.380811
H169	H	0.272748	-0.331071	-0.246527
H170	H	0.218077	-0.379106	-0.252194
H171	H	0.283898	-0.455872	-0.209395
H172	H	0.338568	-0.407827	-0.203699
H173	H	0.283819	-0.404227	-0.123696
C174	C	0.679148	-0.219453	-0.646488
C175	C	0.743750	-0.228067	-0.632100
C176	C	0.776781	-0.187922	-0.699371
H177	H	0.668463	-0.177124	-0.631302
H178	H	0.668424	-0.228718	-0.717075
H179	H	0.754470	-0.218798	-0.561529
H180	H	0.754454	-0.270388	-0.647293
H181	H	0.766057	-0.197186	-0.769959
H182	H	0.766091	-0.145595	-0.684180
H183	H	0.820617	-0.193765	-0.689625
C184	C	0.993583	-0.534064	-0.365922
C185	C	0.979927	-0.550132	-0.261956
C186	C	1.020166	-0.517356	-0.194623
H187	H	0.987843	-0.490193	-0.375377
H188	H	1.035886	-0.544814	-0.381306
H189	H	0.937634	-0.539379	-0.246577
H190	H	0.985671	-0.593997	-0.252467
H191	H	1.062469	-0.528105	-0.210008
H192	H	1.014422	-0.473486	-0.204088
H193	H	1.010910	-0.528257	-0.124076
H194	H	0.836583	-0.662173	-0.627938
H195	H	0.836640	-0.376205	-0.907103
C196	C	0.825531	-0.534088	-0.646172
C197	C	0.790261	-0.576943	-0.704957
C198	C	0.749887	-0.544194	-0.772125
H199	H	0.849517	-0.508394	-0.692068
H200	H	0.798072	-0.508501	-0.605954
H201	H	0.817717	-0.602520	-0.745172
H202	H	0.766263	-0.602638	-0.659089
H203	H	0.722428	-0.518607	-0.731907
H204	H	0.773878	-0.518501	-0.818014
H205	H	0.725948	-0.573266	-0.812012
C206	C	0.825810	-0.387071	-1.121230
C207	C	0.834458	-0.378449	-1.229069
C208	C	0.794257	-0.418671	-1.284110
H209	H	0.783492	-0.377896	-1.103371
H210	H	0.835001	-0.429385	-1.103284
H211	H	0.825263	-0.336145	-1.247008
H212	H	0.876768	-0.387629	-1.246959
H213	H	0.803448	-0.460984	-1.266164
H214	H	0.751941	-0.409492	-1.266243
H215	H	0.800123	-0.412830	-1.357284
