data_functionalizedCrystal
_audit_creation_method	'MofGen! by Chris Wilmer'
_symmetry_space_group_name_H-M	'P1'
_symmetry_Int_Tables_number	1
_symmetry_cell_setting	triclinic
loop_
_symmetry_equiv_pos_as_xyz
  x,y,z
_cell_length_a	13.897449
_cell_length_b	16.625546
_cell_length_c	16.625548
_cell_angle_alpha	90.013404
_cell_angle_beta	90.007099
_cell_angle_gamma	90.023748
loop_
_atom_site_label
_atom_site_type_symbol
_atom_site_fract_x
_atom_site_fract_y
_atom_site_fract_z
Zn1	Zn	1.474541	-0.321108	0.455873
Zn2	Zn	1.807874	0.012225	0.789206
Zn3	Zn	2.141207	0.345559	1.122540
Zn4	Zn	1.474460	-0.455911	0.321035
Zn5	Zn	1.807793	-0.122578	0.654369
Zn6	Zn	2.141126	0.210756	0.987702
Zn7	Zn	1.313268	-0.321099	0.321056
Zn8	Zn	1.646602	0.012234	0.654389
Zn9	Zn	1.979935	0.345568	0.987723
Zn10	Zn	1.313198	-0.455905	0.455828
Zn11	Zn	1.646532	-0.122572	0.789161
Zn12	Zn	1.979865	0.210761	1.122494
O13	O	1.393867	-0.388506	0.388448
O14	O	1.727200	-0.055172	0.721781
O15	O	2.060533	0.278161	1.055115
O16	O	1.609512	-0.338996	0.437997
O17	O	1.942845	-0.005663	0.771330
O18	O	2.276178	0.327671	1.104663
O19	O	1.453073	-0.438027	0.208206
O20	O	1.786406	-0.104693	0.541539
O21	O	2.119739	0.228640	0.874872
O22	O	1.334725	-0.208268	0.338968
O23	O	1.668058	0.125065	0.672301
O24	O	2.001391	0.458399	1.005634
O25	O	1.609452	-0.438035	0.338932
O26	O	1.942785	-0.104702	0.672265
O27	O	2.276119	0.228631	1.005599
O28	O	1.453211	-0.208274	0.438017
O29	O	1.786544	0.125059	0.771350
O30	O	2.119878	0.458392	1.104683
O31	O	1.334646	-0.338981	0.208221
O32	O	1.667979	-0.005648	0.541554
O33	O	2.001313	0.327686	0.874888
O34	O	1.178277	-0.338975	0.338924
O35	O	1.511611	-0.005642	0.672257
O36	O	1.844944	0.327691	1.005590
O37	O	1.334605	-0.438025	0.568666
O38	O	1.667939	-0.104692	0.901999
O39	O	2.001272	0.228641	1.235333
O40	O	1.178226	-0.438017	0.437940
O41	O	1.511559	-0.104683	0.771273
O42	O	1.844893	0.228650	1.104606
O43	O	1.453143	-0.338990	0.568699
O44	O	1.786476	-0.005657	0.902033
O45	O	2.119810	0.327676	1.235366
O46	O	1.453005	-0.568743	0.338888
O47	O	1.786338	-0.235409	0.672221
O48	O	2.119671	0.097924	1.005555
O49	O	1.334527	-0.568738	0.437920
O50	O	1.667860	-0.235405	0.771253
O51	O	2.001193	0.097928	1.104586
C52	C	1.143252	-0.388495	0.388430
C53	C	1.476586	-0.055162	0.721763
C54	C	1.809919	0.278172	1.055096
C55	C	1.036038	-0.388510	0.388441
C56	C	1.369372	-0.055177	0.721774
C57	C	1.702705	0.278157	1.055108
C58	C	0.839743	-0.388513	0.388462
C59	C	1.173077	-0.055179	0.721795
C60	C	1.506410	0.278154	1.055129
C61	C	0.948976	-0.388509	0.388448
C62	C	1.282309	-0.055175	0.721781
C63	C	1.615643	0.278158	1.055115
C64	C	1.393775	-0.597997	0.388414
C65	C	1.727109	-0.264663	0.721748
C66	C	2.060442	0.068670	1.055081
C67	C	1.393825	-0.687618	0.388427
C68	C	1.727158	-0.354284	0.721760
C69	C	2.060491	-0.020951	1.055093
C70	C	1.393993	-1.015793	0.388511
C71	C	1.727326	-0.682460	0.721844
C72	C	2.060660	-0.349127	1.055177
C73	C	1.393943	-0.924485	0.388490
C74	C	1.727276	-0.591152	0.721823
C75	C	2.060610	-0.257818	1.055156
C76	C	1.393908	-0.851708	0.388468
C77	C	1.727241	-0.518375	0.721802
C78	C	2.060575	-0.185042	1.055135
C79	C	1.393860	-0.760394	0.388448
C80	C	1.727193	-0.427061	0.721781
C81	C	2.060526	-0.093728	1.055115
C82	C	1.645460	-0.388517	0.388467
C83	C	1.978793	-0.055184	0.721800
C84	C	2.312126	0.278149	1.055134
C85	C	1.752674	-0.388522	0.388475
C86	C	2.086007	-0.055189	0.721808
C87	C	2.419340	0.278145	1.055142
C88	C	1.393875	-0.388508	0.598757
C89	C	1.727209	-0.055175	0.932090
C90	C	2.060542	0.278159	1.265424
C91	C	1.393879	-0.388509	0.688378
C92	C	1.727212	-0.055176	1.021711
C93	C	2.060546	0.278158	1.355045
C94	C	1.393985	-0.178197	0.388500
C95	C	1.727318	0.155136	0.721833
C96	C	2.060651	0.488470	1.055166
C97	C	1.394035	-0.088576	0.388521
C98	C	1.727368	0.244758	0.721855
C99	C	2.060702	0.578091	1.055188
C100	C	1.393839	-0.388516	1.016554
C101	C	1.727172	-0.055183	1.349887
C102	C	2.060505	0.278150	1.683220
C103	C	1.393847	-0.388517	0.925245
C104	C	1.727181	-0.055183	1.258578
C105	C	2.060514	0.278150	1.591912
C106	C	1.393859	-0.388513	0.852469
C107	C	1.727193	-0.055180	1.185802
C108	C	2.060526	0.278153	1.519135
C109	C	1.393867	-0.388513	0.761154
C110	C	1.727200	-0.055179	1.094488
C111	C	2.060533	0.278154	1.427821
C112	C	1.393849	-0.388520	1.178957
C113	C	1.727182	-0.055187	1.512290
C114	C	2.060516	0.278147	1.845624
C115	C	1.393839	-0.388514	1.089336
C116	C	1.727173	-0.055181	1.422669
C117	C	2.060506	0.278153	1.756003
