data_functionalizedCrystal
_audit_creation_method	'MofGen! by Chris Wilmer'
_symmetry_space_group_name_H-M	'P1'
_symmetry_Int_Tables_number	1
_symmetry_cell_setting	triclinic
loop_
_symmetry_equiv_pos_as_xyz
  x,y,z
_cell_length_a	14.519709
_cell_length_b	23.532407
_cell_length_c	13.596369
_cell_angle_alpha	89.989360
_cell_angle_beta	90.000291
_cell_angle_gamma	83.264412
loop_
_atom_site_label
_atom_site_type_symbol
_atom_site_fract_x
_atom_site_fract_y
_atom_site_fract_z
O1	O	1.222985	0.074654	-0.081674
O2	O	0.954404	0.083445	-0.081705
O3	O	1.096794	-0.003846	-0.081671
O4	O	1.080596	0.161945	-0.081708
O5	O	1.096780	-0.003850	0.081912
O6	O	0.954390	0.083441	0.081878
O7	O	1.222971	0.074649	0.081909
Zn8	Zn	1.088678	0.079044	0.107866
Zn9	Zn	1.088697	0.079050	-0.107662
O10	O	1.080582	0.161940	0.081874
C11	C	0.920042	0.083033	0.000083
C12	C	0.817676	0.081805	0.000071
C13	C	1.096374	-0.025066	0.000123
C14	C	1.095134	-0.088288	0.000131
C15	C	0.442833	0.077286	0.000117
C16	C	0.547126	0.078541	0.000104
C17	C	0.630251	0.079545	0.000093
C18	C	0.734551	0.080801	0.000082
C19	C	1.171619	-0.487046	0.000086
C20	C	1.170467	-0.546452	0.000078
O21	O	1.241369	-0.582876	0.000050
N22	N	1.085816	-0.569460	0.000069
C23	C	1.002312	-0.533059	0.000057
O24	O	0.930205	-0.558084	0.000048
C25	C	1.003465	-0.473655	0.000058
C26	C	1.088121	-0.450650	0.000077
C27	C	1.256268	-0.464041	0.000104
C28	C	1.257420	-0.404640	0.000113
C29	C	1.173922	-0.368244	0.000105
C30	C	1.089273	-0.391249	0.000087
C31	C	0.919962	-0.437255	0.000039
C32	C	0.921123	-0.377847	0.000039
C33	C	1.005779	-0.354843	0.000058
C34	C	1.006927	-0.295451	0.000087
N35	N	1.091578	-0.272443	0.000097
C36	C	1.175075	-0.308839	0.000105
C37	C	0.999897	-0.657813	0.000055
C38	C	0.998743	-0.717216	0.000061
C39	C	1.166898	-0.730604	0.000080
C40	C	1.168051	-0.671200	0.000080
C41	C	1.084548	-0.634804	0.000064
C42	C	1.177487	-0.184092	0.000126
C43	C	1.178632	-0.124685	0.000139
C44	C	1.010477	-0.111301	0.000115
C45	C	1.009332	-0.170703	0.000107
C46	C	1.092845	-0.207098	0.000109
O47	O	0.936062	-0.258992	0.000111
O48	O	1.247171	-0.283806	0.000102
C49	C	1.257333	0.075061	0.000119
C50	C	1.359700	0.076289	0.000124
C51	C	1.081001	0.183160	0.000078
C52	C	1.082241	0.246383	0.000064
N53	N	1.088673	0.079040	0.254958
N54	N	1.088710	0.079050	-0.254754
C55	C	1.088696	0.079051	0.656248
C56	C	1.088686	0.079050	0.544597
C57	C	1.088685	0.079046	0.455607
C58	C	1.088674	0.079044	0.343948
H59	H	1.247572	-0.105958	0.000158
C60	C	0.830527	-0.338266	0.000177
C61	C	0.826270	-0.303772	0.084327
C62	C	0.742834	-0.267299	0.084483
H63	H	0.779874	-0.360408	0.000216
H64	H	0.827479	-0.314773	-0.056836
H65	H	0.829309	-0.327263	0.141326
H66	H	0.876903	-0.281618	0.084307
H67	H	0.739787	-0.243806	0.027470
H68	H	0.692188	-0.289446	0.084519
H69	H	0.739938	-0.243887	0.141573
C70	C	0.906802	-0.742155	-0.000152
C71	C	0.856380	-0.723661	-0.084329
C72	C	0.771682	-0.746627	-0.084572
H73	H	0.872331	-0.729690	0.056823
H74	H	0.918025	-0.782750	-0.000209
H75	H	0.845154	-0.683075	-0.084263
H76	H	0.890823	-0.736125	-0.141317
H77	H	0.782905	-0.787222	-0.084629
H78	H	0.737219	-0.734161	-0.027593
H79	H	0.737464	-0.734086	-0.141689
H80	H	0.940399	-0.189434	0.000119
C81	C	1.260058	-0.646337	0.000039
C82	C	1.332928	-0.690933	0.000024
C83	C	1.417702	-0.668054	-0.000031
H84	H	1.264137	-0.623454	0.057066
H85	H	1.264060	-0.623455	-0.057031
H86	H	1.328928	-0.713805	0.057088
H87	H	1.328880	-0.713819	-0.056999
H88	H	1.421704	-0.645172	-0.057102
H89	H	1.421771	-0.645172	0.056997
H90	H	1.467154	-0.698309	-0.000051
C91	C	0.828113	-0.462297	-0.000147
C92	C	0.822557	-0.496007	-0.084302
C93	C	0.737958	-0.519088	-0.084505
H94	H	0.778481	-0.432164	-0.000209
H95	H	0.824134	-0.485232	0.056863
H96	H	0.826527	-0.473073	-0.141297
H97	H	0.872169	-0.526149	-0.084257
H98	H	0.733980	-0.542023	-0.027495
H99	H	0.688334	-0.488951	-0.084565
H100	H	0.734181	-0.541967	-0.141598
H101	H	0.942496	-0.081657	0.000112
H102	H	1.234886	-0.760249	0.000083
C103	C	0.909299	-0.618232	0.000205
C104	C	0.905047	-0.583736	0.084353
C105	C	0.821609	-0.547266	0.084516
H106	H	0.858648	-0.640375	0.000251
H107	H	0.906243	-0.594739	-0.056810
H108	H	0.908094	-0.607226	0.141353
H109	H	0.955679	-0.561581	0.084325
H110	H	0.818554	-0.523773	0.027501
H111	H	0.770965	-0.569414	0.084559
H112	H	0.818717	-0.523853	0.141604
H113	H	1.326355	-0.385915	0.000125
C114	C	1.268256	-0.223505	0.000183
C115	C	1.342625	-0.190633	0.000228
C116	C	1.426254	-0.226920	0.000300
H117	H	1.271449	-0.246963	-0.056848
H118	H	1.271350	-0.246956	0.057250
H119	H	1.339533	-0.167192	-0.056833
H120	H	1.339463	-0.167176	0.057254
H121	H	1.429348	-0.250371	0.057367
H122	H	1.429437	-0.250376	-0.056732
H123	H	1.476723	-0.204622	0.000339
H124	H	1.324266	-0.493670	0.000107
