data_functionalizedCrystal
_audit_creation_method	'MofGen! by Chris Wilmer'
_symmetry_space_group_name_H-M	'P1'
_symmetry_Int_Tables_number	1
_symmetry_cell_setting	triclinic
loop_
_symmetry_equiv_pos_as_xyz
  x,y,z
_cell_length_a	15.944499
_cell_length_b	15.944493
_cell_length_c	15.455313
_cell_angle_alpha	92.670512
_cell_angle_beta	87.316496
_cell_angle_gamma	83.476327
loop_
_atom_site_label
_atom_site_type_symbol
_atom_site_fract_x
_atom_site_fract_y
_atom_site_fract_z
O1	O	1.118213	0.104451	-0.072172
O2	O	0.873654	0.117854	-0.072161
O3	O	1.002638	-0.011127	-0.072174
O4	O	0.989230	0.233432	-0.072159
O5	O	0.995262	-0.003782	0.072089
O6	O	0.866278	0.125199	0.072102
O7	O	1.110837	0.111797	0.072091
Cu8	Cu	0.987884	0.119169	0.085269
Cu9	Cu	0.996607	0.110482	-0.085339
O10	O	0.981854	0.240778	0.072104
C11	C	0.838672	0.120978	-0.000028
C12	C	0.745423	0.119333	-0.000025
C13	C	0.453872	0.194267	-0.000033
C14	C	0.518546	0.151692	-0.071166
C15	C	0.409789	0.113356	-0.000045
C16	C	0.511260	0.158913	0.071066
C17	C	0.574697	0.116297	-0.000033
C18	C	0.473238	0.070756	-0.071237
C19	C	0.465943	0.077991	0.071059
C20	C	0.530600	0.035356	-0.000091
C21	C	0.314790	0.111664	-0.000052
C22	C	0.669695	0.117983	-0.000032
C23	C	0.998402	-0.038749	-0.000046
C24	C	0.996760	-0.131998	-0.000057
C25	C	1.072681	-0.367771	-0.000044
C26	C	1.035376	-0.421953	-0.071171
C27	C	0.993715	-0.302718	-0.000046
C28	C	1.028085	-0.414688	0.071061
C29	C	0.990780	-0.467626	-0.000032
C30	C	0.956434	-0.355675	-0.071232
C31	C	0.949152	-0.348402	0.071064
C32	C	0.911789	-0.402552	-0.000080
C33	C	0.995408	-0.207719	-0.000055
C34	C	0.989081	-0.562623	-0.000029
C35	C	1.145820	0.108673	-0.000044
C36	C	1.239068	0.110317	-0.000053
C37	C	0.986090	0.268400	-0.000026
C38	C	0.987732	0.361648	-0.000020
N39	N	0.981755	0.125278	0.205265
N40	N	1.002743	0.104366	-0.205335
C41	C	1.036571	0.070502	0.250654
C42	C	1.031944	0.075130	0.341462
C43	C	0.972504	0.134538	0.386880
C44	C	0.917682	0.189316	0.341485
C45	C	0.922306	0.184684	0.250678
C46	C	0.952545	0.154512	0.658464
C47	C	0.947927	0.159142	0.749277
C48	C	1.062188	0.044954	0.749247
C49	C	1.066810	0.040330	0.658439
C50	C	1.011985	0.095105	0.613052
N51	N	0.967774	0.139272	0.479701
N52	N	1.016712	0.090367	0.520233
H53	H	0.456345	0.033500	-0.131442
H54	H	0.563793	-0.031854	-0.000133
H55	H	0.442758	0.046859	0.131194
H56	H	1.071799	-0.453967	-0.131307
O57	O	0.863189	0.243766	0.201716
H58	H	0.821085	0.285861	0.248552
H59	H	0.420532	0.261411	-0.000098
O60	O	1.068203	-0.448946	0.150717
H61	H	1.033028	-0.418346	0.209695
O62	O	0.533779	0.208308	0.150723
H63	H	0.475189	0.232176	0.190081
O64	O	1.162778	-0.347070	-0.000140
H65	H	1.198390	-0.376763	-0.059280
O66	O	0.883815	0.223220	0.798270
H67	H	0.840906	0.189947	0.839665
H68	H	0.541712	0.182856	-0.131296
H69	H	0.926182	-0.329914	-0.131428
H70	H	0.843719	-0.418007	-0.000116
H71	H	0.912757	-0.316373	0.131202
H72	H	1.106823	0.000358	0.786210
O73	O	1.100678	0.006423	0.201667
H74	H	1.138010	-0.030894	0.248489
O75	O	1.091081	0.016067	0.390420
H76	H	1.133202	-0.026009	0.343583
O77	O	1.130913	-0.023752	0.609451
H78	H	1.168248	-0.061071	0.656269
H79	H	0.907906	0.199113	0.621517
H80	H	0.869281	0.237685	0.378470
