data_functionalizedCrystal
_audit_creation_method	'MofGen! by Chris Wilmer'
_symmetry_space_group_name_H-M	'P1'
_symmetry_Int_Tables_number	1
_symmetry_cell_setting	triclinic
loop_
_symmetry_equiv_pos_as_xyz
  x,y,z
_cell_length_a	12.759400
_cell_length_b	19.805407
_cell_length_c	19.805399
_cell_angle_alpha	90.026078
_cell_angle_beta	89.976763
_cell_angle_gamma	89.986699
loop_
_atom_site_label
_atom_site_type_symbol
_atom_site_fract_x
_atom_site_fract_y
_atom_site_fract_z
Zn1	Zn	-0.418329	-1.034791	-0.382858
Zn2	Zn	0.081671	-0.534791	0.117142
Zn3	Zn	-0.594023	-1.034729	-0.269678
Zn4	Zn	-0.094023	-0.534729	0.230322
Zn5	Zn	-0.418354	-0.921606	-0.269669
Zn6	Zn	0.081646	-0.421606	0.230331
Zn7	Zn	-0.593963	-0.921592	-0.382812
Zn8	Zn	-0.093963	-0.421592	0.117188
O9	O	-0.506167	-0.978179	-0.326254
O10	O	-0.006167	-0.478179	0.173746
O11	O	-0.441650	-1.129499	-0.367867
O12	O	0.058350	-0.629499	0.132133
O13	O	-0.570755	-1.019702	-0.174960
O14	O	-0.070755	-0.519702	0.325040
O15	O	-0.271330	-0.936651	-0.284700
O16	O	0.228670	-0.436651	0.215300
O17	O	-0.570731	-1.129454	-0.284714
O18	O	-0.070731	-0.629454	0.215286
O19	O	-0.271312	-1.019808	-0.367858
O20	O	0.228688	-0.519808	0.132142
O21	O	-0.441692	-0.936591	-0.174954
O22	O	0.058308	-0.436591	0.325046
O23	O	-0.441634	-0.826887	-0.284655
O24	O	0.058366	-0.326887	0.215345
O25	O	-0.570629	-0.936629	-0.477534
O26	O	-0.070629	-0.436629	0.022466
O27	O	-0.570653	-0.826877	-0.367780
O28	O	-0.070653	-0.326877	0.132220
O29	O	-0.441592	-1.019795	-0.477568
O30	O	0.058408	-0.519795	0.022432
O31	O	-0.741036	-1.019690	-0.284670
O32	O	-0.241036	-0.519690	0.215330
O33	O	-0.740992	-0.936568	-0.367789
O34	O	-0.240992	-0.436568	0.132211
C35	C	-0.506140	-0.802323	-0.326212
C36	C	-0.006140	-0.302323	0.173788
C37	C	-0.506154	-0.727091	-0.326210
C38	C	-0.006154	-0.227091	0.173790
C39	C	-0.573461	-0.265313	-0.369490
C40	C	-0.073461	0.234687	0.130510
C41	C	-0.573461	-0.336001	-0.369478
C42	C	-0.073461	0.163999	0.130522
C43	C	-0.506182	-0.371330	-0.326261
C44	C	-0.006182	0.128670	0.173739
C45	C	-0.438907	-0.335966	-0.283048
C46	C	0.061093	0.164034	0.216952
C47	C	-0.438914	-0.265279	-0.283057
C48	C	0.061086	0.234721	0.216943
C49	C	-0.438880	-0.621039	-0.283010
C50	C	0.061120	-0.121039	0.216990
C51	C	-0.438876	-0.691731	-0.283006
C52	C	0.061124	-0.191731	0.216994
C53	C	-0.573427	-0.691762	-0.369430
C54	C	-0.073427	-0.191762	0.130570
C55	C	-0.573434	-0.621075	-0.369439
C56	C	-0.073434	-0.121075	0.130561
C57	C	-0.506163	-0.585717	-0.326225
C58	C	-0.006163	-0.085717	0.173775
C59	C	-0.506166	-0.509069	-0.326237
C60	C	-0.006166	-0.009069	0.173763
C61	C	-0.506173	-0.447977	-0.326251
C62	C	-0.006173	0.052023	0.173749
C63	C	-0.779135	-0.978139	-0.326240
C64	C	-0.279135	-0.478139	0.173760
C65	C	-0.895911	-0.978184	-0.326257
C66	C	-0.395911	-0.478184	0.173743
C67	C	-0.950761	-1.021513	-0.283024
C68	C	-0.450761	-0.521513	0.216976
C69	C	-1.060485	-1.021555	-0.283045
C70	C	-0.560485	-0.521555	0.216955
C71	C	-1.060499	-0.934932	-0.369532
C72	C	-0.560499	-0.434932	0.130468
C73	C	-0.950777	-0.934894	-0.369514
C74	C	-0.450777	-0.434894	0.130486
C75	C	-0.895895	-1.064803	-0.239767
C76	C	-0.395895	-0.564803	0.260233
C77	C	-0.950745	-1.108135	-0.196530
C78	C	-0.450745	-0.608135	0.303470
C79	C	-1.060469	-1.108176	-0.196551
C80	C	-0.560469	-0.608176	0.303449
C81	C	-1.115343	-1.064886	-0.239808
C82	C	-0.615343	-0.564886	0.260192
C83	C	-0.232134	-0.978238	-0.326283
C84	C	0.267866	-0.478238	0.173717
C85	C	-0.115357	-0.978263	-0.326295
C86	C	0.384643	-0.478263	0.173705
C87	C	-0.506101	-0.978217	-0.502797
C88	C	-0.006101	-0.478217	-0.002797
C89	C	-0.506073	-0.978234	-0.578029
C90	C	-0.006073	-0.478234	-0.078029
C91	C	-0.506190	-0.154722	-0.326288
C92	C	-0.006190	0.345278	0.173712
C93	C	-0.506189	-0.229954	-0.326282
C94	C	-0.006189	0.270046	0.173718
C95	C	-0.438880	-1.021539	-0.613392
C96	C	0.061120	-0.521539	-0.113392
C97	C	-0.438849	-1.021546	-0.684080
C98	C	0.061151	-0.521546	-0.184080
C99	C	-0.506018	-0.978250	-0.719405
C100	C	-0.006018	-0.478250	-0.219405
C101	C	-0.573214	-0.934940	-0.684037
C102	C	-0.073214	-0.434940	-0.184037
C103	C	-0.573238	-0.934930	-0.613350
C104	C	-0.073238	-0.434930	-0.113350
C105	C	-0.573116	-0.934978	-0.969110
C106	C	-0.073116	-0.434978	-0.469110
C107	C	-0.573089	-0.934993	-1.039802
C108	C	-0.073089	-0.434993	-0.539802
C109	C	-0.438727	-1.021594	-1.039841
C110	C	0.061273	-0.521594	-0.539841
C111	C	-0.438751	-1.021584	-0.969154
C112	C	0.061249	-0.521584	-0.469154
C113	C	-0.505943	-0.978272	-0.933792
C114	C	-0.005943	-0.478272	-0.433792
C115	C	-0.505974	-0.978264	-0.857144
C116	C	-0.005974	-0.478264	-0.357144
C117	C	-0.505993	-0.978261	-0.796052
C118	C	-0.005993	-0.478261	-0.296052
C119	C	-0.506157	-0.978181	-0.150398
C120	C	-0.006157	-0.478181	0.349602
C121	C	-0.505890	-0.978295	-0.075167
C122	C	-0.005890	-0.478295	0.424833
H123	H	-0.628205	-0.720559	-0.404616
H124	H	-0.128205	-0.220559	0.095384
O125	O	-0.897284	-1.150123	-0.154536
O126	O	-0.397284	-0.650123	0.345464
C127	C	-0.728245	-1.188480	-0.116202
C128	C	-0.228245	-0.688480	0.383798
C129	C	-0.788656	-1.140882	-0.163784
C130	C	-0.288656	-0.640882	0.336216
H131	H	-0.640409	-1.181036	-0.123672
H132	H	-0.140409	-0.681036	0.376328
H133	H	-0.749815	-1.176633	-0.061602
H134	H	-0.249815	-0.676633	0.438398
H135	H	-0.749800	-1.243051	-0.128141
H136	H	-0.249800	-0.743051	0.371859
H137	H	-0.767133	-1.086295	-0.151906
H138	H	-0.267133	-0.586295	0.348094
H139	H	-0.767081	-1.152788	-0.218370
H140	H	-0.267081	-0.652788	0.281630
H141	H	-0.384085	-0.720493	-0.247812
H142	H	0.115915	-0.220493	0.252188
O143	O	-1.113754	-0.892951	-0.411643
O144	O	-0.613754	-0.392951	0.088357
C145	C	-1.147207	-0.860011	-0.526744
C146	C	-0.647207	-0.360011	-0.026744
C147	C	-1.086852	-0.907609	-0.479133
C148	C	-0.586852	-0.407609	0.020867
H149	H	-1.125462	-0.871836	-0.581320
H150	H	-0.625462	-0.371836	-0.081320
H151	H	-1.235063	-0.867483	-0.519388
H152	H	-0.735063	-0.367483	-0.019388
H153	H	-1.125723	-0.805438	-0.514763
H154	H	-0.625723	-0.305438	-0.014763
H155	H	-1.108248	-0.962201	-0.491085
H156	H	-0.608248	-0.462201	0.008915
H157	H	-0.999011	-0.900079	-0.486498
H158	H	-0.499011	-0.400079	0.013502
O159	O	-0.638231	-0.892839	-0.934729
O160	O	-0.138231	-0.392839	-0.434729
C161	C	-0.652362	-0.801471	-0.854856
C162	C	-0.152362	-0.301471	-0.354856
C163	C	-0.578499	-0.849142	-0.893771
C164	C	-0.078499	-0.349142	-0.393771
H165	H	-0.604099	-0.766139	-0.821721
H166	H	-0.104099	-0.266139	-0.321721
H167	H	-0.700354	-0.770477	-0.892209
H168	H	-0.200354	-0.270477	-0.392209
H169	H	-0.707330	-0.832543	-0.821792
H170	H	-0.207330	-0.332543	-0.321792
H171	H	-0.523467	-0.818121	-0.926836
H172	H	-0.023467	-0.318121	-0.426836
H173	H	-0.530581	-0.880138	-0.856381
H174	H	-0.030581	-0.380138	-0.356381
H175	H	-0.628243	-0.364788	-0.404660
H176	H	-0.128243	0.135212	0.095340
H177	H	-0.384132	-0.364736	-0.247857
H178	H	0.115868	0.135264	0.252143
O179	O	-0.373558	-1.063761	-1.074162
O180	O	0.126442	-0.563761	-0.574162
C181	C	-0.322529	-1.178907	-1.095800
C182	C	0.177471	-0.678907	-0.595800
C183	C	-0.396409	-1.131232	-1.056903
C184	C	0.103591	-0.631232	-0.556903
H185	H	-0.340963	-1.233467	-1.081849
H186	H	0.159037	-0.733467	-0.581849
H187	H	-0.334046	-1.171536	-1.152398
H188	H	0.165954	-0.671536	-0.652398
H189	H	-0.237824	-1.167004	-1.081912
H190	H	0.262176	-0.667004	-0.581912
H191	H	-0.481143	-1.143106	-1.070735
H192	H	0.018857	-0.643106	-0.570735
H193	H	-0.384802	-1.138612	-1.000315
H194	H	0.115198	-0.638612	-0.500315
O195	O	-0.373587	-1.063610	-0.934736
O196	O	0.126413	-0.563610	-0.434736
C197	C	-0.313993	-1.101920	-0.825856
C198	C	0.186007	-0.601920	-0.325856
C199	C	-0.387876	-1.054312	-0.864748
C200	C	0.112124	-0.554312	-0.364748
H201	H	-0.325504	-1.094409	-0.769265
H202	H	0.174496	-0.594409	-0.269265
H203	H	-0.332424	-1.156516	-0.839710
H204	H	0.167576	-0.656516	-0.339710
H205	H	-0.229289	-1.090047	-0.839809
H206	H	0.270711	-0.590047	-0.339809
H207	H	-0.472604	-1.066124	-0.850817
H208	H	0.027396	-0.566124	-0.350817
H209	H	-0.369355	-0.999730	-0.850891
H210	H	0.130645	-0.499730	-0.350891
H211	H	-0.628215	-0.592314	-0.404633
H212	H	-0.128215	-0.092314	0.095367
H213	H	-1.204688	-1.064928	-0.239827
H214	H	-0.704688	-0.564928	0.260173
O215	O	-0.373515	-0.230853	-0.241180
O216	O	0.126485	0.269147	0.258820
C217	C	-0.231624	-0.151082	-0.232235
C218	C	0.268376	0.348918	0.267765
C219	C	-0.305633	-0.190014	-0.279742
C220	C	0.194367	0.309986	0.220258
H221	H	-0.176708	-0.118065	-0.263394
H222	H	0.323292	0.381935	0.236606
H223	H	-0.279740	-0.117919	-0.196807
H224	H	0.220260	0.382081	0.303193
H225	H	-0.183583	-0.188484	-0.201329
H226	H	0.316417	0.311516	0.298671
H227	H	-0.353690	-0.152660	-0.310692
H228	H	0.146310	0.347340	0.189308
H229	H	-0.257457	-0.223187	-0.315125
H230	H	0.242543	0.276813	0.184875
H231	H	-0.627900	-0.899685	-0.712804
H232	H	-0.127900	-0.399685	-0.212804
H233	H	-0.384108	-0.592259	-0.247819
H234	H	0.115892	-0.092259	0.252181
H235	H	-0.806552	-1.064772	-0.239743
H236	H	-0.306552	-0.564772	0.260257
O237	O	-1.113590	-1.150290	-0.154493
O238	O	-0.613590	-0.650290	0.345507
C239	C	-1.101989	-1.236230	-0.068734
C240	C	-0.601989	-0.736230	0.431266
C241	C	-1.041703	-1.188561	-0.116324
C242	C	-0.541703	-0.688561	0.383676
H243	H	-1.043895	-1.267194	-0.037872
H244	H	-0.543895	-0.767194	0.462128
H245	H	-1.153406	-1.205225	-0.033275
H246	H	-0.653406	-0.705225	0.466725
H247	H	-1.153310	-1.271595	-0.099864
H248	H	-0.653310	-0.771595	0.400136
H249	H	-0.990326	-1.153186	-0.085248
H250	H	-0.490326	-0.653186	0.414752
H251	H	-0.990353	-1.219607	-0.151784
H252	H	-0.490353	-0.719607	0.348216
O253	O	-0.897437	-0.892903	-0.411580
O254	O	-0.397437	-0.392903	0.088420
C255	C	-0.773415	-0.883714	-0.502900
C256	C	-0.273415	-0.383714	-0.002900
C257	C	-0.833778	-0.931343	-0.455311
C258	C	-0.333778	-0.431343	0.044689
H259	H	-0.721915	-0.914773	-0.538259
H260	H	-0.221915	-0.414773	-0.038259
H261	H	-0.831421	-0.852786	-0.533868
H262	H	-0.331421	-0.352786	-0.033868
H263	H	-0.722163	-0.848312	-0.471764
H264	H	-0.222163	-0.348312	0.028236
H265	H	-0.885031	-0.966785	-0.486394
H266	H	-0.385031	-0.466785	0.013606
H267	H	-0.775715	-0.962223	-0.424340
H268	H	-0.275715	-0.462223	0.075660
H269	H	-0.627787	-0.899733	-1.068562
H270	H	-0.127787	-0.399733	-0.568562
H271	H	-0.384187	-1.056798	-0.584636
H272	H	0.115813	-0.556798	-0.084636
H273	H	-0.628242	-0.236554	-0.404685
H274	H	-0.128242	0.263446	0.095315
H275	H	-0.384137	-1.056812	-0.712869
H276	H	0.115863	-0.556812	-0.212869
H277	H	-0.627943	-0.899659	-0.584558
H278	H	-0.127943	-0.399659	-0.084558
