data_functionalizedCrystal
_audit_creation_method	'MofGen! by Chris Wilmer'
_symmetry_space_group_name_H-M	'P1'
_symmetry_Int_Tables_number	1
_symmetry_cell_setting	triclinic
loop_
_symmetry_equiv_pos_as_xyz
  x,y,z
_cell_length_a	13.897441
_cell_length_b	21.395362
_cell_length_c	21.395361
_cell_angle_alpha	90.046585
_cell_angle_beta	90.036482
_cell_angle_gamma	90.041279
loop_
_atom_site_label
_atom_site_type_symbol
_atom_site_fract_x
_atom_site_fract_y
_atom_site_fract_z
Zn1	Zn	-0.545871	-0.957843	0.249153
Zn2	Zn	-0.045871	-0.457843	0.749153
Zn3	Zn	-0.384556	-0.957750	0.353940
Zn4	Zn	0.115444	-0.457750	0.853940
Zn5	Zn	-0.384531	-0.853063	0.249209
Zn6	Zn	0.115469	-0.353063	0.749209
Zn7	Zn	-0.545750	-0.853027	0.353926
Zn8	Zn	-0.045750	-0.353027	0.853926
O9	O	-0.465177	-0.905421	0.301557
O10	O	0.034823	-0.405421	0.801557
O11	O	-0.524533	-1.045509	0.263036
O12	O	-0.024533	-0.545509	0.763036
O13	O	-0.249571	-0.943840	0.340077
O14	O	0.250429	-0.443840	0.840077
O15	O	-0.405974	-0.867016	0.161524
O16	O	0.094026	-0.367016	0.661524
O17	O	-0.406015	-1.045441	0.340022
O18	O	0.093985	-0.545441	0.840022
O19	O	-0.524509	-0.943997	0.161483
O20	O	-0.024509	-0.443997	0.661483
O21	O	-0.249553	-0.866926	0.263132
O22	O	0.250447	-0.366926	0.763132
O23	O	-0.405857	-0.765380	0.263118
O24	O	0.094143	-0.265380	0.763118
O25	O	-0.680748	-0.866955	0.339998
O26	O	-0.180748	-0.366955	0.839998
O27	O	-0.524304	-0.765354	0.340052
O28	O	-0.024304	-0.265354	0.840052
O29	O	-0.680837	-0.943963	0.263022
O30	O	-0.180837	-0.443963	0.763022
O31	O	-0.405898	-0.943805	0.441616
O32	O	0.094102	-0.443805	0.941616
O33	O	-0.524327	-0.866865	0.441606
O34	O	-0.024327	-0.366865	0.941606
C35	C	-0.465123	-0.905338	0.464345
C36	C	0.034877	-0.405338	0.964345
C37	C	-0.465133	-0.905360	0.533986
C38	C	0.034867	-0.405360	1.033986
C39	C	-0.465065	-0.742633	0.301590
C40	C	0.034935	-0.242633	0.801590
C41	C	-0.465040	-0.672992	0.301619
C42	C	0.034960	-0.172992	0.801619
C43	C	-0.716770	-0.905465	0.301502
C44	C	-0.216770	-0.405465	0.801502
C45	C	-0.823984	-0.905484	0.301478
C46	C	-0.323984	-0.405484	0.801478
C47	C	-1.020279	-0.905501	0.301436
C48	C	-0.520279	-0.405501	0.801436
C49	C	-0.911047	-0.905490	0.301461
C50	C	-0.411047	-0.405490	0.801461
C51	C	-0.214563	-0.905413	0.301567
C52	C	0.285437	-0.405413	0.801567
C53	C	-0.107349	-0.905515	0.301414
C54	C	0.392651	-0.405515	0.801414
C55	C	-0.465290	-1.068844	0.301524
C56	C	0.034710	-0.568844	0.801524
C57	C	-0.465338	-1.138486	0.301510
C58	C	0.034662	-0.638486	0.801510
C59	C	-0.526623	-0.640282	0.341732
C60	C	-0.026623	-0.140282	0.841732
C61	C	-0.526666	-0.574846	0.341717
C62	C	-0.026666	-0.074846	0.841717
C63	C	-0.465109	-0.542124	0.301595
C64	C	0.034891	-0.042124	0.801595
C65	C	-0.403522	-0.574842	0.261475
C66	C	0.096478	-0.074842	0.761475
C67	C	-0.403487	-0.640276	0.261487
C68	C	0.096513	-0.140276	0.761487
C69	C	-0.378272	-0.438402	0.296563
C70	C	0.121728	0.061598	0.796563
C71	C	-0.378305	-0.372969	0.296555
C72	C	0.121695	0.127031	0.796555
C73	C	-0.465215	-0.340303	0.301554
C74	C	0.034785	0.159697	0.801554
C75	C	-0.552095	-0.373078	0.306575
C76	C	-0.052095	0.126922	0.806575
C77	C	-0.552061	-0.438512	0.306587
C78	C	-0.052061	0.061488	0.806587
C79	C	-0.465140	-0.471171	0.301577
C80	C	0.034860	0.028829	0.801577
C81	C	-0.526850	-0.236640	0.341653
C82	C	-0.026850	0.263360	0.841653
C83	C	-0.526895	-0.171204	0.341633
C84	C	-0.026895	0.328796	0.841633
C85	C	-0.403742	-0.171201	0.261394
C86	C	0.096258	0.328799	0.761394
C87	C	-0.403706	-0.236636	0.261410
C88	C	0.096294	0.263364	0.761410
C89	C	-0.465258	-0.269352	0.301543
C90	C	0.034742	0.230648	0.801543
C91	C	-0.465252	-0.905521	0.138134
C92	C	0.034748	-0.405521	0.638134
C93	C	-0.465284	-0.905564	0.068492
C94	C	0.034716	-0.405564	0.568492
C95	C	-0.403530	-0.945458	0.566684
C96	C	0.096470	-0.445458	1.066684
C97	C	-0.403551	-0.945487	0.632119
C98	C	0.096449	-0.445487	1.132119
C99	C	-0.465166	-0.905407	0.664854
C100	C	0.034834	-0.405407	1.164854
C101	C	-0.526780	-0.865306	0.632149
C102	C	-0.026780	-0.365306	1.132149
C103	C	-0.526764	-0.865283	0.566714
C104	C	-0.026764	-0.365283	1.066714
C105	C	-0.472695	-0.848992	0.768584
C106	C	0.027305	-0.348992	1.268584
C107	C	-0.472705	-0.849015	0.834017
C108	C	0.027295	-0.349015	1.334017
C109	C	-0.465222	-0.905480	0.866675
C110	C	0.034778	-0.405480	1.366675
C111	C	-0.457710	-0.961925	0.833892
C112	C	0.042290	-0.461925	1.333892
C113	C	-0.457693	-0.961901	0.768458
C114	C	0.042307	-0.461901	1.268458
C115	C	-0.465191	-0.905429	0.735807
C116	C	0.034809	-0.405429	1.235807
C117	C	-0.403640	-0.945613	0.970325
C118	C	0.096360	-0.445613	1.470325
C119	C	-0.403668	-0.945643	1.035762
C120	C	0.096332	-0.445643	1.535762
C121	C	-0.526892	-0.865457	1.035790
C122	C	-0.026892	-0.365457	1.535790
C123	C	-0.526869	-0.865432	0.970355
C124	C	-0.026869	-0.365432	1.470355
C125	C	-0.465237	-0.905510	0.937626
C126	C	0.034763	-0.405510	1.437626
H127	H	-0.576746	-0.666915	0.374411
H128	H	-0.076746	-0.166915	0.874411
H129	H	-0.353553	-0.263269	0.228749
H130	H	0.146447	0.236731	0.728749
H131	H	-0.577028	-0.832778	0.943730
H132	H	-0.077028	-0.332778	1.443730
O133	O	-0.480800	-0.788138	0.869372
O134	O	0.019200	-0.288138	1.369372
H135	H	-0.546147	-0.789123	0.899155
H136	H	-0.046147	-0.289123	1.399155
O137	O	-0.593345	-0.822226	1.071092
O138	O	-0.093345	-0.322226	1.571092
H139	H	-0.669068	-0.832944	1.058486
H140	H	-0.169068	-0.332944	1.558486
H141	H	-0.353458	-0.978249	0.943677
H142	H	0.146542	-0.478249	1.443677
O143	O	-0.593066	-0.539567	0.385009
O144	O	-0.093066	-0.039567	0.885009
H145	H	-0.668804	-0.552186	0.374350
H146	H	-0.168804	-0.052186	0.874350
H147	H	-0.307495	-0.464992	0.292489
H148	H	0.192505	0.035008	0.792489
H149	H	-0.353505	-0.978300	1.062383
H150	H	0.146495	-0.478300	1.562383
H151	H	-0.577049	-0.144572	0.374297
H152	H	-0.077049	0.355428	0.874297
H153	H	-0.353387	-0.978142	0.658747
H154	H	0.146613	-0.478142	1.158747
H155	H	-0.478792	-0.803008	0.742000
H156	H	0.021208	-0.303008	1.242000
H157	H	-0.451579	-1.007860	0.741768
H158	H	0.048421	-0.507860	1.241768
O159	O	-0.593228	-0.822075	0.667458
O160	O	-0.093228	-0.322075	1.167458
H161	H	-0.668953	-0.832793	0.654856
H162	H	-0.168953	-0.332793	1.154856
O163	O	-0.645759	-0.473866	0.311988
O164	O	-0.145759	0.026134	0.811988
H165	H	-0.706205	-0.440164	0.315457
H166	H	-0.206205	0.059836	0.815457
H167	H	-0.576930	-0.832630	0.540091
H168	H	-0.076930	-0.332630	1.040091
H169	H	-0.622866	-0.346483	0.310645
H170	H	-0.122866	0.153517	0.810645
O171	O	-0.337121	-0.539558	0.218198
O172	O	0.162879	-0.039558	0.718198
H173	H	-0.261384	-0.552065	0.228886
H174	H	0.238616	-0.052065	0.728886
O175	O	-0.593251	-0.271941	0.384919
O176	O	-0.093251	0.228059	0.884919
H177	H	-0.576597	-0.259324	0.434082
H178	H	-0.076597	0.240676	0.934082
O179	O	-0.337336	-0.135918	0.218123
O180	O	0.162664	0.364082	0.718123
H181	H	-0.347698	-0.084921	0.224857
H182	H	0.152302	0.415079	0.724857
H183	H	-0.307562	-0.346288	0.292471
H184	H	0.192438	0.153712	0.792471
O185	O	-0.337045	-0.675563	0.218232
O186	O	0.162955	-0.175563	0.718232
H187	H	-0.294238	-0.641819	0.190334
H188	H	0.205762	-0.141819	0.690334
O189	O	-0.337073	-0.988691	0.531382
O190	O	0.162927	-0.488691	1.031382
H191	H	-0.294247	-1.016584	0.565117
H192	H	0.205753	-0.516584	1.065117
O193	O	-0.449646	-1.022835	0.869104
O194	O	0.050354	-0.522835	1.369104
H195	H	-0.450934	-1.013372	0.920112
H196	H	0.049066	-0.513372	1.420112
