data_functionalizedCrystal
_audit_creation_method	'MofGen! by Chris Wilmer'
_symmetry_space_group_name_H-M	'P1'
_symmetry_Int_Tables_number	1
_symmetry_cell_setting	triclinic
loop_
_symmetry_equiv_pos_as_xyz
  x,y,z
_cell_length_a	6.817900
_cell_length_b	9.582889
_cell_length_c	14.125465
_cell_angle_alpha	93.994381
_cell_angle_beta	100.398878
_cell_angle_gamma	111.207298
loop_
_atom_site_label
_atom_site_type_symbol
_atom_site_fract_x
_atom_site_fract_y
_atom_site_fract_z
V1	V	-4.031036	-0.205771	-0.299801
V2	V	-3.781036	0.044229	-0.049801
V3	V	-3.531036	0.294229	0.200199
V4	V	-3.281036	0.544229	0.450199
O5	O	-3.977344	0.011211	-0.294276
O6	O	-3.727344	0.261211	-0.044276
O7	O	-3.477344	0.511211	0.205724
O8	O	-3.227344	0.761211	0.455724
O9	O	-4.022075	-0.409281	-0.297577
O10	O	-3.772075	-0.159281	-0.047577
O11	O	-3.522075	0.090719	0.202423
O12	O	-3.272075	0.340719	0.452423
O13	O	-3.966455	-0.202025	-0.430635
O14	O	-3.716455	0.047975	-0.180635
O15	O	-3.466455	0.297975	0.069365
O16	O	-3.216455	0.547975	0.319365
O17	O	-4.033349	-0.197480	-0.160296
O18	O	-3.783349	0.052520	0.089704
O19	O	-3.533349	0.302520	0.339704
O20	O	-3.283349	0.552520	0.589704
V21	V	-4.511650	-0.179886	-0.283137
V22	V	-4.261650	0.070114	-0.033137
V23	V	-4.011650	0.320114	0.216863
V24	V	-3.761650	0.570114	0.466863
O25	O	-4.298675	-0.262552	-0.336357
O26	O	-4.048675	-0.012552	-0.086357
O27	O	-3.798675	0.237448	0.163643
O28	O	-3.548675	0.487448	0.413643
O29	O	-4.694209	-0.123105	-0.246581
O30	O	-4.444209	0.126895	0.003419
O31	O	-4.194209	0.376895	0.253419
O32	O	-3.944209	0.626895	0.503419
O33	O	-4.297405	0.023625	-0.285361
O34	O	-4.047405	0.273625	-0.035361
O35	O	-3.797405	0.523625	0.214639
O36	O	-3.547405	0.773625	0.464639
O37	O	-4.682739	-0.396868	-0.288662
O38	O	-4.432739	-0.146868	-0.038662
O39	O	-4.182739	0.103132	0.211338
O40	O	-3.932739	0.353132	0.461338
O41	O	-4.626734	-0.188177	-0.422641
O42	O	-4.376734	0.061823	-0.172641
O43	O	-4.126734	0.311823	0.077359
O44	O	-3.876734	0.561823	0.327359
O45	O	-4.353025	-0.183632	-0.152303
O46	O	-4.103025	0.066368	0.097697
O47	O	-3.853025	0.316368	0.347697
O48	O	-3.603025	0.566368	0.597697
C49	C	-3.877194	-0.458911	-0.292802
C50	C	-3.627194	-0.208911	-0.042802
C51	C	-3.377194	0.041089	0.207198
C52	C	-3.127194	0.291089	0.457198
C53	C	-3.951047	-0.625280	-0.291855
C54	C	-3.701047	-0.375280	-0.041855
C55	C	-3.451047	-0.125280	0.208145
C56	C	-3.201047	0.124720	0.458145
C57	C	-3.806244	-0.194533	-0.462530
C58	C	-3.556244	0.055467	-0.212530
C59	C	-3.306244	0.305467	0.037470
C60	C	-3.056244	0.555467	0.287470
C61	C	-3.834986	-0.192817	-0.569485
C62	C	-3.584986	0.057183	-0.319485
C63	C	-3.334986	0.307183	-0.069485
C64	C	-3.084986	0.557183	0.180515
C65	C	-3.887669	-0.189671	-0.765311
C66	C	-3.637669	0.060329	-0.515311
C67	C	-3.387669	0.310329	-0.265311
C68	C	-3.137669	0.560329	-0.015311
C69	C	-4.074385	-0.195983	-0.817627
C70	C	-3.824385	0.054017	-0.567627
C71	C	-3.574385	0.304017	-0.317627
C72	C	-3.324385	0.554017	-0.067627
C73	C	-4.103701	-0.194232	-0.926591
C74	C	-3.853701	0.055768	-0.676591
C75	C	-3.603701	0.305768	-0.426591
C76	C	-3.353701	0.555768	-0.176591
C77	C	-3.858346	-0.191422	-0.656337
C78	C	-3.608346	0.058578	-0.406337
C79	C	-3.358346	0.308578	-0.156337
C80	C	-3.108346	0.558578	0.093663
C81	C	-4.105630	0.073246	-0.290133
C82	C	-3.855630	0.323246	-0.040133
C83	C	-3.605630	0.573246	0.209867
C84	C	-3.355630	0.823246	0.459867
C85	C	-4.011015	0.239614	-0.291086
C86	C	-3.761015	0.489614	-0.041086
C87	C	-3.511015	0.739614	0.208914
C88	C	-3.261015	0.989614	0.458914
C89	C	-4.176580	-0.191128	-0.120403
C90	C	-3.926580	0.058872	0.129597
C91	C	-3.676580	0.308872	0.379597
C92	C	-3.426580	0.558872	0.629597
C93	C	-4.127074	-0.192837	-0.013447
C94	C	-3.877074	0.057163	0.236553
C95	C	-3.627074	0.307163	0.486553
C96	C	-3.377074	0.557163	0.736553
H97	H	-3.749846	-0.182954	-0.802355
H98	H	-3.499846	0.067046	-0.552355
H99	H	-3.249846	0.317046	-0.302355
H100	H	-2.999846	0.567046	-0.052355
H101	H	-4.212229	-0.202717	-0.780583
H102	H	-3.962229	0.047283	-0.530583
H103	H	-3.712229	0.297283	-0.280583
H104	H	-3.462229	0.547283	-0.030583
