data_functionalizedCrystal
_audit_creation_method	'MofGen! by Chris Wilmer'
_symmetry_space_group_name_H-M	'P1'
_symmetry_Int_Tables_number	1
_symmetry_cell_setting	triclinic
loop_
_symmetry_equiv_pos_as_xyz
  x,y,z
_cell_length_a	10.489711
_cell_length_b	10.723024
_cell_length_c	9.798715
_cell_angle_alpha	90.002215
_cell_angle_beta	89.995007
_cell_angle_gamma	95.502561
loop_
_atom_site_label
_atom_site_type_symbol
_atom_site_fract_x
_atom_site_fract_y
_atom_site_fract_z
O1	O	1.693962	-0.175884	-0.113537
O2	O	2.193962	0.324116	0.386463
O3	O	1.322751	-0.192449	-0.113528
O4	O	1.822751	0.307551	0.386472
O5	O	1.516919	-0.002595	-0.113528
O6	O	2.016919	0.497405	0.386472
O7	O	1.499794	-0.365739	-0.113537
O8	O	1.999794	0.134261	0.386463
O9	O	1.516905	-0.002593	0.113455
O10	O	2.016905	0.497407	0.613455
O11	O	1.322737	-0.192448	0.113454
O12	O	1.822737	0.307552	0.613454
O13	O	1.693948	-0.175883	0.113446
O14	O	2.193948	0.324117	0.613446
Zn15	Zn	1.508340	-0.184165	0.149488
Zn16	Zn	2.008340	0.315835	0.649488
Zn17	Zn	1.508358	-0.184167	-0.149571
Zn18	Zn	2.008358	0.315833	0.350429
O19	O	1.499780	-0.365737	0.113445
O20	O	1.999780	0.134263	0.613445
C21	C	1.275212	-0.191205	-0.000036
C22	C	1.775212	0.308795	0.499964
C23	C	1.133583	-0.187486	-0.000033
C24	C	1.633583	0.312514	0.499967
C25	C	0.951124	-0.301658	-0.000052
C26	C	1.451124	0.198342	0.499948
C27	C	1.043313	-0.244628	-0.111962
C28	C	1.543313	0.255372	0.388038
C29	C	1.043272	-0.244596	0.111825
C30	C	1.543272	0.255404	0.611825
C31	C	0.973439	-0.123766	-0.112065
C32	C	1.473439	0.376234	0.387935
C33	C	0.973389	-0.123751	0.111822
C34	C	1.473389	0.376249	0.611822
C35	C	1.065550	-0.066633	-0.000115
C36	C	1.565550	0.433367	0.499885
C37	C	1.515666	0.043906	-0.000038
C38	C	2.015666	0.543906	0.499962
C39	C	1.511937	0.182462	-0.000043
C40	C	2.011937	0.682462	0.499957
C41	C	1.741486	-0.177127	-0.000050
C42	C	2.241486	0.322873	0.499950
C43	C	1.883115	-0.180846	-0.000062
C44	C	2.383115	0.319154	0.499938
C45	C	1.501033	-0.412238	-0.000048
C46	C	2.001033	0.087762	0.499952
C47	C	1.504762	-0.550794	-0.000052
C48	C	2.004762	-0.050794	0.499948
N49	N	1.508337	-0.184163	0.353588
N50	N	2.008337	0.315837	0.853588
C51	C	1.620583	0.257390	-0.000047
C52	C	2.120583	0.757390	0.499953
C53	C	1.616732	0.400595	-0.000052
C54	C	2.116732	0.900595	0.499948
N55	N	1.508371	-0.184159	-0.353670
N56	N	2.008371	0.315841	0.146330
C57	C	1.590065	-0.104276	0.578520
C58	C	2.090065	0.395724	1.078520
C59	C	1.590048	-0.104277	0.421357
C60	C	2.090048	0.395723	0.921357
H61	H	1.074280	-0.295751	-0.206573
H62	H	1.574280	0.204249	0.293427
H63	H	1.709742	0.464981	-0.000050
H64	H	2.209742	0.964981	0.499950
Br65	Br	0.921722	-0.038616	0.269530
Br66	Br	1.421722	0.461384	0.769530
H67	H	1.438421	-0.252556	0.588033
H68	H	1.938421	0.247444	1.088033
Br69	Br	1.094814	-0.329829	0.269514
Br70	Br	1.594814	0.170171	0.769514
H71	H	1.416070	0.224333	-0.000050
H72	H	1.916070	0.724333	0.499950
H73	H	1.411747	0.384828	-0.000039
H74	H	1.911747	0.884828	0.499961
H75	H	1.716450	0.215519	-0.000041
H76	H	2.216450	0.715519	0.499959
H77	H	1.660025	-0.035887	0.636814
H78	H	2.160025	0.464113	1.136814
Br79	Br	1.706619	0.009730	0.324172
Br80	Br	2.206619	0.509730	0.824172
H81	H	1.438387	-0.252554	0.411892
H82	H	1.938387	0.247446	0.911892
H83	H	1.115071	0.032758	-0.000169
H84	H	1.615071	0.532758	0.499831
Br85	Br	0.868193	-0.467159	-0.000232
Br86	Br	1.368193	0.032841	0.499768
H87	H	0.942668	-0.072696	-0.206787
H88	H	1.442668	0.427304	0.293213
