data_functionalizedCrystal
_audit_creation_method	'MofGen! by Chris Wilmer'
_symmetry_space_group_name_H-M	'P1'
_symmetry_Int_Tables_number	1
_symmetry_cell_setting	triclinic
loop_
_symmetry_equiv_pos_as_xyz
  x,y,z
_cell_length_a	12.827893
_cell_length_b	14.908520
_cell_length_c	12.827885
_cell_angle_alpha	93.263516
_cell_angle_beta	89.980728
_cell_angle_gamma	93.320575
loop_
_atom_site_label
_atom_site_type_symbol
_atom_site_fract_x
_atom_site_fract_y
_atom_site_fract_z
Zn1	Zn	1.573615	-0.359115	-0.614817
Zn2	Zn	1.563402	-0.509998	-0.450147
Zn3	Zn	1.398853	-0.359159	-0.440093
Zn4	Zn	1.388739	-0.509931	-0.624843
O5	O	1.481152	-0.434551	-0.532475
O6	O	1.718495	-0.379139	-0.592984
O7	O	1.541533	-0.490036	-0.302580
O8	O	1.430542	-0.232908	-0.454867
O9	O	1.710992	-0.489993	-0.472002
O10	O	1.558939	-0.232876	-0.583236
O11	O	1.420640	-0.379214	-0.295194
O12	O	1.251276	-0.379149	-0.464589
O13	O	1.413304	-0.489879	-0.769746
O14	O	1.243845	-0.489921	-0.600323
O15	O	1.549132	-0.379074	-0.762380
O16	O	1.531726	-0.636234	-0.481724
O17	O	1.403401	-0.636184	-0.610072
C18	C	1.209643	-0.434533	-0.532454
C19	C	1.093489	-0.434548	-0.532471
C20	C	1.465386	-0.668943	-0.548100
C21	C	1.458737	-0.769217	-0.554820
C22	C	1.038049	-0.489447	-0.599545
C23	C	0.917998	-0.489463	-0.599564
C24	C	1.580004	-0.957632	-0.433905
C25	C	1.573760	-1.051849	-0.440215
C26	C	1.440011	-1.051867	-0.573755
C27	C	1.446255	-0.957651	-0.567444
C28	C	1.516253	-0.910537	-0.497516
C29	C	1.522491	-0.816319	-0.491201
C30	C	1.388748	-0.816339	-0.624745
C31	C	1.382504	-0.910555	-0.631056
C32	C	1.753721	-0.434569	-0.532497
C33	C	1.869874	-0.434576	-0.532506
C34	C	1.481229	-0.434464	-0.805039
C35	C	1.481262	-0.434427	-0.921190
C36	C	1.497008	-0.199243	-0.516811
C37	C	1.503765	-0.098969	-0.510137
C38	C	1.548481	-0.379587	-0.969329
C39	C	1.548517	-0.379547	-1.089377
C40	C	1.481140	-0.434572	-0.260966
C41	C	1.481327	-0.434355	-0.144799
H42	H	1.079463	-0.536433	-0.656958
H43	H	1.606000	-0.332662	-0.921668
C44	C	1.403574	-0.497787	-1.088863
N45	N	1.345008	-0.545564	-1.046724
C46	C	1.643888	-1.103650	-0.370234
N47	N	1.696710	-1.142667	-0.317520
H48	H	0.870335	-0.536467	-0.656985
H49	H	1.636991	-0.919271	-0.376960
C50	C	1.626263	-0.316114	-1.145320
N51	N	1.684822	-0.268332	-1.187459
C52	C	0.934255	-0.371072	-0.454925
N53	N	0.982754	-0.323239	-0.396493
H54	H	1.579483	-0.777959	-0.434260
C55	C	1.363019	-1.103709	-0.650668
N56	N	1.305024	-1.142757	-0.708596
C57	C	1.305505	-0.962392	-0.707967
N58	N	1.247503	-1.001434	-0.765893
H59	H	1.052076	-0.387555	-0.475065
C60	C	1.318617	-0.764526	-0.694722
N61	N	1.265794	-0.725500	-0.747426
H62	H	1.423733	-0.481343	-0.968851
