data_functionalizedCrystal
_audit_creation_method	'MofGen! by Chris Wilmer'
_symmetry_space_group_name_H-M	'P1'
_symmetry_Int_Tables_number	1
_symmetry_cell_setting	triclinic
loop_
_symmetry_equiv_pos_as_xyz
  x,y,z
_cell_length_a	13.635800
_cell_length_b	19.452420
_cell_length_c	19.551833
_cell_angle_alpha	96.340640
_cell_angle_beta	78.336523
_cell_angle_gamma	78.303285
loop_
_atom_site_label
_atom_site_type_symbol
_atom_site_fract_x
_atom_site_fract_y
_atom_site_fract_z
V1	V	1.998720	-0.097920	-0.218202
O2	O	1.997301	0.003948	-0.213697
O3	O	1.970206	-0.193431	-0.217048
O4	O	1.970120	-0.096747	-0.313214
O5	O	1.997388	-0.093406	-0.116866
V6	V	2.241663	-0.085697	-0.206041
O7	O	2.126757	-0.124735	-0.244880
O8	O	2.338724	-0.058882	-0.179363
O9	O	2.158573	0.009814	-0.207195
O10	O	2.301779	-0.187565	-0.210546
O11	O	2.301692	-0.090211	-0.307377
O12	O	2.158659	-0.086870	-0.111029
V13	V	2.498720	-0.097920	-0.218202
O14	O	2.497301	0.003948	-0.213697
O15	O	2.470206	-0.193431	-0.217048
O16	O	2.470120	-0.096747	-0.313214
O17	O	2.497388	-0.093406	-0.116866
V18	V	2.741663	-0.085697	-0.206041
O19	O	2.626757	-0.124735	-0.244880
O20	O	2.838724	-0.058882	-0.179363
O21	O	2.658573	0.009814	-0.207195
O22	O	2.801779	-0.187565	-0.210546
O23	O	2.801692	-0.090211	-0.307377
O24	O	2.658659	-0.086870	-0.111029
C25	C	1.891799	-0.216704	-0.213693
C26	C	1.909100	-0.294787	-0.213383
C27	C	1.900572	-0.321200	-0.149205
C28	C	1.916864	-0.394565	-0.148892
C29	C	1.941666	-0.441516	-0.212760
C30	C	1.950200	-0.415096	-0.276947
C31	C	1.933918	-0.341732	-0.277259
N32	N	1.922982	-0.562116	-0.257741
N33	N	1.938446	-0.631808	-0.257441
C34	C	1.990728	-0.662558	-0.211826
N35	N	2.026946	-0.620981	-0.166511
N36	N	2.011475	-0.551282	-0.166809
C37	C	1.959324	-0.521068	-0.212430
C38	C	1.999866	-0.768521	-0.147304
C39	C	2.016166	-0.841889	-0.146994
C40	C	2.049492	-0.862418	-0.275050
C41	C	2.033202	-0.789052	-0.275359
C42	C	2.008385	-0.742107	-0.211483
C43	C	1.891689	-0.093373	-0.336361
C44	C	1.908919	-0.093045	-0.414035
C45	C	2.068650	0.033083	-0.210548
C46	C	2.040968	0.111166	-0.210863
C47	C	2.007741	-0.096417	-0.454095
C48	C	2.023930	-0.096109	-0.527078
C49	C	1.941295	-0.092444	-0.560001
C50	C	1.842458	-0.089067	-0.519932
C51	C	1.826270	-0.089368	-0.446949
C52	C	1.908169	-0.130636	-0.679448
C53	C	1.924362	-0.130340	-0.752430
C54	C	1.991221	-0.091512	-0.785105
C55	C	2.041904	-0.052991	-0.744790
C56	C	2.025716	-0.053292	-0.671807
C57	C	1.958838	-0.092117	-0.639139
C58	C	2.107603	-0.094550	-0.904301
C59	C	2.123788	-0.094238	-0.977285
C60	C	1.942315	-0.087203	-0.970139
C61	C	1.926131	-0.087508	-0.897156
C62	C	2.008780	-0.091185	-0.864242
C63	C	2.068761	-0.090247	-0.087878
C64	C	2.041151	-0.090571	-0.010203
C65	C	2.391799	-0.216704	-0.213693
C66	C	2.409100	-0.294787	-0.213383
C67	C	2.391689	-0.093373	-0.336361
C68	C	2.408919	-0.093045	-0.414035
C69	C	2.568650	0.033083	-0.210548
C70	C	2.540968	0.111166	-0.210863
C71	C	2.568761	-0.090247	-0.087878
C72	C	2.541151	-0.090571	-0.010203
C73	C	2.507964	-0.335050	-0.216741
C74	C	2.524237	-0.408419	-0.216460
C75	C	2.441643	-0.441525	-0.212817
C76	C	2.342772	-0.401257	-0.209460
C77	C	2.326502	-0.327890	-0.209746
C78	C	2.507747	-0.096405	-0.454086
C79	C	2.523948	-0.096088	-0.527068
C80	C	2.441320	-0.092416	-0.559999
C81	C	2.342483	-0.089053	-0.519943
C82	C	2.326282	-0.089365	-0.446961
C83	C	2.614598	0.151428	-0.207506
C84	C	2.588597	0.224797	-0.207791
C85	C	2.488967	0.257902	-0.211436
C86	C	2.415332	0.217635	-0.214790
C87	C	2.441332	0.144268	-0.214501
C88	C	2.441548	-0.094235	0.022710
C89	C	2.415588	-0.094531	0.095695
C90	C	2.489234	-0.091168	0.135764
C91	C	2.588845	-0.087501	0.102847
C92	C	2.614801	-0.087200	0.029864
H93	H	1.880371	-0.282981	-0.097193
H94	H	2.468089	-0.091423	0.195190
O95	O	2.458810	-0.092086	-0.638718
H96	H	2.384753	-0.088965	-0.654894
O97	O	2.006961	-0.870374	-0.077766
H98	H	2.081422	-0.905967	-0.077167
O99	O	1.836042	-0.172506	-0.644202
H100	H	1.879023	-0.213043	-0.618684
H101	H	2.648801	-0.084761	0.135483
H102	H	2.040140	-0.767548	-0.327619
H103	H	2.695911	-0.084220	0.003071
H104	H	2.604433	-0.098829	-0.559673
H105	H	2.467810	0.317643	-0.211671
H106	H	2.275213	-0.086064	-0.546767
H107	H	2.245804	-0.086630	-0.414357
O108	O	2.307882	0.253343	-0.218737
H109	H	2.302190	0.311120	-0.218386
O110	O	2.596879	-0.100357	-0.418580
H111	H	2.606360	-0.148792	-0.393138
H112	H	2.069687	-0.900645	-0.327053
H113	H	2.695727	0.124483	-0.204539
O114	O	2.362127	-0.097871	-0.020517
H115	H	2.389586	-0.146031	-0.061558
H116	H	2.104407	-0.098859	-0.559701
O117	O	1.907655	-0.423066	-0.079669
H118	H	1.887655	-0.378097	-0.035305
O119	O	2.597062	-0.299357	-0.220674
H120	H	2.569153	-0.241573	-0.220304
O121	O	1.976953	-0.465729	-0.345836
H122	H	1.986835	-0.521182	-0.334838
O123	O	2.096873	-0.100362	-0.418589
H124	H	2.168309	-0.102645	-0.458710
H125	H	2.334476	-0.097517	0.122485
O126	O	2.668043	0.268208	-0.204195
H127	H	2.694874	0.263495	-0.154601
O128	O	1.943103	-0.313237	-0.346481
H129	H	1.963080	-0.358207	-0.390842
O130	O	2.080357	-0.011737	-0.628320
H131	H	2.129562	0.015320	-0.663294
O132	O	2.114006	-0.011094	-0.780008
H133	H	2.177374	-0.047645	-0.820645
O134	O	1.973112	-0.717881	-0.078415
H135	H	1.969936	-0.748576	-0.033734
H136	H	2.381370	0.111491	-0.217240
O137	O	1.869592	-0.171805	-0.795896
H138	H	1.820325	-0.198814	-0.760908
O139	O	2.196736	-0.098499	-0.868793
H140	H	2.255852	-0.148245	-0.892145
O141	O	2.230379	-0.097861	-1.020491
H142	H	2.283275	-0.147731	-1.015834
O143	O	1.853027	-0.083370	-1.005475
H144	H	1.843273	-0.034977	-1.030968
O145	O	1.819546	-0.083883	-0.853943
H146	H	1.764803	-0.081289	-0.889097
O147	O	1.753248	-0.085182	-0.555353
H148	H	1.743640	-0.036776	-0.580834
O149	O	1.719680	-0.085739	-0.403736
H150	H	1.664936	-0.083142	-0.438888
O151	O	2.630875	-0.451841	-0.220067
H152	H	2.685563	-0.416487	-0.222633
O153	O	2.459188	-0.520653	-0.212475
H154	H	2.541811	-0.543079	-0.215405
H155	H	2.275529	-0.428223	-0.206494
O156	O	2.219863	-0.284464	-0.206115
H157	H	2.165171	-0.319815	-0.203526
