data_functionalizedCrystal
_audit_creation_method	'MofGen! by Chris Wilmer'
_symmetry_space_group_name_H-M	'P1'
_symmetry_Int_Tables_number	1
_symmetry_cell_setting	triclinic
loop_
_symmetry_equiv_pos_as_xyz
  x,y,z
_cell_length_a	14.044209
_cell_length_b	14.044220
_cell_length_c	13.101039
_cell_angle_alpha	86.332523
_cell_angle_beta	93.659214
_cell_angle_gamma	93.188415
loop_
_atom_site_label
_atom_site_type_symbol
_atom_site_fract_x
_atom_site_fract_y
_atom_site_fract_z
O1	O	-1.281968	-0.225339	-0.085094
O2	O	-0.781968	0.274661	0.414906
O3	O	-1.005298	-0.217034	-0.085123
O4	O	-0.505298	0.282966	0.414877
O5	O	-1.139480	-0.082851	-0.085099
O6	O	-0.639480	0.417149	0.414901
O7	O	-1.147787	-0.359521	-0.085118
O8	O	-0.647787	0.140479	0.414882
O9	O	-1.129854	-0.092496	0.085329
O10	O	-0.629854	0.407504	0.585329
O11	O	-0.995672	-0.226679	0.085305
O12	O	-0.495672	0.273321	0.585305
O13	O	-1.272342	-0.234984	0.085334
O14	O	-0.772342	0.265016	0.585334
Zn15	Zn	-1.132479	-0.232362	0.112379
Zn16	Zn	-0.632479	0.267638	0.612379
Zn17	Zn	-1.145161	-0.219655	-0.112168
Zn18	Zn	-0.645161	0.280345	0.387832
O19	O	-1.138161	-0.369166	0.085310
O20	O	-0.638161	0.130834	0.585310
C21	C	-0.964864	-0.218221	0.000087
C22	C	-0.464864	0.281779	0.500087
C23	C	-0.858721	-0.207376	0.000077
C24	C	-0.358721	0.292624	0.500077
C25	C	-0.664383	-0.187553	0.000096
C26	C	-0.164383	0.312447	0.500096
C27	C	-0.613253	-0.264467	0.000094
C28	C	-0.113253	0.235533	0.500094
C29	C	-0.505116	-0.253437	0.000105
C30	C	-0.005116	0.246563	0.500105
C31	C	-0.772529	-0.198581	0.000085
C32	C	-0.272529	0.301419	0.500085
N33	N	-1.123830	-0.241035	0.265626
N34	N	-0.623830	0.258965	0.765626
C35	C	-1.131031	-0.052052	0.000115
C36	C	-0.631031	0.447948	0.500115
C37	C	-1.120187	0.054091	0.000115
C38	C	-0.620187	0.554091	0.500115
C39	C	-0.312777	-0.233798	0.000118
C40	C	0.187223	0.266202	0.500118
C41	C	-0.418920	-0.244648	0.000114
C42	C	0.081080	0.255352	0.500114
C43	C	-1.146609	-0.399965	0.000093
C44	C	-0.646609	0.100035	0.500093
C45	C	-1.157454	-0.506108	0.000087
C46	C	-0.657454	-0.006108	0.500087
C47	C	-1.100361	0.248429	0.000099
C48	C	-0.600361	0.748429	0.500099
C49	C	-1.177275	0.299560	0.000103
C50	C	-0.677275	0.799560	0.500103
C51	C	-1.166244	0.407696	0.000094
C52	C	-0.666244	0.907696	0.500094
C53	C	-1.111391	0.140283	0.000108
C54	C	-0.611391	0.640283	0.500108
N55	N	-1.153817	-0.210975	-0.265415
N56	N	-0.653817	0.289025	0.234585
C57	C	-1.112064	-0.252843	0.474666
C58	C	-0.612064	0.247157	0.974666
C59	C	-1.165580	-0.199170	0.525551
C60	C	-0.665580	0.300830	1.025551
C61	C	-1.159033	-0.205740	0.641869
C62	C	-0.659033	0.294260	1.141869
C63	C	-1.118610	-0.246274	0.358338
C64	C	-0.618610	0.253726	0.858338
H65	H	-0.626945	-0.113426	0.000106
H66	H	-0.126945	0.386574	0.500106
C67	C	-1.000220	0.298999	0.000096
C68	C	-0.500220	0.798999	0.500096
H69	H	-1.005851	0.366098	0.000103
H70	H	-0.505851	0.866098	0.500103
H71	H	-0.969864	0.284417	-0.059332
H72	H	-0.469864	0.784417	0.440668
H73	H	-0.963170	0.277699	0.059539
H74	H	-0.463170	0.777699	0.559539
H75	H	-1.061335	-0.303725	0.518454
H76	H	-0.561335	0.196275	1.018454
C77	C	-0.663825	-0.364613	0.000065
C78	C	-0.163825	0.135387	0.500065
H79	H	-0.730925	-0.358987	0.000047
H80	H	-0.230925	0.141013	0.500047
H81	H	-0.642539	-0.401692	0.059489
H82	H	-0.142539	0.098308	0.559489
H83	H	-0.649224	-0.394936	-0.059383
H84	H	-0.149224	0.105064	0.440617
C85	C	-1.277422	0.248988	0.000137
C86	C	-0.777422	0.748988	0.500137
H87	H	-1.271796	0.181888	0.000153
H88	H	-0.771796	0.681888	0.500153
H89	H	-1.314494	0.270283	-0.059286
H90	H	-0.814494	0.770283	0.440714
H91	H	-1.307750	0.263581	0.059586
H92	H	-0.807750	0.763581	0.559586
C93	C	-1.234148	-0.130460	0.466398
C94	C	-0.734148	0.369540	0.966398
H95	H	-1.229629	-0.135018	0.394847
H96	H	-0.729629	0.364982	0.894847
H97	H	-1.217349	-0.066845	0.483907
H98	H	-0.717349	0.433155	0.983907
H99	H	-1.297785	-0.147155	0.483935
H100	H	-0.797785	0.352845	0.983935
