data_functionalizedCrystal
_audit_creation_method	'MofGen! by Chris Wilmer'
_symmetry_space_group_name_H-M	'P1'
_symmetry_Int_Tables_number	1
_symmetry_cell_setting	triclinic
loop_
_symmetry_equiv_pos_as_xyz
  x,y,z
_cell_length_a	16.625547
_cell_length_b	13.034570
_cell_length_c	13.034296
_cell_angle_alpha	89.081773
_cell_angle_beta	82.792246
_cell_angle_gamma	82.840857
loop_
_atom_site_label
_atom_site_type_symbol
_atom_site_fract_x
_atom_site_fract_y
_atom_site_fract_z
Zn1	Zn	1.327716	-0.335422	-0.633700
Zn2	Zn	1.331902	-0.529226	-0.483599
Zn3	Zn	1.178159	-0.357312	-0.461732
Zn4	Zn	1.211841	-0.507317	-0.655501
O5	O	1.262404	-0.432319	-0.558633
O6	O	1.441107	-0.361138	-0.613817
O7	O	1.299163	-0.524751	-0.336788
O8	O	1.182151	-0.210523	-0.466268
O9	O	1.444182	-0.503525	-0.503538
O10	O	1.292029	-0.194440	-0.592613
O11	O	1.186209	-0.398447	-0.320722
O12	O	1.069791	-0.377203	-0.487408
O13	O	1.239556	-0.466185	-0.796520
O14	O	1.094537	-0.487411	-0.629769
O15	O	1.324689	-0.339894	-0.780503
O16	O	1.331823	-0.670205	-0.524678
O17	O	1.243615	-0.654109	-0.650973
C18	C	1.291852	-0.699462	-0.592587
C19	C	1.304526	-0.813742	-0.607147
C20	C	1.052907	-0.432305	-0.558582
C21	C	0.963288	-0.432321	-0.558588
C22	C	1.268949	-0.990850	-0.566118
C23	C	1.255849	-0.872735	-0.551075
C24	C	0.890507	-0.432321	-0.558601
C25	C	0.799201	-0.432324	-0.558627
C26	C	0.726428	-0.432330	-0.558654
C27	C	0.635117	-0.432334	-0.558680
C28	C	1.472720	-0.432334	-0.558685
C29	C	1.562344	-0.432340	-0.558707
C30	C	1.285413	-0.398154	-0.826869
C31	C	1.295218	-0.383595	-0.941176
C32	C	1.232866	-0.164131	-0.524570
C33	C	1.220279	-0.049845	-0.510054
C34	C	1.257467	-0.439590	-1.000062
C35	C	1.267599	-0.424544	-1.118204
C36	C	1.239524	-0.466277	-0.291431
C37	C	1.229843	-0.480547	-0.177088
H38	H	1.320318	-1.027788	-0.625249
O39	O	1.372571	-0.862645	-0.685492
H40	H	1.372179	-0.947742	-0.685023
H41	H	1.190022	-0.539633	-1.140046
H42	H	1.307427	-0.365464	-1.155249
H43	H	1.335042	-0.324520	-0.978225
H44	H	1.204482	-0.835804	-0.491931
O45	O	1.152233	-1.000934	-0.431719
H46	H	1.152619	-0.915836	-0.432201
O47	O	1.204712	-0.517847	-0.951002
H48	H	1.205026	-0.517377	-0.865907
