data_functionalizedCrystal
_audit_creation_method	'MofGen! by Chris Wilmer'
_symmetry_space_group_name_H-M	'P1'
_symmetry_Int_Tables_number	1
_symmetry_cell_setting	triclinic
loop_
_symmetry_equiv_pos_as_xyz
  x,y,z
_cell_length_a	10.967926
_cell_length_b	10.540510
_cell_length_c	9.482900
_cell_angle_alpha	99.430215
_cell_angle_beta	92.549900
_cell_angle_gamma	84.613823
loop_
_atom_site_label
_atom_site_type_symbol
_atom_site_fract_x
_atom_site_fract_y
_atom_site_fract_z
O1	O	1.612104	0.224169	0.283000
O2	O	1.262914	0.226953	0.195514
O3	O	1.445494	0.041174	0.241258
O4	O	1.429524	0.409948	0.237256
O5	O	1.408409	0.079069	0.473759
O6	O	1.225829	0.264848	0.428015
O7	O	1.575019	0.262064	0.515501
Cu8	Cu	1.397038	0.266916	0.492987
Cu9	Cu	1.440895	0.222101	0.218028
O10	O	1.392439	0.447843	0.469757
C11	C	1.199658	0.242835	0.300562
C12	C	1.066427	0.233684	0.267182
C13	C	0.987818	0.249235	0.372743
C14	C	0.850116	0.239778	0.338245
C15	C	1.425762	0.012769	0.357208
C16	C	1.422203	-0.128325	0.356307
C17	C	1.548955	-0.340583	0.388618
C18	C	1.552838	-0.193921	0.389038
C19	C	1.376506	-0.197418	0.206786
C20	C	1.373650	-0.344312	0.205962
C21	C	1.328757	-0.301136	0.469678
C22	C	1.334675	-0.154261	0.472978
C23	C	1.638275	0.246182	0.410450
C24	C	1.771507	0.255331	0.443821
C25	C	1.412171	0.476247	0.353804
C26	C	1.415732	0.617340	0.354696
N27	N	1.366200	0.298436	0.686381
N28	N	1.471742	0.190571	0.024636
C29	C	1.431791	0.231391	0.775014
C30	C	1.406142	0.257626	0.936005
H31	H	0.806144	0.275643	0.559743
H32	H	1.031784	0.213365	0.151269
C33	C	1.603032	-0.130474	0.535310
C34	C	1.535625	-0.137464	0.672487
C35	C	1.585832	-0.074029	0.818761
C36	C	1.703445	-0.003604	0.827859
C37	C	1.770858	0.003389	0.690677
C38	C	1.720652	-0.060046	0.544403
H39	H	1.448555	-0.189600	0.665757
H40	H	1.535927	-0.079207	0.920312
H41	H	1.740611	0.043354	0.936140
H42	H	1.857929	0.055525	0.697407
H43	H	1.770556	-0.054868	0.442852
H44	H	1.546886	0.113738	0.981339
H45	H	1.330989	0.334450	0.979301
C46	C	1.247653	-0.139722	0.167547
C47	C	1.182269	-0.028934	0.271066
C48	C	1.053416	0.028765	0.231829
C49	C	0.989947	-0.024324	0.089073
C50	C	1.055332	-0.135119	-0.014456
C51	C	1.184185	-0.192818	0.024781
H52	H	1.229252	0.010372	0.376751
H53	H	1.005015	0.110783	0.308469
H54	H	0.894563	0.018388	0.060028
H55	H	1.008348	-0.174424	-0.120141
H56	H	1.232586	-0.274835	-0.051859
H57	H	0.815479	0.219458	0.222324
C58	C	1.264683	0.402223	0.744866
C59	C	1.271463	0.543664	0.725779
C60	C	1.169943	0.647453	0.784259
C61	C	1.061643	0.609801	0.861826
C62	C	1.054859	0.468354	0.880917
C63	C	1.156379	0.364564	0.822437
H64	H	1.351636	0.571542	0.668355
H65	H	1.174966	0.752162	0.770126
H66	H	0.986492	0.686632	0.905117
H67	H	0.974685	0.440476	0.938341
H68	H	1.151356	0.259856	0.836570
H69	H	1.022462	0.269543	0.488656
H70	H	1.584663	-0.364968	0.496583
H71	H	1.367668	-0.107679	0.583389
C72	C	1.204093	-0.091420	0.451535
C73	C	1.146416	0.010831	0.570492
C74	C	1.015828	0.073666	0.549037
C75	C	0.942918	0.034250	0.408624
C76	C	1.000595	-0.068006	0.289657
C77	C	1.131182	-0.130841	0.311113
H78	H	1.200389	0.040014	0.674443
H79	H	0.973133	0.149363	0.637105
H80	H	0.846249	0.080764	0.392741
H81	H	0.946621	-0.097190	0.185707
H82	H	1.173878	-0.206538	0.223045
C83	C	1.196062	-0.336201	0.437703
C84	C	1.092734	-0.269197	0.535473
C85	C	0.960046	-0.304271	0.503486
C86	C	0.930686	-0.406351	0.373730
C87	C	1.034016	-0.473362	0.275952
C88	C	1.166704	-0.438287	0.307939
H89	H	1.114466	-0.193626	0.631533
H90	H	0.883554	-0.254665	0.575868
H91	H	0.832462	-0.432315	0.350052
H92	H	1.012285	-0.548933	0.179892
H93	H	1.243196	-0.487894	0.235557
C94	C	1.637717	-0.417433	0.277839
C95	C	1.655119	-0.565754	0.261258
C96	C	1.743875	-0.642606	0.150473
C97	C	1.815230	-0.571138	0.056270
C98	C	1.797830	-0.422809	0.072848
C99	C	1.709074	-0.345957	0.183632
H100	H	1.602296	-0.618666	0.330995
H101	H	1.756755	-0.752409	0.138202
H102	H	1.880932	-0.628029	-0.025739
H103	H	1.850653	-0.369897	0.003111
H104	H	1.696194	-0.236154	0.195904
C105	C	1.644464	-0.173666	0.278043
C106	C	1.780023	-0.224481	0.292062
C107	C	1.871648	-0.204231	0.181055
C108	C	1.827714	-0.133167	0.056028
C109	C	1.692148	-0.082347	0.042004
C110	C	1.600523	-0.102597	0.153011
H111	H	1.812552	-0.277091	0.384619
H112	H	1.972004	-0.241851	0.191437
H113	H	1.895540	-0.118177	-0.026146
H114	H	1.659619	-0.029737	-0.050553
H115	H	1.500168	-0.064977	0.142629
H116	H	1.435181	-0.398861	0.118167
H117	H	1.276902	-0.372225	0.175467
H118	H	1.438707	-0.180794	0.119617
H119	H	1.354220	-0.325243	0.580717
H120	H	1.506930	0.154563	0.731711
