data_functionalizedCrystal
_audit_creation_method	'MofGen! by Chris Wilmer'
_symmetry_space_group_name_H-M	'P1'
_symmetry_Int_Tables_number	1
_symmetry_cell_setting	triclinic
loop_
_symmetry_equiv_pos_as_xyz
  x,y,z
_cell_length_a	15.298206
_cell_length_b	15.299816
_cell_length_c	17.077396
_cell_angle_alpha	99.656369
_cell_angle_beta	99.671869
_cell_angle_gamma	69.257501
loop_
_atom_site_label
_atom_site_type_symbol
_atom_site_fract_x
_atom_site_fract_y
_atom_site_fract_z
Zn1	Zn	1.485537	-0.615789	-0.312554
Zn2	Zn	1.512327	-0.771249	-0.200683
Zn3	Zn	1.330051	-0.588949	-0.200714
Zn4	Zn	1.356899	-0.744334	-0.351299
O5	O	1.421204	-0.680080	-0.266312
O6	O	1.619209	-0.658908	-0.281486
O7	O	1.488124	-0.747098	-0.090849
O8	O	1.328229	-0.462420	-0.199347
O9	O	1.638892	-0.773123	-0.199295
O10	O	1.442464	-0.482139	-0.281515
O11	O	1.354207	-0.613163	-0.090871
O12	O	1.203494	-0.587065	-0.236917
O13	O	1.373987	-0.727251	-0.455998
O14	O	1.223219	-0.701226	-0.347551
O15	O	1.468496	-0.632809	-0.427532
O16	O	1.514157	-0.897769	-0.236865
O17	O	1.399965	-0.877994	-0.347522
C18	C	1.179619	-0.638313	-0.296442
C19	C	1.076271	-0.620467	-0.309353
C20	C	1.017493	-0.552709	-0.358305
C21	C	0.920392	-0.535933	-0.370436
C22	C	0.882060	-0.586918	-0.333622
C23	C	0.940839	-0.654683	-0.284675
C24	C	1.037949	-0.671455	-0.272537
C25	C	0.902516	-0.705665	-0.247855
C26	C	0.961295	-0.773429	-0.198907
C27	C	1.058395	-0.790199	-0.186772
C28	C	1.096727	-0.739213	-0.223585
C29	C	0.805406	-0.688892	-0.259992
C30	C	0.825861	-0.807638	-0.174224
C31	C	0.922963	-0.824415	-0.162093
C32	C	1.462906	-0.921617	-0.296408
C33	C	1.480832	-1.024961	-0.309299
C34	C	1.293695	-1.275546	-0.174370
C35	C	1.276848	-1.178448	-0.162261
C36	C	1.327843	-1.140072	-0.199019
C37	C	1.395687	-1.198803	-0.247889
C38	C	1.412531	-1.295910	-0.260004
C39	C	1.446678	-1.160435	-0.284654
C40	C	1.514522	-1.219167	-0.333524
C41	C	1.531363	-1.316264	-0.345636
C42	C	1.480369	-1.354641	-0.308878
C43	C	1.429835	-1.063328	-0.272538
C44	C	1.548670	-1.083692	-0.358173
C45	C	1.565517	-1.180790	-0.370282
C46	C	1.663732	-0.722012	-0.236065
C47	C	1.767083	-0.739880	-0.223176
C48	C	1.421248	-0.680022	-0.471041
C49	C	1.421267	-0.679997	-0.558284
C50	C	1.379363	-0.437605	-0.236113
C51	C	1.361533	-0.334277	-0.223243
C52	C	1.470479	-0.630816	-0.584453
C53	C	1.470485	-0.630787	-0.666428
C54	C	1.421284	-0.679945	-0.722233
C55	C	1.372065	-0.729126	-0.696061
C56	C	1.372054	-0.729149	-0.614087
C57	C	1.372093	-0.729077	-0.866919
C58	C	1.372105	-0.729056	-0.948899
C59	C	1.470524	-0.630715	-0.919260
C60	C	1.470513	-0.630738	-0.837286
C61	C	1.421296	-0.679921	-0.811119
C62	C	1.421201	-0.680081	-0.062365
C63	C	1.421317	-0.679875	0.024933
H64	H	0.802994	-0.573252	-0.343500
F65	F	1.309655	-1.036687	-0.186378
H66	H	1.510549	-0.590790	-0.539020
H67	H	1.252178	-1.306802	-0.144451
H68	H	1.221609	-1.130632	-0.122472
H69	H	0.794652	-0.849156	-0.144248
H70	H	1.510562	-0.590742	-0.687729
F71	F	1.319696	-0.781439	-0.755455
F72	F	1.357633	-1.000833	-0.220528
H73	H	1.331998	-0.769110	-0.845618
F74	F	1.498449	-1.458011	-0.321615
H75	H	0.872541	-0.480760	-0.410291
H76	H	1.331969	-0.769186	-0.592783
F77	F	1.058295	-0.498450	-0.397474
H78	H	1.510596	-0.590666	-0.940569
H79	H	1.510583	-0.590716	-0.791850
F80	F	1.603554	-1.378766	-0.397663
F81	F	1.200075	-0.757070	-0.210681
H82	H	1.620756	-1.228623	-0.410073
F83	F	1.120946	-0.862299	-0.134657
F84	F	1.319730	-0.781365	-1.008290
F85	F	1.602945	-1.042854	-0.397298
H86	H	0.970834	-0.879589	-0.122239
H87	H	0.757556	-0.633716	-0.299845
