data_functionalizedCrystal
_audit_creation_method	'MofGen! by Chris Wilmer'
_symmetry_space_group_name_H-M	'P1'
_symmetry_Int_Tables_number	1
_symmetry_cell_setting	triclinic
loop_
_symmetry_equiv_pos_as_xyz
  x,y,z
_cell_length_a	13.033293
_cell_length_b	15.297327
_cell_length_c	13.033109
_cell_angle_alpha	107.902170
_cell_angle_beta	74.800007
_cell_angle_gamma	107.951422
loop_
_atom_site_label
_atom_site_type_symbol
_atom_site_fract_x
_atom_site_fract_y
_atom_site_fract_z
Zn1	Zn	1.651843	-0.272005	-0.855503
Zn2	Zn	2.151843	0.227995	-0.355503
Zn3	Zn	1.604361	-0.411325	-0.702628
Zn4	Zn	2.104361	0.088675	-0.202628
Zn5	Zn	1.451644	-0.272022	-0.655309
Zn6	Zn	1.951644	0.227978	-0.155309
Zn7	Zn	1.443077	-0.446608	-0.863870
Zn8	Zn	1.943077	0.053392	-0.363870
O9	O	1.537731	-0.350490	-0.769327
O10	O	2.037731	0.149510	-0.269327
O11	O	1.796826	-0.275713	-0.851526
O12	O	2.296826	0.224287	-0.351526
O13	O	1.567817	-0.378087	-0.545088
O14	O	2.067817	0.121913	-0.045088
O15	O	1.501657	-0.140650	-0.658561
O16	O	2.001657	0.359350	-0.158561
O17	O	1.761942	-0.378070	-0.739209
O18	O	2.261942	0.121930	-0.239209
O19	O	1.648742	-0.140637	-0.805643
O20	O	2.148742	0.359363	-0.305643
O21	O	1.455616	-0.275742	-0.510323
O22	O	1.955616	0.224258	-0.010323
O23	O	1.299225	-0.309955	-0.666673
O24	O	1.799225	0.190045	-0.166673
O25	O	1.487056	-0.438205	-1.014022
O26	O	1.987056	0.061795	-0.514022
O27	O	1.292932	-0.438222	-0.819902
O28	O	1.792932	0.061778	-0.319902
O29	O	1.640436	-0.309925	-1.007876
O30	O	2.140436	0.190075	-0.507876
O31	O	1.559510	-0.547376	-0.747321
O32	O	2.059510	-0.047376	-0.247321
O33	O	1.441015	-0.573298	-0.865785
O34	O	1.941015	-0.073298	-0.365785
C35	C	1.256853	-0.377920	-0.739061
C36	C	1.756853	0.122080	-0.239061
C37	C	1.136690	-0.389679	-0.726143
C38	C	1.636690	0.110321	-0.226143
C39	C	1.100373	-0.344376	-0.776074
C40	C	1.600373	0.155624	-0.276074
C41	C	0.976180	-0.356529	-0.762723
C42	C	1.476180	0.143471	-0.262723
C43	C	1.494213	-0.594399	-0.812622
C44	C	1.994213	-0.094399	-0.312622
C45	C	1.475698	-0.698738	-0.831190
C46	C	1.975698	-0.198738	-0.331190
C47	C	1.670544	-0.938737	-0.637033
C48	C	2.170544	-0.438737	-0.137033
C49	C	1.687938	-0.840705	-0.619582
C50	C	2.187938	-0.340705	-0.119582
C51	C	1.634880	-0.805208	-0.672482
C52	C	2.134880	-0.305208	-0.172482
C53	C	1.564424	-0.867754	-0.742837
C54	C	2.064424	-0.367754	-0.242837
C55	C	1.547021	-0.965796	-0.760284
C56	C	2.047021	-0.465796	-0.260284
C57	C	1.511357	-0.832267	-0.795733
C58	C	2.011357	-0.332267	-0.295733
C59	C	1.440901	-0.894812	-0.866088
C60	C	1.940901	-0.394812	-0.366088
C61	C	1.423502	-0.992844	-0.883532
C62	C	1.923502	-0.492844	-0.383532
C63	C	1.476560	-1.028341	-0.830631
C64	C	1.976560	-0.528341	-0.330631
C65	C	1.528760	-0.734225	-0.778287
C66	C	2.028760	-0.234225	-0.278287
C67	C	1.405237	-0.761284	-0.901538
C68	C	1.905237	-0.261284	-0.401538
C69	C	1.387843	-0.859316	-0.918989
C70	C	1.887843	-0.359316	-0.418989
C71	C	1.819706	-0.322954	-0.799712
C72	C	2.319706	0.177046	-0.299712
C73	C	1.939867	-0.311220	-0.812661
C74	C	2.439867	0.188780	-0.312661
C75	C	1.568087	-0.377999	-1.051266
C76	C	2.068087	0.122001	-0.551266
C77	C	1.581023	-0.389722	-1.171412
C78	C	2.081023	0.110278	-0.671412
C79	C	1.581452	-0.105628	-0.725891
C80	C	2.081452	0.394372	-0.225891
C81	C	1.600083	-0.001282	-0.707380
C82	C	2.100083	0.498718	-0.207380
C83	C	1.531275	-0.344310	-1.207775
C84	C	2.031275	0.155690	-0.707775
C85	C	1.544643	-0.356425	-1.331952
C86	C	2.044643	0.143575	-0.831952
C87	C	1.507568	-0.323014	-0.488480
C88	C	2.007568	0.176986	0.011520
C89	C	1.494889	-0.311007	-0.368311
C90	C	1.994889	0.188993	0.131689
H91	H	1.075839	-0.437460	-0.673510
H92	H	1.575839	0.062540	-0.173510
H93	H	1.633509	-0.437571	-1.232211
H94	H	2.133509	0.062429	-0.732211
H95	H	1.442394	-0.263157	-1.307516
H96	H	1.942394	0.236843	-0.807516
H97	H	1.586125	-0.683308	-0.721003
H98	H	2.086125	-0.183308	-0.221003
H99	H	1.161225	-0.296589	-0.828700
H100	H	1.661225	0.203411	-0.328700
H101	H	0.915331	-0.404313	-0.710086
H102	H	1.415331	0.095687	-0.210086
C103	C	1.022058	-0.246669	-0.883772
C104	C	1.522058	0.253331	-0.383772
H105	H	1.094748	-0.246974	-0.883427
H106	H	1.594748	0.253026	-0.383427
H107	H	1.013169	-0.183833	-0.854909
H108	H	1.513169	0.316167	-0.354909
H109	H	1.008972	-0.269394	-0.956866
H110	H	1.508972	0.230606	-0.456866
H111	H	1.478782	-0.296466	-1.146977
H112	H	1.978782	0.203534	-0.646977
H113	H	1.597133	-0.404277	-1.392748
H114	H	2.097133	0.095723	-0.892748
C115	C	1.457432	-1.136178	-0.849837
C116	C	1.957432	-0.636178	-0.349837
H117	H	1.407876	-1.168346	-0.899317
H118	H	1.907876	-0.668346	-0.399317
H119	H	1.427344	-1.153417	-0.782019
H120	H	1.927344	-0.653417	-0.282019
H121	H	1.525284	-1.153302	-0.880048
H122	H	2.025284	-0.653302	-0.380048
C123	C	1.654023	-0.697375	-0.653297
C124	C	2.154023	-0.197375	-0.153297
H125	H	1.703591	-0.665209	-0.603829
H126	H	2.203591	-0.165209	-0.103829
H127	H	1.586185	-0.680233	-0.623105
H128	H	2.086185	-0.180233	-0.123105
H129	H	1.684131	-0.680153	-0.721129
H130	H	2.184131	-0.180153	-0.221129
H131	H	1.745301	-0.789784	-0.562298
H132	H	2.245301	-0.289784	-0.062298
C133	C	1.728901	-0.977785	-0.578855
C134	C	2.228901	-0.477785	-0.078855
H135	H	1.708450	-1.045130	-0.599329
H136	H	2.208450	-0.545130	-0.099329
H137	H	1.708167	-0.956209	-0.501664
H138	H	2.208167	-0.456209	-0.001664
H139	H	1.806102	-0.956118	-0.599698
H140	H	2.306102	-0.456118	-0.099698
H141	H	1.366118	-1.043768	-0.940806
H142	H	1.866118	-0.543768	-0.440806
C143	C	1.310338	-0.928121	-0.996367
C144	C	1.810338	-0.428121	-0.496367
H145	H	1.307571	-0.991590	-0.999171
H146	H	1.807571	-0.491590	-0.499171
H147	H	1.336776	-0.917570	-1.067841
H148	H	1.836776	-0.417570	-0.567841
H149	H	1.238839	-0.917661	-0.969808
H150	H	1.738839	-0.417661	-0.469808
H151	H	1.362030	-0.732384	-0.944612
H152	H	1.862030	-0.232384	-0.444612
