data_functionalizedCrystal
_audit_creation_method	'MofGen! by Chris Wilmer'
_symmetry_space_group_name_H-M	'P1'
_symmetry_Int_Tables_number	1
_symmetry_cell_setting	triclinic
loop_
_symmetry_equiv_pos_as_xyz
  x,y,z
_cell_length_a	17.640280
_cell_length_b	12.827893
_cell_length_c	12.827885
_cell_angle_alpha	89.980538
_cell_angle_beta	78.769218
_cell_angle_gamma	78.800849
loop_
_atom_site_label
_atom_site_type_symbol
_atom_site_fract_x
_atom_site_fract_y
_atom_site_fract_z
Zn1	Zn	-0.314627	1.681787	-0.506828
Zn2	Zn	-0.446821	1.717023	-0.296786
Zn3	Zn	-0.314666	1.507038	-0.332091
Zn4	Zn	-0.446763	1.542340	-0.471502
O5	O	-0.380720	1.612047	-0.401802
O6	O	-0.332171	1.832699	-0.478974
O7	O	-0.429331	1.689140	-0.155222
O8	O	-0.204055	1.500699	-0.384830
O9	O	-0.429294	1.858587	-0.324658
O10	O	-0.204026	1.629086	-0.513208
O11	O	-0.332238	1.534865	-0.181161
O12	O	-0.332181	1.365483	-0.350575
O13	O	-0.429194	1.560866	-0.622435
O14	O	-0.429232	1.391419	-0.453000
O15	O	-0.332115	1.663317	-0.648389
O16	O	-0.557420	1.723371	-0.290403
O17	O	-0.557377	1.595032	-0.418766
C18	C	-0.380705	1.340533	-0.401786
C19	C	-0.380718	1.224384	-0.401799
C20	C	-0.332744	1.159812	-0.478236
C21	C	-0.332756	1.039764	-0.478251
C22	C	-0.586078	1.666884	-0.346943
C23	C	-0.673931	1.690439	-0.323509
C24	C	-0.962894	1.433530	-0.580207
C25	C	-1.045446	1.455666	-0.558154
C26	C	-1.045425	1.589387	-0.424625
C27	C	-0.962872	1.567267	-0.446670
C28	C	-0.921613	1.489336	-0.524462
C29	C	-0.921591	1.623073	-0.390925
C30	C	-0.839045	1.600949	-0.412965
C31	C	-0.797780	1.523020	-0.490751
C32	C	-0.839067	1.467213	-0.546502
C33	C	-0.962851	1.700998	-0.313129
C34	C	-0.921570	1.756804	-0.257384
C35	C	-0.839022	1.734686	-0.279429
C36	C	-0.797758	1.656757	-0.357214
C37	C	-0.797735	1.790493	-0.223678
C38	C	-0.715190	1.768370	-0.245718
C39	C	-0.715212	1.634633	-0.379254
C40	C	-0.174559	1.557024	-0.456898
C41	C	-0.086706	1.533577	-0.480376
C42	C	-0.380644	1.612099	-0.674392
C43	C	-0.380611	1.612121	-0.790554
C44	C	-0.380735	1.884621	-0.401818
C45	C	-0.380741	2.000776	-0.401825
C46	C	-0.428602	1.688483	-0.949563
C47	C	-0.428637	1.688462	-0.829503
C48	C	-0.380738	1.612040	-0.130287
C49	C	-0.380548	1.612161	-0.014185
H50	H	-0.291686	0.984284	-0.543694
H51	H	-0.291660	1.193403	-0.543662
H52	H	-0.469775	1.753808	-0.773979
H53	H	-0.421820	1.056252	-0.336386
O54	O	-0.331640	1.534076	-0.856794
C55	C	-0.376662	1.478689	-0.907911
H56	H	-0.438902	1.488813	-0.858322
H57	H	-0.348075	1.390636	-0.916886
H58	H	-0.379417	1.511828	-0.989859
H59	H	-0.955174	1.820252	-0.194043
O60	O	-1.043036	1.722590	-0.291552
C61	C	-1.070600	1.803351	-0.210953
H62	H	-1.023047	1.805269	-0.162607
H63	H	-1.125859	1.786648	-0.156518
H64	H	-1.085184	1.883439	-0.248558
O65	O	-0.429841	1.184464	-0.323759
C66	C	-0.508654	1.232106	-0.325365
H67	H	-0.510374	1.311859	-0.364991
H68	H	-0.544032	1.245144	-0.240416
H69	H	-0.535287	1.177840	-0.371985
O70	O	-0.837858	1.866300	-0.148245
C71	C	-0.885568	1.946528	-0.195050
H72	H	-0.860658	1.946278	-0.284012
H73	H	-0.886484	2.027211	-0.157070
H74	H	-0.948141	1.930969	-0.181914
O75	O	-1.085466	1.664965	-0.348919
C76	C	-1.065327	1.636806	-0.250127
H77	H	-1.042690	1.547257	-0.250821
H78	H	-1.119623	1.660395	-0.184000
H79	H	-1.017386	1.679997	-0.235672
O80	O	-0.675209	1.559018	-0.454954
C81	C	-0.695304	1.587216	-0.553761
H82	H	-0.755218	1.643432	-0.539965
H83	H	-0.698140	1.512539	-0.599809
H84	H	-0.648805	1.628478	-0.601407
H85	H	-0.730566	1.505001	-0.508687
H86	H	-0.805473	1.403761	-0.609855
H87	H	-0.929300	1.370079	-0.643560
O88	O	-0.675206	1.822706	-0.191501
C89	C	-0.729322	1.896214	-0.118097
H90	H	-0.788143	1.915583	-0.145197
H91	H	-0.705423	1.972147	-0.113399
H92	H	-0.738159	1.860355	-0.036338
O93	O	-0.331385	1.534206	-0.974306
C94	C	-0.252582	1.536011	-1.021939
H95	H	-0.250867	1.575676	-1.101674
H96	H	-0.217134	1.451128	-1.035029
H97	H	-0.226024	1.582687	-0.967632
O98	O	-1.085425	1.401391	-0.612447
C99	C	-1.031304	1.327848	-0.685812
H100	H	-0.972435	1.354870	-0.705183
H101	H	-1.055124	1.323041	-0.761778
H102	H	-1.022590	1.246166	-0.649800
O103	O	-0.477543	1.766538	-0.989664
C104	C	-0.432488	1.821948	-1.064870
H105	H	-0.370269	1.811822	-1.048541
H106	H	-0.461080	1.909999	-1.058586
H107	H	-0.429683	1.788831	-1.148295
