data_functionalizedCrystal
_audit_creation_method	'MofGen! by Chris Wilmer'
_symmetry_space_group_name_H-M	'P1'
_symmetry_Int_Tables_number	1
_symmetry_cell_setting	triclinic
loop_
_symmetry_equiv_pos_as_xyz
  x,y,z
_cell_length_a	19.805399
_cell_length_b	18.215407
_cell_length_c	18.215405
_cell_angle_alpha	89.974667
_cell_angle_beta	89.969351
_cell_angle_gamma	90.016085
loop_
_atom_site_label
_atom_site_type_symbol
_atom_site_fract_x
_atom_site_fract_y
_atom_site_fract_z
Zn1	Zn	-0.382697	-1.125045	-0.292982
Zn2	Zn	0.117303	-0.625045	0.207018
Zn3	Zn	-0.269506	-1.124961	-0.416054
Zn4	Zn	0.230494	-0.624961	0.083946
Zn5	Zn	-0.269524	-1.001985	-0.293007
Zn6	Zn	0.230476	-0.501985	0.206993
Zn7	Zn	-0.382654	-1.001943	-0.416013
Zn8	Zn	0.117346	-0.501943	0.083987
O9	O	-0.326095	-1.063484	-0.354514
O10	O	0.173905	-0.563484	0.145486
O11	O	-0.367693	-1.228018	-0.309315
O12	O	0.132307	-0.728018	0.190685
O13	O	-0.174792	-1.108631	-0.399759
O14	O	0.325208	-0.608631	0.100241
O15	O	-0.284562	-1.018362	-0.190019
O16	O	0.215438	-0.518362	0.309981
O17	O	-0.284532	-1.227957	-0.399735
O18	O	0.215468	-0.727957	0.100265
O19	O	-0.367710	-1.108773	-0.190001
O20	O	0.132290	-0.608773	0.309999
O21	O	-0.174805	-1.018281	-0.309356
O22	O	0.325195	-0.518281	0.190644
O23	O	-0.284520	-0.898996	-0.309317
O24	O	0.215480	-0.398996	0.190683
O25	O	-0.477377	-1.018290	-0.399665
O26	O	0.022623	-0.518290	0.100335
O27	O	-0.367636	-0.898965	-0.399689
O28	O	0.132364	-0.398965	0.100311
O29	O	-0.477408	-1.108732	-0.309275
O30	O	0.022592	-0.608732	0.190725
O31	O	-0.284490	-1.108590	-0.519033
O32	O	0.215510	-0.608590	-0.019033
O33	O	-0.367619	-1.018209	-0.519002
O34	O	0.132381	-0.518209	-0.019002
C35	C	-0.326076	-0.872277	-0.354501
C36	C	0.173924	-0.372277	0.145499
C37	C	-0.326084	-0.790478	-0.354514
C38	C	0.173916	-0.290478	0.145486
C39	C	-0.326063	-1.063406	-0.545720
C40	C	0.173937	-0.563406	-0.045720
C41	C	-0.326071	-1.063440	-0.627519
C42	C	0.173929	-0.563440	-0.127519
C43	C	-0.502638	-1.063516	-0.354463
C44	C	-0.002638	-0.563516	0.145537
C45	C	-0.577870	-1.063530	-0.354441
C46	C	-0.077870	-0.563530	0.145559
C47	C	-0.613220	-1.016498	-0.307364
C48	C	-0.113220	-0.516498	0.192636
C49	C	-0.683909	-1.016508	-0.307350
C50	C	-0.183909	-0.516508	0.192650
C51	C	-0.719246	-1.063554	-0.354409
C52	C	-0.219246	-0.563554	0.145591
C53	C	-0.683890	-1.110588	-0.401491
C54	C	-0.183890	-0.610588	0.098509
C55	C	-0.613203	-1.110574	-0.401509
C56	C	-0.113203	-0.610574	0.098491
C57	C	-0.968964	-1.110646	-0.401422
C58	C	-0.468964	-0.610646	0.098578
C59	C	-1.039656	-1.110659	-0.401400
C60	C	-0.539656	-0.610659	0.098600
C61	C	-1.039670	-1.016581	-0.307263
C62	C	-0.539670	-0.516581	0.192737
C63	C	-0.968982	-1.016566	-0.307281
C64	C	-0.468982	-0.516566	0.192719
C65	C	-0.933633	-1.063597	-0.354365
C66	C	-0.433633	-0.563597	0.145635
C67	C	-0.856985	-1.063585	-0.354381
C68	C	-0.356985	-0.563585	0.145619
C69	C	-0.795893	-1.063571	-0.354390
C70	C	-0.295893	-0.563571	0.145610
C71	C	-0.150239	-1.063494	-0.354512
C72	C	0.349761	-0.563494	0.145488
C73	C	-0.075008	-1.063623	-0.354326
C74	C	0.424992	-0.563623	0.145674
C75	C	-0.326115	-1.255437	-0.354527
C76	C	0.173885	-0.755437	0.145473
C77	C	-0.326124	-1.337235	-0.354533
C78	C	0.173876	-0.837235	0.145467
C79	C	-0.369308	-0.602288	-0.401644
C80	C	0.130692	-0.102288	0.098356
C81	C	-0.369316	-0.525429	-0.401647
C82	C	0.130684	-0.025429	0.098353
C83	C	-0.282897	-0.525432	-0.307397
C84	C	0.217103	-0.025432	0.192603
C85	C	-0.282893	-0.602289	-0.307391
C86	C	0.217107	-0.102289	0.192609
C87	C	-0.326097	-0.640715	-0.354519
C88	C	0.173903	-0.140715	0.145481
C89	C	-0.326110	-0.486999	-0.354527
C90	C	0.173890	0.013001	0.145473
C91	C	-0.326119	-0.403665	-0.354529
C92	C	0.173881	0.096335	0.145471
C93	C	-0.326089	-0.724054	-0.354516
C94	C	0.173911	-0.224054	0.145484
C95	C	-0.282865	-1.110612	-0.815704
C96	C	0.217135	-0.610612	-0.315704
C97	C	-0.282882	-1.110645	-0.892563
C98	C	0.217118	-0.610645	-0.392563
C99	C	-0.369374	-1.016450	-0.892571
C100	C	0.130626	-0.516450	-0.392571
C101	C	-0.369360	-1.016421	-0.815714
C102	C	0.130640	-0.516421	-0.315714
C103	C	-0.326102	-1.063501	-0.777282
C104	C	0.173898	-0.563501	-0.277282
C105	C	-0.326132	-1.063563	-0.930999
C106	C	0.173868	-0.563563	-0.430999
C107	C	-0.326150	-1.063598	-1.014332
C108	C	0.173850	-0.563598	-0.514332
C109	C	-0.326085	-1.063467	-0.693944
C110	C	0.173915	-0.563467	-0.193944
C111	C	-0.326143	-1.063582	-0.162561
C112	C	0.173857	-0.563582	0.337439
C113	C	-0.326163	-1.063623	-0.080762
C114	C	0.173837	-0.563623	0.419238
H115	H	-0.584454	-0.978192	-0.269039
H116	H	-0.084454	-0.478192	0.230961
Br117	Br	-0.428049	-0.952486	-0.763565
Br118	Br	0.071951	-0.452486	-0.263565
H119	H	-0.584422	-1.148877	-0.439838
H120	H	-0.084422	-0.648877	0.060162
H121	H	-0.247675	-1.149008	-0.923843
H122	H	0.252325	-0.649008	-0.423843
H123	H	-0.404592	-0.978118	-0.923872
H124	H	0.095408	-0.478118	-0.423872
Br125	Br	-0.224159	-1.174506	-0.763549
Br126	Br	0.275841	-0.674506	-0.263549
Br127	Br	-0.920999	-1.174478	-0.465318
Br128	Br	-0.420999	-0.674478	0.034682
Br129	Br	-0.731882	-0.952636	-0.243497
Br130	Br	-0.231882	-0.452636	0.256503
Br131	Br	-0.921029	-0.952720	-0.243408
Br132	Br	-0.421029	-0.452720	0.256592
Br133	Br	-0.427966	-0.473280	-0.465601
Br134	Br	0.072034	0.026720	0.034399
Br135	Br	-0.427944	-0.654435	-0.465601
Br136	Br	0.072056	-0.154435	0.034399
Br137	Br	-1.087647	-0.952751	-0.243363
Br138	Br	-0.587647	-0.452751	0.256637
Br139	Br	-0.731847	-1.174431	-0.465365
Br140	Br	-0.231847	-0.674431	0.034635
Br141	Br	-0.224265	-0.473277	-0.243441
Br142	Br	0.275735	0.026723	0.256559
H143	H	-1.068425	-1.148971	-0.439724
H144	H	-0.568425	-0.648971	0.060276
Br145	Br	-0.224251	-0.654445	-0.243424
Br146	Br	0.275749	-0.154445	0.256576
