data_functionalizedCrystal
_audit_creation_method	'MofGen! by Chris Wilmer'
_symmetry_space_group_name_H-M	'P1'
_symmetry_Int_Tables_number	1
_symmetry_cell_setting	triclinic
loop_
_symmetry_equiv_pos_as_xyz
  x,y,z
_cell_length_a	25.639242
_cell_length_b	29.839131
_cell_length_c	29.839125
_cell_angle_alpha	89.988394
_cell_angle_beta	89.977328
_cell_angle_gamma	90.036947
loop_
_atom_site_label
_atom_site_type_symbol
_atom_site_fract_x
_atom_site_fract_y
_atom_site_fract_z
Zn1	Zn	0.799218	-0.178997	-0.254114
Zn2	Zn	1.299218	0.321003	0.245886
Zn3	Zn	0.799136	-0.254101	-0.178983
Zn4	Zn	1.299136	0.245899	0.321017
Zn5	Zn	0.711793	-0.178980	-0.178984
Zn6	Zn	1.211793	0.321020	0.321016
Zn7	Zn	0.711735	-0.254095	-0.254073
Zn8	Zn	1.211735	0.245905	0.245927
O9	O	0.755471	-0.216543	-0.216539
O10	O	1.255471	0.283457	0.283461
O11	O	0.872372	-0.188969	-0.244164
O12	O	1.372372	0.311031	0.255836
O13	O	0.787540	-0.244132	-0.116116
O14	O	1.287540	0.255868	0.383884
O15	O	0.723449	-0.116115	-0.188968
O16	O	1.223449	0.383885	0.311032
O17	O	0.872312	-0.244148	-0.188966
O18	O	1.372312	0.255852	0.311034
O19	O	0.787679	-0.116128	-0.244165
O20	O	1.287679	0.383872	0.255835
O21	O	0.723370	-0.188940	-0.116117
O22	O	1.223370	0.311060	0.383883
O23	O	0.638620	-0.188934	-0.188928
O24	O	1.138620	0.311066	0.311072
O25	O	0.723349	-0.244137	-0.316946
O26	O	1.223349	0.255863	0.183054
O27	O	0.638577	-0.244121	-0.244096
O28	O	1.138577	0.255879	0.255904
O29	O	0.787623	-0.188963	-0.316975
O30	O	1.287623	0.311037	0.183025
O31	O	0.787484	-0.316967	-0.188927
O32	O	1.287484	0.183033	0.311073
O33	O	0.723270	-0.316963	-0.244095
O34	O	1.223270	0.183037	0.255905
C35	C	0.619628	-0.216525	-0.216508
C36	C	1.119628	0.283475	0.283492
C37	C	0.561514	-0.216529	-0.216506
C38	C	1.061514	0.283471	0.283494
C39	C	0.201137	-0.245327	-0.245237
C40	C	0.701137	0.254673	0.254763
C41	C	0.146533	-0.245330	-0.245244
C42	C	0.646533	0.254670	0.254756
O43	O	0.118285	-0.269793	-0.269647
O44	O	0.618285	0.230207	0.230353
N45	N	0.119231	-0.216556	-0.216568
N46	N	0.619231	0.283444	0.283432
C47	C	0.146537	-0.187774	-0.187886
C48	C	0.646537	0.312226	0.312114
O49	O	0.118301	-0.163299	-0.163496
O50	O	0.618301	0.336701	0.336504
C51	C	0.201140	-0.187769	-0.187881
C52	C	0.701140	0.312231	0.312119
C53	C	0.228439	-0.216548	-0.216556
C54	C	0.728439	0.283452	0.283444
C55	C	0.228436	-0.274103	-0.273910
C56	C	0.728436	0.225897	0.226090
C57	C	0.283037	-0.274101	-0.273902
C58	C	0.783037	0.225899	0.226098
C59	C	0.310339	-0.245322	-0.245221
C60	C	0.810339	0.254678	0.254779
C61	C	0.283040	-0.216546	-0.216549
C62	C	0.783040	0.283454	0.283451
C63	C	0.228445	-0.158985	-0.159202
C64	C	0.728445	0.341015	0.340798
C65	C	0.283052	-0.158983	-0.159200
C66	C	0.783052	0.341017	0.340800
C67	C	0.310351	-0.187762	-0.187875
C68	C	0.810351	0.312238	0.312125
C69	C	0.364942	-0.187765	-0.187860
C70	C	0.864942	0.312235	0.312140
N71	N	0.392243	-0.216539	-0.216536
N72	N	0.892243	0.283461	0.283464
C73	C	0.364942	-0.245318	-0.245217
C74	C	0.864942	0.254682	0.254783
C75	C	0.031866	-0.187785	-0.187898
C76	C	0.531866	0.312215	0.312102
C77	C	-0.022736	-0.187792	-0.187900
C78	C	0.477264	0.312208	0.312100
C79	C	-0.022736	-0.245347	-0.245259
C80	C	0.477264	0.254653	0.254741
C81	C	0.031867	-0.245343	-0.245254
C82	C	0.531867	0.254657	0.254746
C83	C	0.059168	-0.216559	-0.216574
C84	C	0.559168	0.283441	0.283426
C85	C	0.479607	-0.245311	-0.245198
C86	C	0.979607	0.254689	0.254802
C87	C	0.534212	-0.245307	-0.245186
C88	C	1.034212	0.254693	0.254814
C89	C	0.534208	-0.187751	-0.187829
C90	C	1.034208	0.312249	0.312171
C91	C	0.479607	-0.187756	-0.187839
C92	C	0.979607	0.312244	0.312161
C93	C	0.452308	-0.216537	-0.216527
C94	C	0.952308	0.283463	0.283473
O95	O	0.393225	-0.163313	-0.163471
O96	O	0.893225	0.336687	0.336529
O97	O	0.393185	-0.269784	-0.269607
O98	O	0.893185	0.230216	0.230393
C99	C	0.755376	-0.333266	-0.216516
C100	C	1.255376	0.166734	0.283484
C101	C	0.755384	-0.383200	-0.216522
C102	C	1.255384	0.116800	0.283478
C103	C	0.788967	-0.692833	-0.187855
C104	C	1.288967	-0.192833	0.312145
C105	C	0.789032	-0.880506	-0.187872
C106	C	1.289032	-0.380506	0.312128
O107	O	0.817511	-0.904762	-0.163481
O108	O	1.317511	-0.404762	0.336519
N109	N	0.755579	-0.903985	-0.216573
N110	N	1.255579	-0.403985	0.283427
C111	C	0.722110	-0.880543	-0.245273
C112	C	1.222110	-0.380543	0.254727
O113	O	0.693662	-0.904819	-0.269688
O114	O	1.193662	-0.404819	0.230312
C115	C	0.722049	-0.692871	-0.245257
C116	C	1.222049	-0.192871	0.254743
C117	C	0.755500	-0.669394	-0.216552
C118	C	1.255500	-0.169394	0.283448
C119	C	0.822416	-0.669357	-0.159152
C120	C	1.322416	-0.169357	0.340848
C121	C	0.822398	-0.622441	-0.159146
C122	C	1.322398	-0.122441	0.340854
C123	C	0.788930	-0.599002	-0.187843
C124	C	1.288930	-0.099002	0.312157
C125	C	0.755481	-0.622479	-0.216546
C126	C	1.255481	-0.122479	0.283454
C127	C	0.688583	-0.669429	-0.273959
C128	C	1.188583	-0.169429	0.226041
C129	C	0.688571	-0.622508	-0.273954
C130	C	1.188571	-0.122508	0.226046
C131	C	0.722022	-0.599032	-0.245248
C132	C	1.222022	-0.099032	0.254752
C133	C	0.721995	-0.552124	-0.245237
C134	C	1.221995	-0.052124	0.254763
N135	N	0.755448	-0.528646	-0.216537
N136	N	1.255448	-0.028646	0.283463
C137	C	0.788916	-0.552085	-0.187840
C138	C	1.288916	-0.052085	0.312160
C139	C	0.722144	-0.979074	-0.245278
C140	C	1.222144	-0.479074	0.254722
C141	C	0.722159	-1.025991	-0.245282
C142	C	1.222159	-0.525991	0.254718
C143	C	0.789081	-1.025952	-0.187881
C144	C	1.289081	-0.525952	0.312119
C145	C	0.789063	-0.979033	-0.187876
C146	C	1.289063	-0.479033	0.312124
C147	C	0.755597	-0.955595	-0.216578
C148	C	1.255597	-0.455595	0.283422
C149	C	0.788874	-0.453559	-0.187829
C150	C	1.288874	0.046441	0.312171
C151	C	0.788851	-0.406639	-0.187825
C152	C	1.288851	0.093361	0.312175
C153	C	0.721931	-0.406683	-0.245226
C154	C	1.221931	0.093317	0.254774
C155	C	0.721951	-0.453599	-0.245230
C156	C	1.221951	0.046401	0.254770
C157	C	0.755427	-0.477035	-0.216529
C158	C	1.255427	0.022965	0.283471
O159	O	0.693535	-0.527839	-0.269619
O160	O	1.193535	-0.027839	0.230381
O161	O	0.817368	-0.527800	-0.163435
O162	O	1.317368	-0.027800	0.336565
C163	C	0.788986	-0.739749	-0.187860
C164	C	1.288986	-0.239749	0.312140
C165	C	0.755537	-0.763225	-0.216563
C166	C	1.255537	-0.263225	0.283437
C167	C	0.722069	-0.739786	-0.245260
C168	C	1.222069	-0.239786	0.254740
C169	C	0.755551	-0.810143	-0.216567
C170	C	1.255551	-0.310143	0.283433
C171	C	0.789019	-0.833582	-0.187870
C172	C	1.289019	-0.333582	0.312130
C173	C	0.822472	-0.810103	-0.159169
C174	C	1.322472	-0.310103	0.340831
C175	C	0.822453	-0.763188	-0.159163
C176	C	1.322453	-0.263188	0.340837
C177	C	0.688617	-0.763265	-0.273961
C178	C	1.188617	-0.263265	0.226039
C179	C	0.688637	-0.810181	-0.273964
C180	C	1.188637	-0.310181	0.226036
C181	C	0.722105	-0.833620	-0.245267
C182	C	1.222105	-0.333620	0.254733
C183	C	0.891844	-0.216561	-0.216569
C184	C	1.391844	0.283439	0.283431
C185	C	0.949958	-0.216569	-0.216583
C186	C	1.449958	0.283431	0.283417
C187	C	0.755489	-0.216552	-0.333717
C188	C	1.255489	0.283448	0.166283
C189	C	0.755496	-0.216555	-0.383651
C190	C	1.255496	0.283445	0.116349
C191	C	0.755580	-0.099365	-0.216571
C192	C	1.255580	0.400635	0.283429
C193	C	0.755626	-0.049430	-0.216585
C194	C	1.255626	0.450570	0.283415
C195	C	0.722066	-0.245181	-0.740223
C196	C	1.222066	0.254819	-0.240223
C197	C	0.722047	-0.245233	-0.552550
C198	C	1.222047	0.254767	-0.052550
O199	O	0.693571	-0.269657	-0.528272
O200	O	1.193571	0.230343	-0.028272
N201	N	0.755508	-0.216514	-0.529097
N202	N	1.255508	0.283486	-0.029097
C203	C	0.788974	-0.187777	-0.552564
C204	C	1.288974	0.312223	-0.052564
O205	O	0.817430	-0.163347	-0.528309
O206	O	1.317430	0.336653	-0.028309
C207	C	0.788989	-0.187723	-0.740237
C208	C	1.288989	0.312277	-0.240237
C209	C	0.755530	-0.216448	-0.763688
C210	C	1.255530	0.283552	-0.263688
C211	C	0.688608	-0.273903	-0.763674
C212	C	1.188608	0.226097	-0.263674
C213	C	0.688615	-0.273892	-0.810590
C214	C	1.188615	0.226108	-0.310590
C215	C	0.722080	-0.245158	-0.834054
C216	C	1.222080	0.254842	-0.334054
C217	C	0.755537	-0.216436	-0.810603
C218	C	1.255537	0.283564	-0.310603
C219	C	0.822452	-0.158985	-0.763703
C220	C	1.322452	0.341015	-0.263703
C221	C	0.822452	-0.158973	-0.810624
C222	C	1.322452	0.341027	-0.310624
C223	C	0.788993	-0.187698	-0.834075
C224	C	1.288993	0.312302	-0.334075
C225	C	0.789008	-0.187692	-0.880983
C226	C	1.289008	0.312308	-0.380983
N227	N	0.755547	-0.216411	-0.904436
N228	N	1.255547	0.283589	-0.404436
C229	C	0.722083	-0.245144	-0.880972
C230	C	1.222083	0.254856	-0.380972
C231	C	0.788964	-0.187808	-0.454034
C232	C	1.288964	0.312192	0.045966
C233	C	0.788961	-0.187822	-0.407116
C234	C	1.288961	0.312178	0.092884
C235	C	0.722033	-0.245277	-0.407105
C236	C	1.222033	0.254723	0.092895
C237	C	0.722039	-0.245265	-0.454024
C238	C	1.222039	0.254735	0.045976
C239	C	0.755503	-0.216527	-0.477487
C240	C	1.255503	0.283473	0.022513
C241	C	0.722100	-0.245118	-0.979498
C242	C	1.222100	0.254882	-0.479498
C243	C	0.722112	-0.245106	-1.026418
C244	C	1.222112	0.254894	-0.526418
C245	C	0.789038	-0.187649	-1.026424
C246	C	1.289038	0.312351	-0.526424
C247	C	0.789028	-0.187663	-0.979509
C248	C	1.289028	0.312337	-0.479509
C249	C	0.755555	-0.216399	-0.956047
C250	C	1.255555	0.283601	-0.456047
O251	O	0.817465	-0.163277	-0.905290
O252	O	1.317465	0.336723	-0.405290
O253	O	0.693622	-0.269563	-0.905235
O254	O	1.193622	0.230437	-0.405235
C255	C	0.722058	-0.245193	-0.693308
C256	C	1.222058	0.254807	-0.193308
C257	C	0.755516	-0.216471	-0.669857
C258	C	1.255516	0.283529	-0.169857
C259	C	0.788980	-0.187738	-0.693321
C260	C	1.288980	0.312262	-0.193321
C261	C	0.755513	-0.216485	-0.622939
C262	C	1.255513	0.283515	-0.122939
C263	C	0.722048	-0.245218	-0.599475
C264	C	1.222048	0.254782	-0.099475
C265	C	0.688587	-0.273938	-0.622928
C266	C	1.188587	0.226062	-0.122928
C267	C	0.688594	-0.273926	-0.669844
C268	C	1.188594	0.226074	-0.169844
C269	C	0.822441	-0.159018	-0.669867
C270	C	1.322441	0.340982	-0.169867
C271	C	0.822432	-0.159032	-0.622952
C272	C	1.322432	0.340968	-0.122952
C273	C	0.788968	-0.187766	-0.599488
C274	C	1.288968	0.312234	-0.099488
C275	C	0.755483	-0.216502	-0.099816
C276	C	1.255483	0.283498	0.400184
C277	C	0.755576	-0.216372	-0.049882
C278	C	1.255576	0.283628	0.450118
H279	H	-0.044975	-0.268779	-0.268614
H280	H	0.455025	0.231221	0.231386
H281	H	0.694839	-0.268514	-0.960401
H282	H	1.194839	0.231486	-0.460401
H283	H	0.054090	-0.268776	-0.268605
H284	H	0.554090	0.231224	0.231395
C285	C	0.859242	-0.127430	-0.597161
C286	C	1.359242	0.372570	-0.097161
N287	N	0.886962	-0.103624	-0.577737
N288	N	1.386962	0.396376	-0.077737
H289	H	0.457379	-0.164322	-0.164489
H290	H	0.957379	0.335678	0.335511
H291	H	0.661341	-0.688536	-0.297332
H292	H	1.161341	-0.188536	0.202668
C293	C	0.859268	-0.127360	-0.836431
C294	C	1.359268	0.372640	-0.336431
N295	N	0.886998	-0.103550	-0.855868
N296	N	1.386998	0.396450	-0.355868
H297	H	0.849692	-0.744077	-0.135789
H298	H	1.349692	-0.244077	0.364211
H299	H	-0.044958	-0.164361	-0.164546
H300	H	0.455042	0.335639	0.335454
H301	H	0.556446	-0.164321	-0.164477
H302	H	1.056446	0.335679	0.335523
C303	C	0.859285	-0.835895	-0.127602
C304	C	1.359285	-0.335895	0.372398
N305	N	0.887014	-0.855324	-0.103828
N306	N	1.387014	-0.355324	0.396172
C307	C	0.061892	-0.156125	-0.156340
C308	C	0.561892	0.343875	0.343660
N309	N	0.084505	-0.132278	-0.132571
N310	N	0.584505	0.367722	0.367429
H311	H	0.661368	-0.297281	-0.829680
H312	H	1.161368	0.202719	-0.329680
C313	C	0.685300	-0.276704	-1.052211
C314	C	1.185300	0.223296	-0.552211
N315	N	0.657573	-0.300503	-1.071637
N316	N	1.157573	0.199497	-0.571637
C317	C	0.198428	-0.127320	-0.127662
C318	C	0.698428	0.372680	0.372338
N319	N	0.175821	-0.103466	-0.103906
N320	N	0.675821	0.396534	0.396094
H321	H	0.661348	-0.297317	-0.688933
H322	H	1.161348	0.202683	-0.188933
C323	C	0.651754	-0.596729	-0.305529
C324	C	1.151754	-0.096729	0.194471
N325	N	0.624023	-0.577314	-0.329311
N326	N	1.124023	-0.077314	0.170689
C327	C	0.313079	-0.127319	-0.127648
C328	C	0.813079	0.372681	0.372352
N329	N	0.335695	-0.103472	-0.103881
N330	N	0.835695	0.396528	0.396119
C331	C	0.825649	-0.380818	-0.156243
C332	C	1.325649	0.119182	0.343757
N333	N	0.853364	-0.361371	-0.132456
N334	N	1.353364	0.138629	0.367544
H335	H	0.457387	-0.268747	-0.268560
H336	H	0.957387	0.231253	0.231440
C337	C	0.685228	-0.276861	-0.479815
C338	C	1.185228	0.223139	0.020185
N339	N	0.657498	-0.300659	-0.499240
N340	N	1.157498	0.199341	0.000760
H341	H	0.816134	-0.472635	-0.164460
H342	H	1.316134	0.027365	0.335540
C343	C	0.859193	-0.596623	-0.127564
C344	C	1.359193	-0.096623	0.372436
N345	N	0.886908	-0.577180	-0.103773
N346	N	1.386908	-0.077180	0.396227
C347	C	0.313058	-0.305758	-0.305449
C348	C	0.813058	0.194242	0.194551
N349	N	0.335667	-0.329603	-0.329213
N350	N	0.835667	0.170397	0.170787
H351	H	0.849672	-0.688436	-0.135783
H352	H	1.349672	-0.188436	0.364217
C353	C	0.825841	-0.156039	-1.052244
C354	C	1.325841	0.343961	-0.552244
N355	N	0.853558	-0.132226	-1.071693
N356	N	1.353558	0.367774	-0.571693
H357	H	0.206213	-0.297538	-0.297268
H358	H	0.706213	0.202462	0.202732
C359	C	0.825864	-0.953213	-0.156299
C360	C	1.325864	-0.453213	0.343701
N361	N	0.853584	-0.933768	-0.132515
N362	N	1.353584	-0.433768	0.367485
H363	H	0.661364	-0.744185	-0.297330
H364	H	1.161364	-0.244185	0.202670
H365	H	0.816332	-1.045043	-0.164515
H366	H	1.316332	-0.545043	0.335485
H367	H	0.849692	-0.135619	-0.688967
H368	H	1.349692	0.364381	-0.188967
C369	C	0.685355	-1.051810	-0.276856
C370	C	1.185355	-0.551810	0.223144
N371	N	0.657635	-1.071255	-0.300640
N372	N	1.157635	-0.571255	0.199360
C373	C	0.825782	-0.156195	-0.479838
C374	C	1.325782	0.343805	0.020162
N375	N	0.853516	-0.132385	-0.499271
N376	N	1.353516	0.367615	0.000729
H377	H	0.661354	-0.297301	-0.744575
H378	H	1.161354	0.202699	-0.244575
C379	C	0.859256	-0.127380	-0.737917
C380	C	1.359256	0.372620	-0.237917
N381	N	0.886976	-0.103571	-0.718496
N382	N	1.386976	0.396429	-0.218496
C383	C	0.564238	-0.276968	-0.276733
C384	C	1.064238	0.223032	0.223267
N385	N	0.586851	-0.300813	-0.300494
N386	N	1.086851	0.199187	0.199506
C387	C	0.651835	-0.835999	-0.305544
C388	C	1.151835	-0.335999	0.194456
N389	N	0.624119	-0.855445	-0.329332
N390	N	1.124119	-0.355445	0.170668
C391	C	0.825839	-0.156068	-0.953712
C392	C	1.325839	0.343932	-0.453712
N393	N	0.853563	-0.132267	-0.934285
N394	N	1.353563	0.367733	-0.434285
H395	H	0.694890	-0.959993	-0.268651
H396	H	1.194890	-0.459993	0.231349
H397	H	0.694785	-0.268674	-0.387992
H398	H	1.194785	0.231326	0.112008
H399	H	0.661341	-0.297335	-0.603815
H400	H	1.161341	0.202665	-0.103815
C401	C	0.685152	-0.479423	-0.276805
C402	C	1.185152	0.020577	0.223195
N403	N	0.657438	-0.498872	-0.300592
N404	N	1.157438	0.001128	0.199408
H405	H	0.694680	-0.387592	-0.268590
H406	H	1.194680	0.112408	0.231410
H407	H	0.816212	-0.164436	-0.388026
H408	H	1.316212	0.335564	0.111974
