data_functionalizedCrystal
_audit_creation_method	'MofGen! by Chris Wilmer'
_symmetry_space_group_name_H-M	'P1'
_symmetry_Int_Tables_number	1
_symmetry_cell_setting	triclinic
loop_
_symmetry_equiv_pos_as_xyz
  x,y,z
_cell_length_a	26.210047
_cell_length_b	15.995350
_cell_length_c	15.995350
_cell_angle_alpha	83.492375
_cell_angle_beta	90.006733
_cell_angle_gamma	89.994610
loop_
_atom_site_label
_atom_site_type_symbol
_atom_site_fract_x
_atom_site_fract_y
_atom_site_fract_z
O1	O	0.042383	-1.110992	-0.107915
O2	O	0.542383	-0.610992	0.392085
O3	O	0.042393	-0.867217	-0.121242
O4	O	0.542393	-0.367217	0.378758
O5	O	0.042388	-0.995769	0.007309
O6	O	0.542388	-0.495769	0.507309
O7	O	0.042389	-0.982441	-0.236466
O8	O	0.542389	-0.482441	0.263534
O9	O	-0.042470	-0.995744	0.007289
O10	O	0.457530	-0.495744	0.507289
O11	O	-0.042465	-0.867192	-0.121262
O12	O	0.457535	-0.367192	0.378738
O13	O	-0.042475	-1.110968	-0.107935
O14	O	0.457525	-0.610968	0.392065
Cu15	Cu	-0.050218	-0.989078	-0.114600
Cu16	Cu	0.449782	-0.489078	0.385400
Cu17	Cu	0.050137	-0.989107	-0.114577
Cu18	Cu	0.550137	-0.489107	0.385423
O19	O	-0.042469	-0.982416	-0.236486
O20	O	0.457531	-0.482416	0.263514
C21	C	-0.000034	-0.836010	-0.120701
C22	C	0.499966	-0.336010	0.379299
C23	C	-0.000030	-0.743060	-0.119049
C24	C	0.499970	-0.243060	0.380951
N25	N	-0.120802	-0.989063	-0.114616
N26	N	0.379198	-0.489063	0.385384
C27	C	-0.000040	-0.995205	0.038494
C28	C	0.499960	-0.495205	0.538494
C29	C	-0.000038	-0.993553	0.131444
C30	C	0.499962	-0.493553	0.631444
C31	C	-0.473319	-1.046024	-0.057667
C32	C	0.026681	-0.546024	0.442333
C33	C	-0.686977	-1.046042	-0.057655
C34	C	-0.186977	-0.546042	0.442345
O35	O	-0.714601	-1.094440	-0.009238
O36	O	-0.214601	-0.594440	0.490762
N37	N	-0.713696	-0.989111	-0.114558
N38	N	-0.213696	-0.489111	0.385442
C39	C	-0.686997	-0.932168	-0.171464
C40	C	-0.186997	-0.432168	0.328536
O41	O	-0.714625	-0.883740	-0.219858
O42	O	-0.214625	-0.383740	0.280142
C43	C	-0.473339	-0.932147	-0.171471
C44	C	0.026661	-0.432147	0.328529
C45	C	-0.446623	-0.989087	-0.114570
C46	C	0.053377	-0.489087	0.385430
C47	C	-0.446603	-1.102959	-0.000770
C48	C	0.053397	-0.602959	0.499230
C49	C	-0.393191	-1.102957	-0.000776
C50	C	0.106809	-0.602957	0.499224
C51	C	-0.366496	-1.046020	-0.057680
C52	C	0.133504	-0.546020	0.442320
C53	C	-0.393212	-0.989085	-0.114577
C54	C	0.106788	-0.489085	0.385423
C55	C	-0.446641	-0.875200	-0.228373
C56	C	0.053359	-0.375200	0.271627
C57	C	-0.393223	-0.875198	-0.228368
C58	C	0.106777	-0.375198	0.271632
C59	C	-0.366507	-0.932139	-0.171467
C60	C	0.133493	-0.432139	0.328533
C61	C	-0.313105	-0.932146	-0.171487
C62	C	0.186895	-0.432146	0.328513
N63	N	-0.286386	-0.989076	-0.114584
N64	N	0.213614	-0.489076	0.385416
C65	C	-0.313081	-1.046013	-0.057680
C66	C	0.186919	-0.546013	0.442320
C67	C	-0.799170	-0.932185	-0.171458
C68	C	-0.299170	-0.432185	0.328542
C69	C	-0.852584	-0.932191	-0.171457
C70	C	-0.352584	-0.432191	0.328543
C71	C	-0.852561	-1.046064	-0.057647
C72	C	-0.352561	-0.546064	0.442353
C73	C	-0.799146	-1.046061	-0.057652
C74	C	-0.299146	-0.546061	0.442348
C75	C	-0.772451	-0.989116	-0.114555
C76	C	-0.272451	-0.489116	0.385445
C77	C	-0.200914	-1.046005	-0.057699
C78	C	0.299086	-0.546005	0.442301
C79	C	-0.147497	-1.046000	-0.057713
C80	C	0.352503	-0.546000	0.442287
C81	C	-0.147525	-0.932125	-0.171520
C82	C	0.352475	-0.432125	0.328480
C83	C	-0.200937	-0.932132	-0.171509
C84	C	0.299063	-0.432132	0.328491
C85	C	-0.227630	-0.989075	-0.114592
C86	C	0.272370	-0.489075	0.385408
O87	O	-0.285448	-0.883767	-0.219872
O88	O	0.214552	-0.383767	0.280128
O89	O	-0.285444	-1.094422	-0.009282
O90	O	0.214556	-0.594422	0.490718
C91	C	-0.526730	-1.046026	-0.057660
C92	C	-0.026730	-0.546026	0.442340
C93	C	-0.553446	-0.989091	-0.114557
C94	C	-0.053446	-0.489091	0.385443
C95	C	-0.526750	-0.932154	-0.171461
C96	C	-0.026750	-0.432154	0.328539
C97	C	-0.606860	-0.989097	-0.114557
C98	C	-0.106860	-0.489097	0.385443
C99	C	-0.633556	-1.046034	-0.057653
C100	C	-0.133556	-0.546034	0.442347
C101	C	-0.606837	-1.102965	-0.000750
C102	C	-0.106837	-0.602965	0.499250
C103	C	-0.553425	-1.102963	-0.000757
C104	C	-0.053425	-0.602963	0.499243
C105	C	-0.553469	-0.875223	-0.228364
C106	C	-0.053469	-0.375223	0.271636
C107	C	-0.606881	-0.875231	-0.228353
C108	C	-0.106881	-0.375231	0.271647
C109	C	-0.633576	-0.932168	-0.171450
C110	C	-0.133576	-0.432168	0.328550
N111	N	0.120720	-0.989128	-0.114554
N112	N	0.620720	-0.489128	0.385446
C113	C	-0.000046	-1.142175	-0.108476
C114	C	0.499954	-0.642175	0.391524
C115	C	-0.000047	-1.235125	-0.110127
C116	C	0.499953	-0.735125	0.389873
C117	C	-0.000041	-0.405312	-0.113117
C118	C	0.499959	0.094688	0.386883
C119	C	-0.000231	-0.452746	-0.021565
C120	C	0.499769	0.047254	0.478435
C121	C	-0.000036	-0.549436	-0.023217
C122	C	0.499964	-0.049436	0.476783
C123	C	-0.000036	-0.572873	-0.116060
C124	C	0.499964	-0.072873	0.383940
C125	C	0.048420	-0.531800	-0.161205
C126	C	0.548420	-0.031800	0.338795
C127	C	0.048457	-0.435164	-0.158905
C128	C	0.548457	0.064836	0.341095
C129	C	-0.048042	-0.434797	-0.160819
C130	C	0.451958	0.065203	0.339181
C131	C	-0.048679	-0.531742	-0.160798
C132	C	0.451321	-0.031742	0.339202
C133	C	-0.000031	-0.667570	-0.117727
C134	C	0.499969	-0.167570	0.382273
C135	C	-0.000042	-0.310614	-0.111452
C136	C	0.499958	0.189386	0.388548
C137	C	-0.000040	-0.982980	-0.267671
C138	C	0.499960	-0.482980	0.232329
C139	C	-0.000039	-0.984631	-0.360621
C140	C	0.499961	-0.484631	0.139379
C141	C	-0.000039	-0.987621	0.469192
C142	C	0.499961	-0.487621	0.969192
C143	C	0.000155	-0.896069	0.421758
C144	C	0.500155	-0.396069	0.921758
C145	C	-0.000036	-0.897721	0.325068
C146	C	0.499964	-0.397721	0.825068
C147	C	-0.000038	-0.990564	0.301631
C148	C	0.499962	-0.490564	0.801631
C149	C	-0.048497	-1.035706	0.342697
C150	C	0.451503	-0.535706	0.842697
C151	C	-0.048538	-1.033406	0.439333
C152	C	0.451462	-0.533406	0.939333
C153	C	0.047962	-1.035326	0.439714
C154	C	0.547962	-0.535326	0.939714
C155	C	0.048602	-1.035304	0.342769
C156	C	0.548602	-0.535304	0.842769
C157	C	-0.000039	-0.992231	0.206934
C158	C	0.499961	-0.492231	0.706934
C159	C	-0.000041	-0.985956	0.563890
C160	C	0.499959	-0.485956	1.063890
H161	H	-0.125747	-1.092371	-0.011377
H162	H	0.374253	-0.592371	0.488623
H163	H	0.051527	-1.103009	0.327408
H164	H	0.551527	-0.603009	0.827408
N165	N	-0.093658	-0.565966	-0.119457
N166	N	0.406342	-0.065966	0.380543
N167	N	-0.125731	-0.603624	-0.159290
N168	N	0.374269	-0.103624	0.340710
H169	H	-0.157500	-0.627789	-0.130090
H170	H	0.342500	-0.127789	0.369910
H171	H	0.034701	-0.862235	0.296654
H172	H	0.534701	-0.362235	0.796654
N173	N	-0.365956	-0.817042	-0.286509
N174	N	0.134044	-0.317042	0.213491
N175	N	-0.336157	-0.843601	-0.338508
N176	N	0.163843	-0.343601	0.161492
H177	H	-0.316900	-0.802530	-0.379573
H178	H	0.183100	-0.302530	0.120427
N179	N	-0.879843	-1.104207	0.000487
N180	N	-0.379843	-0.604207	0.500487
N181	N	-0.927534	-1.104185	0.000483
N182	N	-0.427534	-0.604185	0.500483
H183	H	-0.946804	-1.145237	0.041546
H184	H	-0.446804	-0.645237	0.541546
N185	N	-0.043203	-0.850377	0.446323
N186	N	0.456797	-0.350377	0.946323
N187	N	-0.087217	-0.876437	0.433958
N188	N	0.412783	-0.376437	0.933958
H189	H	-0.117842	-0.844174	0.451309
H190	H	0.382158	-0.344174	0.951309
H191	H	0.084680	-0.416866	-0.125966
H192	H	0.584680	0.083134	0.374034
N193	N	-0.365914	-1.161186	0.057293
N194	N	0.134086	-0.661186	0.557293
N195	N	-0.389764	-1.212053	0.108051
N196	N	0.110236	-0.712053	0.608051
H197	H	-0.370503	-1.253203	0.149045
H198	H	0.129497	-0.753203	0.649045
H199	H	-0.050737	-1.100622	0.471581
H200	H	0.449263	-0.600622	0.971581
N201	N	-0.771897	-0.874020	-0.229581
N202	N	-0.271897	-0.374020	0.270419
N203	N	-0.742094	-0.822042	-0.202996
N204	N	-0.242094	-0.322042	0.297004
H205	H	-0.722833	-0.780965	-0.244048
H206	H	-0.222833	-0.280965	0.255952
H207	H	-0.050301	-1.103914	0.328571
H208	H	0.449699	-0.603914	0.828571
H209	H	-0.084557	-1.004332	0.314307
H210	H	0.415443	-0.504332	0.814307
N211	N	-0.094120	-0.409016	-0.123295
N212	N	0.405880	0.090984	0.376705
N213	N	-0.102675	-0.332609	-0.119814
N214	N	0.397325	0.167391	0.380186
H215	H	-0.135216	-0.314400	-0.093307
H216	H	0.364784	0.185600	0.406693
H217	H	-0.468333	-1.149324	0.045572
H218	H	0.031667	-0.649324	0.545572
H219	H	-0.051606	-0.547106	-0.228502
H220	H	0.448394	-0.047106	0.271498
N221	N	-0.093969	-0.992062	0.462285
N222	N	0.406031	-0.492062	0.962285
N223	N	-0.090956	-0.926610	0.497919
N224	N	0.409044	-0.426610	0.997919
H225	H	-0.123042	-0.897406	0.514125
H226	H	0.376958	-0.397406	1.014125
N227	N	-0.228222	-0.873968	-0.229640
N228	N	0.271778	-0.373968	0.270360
N229	N	-0.204377	-0.823136	-0.280441
N230	N	0.295623	-0.323136	0.219559
H231	H	-0.223643	-0.782049	-0.321491
H232	H	0.276357	-0.282049	0.178509
N233	N	0.043617	-0.584391	0.021623
N234	N	0.543617	-0.084391	0.521623
N235	N	0.074035	-0.537365	0.054231
N236	N	0.574035	-0.037365	0.554231
H237	H	0.104868	-0.562050	0.085900
H238	H	0.604868	-0.062050	0.585900
H239	H	-0.468385	-0.828834	-0.274706
H240	H	0.031615	-0.328834	0.225294
H241	H	-0.628581	-1.149329	0.045580
H242	H	-0.128581	-0.649329	0.545580
N243	N	0.051216	-0.394716	-0.243227
N244	N	0.551216	0.105284	0.256773
N245	N	0.053111	-0.437884	-0.303585
N246	N	0.553111	0.062116	0.196415
H247	H	0.055060	-0.409322	-0.363137
H248	H	0.555060	0.090678	0.136863
N249	N	-0.120243	-0.873977	-0.229641
N250	N	0.379757	-0.373977	0.270359
N251	N	-0.072552	-0.873988	-0.229629
N252	N	0.427448	-0.373988	0.270371
H253	H	-0.053282	-0.832917	-0.270674
H254	H	0.446718	-0.332917	0.229326
H255	H	-0.034981	-0.434214	0.015022
H256	H	0.465019	0.065786	0.515022
H257	H	-0.531738	-0.828857	-0.274700
H258	H	-0.031738	-0.328857	0.225300
H259	H	0.034906	-0.859487	0.440298
H260	H	0.534906	-0.359487	0.940298
N261	N	0.094035	-0.997789	0.465504
N262	N	0.594035	-0.497789	0.965504
N263	N	0.092051	-0.935415	0.505929
N264	N	0.592051	-0.435415	1.005929
H265	H	0.124587	-0.908898	0.524145
H266	H	0.624587	-0.408898	1.024145
N267	N	-0.526148	-1.161132	0.057372
N268	N	-0.026148	-0.661132	0.557372
N269	N	-0.549998	-1.211959	0.108171
N270	N	-0.049998	-0.711959	0.608171
H271	H	-0.530737	-1.253044	0.149230
H272	H	-0.030737	-0.753044	0.649230
N273	N	0.048360	-1.120007	0.479550
N274	N	0.548360	-0.620007	0.979550
N275	N	0.013482	-1.145213	0.529445
N276	N	0.513482	-0.645213	1.029445
H277	H	0.013758	-1.205018	0.557579
H278	H	0.513758	-0.705018	1.057579
N279	N	-0.048448	-0.394951	-0.245496
N280	N	0.451552	0.105049	0.254504
N281	N	-0.013576	-0.345044	-0.270702
N282	N	0.486424	0.154956	0.229298
H283	H	-0.013859	-0.316898	-0.330502
H284	H	0.486141	0.183102	0.169498
N285	N	0.043118	-0.428164	0.024141
N286	N	0.543118	0.071836	0.524141
N287	N	0.074152	-0.375863	-0.010418
N288	N	0.574152	0.124137	0.489582
H289	H	0.104768	-0.358500	0.021859
H290	H	0.604768	0.141500	0.521859
N291	N	0.050676	-0.549520	-0.246771
N292	N	0.550676	-0.049520	0.253229
N293	N	0.016515	-0.592723	-0.275503
N294	N	0.516515	-0.092723	0.224497
H295	H	0.018107	-0.605240	-0.335935
H296	H	0.518107	-0.105240	0.164065
H297	H	-0.034830	-0.861976	0.297195
H298	H	0.465170	-0.361976	0.797195
N299	N	-0.879862	-0.874023	-0.229587
N300	N	-0.379862	-0.374023	0.270413
N301	N	-0.873897	-0.796636	-0.228390
N302	N	-0.373897	-0.296636	0.271610
H303	H	-0.893160	-0.755548	-0.269443
H304	H	-0.393160	-0.255548	0.230557
N305	N	-0.228167	-1.104173	0.000448
N306	N	0.271833	-0.604173	0.500448
N307	N	-0.204298	-1.154999	0.051241
N308	N	0.295702	-0.654999	0.551241
H309	H	-0.223545	-1.196083	0.092306
H310	H	0.276455	-0.696083	0.592306
N311	N	0.093657	-0.567435	-0.121865
N312	N	0.593657	-0.067435	0.378135
N313	N	0.090336	-0.623069	-0.060589
N314	N	0.590336	-0.123069	0.439411
H315	H	0.122283	-0.648246	-0.032809
H316	H	0.622283	-0.148246	0.467191
N317	N	-0.771866	-1.104186	0.000519
N318	N	-0.271866	-0.604186	0.500519
N319	N	-0.795715	-1.154990	0.051344
N320	N	-0.295715	-0.654990	0.551344
H321	H	-0.776451	-1.196027	0.092448
H322	H	-0.276451	-0.696027	0.592448
H323	H	-0.628629	-0.828865	-0.274696
H324	H	-0.128629	-0.328865	0.225304
N325	N	0.093573	-0.993946	0.308531
N326	N	0.593573	-0.493946	0.808531
N327	N	0.089854	-0.931752	0.254034
N328	N	0.589854	-0.431752	0.754034
H329	H	0.121613	-0.902540	0.229849
H330	H	0.621613	-0.402540	0.729849
N331	N	-0.043610	-0.585081	0.021310
N332	N	0.456390	-0.085081	0.521310
N333	N	-0.074377	-0.538554	0.053828
N334	N	0.425623	-0.038554	0.553828
H335	H	-0.105152	-0.563725	0.085283
H336	H	0.394848	-0.063725	0.585283
