data_functionalizedCrystal
_audit_creation_method	'MofGen! by Chris Wilmer'
_symmetry_space_group_name_H-M	'P1'
_symmetry_Int_Tables_number	1
_symmetry_cell_setting	triclinic
loop_
_symmetry_equiv_pos_as_xyz
  x,y,z
_cell_length_a	25.639239
_cell_length_b	18.050591
_cell_length_c	18.050582
_cell_angle_alpha	90.020922
_cell_angle_beta	90.024638
_cell_angle_gamma	90.034692
loop_
_atom_site_label
_atom_site_type_symbol
_atom_site_fract_x
_atom_site_fract_y
_atom_site_fract_z
Zn1	Zn	-0.208240	1.135238	0.420021
Zn2	Zn	0.291760	1.635238	0.920021
Zn3	Zn	-0.295667	1.135126	0.295826
Zn4	Zn	0.204333	1.635126	0.795826
Zn5	Zn	-0.208242	1.011058	0.295832
Zn6	Zn	0.291758	1.511058	0.795832
Zn7	Zn	-0.295640	1.010983	0.419962
Zn8	Zn	0.204360	1.510983	0.919962
O9	O	-0.251947	1.073101	0.357910
O10	O	0.248053	1.573101	0.857910
O11	O	-0.219848	1.239148	0.403568
O12	O	0.280152	1.739148	0.903568
O13	O	-0.284083	1.118653	0.191902
O14	O	0.215917	1.618653	0.691902
O15	O	-0.135076	1.027609	0.312333
O16	O	0.364924	1.527609	0.812333
O17	O	-0.284081	1.239066	0.312323
O18	O	0.215919	1.739066	0.812323
O19	O	-0.135075	1.118844	0.403574
O20	O	0.364925	1.618844	0.903574
O21	O	-0.219851	1.027500	0.191906
O22	O	0.280149	1.527500	0.691906
O23	O	-0.219825	0.907123	0.312276
O24	O	0.280175	1.407123	0.812276
O25	O	-0.284034	1.027481	0.523894
O26	O	0.215966	1.527481	1.023894
O27	O	-0.284036	0.907068	0.403473
O28	O	0.215964	1.407068	0.903473
O29	O	-0.219821	1.118771	0.523938
O30	O	0.280179	1.618771	1.023938
O31	O	-0.368829	1.118580	0.312266
O32	O	0.131171	1.618580	0.812266
O33	O	-0.368809	1.027373	0.403468
O34	O	0.131191	1.527373	0.903468
C35	C	-0.251928	0.880149	0.357869
C36	C	0.248072	1.380149	0.857869
C37	C	-0.251932	0.797604	0.357869
C38	C	0.248068	1.297604	0.857869
C39	C	-0.216974	0.598161	0.308390
C40	C	0.283026	1.098161	0.808390
C41	C	-0.264661	0.548729	0.290112
C42	C	0.235339	1.048729	0.790112
C43	C	-0.251948	0.646473	0.357903
C44	C	0.248052	1.146473	0.857903
C45	C	-0.204277	0.548824	0.376179
C46	C	0.295723	1.048824	0.876179
C47	C	-0.251959	0.500488	0.357934
C48	C	0.248041	1.000488	0.857934
C49	C	-0.299660	0.598128	0.339589
C50	C	0.200340	1.098128	0.839589
C51	C	-0.239244	0.598227	0.425688
C52	C	0.260756	1.098227	0.925688
C53	C	-0.286965	0.548817	0.407435
C54	C	0.213035	1.048817	0.907435
C55	C	-0.251941	0.730571	0.357883
C56	C	0.248059	1.230571	0.857883
C57	C	-0.251971	0.416392	0.357954
C58	C	0.248029	0.916392	0.857954
C59	C	-0.387790	1.072977	0.357876
C60	C	0.112210	1.572977	0.857876
C61	C	-0.445904	1.072991	0.357886
C62	C	0.054096	1.572991	0.857886
C63	C	-0.806265	1.120717	0.310502
C64	C	-0.306265	1.620717	0.810502
C65	C	-0.860869	1.120746	0.310512
C66	C	-0.360869	1.620746	0.810512
O67	O	-0.889104	1.161195	0.270187
O68	O	-0.389104	1.661195	0.770187
N69	N	-0.888186	1.073232	0.357959
N70	N	-0.388186	1.573232	0.857959
C71	C	-0.860896	1.025691	0.405405
C72	C	-0.360896	1.525691	0.905405
O73	O	-0.889145	0.985280	0.445764
O74	O	-0.389145	1.485280	0.945764
C75	C	-0.806293	1.025667	0.405398
C76	C	-0.306293	1.525667	0.905398
C77	C	-0.778979	1.073179	0.357943
C78	C	-0.278979	1.573179	0.857943
C79	C	-0.778951	1.168226	0.263051
C80	C	-0.278951	1.668226	0.763051
C81	C	-0.724350	1.168196	0.263040
C82	C	-0.224350	1.668196	0.763040
C83	C	-0.697064	1.120657	0.310481
C84	C	-0.197064	1.620657	0.810481
C85	C	-0.724378	1.073149	0.357932
C86	C	-0.224378	1.573149	0.857932
C87	C	-0.779004	0.978131	0.452847
C88	C	-0.279004	1.478131	0.952847
C89	C	-0.724397	0.978111	0.452837
C90	C	-0.224397	1.478111	0.952837
C91	C	-0.697083	1.025622	0.405381
C92	C	-0.197083	1.525622	0.905381
C93	C	-0.642491	1.025580	0.405362
C94	C	-0.142491	1.525580	0.905362
N95	N	-0.615174	1.073094	0.357914
N96	N	-0.115174	1.573094	0.857914
C97	C	-0.642460	1.120633	0.310474
C98	C	-0.142460	1.620633	0.810474
C99	C	-0.975567	1.025747	0.405416
C100	C	-0.475567	1.525747	0.905416
C101	C	-1.030169	1.025768	0.405420
C102	C	-0.530169	1.525768	0.905420
C103	C	-1.030138	1.120823	0.310528
C104	C	-0.530138	1.620823	0.810528
C105	C	-0.975535	1.120799	0.310521
C106	C	-0.475535	1.620799	0.810521
C107	C	-0.948250	1.073261	0.357969
C108	C	-0.448250	1.573261	0.857969
C109	C	-0.527795	1.120566	0.310455
C110	C	-0.027795	1.620566	0.810455
C111	C	-0.473190	1.120530	0.310446
C112	C	0.026810	1.620530	0.810446
C113	C	-0.473226	1.025477	0.405340
C114	C	0.026774	1.525477	0.905340
C115	C	-0.527826	1.025510	0.405347
C116	C	-0.027826	1.525510	0.905347
C117	C	-0.555110	1.073061	0.357901
C118	C	-0.055110	1.573061	0.857901
O119	O	-0.614222	0.985154	0.445668
O120	O	-0.114222	1.485154	0.945668
O121	O	-0.614205	1.161044	0.270129
O122	O	-0.114205	1.661044	0.770129
C123	C	-0.115574	1.073247	0.357961
C124	C	0.384426	1.573247	0.857961
C125	C	-0.057460	1.073309	0.357982
C126	C	0.442540	1.573309	0.857982
C127	C	-0.251924	1.073131	0.551616
C128	C	0.248076	1.573131	1.051616
C129	C	-0.251914	1.073143	0.634162
C130	C	0.248086	1.573143	1.134162
C131	C	-0.251967	1.266807	0.357952
C132	C	0.248033	1.766807	0.857952
C133	C	-0.251976	1.349353	0.357970
C134	C	0.248024	1.849353	0.857970
C135	C	-0.251933	1.073115	0.164958
C136	C	0.248067	1.573115	0.664958
C137	C	-0.251795	1.073247	0.082413
C138	C	0.248205	1.573247	0.582413
C139	C	-0.286785	1.023537	0.833589
C140	C	0.213215	1.523537	1.333589
C141	C	-0.299569	1.091289	0.882987
C142	C	0.200431	1.591289	1.382987
C143	C	-0.251874	1.073180	0.785292
C144	C	0.248126	1.573180	1.285292
C145	C	-0.239076	1.005465	0.882976
C146	C	0.260924	1.505465	1.382976
C147	C	-0.251837	1.073209	0.931277
C148	C	0.248163	1.573209	1.431277
C149	C	-0.264683	1.140967	0.833603
C150	C	0.235317	1.640967	1.333603
C151	C	-0.204168	1.055097	0.833588
C152	C	0.295832	1.555097	1.333588
C153	C	-0.216933	1.122896	0.882963
C154	C	0.283067	1.622896	1.382963
C155	C	-0.251897	1.073162	0.701194
C156	C	0.248103	1.573162	1.201194
C157	C	-0.251814	1.073235	1.015374
C158	C	0.248186	1.573235	1.515374
H159	H	-0.163963	0.527126	0.391599
H160	H	0.336037	1.027126	0.891599
O161	O	-0.697837	0.931893	0.498826
O162	O	-0.197837	1.431893	0.998826
C163	C	-0.666311	0.883919	0.456496
C164	C	-0.166311	1.383919	0.956496
H165	H	-0.658130	0.910140	0.400240
H166	H	-0.158130	1.410140	0.900240
H167	H	-0.627912	0.873924	0.486734
H168	H	-0.127912	1.373924	0.986734
H169	H	-0.687399	0.828902	0.448285
H170	H	-0.187399	1.328902	0.948285
H171	H	-0.163851	1.039765	0.811873
H172	H	0.336149	1.539765	1.311873
H173	H	-0.275538	1.198261	0.812006
H174	H	0.224462	1.698261	1.312006
H175	H	-0.339897	1.106602	0.904685
H176	H	0.160103	1.606602	1.404685
H177	H	-0.801161	1.206941	0.224419
H178	H	-0.301161	1.706941	0.724419
H179	H	-0.550003	1.159288	0.271822
H180	H	-0.050003	1.659288	0.771822
O181	O	-0.697762	1.214390	0.217051
O182	O	-0.197762	1.714390	0.717051
C183	C	-0.666141	1.262328	0.259379
C184	C	-0.166141	1.762328	0.759379
H185	H	-0.657952	1.236091	0.315628
H186	H	-0.157952	1.736091	0.815628
H187	H	-0.627751	1.272291	0.229130
H188	H	-0.127751	1.772291	0.729130
H189	H	-0.687149	1.317364	0.267605
H190	H	-0.187149	1.817364	0.767605
O191	O	-0.181627	1.173002	0.908572
O192	O	0.318373	1.673002	1.408572
C193	C	-0.131537	1.154405	0.882298
C194	C	0.368463	1.654405	1.382298
H195	H	-0.135332	1.119354	0.830022
H196	H	0.364668	1.619354	1.330022
H197	H	-0.108980	1.207209	0.869066
H198	H	0.391020	1.707209	1.369066
H199	H	-0.109794	1.121616	0.926557
H200	H	0.390206	1.621616	1.426557
O201	O	-0.949085	1.167024	0.264402
O202	O	-0.449085	1.667024	0.764402
C203	C	-0.984884	1.208968	0.222519
C204	C	-0.484884	1.708968	0.722519
H205	H	-1.023794	1.211532	0.252949
H206	H	-0.523794	1.711532	0.752949
H207	H	-0.969077	1.267481	0.214651
H208	H	-0.469077	1.767481	0.714651
H209	H	-0.990730	1.181809	0.166090
H210	H	-0.490730	1.681809	0.666090
O211	O	-0.322332	0.523251	0.457411
O212	O	0.177668	1.023251	0.957411
C213	C	-0.347303	0.583682	0.491895
C214	C	0.152697	1.083682	0.991895
H215	H	-0.344523	0.634481	0.454597
H216	H	0.155477	1.134481	0.954597
H217	H	-0.390068	0.569521	0.501836
H218	H	0.109932	1.069521	1.001836
H219	H	-0.327512	0.595908	0.547135
H220	H	0.172488	1.095908	1.047135
H221	H	-0.275415	0.526989	0.232800
H222	H	0.224585	1.026989	0.732800
O223	O	-1.056730	1.167034	0.264566
O224	O	-0.556730	1.667034	0.764566
C225	C	-1.110781	1.156878	0.274770
C226	C	-0.610781	1.656878	0.774770
H227	H	-1.118215	1.132449	0.332033
H228	H	-0.618215	1.632449	0.832033
H229	H	-1.131482	1.212539	0.269886
H230	H	-0.631482	1.712539	0.769886
H231	H	-1.126351	1.117435	0.230642
H232	H	-0.626351	1.617435	0.730642
O233	O	-0.347739	0.623976	0.321061
O234	O	0.152261	1.123976	0.821061
C235	C	-0.347150	0.702082	0.321257
C236	C	0.152850	1.202082	0.821257
H237	H	-0.305476	0.722552	0.313098
H238	H	0.194524	1.222552	0.813098
H239	H	-0.372768	0.723606	0.274341
H240	H	0.127232	1.223606	0.774341
H241	H	-0.362730	0.723248	0.376488
H242	H	0.137270	1.223248	0.876488
H243	H	-1.052404	0.987072	0.444056
H244	H	-0.552404	1.487072	0.944056
H245	H	-0.550067	0.986824	0.443991
H246	H	-0.050067	1.486824	0.943991
O247	O	-0.446689	0.979410	0.451503
O248	O	0.053311	1.479410	0.951503
C249	C	-0.415049	1.021659	0.499483
C250	C	0.084951	1.521659	0.999483
H251	H	-0.431470	1.080152	0.504128
H252	H	0.068530	1.580152	1.004128
H253	H	-0.414417	0.994770	0.556613
H254	H	0.085583	1.494770	1.056613
H255	H	-0.373675	1.024219	0.476510
H256	H	0.126325	1.524219	0.976510
O257	O	-0.226238	0.937079	0.908763
O258	O	0.273762	1.437079	1.408763
C259	C	-0.263178	0.884911	0.883621
C260	C	0.236822	1.384911	1.383621
H261	H	-0.283108	0.906882	0.831621
H262	H	0.216892	1.406882	1.331621
H263	H	-0.242678	0.830488	0.870307
H264	H	0.257322	1.330488	1.370307
H265	H	-0.293616	0.875177	0.928605
H266	H	0.206384	1.375177	1.428605
H267	H	-0.801234	0.939438	0.491487
H268	H	-0.301234	1.439438	0.991487
O269	O	-0.181785	0.623978	0.258287
O270	O	0.318215	1.123978	0.758287
C271	C	-0.195376	0.598737	0.186912
C272	C	0.304624	1.098737	0.686912
H273	H	-0.238745	0.584854	0.185401
H274	H	0.261255	1.084854	0.685401
H275	H	-0.186609	0.643887	0.144557
H276	H	0.313391	1.143887	0.644557
H277	H	-0.171767	0.547060	0.173061
H278	H	0.328233	1.047060	0.673061
H279	H	-0.228476	0.619985	0.482982
H280	H	0.271524	1.119985	0.982982
H281	H	-0.450952	1.159219	0.271799
H282	H	0.049048	1.659219	0.771799
O283	O	-0.322120	0.973585	0.807755
O284	O	0.177880	1.473585	1.307755
C285	C	-0.372345	0.992938	0.832943
C286	C	0.127655	1.492938	1.332943
H287	H	-0.373334	1.054541	0.846806
H288	H	0.126666	1.554541	1.346806
H289	H	-0.402182	0.980509	0.787769
H290	H	0.097818	1.480509	1.287769
H291	H	-0.382131	0.959415	0.884621
H292	H	0.117869	1.459415	1.384621
O293	O	-0.949145	0.979489	0.451528
O294	O	-0.449145	1.479489	0.951528
C295	C	-0.984970	0.937576	0.493415
C296	C	-0.484970	1.437576	0.993415
H297	H	-1.023904	0.935050	0.462993
H298	H	-0.523904	1.435050	0.962993
H299	H	-0.969234	0.879047	0.501275
H300	H	-0.469234	1.379047	1.001275
H301	H	-0.990740	0.964736	0.549847
H302	H	-0.490740	1.464736	1.049847
