data_functionalizedCrystal
_audit_creation_method	'MofGen! by Chris Wilmer'
_symmetry_space_group_name_H-M	'P1'
_symmetry_Int_Tables_number	1
_symmetry_cell_setting	triclinic
loop_
_symmetry_equiv_pos_as_xyz
  x,y,z
_cell_length_a	19.077105
_cell_length_b	13.032721
_cell_length_c	19.077579
_cell_angle_alpha	95.158020
_cell_angle_beta	85.300666
_cell_angle_gamma	95.201395
loop_
_atom_site_label
_atom_site_type_symbol
_atom_site_fract_x
_atom_site_fract_y
_atom_site_fract_z
Zn1	Zn	1.056664	-0.450631	-0.478900
Zn2	Zn	1.556664	0.049369	0.021100
Zn3	Zn	1.037074	-0.630372	-0.375789
Zn4	Zn	1.537074	-0.130372	0.124211
Zn5	Zn	0.934048	-0.450648	-0.356297
Zn6	Zn	1.434048	0.049352	0.143703
Zn7	Zn	0.925072	-0.616941	-0.487804
Zn8	Zn	1.425072	-0.116941	0.012196
O9	O	0.988214	-0.537148	-0.424698
O10	O	1.488214	-0.037148	0.075302
O11	O	1.152254	-0.480087	-0.469653
O12	O	1.652254	0.019913	0.030347
O13	O	1.018966	-0.612160	-0.275015
O14	O	1.518966	-0.112160	0.224985
O15	O	0.962267	-0.305829	-0.360677
O16	O	1.462267	0.194171	0.139323
O17	O	1.137862	-0.612143	-0.393898
O18	O	1.637862	-0.112143	0.106102
O19	O	1.052353	-0.305817	-0.450753
O20	O	1.552353	0.194183	0.049247
O21	O	0.943272	-0.480117	-0.260695
O22	O	1.443272	0.019883	0.239305
O23	O	0.834668	-0.467094	-0.369311
O24	O	1.334668	0.032906	0.130689
O25	O	0.946970	-0.589251	-0.584811
O26	O	1.446970	-0.089251	-0.084811
O27	O	0.828074	-0.589268	-0.465928
O28	O	1.328074	-0.089268	0.034072
O29	O	1.043650	-0.467064	-0.578270
O30	O	1.543650	0.032936	-0.078270
O31	O	1.010263	-0.773407	-0.402531
O32	O	1.510263	-0.273407	0.097469
O33	O	0.927975	-0.763539	-0.484829
O34	O	1.427975	-0.263539	0.015171
C35	C	0.805912	-0.526726	-0.416471
C36	C	1.305912	-0.026726	0.083529
C37	C	0.727921	-0.522292	-0.412971
C38	C	1.227921	-0.022292	0.087029
C39	C	0.687854	-0.583922	-0.461567
C40	C	1.187854	-0.083922	0.038433
C41	C	0.614574	-0.579741	-0.458281
C42	C	1.114574	-0.079741	0.041719
C43	C	0.581362	-0.513935	-0.406393
C44	C	1.081362	-0.013935	0.093607
C45	C	0.621434	-0.452298	-0.357794
C46	C	1.121434	0.047702	0.142206
C47	C	0.694713	-0.456474	-0.361085
C48	C	1.194713	0.043526	0.138915
C49	C	0.362570	-0.494609	-0.391168
C50	C	0.862570	0.005391	0.108832
C51	C	0.289285	-0.490440	-0.387879
C52	C	0.789285	0.009560	0.112121
C53	C	0.282430	-0.617882	-0.488367
C54	C	0.782430	-0.117882	0.011633
C55	C	0.355711	-0.622057	-0.491650
C56	C	0.855711	-0.122057	0.008350
C57	C	0.395777	-0.560416	-0.443053
C58	C	0.895777	-0.060416	0.056947
N59	N	0.506458	-0.509663	-0.403031
N60	N	1.006458	-0.009663	0.096969
N61	N	0.470680	-0.564683	-0.446419
N62	N	0.970680	-0.064683	0.053581
C63	C	0.966039	-0.806022	-0.446777
C64	C	1.466039	-0.306022	0.053223
C65	C	0.956617	-0.921050	-0.456250
C66	C	1.456617	-0.421050	0.043750
C67	C	0.993170	-0.977182	-0.419787
C68	C	1.493170	-0.477182	0.080213
C69	C	0.983434	-1.096069	-0.429576
C70	C	1.483434	-0.596069	0.070424
C71	C	1.171229	-0.547611	-0.432957
C72	C	1.671229	-0.047611	0.067043
C73	C	1.249219	-0.552070	-0.436476
C74	C	1.749219	-0.052070	0.063524
C75	C	0.996494	-0.526657	-0.607712
C76	C	1.496494	-0.026657	-0.107712
C77	C	1.000022	-0.522187	-0.685701
C78	C	1.500022	-0.022187	-0.185701
C79	C	1.010496	-0.267224	-0.402548
C80	C	1.510496	0.232776	0.097452
C81	C	1.019992	-0.152198	-0.393109
C82	C	1.519992	0.347802	0.106891
C83	C	1.025321	-0.490199	-1.124337
C84	C	1.525321	0.009801	-0.624337
C85	C	1.022001	-0.494405	-1.051057
C86	C	1.522001	0.005595	-0.551057
C87	C	0.970002	-0.560118	-1.017826
C88	C	1.470002	-0.060118	-0.517826
C89	C	0.921324	-0.621637	-1.057880
C90	C	1.421324	-0.121637	-0.557880
C91	C	0.924648	-0.617437	-1.131158
C92	C	1.424648	-0.117437	-0.631158
C93	C	0.954668	-0.579506	-0.799033
C94	C	1.454668	-0.079506	-0.299033
C95	C	0.951347	-0.583700	-0.725749
C96	C	1.451347	-0.083700	-0.225749
C97	C	1.052024	-0.456468	-0.718932
C98	C	1.552024	0.043532	-0.218932
C99	C	1.055341	-0.452269	-0.792212
C100	C	1.555341	0.047731	-0.292212
C101	C	1.006665	-0.513792	-0.832259
C102	C	1.506665	-0.013792	-0.332259
N103	N	0.966606	-0.564415	-0.942923
N104	N	1.466606	-0.064415	-0.442923
N105	N	1.010065	-0.509500	-0.907161
N106	N	1.510065	-0.009500	-0.407161
C107	C	0.980014	-0.547525	-0.242391
C108	C	1.480014	-0.047525	0.257609
C109	C	0.976646	-0.551712	-0.164384
C110	C	1.476646	-0.051712	0.335616
H111	H	0.594388	-0.398713	-0.315549
H112	H	1.094388	0.101287	0.184451
O113	O	0.723680	-0.654886	-0.517537
O114	O	1.223680	-0.154886	-0.017537
H115	H	0.702372	-0.735976	-0.511461
H116	H	1.202372	-0.235976	-0.011461
O117	O	1.074500	-0.428055	-1.007863
O118	O	1.574500	0.071945	-0.507863
H119	H	1.104865	-0.478332	-0.979893
H120	H	1.604865	0.021668	-0.479893
O121	O	0.239207	-0.684417	-0.540745
O122	O	0.739207	-0.184417	-0.040745
H123	H	0.274610	-0.730904	-0.577362
H124	H	0.774610	-0.230904	-0.077362
H125	H	1.067660	-0.436682	-1.151387
H126	H	1.567660	0.063318	-0.651387
H127	H	1.097686	-0.398763	-0.819263
H128	H	1.597686	0.101237	-0.319263
H129	H	0.915032	-0.629601	-0.831631
H130	H	1.415032	-0.129601	-0.331631
H131	H	0.944931	-1.136025	-0.468046
H132	H	1.444931	-0.636025	0.031954
O133	O	0.905616	-0.973975	-0.507202
O134	O	1.405616	-0.473975	-0.007202
H135	H	0.880324	-0.914773	-0.532427
H136	H	1.380324	-0.414773	-0.032427
O137	O	1.104532	-0.390127	-0.675742
O138	O	1.604532	0.109873	-0.175742
H139	H	1.093493	-0.404093	-0.619205
H140	H	1.593493	0.095907	-0.119205
H141	H	0.727336	-0.406282	-0.321516
H142	H	1.227336	0.093718	0.178484
O143	O	1.044190	-0.924266	-0.368850
O144	O	1.544190	-0.424266	0.131150
H145	H	1.043836	-0.839191	-0.369159
H146	H	1.543836	-0.339191	0.130841
H147	H	1.058500	-1.112244	-0.354645
H148	H	1.558500	-0.612244	0.145355
H149	H	0.908987	-0.637190	-0.698692
H150	H	1.408987	-0.137190	-0.198692
H151	H	0.878989	-0.675147	-1.030818
H152	H	1.378989	-0.175147	-0.530818
H153	H	0.885012	-0.667528	-1.163764
H154	H	1.385012	-0.167528	-0.663764
H155	H	0.382746	-0.675645	-0.533901
H156	H	0.882746	-0.175645	-0.033901
H157	H	0.581955	-0.629928	-0.497852
H158	H	1.081955	-0.129928	0.002148
H159	H	0.262247	-0.436841	-0.345630
H160	H	0.762247	0.063159	0.154370
H161	H	0.395182	-0.444424	-0.351592
H162	H	0.895182	0.055576	0.148408
