data_functionalizedCrystal
_audit_creation_method	'MofGen! by Chris Wilmer'
_symmetry_space_group_name_H-M	'P1'
_symmetry_Int_Tables_number	1
_symmetry_cell_setting	triclinic
loop_
_symmetry_equiv_pos_as_xyz
  x,y,z
_cell_length_a	17.077404
_cell_length_b	10.686285
_cell_length_c	17.077396
_cell_angle_alpha	85.607459
_cell_angle_beta	89.982756
_cell_angle_gamma	85.631810
loop_
_atom_site_label
_atom_site_type_symbol
_atom_site_fract_x
_atom_site_fract_y
_atom_site_fract_z
Zn1	Zn	1.224097	-0.502329	-0.419935
Zn2	Zn	1.234117	-0.713352	-0.278626
Zn3	Zn	1.092837	-0.502376	-0.288681
Zn4	Zn	1.102901	-0.713274	-0.409853
O5	O	1.163488	-0.607833	-0.349274
O6	O	1.335274	-0.530335	-0.401201
O7	O	1.215357	-0.685418	-0.170110
O8	O	1.101844	-0.325795	-0.314519
O9	O	1.342636	-0.685373	-0.297382
O10	O	1.198280	-0.325760	-0.410951
O11	O	1.111559	-0.530415	-0.177498
O12	O	0.984324	-0.530340	-0.304743
O13	O	1.118997	-0.685240	-0.521040
O14	O	0.991718	-0.685286	-0.393768
O15	O	1.208039	-0.530259	-0.528447
O16	O	1.225116	-0.889918	-0.287606
O17	O	1.128712	-0.889860	-0.384018
C18	C	0.959539	-0.607810	-0.349253
C19	C	0.872290	-0.607831	-0.349262
C20	C	0.835177	-0.688633	-0.395530
C21	C	0.753196	-0.688636	-0.395543
C22	C	0.708331	-0.607842	-0.349282
C23	C	0.745450	-0.527031	-0.303011
C24	C	0.827429	-0.527023	-0.303003
C25	C	0.574582	-0.527056	-0.303029
C26	C	0.492597	-0.527065	-0.303035
C27	C	0.500349	-0.688669	-0.395568
C28	C	0.582328	-0.688660	-0.395561
C29	C	0.619441	-0.607851	-0.349289
C30	C	1.179115	-0.935673	-0.333644
C31	C	1.185872	-1.075924	-0.326984
C32	C	1.368234	-0.607857	-0.349295
C33	C	1.455484	-0.607867	-0.349304
C34	C	1.163523	-0.607735	-0.554023
C35	C	1.163538	-0.607694	-0.641275
C36	C	1.147822	-0.278713	-0.364982
C37	C	1.141145	-0.138462	-0.371675
C38	C	1.109505	-0.526974	-0.686111
C39	C	1.109516	-0.526945	-0.768093
C40	C	1.163565	-0.607631	-0.805237
C41	C	1.217600	-0.688360	-0.760394
C42	C	1.217585	-0.688394	-0.678414
C43	C	1.217631	-0.688281	-0.931268
C44	C	1.217647	-0.688245	-1.013255
C45	C	1.109562	-0.526832	-1.020948
C46	C	1.109546	-0.526866	-0.938967
C47	C	1.163583	-0.607594	-0.894130
C48	C	1.163494	-0.607839	-0.145326
C49	C	1.163615	-0.607526	-0.058091
H50	H	0.871701	-0.754429	-0.433199
C51	C	1.277020	-0.777186	-0.629093
H52	H	1.309217	-0.825228	-0.662955
H53	H	1.249601	-0.832172	-0.594486
H54	H	1.308923	-0.728931	-0.599420
H55	H	1.229331	-1.129686	-0.283617
C56	C	0.712378	-0.777595	-0.446387
H57	H	0.750841	-0.825745	-0.473914
H58	H	0.678094	-0.729473	-0.482954
H59	H	0.683028	-0.832493	-0.413640
C60	C	0.459528	-0.777550	-0.446471
H61	H	0.404278	-0.765975	-0.439859
H62	H	0.476998	-0.862306	-0.430854
H63	H	0.472112	-0.759183	-0.500108
C64	C	0.443247	-0.438182	-0.252157
H65	H	0.477089	-0.390039	-0.224608
H66	H	0.413549	-0.486376	-0.215609
H67	H	0.408662	-0.383273	-0.284876
H68	H	1.065539	-0.461159	-0.908727
H69	H	0.618855	-0.754457	-0.433226
C70	C	1.050101	-0.438073	-1.070263
H71	H	1.057837	-0.449627	-1.124406
H72	H	1.057532	-0.353288	-1.060890
H73	H	0.998241	-0.456575	-1.055925
C74	C	1.082438	-1.065850	-0.430256
H75	H	1.085452	-0.977950	-0.427207
H76	H	1.030731	-1.087466	-0.417708
H77	H	1.094922	-1.087320	-0.482003
C78	C	1.050045	-0.438229	-0.645259
H79	H	1.017860	-0.390163	-0.683707
H80	H	1.077441	-0.383262	-0.615903
H81	H	1.018133	-0.486525	-0.610975
C82	C	1.277104	-0.776989	-1.054112
H83	H	1.309279	-0.825080	-1.015669
H84	H	1.309013	-0.728701	-1.088396
H85	H	1.249698	-0.831952	-1.083470
C86	C	0.615405	-0.438162	-0.252134
H87	H	0.576945	-0.390052	-0.224578
H88	H	0.644777	-0.383242	-0.284834
H89	H	0.649669	-0.486364	-0.215578
C90	C	0.868254	-0.438139	-0.252109
H91	H	0.829795	-0.390027	-0.224554
H92	H	0.897625	-0.383220	-0.284811
H93	H	0.902520	-0.486336	-0.215552
H94	H	1.065515	-0.461220	-0.804596
C95	C	1.277068	-0.777081	-0.881949
H96	H	1.309265	-0.825122	-0.915811
H97	H	1.249652	-0.832069	-0.847340
H98	H	1.308970	-0.728823	-0.852277
H99	H	0.708915	-0.461242	-0.265348
H100	H	1.261604	-0.754062	-0.790643
