data_functionalizedCrystal
_audit_creation_method	'MofGen! by Chris Wilmer'
_symmetry_space_group_name_H-M	'P1'
_symmetry_Int_Tables_number	1
_symmetry_cell_setting	triclinic
loop_
_symmetry_equiv_pos_as_xyz
  x,y,z
_cell_length_a	13.897449
_cell_length_b	18.101395
_cell_length_c	13.897441
_cell_angle_alpha	90.030698
_cell_angle_beta	90.020733
_cell_angle_gamma	90.032384
loop_
_atom_site_label
_atom_site_type_symbol
_atom_site_fract_x
_atom_site_fract_y
_atom_site_fract_z
Zn1	Zn	1.474613	-0.294781	0.545380
Zn2	Zn	1.974613	0.205219	1.045380
Zn3	Zn	1.474469	-0.418636	0.384082
Zn4	Zn	1.974469	0.081364	0.884082
Zn5	Zn	1.313302	-0.294816	0.384099
Zn6	Zn	1.813302	0.205184	0.884099
Zn7	Zn	1.313246	-0.418588	0.545334
Zn8	Zn	1.813246	0.081412	1.045334
O9	O	1.393907	-0.356705	0.464724
O10	O	1.893907	0.143295	0.964724
O11	O	1.609575	-0.311216	0.523996
O12	O	2.109575	0.188784	1.023996
O13	O	1.453053	-0.402246	0.249102
O14	O	1.953053	0.097754	0.749102
O15	O	1.334784	-0.191178	0.405520
O16	O	1.834784	0.308822	0.905520
O17	O	1.609470	-0.402212	0.405490
O18	O	2.109470	0.097788	0.905490
O19	O	1.453298	-0.191152	0.524013
O20	O	1.953298	0.308848	1.024013
O21	O	1.334644	-0.311276	0.249115
O22	O	1.834644	0.188724	0.749115
O23	O	1.178313	-0.311229	0.405475
O24	O	1.678313	0.188771	0.905475
O25	O	1.334688	-0.402129	0.680322
O26	O	1.834688	0.097871	1.180322
O27	O	1.178272	-0.402164	0.523934
O28	O	1.678272	0.097836	1.023934
O29	O	1.453244	-0.311169	0.680356
O30	O	1.953244	0.188831	1.180356
O31	O	1.452999	-0.522263	0.405445
O32	O	1.952999	-0.022263	0.905445
O33	O	1.334549	-0.522227	0.523917
O34	O	1.834549	-0.022227	1.023917
C35	C	1.143293	-0.356695	0.464702
C36	C	1.643293	0.143305	0.964702
C37	C	1.036079	-0.356709	0.464715
C38	C	1.536079	0.143291	0.964715
C39	C	1.393778	-0.549116	0.464695
C40	C	1.893778	-0.049116	0.964695
C41	C	1.393811	-0.631430	0.464716
C42	C	1.893811	-0.131430	0.964716
C43	C	0.839784	-0.356712	0.464741
C44	C	1.339784	0.143288	0.964741
C45	C	0.949016	-0.356708	0.464724
C46	C	1.449016	0.143292	0.964724
C47	C	1.394023	-0.930521	0.464767
C48	C	1.894023	-0.430521	0.964767
C49	C	1.319670	-0.899204	0.539492
C50	C	1.819670	-0.399204	1.039492
C51	C	1.319317	-0.813586	0.539258
C52	C	1.819317	-0.313586	1.039258
C53	C	1.393918	-0.782138	0.464743
C54	C	1.893918	-0.282138	0.964743
C55	C	1.366392	-0.813295	0.363084
C56	C	1.866392	-0.313295	0.863084
C57	C	1.365913	-0.898940	0.363531
C58	C	1.865913	-0.398940	0.863531
C59	C	1.496064	-0.898862	0.490807
C60	C	1.996064	-0.398862	0.990807
C61	C	1.495464	-0.813210	0.493037
C62	C	1.995464	-0.313210	0.993037
C63	C	1.393860	-0.698279	0.464722
C64	C	1.893860	-0.198279	0.964722
C65	C	1.394078	-1.014380	0.464781
C66	C	1.894078	-0.514380	0.964781
C67	C	1.645500	-0.356716	0.464746
C68	C	2.145500	0.143284	0.964746
C69	C	1.752714	-0.356720	0.464756
C70	C	2.252714	0.143280	0.964756
C71	C	1.393976	-0.356640	0.716317
C72	C	1.893976	0.143360	1.216317
C73	C	1.394005	-0.356612	0.823531
C74	C	1.894005	0.143388	1.323531
C75	C	1.394063	-0.163543	0.464773
C76	C	1.894063	0.336457	0.964773
C77	C	1.394130	-0.081229	0.464795
C78	C	1.894130	0.418771	0.964795
C79	C	1.393895	-0.356717	0.214109
C80	C	1.893895	0.143283	0.714109
C81	C	1.394052	-0.356536	0.106896
C82	C	1.894052	0.143464	0.606896
C83	C	1.394031	-0.356562	1.019826
C84	C	1.894031	0.143438	1.519826
C85	C	1.394014	-0.356592	0.910594
C86	C	1.894014	0.143408	1.410594
H87	H	1.336539	-0.792518	0.614637
H88	H	1.836539	-0.292518	1.114637
H89	H	1.516221	-0.792844	0.567852
H90	H	2.016221	-0.292844	1.067852
H91	H	1.291321	-0.918985	0.341472
H92	H	1.791321	-0.418985	0.841472
C93	C	1.437237	-0.785779	0.285812
C94	C	1.937237	-0.285779	0.785812
H95	H	1.419266	-0.805274	0.224915
H96	H	1.919266	-0.305274	0.724915
H97	H	1.435714	-0.733348	0.283413
H98	H	1.935714	-0.233348	0.783413
H99	H	1.500441	-0.801754	0.301430
H100	H	2.000441	-0.301754	0.801430
C101	C	1.574267	-0.784291	0.424877
C102	C	2.074267	-0.284291	0.924877
H103	H	1.634798	-0.803938	0.443664
H104	H	2.134798	-0.303938	0.943664
H105	H	1.560171	-0.799199	0.360856
H106	H	2.060171	-0.299199	0.860856
H107	H	1.576457	-0.731891	0.428072
H108	H	2.076457	-0.231891	0.928072
C109	C	1.435888	-0.926938	0.285755
C110	C	1.935888	-0.426938	0.785755
H111	H	1.436074	-0.979421	0.285506
H112	H	1.936074	-0.479421	0.785506
H113	H	1.415892	-0.909346	0.224549
H114	H	1.915892	-0.409346	0.724549
H115	H	1.498874	-0.909324	0.299239
H116	H	1.998874	-0.409324	0.799239
C117	C	1.266687	-0.784423	0.332753
C118	C	1.766687	-0.284423	0.832753
H119	H	1.241702	-0.753390	0.381897
H120	H	1.741702	-0.253390	0.881897
H121	H	1.272454	-0.757092	0.274706
H122	H	1.772454	-0.257092	0.774706
H123	H	1.224384	-0.824982	0.322963
H124	H	1.724384	-0.324982	0.822963
H125	H	1.551460	-0.919113	0.436383
H126	H	2.051460	-0.419113	0.936383
H127	H	1.336722	-0.919748	0.615115
H128	H	1.836722	-0.419748	1.115115
H129	H	1.243682	-0.793165	0.522009
H130	H	1.743682	-0.293165	1.022009
C131	C	1.218112	-0.928358	0.516483
C132	C	1.718112	-0.428358	1.016483
H133	H	1.220826	-0.959530	0.461534
H134	H	1.720826	-0.459530	0.961534
H135	H	1.194416	-0.955600	0.569865
H136	H	1.694416	-0.455600	1.069865
H137	H	1.176442	-0.887924	0.503834
H138	H	1.676442	-0.387924	1.003834
H139	H	1.521159	-0.920406	0.563673
H140	H	2.021159	-0.420406	1.063673
