data_functionalizedCrystal
_audit_creation_method	'MofGen! by Chris Wilmer'
_symmetry_space_group_name_H-M	'P1'
_symmetry_Int_Tables_number	1
_symmetry_cell_setting	triclinic
loop_
_symmetry_equiv_pos_as_xyz
  x,y,z
_cell_length_a	18.215407
_cell_length_b	18.050589
_cell_length_c	18.215399
_cell_angle_alpha	89.976397
_cell_angle_beta	89.980167
_cell_angle_gamma	90.028669
loop_
_atom_site_label
_atom_site_type_symbol
_atom_site_fract_x
_atom_site_fract_y
_atom_site_fract_z
Zn1	Zn	1.125055	-0.295658	-0.416138
Zn2	Zn	1.124956	-0.419853	-0.293081
Zn3	Zn	1.001987	-0.295682	-0.293085
Zn4	Zn	1.001946	-0.419812	-0.416106
O5	O	1.063486	-0.357751	-0.354603
O6	O	1.228026	-0.312140	-0.399826
O7	O	1.108620	-0.403409	-0.190097
O8	O	1.018371	-0.191755	-0.309424
O9	O	1.227953	-0.403386	-0.309417
O10	O	1.108788	-0.191737	-0.399830
O11	O	1.018275	-0.312181	-0.190101
O12	O	0.898998	-0.312141	-0.309393
O13	O	1.018301	-0.403315	-0.519095
O14	O	0.898967	-0.403339	-0.399775
O15	O	1.108748	-0.312100	-0.519118
O16	O	1.108580	-0.523772	-0.309385
O17	O	1.018205	-0.523742	-0.399771
C18	C	0.872280	-0.357739	-0.354582
C19	C	0.790481	-0.357751	-0.354590
C20	C	0.602291	-0.405312	-0.401593
C21	C	0.525432	-0.405315	-0.401602
C22	C	0.525434	-0.310204	-0.307628
C23	C	0.602291	-0.310199	-0.307623
C24	C	0.640718	-0.357757	-0.354605
C25	C	0.487001	-0.357765	-0.354619
C26	C	0.403668	-0.357767	-0.354628
C27	C	0.724056	-0.357754	-0.354596
C28	C	1.063397	-0.550704	-0.354590
C29	C	1.063427	-0.633249	-0.354610
C30	C	1.014329	-0.832710	-0.403744
C31	C	0.996389	-0.882151	-0.336590
C32	C	1.063499	-0.784380	-0.354619
C33	C	1.081475	-0.882021	-0.421781
C34	C	1.063567	-0.930365	-0.354635
C35	C	1.045524	-0.832733	-0.287430
C36	C	1.130641	-0.832599	-0.372666
C37	C	1.112726	-0.882017	-0.305466
C38	C	1.063458	-0.700281	-0.354612
C39	C	1.063609	-1.014461	-0.354635
C40	C	1.255439	-0.357765	-0.354624
C41	C	1.337238	-0.357770	-0.354634
C42	C	1.063531	-0.357700	-0.546556
C43	C	1.063550	-0.357678	-0.628355
C44	C	1.063595	-0.164046	-0.354631
C45	C	1.063642	-0.081500	-0.354643
C46	C	1.110663	-0.310138	-0.816562
C47	C	1.110672	-0.310117	-0.893421
C48	C	1.016489	-0.405104	-0.893385
C49	C	1.016477	-0.405121	-0.816528
C50	C	1.063568	-0.357639	-0.778118
C51	C	1.063589	-0.357600	-0.931834
C52	C	1.063598	-0.357577	-1.015168
C53	C	1.063558	-0.357661	-0.694779
C54	C	1.063484	-0.357749	-0.163396
C55	C	1.063607	-0.357561	-0.081598
H56	H	0.972687	-0.811060	-0.445229
C57	C	1.024930	-0.803617	-0.210683
C58	C	1.072662	-0.823705	-0.143823
C59	C	1.052067	-0.794589	-0.067078
C60	C	0.983739	-0.745385	-0.057194
C61	C	0.936003	-0.725295	-0.124057
C62	C	0.956598	-0.754411	-0.200802
H63	H	1.123247	-0.860131	-0.151138
H64	H	1.087405	-0.809462	-0.017582
H65	H	0.968493	-0.723832	-0.000384
H66	H	0.885419	-0.688869	-0.116742
H67	H	0.921260	-0.739538	-0.250298
H68	H	1.154337	-0.903530	-0.263881
C69	C	0.483163	-0.457630	-0.453288
C70	C	0.430285	-0.515896	-0.421307
C71	C	0.388016	-0.568213	-0.472996
C72	C	0.398626	-0.562264	-0.556666
C73	C	0.451507	-0.503995	-0.588652
C74	C	0.493775	-0.451678	-0.536963
H75	H	0.422428	-0.520303	-0.359365
H76	H	0.348871	-0.611348	-0.449317
H77	H	0.367337	-0.600992	-0.594930
H78	H	0.459363	-0.499589	-0.650594
H79	H	0.532921	-0.408543	-0.560642
C80	C	0.644567	-0.257888	-0.255929
C81	C	0.602303	-0.205584	-0.204242
C82	C	0.644579	-0.153276	-0.152551
C83	C	0.729119	-0.153271	-0.152547
C84	C	0.771388	-0.205576	-0.204235
C85	C	0.729112	-0.257885	-0.255926
H86	H	0.539717	-0.205587	-0.204243
H87	H	0.613288	-0.114556	-0.114287
H88	H	0.760414	-0.114549	-0.114282
H89	H	0.833974	-0.205574	-0.204234
H90	H	0.760402	-0.296605	-0.294190
C91	C	0.919726	-0.911560	-0.315970
C92	C	0.852893	-0.892128	-0.363999
C93	C	0.776229	-0.921535	-0.343385
C94	C	0.766398	-0.970373	-0.274743
C95	C	0.833234	-0.989808	-0.226709
C96	C	0.909898	-0.960401	-0.247323
H97	H	0.860168	-0.855973	-0.414817
H98	H	0.726753	-0.907148	-0.378943
H99	H	0.709647	-0.992142	-0.259483
H100	H	0.825958	-1.025963	-0.175892
H101	H	0.959374	-0.974788	-0.211765
H102	H	1.187375	-0.810819	-0.387948
C103	C	0.483160	-0.257895	-0.255950
C104	C	0.493762	-0.173476	-0.262100
C105	C	0.451488	-0.121166	-0.210422
C106	C	0.398612	-0.153275	-0.152594
C107	C	0.388007	-0.237698	-0.146442
C108	C	0.430281	-0.290008	-0.198120
H109	H	0.532906	-0.149703	-0.304910
H110	H	0.459338	-0.058670	-0.214976
H111	H	0.367318	-0.114552	-0.114338
H112	H	0.348863	-0.261471	-0.103632
H113	H	0.422431	-0.352504	-0.193566
H114	H	1.096652	-0.903671	-0.478573
H115	H	1.149006	-0.271474	-0.785291
C116	C	1.162478	-0.257865	-0.935709
C117	C	1.214272	-0.205639	-0.893457
C118	C	1.266079	-0.153384	-0.935745
C119	C	1.266092	-0.153355	-1.020285
C120	C	1.214296	-0.205584	-1.062542
C121	C	1.162489	-0.257839	-1.020254
H122	H	1.214264	-0.205658	-0.830871
H123	H	1.304422	-0.114720	-0.904463
H124	H	1.304443	-0.114673	-1.051589
H125	H	1.214304	-0.205565	-1.125128
H126	H	1.124146	-0.296502	-1.051536
H127	H	0.978122	-0.443802	-0.785226
C128	C	0.644560	-0.457619	-0.453277
C129	C	0.602288	-0.509926	-0.504966
C130	C	0.644555	-0.562233	-0.556653
C131	C	0.729095	-0.562232	-0.556651
C132	C	0.771373	-0.509924	-0.504959
C133	C	0.729105	-0.457617	-0.453272
H134	H	0.539702	-0.509928	-0.504970
H135	H	0.613258	-0.600955	-0.594919
H136	H	0.760384	-0.600953	-0.594912
H137	H	0.833958	-0.509922	-0.504955
H138	H	0.760402	-0.418895	-0.415007
C139	C	0.964697	-0.457337	-0.935637
C140	C	0.964710	-0.457325	-1.020178
C141	C	0.912918	-0.509561	-1.062428
C142	C	0.861113	-0.561811	-1.020138
C143	C	0.861098	-0.561826	-0.935593
C144	C	0.912890	-0.509589	-0.893343
H145	H	1.003061	-0.418645	-1.051487
H146	H	0.912930	-0.509550	-1.125014
H147	H	0.822774	-0.600480	-1.051415
H148	H	0.822747	-0.600506	-0.904284
H149	H	0.912878	-0.509600	-0.830757
