data_functionalizedCrystal
_audit_creation_method	'MofGen! by Chris Wilmer'
_symmetry_space_group_name_H-M	'P1'
_symmetry_Int_Tables_number	1
_symmetry_cell_setting	triclinic
loop_
_symmetry_equiv_pos_as_xyz
  x,y,z
_cell_length_a	18.215407
_cell_length_b	18.101397
_cell_length_c	18.215398
_cell_angle_alpha	89.971892
_cell_angle_beta	89.983001
_cell_angle_gamma	90.017909
loop_
_atom_site_label
_atom_site_type_symbol
_atom_site_fract_x
_atom_site_fract_y
_atom_site_fract_z
Zn1	Zn	1.125092	-0.294906	-0.416054
Zn2	Zn	1.625092	0.205094	0.083946
Zn3	Zn	1.125011	-0.418747	-0.292982
Zn4	Zn	1.625011	0.081253	0.207018
Zn5	Zn	1.002025	-0.294918	-0.293006
Zn6	Zn	1.502025	0.205082	0.206994
Zn7	Zn	1.002000	-0.418705	-0.416012
Zn8	Zn	1.502000	0.081295	0.083988
O9	O	1.063532	-0.356819	-0.354513
O10	O	1.563532	0.143181	0.145487
O11	O	1.228065	-0.311346	-0.399735
O12	O	1.728065	0.188654	0.100265
O13	O	1.108673	-0.402344	-0.190001
O14	O	1.608673	0.097656	0.309999
O15	O	1.018395	-0.191284	-0.309357
O16	O	1.518395	0.308716	0.190643
O17	O	1.228006	-0.402332	-0.309315
O18	O	1.728006	0.097668	0.190685
O19	O	1.108811	-0.191275	-0.399759
O20	O	1.608811	0.308725	0.100241
O21	O	1.018316	-0.311367	-0.190019
O22	O	1.518316	0.188633	0.309981
O23	O	0.899038	-0.311326	-0.309316
O24	O	1.399038	0.188674	0.190684
O25	O	1.018352	-0.402260	-0.519002
O26	O	1.518352	0.097740	-0.019002
O27	O	0.899019	-0.402272	-0.399688
O28	O	1.399019	0.097728	0.100312
O29	O	1.108787	-0.311306	-0.519032
O30	O	1.608787	0.188694	-0.019032
O31	O	1.108648	-0.522374	-0.309274
O32	O	1.608648	-0.022374	0.190726
O33	O	1.018273	-0.522343	-0.399664
O34	O	1.518273	-0.022343	0.100336
C35	C	0.872326	-0.356796	-0.354501
C36	C	1.372326	0.143204	0.145499
C37	C	0.790527	-0.356804	-0.354512
C38	C	1.290527	0.143196	0.145488
C39	C	0.602363	-0.309526	-0.401669
C40	C	1.102363	0.190474	0.098331
C41	C	0.525504	-0.309532	-0.401671
C42	C	1.025504	0.190468	0.098329
C43	C	0.525453	-0.404133	-0.307371
C44	C	1.025453	0.095867	0.192629
C45	C	0.602310	-0.404123	-0.307365
C46	C	1.102310	0.095877	0.192635
C47	C	0.640763	-0.356820	-0.354518
C48	C	1.140763	0.143180	0.145482
C49	C	0.487047	-0.356837	-0.354527
C50	C	0.987047	0.143163	0.145473
C51	C	0.403713	-0.356844	-0.354529
C52	C	0.903713	0.143156	0.145471
C53	C	0.724102	-0.356812	-0.354515
C54	C	1.224102	0.143188	0.145485
C55	C	1.063469	-0.549230	-0.354478
C56	C	1.563469	-0.049230	0.145522
C57	C	1.063509	-0.631544	-0.354487
C58	C	1.563509	-0.131544	0.145513
C59	C	1.063603	-0.930635	-0.354554
C60	C	1.563603	-0.430635	0.145446
C61	C	1.120306	-0.899298	-0.297531
C62	C	1.620306	-0.399298	0.202469
C63	C	1.120503	-0.813680	-0.297679
C64	C	1.620503	-0.313680	0.202321
C65	C	1.063557	-0.782252	-0.354520
C66	C	1.563557	-0.282252	0.145480
C67	C	1.084581	-0.813264	-0.432092
C68	C	1.584581	-0.313264	0.067908
C69	C	1.085019	-0.898909	-0.431781
C70	C	1.585019	-0.398909	0.068219
C71	C	0.985725	-0.899139	-0.334677
C72	C	1.485725	-0.399139	0.165323
C73	C	0.986109	-0.813490	-0.332946
C74	C	1.486109	-0.313490	0.167054
C75	C	1.063529	-0.698393	-0.354506
C76	C	1.563529	-0.198393	0.145494
C77	C	1.063633	-1.014494	-0.354574
C78	C	1.563633	-0.514494	0.145426
C79	C	1.255485	-0.356843	-0.354527
C80	C	1.755485	0.143157	0.145473
C81	C	1.337284	-0.356853	-0.354532
C82	C	1.837284	0.143147	0.145468
C83	C	1.063575	-0.356777	-0.546466
C84	C	1.563575	0.143223	-0.046466
C85	C	1.063594	-0.356758	-0.628265
C86	C	1.563594	0.143242	-0.128265
C87	C	1.063615	-0.163657	-0.354565
C88	C	1.563615	0.336343	0.145435
C89	C	1.063651	-0.081343	-0.354587
C90	C	1.563651	0.418657	0.145413
C91	C	1.110676	-0.404038	-0.893318
C92	C	1.610676	0.095962	-0.393318
C93	C	1.110665	-0.404064	-0.816459
C94	C	1.610665	0.095936	-0.316459
C95	C	1.016567	-0.309336	-0.816461
C96	C	1.516567	0.190664	-0.316461
C97	C	1.016575	-0.309314	-0.893319
C98	C	1.516575	0.190686	-0.393319
C99	C	1.063634	-0.356664	-0.931745
C100	C	1.563634	0.143336	-0.431745
C101	C	1.063615	-0.356712	-0.778029
C102	C	1.563615	0.143288	-0.278029
C103	C	1.063602	-0.356739	-0.694695
C104	C	1.563602	0.143261	-0.194695
C105	C	1.063646	-0.356638	-1.015084
C106	C	1.563646	0.143362	-0.515084
C107	C	1.063531	-0.356808	-0.163307
C108	C	1.563531	0.143192	0.336693
C109	C	1.063655	-0.356618	-0.081509
C110	C	1.563655	0.143382	0.418491
H111	H	0.494135	-0.442646	-0.268981
H112	H	0.994135	0.057354	0.231019
H113	H	0.978255	-0.270784	-0.785165
H114	H	1.478255	0.229216	-0.285165
Cl115	Cl	0.477233	-0.250073	-0.460948
Cl116	Cl	0.977233	0.249927	0.039052
H117	H	0.633577	-0.442636	-0.268966
H118	H	1.133577	0.057364	0.231034
H119	H	1.148994	-0.442595	-0.924602
H120	H	1.648994	0.057405	-0.424602
Cl121	Cl	1.169806	-0.463624	-0.768154
Cl122	Cl	1.669806	0.036376	-0.268154
H123	H	0.633669	-0.271007	-0.440062
H124	H	1.133669	0.228993	0.059938
Cl125	Cl	0.961627	-0.782203	-0.244812
Cl126	Cl	1.461627	-0.282203	0.255188
H127	H	1.107350	-0.792715	-0.240161
H128	H	1.607350	-0.292715	0.259839
Cl129	Cl	0.957420	-0.249765	-0.941631
Cl130	Cl	1.457420	0.250235	-0.441631
H131	H	1.107312	-0.919938	-0.239841
H132	H	1.607312	-0.419938	0.260159
Cl133	Cl	1.171486	-0.780067	-0.458529
Cl134	Cl	1.671486	-0.280067	0.041471
H135	H	1.177679	-0.920769	-0.310531
H136	H	1.677679	-0.420769	0.189469
H137	H	0.966599	-0.920797	-0.279094
H138	H	1.466599	-0.420797	0.220906
H139	H	1.141945	-0.918831	-0.448618
H140	H	1.641945	-0.418831	0.051382
Cl141	Cl	1.209568	-0.781961	-0.317988
Cl142	Cl	1.709568	-0.281961	0.182012
H143	H	1.045528	-0.919636	-0.475732
H144	H	1.545528	-0.419636	0.024268
H145	H	1.044543	-0.792905	-0.475721
H146	H	1.544543	-0.292905	0.024279
Cl147	Cl	0.917369	-0.780475	-0.392374
Cl148	Cl	1.417369	-0.280475	0.107626
Cl149	Cl	0.920496	-0.930430	-0.398797
Cl150	Cl	1.420496	-0.430430	0.101203
