data_functionalizedCrystal
_audit_creation_method	'MofGen! by Chris Wilmer'
_symmetry_space_group_name_H-M	'P1'
_symmetry_Int_Tables_number	1
_symmetry_cell_setting	triclinic
loop_
_symmetry_equiv_pos_as_xyz
  x,y,z
_cell_length_a	19.288864
_cell_length_b	19.288855
_cell_length_c	17.766277
_cell_angle_alpha	90.008954
_cell_angle_beta	89.976791
_cell_angle_gamma	96.865756
loop_
_atom_site_label
_atom_site_type_symbol
_atom_site_fract_x
_atom_site_fract_y
_atom_site_fract_z
O1	O	0.921350	-0.086649	-0.062840
O2	O	1.254683	0.246684	0.270494
O3	O	1.588017	0.580018	0.603827
O4	O	0.719089	-0.098338	-0.062789
O5	O	1.052422	0.234995	0.270544
O6	O	1.385756	0.568329	0.603878
O7	O	0.826067	0.008637	-0.062806
O8	O	1.159401	0.341971	0.270527
O9	O	1.492734	0.675304	0.603861
O10	O	0.814372	-0.193624	-0.062823
O11	O	1.147705	0.139709	0.270511
O12	O	1.481038	0.473042	0.603844
O13	O	0.826049	0.008643	0.062383
O14	O	1.159382	0.341976	0.395716
O15	O	1.492715	0.675309	0.729049
O16	O	0.719070	-0.098333	0.062400
O17	O	1.052404	0.235001	0.395733
O18	O	1.385737	0.568334	0.729066
O19	O	0.921331	-0.086644	0.062349
O20	O	1.254665	0.246690	0.395682
O21	O	1.587998	0.580023	0.729015
Cu22	Cu	0.820199	-0.092488	0.073805
Cu23	Cu	1.153532	0.240846	0.407138
Cu24	Cu	1.486866	0.574179	0.740472
Cu25	Cu	0.820221	-0.092494	-0.074245
Cu26	Cu	1.153555	0.240839	0.259088
Cu27	Cu	1.486888	0.574173	0.592422
O28	O	0.814353	-0.193619	0.062366
O29	O	1.147686	0.139714	0.395699
O30	O	1.481020	0.473048	0.729032
C31	C	0.693203	-0.097959	-0.000188
C32	C	1.026536	0.235374	0.333145
C33	C	1.359870	0.568708	0.666479
C34	C	0.616100	-0.096830	-0.000168
C35	C	0.949433	0.236503	0.333165
C36	C	1.282766	0.569837	0.666498
C37	C	0.825683	0.034517	-0.000211
C38	C	1.159016	0.367850	0.333123
C39	C	1.492350	0.701183	0.666456
C40	C	0.824557	0.111620	-0.000208
C41	C	1.157890	0.444954	0.333126
C42	C	1.491223	0.778287	0.666459
C43	C	0.571401	-0.159598	-0.000185
C44	C	0.904734	0.173735	0.333148
C45	C	1.238068	0.507068	0.666481
C46	C	0.498954	-0.158538	-0.000193
C47	C	0.832287	0.174796	0.333140
C48	C	1.165621	0.508129	0.666473
C49	C	0.471209	-0.094705	-0.000200
C50	C	0.804542	0.238628	0.333134
C51	C	1.137875	0.571962	0.666467
C52	C	0.515917	-0.031929	-0.000178
C53	C	0.849250	0.301405	0.333155
C54	C	1.182584	0.634738	0.666488
C55	C	0.588363	-0.032991	-0.000163
C56	C	0.921696	0.300342	0.333171
C57	C	1.255029	0.633675	0.666504
C58	C	0.362955	-0.044528	-0.044080
C59	C	0.696288	0.288806	0.289253
C60	C	1.029622	0.622139	0.622587
C61	C	0.290511	-0.043468	-0.044100
C62	C	0.623844	0.289865	0.289233
C63	C	0.957177	0.623199	0.622566
C64	C	0.247763	-0.091426	-0.000245
C65	C	0.581097	0.241908	0.333088
C66	C	0.914430	0.575241	0.666422
C67	C	0.277468	-0.140455	0.043621
C68	C	0.610801	0.192878	0.376954
C69	C	0.944134	0.526212	0.710288
C70	C	0.349913	-0.141517	0.043637
C71	C	0.683247	0.191816	0.376970
C72	C	1.016580	0.525149	0.710303
C73	C	0.392655	-0.093546	-0.000216
C74	C	0.725988	0.239787	0.333117
C75	C	1.059321	0.573121	0.666450
C76	C	0.124509	-0.153048	-0.000270
C77	C	0.457842	0.180285	0.333063
C78	C	0.791176	0.513619	0.666397
C79	C	0.052061	-0.151985	-0.000274
C80	C	0.385394	0.181349	0.333060
C81	C	0.718728	0.514682	0.666393
C82	C	0.069026	-0.025374	-0.000266
C83	C	0.402359	0.307959	0.333067
C84	C	0.735692	0.641293	0.666401
C85	C	0.141472	-0.026439	-0.000255
C86	C	0.474805	0.306894	0.333078
C87	C	0.808139	0.640228	0.666412
C88	C	0.169209	-0.090278	-0.000260
C89	C	0.502542	0.243055	0.333073
C90	C	0.835876	0.576389	0.666406
C91	C	0.947217	-0.087023	-0.000254
C92	C	1.280550	0.246311	0.333079
C93	C	1.613884	0.579644	0.666413
C94	C	1.024321	-0.088152	-0.000279
C95	C	1.357654	0.245182	0.333055
C96	C	1.690987	0.578515	0.666388
C97	C	0.824041	0.147828	-0.068448
C98	C	1.157375	0.481161	0.264886
C99	C	1.490708	0.814495	0.598219
C100	C	0.822973	0.220274	-0.068452
C101	C	1.156306	0.553608	0.264881
C102	C	1.489640	0.886941	0.598214
C103	C	0.822434	0.256512	-0.000213
C104	C	1.155768	0.589845	0.333120
C105	C	1.489101	0.923178	0.666453
C106	C	0.822946	0.220295	0.068036
C107	C	1.156279	0.553628	0.401369
C108	C	1.489613	0.886961	0.734702
C109	C	0.824007	0.147849	0.068039
C110	C	1.157340	0.481182	0.401372
C111	C	1.490674	0.814516	0.734705
C112	C	0.861429	0.376746	0.052053
C113	C	1.194762	0.710079	0.385386
C114	C	1.528096	1.043412	0.718720
C115	C	0.860372	0.449190	0.052047
C116	C	1.193706	0.782524	0.385381
C117	C	1.527039	1.115857	0.718714
C118	C	0.819158	0.479958	-0.000219
C119	C	1.152492	0.813291	0.333114
C120	C	1.485825	1.146624	0.666448
C121	C	0.779010	0.438273	-0.052492
C122	C	1.112344	0.771606	0.280841
C123	C	1.445677	1.104939	0.614174
C124	C	0.780071	0.365827	-0.052490
C125	C	1.113405	0.699160	0.280844
C126	C	1.446738	1.032494	0.614177
C127	C	0.821283	0.335067	-0.000209
C128	C	1.154617	0.668400	0.333125
C129	C	1.487950	1.001733	0.666458
C130	C	0.817484	0.594720	-0.068469
C131	C	1.150817	0.928053	0.264864
C132	C	1.484150	1.261386	0.598198
C133	C	0.816411	0.667167	-0.068471
C134	C	1.149744	1.000500	0.264863
C135	C	1.483078	1.333833	0.598196
C136	C	0.816391	0.667187	0.068019
C137	C	1.149724	1.000520	0.401353
C138	C	1.483058	1.333853	0.734686
C139	C	0.817456	0.594740	0.068019
C140	C	1.150790	0.928074	0.401352
C141	C	1.484123	1.261407	0.734686
C142	C	0.818006	0.558512	-0.000227
C143	C	1.151339	0.891845	0.333106
C144	C	1.484673	1.225178	0.666440
C145	C	0.814739	0.780502	-0.000229
C146	C	1.148073	1.113835	0.333104
C147	C	1.481406	1.447169	0.666438
C148	C	0.815871	0.703399	-0.000231
C149	C	1.149205	1.036732	0.333102
C150	C	1.482538	1.370066	0.666436
N151	N	0.820189	-0.092483	0.177935
N152	N	1.153522	0.240851	0.511269
N153	N	1.486855	0.574184	0.844602
N154	N	0.820237	-0.092493	-0.178375
N155	N	1.153571	0.240840	0.154958
N156	N	1.486904	0.574173	0.488291
C157	C	0.867574	-0.045137	0.217315
C158	C	1.200907	0.288196	0.550648
C159	C	1.534241	0.621529	0.883981
C160	C	0.867578	-0.045134	0.296116
C161	C	1.200911	0.288199	0.629450
C162	C	1.534245	0.621533	0.962783
C163	C	0.820203	-0.092488	0.335536
C164	C	1.153537	0.240845	0.668869
C165	C	1.486870	0.574178	1.002202
C166	C	0.772809	-0.139837	0.296147
C167	C	1.106142	0.193496	0.629480
C168	C	1.439476	0.526829	0.962814
C169	C	0.772802	-0.139835	0.217347
C170	C	1.106135	0.193499	0.550680
C171	C	1.439468	0.526832	0.884013
C172	C	0.810902	-0.155776	0.460370
C173	C	1.144236	0.177557	0.793703
C174	C	1.477569	0.510890	1.127037
C175	C	0.810914	-0.155780	0.539169
C176	C	1.144248	0.177553	0.872502
C177	C	1.477581	0.510887	1.205835
C178	C	0.820222	-0.092497	0.578582
C179	C	1.153555	0.240837	0.911915
C180	C	1.486888	0.574170	1.245249
C181	C	0.829532	-0.029207	0.539187
C182	C	1.162865	0.304126	0.872520
C183	C	1.496198	0.637460	1.205854
C184	C	0.829524	-0.029204	0.460387
C185	C	1.162858	0.304129	0.793720
C186	C	1.496191	0.637463	1.127053
C187	C	0.820206	-0.092496	0.420981
C188	C	1.153539	0.240837	0.754315
C189	C	1.486872	0.574170	1.087648
C190	C	0.867614	-0.045144	0.703407
C191	C	1.200947	0.288190	1.036741
C192	C	1.534281	0.621523	1.370074
C193	C	0.867613	-0.045140	0.782211
C194	C	1.200947	0.288194	1.115544
C195	C	1.534280	0.621527	1.448877
C196	C	0.772848	-0.139849	0.782240
C197	C	1.106181	0.193484	1.115573
C198	C	1.439514	0.526818	1.448906
C199	C	0.772845	-0.139847	0.703438
C200	C	1.106178	0.193486	1.036771
C201	C	1.439512	0.526820	1.370105
C202	C	0.820232	-0.092495	0.664027
C203	C	1.153565	0.240838	0.997360
C204	C	1.486899	0.574172	1.330693
H205	H	0.593980	-0.211581	-0.000191
H206	H	0.927313	0.121752	0.333142
H207	H	1.260646	0.455086	0.666476
H208	H	0.374096	-0.181437	0.079356
H209	H	0.707429	0.151897	0.412690
H210	H	1.040762	0.485230	0.746023
Cl211	Cl	0.159382	-0.233301	-0.000269
Cl212	Cl	0.492715	0.100033	0.333064
Cl213	Cl	0.826049	0.433366	0.666397
Cl214	Cl	0.824727	0.102287	-0.154243
Cl215	Cl	1.158060	0.435620	0.179091
Cl216	Cl	1.491394	0.768953	0.512424
Cl217	Cl	0.913264	0.338077	0.117749
Cl218	Cl	1.246598	0.671411	0.451082
Cl219	Cl	1.579931	1.004744	0.784415
H220	H	0.734235	-0.178393	0.328246
H221	H	1.067568	0.154941	0.661579
H222	H	1.400901	0.488274	0.994913
H223	H	0.906197	-0.006585	0.671317
H224	H	1.239531	0.326749	1.004651
H225	H	1.572864	0.660082	1.337984
Cl226	Cl	0.822263	0.265849	0.153822
Cl227	Cl	1.155596	0.599182	0.487155
Cl228	Cl	1.488930	0.932515	0.820489
H229	H	0.734272	-0.178403	0.814334
H230	H	1.067605	0.154930	1.147668
H231	H	1.400938	0.488264	1.481001
H232	H	0.824424	0.118369	0.123609
H233	H	1.157757	0.451702	0.456943
H234	H	1.491090	0.785035	0.790276
H235	H	0.734214	-0.178390	0.185283
H236	H	1.067547	0.154944	0.518617
H237	H	1.400881	0.488277	0.851950
Cl238	Cl	0.442751	-0.237452	-0.000213
Cl239	Cl	0.776085	0.095881	0.333120
Cl240	Cl	1.109418	0.429214	0.666454
Cl241	Cl	0.927141	0.014393	0.167769
Cl242	Cl	1.260474	0.347726	0.501103
Cl243	Cl	1.593808	0.681060	0.834436
H244	H	0.177867	0.024674	-0.000245
H245	H	0.511200	0.358007	0.333088
H246	H	0.844533	0.691340	0.666421
H247	H	0.046436	0.026600	-0.000318
H248	H	0.379770	0.359933	0.333015
H249	H	0.713103	0.693266	0.666349
Cl250	Cl	0.223736	-0.200749	0.098757
Cl251	Cl	0.557069	0.132584	0.432091
Cl252	Cl	0.890403	0.465917	0.765424
H253	H	0.906198	-0.006581	0.814274
H254	H	1.239531	0.326752	1.147607
H255	H	1.572865	0.660085	1.480941
Cl256	Cl	0.818104	0.549219	0.153812
Cl257	Cl	1.151437	0.882553	0.487145
Cl258	Cl	1.484771	1.215886	0.820478
H259	H	0.906166	-0.006578	0.328185
H260	H	1.239499	0.326755	0.661518
H261	H	1.572833	0.660089	0.994852
Cl262	Cl	0.818169	0.549171	-0.154262
Cl263	Cl	1.151502	0.882504	0.179071
Cl264	Cl	1.484835	1.215838	0.512405
H265	H	0.837110	0.022325	0.571275
H266	H	1.170444	0.355658	0.904609
H267	H	1.503777	0.688991	1.237942
H268	H	0.015667	-0.203100	-0.000283
H269	H	0.349001	0.130233	0.333050
H270	H	0.682334	0.463566	0.666384
H271	H	0.734262	-0.178403	0.671373
H272	H	1.067596	0.154930	1.004706
H273	H	1.400929	0.488264	1.338040
Cl274	Cl	0.841220	0.050356	0.410864
Cl275	Cl	1.174553	0.383689	0.744197
Cl276	Cl	1.507886	0.717023	1.077530
H277	H	0.266331	-0.003548	-0.079822
H278	H	0.599664	0.329785	0.253511
H279	H	0.932998	0.663119	0.586845
H280	H	0.397755	-0.005473	-0.079797
H281	H	0.731088	0.327860	0.253536
H282	H	1.064422	0.661193	0.586870
H283	H	0.803338	-0.207314	0.571238
H284	H	1.136671	0.126019	0.904572
H285	H	1.470005	0.459353	1.237905
Cl286	Cl	0.799265	-0.235342	0.410830
Cl287	Cl	1.132599	0.097991	0.744163
Cl288	Cl	1.465932	0.431325	1.077497
H289	H	0.624757	0.018124	-0.000149
H290	H	0.958090	0.351457	0.333184
H291	H	1.291424	0.684791	0.666517
Cl292	Cl	0.481038	0.048318	-0.000182
Cl293	Cl	0.814372	0.381651	0.333151
Cl294	Cl	1.147705	0.714985	0.666485
Cl295	Cl	0.729599	0.313425	-0.118198
Cl296	Cl	1.062932	0.646758	0.215135
Cl297	Cl	1.396266	0.980092	0.548469
H298	H	0.822549	0.249760	-0.124023
H299	H	1.155882	0.583093	0.209310
H300	H	1.489216	0.916426	0.542643
Cl301	Cl	0.727191	0.476942	-0.118200
Cl302	Cl	1.060525	0.810275	0.215133
Cl303	Cl	1.393858	1.143609	0.548466
Cl304	Cl	0.815758	0.712685	-0.154267
Cl305	Cl	1.149091	1.046018	0.179067
Cl306	Cl	1.482425	1.379352	0.512400
H307	H	0.815947	0.696690	0.123581
H308	H	1.149280	1.030023	0.456914
H309	H	1.482614	1.363356	0.790247
H310	H	0.893066	0.483126	0.094609
H311	H	1.226399	0.816459	0.427942
H312	H	1.559732	1.149792	0.761275
