data_functionalizedCrystal
_audit_creation_method	'MofGen! by Chris Wilmer'
_symmetry_space_group_name_H-M	'P1'
_symmetry_Int_Tables_number	1
_symmetry_cell_setting	triclinic
loop_
_symmetry_equiv_pos_as_xyz
  x,y,z
_cell_length_a	15.995292
_cell_length_b	27.732046
_cell_length_c	26.809956
_cell_angle_alpha	89.963902
_cell_angle_beta	90.005095
_cell_angle_gamma	96.944703
loop_
_atom_site_label
_atom_site_type_symbol
_atom_site_fract_x
_atom_site_fract_y
_atom_site_fract_z
O1	O	1.110206	-0.062189	0.041500
O2	O	0.866324	-0.069912	0.041499
O3	O	0.995841	0.004315	0.041488
O4	O	0.980690	-0.136415	0.041511
O5	O	0.995838	0.004353	-0.041471
O6	O	0.866322	-0.069874	-0.041460
O7	O	1.110204	-0.062151	-0.041459
Zn8	Zn	0.988263	-0.066006	-0.054631
Zn9	Zn	0.988266	-0.066056	0.054671
O10	O	0.980688	-0.136377	-0.041449
C11	C	0.835132	-0.069579	0.000019
C12	C	0.742191	-0.068636	0.000018
C13	C	0.404497	-0.065172	0.000023
C14	C	0.427116	-0.118747	0.000217
C15	C	0.523778	-0.119765	0.000028
C16	C	0.572031	-0.066891	0.000021
C17	C	0.543275	-0.040084	-0.047355
C18	C	0.446493	-0.039439	-0.047393
C19	C	0.446654	-0.038388	0.046947
C20	C	0.543121	-0.040374	0.047571
C21	C	0.666715	-0.067860	0.000018
C22	C	0.309814	-0.064201	0.000023
C23	C	0.995522	0.022342	0.000007
C24	C	0.994565	0.076001	0.000002
C25	C	1.065075	0.414521	0.000019
C26	C	1.061524	0.616195	0.000021
O27	O	1.125998	0.647181	0.000043
N28	N	0.984727	0.635641	0.000020
C29	C	0.908813	0.604665	0.000021
O30	O	0.843410	0.625832	0.000025
C31	C	0.912364	0.402991	0.000023
C32	C	0.989166	0.383548	0.000019
C33	C	1.141871	0.395078	0.000016
C34	C	1.142758	0.344662	0.000013
C35	C	1.066849	0.313689	0.000013
C36	C	0.990053	0.333133	0.000016
C37	C	0.836450	0.372015	0.000028
C38	C	0.837345	0.321594	0.000030
C39	C	0.914147	0.302152	0.000026
C40	C	0.915031	0.251744	0.000013
N41	N	0.991828	0.232299	0.000014
C42	C	1.067737	0.263271	0.000014
C43	C	0.906953	0.710547	0.000020
C44	C	0.906065	0.760965	0.000018
C45	C	1.058777	0.772492	0.000019
C46	C	1.059665	0.722073	0.000017
C47	C	0.983750	0.691101	0.000021
C48	C	1.069594	0.157394	0.000007
C49	C	1.070474	0.106973	0.000002
C50	C	0.917762	0.095451	0.000003
C51	C	0.916881	0.145867	0.000006
C52	C	0.992804	0.176838	0.000009
O53	O	0.850592	0.220730	-0.000003
O54	O	1.133129	0.242094	0.000021
C55	C	1.064188	0.464936	0.000022
C56	C	0.987392	0.484380	0.000026
C57	C	0.911483	0.453407	0.000026
C58	C	0.986504	0.534798	0.000024
C59	C	1.062413	0.565770	0.000024
C60	C	1.139210	0.546325	0.000026
C61	C	1.140097	0.495909	0.000023
C62	C	0.834686	0.472853	0.000024
C63	C	0.833806	0.523269	0.000027
C64	C	0.909715	0.554242	0.000027
C65	C	1.141397	-0.062484	0.000022
C66	C	1.234337	-0.063426	0.000026
N67	N	0.988267	-0.065972	-0.129227
C68	C	0.981009	0.845596	0.000028
C69	C	0.981974	0.791937	0.000018
N70	N	0.988268	-0.066087	0.129267
C71	C	1.038575	-0.095412	0.526161
C72	C	1.038569	-0.095445	0.317284
O73	O	1.081362	-0.120429	0.290292
N74	N	0.988278	-0.066060	0.291146
C75	C	0.937988	-0.036662	0.317230
O76	O	0.895219	-0.011665	0.290206
C77	C	0.937999	-0.036627	0.526107
C78	C	0.988287	-0.066018	0.552242
C79	C	1.088860	-0.124800	0.552296
C80	C	1.088857	-0.124794	0.604513
C81	C	1.038570	-0.095399	0.630594
C82	C	0.988285	-0.066011	0.604459
C83	C	0.887715	-0.007226	0.552191
C84	C	0.887724	-0.007219	0.604413
C85	C	0.938012	-0.036610	0.630549
C86	C	0.937995	-0.036610	0.682756
N87	N	0.988286	-0.065995	0.708894
C88	C	1.038574	-0.095390	0.682813
C89	C	0.937985	-0.036683	0.207567
C90	C	0.937981	-0.036692	0.155348
C91	C	1.038563	-0.095475	0.155405
C92	C	1.038562	-0.095468	0.207625
C93	C	0.988276	-0.066068	0.233705
C94	C	1.038564	-0.095374	0.792471
C95	C	1.038554	-0.095366	0.844692
C96	C	0.937976	-0.036582	0.844630
C97	C	0.937982	-0.036591	0.792414
C98	C	0.988283	-0.065989	0.766336
O99	O	0.895231	-0.011635	0.709780
O100	O	1.081351	-0.120375	0.709846
C101	C	1.038577	-0.095419	0.473945
C102	C	0.988292	-0.066031	0.447810
C103	C	0.938005	-0.036636	0.473891
C104	C	0.988288	-0.066040	0.395591
C105	C	1.038576	-0.095435	0.369510
C106	C	1.088867	-0.124820	0.395648
C107	C	1.088865	-0.124813	0.447864
C108	C	0.887714	-0.007251	0.447753
C109	C	0.887720	-0.007260	0.395537
C110	C	0.938007	-0.036655	0.369456
H111	H	0.575647	-0.001175	-0.049122
C112	C	0.548280	-0.148250	-0.045922
C113	C	0.479847	-0.170138	-0.082561
C114	C	0.504347	-0.198625	-0.128513
C115	C	0.597280	-0.205224	-0.137826
C116	C	0.665719	-0.183335	-0.101186
C117	C	0.641219	-0.154848	-0.055234
H118	H	0.411047	-0.165254	-0.075668
H119	H	0.453683	-0.214828	-0.155636
H120	H	0.615416	-0.226311	-0.171842
H121	H	0.734519	-0.188219	-0.108079
H122	H	0.691882	-0.138645	-0.028111
C123	C	0.408144	-0.061055	0.095459
C124	C	0.439835	-0.040589	0.146343
C125	C	0.401299	-0.063249	0.194852
C126	C	0.331072	-0.106375	0.192476
C127	C	0.299378	-0.126843	0.141590
C128	C	0.337914	-0.104183	0.093081
H129	H	0.491824	-0.008663	0.148103
H130	H	0.424761	-0.048097	0.232521
H131	H	0.302545	-0.123149	0.228385
H132	H	0.247388	-0.158769	0.139830
H133	H	0.314451	-0.119335	0.055412
H134	H	1.201018	0.571551	0.000024
H135	H	1.129811	-0.148725	0.625787
C136	C	0.549113	-0.148126	0.045907
C137	C	0.530238	-0.130612	0.098761
C138	C	0.555562	-0.158977	0.144641
C139	C	0.599762	-0.204855	0.137667
C140	C	0.618639	-0.222372	0.084811
C141	C	0.593315	-0.194007	0.038931
H142	H	0.497517	-0.096648	0.103925
H143	H	0.541588	-0.146010	0.183769
H144	H	0.618509	-0.225852	0.171631
H145	H	0.651361	-0.256336	0.079647
H146	H	0.607289	-0.206974	-0.000197
C147	C	0.751968	0.393397	0.000031
C148	C	0.730355	0.426446	0.043109
C149	C	0.645869	0.447827	0.043110
C150	C	0.582996	0.436160	0.000034
C151	C	0.604608	0.403109	-0.043048
C152	C	0.689094	0.381728	-0.043049
H153	H	0.776898	0.435084	0.074999
H154	H	0.629871	0.472294	0.075002
H155	H	0.520454	0.451988	0.000035
H156	H	0.558064	0.394471	-0.074939
H157	H	0.705092	0.357261	-0.074941
H158	H	0.771260	0.539094	0.000026
C159	C	0.588345	0.011758	0.051439
C160	C	0.652602	0.031252	0.011307
C161	C	0.697835	0.083384	0.015174
C162	C	0.678811	0.116023	0.059173
C163	C	0.614551	0.096530	0.099308
C164	C	0.569318	0.044397	0.095441
H165	H	0.666688	0.007090	-0.021267
H166	H	0.745404	0.097814	-0.014537
H167	H	0.712294	0.154614	0.062035
H168	H	0.600465	0.120692	0.131882
H169	H	0.521748	0.029968	0.125153
H170	H	1.205298	0.328837	0.000012
H171	H	0.561439	-0.059892	0.082620
C172	C	1.224582	0.474527	0.000024
C173	C	1.287453	0.486249	-0.043053
C174	C	1.371943	0.464872	-0.043050
C175	C	1.393562	0.431772	0.000029
C176	C	1.330690	0.420049	0.043108
C177	C	1.246200	0.441426	0.043106
H178	H	1.271450	0.510753	-0.074945
H179	H	1.418485	0.473551	-0.074941
H180	H	1.456107	0.415948	0.000031
H181	H	1.346693	0.395545	0.075001
H182	H	1.199658	0.432747	0.074996
C183	C	0.428444	0.014885	0.047377
C184	C	0.458039	0.048803	0.003695
C185	C	0.439825	0.102075	0.004120
C186	C	0.392016	0.121428	0.048228
C187	C	0.362419	0.087509	0.091913
C188	C	0.380633	0.034238	0.091488
H189	H	0.493432	0.034478	-0.028959
H190	H	0.461735	0.127184	-0.028219
H191	H	0.378533	0.160863	0.048543
H192	H	0.327026	0.101835	0.124567
H193	H	0.358723	0.009129	0.123827
H194	H	0.419435	-0.057973	-0.082803
C195	C	0.427520	0.013627	-0.050313
C196	C	0.377320	0.034821	-0.008343
C197	C	0.358353	0.087886	-0.011267
C198	C	0.389586	0.119757	-0.056160
C199	C	0.439789	0.098563	-0.098133
C200	C	0.458755	0.045498	-0.095209
H201	H	0.354197	0.011227	0.024893
H202	H	0.321190	0.103574	0.019804
H203	H	0.375546	0.159038	-0.058325
H204	H	0.462912	0.122156	-0.131369
H205	H	0.495919	0.029809	-0.126281
C206	C	1.093876	-0.127697	0.873440
C207	C	1.149194	-0.160028	0.844747
C208	C	1.204515	-0.192357	0.873492
C209	C	1.204518	-0.192355	0.930931
C210	C	1.149199	-0.160023	0.959627
C211	C	1.093878	-0.127694	0.930882
H212	H	1.149194	-0.160030	0.802224
H213	H	1.245466	-0.216291	0.852249
H214	H	1.245470	-0.216287	0.952211
H215	H	1.149199	-0.160021	1.002150
H216	H	1.052926	-0.103760	0.952125
H217	H	1.203689	0.420291	0.000018
H218	H	1.133018	0.091146	-0.000003
C219	C	1.144180	-0.157140	0.523615
C220	C	1.240403	-0.150145	0.530802
C221	C	1.295723	-0.182491	0.502126
C222	C	1.254821	-0.221831	0.466263
C223	C	1.158593	-0.228828	0.459074
C224	C	1.103273	-0.196482	0.487750
H225	H	1.270685	-0.121021	0.557352
H226	H	1.366957	-0.177311	0.507448
H227	H	1.295772	-0.245775	0.445035
H228	H	1.128311	-0.257952	0.432524
H229	H	1.032039	-0.201662	0.482428
C230	C	1.153108	0.191457	0.000007
C231	C	1.216211	0.189302	-0.043076
C232	C	1.299724	0.223365	-0.043080
C233	C	1.320133	0.259584	-0.000002
C234	C	1.257028	0.261741	0.043084
C235	C	1.173516	0.227678	0.043088
H236	H	1.201104	0.162490	-0.074968
H237	H	1.346438	0.221768	-0.074976
H238	H	1.381955	0.284800	-0.000005
H239	H	1.272135	0.288553	0.074976
H240	H	1.126801	0.229274	0.074984
C241	C	0.753836	0.287525	0.000032
C242	C	0.690727	0.289677	0.043113
C243	C	0.607219	0.255609	0.043115
C244	C	0.586821	0.219389	0.000036
C245	C	0.649931	0.217236	-0.043048
C246	C	0.733439	0.251304	-0.043050
H247	H	0.705826	0.316490	0.075005
H248	H	0.560501	0.257203	0.075008
H249	H	0.525003	0.194170	0.000037
H250	H	0.634832	0.190423	-0.074940
H251	H	0.780157	0.249710	-0.074943
H252	H	0.854343	0.161698	-0.000005
C253	C	1.144147	0.700688	0.000017
C254	C	1.207015	0.712405	-0.043062
C255	C	1.291501	0.691023	-0.043060
C256	C	1.313120	0.657925	0.000020
C257	C	1.250250	0.646207	0.043102
C258	C	1.165764	0.667588	0.043101
H259	H	1.191013	0.736907	-0.074955
H260	H	1.338041	0.699698	-0.074952
H261	H	1.375661	0.642097	0.000021
H262	H	1.266252	0.621704	0.074995
H263	H	1.119224	0.658914	0.074993
C264	C	1.144185	-0.157154	0.366951
C265	C	1.212745	-0.133991	0.331037
C266	C	1.268063	-0.166321	0.302338
C267	C	1.254820	-0.221814	0.309553
C268	C	1.186257	-0.244980	0.345469
C269	C	1.130939	-0.212650	0.374168
H270	H	1.222551	-0.092910	0.325695
H271	H	1.318818	-0.149172	0.275751
H272	H	1.295770	-0.245747	0.288308
H273	H	1.176451	-0.286062	0.350811
H274	H	1.080184	-0.229799	0.400755
C275	C	0.882656	-0.004366	0.126603
C276	C	0.827347	0.027968	0.155299
C277	C	0.772024	0.060298	0.126556
C278	C	0.772009	0.060294	0.069117
C279	C	0.827320	0.027959	0.040418
C280	C	0.882643	-0.004371	0.069161
H281	H	0.827356	0.027972	0.197821
H282	H	0.731079	0.084234	0.147801
H283	H	0.731056	0.084226	0.047840
H284	H	0.827311	0.027955	-0.002105
H285	H	0.923588	-0.028308	0.047916
C286	C	0.832398	0.025074	0.366793
C287	C	0.845660	0.080567	0.373940
C288	C	0.790347	0.112905	0.345199
C289	C	0.721773	0.089750	0.309313
C290	C	0.708508	0.034255	0.302165
C291	C	0.763820	0.001917	0.330905
H292	H	0.896426	0.097710	0.400506
H293	H	0.800167	0.153986	0.350491
H294	H	0.680827	0.113689	0.288037
H295	H	0.657742	0.017112	0.275598
H296	H	0.754000	-0.039164	0.325613
H297	H	0.397830	-0.139267	-0.033562
C298	C	0.823442	0.676480	0.000019
C299	C	0.803048	0.640260	-0.043060
C300	C	0.719537	0.606195	-0.043063
C301	C	0.656419	0.608350	0.000012
C302	C	0.676811	0.644572	0.043094
C303	C	0.760322	0.678637	0.043097
H304	H	0.849773	0.638663	-0.074950
H305	H	0.704442	0.579381	-0.074956
H306	H	0.594599	0.583134	0.000009
H307	H	0.630086	0.646169	0.074983
H308	H	0.775417	0.705450	0.074990
C309	C	1.093888	-0.127714	0.763789
C310	C	1.190111	-0.120721	0.770975
C311	C	1.245428	-0.153063	0.742292
C312	C	1.204523	-0.192399	0.706424
C313	C	1.108296	-0.199394	0.699236
C314	C	1.052978	-0.167051	0.727919
H315	H	1.220395	-0.091601	0.797528
H316	H	1.316662	-0.147885	0.747613
H317	H	1.245473	-0.216340	0.685192
H318	H	1.078011	-0.228514	0.672683
H319	H	0.981744	-0.172229	0.722598
H320	H	0.772871	0.447639	0.000025
C321	C	0.821581	0.782347	0.000016
C322	C	0.758709	0.770679	-0.043061
C323	C	0.674222	0.792059	-0.043060
C324	C	0.652606	0.825107	0.000018
C325	C	0.715479	0.836777	0.043099
C326	C	0.799967	0.815397	0.043098
H327	H	0.774709	0.746213	-0.074953
H328	H	0.627679	0.783420	-0.074951
H329	H	0.590063	0.840934	0.000019
H330	H	0.699479	0.861243	0.074991
H331	H	0.846509	0.824037	0.074989
C332	C	0.570036	-0.065190	-0.094981
C333	C	0.502953	-0.086654	-0.132645
C334	C	0.529710	-0.111764	-0.180269
C335	C	0.623552	-0.115409	-0.190230
C336	C	0.690641	-0.093945	-0.152566
C337	C	0.663883	-0.068835	-0.104941
H338	H	0.433480	-0.083956	-0.125272
H339	H	0.480046	-0.127653	-0.208151
H340	H	0.643359	-0.133997	-0.225485
H341	H	0.760113	-0.096643	-0.159939
H342	H	0.713547	-0.052946	-0.077060
H343	H	1.079510	-0.119401	0.228901
H344	H	1.120585	0.797719	0.000019
H345	H	0.855959	0.070224	0.000002
C346	C	0.832402	0.025112	0.523457
C347	C	0.845675	0.080604	0.530609
C348	C	0.790362	0.112948	0.501878
C349	C	0.721775	0.089801	0.465995
C350	C	0.708499	0.034307	0.458841
C351	C	0.763813	0.001962	0.487572
H352	H	0.896450	0.097741	0.557173
H353	H	0.800190	0.154029	0.507174
H354	H	0.680828	0.113744	0.444727
H355	H	0.657725	0.017169	0.432277
H356	H	0.753985	-0.039118	0.482276
C357	C	0.832405	0.025121	0.633101
C358	C	0.845657	0.080612	0.625875
C359	C	0.790338	0.112950	0.654562
C360	C	0.721767	0.089797	0.690475
C361	C	0.708513	0.034303	0.697703
C362	C	0.763832	0.001965	0.669016
H363	H	0.896420	0.097754	0.599289
H364	H	0.800150	0.154031	0.649211
H365	H	0.680817	0.113736	0.711711
H366	H	0.657750	0.017161	0.724289
H367	H	0.754019	-0.039116	0.674367
H368	H	0.398853	-0.139412	0.034193
H369	H	1.079506	-0.119411	0.134161
H370	H	0.897034	-0.012741	0.228797
H371	H	0.897022	-0.012665	0.771134
H372	H	0.846764	0.016687	0.468983
H373	H	0.897031	-0.012651	0.865875
H374	H	1.129814	-0.148747	0.469138
