data_functionalizedCrystal
_audit_creation_method	'MofGen! by Chris Wilmer'
_symmetry_space_group_name_H-M	'P1'
_symmetry_Int_Tables_number	1
_symmetry_cell_setting	triclinic
loop_
_symmetry_equiv_pos_as_xyz
  x,y,z
_cell_length_a	17.699083
_cell_length_b	14.750779
_cell_length_c	17.699083
_cell_angle_alpha	102.617135
_cell_angle_beta	83.283015
_cell_angle_gamma	77.378405
loop_
_atom_site_label
_atom_site_type_symbol
_atom_site_fract_x
_atom_site_fract_y
_atom_site_fract_z
O1	O	0.987643	0.079696	0.112136
O2	O	1.487643	0.579696	0.612136
O3	O	0.767258	0.079728	0.124595
O4	O	1.267258	0.579728	0.624595
O5	O	0.883679	0.079702	0.008174
O6	O	1.383679	0.579702	0.508174
O7	O	0.871222	0.079721	0.228556
O8	O	1.371222	0.579721	0.728556
O9	O	0.916589	-0.079955	-0.024733
O10	O	1.416589	0.420045	0.475267
O11	O	0.800169	-0.079930	0.091687
O12	O	1.300169	0.420070	0.591687
O13	O	1.020553	-0.079961	0.079228
O14	O	1.520553	0.420039	0.579228
Zn15	Zn	0.915586	-0.105295	0.080233
Zn16	Zn	1.415586	0.394705	0.580233
Zn17	Zn	0.872225	0.105061	0.123590
Zn18	Zn	1.372225	0.605061	0.623590
O19	O	0.904133	-0.079936	0.195649
O20	O	1.404133	0.420064	0.695649
C21	C	0.755515	-0.000097	0.107696
C22	C	1.255515	0.499903	0.607696
C23	C	0.671495	-0.000085	0.106360
C24	C	1.171495	0.499915	0.606360
N25	N	0.945185	-0.248857	0.050643
N26	N	1.445185	0.251143	0.550643
C27	C	0.622873	-0.000080	0.174694
C28	C	1.122873	0.499920	0.674694
C29	C	0.543932	-0.000092	0.173429
C30	C	1.043932	0.499908	0.673429
C31	C	0.513614	-0.000103	0.103830
C32	C	1.013614	0.499897	0.603830
C33	C	0.562242	-0.000112	0.035490
C34	C	1.062242	0.499888	0.535490
C35	C	0.641183	-0.000106	0.036754
C36	C	1.141183	0.499894	0.536754
C37	C	0.243884	-0.000136	0.030390
C38	C	0.743884	0.499864	0.530390
C39	C	0.164937	-0.000139	0.029131
C40	C	0.664937	0.499861	0.529131
C41	C	0.146633	-0.000122	0.167065
C42	C	0.646633	0.499878	0.667065
C43	C	0.225574	-0.000116	0.168329
C44	C	0.725574	0.499884	0.668329
C45	C	0.274197	-0.000130	0.099988
C46	C	0.774197	0.499870	0.599988
C47	C	0.359794	-0.000118	0.101360
C48	C	0.859794	0.499882	0.601360
C49	C	0.428017	-0.000108	0.102459
C50	C	0.928017	0.499892	0.602459
C51	C	0.759968	-0.600635	0.235782
C52	C	1.259968	-0.100635	0.735782
C53	C	0.780715	-0.701138	0.215052
C54	C	1.280715	-0.201138	0.715052
C55	C	0.883826	-0.701123	0.111999
C56	C	1.383826	-0.201123	0.611999
C57	C	0.863086	-0.600618	0.132718
C58	C	1.363086	-0.100618	0.632718
C59	C	0.801157	-0.550381	0.194610
C60	C	1.301157	-0.050381	0.694610
C61	C	0.904275	-0.550364	0.091547
C62	C	1.404275	-0.050364	0.591547
C63	C	0.883539	-0.449868	0.112267
C64	C	1.383539	0.050132	0.612267
C65	C	0.821614	-0.399624	0.174158
C66	C	1.321614	0.100376	0.674158
C67	C	0.780421	-0.449885	0.215330
C68	C	1.280421	0.050115	0.715330
C69	C	0.966207	-0.600603	0.029658
C70	C	1.466207	-0.100603	0.529658
C71	C	1.007396	-0.550349	-0.011513
C72	C	1.507396	-0.050349	0.488487
C73	C	0.986657	-0.449851	0.009203
C74	C	1.486657	0.050149	0.509203
C75	C	0.924732	-0.399607	0.071094
C76	C	1.424732	0.100393	0.571094
C77	C	1.027850	-0.399590	-0.031969
C78	C	1.527850	0.100410	0.468031
C79	C	1.007114	-0.299093	-0.011249
C80	C	1.507114	0.200907	0.488751
C81	C	0.903996	-0.299110	0.091814
C82	C	1.403996	0.200890	0.591814
C83	C	1.032296	-0.000135	0.096128
C84	C	1.532296	0.499865	0.596128
C85	C	1.116315	-0.000140	0.097465
C86	C	1.616315	0.499860	0.597465
C87	C	0.899688	-0.000126	-0.036477
C88	C	1.399688	0.499874	0.463523
C89	C	0.898349	-0.000127	-0.120495
C90	C	1.398349	0.499873	0.379505
N91	N	0.842633	0.248623	0.153174
N92	N	1.342633	0.748623	0.653174
C93	C	0.966685	-0.000138	-0.169118
C94	C	1.466685	0.499862	0.330882
C95	C	0.965421	-0.000129	-0.248059
C96	C	1.465421	0.499871	0.251941
C97	C	0.895822	-0.000116	-0.278378
C98	C	1.395822	0.499884	0.221622
C99	C	0.827480	-0.000102	-0.229748
C100	C	1.327480	0.499898	0.270252
C101	C	0.828744	-0.000104	-0.150806
C102	C	1.328744	0.499896	0.349194
C103	C	0.822383	-0.000093	-0.548109
C104	C	1.322383	0.499907	-0.048109
C105	C	0.821125	-0.000095	-0.627057
C106	C	1.321125	0.499905	-0.127057
C107	C	0.959060	-0.000119	-0.645362
C108	C	1.459060	0.499881	-0.145362
C109	C	0.960324	-0.000120	-0.566421
C110	C	1.460324	0.499880	-0.066421
C111	C	0.891982	-0.000101	-0.517797
C112	C	1.391982	0.499899	-0.017797
C113	C	0.893353	-0.000109	-0.432199
C114	C	1.393353	0.499891	0.067801
C115	C	0.894451	-0.000115	-0.363975
C116	C	1.394451	0.499885	0.136025
C117	C	0.888123	-0.000105	0.240300
C118	C	1.388123	0.499895	0.740300
C119	C	0.889461	-0.000099	0.324320
C120	C	1.389461	0.499901	0.824320
H121	H	0.647551	-0.000070	0.231370
H122	H	1.147551	0.499930	0.731370
F123	F	0.749646	-0.000071	-0.496369
F124	F	1.249646	0.499929	0.003631
F125	F	0.529975	-0.000130	-0.038584
F126	F	1.029975	0.499870	0.461416
H127	H	1.016999	-0.000136	-0.541742
H128	H	1.516999	0.499864	-0.041742
F129	F	0.714502	-0.396417	0.281197
F130	F	1.214502	0.103583	0.781197
H131	H	1.021067	-0.000140	-0.287646
H132	H	1.521067	0.499860	0.212354
H133	H	0.680771	-0.000110	-0.018891
H134	H	1.180771	0.499890	0.481109
F135	F	0.736870	-0.754615	0.258881
F136	F	1.236870	-0.254615	0.758881
F137	F	0.132672	-0.000151	-0.044949
F138	F	0.632672	0.499849	0.455051
H139	H	0.853562	-0.258206	0.142208
H140	H	1.353562	0.241794	0.642208
F141	F	0.753405	-0.000077	-0.262014
F142	F	1.253405	0.499923	0.237986
F143	F	0.756011	-0.000089	-0.099057
F144	F	1.256011	0.499911	0.400943
H145	H	0.804734	-0.317793	0.191030
H146	H	1.304734	0.182207	0.691030
H147	H	0.709534	-0.559730	0.286175
H148	H	1.209534	-0.059730	0.786175
H149	H	0.983090	-0.682434	0.012793
H150	H	1.483090	-0.182434	0.512793
F151	F	0.492187	-0.000082	0.246161
F152	F	0.992187	0.499918	0.746161
H153	H	0.934251	-0.742037	0.061607
H154	H	1.434251	-0.242037	0.561607
H155	H	1.057821	-0.591263	-0.061905
H156	H	1.557821	-0.091263	0.438095
F157	F	1.050954	-0.245609	-0.055068
F158	F	1.550954	0.254391	0.444932
F159	F	1.093764	-0.453066	-0.097831
F160	F	1.593764	0.046934	0.402169
H161	H	1.023362	-0.000154	-0.144441
H162	H	1.523362	0.499846	0.355559
H163	H	0.250254	-0.000103	0.225004
H164	H	0.750254	0.499897	0.725004
H165	H	1.014707	-0.000129	-0.684961
H166	H	1.514707	0.499871	-0.184961
F167	F	0.747045	-0.000079	-0.659321
F168	F	1.247045	0.499921	-0.159321
H169	H	0.283465	-0.000148	-0.025258
H170	H	0.783465	0.499852	0.474742
F171	F	0.094880	-0.000112	0.239799
F172	F	0.594880	0.499888	0.739799
