data_functionalizedCrystal
_audit_creation_method	'MofGen! by Chris Wilmer'
_symmetry_space_group_name_H-M	'P1'
_symmetry_Int_Tables_number	1
_symmetry_cell_setting	triclinic
loop_
_symmetry_equiv_pos_as_xyz
  x,y,z
_cell_length_a	6.817900
_cell_length_b	15.185442
_cell_length_c	19.453114
_cell_angle_alpha	95.656103
_cell_angle_beta	101.709288
_cell_angle_gamma	104.264065
loop_
_atom_site_label
_atom_site_type_symbol
_atom_site_fract_x
_atom_site_fract_y
_atom_site_fract_z
V1	V	-4.010766	-0.126704	-0.219212
O2	O	-3.994582	0.005115	-0.214822
O3	O	-3.966242	-0.250296	-0.217922
O4	O	-3.953634	-0.125182	-0.314722
O5	O	-4.007278	-0.120865	-0.117351
V6	V	-4.495024	-0.110887	-0.207003
O7	O	-4.270414	-0.161401	-0.245993
O8	O	-4.685574	-0.076189	-0.180222
O9	O	-4.316342	0.012706	-0.208293
O10	O	-4.628605	-0.242706	-0.211393
O11	O	-4.615910	-0.116725	-0.308864
O12	O	-4.328950	-0.112408	-0.111493
C13	C	-3.812468	-0.280412	-0.214518
C14	C	-3.857292	-0.381453	-0.214099
C15	C	-3.864869	-0.804031	-0.208803
C16	C	-4.228754	-0.813313	-0.215829
C17	C	-4.186645	-0.718381	-0.216227
C18	C	-3.983642	-0.666269	-0.212911
C19	C	-3.822749	-0.709090	-0.209198
C20	C	-4.347528	-0.675552	-0.219932
C21	C	-4.305422	-0.580613	-0.220329
C22	C	-4.102419	-0.528501	-0.217019
C23	C	-3.941522	-0.571327	-0.213306
C24	C	-3.738519	-0.519216	-0.209991
C25	C	-3.577621	-0.562041	-0.206284
C26	C	-3.619746	-0.656977	-0.205888
C27	C	-4.060295	-0.433565	-0.217415
C28	C	-3.696399	-0.424274	-0.210386
C29	C	-3.796384	-0.120816	-0.337995
C30	C	-3.830981	-0.120389	-0.416077
C31	C	-4.029160	-0.124751	-0.456342
C32	C	-4.061668	-0.124351	-0.529708
C33	C	-3.895995	-0.119607	-0.562809
C34	C	-3.697785	-0.115239	-0.522534
C35	C	-3.665279	-0.115630	-0.449168
N36	N	-3.837757	-0.167608	-0.681678
N37	N	-3.868650	-0.167238	-0.751373
C38	C	-3.993924	-0.118425	-0.783855
N39	N	-4.087174	-0.070008	-0.744011
N40	N	-4.056285	-0.070382	-0.674310
C41	C	-3.931222	-0.119181	-0.642361
C42	C	-4.227363	-0.122352	-0.903671
C43	C	-4.259862	-0.121946	-0.977038
C44	C	-3.895978	-0.112843	-0.969864
C45	C	-3.863481	-0.113240	-0.896498
C46	C	-4.029183	-0.117999	-0.863406
C47	C	-4.133458	0.042817	-0.211695
C48	C	-4.067872	0.143857	-0.212118
C49	C	-4.149542	-0.116778	-0.088216
C50	C	-4.094183	-0.117200	-0.010133
H51	H	-3.488756	-0.691854	-0.202868
H52	H	-3.562894	-0.111373	-0.549489
Br53	Br	-3.646520	-0.862149	-0.203778
Br54	Br	-4.254040	-0.131207	-0.411435
Br55	Br	-4.504237	-0.884033	-0.220311
H56	H	-3.531095	-0.381851	-0.207691
Br57	Br	-4.452233	-0.128805	-0.858757
Br58	Br	-3.396301	-0.109712	-0.394520
Br59	Br	-4.528840	-0.127861	-1.031684
H60	H	-3.761079	-0.108972	-0.996813
Br61	Br	-4.623005	-0.746273	-0.224409
H62	H	-4.436441	-0.545753	-0.223350
H63	H	-4.191292	-0.398699	-0.220425
Br64	Br	-3.594514	-0.107333	-0.841851
Br65	Br	-4.330643	-0.130262	-0.584363
Br66	Br	-3.302115	-0.491305	-0.201771
