data_functionalizedCrystal
_audit_creation_method	'MofGen! by Chris Wilmer'
_symmetry_space_group_name_H-M	'P1'
_symmetry_Int_Tables_number	1
_symmetry_cell_setting	triclinic
loop_
_symmetry_equiv_pos_as_xyz
  x,y,z
_cell_length_a	12.837942
_cell_length_b	12.837943
_cell_length_c	11.295483
_cell_angle_alpha	94.538773
_cell_angle_beta	94.530417
_cell_angle_gamma	85.171060
loop_
_atom_site_label
_atom_site_type_symbol
_atom_site_fract_x
_atom_site_fract_y
_atom_site_fract_z
O1	O	0.265788	-1.408689	-0.099003
O2	O	0.252345	-1.105556	-0.099010
O3	O	0.107500	-1.250401	-0.098999
O4	O	0.410633	-1.263845	-0.099013
O5	O	0.120201	-1.237676	0.099051
O6	O	0.265045	-1.092832	0.099040
O7	O	0.278489	-1.395965	0.099047
Cu8	Cu	0.272927	-1.243237	0.117127
Cu9	Cu	0.257907	-1.258285	-0.117090
O10	O	0.423333	-1.251121	0.099037
C11	C	0.254153	-1.060125	0.000014
C12	C	0.240609	-0.943710	0.000012
C13	C	0.074781	-1.239497	0.000025
C14	C	-0.041634	-1.225953	0.000023
C15	C	0.276680	-1.441396	0.000021
C16	C	0.290224	-1.557812	0.000015
C17	C	-0.266509	-1.388784	0.000002
C18	C	-0.375892	-1.376062	-0.000000
C19	C	-0.369784	-1.187791	0.000008
C20	C	-0.260402	-1.200512	0.000010
C21	C	-0.208768	-1.301011	0.000009
C22	C	-0.099383	-1.313731	0.000020
C23	C	-0.093278	-1.125461	0.000019
C24	C	-0.202660	-1.112740	0.000017
C25	C	0.456052	-1.262024	0.000010
C26	C	0.572467	-1.275569	0.000004
N27	N	0.283491	-1.232661	0.281863
C28	C	0.403439	-0.718835	0.000021
C29	C	0.390717	-0.609453	0.000020
C30	C	0.202446	-0.615561	0.000016
C31	C	0.215167	-0.724943	0.000017
C32	C	0.315667	-0.776576	0.000018
C33	C	0.328387	-0.885961	0.000011
C34	C	0.140117	-0.892066	0.000016
C35	C	0.127396	-0.782684	0.000015
N36	N	0.247335	-1.268868	-0.281825
C37	C	0.171231	-1.344996	0.531161
C38	C	0.179223	-1.337012	0.655824
C39	C	0.307459	-1.208702	0.655854
C40	C	0.299467	-1.216687	0.531191
C41	C	0.231353	-1.284837	0.468849
C42	C	0.223367	-1.292826	0.344183
C43	C	0.351597	-1.164512	0.344216
C44	C	0.359589	-1.156528	0.468879
H45	H	-0.057344	-1.395563	0.000023
H46	H	0.400555	-1.115530	0.293468
Cl47	Cl	0.001061	-0.717763	0.000016
Cl48	Cl	0.501065	-0.536867	0.000027
H49	H	-0.224468	-1.470613	0.000013
H50	H	0.130265	-1.385998	0.706555
Cl51	Cl	0.454727	-0.950871	0.000009
H52	H	-0.411844	-1.105969	-0.000004
H53	H	0.115777	-1.400494	0.480401
Cl54	Cl	0.137741	-1.378502	0.265812
Cl55	Cl	0.029767	-0.964663	-0.000006
H56	H	0.485269	-0.760876	0.000020
Cl57	Cl	0.445212	-1.070855	0.547261
Cl58	Cl	0.076115	-0.550631	0.000031
H59	H	-0.422901	-1.447536	-0.000010
Cl60	Cl	-0.267582	-0.986405	0.000008
H61	H	-0.046252	-1.053990	0.000034
H62	H	0.362909	-1.153209	0.706630
