data_functionalizedCrystal
_audit_creation_method	'MofGen! by Chris Wilmer'
_symmetry_space_group_name_H-M	'P1'
_symmetry_Int_Tables_number	1
_symmetry_cell_setting	triclinic
loop_
_symmetry_equiv_pos_as_xyz
  x,y,z
_cell_length_a	19.288857
_cell_length_b	19.288840
_cell_length_c	18.366186
_cell_angle_alpha	90.013590
_cell_angle_beta	90.003709
_cell_angle_gamma	83.129562
loop_
_atom_site_label
_atom_site_type_symbol
_atom_site_fract_x
_atom_site_fract_y
_atom_site_fract_z
O1	O	0.086562	0.921359	0.060675
O2	O	0.586562	1.421359	0.560675
O3	O	0.098269	0.719096	0.060650
O4	O	0.598269	1.219096	0.560650
O5	O	-0.008716	0.826075	0.060654
O6	O	0.491284	1.326075	0.560654
O7	O	0.193546	0.814380	0.060670
O8	O	0.693546	1.314380	0.560670
O9	O	-0.008712	0.826061	-0.060445
O10	O	0.491288	1.326061	0.439555
O11	O	0.098272	0.719082	-0.060449
O12	O	0.598272	1.219082	0.439551
O13	O	0.086565	0.921345	-0.060425
O14	O	0.586565	1.421345	0.439575
Zn15	Zn	0.092419	0.820212	-0.079664
Zn16	Zn	0.592419	1.320212	0.420336
Zn17	Zn	0.092415	0.820230	0.079889
Zn18	Zn	0.592415	1.320230	0.579889
O19	O	0.193550	0.814367	-0.060429
O20	O	0.693550	1.314367	0.439571
C21	C	0.097897	0.693212	0.000097
C22	C	0.597897	1.193212	0.500097
C23	C	0.096775	0.616108	0.000087
C24	C	0.596775	1.116108	0.500087
C25	C	-0.034591	0.825693	0.000104
C26	C	0.465409	1.325693	0.500104
C27	C	-0.111695	0.824566	0.000102
C28	C	0.388305	1.324566	0.500102
C29	C	0.096234	0.579912	0.066100
C30	C	0.596234	1.079912	0.566100
C31	C	0.095172	0.507465	0.066109
C32	C	0.595172	1.007465	0.566109
C33	C	0.094637	0.471219	0.000101
C34	C	0.594637	0.971219	0.500101
C35	C	0.095182	0.507423	-0.065921
C36	C	0.595182	1.007423	0.434079
C37	C	0.096251	0.579867	-0.065928
C38	C	0.596251	1.079867	0.434072
C39	C	0.052260	0.361886	-0.050464
C40	C	0.552260	0.861886	0.449536
C41	C	0.051187	0.289444	-0.050454
C42	C	0.551187	0.789444	0.449546
C43	C	0.091342	0.247775	0.000120
C44	C	0.591342	0.747775	0.500120
C45	C	0.132563	0.278559	0.050696
C46	C	0.632563	0.778559	0.550696
C47	C	0.133632	0.351004	0.050689
C48	C	0.633632	0.851004	0.550689
C49	C	0.093478	0.392665	0.000101
C50	C	0.593478	0.892665	0.500101
C51	C	0.089651	0.133024	0.066147
C52	C	0.589651	0.633024	0.566147
C53	C	0.088593	0.060575	0.066153
C54	C	0.588593	0.560575	0.566153
C55	C	0.088596	0.060535	-0.065879
C56	C	0.588596	0.560535	0.434121
C57	C	0.089661	0.132982	-0.065883
C58	C	0.589661	0.632982	0.434117
C59	C	0.090185	0.169222	0.000132
C60	C	0.590185	0.669222	0.500132
C61	C	-0.147907	0.824047	0.066113
C62	C	0.352093	1.324047	0.566113
C63	C	-0.220353	0.822979	0.066118
C64	C	0.279647	1.322979	0.566118
C65	C	-0.256585	0.822442	0.000108
C66	C	0.243415	1.322442	0.500108
C67	C	-0.220364	0.822957	-0.065912
C68	C	0.279636	1.322957	0.434088
C69	C	-0.147918	0.824018	-0.065915
C70	C	0.352082	1.324018	0.434085
C71	C	-0.376819	0.861439	-0.050454
C72	C	0.123181	1.361439	0.449546
C73	C	-0.449264	0.860381	-0.050448
C74	C	0.050736	1.360381	0.449552
C75	C	-0.480031	0.819164	0.000116
C76	C	0.019969	1.319164	0.500116
C77	C	-0.438346	0.779014	0.050687
C78	C	0.061654	1.279014	0.550687
C79	C	-0.365901	0.780076	0.050683
C80	C	0.134099	1.280076	0.550683
C81	C	-0.335140	0.821291	0.000105
C82	C	0.164860	1.321291	0.500105
C83	C	-0.594798	0.817486	0.066138
C84	C	-0.094798	1.317486	0.566138
C85	C	-0.667244	0.816413	0.066140
C86	C	-0.167244	1.316413	0.566140
C87	C	-0.667254	0.816398	-0.065891
C88	C	-0.167254	1.316398	0.434109
C89	C	-0.594808	0.817464	-0.065892
C90	C	-0.094808	1.317464	0.434108
C91	C	-0.558585	0.818012	0.000125
C92	C	-0.058585	1.318012	0.500125
C93	C	0.219425	0.814749	0.000123
C94	C	0.719425	1.314749	0.500123
C95	C	0.296528	0.815876	0.000130
C96	C	0.796528	1.315876	0.500130
C97	C	0.086937	0.947229	0.000130
C98	C	0.586937	1.447229	0.500130
C99	C	0.088059	1.024334	0.000144
C100	C	0.588059	1.524334	0.500144
N101	N	0.092422	0.820204	-0.188555
N102	N	0.592422	1.320204	0.311445
C103	C	0.134416	0.862235	-0.773096
C104	C	0.634416	1.362235	-0.273096
C105	C	0.134423	0.862227	-0.696868
C106	C	0.634423	1.362227	-0.196868
C107	C	0.092407	0.820236	-0.658767
C108	C	0.592407	1.320236	-0.158767
C109	C	0.050394	0.778236	-0.696899
C110	C	0.550394	1.278236	-0.196899
C111	C	0.050394	0.778239	-0.773126
C112	C	0.550394	1.278239	-0.273126
C113	C	0.029782	0.818511	-0.538006
C114	C	0.529782	1.318511	-0.038006
C115	C	0.029781	0.818513	-0.461781
C116	C	0.529781	1.318513	0.038219
C117	C	0.092409	0.820222	-0.423659
C118	C	0.592409	1.320222	0.076341
C119	C	0.155038	0.821945	-0.461772
C120	C	0.655038	1.321945	0.038228
C121	C	0.155038	0.821948	-0.537998
C122	C	0.655038	1.321948	-0.037998
C123	C	0.092403	0.820228	-0.576112
C124	C	0.592403	1.320228	-0.076112
C125	C	0.134430	0.862209	-0.302881
C126	C	0.634430	1.362209	0.197119
C127	C	0.134438	0.862197	-0.226652
C128	C	0.634438	1.362197	0.273348
C129	C	0.050402	0.778209	-0.226684
C130	C	0.550402	1.278209	0.273316
C131	C	0.050401	0.778217	-0.302912
C132	C	0.550401	1.278217	0.197088
C133	C	0.092413	0.820221	-0.341006
C134	C	0.592413	1.320221	0.158994
N135	N	0.092406	0.820243	0.188781
N136	N	0.592406	1.320243	0.688781
H137	H	0.096660	0.609414	0.119855
H138	H	0.596660	1.109414	0.619855
H139	H	0.017620	0.264386	-0.091633
H140	H	0.517620	0.764386	0.408367
Br141	Br	-0.480091	0.723071	0.119313
Br142	Br	0.019909	1.223071	0.619313
H143	H	0.090085	0.162531	0.119900
H144	H	0.590085	0.662531	0.619900
Br145	Br	0.240038	0.824271	-0.410045
Br146	Br	0.740038	1.324271	0.089955
Br147	Br	-0.098749	0.824787	0.155706
Br148	Br	0.401251	1.324787	0.655706
Br149	Br	-0.006624	0.721244	-0.824869
Br150	Br	0.493376	1.221244	-0.324869
Br151	Br	0.094439	0.458330	0.155705
Br152	Br	0.594439	0.958330	0.655705
H153	H	0.167196	0.376065	0.091868
H154	H	0.667196	0.876065	0.591868
H155	H	-0.021219	0.817113	-0.569039
H156	H	0.478781	1.317113	-0.069039
Br157	Br	-0.002239	0.418429	-0.119108
Br158	Br	0.497761	0.918429	0.380892
H159	H	0.165264	0.244633	0.091876
H160	H	0.665264	0.744633	0.591876
Br161	Br	0.087868	0.011449	0.155751
Br162	Br	0.587868	0.511449	0.655751
Br163	Br	-0.098768	0.824719	-0.155509
Br164	Br	0.401232	1.324719	0.344491
H165	H	-0.565302	0.817928	0.119893
H166	H	-0.065302	1.317928	0.619893
H167	H	0.016188	0.744026	-0.333952
H168	H	0.516188	1.244026	0.166048
Br169	Br	0.087881	0.011351	-0.155463
Br170	Br	0.587881	0.511351	0.344537
H171	H	0.090097	0.162453	-0.119638
H172	H	0.590097	0.662453	0.380362
Br173	Br	-0.716391	0.815702	0.155735
Br174	Br	-0.216391	1.315702	0.655735
H175	H	0.168628	0.896436	-0.804107
H176	H	0.668628	1.396436	-0.304107
H177	H	0.094748	0.477906	-0.119665
H178	H	0.594748	0.977906	0.380335
H179	H	-0.021216	0.817115	-0.430756
H180	H	0.478784	1.317115	0.069244
H181	H	0.096692	0.609338	-0.119685
H182	H	0.596692	1.109338	0.380315
Br183	Br	0.191431	0.919231	-0.645118
Br184	Br	0.691431	1.419231	-0.145118
Br185	Br	-0.006623	0.721242	-0.645192
Br186	Br	0.493377	1.221242	-0.145192
Br187	Br	-0.269509	0.822272	0.155711
Br188	Br	0.230491	1.322272	0.655711
Br189	Br	0.240031	0.824281	-0.589720
Br190	Br	0.740031	1.324281	-0.089720
H191	H	-0.249868	0.822518	-0.119657
H192	H	0.250132	1.322518	0.380343
H193	H	-0.696753	0.815956	-0.119638
H194	H	-0.196753	1.315956	0.380362
H195	H	0.016196	0.744015	-0.195663
H196	H	0.516196	1.244015	0.304337
H197	H	0.168642	0.896407	-0.333898
H198	H	0.668642	1.396407	0.166102
Br199	Br	0.191477	0.919172	-0.174911
Br200	Br	0.691477	1.419172	0.325089
H201	H	-0.331963	0.747383	0.091858
H202	H	0.168037	1.247383	0.591858
Br203	Br	-0.545658	0.818165	-0.155484
Br204	Br	-0.045658	1.318165	0.344516
H205	H	-0.483199	0.893076	-0.091623
H206	H	0.016801	1.393076	0.408377
Br207	Br	-0.335074	0.917399	-0.119067
Br208	Br	0.164926	1.417399	0.380933
