data_functionalizedCrystal
_audit_creation_method	'MofGen! by Chris Wilmer'
_symmetry_space_group_name_H-M	'P1'
_symmetry_Int_Tables_number	1
_symmetry_cell_setting	triclinic
loop_
_symmetry_equiv_pos_as_xyz
  x,y,z
_cell_length_a	10.654550
_cell_length_b	15.186229
_cell_length_c	16.109302
_cell_angle_alpha	90.003626
_cell_angle_beta	83.973497
_cell_angle_gamma	90.000116
loop_
_atom_site_label
_atom_site_type_symbol
_atom_site_fract_x
_atom_site_fract_y
_atom_site_fract_z
O1	O	1.666256	0.073163	0.116773
O2	O	1.300627	0.073179	0.127898
O3	O	1.493485	0.073165	0.001364
O4	O	1.473398	0.073177	0.243307
O5	O	1.493472	-0.073292	0.001363
O6	O	1.300614	-0.073278	0.127897
O7	O	1.666243	-0.073295	0.116771
Zn8	Zn	1.483426	-0.096540	0.122334
Zn9	Zn	1.483443	0.096424	0.122336
O10	O	1.473385	-0.073281	0.243305
C11	C	1.253833	-0.000048	0.127081
C12	C	1.114423	-0.000042	0.124637
N13	N	1.483424	-0.228232	0.122331
C14	C	1.033928	-0.000041	0.199138
C15	C	0.902938	-0.000056	0.196836
C16	C	0.932953	-0.000070	0.045526
C17	C	1.063940	-0.000061	0.047828
C18	C	1.568851	-0.453962	0.066321
C19	C	1.568855	-0.546151	0.066319
C20	C	1.398020	-0.546148	0.178344
C21	C	1.398011	-0.453960	0.178342
C22	C	1.483433	-0.407869	0.122331
C23	C	1.483446	-0.592247	0.122332
C24	C	1.483450	-0.692203	0.122330
C25	C	1.483429	-0.307907	0.122331
C26	C	1.713036	-0.000066	0.117589
C27	C	1.852447	-0.000066	0.120033
C28	C	1.492664	-0.000063	-0.029616
C29	C	1.490224	-0.000062	-0.121926
N30	N	1.483456	0.228117	0.122332
C31	C	1.474206	-0.000050	0.274286
C32	C	1.476646	-0.000046	0.366595
C33	C	1.482294	0.079782	0.578971
C34	C	1.484600	0.079780	0.665705
C35	C	1.484579	-0.079896	0.665692
C36	C	1.482283	-0.079893	0.578959
C37	C	1.481134	-0.000052	0.535601
C38	C	1.485736	-0.000056	0.709068
C39	C	1.488236	-0.000059	0.803109
C40	C	1.478636	-0.000049	0.441555
H41	H	1.075026	-0.000032	0.261680
H42	H	1.129483	-0.000064	-0.012843
C43	C	0.877408	-0.000083	-0.038959
N44	N	0.835573	-0.000089	-0.102594
H45	H	0.837403	-0.000057	0.257503
C46	C	1.485823	-0.167717	0.713395
N47	N	1.486752	-0.233865	0.749325
C48	C	1.481002	-0.167721	0.531250
N49	N	1.480039	-0.233870	0.495316
H50	H	1.328448	-0.416429	0.223952
C51	C	1.662807	-0.403265	0.004702
N52	N	1.733575	-0.365083	-0.041715
H53	H	1.638407	-0.583677	0.020710
H54	H	1.481357	0.144794	0.543672
C55	C	1.304058	-0.596856	0.239951
N56	N	1.233284	-0.635049	0.286354
C57	C	1.485873	0.167603	0.713408
N58	N	1.486832	0.233755	0.749337
