data_functionalizedCrystal
_audit_creation_method	'MofGen! by Chris Wilmer'
_symmetry_space_group_name_H-M	'P1'
_symmetry_Int_Tables_number	1
_symmetry_cell_setting	triclinic
loop_
_symmetry_equiv_pos_as_xyz
  x,y,z
_cell_length_a	12.594517
_cell_length_b	17.077402
_cell_length_c	12.594509
_cell_angle_alpha	90.032838
_cell_angle_beta	89.978673
_cell_angle_gamma	89.977317
loop_
_atom_site_label
_atom_site_type_symbol
_atom_site_fract_x
_atom_site_fract_y
_atom_site_fract_z
Zn1	Zn	1.627216	0.312489	-0.601826
Zn2	Zn	1.627086	0.443771	-0.423833
Zn3	Zn	1.449220	0.312522	-0.423855
Zn4	Zn	1.449181	0.443716	-0.601763
O5	O	1.538176	0.378124	-0.512819
O6	O	1.776145	0.329912	-0.578232
O7	O	1.603454	0.426397	-0.274890
O8	O	1.472903	0.202671	-0.447498
O9	O	1.776049	0.426364	-0.447461
O10	O	1.603676	0.202646	-0.578253
O11	O	1.472776	0.329969	-0.274906
O12	O	1.300269	0.329917	-0.447438
O13	O	1.472836	0.426272	-0.750717
O14	O	1.300241	0.426304	-0.578146
O15	O	1.603638	0.329859	-0.750764
O16	O	1.603416	0.553610	-0.447401
O17	O	1.472710	0.553570	-0.578125
C18	C	1.538073	0.582072	-0.512777
C19	C	1.538127	0.669322	-0.512794
C20	C	1.261635	0.378109	-0.512788
C21	C	1.143330	0.378121	-0.512800
C22	C	1.538247	0.378056	-0.790440
C23	C	1.538278	0.378026	-0.908746
C24	C	1.074061	0.325624	-0.441843
C25	C	1.003239	0.397227	-0.415655
C26	C	1.003353	0.306553	-0.539006
C27	C	1.074065	0.449761	-0.486561
C28	C	1.074186	0.359039	-0.609957
C29	C	1.003395	0.430691	-0.583806
C30	C	1.815797	0.378141	-0.512851
C31	C	1.934102	0.378148	-0.512865
C32	C	1.538308	0.173380	-0.512885
C33	C	1.538364	0.086130	-0.512913
C34	C	1.606255	0.710307	-0.444799
C35	C	1.606307	0.792287	-0.444826
C36	C	1.538225	0.833281	-0.512844
C37	C	1.470094	0.792291	-0.580847
C38	C	1.470048	0.710312	-0.580824
C39	C	1.470192	0.963161	-0.580887
C40	C	1.470236	1.045145	-0.580908
C41	C	1.606451	1.045136	-0.444889
C42	C	1.606405	0.963157	-0.444867
C43	C	1.538273	0.922172	-0.512868
C44	C	1.467157	0.430435	-0.977974
C45	C	1.564275	0.449615	-1.048762
C46	C	1.441236	0.358799	-1.048757
C47	C	1.635446	0.397244	-0.977976
C48	C	1.512342	0.306395	-0.977964
C49	C	1.609526	0.325547	-1.048720
C50	C	1.538166	0.378136	-0.236278
C51	C	1.538342	0.377944	-0.117973
H52	H	0.972077	0.413383	-0.333519
H53	H	1.104997	0.510314	-0.464332
C54	C	0.997646	0.565576	-0.637185
C55	C	0.961757	0.490703	-0.664847
H56	H	0.971932	0.602625	-0.687210
H57	H	1.073057	0.566186	-0.637192
H58	H	0.972273	0.578699	-0.568398
H59	H	0.987137	0.477578	-0.733631
H60	H	0.886331	0.490090	-0.664851
H61	H	1.414665	0.825675	-0.636232
H62	H	1.661931	1.078510	-0.389523
H63	H	1.669768	0.281192	-1.079588
H64	H	1.661837	0.929780	-0.389476
H65	H	1.717564	0.413540	-0.947015
C66	C	1.335616	1.036924	-0.715385
C67	C	1.395415	1.090208	-0.655689
H68	H	1.289432	1.064746	-0.761557
H69	H	1.294897	1.005004	-0.668975
H70	H	1.381967	1.004895	-0.756121
H71	H	1.349064	1.122234	-0.614947
H72	H	1.436137	1.122142	-0.702104
H73	H	0.972236	0.246026	-0.561107
C74	C	1.080670	0.262179	-0.748055
C75	C	1.116299	0.337201	-0.720802
H76	H	1.106678	0.248691	-0.816483
H77	H	1.005263	0.261562	-0.748731
H78	H	1.105923	0.225405	-0.697439
H79	H	1.091039	0.373977	-0.771414
H80	H	1.191722	0.337825	-0.720134
H81	H	1.414715	0.929793	-0.636265
H82	H	1.105089	0.281273	-0.381763
H83	H	1.414572	0.676943	-0.636194
C84	C	1.740905	0.718541	-0.310358
C85	C	1.681094	0.665250	-0.370030
H86	H	1.787114	0.690725	-0.264204
H87	H	1.694572	0.750565	-0.269613
H88	H	1.781608	0.750466	-0.356792
H89	H	1.640385	0.633329	-0.323596
H90	H	1.727433	0.633213	-0.410778
C91	C	1.413487	0.565287	-0.971771
C92	C	1.386029	0.490354	-0.936028
H93	H	1.363408	0.602278	-0.945868
H94	H	1.413398	0.565995	-1.047179
H95	H	1.482272	0.578411	-0.946488
H96	H	1.317247	0.477228	-0.961317
H97	H	1.386107	0.489644	-0.860603
H98	H	1.586246	0.510157	-1.079861
C99	C	1.749713	0.884238	-0.430413
C100	C	1.681369	0.837266	-0.370178
H101	H	1.796111	0.911980	-0.384354
H102	H	1.709182	0.920439	-0.470829
H103	H	1.790209	0.852147	-0.476897
H104	H	1.640866	0.869358	-0.323699
H105	H	1.721904	0.801061	-0.329744
H106	H	1.490342	0.245870	-0.946842
H107	H	1.359142	0.342571	-1.079848
