data_functionalizedCrystal
_audit_creation_method	'MofGen! by Chris Wilmer'
_symmetry_space_group_name_H-M	'P1'
_symmetry_Int_Tables_number	1
_symmetry_cell_setting	triclinic
loop_
_symmetry_equiv_pos_as_xyz
  x,y,z
_cell_length_a	21.295418
_cell_length_b	21.295418
_cell_length_c	18.050582
_cell_angle_alpha	89.965893
_cell_angle_beta	89.974933
_cell_angle_gamma	90.043213
loop_
_atom_site_label
_atom_site_type_symbol
_atom_site_fract_x
_atom_site_fract_y
_atom_site_fract_z
Zn1	Zn	-0.250383	0.962310	-0.420280
Zn2	Zn	-0.000383	1.212310	-0.170280
Zn3	Zn	0.249617	1.462310	0.079720
Zn4	Zn	0.499617	1.712310	0.329720
Zn5	Zn	-0.355645	0.962235	-0.296085
Zn6	Zn	-0.105645	1.212235	-0.046085
Zn7	Zn	0.144355	1.462235	0.203915
Zn8	Zn	0.394355	1.712235	0.453915
Zn9	Zn	-0.250422	0.857050	-0.296062
Zn10	Zn	-0.000422	1.107050	-0.046062
Zn11	Zn	0.249578	1.357050	0.203938
Zn12	Zn	0.499578	1.607050	0.453938
Zn13	Zn	-0.355648	0.857008	-0.420191
Zn14	Zn	-0.105648	1.107008	-0.170191
Zn15	Zn	0.144352	1.357008	0.079809
Zn16	Zn	0.394352	1.607008	0.329809
O17	O	-0.303025	0.909651	-0.358155
O18	O	-0.053025	1.159651	-0.108155
O19	O	0.196975	1.409651	0.141845
O20	O	0.446975	1.659651	0.391845
O21	O	-0.264329	1.050389	-0.403851
O22	O	-0.014329	1.300389	-0.153851
O23	O	0.235671	1.550389	0.096149
O24	O	0.485671	1.800389	0.346149
O25	O	-0.341702	0.948269	-0.192157
O26	O	-0.091702	1.198269	0.057843
O27	O	0.158298	1.448269	0.307843
O28	O	0.408298	1.698269	0.557843
O29	O	-0.162328	0.871062	-0.312568
O30	O	0.087672	1.121062	-0.062568
O31	O	0.337672	1.371062	0.187432
O32	O	0.587672	1.621062	0.437432
O33	O	-0.341664	1.050335	-0.312606
O34	O	-0.091664	1.300335	-0.062606
O35	O	0.158336	1.550335	0.187394
O36	O	0.408336	1.800335	0.437394
O37	O	-0.162299	0.948396	-0.403830
O38	O	0.087701	1.198396	-0.153830
O39	O	0.337701	1.448396	0.096170
O40	O	0.587701	1.698396	0.346170
O41	O	-0.264395	0.870990	-0.192141
O42	O	-0.014395	1.120990	0.057859
O43	O	0.235605	1.370990	0.307859
O44	O	0.485605	1.620990	0.557859
O45	O	-0.264398	0.768955	-0.312482
O46	O	-0.014398	1.018955	-0.062482
O47	O	0.235602	1.268955	0.187518
O48	O	0.485602	1.518955	0.437518
O49	O	-0.341669	0.870990	-0.524128
O50	O	-0.091669	1.120990	-0.274128
O51	O	0.158331	1.370990	-0.024128
O52	O	0.408331	1.620990	0.225872
O53	O	-0.341707	0.768924	-0.403679
O54	O	-0.091707	1.018924	-0.153679
O55	O	0.158293	1.268924	0.096321
O56	O	0.408293	1.518924	0.346321
O57	O	-0.264332	0.948354	-0.524193
O58	O	-0.014332	1.198354	-0.274193
O59	O	0.235668	1.448354	-0.024193
O60	O	0.485668	1.698354	0.225807
O61	O	-0.443735	0.948228	-0.312520
O62	O	-0.193735	1.198228	-0.062520
O63	O	0.056265	1.448228	0.187480
O64	O	0.306265	1.698228	0.437480
O65	O	-0.443737	0.870918	-0.403701
O66	O	-0.193737	1.120918	-0.153701
O67	O	0.056263	1.370918	0.096299
O68	O	0.306263	1.620918	0.346299
C69	C	-0.466576	0.909577	-0.358119
C70	C	-0.216576	1.159577	-0.108119
C71	C	0.033424	1.409577	0.141881
C72	C	0.283424	1.659577	0.391881
C73	C	-0.536544	0.909603	-0.358129
C74	C	-0.286544	1.159603	-0.108129
C75	C	-0.036544	1.409603	0.141871
C76	C	0.213456	1.659603	0.391871
C77	C	-0.303058	0.746099	-0.358069
C78	C	-0.053058	0.996099	-0.108069
C79	C	0.196942	1.246099	0.141931
C80	C	0.446942	1.496099	0.391931
C81	C	-0.303087	0.676131	-0.358050
C82	C	-0.053087	0.926131	-0.108050
C83	C	0.196913	1.176131	0.141950
C84	C	0.446913	1.426131	0.391950
C85	C	-1.035980	0.950057	-0.310797
C86	C	-0.785980	1.200057	-0.060797
C87	C	-0.535980	1.450057	0.189203
C88	C	-0.285980	1.700057	0.439203
C89	C	-0.970238	0.950033	-0.310779
C90	C	-0.720238	1.200033	-0.060779
C91	C	-0.470238	1.450033	0.189221
C92	C	-0.220238	1.700033	0.439221
C93	C	-0.937384	0.909739	-0.358207
C94	C	-0.687384	1.159739	-0.108207
C95	C	-0.437384	1.409739	0.141793
C96	C	-0.187384	1.659739	0.391793
C97	C	-0.970278	0.869455	-0.405642
C98	C	-0.720278	1.119455	-0.155642
C99	C	-0.470278	1.369455	0.094358
C100	C	-0.220278	1.619455	0.344358
C101	C	-1.036019	0.869476	-0.405653
C102	C	-0.786019	1.119476	-0.155653
C103	C	-0.536019	1.369476	0.094347
C104	C	-0.286019	1.619476	0.344347
N105	N	-0.834137	0.904841	-0.423190
N106	N	-0.584137	1.154841	-0.173190
N107	N	-0.334137	1.404841	0.076810
N108	N	-0.084137	1.654841	0.326810
N109	N	-0.771686	0.904825	-0.423177
N110	N	-0.521686	1.154825	-0.173177
N111	N	-0.271686	1.404825	0.076823
N112	N	-0.021686	1.654825	0.326823
C113	C	-0.739309	0.909674	-0.358175
C114	C	-0.489309	1.159674	-0.108175
C115	C	-0.239309	1.409674	0.141825
C116	C	0.010691	1.659674	0.391825
N117	N	-0.771743	0.914551	-0.293185
N118	N	-0.521743	1.164551	-0.043185
N119	N	-0.271743	1.414551	0.206815
N120	N	-0.021743	1.664551	0.456815
N121	N	-0.834200	0.914570	-0.293199
N122	N	-0.584200	1.164570	-0.043199
N123	N	-0.334200	1.414570	0.206801
N124	N	-0.084200	1.664570	0.456801
C125	C	-0.866098	0.909712	-0.358200
C126	C	-0.616098	1.159712	-0.108200
C127	C	-0.366098	1.409712	0.141800
C128	C	-0.116098	1.659712	0.391800
C129	C	-0.635137	0.949927	-0.310720
C130	C	-0.385137	1.199927	-0.060720
C131	C	-0.135137	1.449927	0.189280
C132	C	0.114863	1.699927	0.439280
C133	C	-0.569394	0.949898	-0.310702
C134	C	-0.319394	1.199898	-0.060702
C135	C	-0.069394	1.449898	0.189298
C136	C	0.180606	1.699898	0.439298
C137	C	-0.569435	0.869323	-0.405571
C138	C	-0.319435	1.119323	-0.155571
C139	C	-0.069435	1.369323	0.094429
C140	C	0.180565	1.619323	0.344429
C141	C	-0.635178	0.869348	-0.405583
C142	C	-0.385178	1.119348	-0.155583
C143	C	-0.135178	1.369348	0.094417
C144	C	0.114822	1.619348	0.344417
C145	C	-0.668025	0.909653	-0.358159
C146	C	-0.418025	1.159653	-0.108159
C147	C	-0.168025	1.409653	0.141841
C148	C	0.081975	1.659653	0.391841
C149	C	-0.343395	0.643265	-0.405465
C150	C	-0.093395	0.893265	-0.155465
C151	C	0.156605	1.143265	0.094535
C152	C	0.406605	1.393265	0.344535
C153	C	-0.343379	0.577522	-0.405499
C154	C	-0.093379	0.827522	-0.155499
C155	C	0.156621	1.077522	0.094501
C156	C	0.406621	1.327522	0.344501
C157	C	-0.303063	0.544648	-0.358104
C158	C	-0.053063	0.794648	-0.108104
C159	C	0.196937	1.044648	0.141896
C160	C	0.446937	1.294648	0.391896
C161	C	-0.262747	0.577523	-0.310685
C162	C	-0.012747	0.827523	-0.060685
C163	C	0.237253	1.077523	0.189315
C164	C	0.487253	1.327523	0.439315
C165	C	-0.262759	0.643264	-0.310658
C166	C	-0.012759	0.893264	-0.060658
C167	C	0.237241	1.143264	0.189342
C168	C	0.487241	1.393264	0.439342
N169	N	-0.298140	0.441381	-0.293148
N170	N	-0.048140	0.691381	-0.043148
N171	N	0.201860	0.941381	0.206852
N172	N	0.451860	1.191381	0.456852
N173	N	-0.298133	0.378930	-0.293176
N174	N	-0.048133	0.628930	-0.043176
N175	N	0.201867	0.878930	0.206824
N176	N	0.451867	1.128930	0.456824
C177	C	-0.303022	0.346574	-0.358182
C178	C	-0.053022	0.596574	-0.108182
C179	C	0.196978	0.846574	0.141818
C180	C	0.446978	1.096574	0.391818
N181	N	-0.307933	0.379028	-0.423162
N182	N	-0.057933	0.629028	-0.173162
N183	N	0.192067	0.879028	0.076838
N184	N	0.442067	1.129028	0.326838
N185	N	-0.307944	0.441485	-0.423133
N186	N	-0.057944	0.691485	-0.173133
N187	N	0.192056	0.941485	0.076867
N188	N	0.442056	1.191485	0.326867
C189	C	-0.303045	0.473363	-0.358128
C190	C	-0.053045	0.723363	-0.108128
C191	C	0.196955	0.973363	0.141872
C192	C	0.446955	1.223363	0.391872
C193	C	-0.343316	0.242422	-0.405638
C194	C	-0.093316	0.492422	-0.155638
C195	C	0.156684	0.742422	0.094362
C196	C	0.406684	0.992422	0.344362
C197	C	-0.343296	0.176678	-0.405672
C198	C	-0.093296	0.426678	-0.155672
C199	C	0.156704	0.676678	0.094328
C200	C	0.406704	0.926678	0.344328
C201	C	-0.262667	0.176680	-0.310852
C202	C	-0.012667	0.426680	-0.060852
C203	C	0.237333	0.676680	0.189148
C204	C	0.487333	0.926680	0.439148
C205	C	-0.262683	0.242423	-0.310824
C206	C	-0.012683	0.492423	-0.060824
C207	C	0.237317	0.742423	0.189176
C208	C	0.487317	0.992423	0.439176
C209	C	-0.303011	0.275290	-0.358216
C210	C	-0.053011	0.525290	-0.108216
C211	C	0.196989	0.775290	0.141784
C212	C	0.446989	1.025290	0.391784
C213	C	-0.138834	0.909742	-0.358206
C214	C	0.111166	1.159742	-0.108206
C215	C	0.361166	1.409742	0.141794
C216	C	0.611166	1.659742	0.391794
C217	C	-0.068866	0.909781	-0.358229
C218	C	0.181134	1.159781	-0.108229
C219	C	0.431134	1.409781	0.141771
C220	C	0.681134	1.659781	0.391771
C221	C	-0.302997	0.909675	-0.551860
C222	C	-0.052997	1.159675	-0.301860
C223	C	0.197003	1.409675	-0.051860
C224	C	0.447003	1.659675	0.198140
C225	C	-0.302985	0.909686	-0.634406
C226	C	-0.052985	1.159686	-0.384406
C227	C	0.197015	1.409686	-0.134406
C228	C	0.447015	1.659686	0.115594
C229	C	-0.302992	1.073841	-0.358241
C230	C	-0.052992	1.323841	-0.108241
C231	C	0.197008	1.573841	0.141759
C232	C	0.447008	1.823841	0.391759
C233	C	-0.302978	1.143809	-0.358278
C234	C	-0.052978	1.393809	-0.108278
C235	C	0.197022	1.643809	0.141722
C236	C	0.447022	1.893809	0.391722
C237	C	-0.344983	0.867647	-0.833822
C238	C	-0.094983	1.117647	-0.583822
C239	C	0.155017	1.367647	-0.333822
C240	C	0.405017	1.617647	-0.083822
C241	C	-0.360355	0.925079	-0.883235
C242	C	-0.110355	1.175079	-0.633235
C243	C	0.139645	1.425079	-0.383235
C244	C	0.389645	1.675079	-0.133235
C245	C	-0.302937	0.909717	-0.785537
C246	C	-0.052937	1.159717	-0.535537
C247	C	0.197063	1.409717	-0.285537
C248	C	0.447063	1.659717	-0.035537
C249	C	-0.287548	0.852317	-0.883205
C250	C	-0.037548	1.102317	-0.633205
C251	C	0.212452	1.352317	-0.383205
C252	C	0.462452	1.602317	-0.133205
C253	C	-0.302891	0.909742	-0.931522
C254	C	-0.052891	1.159742	-0.681522
C255	C	0.197109	1.409742	-0.431522
C256	C	0.447109	1.659742	-0.181522
C257	C	-0.318338	0.967179	-0.833863
C258	C	-0.068338	1.217179	-0.583863
C259	C	0.181662	1.467179	-0.333863
C260	C	0.431662	1.717179	-0.083863
C261	C	-0.245504	0.894378	-0.833829
C262	C	0.004496	1.144378	-0.583829
C263	C	0.254496	1.394378	-0.333829
C264	C	0.504496	1.644378	-0.083829
C265	C	-0.260854	0.951849	-0.883220
C266	C	-0.010854	1.201849	-0.633220
C267	C	0.239146	1.451849	-0.383220
C268	C	0.489146	1.701849	-0.133220
C269	C	-0.302964	0.909702	-0.701438
C270	C	-0.052964	1.159702	-0.451438
C271	C	0.197036	1.409702	-0.201438
C272	C	0.447036	1.659702	0.048562
C273	C	-0.302864	0.909764	-1.015618
C274	C	-0.052864	1.159764	-0.765618
C275	C	0.197136	1.409764	-0.515618
C276	C	0.447136	1.659764	-0.265618
C277	C	-0.303007	0.909662	-0.165203
C278	C	-0.053007	1.159662	0.084797
C279	C	0.196993	1.409662	0.334797
C280	C	0.446993	1.659662	0.584797
C281	C	-0.302842	0.909774	-0.082657
C282	C	-0.052842	1.159774	0.167343
C283	C	0.197158	1.409774	0.417343
C284	C	0.447158	1.659774	0.667343
H285	H	-1.062720	0.982875	-0.272177
H286	H	-0.812720	1.232875	-0.022177
H287	H	-0.562720	1.482875	0.227823
H288	H	-0.312720	1.732875	0.477823
H289	H	-0.229837	0.149915	-0.272265
H290	H	0.020163	0.399915	-0.022265
H291	H	0.270163	0.649915	0.227735
H292	H	0.520163	0.899915	0.477735
H293	H	-0.661883	0.982745	-0.272104
H294	H	-0.411883	1.232745	-0.022104
H295	H	-0.161883	1.482745	0.227896
H296	H	0.088117	1.732745	0.477896
H297	H	-0.229863	0.269183	-0.272210
H298	H	0.020137	0.519183	-0.022210
H299	H	0.270137	0.769183	0.227790
H300	H	0.520137	1.019183	0.477790
F301	F	-0.182064	0.877380	-0.805440
F302	F	0.067936	1.127380	-0.555440
F303	F	0.317936	1.377380	-0.305440
F304	F	0.567936	1.627380	-0.055440
H305	H	-0.274551	0.803764	-0.904881
H306	H	-0.024551	1.053764	-0.654881
H307	H	0.225449	1.303764	-0.404881
H308	H	0.475449	1.553764	-0.154881
H309	H	-0.661954	0.836552	-0.444210
H310	H	-0.411954	1.086552	-0.194210
H311	H	-0.161954	1.336552	0.055790
H312	H	0.088046	1.586552	0.305790
H313	H	-0.331391	1.015746	-0.812279
H314	H	-0.081391	1.265746	-0.562279
H315	H	0.168609	1.515746	-0.312279
H316	H	0.418609	1.765746	-0.062279
F317	F	-0.423812	0.942057	-0.911602
F318	F	-0.173812	1.192057	-0.661602
F319	F	0.076188	1.442057	-0.411602
F320	F	0.326188	1.692057	-0.161602
F321	F	-0.391518	0.821189	-0.805470
F322	F	-0.141518	1.071189	-0.555470
F323	F	0.108482	1.321189	-0.305470
F324	F	0.358482	1.571189	-0.055470
F325	F	-0.214353	0.998417	-0.911394
F326	F	0.035647	1.248417	-0.661394
F327	F	0.285647	1.498417	-0.411394
F328	F	0.535647	1.748417	-0.161394
F329	F	-0.534474	0.826432	-0.456040
F330	F	-0.284474	1.076432	-0.206040
F331	F	-0.034474	1.326432	0.043960
F332	F	0.215526	1.576432	0.293960
F333	F	-0.935312	0.826570	-0.456116
F334	F	-0.685312	1.076570	-0.206116
F335	F	-0.435312	1.326570	0.043884
F336	F	-0.185312	1.576570	0.293884
F337	F	-1.071020	0.826607	-0.456140
F338	F	-0.821020	1.076607	-0.206140
F339	F	-0.571020	1.326607	0.043860
F340	F	-0.321020	1.576607	0.293860
F341	F	-0.935231	0.992900	-0.260290
F342	F	-0.685231	1.242900	-0.010290
F343	F	-0.435231	1.492900	0.239710
F344	F	-0.185231	1.742900	0.489710
H345	H	-0.376118	0.149919	-0.444288
H346	H	-0.126118	0.399919	-0.194288
H347	H	0.123882	0.649919	0.055712
H348	H	0.373882	0.899919	0.305712
F349	F	-0.386314	0.678240	-0.455907
F350	F	-0.136314	0.928240	-0.205907
F351	F	0.113686	1.178240	0.044093
F352	F	0.363686	1.428240	0.294093
F353	F	-0.534394	0.992768	-0.260214
F354	F	-0.284394	1.242768	-0.010214
F355	F	-0.034394	1.492768	0.239786
F356	F	0.215606	1.742768	0.489786
F357	F	-0.386282	0.542536	-0.455967
F358	F	-0.136282	0.792536	-0.205967
F359	F	0.113718	1.042536	0.044033
F360	F	0.363718	1.292536	0.294033
H361	H	-0.229934	0.670024	-0.272047
H362	H	0.020066	0.920024	-0.022047
H363	H	0.270066	1.170024	0.227953
H364	H	0.520066	1.420024	0.477953
F365	F	-0.386233	0.277403	-0.456079
F366	F	-0.136233	0.527403	-0.206079
F367	F	0.113767	0.777403	0.043921
F368	F	0.363767	1.027403	0.293921
F369	F	-0.219836	0.542536	-0.260247
F370	F	0.030164	0.792536	-0.010247
F371	F	0.280164	1.042536	0.239753
F372	F	0.530164	1.292536	0.489753
