data_functionalizedCrystal
_audit_creation_method	'MofGen! by Chris Wilmer'
_symmetry_space_group_name_H-M	'P1'
_symmetry_Int_Tables_number	1
_symmetry_cell_setting	triclinic
loop_
_symmetry_equiv_pos_as_xyz
  x,y,z
_cell_length_a	17.077404
_cell_length_b	13.897448
_cell_length_c	17.077396
_cell_angle_alpha	90.027368
_cell_angle_beta	90.019501
_cell_angle_gamma	90.017917
loop_
_atom_site_label
_atom_site_type_symbol
_atom_site_fract_x
_atom_site_fract_y
_atom_site_fract_z
Zn1	Zn	1.200083	-0.384009	0.443849
Zn2	Zn	1.700083	0.115991	0.943849
Zn3	Zn	1.200002	-0.545322	0.312585
Zn4	Zn	1.700002	-0.045322	0.812585
Zn5	Zn	1.068815	-0.384043	0.312597
Zn6	Zn	1.568815	0.115957	0.812597
Zn7	Zn	1.068795	-0.545264	0.443809
Zn8	Zn	1.568795	-0.045264	0.943809
O9	O	1.134424	-0.464660	0.378210
O10	O	1.634424	0.035340	0.878210
O11	O	1.309919	-0.405417	0.426448
O12	O	1.809919	0.094583	0.926448
O13	O	1.182574	-0.523966	0.202740
O14	O	1.682574	-0.023966	0.702740
O15	O	1.086270	-0.249057	0.330029
O16	O	1.586270	0.250943	0.830029
O17	O	1.309860	-0.523933	0.330010
O18	O	1.809860	-0.023933	0.830010
O19	O	1.182712	-0.249032	0.426459
O20	O	1.682712	0.250968	0.926459
O21	O	1.086192	-0.405475	0.202748
O22	O	1.586192	0.094525	0.702748
O23	O	0.958965	-0.405420	0.329990
O24	O	1.458965	0.094580	0.829990
O25	O	1.086236	-0.523835	0.553661
O26	O	1.586236	-0.023835	1.053661
O27	O	0.958950	-0.523868	0.426391
O28	O	1.458950	-0.023868	0.926391
O29	O	1.182693	-0.405362	0.553690
O30	O	1.682693	0.094638	1.053690
O31	O	1.182555	-0.680296	0.329971
O32	O	1.682555	-0.180296	0.829971
O33	O	1.086157	-0.680254	0.426380
O34	O	1.586157	-0.180254	0.926380
C35	C	0.930476	-0.464642	0.378188
C36	C	1.430476	0.035358	0.878188
C37	C	0.843226	-0.464658	0.378198
C38	C	1.343226	0.035342	0.878198
C39	C	1.134366	-0.715274	0.378187
C40	C	1.634366	-0.215274	0.878187
C41	C	1.134414	-0.822488	0.378204
C42	C	1.634414	-0.322488	0.878204
C43	C	0.802249	-0.526427	0.428313
C44	C	1.302249	-0.026427	0.928313
C45	C	0.720268	-0.526429	0.428326
C46	C	1.220268	-0.026429	0.928326
C47	C	0.679267	-0.464666	0.378218
C48	C	1.179267	0.035334	0.878218
C49	C	0.720250	-0.402890	0.328100
C50	C	1.220250	0.097110	0.828100
C51	C	0.802229	-0.402884	0.328092
C52	C	1.302229	0.097116	0.828092
C53	C	0.549380	-0.402909	0.328119
C54	C	1.049380	0.097091	0.828119
C55	C	0.467395	-0.402916	0.328126
C56	C	0.967395	0.097084	0.828126
C57	C	0.467419	-0.526454	0.428353
C58	C	0.967419	-0.026454	0.928353
C59	C	0.549398	-0.526448	0.428345
C60	C	1.049398	-0.026448	0.928345
C61	C	0.590376	-0.464673	0.378226
C62	C	1.090376	0.035327	0.878226
C63	C	1.134496	-1.018783	0.378253
C64	C	1.634496	-0.518783	0.878253
C65	C	1.134448	-0.909550	0.378228
C66	C	1.634448	-0.409550	0.878228
C67	C	1.339168	-0.464678	0.378232
C68	C	1.839168	0.035322	0.878232
C69	C	1.426418	-0.464686	0.378242
C70	C	1.926418	0.035314	0.878242
C71	C	1.134471	-0.464588	0.582954
C72	C	1.634471	0.035412	1.082954
C73	C	1.134491	-0.464558	0.670204
C74	C	1.634491	0.035442	1.170204
C75	C	1.134502	-0.213067	0.378250
C76	C	1.634502	0.286933	0.878250
C77	C	1.134536	-0.105853	0.378267
C78	C	1.634536	0.394147	0.878267
C79	C	1.134421	-0.464661	0.174262
C80	C	1.634421	0.035339	0.674262
C81	C	1.134553	-0.464419	0.087013
C82	C	1.634553	0.035581	0.587013
C83	C	1.184718	-0.402864	0.711211
C84	C	1.684718	0.097136	1.211211
C85	C	1.184728	-0.402832	0.793191
C86	C	1.684728	0.097168	1.293191
C87	C	1.134514	-0.464500	0.834164
C88	C	1.634514	0.035500	1.334164
C89	C	1.084281	-0.526197	0.793151
C90	C	1.584281	-0.026197	1.293151
C91	C	1.084268	-0.526223	0.711172
C92	C	1.584268	-0.026223	1.211172
C93	C	1.084313	-0.526139	0.964021
C94	C	1.584313	-0.026139	1.464021
C95	C	1.084326	-0.526114	1.046006
C96	C	1.584326	-0.026114	1.546006
C97	C	1.184772	-0.402747	1.046040
C98	C	1.684772	0.097253	1.546040
C99	C	1.184759	-0.402774	0.964061
C100	C	1.684759	0.097226	1.464061
C101	C	1.134528	-0.464472	0.923055
C102	C	1.634528	0.035528	1.423055
H103	H	0.835626	-0.576725	0.469114
H104	H	1.335626	-0.076725	0.969114
H105	H	1.225629	-0.352596	0.826575
H106	H	1.725629	0.147404	1.326575
H107	H	0.582779	-0.576746	0.469142
H108	H	1.082779	-0.076746	0.969142
H109	H	0.686908	-0.576729	0.469134
H110	H	1.186908	-0.076729	0.969134
C111	C	1.239308	-0.335717	0.919717
C112	C	1.739308	0.164283	1.419717
C113	C	1.283286	-0.281659	0.973173
C114	C	1.783286	0.218341	1.473173
C115	C	1.333535	-0.219865	0.932351
C116	C	1.833535	0.280135	1.432351
H117	H	1.273561	-0.372523	0.887733
H118	H	1.773561	0.127477	1.387733
H119	H	1.209303	-0.293646	0.887756
H120	H	1.709303	0.206354	1.387756
H121	H	1.313288	-0.323724	1.005120
H122	H	1.813288	0.176276	1.505120
H123	H	1.249054	-0.244832	1.005158
H124	H	1.749054	0.255168	1.505158
H125	H	1.303531	-0.177794	0.900390
H126	H	1.803531	0.322206	1.400390
H127	H	1.367783	-0.256679	0.900369
H128	H	1.867783	0.243321	1.400369
H129	H	1.363376	-0.183173	0.968614
H130	H	1.863376	0.316827	1.468614
C131	C	1.239213	-0.335781	1.090699
C132	C	1.739213	0.164219	1.590699
C133	C	1.228458	-0.348926	1.171263
C134	C	1.728458	0.151074	1.671263
C135	C	1.278585	-0.287246	1.212430
C136	C	1.778585	0.212754	1.712430
H137	H	1.291983	-0.349839	1.077373
H138	H	1.791983	0.150161	1.577373
H139	H	1.227730	-0.270957	1.077311
H140	H	1.727730	0.229043	1.577311
H141	H	1.239947	-0.413735	1.184646
H142	H	1.739947	0.086265	1.684646
H143	H	1.175699	-0.334861	1.184613
H144	H	1.675699	0.165139	1.684613
H145	H	1.267102	-0.222422	1.199041
H146	H	1.767102	0.277578	1.699041
H147	H	1.331352	-0.301309	1.199097
H148	H	1.831352	0.198691	1.699097
H149	H	1.271289	-0.296150	1.267096
H150	H	1.771289	0.203850	1.767096
H151	H	0.582741	-0.352597	0.287314
H152	H	1.082741	0.147403	0.787314
H153	H	1.043436	-0.576327	1.079364
H154	H	1.543436	-0.076327	1.579364
H155	H	0.686860	-0.352597	0.287305
H156	H	1.186860	0.147403	0.787305
C157	C	0.846580	-0.335789	0.273589
C158	C	1.346580	0.164211	0.773589
C159	C	0.793128	-0.281720	0.229692
C160	C	1.293128	0.218280	0.729692
C161	C	0.833955	-0.219909	0.179468
C162	C	1.333955	0.280091	0.679468
H163	H	0.878586	-0.293718	0.303584
H164	H	1.378586	0.206282	0.803584
H165	H	0.878519	-0.372614	0.239291
H166	H	1.378519	0.127386	0.739291
H167	H	0.761202	-0.244898	0.263986
H168	H	1.261202	0.255102	0.763986
H169	H	0.761121	-0.323765	0.199681
H170	H	1.261121	0.176235	0.699681
H171	H	0.865894	-0.256734	0.145169
H172	H	1.365894	0.243266	0.645169
H173	H	0.865959	-0.177845	0.209469
H174	H	1.365959	0.322155	0.709469
H175	H	0.797694	-0.183223	0.149672
H176	H	1.297694	0.316777	0.649672
C177	C	1.029892	-0.593269	0.837675
C178	C	1.529892	-0.093269	1.337675
C179	C	1.074327	-0.655102	0.884720
C180	C	1.574327	-0.155102	1.384720
C181	C	1.024252	-0.716913	0.925737
C182	C	1.524252	-0.216913	1.425737
H183	H	0.995692	-0.556469	0.869721
H184	H	1.495692	-0.056469	1.369721
H185	H	0.999988	-0.630072	0.801535
H186	H	1.499988	-0.130072	1.301535
H187	H	1.104217	-0.618303	0.920856
H188	H	1.604217	-0.118303	1.420856
H189	H	1.108524	-0.691923	0.852694
H190	H	1.608524	-0.191923	1.352694
H191	H	0.994348	-0.753716	0.889597
H192	H	1.494348	-0.253716	1.389597
H193	H	0.990054	-0.680105	0.957778
H194	H	1.490054	-0.180105	1.457778
H195	H	1.054394	-0.758879	0.957656
H196	H	1.554394	-0.258879	1.457656
H197	H	1.043360	-0.576451	0.677786
H198	H	1.543360	-0.076451	1.177786
H199	H	1.043396	-0.576365	0.930636
H200	H	1.543396	-0.076365	1.430636
H201	H	0.434051	-0.576751	0.469164
H202	H	0.934051	-0.076751	0.969164
H203	H	1.225611	-0.352650	0.677857
H204	H	1.725611	0.147350	1.177857
C205	C	0.423018	-0.335749	0.273699
C206	C	0.923018	0.164251	0.773699
C207	C	0.476448	-0.281623	0.229825
C208	C	0.976448	0.218377	0.729825
C209	C	0.435597	-0.219728	0.179687
C210	C	0.935597	0.280272	0.679687
H211	H	0.391013	-0.372486	0.239376
H212	H	0.891013	0.127514	0.739376
H213	H	0.391076	-0.293726	0.303779
H214	H	0.891076	0.206274	0.803779
H215	H	0.508378	-0.323640	0.199748
H216	H	1.008378	0.176360	0.699748
H217	H	0.508455	-0.244866	0.264128
H218	H	1.008455	0.255134	0.764128
H219	H	0.403655	-0.177705	0.209767
H220	H	0.903655	0.322295	0.709767
H221	H	0.403594	-0.256473	0.145369
H222	H	0.903594	0.243527	0.645369
H223	H	0.471843	-0.182990	0.149918
H224	H	0.971843	0.317010	0.649918
