data_functionalizedCrystal
_audit_creation_method	'MofGen! by Chris Wilmer'
_symmetry_space_group_name_H-M	'P1'
_symmetry_Int_Tables_number	1
_symmetry_cell_setting	triclinic
loop_
_symmetry_equiv_pos_as_xyz
  x,y,z
_cell_length_a	17.077404
_cell_length_b	16.625546
_cell_length_c	17.077396
_cell_angle_alpha	89.968950
_cell_angle_beta	89.980813
_cell_angle_gamma	90.020715
loop_
_atom_site_label
_atom_site_type_symbol
_atom_site_fract_x
_atom_site_fract_y
_atom_site_fract_z
Zn1	Zn	1.200039	-0.321033	-0.443874
Zn2	Zn	1.700039	0.178967	0.056126
Zn3	Zn	1.199953	-0.455877	-0.312604
Zn4	Zn	1.699953	0.044123	0.187396
Zn5	Zn	1.068776	-0.321058	-0.312617
Zn6	Zn	1.568776	0.178942	0.187383
Zn7	Zn	1.068740	-0.455823	-0.443823
Zn8	Zn	1.568740	0.044177	0.056177
O9	O	1.134377	-0.388448	-0.378230
O10	O	1.634377	0.111552	0.121770
O11	O	1.309875	-0.338932	-0.426476
O12	O	1.809875	0.161068	0.073524
O13	O	1.182531	-0.438027	-0.202759
O14	O	1.682531	0.061973	0.297241
O15	O	1.086240	-0.208222	-0.330056
O16	O	1.586240	0.291778	0.169944
O17	O	1.309811	-0.438002	-0.330033
O18	O	1.809811	0.061998	0.169967
O19	O	1.182679	-0.208204	-0.426489
O20	O	1.682679	0.291796	0.073511
O21	O	1.086156	-0.338976	-0.202769
O22	O	1.586156	0.161024	0.297231
O23	O	0.958925	-0.338923	-0.330006
O24	O	1.458925	0.161077	0.169994
O25	O	1.086178	-0.437909	-0.553677
O26	O	1.586178	0.062091	-0.053677
O27	O	0.958898	-0.437934	-0.426403
O28	O	1.458898	0.062066	0.073597
O29	O	1.182643	-0.338879	-0.553714
O30	O	1.682643	0.161121	-0.053714
O31	O	1.182496	-0.568703	-0.329984
O32	O	1.682496	-0.068703	0.170016
O33	O	1.086094	-0.568663	-0.426390
O34	O	1.586094	-0.068663	0.073610
C35	C	0.930429	-0.388426	-0.378201
C36	C	1.430429	0.111574	0.121799
C37	C	0.843180	-0.388436	-0.378207
C38	C	1.343180	0.111564	0.121793
C39	C	1.134303	-0.597939	-0.378197
C40	C	1.634303	-0.097939	0.121803
C41	C	1.134343	-0.687560	-0.378209
C42	C	1.634343	-0.187560	0.121791
C43	C	0.467395	-0.336977	-0.428557
C44	C	0.967395	0.163023	0.071443
C45	C	0.549376	-0.336971	-0.428548
C46	C	1.049376	0.163029	0.071452
C47	C	0.590331	-0.388465	-0.378249
C48	C	1.090331	0.111535	0.121751
C49	C	0.549301	-0.439973	-0.327962
C50	C	1.049301	0.060027	0.172038
C51	C	0.467322	-0.439983	-0.327975
C52	C	0.967322	0.060017	0.172025
C53	C	0.720171	-0.439949	-0.327936
C54	C	1.220171	0.060051	0.172064
C55	C	0.802155	-0.439939	-0.327922
C56	C	1.302155	0.060061	0.172078
C57	C	0.802225	-0.336938	-0.428509
C58	C	1.302225	0.163062	0.071491
C59	C	0.720246	-0.336947	-0.428523
C60	C	1.220246	0.163053	0.071477
C61	C	0.679222	-0.388455	-0.378234
C62	C	1.179222	0.111545	0.121766
C63	C	1.134480	-1.015735	-0.378291
C64	C	1.634480	-0.515735	0.121709
C65	C	1.134439	-0.924427	-0.378270
C66	C	1.634439	-0.424427	0.121730
C67	C	1.134411	-0.851650	-0.378249
C68	C	1.634411	-0.351650	0.121751
C69	C	1.134371	-0.760336	-0.378230
C70	C	1.634371	-0.260336	0.121770
C71	C	1.339121	-0.388470	-0.378259
C72	C	1.839121	0.111530	0.121741
C73	C	1.426371	-0.388480	-0.378271
C74	C	1.926371	0.111520	0.121729
C75	C	1.134417	-0.388385	-0.582974
C76	C	1.634417	0.111615	-0.082974
C77	C	1.134433	-0.388359	-0.670224
C78	C	1.634433	0.111641	-0.170224
C79	C	1.134473	-0.178139	-0.378280
C80	C	1.634473	0.321861	0.121720
C81	C	1.134514	-0.088518	-0.378301
C82	C	1.634514	0.411482	0.121699
C83	C	1.084266	-0.336777	-0.711219
C84	C	1.584266	0.163223	-0.211219
C85	C	1.084279	-0.336758	-0.793199
C86	C	1.584279	0.163242	-0.293199
C87	C	1.134464	-0.388319	-0.834183
C88	C	1.634464	0.111681	-0.334183
C89	C	1.184633	-0.439906	-0.793183
C90	C	1.684633	0.060094	-0.293183
C91	C	1.184615	-0.439928	-0.711204
C92	C	1.684615	0.060072	-0.211204
C93	C	1.184667	-0.439856	-0.964053
C94	C	1.684667	0.060144	-0.464053
C95	C	1.184685	-0.439833	-1.046038
C96	C	1.684685	0.060167	-0.546038
C97	C	1.084331	-0.336686	-1.046048
C98	C	1.584331	0.163314	-0.546048
C99	C	1.084313	-0.336708	-0.964069
C100	C	1.584313	0.163292	-0.464069
C101	C	1.134484	-0.388295	-0.923074
C102	C	1.634484	0.111705	-0.423074
C103	C	1.134383	-0.388452	-0.174282
C104	C	1.634383	0.111548	0.325718
C105	C	1.134518	-0.388251	-0.087032
C106	C	1.634518	0.111749	0.412968
H107	H	0.434056	-0.295040	-0.469511
H108	H	0.934056	0.204960	0.030489
H109	H	0.582653	-0.481903	-0.287011
H110	H	1.082653	0.018097	0.212989
H111	H	0.582774	-0.295035	-0.469498
H112	H	1.082774	0.204965	0.030502
H113	H	1.043405	-0.294786	-0.677855
H114	H	1.543405	0.205214	-0.177855
H115	H	0.686771	-0.481895	-0.286989
H116	H	1.186771	0.018105	0.213011
Br117	Br	0.411645	-0.509892	-0.259737
Br118	Br	0.911645	-0.009892	0.240263
Br119	Br	1.016150	-0.266795	-0.848832
Br120	Br	1.516150	0.233205	-0.348832
H121	H	1.043452	-0.294719	-0.930702
H122	H	1.543452	0.205281	-0.430702
H123	H	1.043481	-0.294681	-1.079430
H124	H	1.543481	0.205319	-0.579430
Br125	Br	1.252801	-0.509801	-1.101659
Br126	Br	1.752801	-0.009801	-0.601659
H127	H	1.225528	-0.481856	-0.930678
H128	H	1.725528	0.018144	-0.430678
Br129	Br	0.664664	-0.267057	-0.496780
Br130	Br	1.164664	0.232943	0.003220
Br131	Br	1.252734	-0.509889	-0.848803
Br132	Br	1.752734	-0.009889	-0.348803
Br133	Br	1.252696	-0.509941	-0.655567
Br134	Br	1.752696	-0.009941	-0.155567
H135	H	0.835499	-0.481872	-0.286967
H136	H	1.335499	0.018128	0.213033
Br137	Br	0.857899	-0.267027	-0.496752
Br138	Br	1.357899	0.232973	0.003248
