data_functionalizedCrystal
_audit_creation_method	'MofGen! by Chris Wilmer'
_symmetry_space_group_name_H-M	'P1'
_symmetry_Int_Tables_number	1
_symmetry_cell_setting	triclinic
loop_
_symmetry_equiv_pos_as_xyz
  x,y,z
_cell_length_a	18.215405
_cell_length_b	18.215407
_cell_length_c	18.215399
_cell_angle_alpha	89.983140
_cell_angle_beta	90.026474
_cell_angle_gamma	89.981845
loop_
_atom_site_label
_atom_site_type_symbol
_atom_site_fract_x
_atom_site_fract_y
_atom_site_fract_z
Zn1	Zn	-0.293068	-1.125087	0.416065
Zn2	Zn	-0.043068	-0.875087	0.666065
Zn3	Zn	0.206932	-0.625087	0.916065
Zn4	Zn	0.456932	-0.375087	1.166065
Zn5	Zn	-0.416139	-1.125001	0.293002
Zn6	Zn	-0.166139	-0.875001	0.543002
Zn7	Zn	0.083861	-0.625001	0.793002
Zn8	Zn	0.333861	-0.375001	1.043002
Zn9	Zn	-0.293083	-1.002019	0.293019
Zn10	Zn	-0.043083	-0.752019	0.543019
Zn11	Zn	0.206917	-0.502019	0.793019
Zn12	Zn	0.456917	-0.252019	1.043019
Zn13	Zn	-0.416089	-1.001991	0.416033
Zn14	Zn	-0.166089	-0.751991	0.666033
Zn15	Zn	0.083911	-0.501991	0.916033
Zn16	Zn	0.333911	-0.251991	1.166033
O17	O	-0.354595	-1.063524	0.354530
O18	O	-0.104595	-0.813524	0.604530
O19	O	0.145405	-0.563524	0.854530
O20	O	0.395405	-0.313524	1.104530
O21	O	-0.309408	-1.228059	0.399747
O22	O	-0.059408	-0.978059	0.649747
O23	O	0.190592	-0.728059	0.899747
O24	O	0.440592	-0.478059	1.149747
O25	O	-0.399843	-1.108663	0.190020
O26	O	-0.149843	-0.858663	0.440020
O27	O	0.100157	-0.608663	0.690020
O28	O	0.350157	-0.358663	0.940020
O29	O	-0.190096	-1.018392	0.309361
O30	O	0.059904	-0.768392	0.559361
O31	O	0.309904	-0.518392	0.809361
O32	O	0.559904	-0.268392	1.059361
O33	O	-0.399828	-1.227997	0.309333
O34	O	-0.149828	-0.977997	0.559333
O35	O	0.100172	-0.727997	0.809333
O36	O	0.350172	-0.477997	1.059333
O37	O	-0.190085	-1.108809	0.399763
O38	O	0.059915	-0.858809	0.649763
O39	O	0.309915	-0.608809	0.899763
O40	O	0.559915	-0.358809	1.149763
O41	O	-0.309433	-1.018309	0.190032
O42	O	-0.059433	-0.768309	0.440032
O43	O	0.190567	-0.518309	0.690032
O44	O	0.440567	-0.268309	0.940032
O45	O	-0.309385	-0.899031	0.309331
O46	O	-0.059385	-0.649031	0.559331
O47	O	0.190615	-0.399031	0.809331
O48	O	0.440615	-0.149031	1.059331
O49	O	-0.399743	-1.018344	0.519022
O50	O	-0.149743	-0.768344	0.769022
O51	O	0.100257	-0.518344	1.019022
O52	O	0.350257	-0.268344	1.269022
O53	O	-0.399757	-0.899011	0.399709
O54	O	-0.149757	-0.649011	0.649709
O55	O	0.100243	-0.399011	0.899709
O56	O	0.350243	-0.149011	1.149709
O57	O	-0.309360	-1.108782	0.519045
O58	O	-0.059360	-0.858782	0.769045
O59	O	0.190640	-0.608782	1.019045
O60	O	0.440640	-0.358782	1.269045
O61	O	-0.519117	-1.108636	0.309302
O62	O	-0.269117	-0.858636	0.559302
O63	O	-0.019117	-0.608636	0.809302
O64	O	0.230883	-0.358636	1.059302
O65	O	-0.519080	-1.018261	0.399692
O66	O	-0.269080	-0.768261	0.649692
O67	O	-0.019080	-0.518261	0.899692
O68	O	0.230920	-0.268261	1.149692
C69	C	-0.354568	-0.872318	0.354519
C70	C	-0.104568	-0.622318	0.604519
C71	C	0.145432	-0.372318	0.854519
C72	C	0.395432	-0.122318	1.104519
C73	C	-0.354574	-0.790519	0.354531
C74	C	-0.104574	-0.540519	0.604531
C75	C	0.145426	-0.290519	0.854531
C76	C	0.395426	-0.040519	1.104531
C77	C	-0.401716	-0.525470	0.401525
C78	C	-0.151716	-0.275470	0.651525
C79	C	0.098284	-0.025470	0.901525
C80	C	0.348284	0.224530	1.151525
C81	C	-0.401712	-0.602329	0.401522
C82	C	-0.151712	-0.352329	0.651522
C83	C	0.098288	-0.102329	0.901522
C84	C	0.348288	0.147671	1.151522
C85	C	-0.307466	-0.602320	0.307548
C86	C	-0.057466	-0.352320	0.557548
C87	C	0.192534	-0.102320	0.807548
C88	C	0.442534	0.147680	1.057548
C89	C	-0.307475	-0.525463	0.307548
C90	C	-0.057475	-0.275463	0.557548
C91	C	0.192525	-0.025463	0.807548
C92	C	0.442525	0.224537	1.057548
C93	C	-0.354599	-0.487040	0.354541
C94	C	-0.104599	-0.237040	0.604541
C95	C	0.145401	0.012960	0.854541
C96	C	0.395401	0.262960	1.104541
C97	C	-0.354586	-0.640756	0.354537
C98	C	-0.104586	-0.390756	0.604537
C99	C	0.145414	-0.140756	0.854537
C100	C	0.395414	0.109244	1.104537
C101	C	-0.354580	-0.724090	0.354533
C102	C	-0.104580	-0.474090	0.604533
C103	C	0.145420	-0.224090	0.854533
C104	C	0.395420	0.025910	1.104533
C105	C	-0.354605	-0.403701	0.354545
C106	C	-0.104605	-0.153701	0.604545
C107	C	0.145395	0.096299	0.854545
C108	C	0.395395	0.346299	1.104545
C109	C	-0.545801	-1.063456	0.354508
C110	C	-0.295801	-0.813456	0.604508
C111	C	-0.045801	-0.563456	0.854508
C112	C	0.204199	-0.313456	1.104508
C113	C	-0.627600	-1.063494	0.354523
C114	C	-0.377600	-0.813494	0.604523
C115	C	-0.127600	-0.563494	0.854523
C116	C	0.122400	-0.313494	1.104523
C117	C	-0.892594	-1.110619	0.401667
C118	C	-0.642594	-0.860619	0.651667
C119	C	-0.392594	-0.610619	0.901667
C120	C	-0.142594	-0.360619	1.151667
C121	C	-0.815735	-1.110594	0.401656
C122	C	-0.565735	-0.860594	0.651656
C123	C	-0.315735	-0.610594	0.901656
C124	C	-0.065735	-0.360594	1.151656
C125	C	-0.815854	-1.016524	0.307435
C126	C	-0.565854	-0.766524	0.557435
C127	C	-0.315854	-0.516524	0.807435
C128	C	-0.065854	-0.266524	1.057435
C129	C	-0.892711	-1.016553	0.307443
C130	C	-0.642711	-0.766553	0.557443
C131	C	-0.392711	-0.516553	0.807443
C132	C	-0.142711	-0.266553	1.057443
C133	C	-0.931079	-1.063599	0.354563
C134	C	-0.681079	-0.813599	0.604563
C135	C	-0.431079	-0.563599	0.854563
C136	C	-0.181079	-0.313599	1.104563
C137	C	-0.777363	-1.063546	0.354544
C138	C	-0.527363	-0.813546	0.604544
C139	C	-0.277363	-0.563546	0.854544
C140	C	-0.027363	-0.313546	1.104544
C141	C	-0.694030	-1.063519	0.354531
C142	C	-0.444030	-0.813519	0.604531
C143	C	-0.194030	-0.563519	0.854531
C144	C	0.055970	-0.313519	1.104531
C145	C	-1.014418	-1.063628	0.354575
C146	C	-0.764418	-0.813628	0.604575
C147	C	-0.514418	-0.563628	0.854575
C148	C	-0.264418	-0.313628	1.104575
C149	C	-0.162642	-1.063613	0.354568
C150	C	0.087358	-0.813613	0.604568
C151	C	0.337358	-0.563613	0.854568
C152	C	0.587358	-0.313613	1.104568
C153	C	-0.080843	-1.063651	0.354584
C154	C	0.169157	-0.813651	0.604584
C155	C	0.419157	-0.563651	0.854584
C156	C	0.669157	-0.313651	1.104584
C157	C	-0.354544	-1.063569	0.546483
C158	C	-0.104544	-0.813569	0.796483
C159	C	0.145456	-0.563569	1.046483
C160	C	0.395456	-0.313569	1.296483
C161	C	-0.354522	-1.063588	0.628282
C162	C	-0.104522	-0.813588	0.878282
C163	C	0.145478	-0.563588	1.128282
C164	C	0.395478	-0.313588	1.378282
C165	C	-0.354616	-0.255477	0.354542
C166	C	-0.104616	-0.005477	0.604542
C167	C	0.145384	0.244523	0.854542
C168	C	0.395384	0.494523	1.104542
C169	C	-0.354611	-0.337276	0.354547
C170	C	-0.104611	-0.087276	0.604547
C171	C	0.145389	0.162724	0.854547
C172	C	0.395389	0.412724	1.104547
C173	C	-0.354592	-1.063522	0.163323
C174	C	-0.104592	-0.813522	0.413323
C175	C	0.145408	-0.563522	0.663323
C176	C	0.395408	-0.313522	0.913323
C177	C	-0.354406	-1.063646	0.081525
C178	C	-0.104406	-0.813646	0.331525
C179	C	0.145594	-0.563646	0.581525
C180	C	0.395594	-0.313646	0.831525
C181	C	-0.307416	-1.110696	0.816489
C182	C	-0.057416	-0.860696	1.066489
C183	C	0.192584	-0.610696	1.316489
C184	C	0.442584	-0.360696	1.566489
C185	C	-0.307394	-1.110705	0.893348
C186	C	-0.057394	-0.860705	1.143348
C187	C	0.192606	-0.610705	1.393348
C188	C	0.442606	-0.360705	1.643348
C189	C	-0.401515	-1.016533	0.893312
C190	C	-0.151515	-0.766533	1.143312
C191	C	0.098485	-0.516533	1.393312
C192	C	0.348485	-0.266533	1.643312
C193	C	-0.401532	-1.016521	0.816455
C194	C	-0.151532	-0.766521	1.066455
C195	C	0.098468	-0.516521	1.316455
C196	C	0.348468	-0.266521	1.566455
C197	C	-0.354484	-1.063607	0.778045
C198	C	-0.104484	-0.813607	1.028045
C199	C	0.145516	-0.563607	1.278045
C200	C	0.395516	-0.313607	1.528045
C201	C	-0.354445	-1.063627	0.931761
C202	C	-0.104445	-0.813627	1.181761
C203	C	0.145555	-0.563627	1.431761
C204	C	0.395555	-0.313627	1.681761
C205	C	-0.354422	-1.063637	1.015095
C206	C	-0.104422	-0.813637	1.265095
C207	C	0.145578	-0.563637	1.515095
C208	C	0.395578	-0.313637	1.765095
C209	C	-0.354505	-1.063597	0.694706
C210	C	-0.104505	-0.813597	0.944706
C211	C	0.145495	-0.563597	1.194706
C212	C	0.395495	-0.313597	1.444706
H213	H	-0.440080	-0.633616	0.439780
H214	H	-0.190080	-0.383616	0.689780
H215	H	0.059920	-0.133616	0.939780
H216	H	0.309920	0.116384	1.189780
H217	H	-0.923831	-1.148923	0.440039
H218	H	-0.673831	-0.898923	0.690039
H219	H	-0.423831	-0.648923	0.940039
H220	H	-0.173831	-0.398923	1.190039
H221	H	-0.269105	-0.494172	0.269284
H222	H	-0.019105	-0.244172	0.519284
H223	H	0.230895	0.005828	0.769284
H224	H	0.480895	0.255828	1.019284
F225	F	-0.775013	-0.966455	0.257291
F226	F	-0.525013	-0.716455	0.507291
F227	F	-0.275013	-0.466455	0.757291
F228	F	-0.025013	-0.216455	1.007291
F229	F	-0.451871	-0.484580	0.451538
F230	F	-0.201871	-0.234580	0.701538
F231	F	0.048129	0.015420	0.951538
F232	F	0.298129	0.265420	1.201538
H233	H	-0.269099	-0.633613	0.269289
H234	H	-0.019099	-0.383613	0.519289
H235	H	0.230901	-0.133613	0.769289
H236	H	0.480901	0.116387	1.019289
F237	F	-0.451627	-0.966395	0.775538
F238	F	-0.201627	-0.716395	1.025538
F239	F	0.048373	-0.466395	1.275538
F240	F	0.298373	-0.216395	1.525538
H241	H	-0.784402	-1.148882	0.440011
H242	H	-0.534402	-0.898882	0.690011
H243	H	-0.284402	-0.648882	0.940011
H244	H	-0.034402	-0.398882	1.190011
F245	F	-0.257303	-1.160829	0.934259
F246	F	-0.007303	-0.910829	1.184259
F247	F	0.242697	-0.660829	1.434259
F248	F	0.492697	-0.410829	1.684259
H249	H	-0.924047	-0.978264	0.269081
H250	H	-0.674047	-0.728264	0.519081
H251	H	-0.424047	-0.478264	0.769081
H252	H	-0.174047	-0.228264	1.019081
H253	H	-0.269104	-1.149035	0.785218
H254	H	-0.019104	-0.899035	1.035218
H255	H	0.230896	-0.649035	1.285218
H256	H	0.480896	-0.399035	1.535218
H257	H	-0.439822	-0.978199	0.924595
H258	H	-0.189822	-0.728199	1.174595
H259	H	0.060178	-0.478199	1.424595
H260	H	0.310178	-0.228199	1.674595
