data_functionalizedCrystal
_audit_creation_method	'MofGen! by Chris Wilmer'
_symmetry_space_group_name_H-M	'P1'
_symmetry_Int_Tables_number	1
_symmetry_cell_setting	triclinic
loop_
_symmetry_equiv_pos_as_xyz
  x,y,z
_cell_length_a	14.519731
_cell_length_b	15.995350
_cell_length_c	12.996460
_cell_angle_alpha	89.996086
_cell_angle_beta	89.994327
_cell_angle_gamma	83.590614
loop_
_atom_site_label
_atom_site_type_symbol
_atom_site_fract_x
_atom_site_fract_y
_atom_site_fract_z
O1	O	1.223657	0.109845	-0.085564
O2	O	1.723657	0.609845	0.414436
O3	O	0.955159	0.122752	-0.085565
O4	O	1.455159	0.622752	0.414435
O5	O	1.096748	-0.005578	-0.085563
O6	O	1.596748	0.494422	0.414437
O7	O	1.082069	0.238175	-0.085565
O8	O	1.582069	0.738175	0.414435
O9	O	1.096733	-0.005585	0.085571
O10	O	1.596733	0.494415	0.585571
O11	O	0.955145	0.122745	0.085569
O12	O	1.455145	0.622745	0.585569
O13	O	1.223642	0.109838	0.085570
O14	O	1.723642	0.609838	0.585570
Cu15	Cu	1.089392	0.116291	0.101195
Cu16	Cu	1.589392	0.616291	0.601195
Cu17	Cu	1.089410	0.116299	-0.101190
Cu18	Cu	1.589410	0.616299	0.398810
O19	O	1.082054	0.238167	0.085569
O20	O	1.582054	0.738167	0.585569
C21	C	0.920794	0.122144	0.000002
C22	C	1.420794	0.622144	0.500002
C23	C	0.818417	0.120331	0.000001
C24	C	1.318417	0.620331	0.500001
C25	C	0.735275	0.118859	-0.000003
C26	C	1.235275	0.618859	0.499997
C27	C	0.630970	0.117019	-0.000003
C28	C	1.130970	0.617019	0.499997
C29	C	0.547834	0.115559	-0.000003
C30	C	1.047834	0.615559	0.499997
C31	C	0.443521	0.113719	-0.000005
C32	C	0.943521	0.613719	0.499995
C33	C	1.096134	-0.036777	0.000002
C34	C	1.596134	0.463223	0.500002
C35	C	1.094314	-0.129730	-0.000004
C36	C	1.594314	0.370270	0.499996
C37	C	1.087781	-0.467488	-0.000001
C38	C	1.587781	0.032512	0.499999
C39	C	0.986944	-0.420212	-0.000385
C40	C	1.486944	0.079788	0.499615
C41	C	0.988764	-0.323519	0.000001
C42	C	1.488764	0.176481	0.500001
C43	C	1.091021	-0.299922	-0.000003
C44	C	1.591021	0.200078	0.499997
C45	C	1.140749	-0.340926	0.097721
C46	C	1.640749	0.159074	0.597721
C47	C	1.138216	-0.437566	0.097803
C48	C	1.638216	0.062434	0.597803
C49	C	1.140316	-0.437912	-0.096808
C50	C	1.640316	0.062088	0.403192
C51	C	1.140292	-0.340967	-0.098100
C52	C	1.640292	0.159033	0.401900
C53	C	1.092858	-0.205222	-0.000001
C54	C	1.592858	0.294778	0.499999
C55	C	1.085947	-0.562189	0.000004
C56	C	1.585947	-0.062189	0.500004
C57	C	1.258008	0.110446	0.000001
C58	C	1.758008	0.610446	0.500001
C59	C	1.360385	0.112258	-0.000005
C60	C	1.860385	0.612258	0.499995
C61	C	1.082668	0.269367	0.000001
C62	C	1.582668	0.769367	0.500001
C63	C	1.084488	0.362320	0.000000
C64	C	1.584488	0.862320	0.500000
N65	N	1.089387	0.116284	0.243542
N66	N	1.589387	0.616284	0.743542
N67	N	1.089422	0.116299	-0.243537
N68	N	1.589422	0.616299	0.256463
C69	C	1.089408	0.116300	0.663357
C70	C	1.589408	0.616300	1.163357
C71	C	1.089400	0.116298	0.546552
C72	C	1.589400	0.616298	1.046552
C73	C	1.089398	0.116293	0.453453
C74	C	1.589398	0.616293	0.953453
C75	C	1.089388	0.116290	0.336641
C76	C	1.589388	0.616290	0.836641
H77	H	0.949674	-0.295155	-0.070052
H78	H	1.449674	0.204845	0.429948
C79	C	1.089203	-0.462374	0.196481
C80	C	1.589203	0.037626	0.696481
H81	H	1.071020	-0.413411	0.236138
H82	H	1.571020	0.086589	0.736138
H83	H	1.130399	-0.500281	0.235554
H84	H	1.630399	-0.000281	0.735554
H85	H	1.035933	-0.488719	0.178623
H86	H	1.535933	0.011281	0.678623
C87	C	0.932496	-0.445322	-0.095052
C88	C	1.432496	0.054678	0.404948
H89	H	0.871834	-0.416103	-0.093847
H90	H	1.371834	0.083897	0.406153
H91	H	0.928635	-0.504207	-0.093759
H92	H	1.428635	-0.004207	0.406241
H93	H	0.963424	-0.431132	-0.155963
H94	H	1.463424	0.068868	0.344037
C95	C	1.095793	-0.465720	-0.196873
C96	C	1.595793	0.034280	0.303127
H97	H	1.128532	-0.447246	-0.254350
H98	H	1.628532	0.052754	0.245650
H99	H	1.032974	-0.441756	-0.199875
H100	H	1.532974	0.058244	0.300125
H101	H	1.098417	-0.525322	-0.198129
H102	H	1.598417	-0.025322	0.301871
C103	C	1.091250	-0.304159	-0.195768
C104	C	1.591250	0.195841	0.304232
H105	H	1.040960	-0.263941	-0.176852
H106	H	1.540960	0.236059	0.323148
H107	H	1.068601	-0.348093	-0.234140
H108	H	1.568601	0.151907	0.265860
H109	H	1.133934	-0.277715	-0.236558
H110	H	1.633934	0.222285	0.263442
C111	C	0.932730	-0.446758	0.093762
C112	C	1.432730	0.053242	0.593762
H113	H	0.971282	-0.486525	0.133305
H114	H	1.471282	0.013475	0.633305
H115	H	0.879645	-0.471385	0.071296
H116	H	1.379645	0.028615	0.571296
H117	H	0.913833	-0.398736	0.134784
H118	H	1.413833	0.101264	0.634784
C119	C	0.935600	-0.285959	0.094803
C120	C	1.435600	0.214041	0.594803
H121	H	0.912812	-0.329805	0.133236
H122	H	1.412812	0.170195	0.633236
H123	H	0.885133	-0.247065	0.073019
H124	H	1.385133	0.252935	0.573019
H125	H	0.976068	-0.257844	0.136660
H126	H	1.476068	0.242156	0.636660
H127	H	1.214662	-0.469557	-0.097468
H128	H	1.714662	0.030443	0.402532
C129	C	1.241033	-0.320064	-0.106077
C130	C	1.741033	0.179936	0.393923
H131	H	1.254425	-0.285884	-0.049428
H132	H	1.754425	0.214116	0.450572
H133	H	1.248850	-0.290704	-0.168450
H134	H	1.748850	0.209296	0.331550
H135	H	1.281982	-0.370716	-0.105248
H136	H	1.781982	0.129284	0.394752
H137	H	1.212248	-0.469698	0.102234
H138	H	1.712248	0.030302	0.602234
H139	H	1.215875	-0.326683	0.101353
H140	H	1.715875	0.173317	0.601353
H141	H	1.106199	-0.312602	0.170447
H142	H	1.606199	0.187398	0.670447
