data_functionalizedCrystal
_audit_creation_method	'MofGen! by Chris Wilmer'
_symmetry_space_group_name_H-M	'P1'
_symmetry_Int_Tables_number	1
_symmetry_cell_setting	triclinic
loop_
_symmetry_equiv_pos_as_xyz
  x,y,z
_cell_length_a	17.917559
_cell_length_b	23.196402
_cell_length_c	23.196401
_cell_angle_alpha	119.990204
_cell_angle_beta	89.984850
_cell_angle_gamma	57.010822
loop_
_atom_site_label
_atom_site_type_symbol
_atom_site_fract_x
_atom_site_fract_y
_atom_site_fract_z
Zr1	Zr	0.754923	0.577909	0.049086
O2	O	0.629764	0.706978	0.145534
O3	O	0.793288	0.454945	0.019524
O4	O	0.793246	0.575216	0.139791
O5	O	0.629842	0.586702	-0.069607
O6	O	0.922207	0.566147	0.135257
O7	O	0.629806	0.586707	0.025266
O8	O	0.922282	0.351003	-0.079879
O9	O	0.629767	0.801845	0.145529
O10	O	0.905896	0.496492	0.003528
O11	O	0.809681	0.503257	-0.063891
O12	O	0.809632	0.644861	0.077708
O13	O	0.713417	0.651625	0.010289
Zr14	Zr	0.960659	0.563436	-0.109456
Zr15	Zr	0.960601	0.563444	0.041855
Zr16	Zr	0.754981	0.577901	-0.102225
Zr17	Zr	0.754928	0.729211	0.049080
Zr18	Zr	0.960653	0.412134	-0.109450
O19	O	0.922294	0.686400	-0.079894
O20	O	0.922211	0.686412	0.135252
O21	O	0.629847	0.706967	-0.069612
O22	O	1.085818	0.434367	-0.205904
O23	O	1.085735	0.434378	0.009242
O24	O	0.793371	0.454934	-0.195622
O25	O	1.085740	0.554643	0.009237
O26	O	0.922336	0.566129	-0.200161
O27	O	0.793375	0.575199	-0.195627
O28	O	1.085776	0.554638	-0.085636
O29	O	0.793254	0.790348	0.139782
O30	O	0.922328	0.350997	-0.200152
O31	O	1.085814	0.339500	-0.205900
O32	O	1.085768	0.339506	-0.085627
O33	O	0.629814	0.801839	0.025257
O34	O	0.793300	0.790342	0.019509
O35	O	0.905950	0.496485	-0.138078
O36	O	1.002165	0.489720	-0.070659
O37	O	0.905901	0.638089	0.003521
O38	O	0.809686	0.644853	-0.063898
C39	C	0.857784	0.381417	-0.030177
C40	C	0.857781	0.317185	-0.030174
C41	C	0.907998	0.283484	0.005021
C42	C	0.908007	0.223123	0.005015
C43	C	0.857781	0.196477	-0.030176
C44	C	0.807562	0.230182	-0.065379
C45	C	0.807563	0.290536	-0.065378
C46	C	0.773630	0.140366	-0.021943
C47	C	0.773627	0.080017	-0.021938
C48	C	0.857782	0.010322	-0.030183
C49	C	0.941939	0.000992	-0.038417
C50	C	0.941940	0.061346	-0.038416
C51	C	0.857776	0.131033	-0.030181
C52	C	0.908014	-0.088831	0.005007
C53	C	0.908026	-0.149198	0.004996
C54	C	0.807571	-0.142130	-0.065393
C55	C	0.807569	-0.081771	-0.065387
C56	C	0.857788	-0.055122	-0.030183
C57	C	0.600519	0.588766	-0.021140
C58	C	0.513204	0.594906	-0.018070
C59	C	0.362221	0.535233	-0.047904
C60	C	0.353368	0.606109	-0.012468
C61	C	0.442310	0.599874	-0.015586
C62	C	0.273272	0.541466	-0.044787
C63	C	1.115063	0.552580	-0.039230
C64	C	1.202378	0.546439	-0.042300
C65	C	0.857718	0.570683	0.159083
C66	C	0.857693	0.570686	0.223319
C67	C	0.857798	0.759928	-0.030193
C68	C	0.857800	0.824160	-0.030196
C69	C	0.807447	0.648131	0.292213
C70	C	0.807468	0.648131	0.352568
C71	C	0.857722	0.570683	0.344025
C72	C	0.907979	0.493228	0.275118
C73	C	0.907964	0.493229	0.214765
C74	C	0.850579	0.514558	0.411596
C75	C	0.850587	0.514560	0.471949
C76	C	0.857771	0.570675	0.530171
C77	C	0.864929	0.626803	0.528040
C78	C	0.864915	0.626805	0.467687
C79	C	0.857743	0.570673	0.409463
C80	C	0.807545	0.648125	0.664512
C81	C	0.807573	0.648122	0.724866
C82	C	0.908077	0.493217	0.647414
C83	C	0.908056	0.493222	0.587062
C84	C	0.857785	0.570679	0.595616
C85	C	0.857849	0.570666	0.780549
C86	C	0.857828	0.570673	0.716318
C87	C	1.115055	0.363324	-0.039222
C88	C	1.202369	0.292952	-0.042289
C89	C	0.857857	0.381407	-0.219445
C90	C	0.857879	0.317172	-0.283678
C91	C	1.115128	0.363314	-0.228490
C92	C	1.202466	0.292938	-0.295792
C93	C	0.600453	0.778031	0.168120
C94	C	0.513115	0.848407	0.235422
C95	C	0.600526	0.778021	-0.021148
C96	C	0.513213	0.848394	-0.018081
C97	C	0.857725	0.759938	0.159074
C98	C	0.857703	0.824173	0.223307
C99	C	1.193120	0.263439	-0.004998
C100	C	1.275152	0.197326	-0.007865
C101	C	1.366432	0.160722	-0.048028
C102	C	1.375679	0.190241	-0.085320
C103	C	1.293647	0.256357	-0.082448
C104	C	0.908141	0.283472	-0.352573
C105	C	0.908159	0.223125	-0.412932
C106	C	0.857919	0.196475	-0.404395
C107	C	0.807651	0.230181	-0.335492
C108	C	0.807628	0.290532	-0.275134
C109	C	1.293713	0.256358	-0.292207
C110	C	1.375784	0.190240	-0.355439
C111	C	1.366607	0.160700	-0.422257
C112	C	1.275350	0.197288	-0.425841
C113	C	1.193281	0.263408	-0.362609
C114	C	0.421869	0.884995	0.231837
C115	C	0.339798	0.951131	0.295069
C116	C	0.348975	0.980674	0.361887
C117	C	0.440231	0.944083	0.365471
C118	C	0.522300	0.877952	0.302239
C119	C	0.522461	0.877913	-0.055366
C120	C	0.440429	0.944042	-0.052482
C121	C	0.349150	0.980648	-0.012317
C122	C	0.339903	0.951127	0.024972
C123	C	0.421934	0.885002	0.022091
C124	C	0.907952	0.850803	0.214747
C125	C	0.907950	0.911150	0.275094
C126	C	0.857692	0.944869	0.344001
C127	C	0.807441	0.918233	0.352560
C128	C	0.807449	0.857884	0.292214
H129	H	1.010470	-0.055761	-0.045139
H130	H	0.278992	0.671471	0.020216
F131	F	0.961620	0.311820	-0.361675
F132	F	1.031503	0.051413	-0.047183
F133	F	0.412079	0.853564	0.160731
F134	F	0.961666	0.187260	-0.486257
H135	H	0.766702	0.317963	-0.219039
F136	F	1.303502	0.287787	-0.221101
H137	H	0.766673	-0.054328	-0.094043
H138	H	0.436591	0.469876	-0.080580
F139	F	1.472833	0.151274	-0.128063
H140	H	0.948908	-0.067136	0.033670
F141	F	0.961448	0.814927	0.141416
F142	F	0.412077	0.853589	0.061773
H143	H	0.948869	0.932830	0.268111
F144	F	1.096172	0.302330	-0.366436
H145	H	0.766517	0.711202	0.299184
F146	F	0.242748	0.990092	0.067714
F147	F	0.619601	0.838967	-0.098115
H148	H	0.948897	0.430169	0.268165
F149	F	0.754061	0.730559	0.673613
H150	H	0.766549	0.711198	0.408672
H151	H	0.948967	0.430159	0.530964
H152	H	1.118803	0.293241	0.027715
H153	H	1.450082	0.160457	-0.352508
H154	H	0.447977	0.968067	-0.082850
F155	F	0.857690	1.009101	0.408222
H156	H	0.948901	0.195678	0.033676
F157	F	0.754117	-0.170484	-0.102846
H158	H	0.282362	1.034491	-0.009978
H159	H	0.265501	0.980913	0.292137
F160	F	0.753949	0.954134	0.425903
H161	H	0.766668	0.317977	-0.094038
H162	H	0.766747	0.208474	-0.328551
H163	H	0.282141	1.034522	0.413369
H164	H	1.433440	0.106860	-0.473739
H165	H	0.948924	-0.176642	0.033653
H166	H	0.766526	0.836209	0.299194
H167	H	0.948892	0.305178	0.033684
F168	F	0.872533	0.686538	0.465420
H169	H	0.870775	0.672500	0.575447
H170	H	0.844753	0.468861	0.473680
H171	H	0.705101	0.087623	-0.015230
F172	F	0.754096	0.730554	0.798193
H173	H	0.705091	0.197122	-0.015214
H174	H	0.948996	0.430158	0.640457
F175	F	0.754115	0.201818	-0.102836
F176	F	1.265598	0.165840	-0.496959
F177	F	0.842995	0.454790	0.349614
F178	F	0.619410	0.839014	0.306066
F179	F	0.449984	0.975532	0.436589
H180	H	0.948882	0.430163	0.158666
H181	H	1.267605	0.173300	0.022502
H182	H	1.301191	0.280378	-0.112819
F183	F	1.453730	0.090354	-0.051079
F184	F	0.857952	0.132243	-0.468641
