data_functionalizedCrystal
_audit_creation_method	'MofGen! by Chris Wilmer'
_symmetry_space_group_name_H-M	'P1'
_symmetry_Int_Tables_number	1
_symmetry_cell_setting	triclinic
loop_
_symmetry_equiv_pos_as_xyz
  x,y,z
_cell_length_a	21.395362
_cell_length_b	21.295417
_cell_length_c	21.395355
_cell_angle_alpha	90.020404
_cell_angle_beta	90.043940
_cell_angle_gamma	90.045579
loop_
_atom_site_label
_atom_site_type_symbol
_atom_site_fract_x
_atom_site_fract_y
_atom_site_fract_z
Zn1	Zn	0.957864	-0.250415	0.354577
Zn2	Zn	1.207864	-0.000415	0.604577
Zn3	Zn	1.457864	0.249585	0.854577
Zn4	Zn	1.707864	0.499585	1.104577
Zn5	Zn	0.957768	-0.355667	0.249796
Zn6	Zn	1.207768	-0.105667	0.499796
Zn7	Zn	1.457768	0.144333	0.749796
Zn8	Zn	1.707768	0.394333	0.999796
Zn9	Zn	0.853079	-0.250445	0.249779
Zn10	Zn	1.103079	-0.000445	0.499779
Zn11	Zn	1.353079	0.249555	0.749779
Zn12	Zn	1.603079	0.499555	0.999779
Zn13	Zn	0.853050	-0.355680	0.354501
Zn14	Zn	1.103050	-0.105680	0.604501
Zn15	Zn	1.353050	0.144320	0.854501
Zn16	Zn	1.603050	0.394320	1.104501
O17	O	0.905440	-0.303052	0.302163
O18	O	1.155440	-0.053052	0.552163
O19	O	1.405440	0.196948	0.802163
O20	O	1.655440	0.446948	1.052163
O21	O	1.045529	-0.264359	0.340717
O22	O	1.295529	-0.014359	0.590717
O23	O	1.545529	0.235641	0.840717
O24	O	1.795529	0.485641	1.090717
O25	O	0.943853	-0.341716	0.162116
O26	O	1.193853	-0.091716	0.412116
O27	O	1.443853	0.158284	0.662116
O28	O	1.693853	0.408284	0.912116
O29	O	0.867031	-0.162351	0.263705
O30	O	1.117031	0.087649	0.513705
O31	O	1.367031	0.337649	0.763705
O32	O	1.617031	0.587649	1.013705
O33	O	1.045459	-0.341687	0.263735
O34	O	1.295459	-0.091687	0.513735
O35	O	1.545459	0.158313	0.763735
O36	O	1.795459	0.408313	1.013735
O37	O	0.944016	-0.162330	0.340700
O38	O	1.194016	0.087670	0.590700
O39	O	1.444016	0.337670	0.840700
O40	O	1.694016	0.587670	1.090700
O41	O	0.866938	-0.264409	0.162103
O42	O	1.116938	-0.014409	0.412103
O43	O	1.366938	0.235591	0.662103
O44	O	1.616938	0.485591	0.912103
O45	O	0.765397	-0.264422	0.263631
O46	O	1.015397	-0.014422	0.513631
O47	O	1.265397	0.235578	0.763631
O48	O	1.515397	0.485578	1.013631
O49	O	0.866982	-0.341709	0.442189
O50	O	1.116982	-0.091709	0.692189
O51	O	1.366982	0.158291	0.942189
O52	O	1.616982	0.408291	1.192189
O53	O	0.765376	-0.341738	0.340570
O54	O	1.015376	-0.091738	0.590570
O55	O	1.265376	0.158262	0.840570
O56	O	1.515376	0.408262	1.090570
O57	O	0.943988	-0.264372	0.442245
O58	O	1.193988	-0.014372	0.692245
O59	O	1.443988	0.235628	0.942245
O60	O	1.693988	0.485628	1.192245
O61	O	0.943825	-0.443758	0.263661
O62	O	1.193825	-0.193758	0.513661
O63	O	1.443825	0.056242	0.763661
O64	O	1.693825	0.306242	1.013661
O65	O	0.866889	-0.443767	0.340587
O66	O	1.116889	-0.193767	0.590587
O67	O	1.366889	0.056233	0.840587
O68	O	1.616889	0.306233	1.090587
C69	C	0.742652	-0.303085	0.302091
C70	C	0.992652	-0.053085	0.552091
C71	C	1.242652	0.196915	0.802091
C72	C	1.492652	0.446915	1.052091
C73	C	0.673011	-0.303114	0.302074
C74	C	0.923011	-0.053114	0.552074
C75	C	1.173011	0.196886	0.802074
C76	C	1.423011	0.446886	1.052074
C77	C	0.640303	-0.343426	0.342077
C78	C	0.890303	-0.093426	0.592077
C79	C	1.140303	0.156574	0.842077
C80	C	1.390303	0.406574	1.092077
C81	C	0.574868	-0.343411	0.342105
C82	C	0.824868	-0.093411	0.592105
C83	C	1.074868	0.156589	0.842105
C84	C	1.324868	0.406589	1.092105
C85	C	0.542143	-0.303090	0.302119
C86	C	0.792143	-0.053090	0.552119
C87	C	1.042143	0.196910	0.802119
C88	C	1.292143	0.446910	1.052119
C89	C	0.574859	-0.262771	0.262114
C90	C	0.824859	-0.012771	0.512114
C91	C	1.074859	0.237229	0.762114
C92	C	1.324859	0.487229	1.012114
C93	C	0.640293	-0.262783	0.262092
C94	C	0.890293	-0.012783	0.512092
C95	C	1.140293	0.237217	0.762092
C96	C	1.390293	0.487217	1.012092
C97	C	0.438418	-0.298019	0.245714
C98	C	0.688418	-0.048019	0.495714
C99	C	0.938418	0.201981	0.745714
C100	C	1.188418	0.451981	0.995714
C101	C	0.372985	-0.298011	0.245735
C102	C	0.622985	-0.048011	0.495735
C103	C	0.872985	0.201989	0.745735
C104	C	1.122985	0.451989	0.995735
C105	C	0.340322	-0.303049	0.302188
C106	C	0.590322	-0.053049	0.552188
C107	C	0.840322	0.196951	0.802188
C108	C	1.090322	0.446951	1.052188
C109	C	0.373100	-0.308108	0.358622
C110	C	0.623100	-0.058108	0.608622
C111	C	0.873100	0.191892	0.858622
C112	C	1.123100	0.441892	1.108622
C113	C	0.438534	-0.308120	0.358599
C114	C	0.688534	-0.058120	0.608599
C115	C	0.938534	0.191880	0.858599
C116	C	1.188534	0.441880	1.108599
C117	C	0.471191	-0.303072	0.302139
C118	C	0.721191	-0.053072	0.552139
C119	C	0.971191	0.196928	0.802139
C120	C	1.221191	0.446928	1.052139
C121	C	0.236662	-0.343346	0.342224
C122	C	0.486662	-0.093346	0.592224
C123	C	0.736662	0.156654	0.842224
C124	C	0.986662	0.406654	1.092224
C125	C	0.171225	-0.343326	0.342253
C126	C	0.421225	-0.093326	0.592253
C127	C	0.671225	0.156674	0.842253
C128	C	0.921225	0.406674	1.092253
C129	C	0.171217	-0.262690	0.262257
C130	C	0.421217	-0.012690	0.512257
C131	C	0.671217	0.237310	0.762257
C132	C	0.921217	0.487310	1.012257
C133	C	0.236653	-0.262706	0.262234
C134	C	0.486653	-0.012706	0.512234
C135	C	0.736653	0.237294	0.762234
C136	C	0.986653	0.487294	1.012234
C137	C	0.269371	-0.303038	0.302216
C138	C	0.519371	-0.053038	0.552216
C139	C	0.769371	0.196962	0.802216
C140	C	1.019371	0.446962	1.052216
C141	C	0.905360	-0.466603	0.302132
C142	C	1.155360	-0.216603	0.552132
C143	C	1.405360	0.033397	0.802132
C144	C	1.655360	0.283397	1.052132
C145	C	0.905383	-0.536571	0.302139
C146	C	1.155383	-0.286571	0.552139
C147	C	1.405383	-0.036571	0.802139
C148	C	1.655383	0.213429	1.052139
C149	C	0.945447	-0.569370	0.342259
C150	C	1.195447	-0.319370	0.592259
C151	C	1.445447	-0.069370	0.842259
C152	C	1.695447	0.180630	1.092259
C153	C	0.945469	-0.635112	0.342275
C154	C	1.195469	-0.385112	0.592275
C155	C	1.445469	-0.135112	0.842275
C156	C	1.695469	0.114888	1.092275
C157	C	0.905434	-0.668054	0.302159
C158	C	1.155434	-0.418054	0.552159
C159	C	1.405434	-0.168054	0.802159
C160	C	1.655434	0.081946	1.052159
C161	C	0.865363	-0.635248	0.262036
C162	C	1.115363	-0.385248	0.512036
C163	C	1.365363	-0.135248	0.762036
C164	C	1.615363	0.114752	1.012036
C165	C	0.865338	-0.569506	0.262026
C166	C	1.115338	-0.319506	0.512026
C167	C	1.365338	-0.069506	0.762026
C168	C	1.615338	0.180494	1.012026
N169	N	0.900697	-0.771307	0.247324
N170	N	1.150697	-0.521307	0.497324
N171	N	1.400697	-0.271307	0.747324
N172	N	1.650697	-0.021307	0.997324
N173	N	0.900725	-0.833759	0.247335
N174	N	1.150725	-0.583759	0.497335
N175	N	1.400725	-0.333759	0.747335
N176	N	1.650725	-0.083759	0.997335
C177	C	0.905507	-0.866129	0.302187
C178	C	1.155507	-0.616129	0.552187
C179	C	1.405507	-0.366129	0.802187
C180	C	1.655507	-0.116129	1.052187
N181	N	0.910273	-0.833688	0.357029
N182	N	1.160273	-0.583688	0.607029
N183	N	1.410273	-0.333688	0.857029
N184	N	1.660273	-0.083688	1.107029
N185	N	0.910249	-0.771230	0.357017
N186	N	1.160249	-0.521230	0.607017
N187	N	1.410249	-0.271230	0.857017
N188	N	1.660249	-0.021230	1.107017
C189	C	0.905457	-0.739339	0.302165
C190	C	1.155457	-0.489339	0.552165
C191	C	1.405457	-0.239339	0.802165
C192	C	1.655457	0.010661	1.052165
C193	C	0.945597	-0.970212	0.342327
C194	C	1.195597	-0.720212	0.592327
C195	C	1.445597	-0.470212	0.842327
C196	C	1.695597	-0.220212	1.092327
C197	C	0.945615	-1.035956	0.342344
C198	C	1.195615	-0.785956	0.592344
C199	C	1.445615	-0.535956	0.842344
C200	C	1.695615	-0.285956	1.092344
C201	C	0.865512	-1.036090	0.262100
C202	C	1.115512	-0.786090	0.512100
C203	C	1.365512	-0.536090	0.762100
C204	C	1.615512	-0.286090	1.012100
C205	C	0.865491	-0.970348	0.262089
C206	C	1.115491	-0.720348	0.512089
C207	C	1.365491	-0.470348	0.762089
C208	C	1.615491	-0.220348	1.012089
C209	C	0.905537	-0.937413	0.302202
C210	C	1.155537	-0.687413	0.552202
C211	C	1.405537	-0.437413	0.802202
C212	C	1.655537	-0.187413	1.052202
C213	C	1.068864	-0.303019	0.302237
C214	C	1.318864	-0.053019	0.552237
C215	C	1.568864	0.196981	0.802237
C216	C	1.818864	0.446981	1.052237
C217	C	1.138505	-0.303005	0.302268
C218	C	1.388505	-0.053005	0.552268
C219	C	1.638505	0.196995	0.802268
C220	C	1.888505	0.446995	1.052268
C221	C	0.905492	-0.303039	0.465587
C222	C	1.155492	-0.053039	0.715587
C223	C	1.405492	0.196961	0.965587
C224	C	1.655492	0.446961	1.215587
C225	C	0.905514	-0.303033	0.535228
C226	C	1.155514	-0.053033	0.785228
C227	C	1.405514	0.196967	1.035228
C228	C	1.655514	0.446967	1.285228
C229	C	0.905537	-0.138861	0.302209
C230	C	1.155537	0.111139	0.552209
C231	C	1.405537	0.361139	0.802209
C232	C	1.655537	0.611139	1.052209
C233	C	0.905579	-0.068893	0.302228
C234	C	1.155579	0.181107	0.552228
C235	C	1.405579	0.431107	0.802228
C236	C	1.655579	0.681107	1.052228
C237	C	0.905424	-0.303019	0.139376
C238	C	1.155424	-0.053019	0.389376
C239	C	1.405424	0.196981	0.639376
C240	C	1.655424	0.446981	0.889376
C241	C	0.905524	-0.302847	0.069735
C242	C	1.155524	-0.052847	0.319735
C243	C	1.405524	0.197153	0.569735
C244	C	1.655524	0.447153	0.819735
C245	C	0.945610	-0.262762	0.567971
C246	C	1.195610	-0.012762	0.817971
C247	C	1.445610	0.237238	1.067971
C248	C	1.695610	0.487238	1.317971
C249	C	0.945609	-0.262735	0.633407
C250	C	1.195609	-0.012735	0.883407
C251	C	1.445609	0.237265	1.133407
C252	C	1.695609	0.487265	1.383407
C253	C	0.905519	-0.302991	0.666096
C254	C	1.155519	-0.052991	0.916096
C255	C	1.405519	0.197009	1.166096
C256	C	1.655519	0.447009	1.416096
C257	C	0.865416	-0.343265	0.633345
C258	C	1.115416	-0.093265	0.883345
C259	C	1.365416	0.156735	1.133345
C260	C	1.615416	0.406735	1.383345
C261	C	0.865413	-0.343286	0.567911
C262	C	1.115413	-0.093286	0.817911
C263	C	1.365413	0.156714	1.067911
C264	C	1.615413	0.406714	1.317911
C265	C	0.900544	-0.359672	0.769758
C266	C	1.150544	-0.109672	1.019758
C267	C	1.400544	0.140328	1.269758
C268	C	1.650544	0.390328	1.519758
C269	C	0.900551	-0.359652	0.835191
C270	C	1.150551	-0.109652	1.085191
C271	C	1.400551	0.140348	1.335191
C272	C	1.650551	0.390348	1.585191
C273	C	0.905523	-0.302924	0.867917
C274	C	1.155523	-0.052924	1.117917
C275	C	1.405523	0.197076	1.367917
C276	C	1.655523	0.447076	1.617917
C277	C	0.910501	-0.246215	0.835202
C278	C	1.160501	0.003785	1.085202
C279	C	1.410501	0.253785	1.335202
C280	C	1.660501	0.503785	1.585202
C281	C	0.910499	-0.246237	0.769768
C282	C	1.160499	0.003763	1.019768
C283	C	1.410499	0.253763	1.269768
C284	C	1.660499	0.503763	1.519768
C285	C	0.905517	-0.302971	0.737049
C286	C	1.155517	-0.052971	0.987049
C287	C	1.405517	0.197029	1.237049
C288	C	1.655517	0.447029	1.487049
C289	C	0.945620	-0.262620	0.971613
C290	C	1.195620	-0.012620	1.221613
C291	C	1.445620	0.237380	1.471613
C292	C	1.695620	0.487380	1.721613
C293	C	0.945615	-0.262592	1.037050
C294	C	1.195615	-0.012592	1.287050
C295	C	1.445615	0.237408	1.537050
C296	C	1.695615	0.487408	1.787050
C297	C	0.865425	-0.343127	1.036987
C298	C	1.115425	-0.093127	1.286987
C299	C	1.365425	0.156873	1.536987
C300	C	1.615425	0.406873	1.786987
C301	C	0.865427	-0.343150	0.971552
C302	C	1.115427	-0.093150	1.221552
C303	C	1.365427	0.156850	1.471552
C304	C	1.615427	0.406850	1.721552
C305	C	0.905528	-0.302897	0.938869
C306	C	1.155528	-0.052897	1.188869
C307	C	1.405528	0.197103	1.438869
C308	C	1.655528	0.447103	1.688869
H309	H	0.465220	-0.312237	0.404549
H310	H	0.715220	-0.062237	0.654549
H311	H	0.965220	0.187763	0.904549
H312	H	1.215220	0.437763	1.154549
H313	H	0.978088	-0.661822	0.374952
H314	H	1.228088	-0.411822	0.624952
H315	H	1.478088	-0.161822	0.874952
H316	H	1.728088	0.088178	1.124952
Br317	Br	0.811115	-0.925833	0.207639
Br318	Br	1.061115	-0.675833	0.457639
Br319	Br	1.311115	-0.425833	0.707639
Br320	Br	1.561115	-0.175833	0.957639
H321	H	0.914551	-0.200062	0.743134
H322	H	1.164551	0.049938	0.993134
H323	H	1.414551	0.299938	1.243134
H324	H	1.664551	0.549938	1.493134
Br325	Br	0.126835	-0.398035	0.396552
Br326	Br	0.376835	-0.148035	0.646552
Br327	Br	0.626835	0.101965	0.896552
Br328	Br	0.876835	0.351965	1.146552
Br329	Br	0.893804	-0.436613	0.879584
Br330	Br	1.143804	-0.186613	1.129584
Br331	Br	1.393804	0.063387	1.379584
Br332	Br	1.643804	0.313387	1.629584
H333	H	0.978258	-0.229938	0.660072
H334	H	1.228258	0.020062	0.910072
H335	H	1.478258	0.270062	1.160072
H336	H	1.728258	0.520062	1.410072
Br337	Br	0.917255	-0.169222	0.879607
Br338	Br	1.167255	0.080778	1.129607
Br339	Br	1.417255	0.330778	1.379607
Br340	Br	1.667255	0.580778	1.629607
H341	H	0.832780	-0.375947	0.944892
H342	H	1.082780	-0.125947	1.194892
H343	H	1.332780	0.124053	1.444892
H344	H	1.582780	0.374053	1.694892
H345	H	0.346302	-0.293896	0.199784
H346	H	0.596302	-0.043896	0.449784
H347	H	0.846302	0.206104	0.699784
H348	H	1.096302	0.456104	0.949784
H349	H	0.978269	-0.229840	0.945001
H350	H	1.228269	0.020160	1.195001
H351	H	1.478269	0.270160	1.445001
H352	H	1.728269	0.520160	1.695001
H353	H	0.896328	-0.405855	0.743119
H354	H	1.146328	-0.155855	0.993119
H355	H	1.396328	0.094145	1.243119
H356	H	1.646328	0.344145	1.493119
H357	H	0.832766	-0.662073	0.229375
H358	H	1.082766	-0.412073	0.479375
H359	H	1.332766	-0.162073	0.729375
H360	H	1.582766	0.087927	0.979375
Br361	Br	0.810960	-0.524991	0.207575
Br362	Br	1.060960	-0.274991	0.457575
Br363	Br	1.310960	-0.024991	0.707575
Br364	Br	1.560960	0.225009	0.957575
Br365	Br	1.000030	-0.208132	0.523619
Br366	Br	1.250030	0.041868	0.773619
Br367	Br	1.500030	0.291868	1.023619
Br368	Br	1.750030	0.541868	1.273619
H369	H	0.978202	-0.943396	0.374992
H370	H	1.228202	-0.693396	0.624992
H371	H	1.478202	-0.443396	0.874992
H372	H	1.728202	-0.193396	1.124992
Br373	Br	0.811175	-1.080790	0.207659
Br374	Br	1.061175	-0.830790	0.457659
Br375	Br	1.311175	-0.580790	0.707659
Br376	Br	1.561175	-0.330790	0.957659
H377	H	0.832773	-0.376039	0.659965
H378	H	1.082773	-0.126039	0.909965
H379	H	1.332773	0.123961	1.159965
H380	H	1.582773	0.373961	1.409965
H381	H	0.465007	-0.293914	0.199740
H382	H	0.715007	-0.043914	0.449740
H383	H	0.965007	0.206086	0.699740
H384	H	1.215007	0.456086	0.949740
Br385	Br	0.328781	-0.314943	0.435243
Br386	Br	0.578781	-0.064943	0.685243
Br387	Br	0.828781	0.185057	0.935243
Br388	Br	1.078781	0.435057	1.185243
Br389	Br	0.999981	-1.080470	0.396807
Br390	Br	1.249981	-0.830470	0.646807
Br391	Br	1.499981	-0.580470	0.896807
Br392	Br	1.749981	-0.330470	1.146807
Br393	Br	0.126812	-0.207962	0.207996
Br394	Br	0.376812	0.042038	0.457996
Br395	Br	0.626812	0.292038	0.707996
Br396	Br	0.876812	0.542038	0.957996
Br397	Br	0.811008	-0.397753	1.081344
Br398	Br	1.061008	-0.147753	1.331344
Br399	Br	1.311008	0.102247	1.581344
Br400	Br	1.561008	0.352247	1.831344
Br401	Br	1.000044	-0.207943	1.081489
Br402	Br	1.250044	0.042057	1.331489
Br403	Br	1.500044	0.292057	1.581489
Br404	Br	1.750044	0.542057	1.831489
H405	H	0.666939	-0.376266	0.374635
H406	H	0.916939	-0.126266	0.624635
H407	H	1.166939	0.123734	0.874635
H408	H	1.416939	0.373734	1.124635
Br409	Br	0.530469	-0.398122	0.396398
Br410	Br	0.780469	-0.148122	0.646398
Br411	Br	1.030469	0.101878	0.896398
Br412	Br	1.280469	0.351878	1.146398
H413	H	0.832760	-0.376079	0.541252
H414	H	1.082760	-0.126079	0.791252
H415	H	1.332760	0.123921	1.041252
H416	H	1.582760	0.373921	1.291252
H417	H	0.978053	-0.542556	0.374923
H418	H	1.228053	-0.292556	0.624923
H419	H	1.478053	-0.042556	0.874923
H420	H	1.728053	0.207444	1.124923
Br421	Br	0.281069	-0.398078	0.396487
Br422	Br	0.531069	-0.148078	0.646487
Br423	Br	0.781069	0.101922	0.896487
Br424	Br	1.031069	0.351922	1.146487
H425	H	0.263284	-0.229883	0.229656
H426	H	0.513284	0.020117	0.479656
H427	H	0.763284	0.270117	0.729656
H428	H	1.013284	0.520117	0.979656
Br429	Br	0.530448	-0.208044	0.207853
Br430	Br	0.780448	0.041956	0.457853
Br431	Br	1.030448	0.291956	0.707853
Br432	Br	1.280448	0.541956	0.957853
H433	H	0.666923	-0.229954	0.229517
H434	H	0.916923	0.020046	0.479517
H435	H	1.166923	0.270046	0.729517
H436	H	1.416923	0.520046	0.979517
