data_functionalizedCrystal
_audit_creation_method	'MofGen! by Chris Wilmer'
_symmetry_space_group_name_H-M	'P1'
_symmetry_Int_Tables_number	1
_symmetry_cell_setting	triclinic
loop_
_symmetry_equiv_pos_as_xyz
  x,y,z
_cell_length_a	8.497374
_cell_length_b	8.497366
_cell_length_c	14.908571
_cell_angle_alpha	86.671544
_cell_angle_beta	93.301816
_cell_angle_gamma	90.036547
loop_
_atom_site_label
_atom_site_type_symbol
_atom_site_fract_x
_atom_site_fract_y
_atom_site_fract_z
Zn1	Zn	0.767038	-1.031172	1.379519
Zn2	Zn	1.030967	-0.767428	1.379430
Zn3	Zn	0.751959	-0.752186	1.228610
Zn4	Zn	1.015531	-1.015962	1.228670
O5	O	0.891374	-0.891687	1.304057
O6	O	0.814820	-1.008929	1.505757
O7	O	0.994106	-0.544637	1.359362
O8	O	0.533198	-0.789180	1.248641
O9	O	1.008727	-0.815158	1.505692
O10	O	0.544277	-0.994150	1.359513
O11	O	0.789120	-0.533439	1.248555
O12	O	0.774152	-0.774433	1.102369
O13	O	0.982419	-1.238749	1.248742
O14	O	0.967797	-0.968228	1.102412
O15	O	0.799852	-1.249923	1.359570
O16	O	1.249681	-0.800410	1.359420
O17	O	1.238340	-0.983007	1.248657
C18	C	0.867664	-0.868027	1.069655
C19	C	0.857559	-0.857942	0.969377
C20	C	1.301253	-0.891709	1.304046
C21	C	1.479899	-0.891685	1.304070
C22	C	0.891235	-0.303173	1.304110
C23	C	0.891553	-0.481804	1.303990
C24	C	1.040527	-1.040520	0.781038
C25	C	1.031037	-1.031050	0.686818
C26	C	0.829083	-0.829542	0.686715
C27	C	0.838573	-0.839011	0.780935
C28	C	0.944300	-0.944503	0.828093
C29	C	0.953797	-0.953963	0.922315
C30	C	0.751836	-0.752464	0.922211
C31	C	0.742346	-0.742994	0.827990
C32	C	0.915177	-0.915441	1.539375
C33	C	0.925321	-0.925563	1.639653
H34	H	1.039888	-1.039857	0.960710
O35	O	1.154536	-1.154297	0.831919
H36	H	1.276516	-1.125265	0.813841
O37	O	0.628342	-0.629215	0.777107
H38	H	0.506358	-0.658251	0.795176
H39	H	0.673484	-0.674276	0.960533
H40	H	1.109392	-1.109241	0.648509
H41	H	0.742996	-0.743666	0.648302
