data_functionalizedCrystal
_audit_creation_method	'MofGen! by Chris Wilmer'
_symmetry_space_group_name_H-M	'P1'
_symmetry_Int_Tables_number	1
_symmetry_cell_setting	triclinic
loop_
_symmetry_equiv_pos_as_xyz
  x,y,z
_cell_length_a	15.186229
_cell_length_b	10.654550
_cell_length_c	10.654550
_cell_angle_alpha	84.484931
_cell_angle_beta	89.996404
_cell_angle_gamma	89.999884
loop_
_atom_site_label
_atom_site_type_symbol
_atom_site_fract_x
_atom_site_fract_y
_atom_site_fract_z
O1	O	0.073163	-1.667839	-0.176397
O2	O	0.573163	-1.167839	0.323603
O3	O	0.073179	-1.302361	-0.193203
O4	O	0.573179	-0.802361	0.306797
O5	O	0.073165	-1.493503	-0.002061
O6	O	0.573165	-0.993503	0.497939
O7	O	0.073177	-1.476697	-0.367540
O8	O	0.573177	-0.976697	0.132460
O9	O	-0.073292	-1.493490	-0.002058
O10	O	0.426708	-0.993490	0.497942
O11	O	-0.073279	-1.302348	-0.193201
O12	O	0.426721	-0.802348	0.306799
O13	O	-0.073295	-1.667826	-0.176395
O14	O	0.426705	-1.167826	0.323605
Zn15	Zn	-0.096540	-1.485085	-0.184797
Zn16	Zn	0.403460	-0.985085	0.315203
Zn17	Zn	0.096424	-1.485102	-0.184801
Zn18	Zn	0.596424	-0.985102	0.315199
O19	O	-0.073281	-1.476684	-0.367537
O20	O	0.426719	-0.976684	0.132463
C21	C	-0.000048	-1.255556	-0.191968
C22	C	0.499952	-0.755556	0.308032
C23	C	-0.000042	-1.116113	-0.188276
C24	C	0.499958	-0.616113	0.311724
N25	N	-0.228232	-1.485083	-0.184794
N26	N	0.271768	-0.985083	0.315206
C27	C	-0.000063	-1.492263	0.044738
C28	C	0.499937	-0.992263	0.544738
C29	C	-0.000062	-1.488571	0.184181
C30	C	0.499938	-0.988571	0.684181
C31	C	-0.453962	-1.569750	-0.100185
C32	C	0.046038	-1.069750	0.399815
C33	C	-0.546151	-1.569754	-0.100182
C34	C	-0.046151	-1.069754	0.399818
C35	C	-0.546148	-1.400438	-0.269407
C36	C	-0.046148	-0.900438	0.230593
C37	C	-0.453960	-1.400429	-0.269403
C38	C	0.046040	-0.900429	0.230597
C39	C	-0.407869	-1.485092	-0.184793
C40	C	0.092131	-0.985092	0.315207
C41	C	-0.592247	-1.485105	-0.184795
C42	C	-0.092247	-0.985105	0.315205
C43	C	-0.692203	-1.485109	-0.184792
C44	C	-0.192203	-0.985109	0.315208
C45	C	-0.307907	-1.485087	-0.184794
C46	C	0.192093	-0.985087	0.315206
N47	N	0.228117	-1.485114	-0.184794
N48	N	0.728117	-0.985114	0.315206
C49	C	-0.000066	-1.714631	-0.177630
C50	C	0.499934	-1.214631	0.322370
C51	C	-0.000066	-1.854074	-0.181322
C52	C	0.499934	-1.354074	0.318678
C53	C	-0.000041	-1.036628	-0.300818
C54	C	0.499959	-0.536628	0.199182
C55	C	-0.000056	-0.905607	-0.297341
C56	C	0.499944	-0.405607	0.202659
C57	C	-0.000070	-0.933570	-0.068772
C58	C	0.499930	-0.433570	0.431228
C59	C	-0.000061	-1.064588	-0.072250
C60	C	0.499939	-0.564588	0.427750
C61	C	-0.000051	-1.477925	-0.414336
C62	C	0.499949	-0.977925	0.085664
C63	C	-0.000046	-1.481616	-0.553779
C64	C	0.499954	-0.981616	-0.053779
C65	C	-0.000066	-1.601112	0.263667
C66	C	0.499934	-1.101112	0.763667
C67	C	-0.000056	-1.597636	0.394688
C68	C	0.499944	-1.097636	0.894688
C69	C	-0.000039	-1.369066	0.366725
C70	C	0.499961	-0.869066	0.866725
C71	C	-0.000044	-1.372544	0.235706
C72	C	0.499956	-0.872544	0.735706
H73	H	-0.416437	-1.638686	-0.031289
H74	H	0.083563	-1.138686	0.468711
H75	H	-0.000057	-1.689279	0.459401
H76	H	0.499943	-1.189279	0.959401
F77	F	-0.000068	-1.149188	0.047539
F78	F	0.499932	-0.649188	0.547539
F79	F	-0.595203	-1.659855	-0.010128
F80	F	-0.095203	-1.159855	0.489872
F81	F	-0.000032	-1.252755	0.151106
F82	F	0.499968	-0.752755	0.651106
H83	H	-0.583684	-1.331509	-0.338296
H84	H	-0.083684	-0.831509	0.161704
H85	H	-0.000032	-1.078574	-0.395294
H86	H	0.499968	-0.578574	0.104706
H87	H	-0.000057	-0.840894	-0.388984
H88	H	0.499943	-0.340894	0.111016
H89	H	-0.000079	-1.695588	0.221720
H90	H	0.499921	-1.195588	0.721720
H91	H	-0.416429	-1.331485	-0.338302
H92	H	0.083571	-0.831485	0.161698
H93	H	-0.000091	-0.891602	0.025693
H94	H	0.499909	-0.391602	0.525693
H95	H	-0.000026	-1.274601	0.408693
H96	H	0.499974	-0.774601	0.908693
