data_functionalizedCrystal
_audit_creation_method	'MofGen! by Chris Wilmer'
_symmetry_space_group_name_H-M	'P1'
_symmetry_Int_Tables_number	1
_symmetry_cell_setting	triclinic
loop_
_symmetry_equiv_pos_as_xyz
  x,y,z
_cell_length_a	12.759401
_cell_length_b	16.959454
_cell_length_c	12.759393
_cell_angle_alpha	90.030714
_cell_angle_beta	90.018496
_cell_angle_gamma	90.020236
loop_
_atom_site_label
_atom_site_type_symbol
_atom_site_fract_x
_atom_site_fract_y
_atom_site_fract_z
Zn1	Zn	1.606216	-0.314632	0.593988
Zn2	Zn	1.606094	-0.446833	0.418310
Zn3	Zn	1.430518	-0.314673	0.418327
Zn4	Zn	1.430490	-0.446772	0.593952
O5	O	1.518330	-0.380727	0.506144
O6	O	1.753221	-0.332177	0.570692
O7	O	1.582764	-0.429345	0.271291
O8	O	1.453888	-0.204057	0.441651
O9	O	1.753131	-0.429304	0.441622
O10	O	1.582972	-0.204026	0.570708
O11	O	1.453769	-0.332247	0.271304
O12	O	1.283493	-0.332188	0.441616
O13	O	1.453840	-0.429201	0.740978
O14	O	1.283473	-0.429241	0.570647
O15	O	1.582945	-0.332118	0.741004
O16	O	1.582737	-0.557436	0.441588
O17	O	1.453722	-0.557391	0.570631
C18	C	1.245362	-0.380713	0.506130
C19	C	1.128586	-0.380726	0.506149
C20	C	1.073740	-0.431342	0.573224
C21	C	0.964016	-0.431352	0.573235
C22	C	0.963992	-0.330127	0.439087
C23	C	1.073714	-0.330114	0.439082
C24	C	1.073753	-0.489786	0.650670
C25	C	0.964029	-0.489796	0.650681
C26	C	1.518242	-0.586094	0.506126
C27	C	1.518300	-0.673950	0.506154
C28	C	1.451249	-1.045433	0.573330
C29	C	1.585703	-1.045419	0.439066
C30	C	1.585666	-0.962873	0.439056
C31	C	1.518419	-0.921603	0.506183
C32	C	1.451208	-0.962879	0.573320
C33	C	1.652869	-0.921591	0.371913
C34	C	1.652834	-0.839040	0.371900
C35	C	1.585591	-0.797769	0.439033
C36	C	1.518378	-0.839050	0.506173
C37	C	1.451130	-0.797780	0.573300
C38	C	1.383922	-0.839059	0.640447
C39	C	1.383965	-0.921607	0.640453
C40	C	1.585548	-0.715220	0.439027
C41	C	1.451089	-0.715226	0.573291
C42	C	1.792363	-0.380743	0.506159
C43	C	1.909140	-0.380749	0.506165
C44	C	1.518403	-0.380648	0.780178
C45	C	1.518435	-0.380614	0.896954
C46	C	1.518447	-0.174559	0.506185
C47	C	1.518496	-0.086703	0.506203
C48	C	1.518317	-0.380750	0.233177
C49	C	1.518489	-0.380561	0.116401
C50	C	1.585669	-0.330058	0.951832
C51	C	1.585694	-0.330029	1.061556
C52	C	1.451247	-0.431119	1.061516
C53	C	1.451218	-0.431143	0.951793
C54	C	1.663294	-0.271696	0.951856
C55	C	1.663319	-0.271668	1.061580
H56	H	0.934226	-0.550999	0.628750
C57	C	1.311127	-0.966386	0.713518
C58	C	1.333953	-0.946268	0.817490
C59	C	1.266885	-0.987513	0.884823
H60	H	1.240500	-0.952937	0.698219
H61	H	1.320792	-1.021466	0.703974
H62	H	1.324279	-0.891200	0.827029
H63	H	1.404567	-0.959718	0.832821
H64	H	1.276550	-1.042594	0.875279
H65	H	1.196262	-0.974062	0.869515
H66	H	1.282369	-0.973875	0.955375
C67	C	1.378338	-0.486111	1.120923
C68	C	1.401144	-0.564324	1.094191
C69	C	1.333992	-0.615005	1.148882
H70	H	1.387914	-0.478964	1.194145
H71	H	1.307732	-0.474589	1.102914
H72	H	1.471732	-0.575842	1.112206
H73	H	1.391562	-0.571496	1.020978
H74	H	1.263386	-0.603483	1.130874
H75	H	1.343573	-0.607851	1.222102
H76	H	1.349450	-0.668078	1.130745
C77	C	1.113364	-0.468124	0.759304
C78	C	1.076636	-0.523332	0.832119
C79	C	1.113090	-0.503398	0.932201
H80	H	1.187810	-0.468129	0.759456
H81	H	1.088540	-0.417147	0.777656
H82	H	1.101465	-0.574296	0.813771
H83	H	1.002194	-0.523336	0.831999
H84	H	1.088267	-0.452421	0.950553
H85	H	1.187536	-0.503402	0.932342
H86	H	1.088168	-0.540849	0.981619
H87	H	1.396332	-0.681629	0.627958
C88	C	1.378378	-0.486073	0.892083
C89	C	1.437800	-0.536750	0.829055
C90	C	1.370729	-0.587356	0.774027
H91	H	1.338331	-0.516235	0.940344
H92	H	1.332626	-0.455860	0.849229
H93	H	1.483533	-0.566960	0.871905
H94	H	1.477844	-0.506610	0.780774
H95	H	1.324978	-0.557143	0.731174
H96	H	1.330686	-0.617512	0.822296
H97	H	1.411037	-0.621741	0.731249
H98	H	1.707610	-0.955199	0.317254
C99	C	1.771715	-0.293633	1.101452
C100	C	1.764869	-0.362076	1.162383
C101	C	1.864695	-0.382324	1.199145
H102	H	1.816998	-0.302825	1.043650
H103	H	1.798786	-0.251749	1.142880
H104	H	1.737813	-0.403952	1.120957
H105	H	1.719606	-0.352903	1.220201
H106	H	1.891766	-0.340439	1.240573
H107	H	1.909970	-0.391512	1.141337
H108	H	1.860062	-0.428760	1.240499
H109	H	1.118365	-0.288892	0.384470
H110	H	1.640447	-1.079026	0.384408
H111	H	1.634212	-0.213504	1.095627
H112	H	1.329164	-0.805447	0.695097
H113	H	1.107760	-0.547906	0.621387
H114	H	1.641533	-0.210482	0.922099
C115	C	1.378321	-1.090387	0.646113
C116	C	1.392728	-1.171514	0.631745
C117	C	1.325555	-1.212951	0.698764
H118	H	1.393584	-1.076908	0.716757
H119	H	1.307709	-1.076951	0.630661
H120	H	1.463324	-1.184945	0.647203
H121	H	1.377457	-1.185016	0.561115
H122	H	1.254943	-1.199514	0.683313
H123	H	1.340824	-1.199466	0.769404
H124	H	1.335314	-1.267999	0.689018
H125	H	1.707559	-0.805436	0.317227
H126	H	1.740563	-0.293641	0.917820
C127	C	1.658442	-0.670502	0.365960
C128	C	1.635638	-0.690656	0.261996
C129	C	1.702779	-0.649486	0.194656
H130	H	1.648855	-0.615417	0.375427
H131	H	1.729051	-0.684002	0.381328
H132	H	1.565046	-0.677152	0.246634
H133	H	1.645232	-0.745735	0.252496
H134	H	1.773388	-0.662985	0.210023
H135	H	1.693186	-0.594402	0.204132
H136	H	1.687322	-0.663160	0.124110
C137	C	0.904605	-0.275097	0.366230
C138	C	0.976125	-0.230753	0.307504
C139	C	0.921458	-0.180043	0.240385
H140	H	0.861770	-0.305208	0.320294
H141	H	0.861852	-0.240654	0.406480
H142	H	1.018860	-0.265191	0.267257
H143	H	1.018962	-0.200626	0.353412
H144	H	0.878705	-0.145601	0.280635
H145	H	0.878626	-0.210161	0.194456
H146	H	0.969976	-0.149945	0.200538
C147	C	0.918550	-0.460794	0.753821
C148	C	0.856825	-0.520293	0.798260
C149	C	0.814901	-0.493600	0.893260
H150	H	0.973915	-0.447654	0.800458
H151	H	0.876596	-0.415469	0.741475
H152	H	0.898777	-0.565604	0.810610
H153	H	0.801443	-0.533440	0.751652
H154	H	0.772947	-0.448275	0.880914
H155	H	0.870273	-0.480460	0.939889
H156	H	0.773009	-0.533963	0.923419
