data_functionalizedCrystal
_audit_creation_method	'MofGen! by Chris Wilmer'
_symmetry_space_group_name_H-M	'P1'
_symmetry_Int_Tables_number	1
_symmetry_cell_setting	triclinic
loop_
_symmetry_equiv_pos_as_xyz
  x,y,z
_cell_length_a	10.540539
_cell_length_b	10.540539
_cell_length_c	9.616153
_cell_angle_alpha	90.004826
_cell_angle_beta	89.999906
_cell_angle_gamma	95.474508
loop_
_atom_site_label
_atom_site_type_symbol
_atom_site_fract_x
_atom_site_fract_y
_atom_site_fract_z
O1	O	0.178895	-1.685892	-0.115573
O2	O	0.195751	-1.316479	-0.115589
O3	O	0.002617	-1.509614	-0.115579
O4	O	0.372030	-1.492758	-0.115583
O5	O	0.002621	-1.509587	0.115712
O6	O	0.195755	-1.316452	0.115702
O7	O	0.178899	-1.685865	0.115718
Zn8	Zn	0.187328	-1.501155	0.152433
Zn9	Zn	0.187323	-1.501190	-0.152304
O10	O	0.372034	-1.492731	0.115708
C11	C	-0.044684	-1.508336	0.000064
C12	C	-0.185632	-1.504554	0.000056
C13	C	0.194489	-1.269163	0.000054
C14	C	0.190707	-1.128215	0.000048
C15	C	0.180161	-1.733182	0.000072
C16	C	0.183943	-1.874130	0.000069
C17	C	-0.369059	-1.359637	-0.000469
C18	C	-0.222441	-1.363471	0.000052
C19	C	-0.247288	-1.572435	0.132138
C20	C	-0.393832	-1.567620	0.132249
C21	C	-0.394355	-1.570519	-0.130772
C22	C	-0.247373	-1.571819	-0.132518
C23	C	0.419335	-1.494008	0.000062
C24	C	0.560283	-1.497790	0.000060
N25	N	0.187331	-1.501140	0.360407
C26	C	0.045790	-0.944788	0.000589
C27	C	0.049624	-1.091406	0.000054
C28	C	0.258600	-1.066557	-0.132027
C29	C	0.253785	-0.920013	-0.132123
C30	C	0.256660	-0.919494	0.130899
C31	C	0.257959	-1.066476	0.132630
N32	N	0.187310	-1.501215	-0.360278
C33	C	0.290298	-1.397510	0.580772
C34	C	0.290684	-1.397739	0.419604
C35	C	0.217464	-1.633864	0.418862
C36	C	0.218193	-1.633299	0.580080
C37	C	0.053892	-1.473368	0.580319
C38	C	0.054757	-1.470321	0.419092
H39	H	-0.179839	-1.310058	-0.094630
Br40	Br	-0.046730	-0.894451	-0.156386
H41	H	0.031917	-1.372683	0.380887
Br42	Br	-0.039648	-1.160965	-0.158293
H43	H	-0.425910	-1.524869	-0.230881
Br44	Br	-0.039416	-1.162422	0.157854
H45	H	0.146204	-1.712941	0.619073
H46	H	-0.009944	-0.916192	0.095307
H47	H	-0.206516	-1.522152	-0.230229
Br48	Br	0.180560	-0.866904	0.297760
H49	H	-0.204686	-1.525259	0.230425
H50	H	0.203603	-0.891814	-0.230849
Br51	Br	-0.206996	-1.743262	-0.145819
Br52	Br	0.454353	-1.426968	0.648238
H53	H	-0.025564	-1.540848	0.378801
Br54	Br	-0.416723	-1.266757	-0.158343
H55	H	-0.399265	-1.304122	0.093714
Br56	Br	0.380427	-1.673892	0.642738
Br57	Br	-0.473066	-1.740365	-0.132249
H58	H	0.025213	-1.378631	0.621052
H59	H	0.355250	-0.872044	-0.138119
H60	H	0.362208	-1.088911	-0.136942
Br61	Br	0.455681	-1.427512	0.355289
H62	H	0.211434	-1.109157	-0.230318
Br63	Br	0.377865	-1.675370	0.351546
Br64	Br	0.175149	-1.134551	0.295485
H65	H	0.144501	-1.712918	0.380514
H66	H	0.360819	-1.090701	0.140603
H67	H	0.358563	-0.872267	0.131790
Br68	Br	-0.473790	-1.736727	0.142262
H69	H	0.272553	-1.299122	0.380085
H70	H	-0.022762	-1.548980	0.618439
Br71	Br	-0.152829	-1.273777	0.158111
Br72	Br	-0.440837	-1.483964	0.296801
H73	H	-0.224933	-1.676042	0.137054
Br74	Br	0.260524	-1.232614	0.645410
