data_functionalizedCrystal
_audit_creation_method	'MofGen! by Chris Wilmer'
_symmetry_space_group_name_H-M	'P1'
_symmetry_Int_Tables_number	1
_symmetry_cell_setting	triclinic
loop_
_symmetry_equiv_pos_as_xyz
  x,y,z
_cell_length_a	17.038272
_cell_length_b	15.538191
_cell_length_c	14.185328
_cell_angle_alpha	71.747469
_cell_angle_beta	103.850378
_cell_angle_gamma	110.808175
loop_
_atom_site_label
_atom_site_type_symbol
_atom_site_fract_x
_atom_site_fract_y
_atom_site_fract_z
O1	O	-0.238108	-1.249896	0.083430
O2	O	0.261892	-0.749896	0.583430
O3	O	-0.149838	-0.982712	0.083431
O4	O	0.350162	-0.482712	0.583431
O5	O	-0.307339	-1.114714	0.083423
O6	O	0.192661	-0.614714	0.583423
O7	O	-0.080607	-1.117894	0.083438
O8	O	0.419393	-0.617894	0.583438
O9	O	-0.327699	-1.074941	-0.083422
O10	O	0.172301	-0.574941	0.416578
O11	O	-0.170198	-0.942938	-0.083414
O12	O	0.329802	-0.442938	0.416586
O13	O	-0.258468	-1.210123	-0.083415
O14	O	0.241532	-0.710123	0.416585
Cu15	Cu	-0.216192	-1.072899	-0.098649
Cu16	Cu	0.283808	-0.572899	0.401351
Cu17	Cu	-0.192114	-1.119936	0.098665
Cu18	Cu	0.307886	-0.619936	0.598665
O19	O	-0.100967	-1.078121	-0.083406
O20	O	0.399033	-0.578121	0.416594
C21	C	-0.345828	-1.091939	0.000000
C22	C	0.154172	-0.591939	0.500000
C23	C	-0.430177	-1.083321	0.000001
C24	C	0.069823	-0.583321	0.500001
C25	C	-0.150783	-0.928470	0.000008
C26	C	0.349217	-0.428470	0.500008
C27	C	-0.123274	-0.826100	0.000009
C28	C	0.376726	-0.326100	0.500009
N29	N	-0.233130	-1.039823	-0.237428
N30	N	0.266870	-0.539823	0.262572
C31	C	-0.502729	-1.162444	-0.000001
C32	C	-0.002729	-0.662444	0.499999
C33	C	-0.581980	-1.154344	0.000009
C34	C	-0.081980	-0.654344	0.500009
C35	C	-0.588680	-1.067117	0.000012
C36	C	-0.088680	-0.567117	0.500012
C37	C	-0.516120	-0.987988	0.000017
C38	C	-0.016120	-0.487988	0.500017
C39	C	-0.436869	-0.996092	0.000014
C40	C	0.063131	-0.496092	0.500014
C41	C	-0.826317	-1.038491	0.000026
C42	C	-0.326317	-0.538491	0.500026
C43	C	-0.905576	-1.030393	0.000026
C44	C	-0.405576	-0.530393	0.500026
C45	C	-0.971431	-1.196749	0.000020
C46	C	-0.471431	-0.696749	0.500020
C47	C	-0.892177	-1.204843	0.000011
C48	C	-0.392177	-0.704843	0.500011
C49	C	-0.819624	-1.125716	0.000021
C50	C	-0.319624	-0.625716	0.500021
C51	C	-0.669687	-1.058834	0.000019
C52	C	-0.169687	-0.558834	0.500019
C53	C	-0.738617	-1.134002	0.000021
C54	C	-0.238617	-0.634002	0.500021
C55	C	-0.062478	-1.100896	0.000018
C56	C	0.437522	-0.600896	0.500018
C57	C	0.021872	-1.109516	0.000024
C58	C	0.521872	-0.609516	0.500024
C59	C	-0.257523	-1.264366	0.000010
C60	C	0.242477	-0.764366	0.500010
C61	C	-0.285031	-1.366736	0.000016
C62	C	0.214969	-0.866736	0.500016
C63	C	-0.396569	-0.516407	0.000005
C64	C	0.103431	-0.016407	0.500005
C65	C	-0.370701	-0.420215	0.000008
C66	C	0.129299	0.079785	0.500008
C67	C	-0.225197	-0.409435	0.000017
C68	C	0.274803	0.090565	0.500017
C69	C	-0.251054	-0.505627	0.000010
C70	C	0.248946	-0.005627	0.500010
C71	C	-0.336741	-0.559106	0.000005
C72	C	0.163259	-0.059106	0.500005
C73	C	-0.191225	-0.548326	0.000010
C74	C	0.308775	-0.048326	0.500010
C75	C	-0.217080	-0.644511	0.000008
C76	C	0.282920	-0.144511	0.500008
C77	C	-0.302763	-0.697997	0.000006
C78	C	0.197237	-0.197997	0.500006
C79	C	-0.362595	-0.655291	0.000003
C80	C	0.137405	-0.155291	0.500003
C81	C	-0.105538	-0.494847	0.000022
C82	C	0.394462	0.005153	0.500022
C83	C	-0.045709	-0.537546	0.000022
C84	C	0.454291	-0.037546	0.500022
C85	C	-0.071565	-0.633731	0.000013
C86	C	0.428435	-0.133731	0.500013
C87	C	-0.157247	-0.687217	0.000011
C88	C	0.342753	-0.187217	0.500011
C89	C	-0.011732	-0.676437	0.000016
C90	C	0.488268	-0.176437	0.500016
C91	C	-0.037587	-0.772621	0.000014
C92	C	0.462413	-0.272621	0.500014
C93	C	-0.183102	-0.783402	0.000009
C94	C	0.316898	-0.283402	0.500009
C95	C	-0.125377	-1.250124	-0.605024
C96	C	0.374623	-0.750124	-0.105024
C97	C	-0.138225	-1.225090	-0.710052
C98	C	0.361775	-0.725090	-0.210052
C99	C	-0.199305	-1.105950	-0.710044
C100	C	0.300695	-0.605950	-0.210044
C101	C	-0.186458	-1.130971	-0.605013
C102	C	0.313542	-0.630971	-0.105013
C103	C	-0.149495	-1.203060	-0.552512
C104	C	0.350505	-0.703060	-0.052512
C105	C	-0.210575	-1.083907	-0.552501
C106	C	0.289425	-0.583907	-0.052501
C107	C	-0.197733	-1.108930	-0.447480
C108	C	0.302267	-0.608930	0.052520
C109	C	-0.160774	-1.181017	-0.394972
C110	C	0.339226	-0.681017	0.105028
C111	C	-0.136653	-1.228083	-0.447491
C112	C	0.363347	-0.728083	0.052509
C113	C	-0.247544	-1.011824	-0.605005
C114	C	0.252456	-0.511824	-0.105005
C115	C	-0.271661	-0.964759	-0.552493
C116	C	0.228339	-0.464759	-0.052493
C117	C	-0.258814	-0.989777	-0.447470
C118	C	0.241186	-0.489777	0.052530
C119	C	-0.221855	-1.061864	-0.394961
C120	C	0.278145	-0.561864	0.105039
C121	C	-0.282935	-0.942712	-0.394951
C122	C	0.217065	-0.442712	0.105049
C123	C	-0.270093	-0.967735	-0.289930
C124	C	0.229907	-0.467735	0.210070
C125	C	-0.209013	-1.086887	-0.289940
C126	C	0.290987	-0.586887	0.210060
N127	N	-0.175184	-1.153019	0.237444
N128	N	0.324816	-0.653019	0.737444
H129	H	-0.497284	-1.233472	-0.000010
H130	H	0.002716	-0.733472	0.499990
H131	H	-0.155430	-0.365881	0.000026
H132	H	0.344570	0.134119	0.500026
H133	H	-0.641052	-1.218774	0.000006
H134	H	-0.141052	-0.718774	0.500006
F135	F	-0.097319	-1.304813	-0.391609
F136	F	0.402681	-0.804813	0.108391
F137	F	-0.274302	-0.840321	-0.000008
F138	F	0.225698	-0.340321	0.499992
H139	H	-0.313039	-0.884023	-0.437713
H140	H	0.186961	-0.384023	0.062287
F141	F	-0.749110	-0.954276	0.000039
F142	F	-0.249110	-0.454276	0.500039
H143	H	-0.301760	-0.906067	-0.595254
H144	H	0.198240	-0.406067	-0.095254
F145	F	-0.261218	-0.985200	-0.716779
F146	F	0.238782	-0.485200	-0.216779
F147	F	-0.086043	-1.326855	-0.549142
F148	F	0.413957	-0.826855	-0.049142
H149	H	-0.675151	-0.987813	0.000020
H150	H	-0.175151	-0.487813	0.500020
H151	H	-0.323811	-0.776320	0.000017
H152	H	0.176189	-0.276320	0.500017
H153	H	-0.733156	-1.205026	0.000041
H154	H	-0.233156	-0.705026	0.500041
H155	H	-0.419427	-0.385455	0.000009
H156	H	0.080573	0.114545	0.500009
H157	H	0.024058	-0.493991	0.000030
H158	H	0.524058	0.006009	0.500030
H159	H	-0.289731	-0.929408	-0.247173
H160	H	0.210269	-0.429408	0.252827
F161	F	-0.147110	-1.207652	-0.283197
F162	F	0.352890	-0.707652	0.216803
H163	H	-0.886731	-1.275872	0.000008
H164	H	-0.386731	-0.775872	0.500008
F165	F	-0.912702	-0.937549	0.000025
F166	F	-0.412702	-0.437549	0.500025
F167	F	0.079461	-0.619513	0.000036
F168	F	0.579461	-0.119513	0.500036
H169	H	-0.432371	-0.698836	-0.000007
H170	H	0.067629	-0.198836	0.499993
H171	H	-0.521579	-0.916968	0.000026
H172	H	-0.021579	-0.416968	0.500026
F173	F	-0.169679	-1.163618	-0.234058
F174	F	0.330321	-0.663618	0.265942
F175	F	-0.487769	-0.573326	-0.000012
F176	F	0.012231	-0.073326	0.499988
F177	F	-0.078023	-0.392478	0.000026
F178	F	0.421977	0.107522	0.500026
F179	F	0.026090	-0.818068	0.000015
F180	F	0.526090	-0.318068	0.500015
H181	H	-1.030511	-1.261170	0.000014
H182	H	-0.530511	-0.761170	0.500014
F183	F	-0.359652	-0.911878	0.000019
F184	F	0.140348	-0.411878	0.500019
F185	F	-0.112557	-1.275192	-0.765936
F186	F	0.387443	-0.775192	-0.265936
H187	H	-0.229404	-1.047258	-0.752805
H188	H	0.270596	-0.547258	-0.252805
