data_functionalizedCrystal
_audit_creation_method	'MofGen! by Chris Wilmer'
_symmetry_space_group_name_H-M	'P1'
_symmetry_Int_Tables_number	1
_symmetry_cell_setting	triclinic
loop_
_symmetry_equiv_pos_as_xyz
  x,y,z
_cell_length_a	12.759401
_cell_length_b	12.759399
_cell_length_c	12.759393
_cell_angle_alpha	90.030505
_cell_angle_beta	90.017297
_cell_angle_gamma	90.015948
loop_
_atom_site_label
_atom_site_type_symbol
_atom_site_fract_x
_atom_site_fract_y
_atom_site_fract_z
Zn1	Zn	1.606236	-0.418202	0.593986
Zn2	Zn	1.606132	-0.593918	0.418306
Zn3	Zn	1.430542	-0.418255	0.418325
Zn4	Zn	1.430524	-0.593841	0.593948
O5	O	1.518358	-0.506054	0.506141
O6	O	1.753243	-0.441521	0.570690
O7	O	1.582803	-0.570670	0.271288
O8	O	1.453899	-0.271227	0.441650
O9	O	1.753166	-0.570619	0.441619
O10	O	1.582981	-0.271188	0.570708
O11	O	1.453798	-0.441611	0.271301
O12	O	1.283518	-0.441537	0.441613
O13	O	1.453868	-0.570487	0.740974
O14	O	1.283505	-0.570539	0.570642
O15	O	1.582963	-0.441446	0.741002
O16	O	1.582786	-0.740929	0.441582
O17	O	1.453767	-0.740872	0.570625
C18	C	1.245391	-0.506036	0.506126
C19	C	1.128614	-0.506053	0.506145
C20	C	1.073793	-0.438954	0.573456
C21	C	0.964069	-0.438964	0.573463
C22	C	0.963997	-0.573184	0.438845
C23	C	1.073719	-0.573167	0.438834
C24	C	1.518292	-0.779021	0.506120
C25	C	1.518360	-0.895798	0.506146
C26	C	1.585608	-1.060273	0.573439
C27	C	1.585544	-0.950549	0.573408
C28	C	1.451242	-0.950777	0.438904
C29	C	1.451312	-1.060499	0.438931
C30	C	1.663144	-1.060140	0.651097
C31	C	1.663079	-0.950416	0.651066
C32	C	1.792391	-0.506073	0.506157
C33	C	1.909168	-0.506081	0.506163
C34	C	1.518425	-0.505952	0.780175
C35	C	1.518454	-0.505909	0.896951
C36	C	1.518453	-0.232021	0.506185
C37	C	1.518494	-0.115244	0.506204
C38	C	1.518352	-0.506079	0.233174
C39	C	1.518527	-0.505827	0.116398
C40	C	1.451257	-0.573069	0.951800
C41	C	1.451295	-0.573031	1.061525
C42	C	1.585731	-0.438664	1.061541
C43	C	1.585697	-0.438708	0.951819
C44	C	1.373638	-0.650642	0.951792
C45	C	1.373677	-0.650604	1.061516
H46	H	1.118356	-0.627808	0.384015
O47	O	1.386015	-0.897433	0.373660
C48	C	1.400365	-0.788801	0.388030
H49	H	1.434717	-0.773718	0.469136
H50	H	1.456331	-0.757665	0.325753
C51	C	1.251843	-0.751095	0.278675
C52	C	1.294026	-0.732569	0.378295
H53	H	1.186250	-0.716407	0.272666
H54	H	1.242177	-0.824282	0.268991
H55	H	1.298492	-0.725148	0.226789
H56	H	1.247384	-0.758527	0.430178
H57	H	1.303682	-0.659385	0.387988
H58	H	1.744546	-1.089858	0.629388
O59	O	1.650944	-0.373416	1.115004
C60	C	1.636588	-0.387799	1.223610
H61	H	1.555501	-0.422195	1.238593
H62	H	1.698896	-0.443740	1.254735
C63	C	1.745866	-0.239230	1.261555
C64	C	1.646270	-0.281468	1.279959
H65	H	1.751842	-0.173642	1.296316
H66	H	1.755541	-0.229542	1.188385
H67	H	1.797778	-0.285858	1.287493
H68	H	1.594360	-0.234846	1.254009
H69	H	1.636586	-0.291145	1.353126
H70	H	1.402802	-0.727892	1.095535
O71	O	1.399462	-0.747806	0.916369
C72	C	1.325663	-0.821304	0.953260
H73	H	1.285994	-0.789343	1.026659
H74	H	1.264137	-0.836060	0.890142
C75	C	1.430473	-0.964085	0.889522
C76	C	1.381756	-0.924834	0.979677
H77	H	1.465071	-1.027949	0.905813
H78	H	1.480191	-0.914569	0.864664
H79	H	1.379192	-0.976373	0.836932
H80	H	1.433038	-0.912534	1.032260
H81	H	1.332048	-0.974351	1.004545
H82	H	1.740373	-0.916338	0.621982
O83	O	1.386026	-1.113736	0.373577
C84	C	1.326737	-1.041885	0.314180
H85	H	1.323018	-0.963642	0.357191
H86	H	1.365261	-1.030240	0.234423
C87	C	1.219526	-1.180921	0.246105
C88	C	1.214951	-1.084824	0.298937
H89	H	1.150573	-1.207409	0.236698
H90	H	1.259473	-1.229330	0.286119
H91	H	1.251634	-1.171204	0.179647
H92	H	1.182857	-1.094545	0.365398
H93	H	1.174997	-1.036418	0.258934
O94	O	1.636872	-0.914707	0.748024
C95	C	1.545177	-0.853450	0.741169
H96	H	1.536350	-0.822287	0.657917
H97	H	1.474198	-0.903635	0.761827
C98	C	1.563659	-0.799113	0.920489
C99	C	1.552823	-0.760832	0.818239
H100	H	1.568372	-0.741985	0.968032
H101	H	1.625434	-0.840386	0.925109
H102	H	1.504508	-0.840934	0.937689
H103	H	1.611979	-0.719023	0.801036
H104	H	1.491058	-0.719549	0.813617
O105	O	1.628516	-1.100658	0.743370
C106	C	1.693937	-1.066288	0.825570
H107	H	1.773836	-1.043698	0.792600
H108	H	1.657022	-0.995322	0.865384
C109	C	1.609203	-1.182865	0.946611
C110	C	1.707339	-1.155129	0.906118
H111	H	1.617468	-1.237664	0.996299
H112	H	1.565125	-1.206019	0.891232
H113	H	1.578451	-1.123720	0.979781
H114	H	1.738084	-1.214270	0.872937
H115	H	1.751424	-1.131987	0.961493
H116	H	1.296345	-0.621502	0.917764
H117	H	1.640426	-0.384030	0.907165
H118	H	1.292325	-0.628786	1.091299
H119	H	0.919438	-0.384323	0.628272
O120	O	1.126956	-0.373659	0.638868
C121	C	1.055035	-0.314457	0.698298
H122	H	0.976806	-0.310779	0.655276
H123	H	1.043390	-0.353029	0.778024
C124	C	1.193959	-0.207169	0.766472
C125	C	1.097879	-0.202644	0.713628
H126	H	1.220388	-0.138199	0.775934
H127	H	1.242415	-0.247057	0.726437
H128	H	1.184242	-0.239317	0.832905
H129	H	1.107600	-0.170509	0.647192
H130	H	1.049426	-0.162748	0.753653
O131	O	0.910622	-0.638493	0.373620
C132	C	0.847153	-0.706414	0.433326
H133	H	0.880255	-0.712996	0.516057
H134	H	0.764002	-0.673948	0.437013
C135	C	0.804776	-0.807488	0.280200
C136	C	0.845437	-0.815579	0.381809
H137	H	0.803713	-0.874825	0.248420
H138	H	0.847533	-0.761726	0.239973
H139	H	0.735488	-0.780428	0.283285
H140	H	0.914729	-0.842625	0.378721
H141	H	0.802692	-0.861348	0.422034
