data_functionalizedCrystal
_audit_creation_method	'MofGen! by Chris Wilmer'
_symmetry_space_group_name_H-M	'P1'
_symmetry_Int_Tables_number	1
_symmetry_cell_setting	triclinic
loop_
_symmetry_equiv_pos_as_xyz
  x,y,z
_cell_length_a	23.204064
_cell_length_b	23.204065
_cell_length_c	23.204063
_cell_angle_alpha	89.998954
_cell_angle_beta	59.995193
_cell_angle_gamma	59.999902
loop_
_atom_site_label
_atom_site_type_symbol
_atom_site_fract_x
_atom_site_fract_y
_atom_site_fract_z
O1	O	0.508361	0.395329	-0.017169
O2	O	0.390343	0.311528	0.017044
O3	O	0.508359	0.311522	-0.100974
O4	O	0.390346	0.395335	0.100849
O5	O	0.412503	0.407376	-0.100967
O6	O	0.294488	0.407382	0.017051
O7	O	0.412505	0.491183	-0.017162
Cu8	Cu	0.344744	0.458035	-0.000055
Cu9	Cu	0.458104	0.344677	-0.000063
O10	O	0.294490	0.491189	0.100856
C11	C	0.517033	0.596420	-0.024960
C12	C	0.476576	0.672440	-0.020065
C13	C	0.482674	0.561420	-0.025443
C14	C	0.621398	0.492058	-0.024968
C15	C	0.692527	0.456494	-0.020081
C16	C	0.586880	0.457217	-0.025451
C17	C	0.517031	0.492063	-0.024957
C18	C	0.476570	0.456502	-0.020057
C19	C	0.586883	0.561416	-0.025454
C20	C	0.108442	0.248535	0.035741
C21	C	0.037322	0.284095	0.030841
C22	C	0.142953	0.283380	0.036232
C23	C	0.212795	0.144179	0.035751
C24	C	0.253251	0.068161	0.030860
C25	C	0.247149	0.179182	0.036241
C26	C	0.212795	0.248539	0.035750
C27	C	0.253250	0.284102	0.030859
C28	C	0.142954	0.179179	0.036232
C29	C	0.285934	0.312833	0.026906
C30	C	-0.020135	0.312823	0.026880
C31	C	0.285936	0.006745	0.026907
C32	C	0.326938	0.348878	0.021947
C33	C	-0.092217	0.348864	0.021912
C34	C	0.326940	-0.070303	0.021949
C35	C	0.694425	0.144170	-0.445888
C36	C	0.765553	0.068149	-0.481457
C37	C	0.659909	0.179172	-0.376528
C38	C	0.590060	0.248533	-0.445879
C39	C	0.549601	0.284097	-0.481438
C40	C	0.555703	0.283377	-0.376519
C41	C	0.590061	0.248532	-0.341520
C42	C	0.549603	0.284096	-0.265498
C43	C	0.659908	0.179173	-0.480728
C44	C	0.516916	0.312827	-0.204079
C45	C	0.823017	0.006731	-0.510192
C46	C	0.516913	0.312829	-0.510165
C47	C	0.475909	0.348871	-0.127027
C48	C	0.895108	-0.070320	-0.546242
C49	C	0.475905	0.348875	-0.546205
O50	O	0.886626	0.407368	0.017015
O51	O	0.719018	0.491174	-0.017188
O52	O	0.718999	0.491172	0.100826
O53	O	0.886645	0.407369	-0.100999
O54	O	0.719008	0.395316	0.100815
O55	O	0.719027	0.395318	-0.017200
O56	O	0.886635	0.311512	0.017004
Cu57	Cu	0.802832	0.344663	-0.000099
Cu58	Cu	0.802821	0.458023	-0.000085
O59	O	0.886654	0.311514	-0.101011
O60	O	0.294489	0.903644	0.017055
O61	O	0.412510	0.701825	-0.017170
O62	O	0.294499	0.819825	0.100854
O63	O	0.412500	0.785644	-0.100968
O64	O	0.390358	0.819821	0.100842
O65	O	0.508369	0.701821	-0.017181
O66	O	0.390347	0.903640	0.017044
Cu67	Cu	0.458111	0.802730	-0.000070
Cu68	Cu	0.344747	0.802735	-0.000056
O69	O	0.508359	0.785640	-0.100979
O70	O	0.390336	0.395344	-0.688503
O71	O	0.508353	0.311527	-0.604711
O72	O	0.390336	0.311535	-0.604695
O73	O	0.508353	0.395336	-0.688519
O74	O	0.294483	0.407387	-0.508835
O75	O	0.412499	0.407380	-0.508851
O76	O	0.294482	0.491197	-0.592643
Cu77	Cu	0.344739	0.458040	-0.541994
Cu78	Cu	0.458097	0.344684	-0.655360
O79	O	0.412499	0.491189	-0.592658
O80	O	1.083886	-0.298193	-0.592713
O81	O	0.916263	-0.096375	-0.508895
O82	O	0.916259	-0.214378	-0.508890
O83	O	1.083890	-0.180189	-0.592718
O84	O	0.916261	-0.214380	-0.604742
O85	O	0.916264	-0.096376	-0.604747
O86	O	1.083887	-0.298195	-0.688565
Cu87	Cu	1.000076	-0.197286	-0.655408
Cu88	Cu	1.000074	-0.197284	-0.542052
O89	O	1.083891	-0.180191	-0.688570
C90	C	0.181454	0.596440	0.310625
C91	C	0.110326	0.672462	0.346191
C92	C	0.215968	0.561439	0.345467
C93	C	0.285820	0.492076	0.206259
C94	C	0.326281	0.456510	0.130237
C95	C	0.320176	0.457233	0.241260
C96	C	0.285817	0.492079	0.310620
C97	C	0.326273	0.456517	0.346181
C98	C	0.215972	0.561436	0.241265
C99	C	0.516999	0.492050	0.310588
C100	C	0.476542	0.456485	0.346147
C101	C	0.482635	0.561409	0.345438
C102	C	0.621370	0.492053	0.206228
C103	C	0.692506	0.456491	0.130205
C104	C	0.586847	0.561411	0.241237
C105	C	0.516992	0.596413	0.310598
C106	C	0.476527	0.672433	0.346168
C107	C	0.586854	0.457207	0.241227
C108	C	0.285862	0.827565	0.310601
C109	C	0.326327	0.822663	0.346156
C110	C	0.216018	0.828046	0.345449
C111	C	0.285847	0.827586	0.206249
C112	C	0.326296	0.822707	0.130231
C113	C	0.216003	0.828067	0.241256
C114	C	0.181497	0.827565	0.310612
C115	C	0.110374	0.822664	0.346179
C116	C	0.320210	0.828066	0.241245
C117	C	1.212890	0.144172	-0.445928
C118	C	1.253356	0.068152	-0.481499
C119	C	1.247247	0.179177	-0.480768
C120	C	1.108512	0.248532	-0.341558
C121	C	1.037376	0.284093	-0.265534
C122	C	1.143027	0.283378	-0.376556
C123	C	1.212882	0.248536	-0.445917
C124	C	1.253339	0.284101	-0.481476
C125	C	1.143035	0.179173	-0.376567
C126	C	1.286025	0.312834	-0.510203
C127	C	1.286050	0.006734	-0.510235
C128	C	0.979907	0.312822	-0.204115
C129	C	1.327031	0.348880	-0.546243
C130	C	1.327064	-0.070316	-0.546287
C131	C	0.907807	0.348865	-0.127061
O132	O	0.390287	0.903636	0.395321
O133	O	0.508318	0.701819	0.311492
O134	O	0.390308	0.819825	0.311497
O135	O	0.508296	0.785630	0.395316
O136	O	0.294448	0.819820	0.407347
O137	O	0.412457	0.701813	0.407343
O138	O	0.294427	0.903630	0.491172
Cu139	Cu	0.344689	0.802721	0.458009
Cu140	Cu	0.458055	0.802728	0.344655
O141	O	0.412436	0.785624	0.491167
C142	C	0.694384	0.766993	-0.445877
C143	C	0.765510	0.771889	-0.481445
C144	C	0.659860	0.766517	-0.480713
C145	C	0.590030	0.766977	-0.341513
C146	C	0.549581	0.771856	-0.265494
C147	C	0.555664	0.766502	-0.376507
C148	C	0.590012	0.767003	-0.445863
C149	C	0.549545	0.771910	-0.481417
C150	C	0.659877	0.766491	-0.376521
C151	C	0.516850	0.775876	-0.510140
C152	C	0.822972	0.775846	-0.510180
C153	C	0.516902	0.775800	-0.204078
C154	C	0.475834	0.780850	-0.546174
C155	C	0.895062	0.780809	-0.546229
C156	C	0.475904	0.780746	-0.127029
H157	H	0.426459	0.589531	-0.026209
H158	H	0.499483	0.340359	-0.348408
H159	H	0.615737	0.589512	0.213135
C160	C	1.104030	0.141192	-0.338617
C161	C	1.015527	0.171614	-0.311598
C162	C	0.976533	0.133628	-0.273653
C163	C	1.026041	0.065220	-0.262728
C164	C	1.114549	0.034795	-0.289747
C165	C	1.153544	0.072781	-0.327692
H166	H	0.978874	0.222257	-0.319685
H167	H	0.911013	0.156151	-0.253652
H168	H	0.997175	0.037101	-0.234639
H169	H	1.151202	-0.015848	-0.281660
H170	H	1.219063	0.050257	-0.347693
H171	H	0.615766	0.400231	-0.026231
C172	C	0.103908	0.360377	0.037332
C173	C	0.026913	0.398879	0.037879
C174	C	-0.012143	0.475880	0.038999
C175	C	0.025796	0.514380	0.039572
C176	C	0.102795	0.475878	0.039025
C177	C	0.141851	0.398877	0.037905
H178	H	-0.001175	0.370379	0.037455
H179	H	-0.069143	0.504381	0.039404
H180	H	-0.003116	0.571380	0.040402
H181	H	0.130883	0.504378	0.039449
H182	H	0.198850	0.370376	0.037500
H183	H	0.499456	0.765722	-0.348396
H184	H	0.114063	0.151081	0.037020
H185	H	0.688747	0.765736	-0.537702
C186	C	0.698936	0.141214	-0.338568
C187	C	0.775921	0.064758	-0.377061
C188	C	0.814946	0.026804	-0.339102
C189	C	0.776986	0.065307	-0.262651
C190	C	0.699996	0.141768	-0.224154
C191	C	0.660971	0.179721	-0.262113
H192	H	0.804025	0.036252	-0.433659
H193	H	0.871939	-0.029797	-0.367601
H194	H	0.805874	0.037211	-0.234551
H195	H	0.671892	0.170274	-0.167556
H196	H	0.603978	0.236323	-0.233614
C197	C	0.625931	0.599360	-0.026536
C198	C	0.656973	0.626373	-0.088032
C199	C	0.696030	0.664307	-0.089121
C200	C	0.704045	0.675228	-0.028714
C201	C	0.673002	0.648215	0.032786
C202	C	0.633945	0.610281	0.033875
H203	H	0.651041	0.618289	-0.132753
H204	H	0.719010	0.684304	-0.134648
H205	H	0.732957	0.703309	-0.029521
H206	H	0.678934	0.656299	0.077507
H207	H	0.610965	0.590284	0.079402
C208	C	0.698918	0.141220	-0.557715
C209	C	0.787432	0.114186	-0.615794
C210	C	0.826433	0.076239	-0.692777
C211	C	0.776921	0.065326	-0.711681
C212	C	0.688403	0.092361	-0.653600
C213	C	0.649402	0.130308	-0.576618
H214	H	0.824088	0.122264	-0.601802
H215	H	0.891961	0.056227	-0.735772
H216	H	0.805793	0.037236	-0.768668
H217	H	0.651747	0.084283	-0.667593
H218	H	0.583874	0.150320	-0.533623
C219	C	0.323070	0.141225	0.037306
C220	C	0.361040	0.064770	0.037831
C221	C	0.436959	0.026817	0.038895
C222	C	0.474907	0.065318	0.039435
C223	C	0.436936	0.141778	0.038911
C224	C	0.361018	0.179731	0.037847
H225	H	0.332949	0.036265	0.037431
H226	H	0.465067	-0.029784	0.039283
H227	H	0.531106	0.037223	0.040224
H228	H	0.465028	0.170283	0.039311
H229	H	0.332910	0.236332	0.037458
C230	C	0.396109	0.380248	0.203299
C231	C	0.475467	0.361326	0.134891
C232	C	0.551399	0.284345	0.096934
C233	C	0.547974	0.226287	0.127386
C234	C	0.468613	0.245208	0.195797
C235	C	0.392680	0.322188	0.233754
H236	H	0.478005	0.404305	0.112346
H237	H	0.610147	0.270339	0.046291
H238	H	0.604183	0.169301	0.099288
H239	H	0.466074	0.202228	0.218343
H240	H	0.333932	0.336195	0.284397
C241	C	0.176950	0.599399	0.422454
C242	C	0.168980	0.667800	0.441374
C243	C	0.129968	0.705756	0.518358
C244	C	0.098927	0.675309	0.576421
C245	C	0.106896	0.606904	0.557502
C246	C	0.145908	0.568949	0.480519
H247	H	0.191959	0.690342	0.398391
H248	H	0.124068	0.756394	0.532362
H249	H	0.070048	0.703406	0.633409
H250	H	0.083917	0.584363	0.600486
H251	H	0.151808	0.518311	0.466514
H252	H	0.688771	0.765701	-0.348428
H253	H	0.187082	0.589539	0.213168
H254	H	1.114124	0.340369	-0.348449
C255	C	0.406699	0.599379	0.422427
C256	C	0.410106	0.568934	0.480494
C257	C	0.334172	0.606906	0.557479
C258	C	0.254831	0.675323	0.576399
C259	C	0.251421	0.705771	0.518331
C260	C	0.327354	0.667799	0.441345
H261	H	0.468842	0.518285	0.466490
H262	H	0.336698	0.584366	0.600465
H263	H	0.198621	0.703433	0.633388
H264	H	0.192685	0.756421	0.532334
H265	H	0.324829	0.690339	0.398359
H266	H	0.187116	0.828855	0.213157
C267	C	0.625901	0.380219	0.203247
C268	C	0.576440	0.361281	0.192283
C269	C	0.615492	0.284296	0.154301
C270	C	0.704005	0.226248	0.127282
C271	C	0.753471	0.245184	0.138245
C272	C	0.714419	0.322170	0.176228
H273	H	0.510913	0.404253	0.212285
H274	H	0.578873	0.270278	0.146185
H275	H	0.732913	0.169258	0.099165
H276	H	0.818998	0.202212	0.118244
H277	H	0.751037	0.336187	0.184343
C278	C	0.396134	0.829133	0.203269
C279	C	0.392713	0.890611	0.233722
C280	C	0.468634	0.891678	0.195744
C281	C	0.547976	0.831266	0.127312
C282	C	0.551399	0.769783	0.096855
C283	C	0.475478	0.768717	0.134833
H284	H	0.333977	0.935336	0.284383
H285	H	0.466099	0.937192	0.218291
H286	H	0.604177	0.832055	0.099198
H287	H	0.610135	0.725058	0.046194
H288	H	0.478013	0.723203	0.112287
C289	C	1.323181	0.141220	-0.557758
C290	C	1.361162	0.064763	-0.596260
C291	C	1.437092	0.026810	-0.673248
C292	C	1.475042	0.065314	-0.711732
C293	C	1.437061	0.141775	-0.673230
C294	C	1.361131	0.179728	-0.596243
H295	H	1.333069	0.036256	-0.567772
H296	H	1.465208	-0.029792	-0.701749
H297	H	1.531250	0.037219	-0.768723
H298	H	1.465154	0.170282	-0.701719
H299	H	1.333015	0.236330	-0.567741
H300	H	0.187138	0.828825	0.402438
