data_functionalizedCrystal
_audit_creation_method	'MofGen! by Chris Wilmer'
_symmetry_space_group_name_H-M	'P1'
_symmetry_Int_Tables_number	1
_symmetry_cell_setting	triclinic
loop_
_symmetry_equiv_pos_as_xyz
  x,y,z
_cell_length_a	21.295417
_cell_length_b	16.625548
_cell_length_c	21.295395
_cell_angle_alpha	89.935440
_cell_angle_beta	89.892576
_cell_angle_gamma	90.036593
loop_
_atom_site_label
_atom_site_type_symbol
_atom_site_fract_x
_atom_site_fract_y
_atom_site_fract_z
Zn1	Zn	-0.250046	1.233028	-0.355822
Zn2	Zn	-0.355455	1.232796	-0.250547
Zn3	Zn	-0.250215	1.098074	-0.250577
Zn4	Zn	-0.355292	1.098141	-0.355789
O5	O	-0.302752	1.165510	-0.303184
O6	O	-0.264026	1.345830	-0.341859
O7	O	-0.341634	1.214800	-0.162462
O8	O	-0.162103	1.116045	-0.264564
O9	O	-0.341470	1.345659	-0.264514
O10	O	-0.161979	1.215195	-0.341887
O11	O	-0.264315	1.115820	-0.162483
O12	O	-0.264156	0.985250	-0.264532
O13	O	-0.341192	1.116160	-0.443883
O14	O	-0.341356	0.985300	-0.341831
O15	O	-0.263868	1.215261	-0.443908
O16	O	-0.443523	1.214865	-0.264482
O17	O	-0.443403	1.115935	-0.341803
C18	C	-0.466304	1.165404	-0.303149
C19	C	-0.536272	1.165433	-0.303155
C20	C	-0.302757	0.956019	-0.303182
C21	C	-0.302775	0.866398	-0.303195
C22	C	-0.302493	1.165744	-0.467375
C23	C	-0.302383	1.165843	-0.537343
C24	C	-0.569180	1.216992	-0.262936
C25	C	-0.634922	1.217029	-0.262950
C26	C	-0.667754	1.165494	-0.303177
C27	C	-0.634838	1.113931	-0.343404
C28	C	-0.569097	1.113901	-0.343394
N29	N	-0.771020	1.094964	-0.307975
N30	N	-0.833471	1.094996	-0.307982
C31	C	-0.865829	1.165584	-0.303213
N32	N	-0.833376	1.236142	-0.298425
N33	N	-0.770919	1.236110	-0.298415
C34	C	-0.739040	1.165522	-0.303193
C35	C	-0.970023	1.217189	-0.263007
C36	C	-1.035766	1.217228	-0.263025
C37	C	-1.035681	1.114123	-0.343477
C38	C	-0.969939	1.114091	-0.343461
C39	C	-0.937113	1.165622	-0.303223
C40	C	-0.138562	1.165638	-0.303233
C41	C	-0.068594	1.165693	-0.303253
C42	C	-0.302747	1.375819	-0.303187
C43	C	-0.302745	1.465440	-0.303188
C44	C	-0.302775	1.793616	-0.303192
C45	C	-0.302768	1.702307	-0.303189
C46	C	-0.302760	1.629531	-0.303189
C47	C	-0.302754	1.538216	-0.303187
C48	C	-0.302965	1.165324	-0.139632
C49	C	-0.302898	1.165380	-0.069664
C50	C	-0.262909	1.113500	-0.036838
C51	C	-0.262841	1.113559	0.028904
C52	C	-0.302773	1.165491	0.061818
C53	C	-0.342765	1.217382	0.028985
C54	C	-0.342827	1.217326	-0.036757
N55	N	-0.357741	1.172231	0.165184
N56	N	-0.357679	1.172279	0.227636
C57	C	-0.302586	1.165663	0.259893
N58	N	-0.247555	1.158982	0.227339
N59	N	-0.247617	1.158930	0.164882
C60	C	-0.302709	1.165558	0.133104
C61	C	-0.262520	1.113844	0.364004
C62	C	-0.262451	1.113910	0.429747
C63	C	-0.342380	1.217728	0.429827
C64	C	-0.342444	1.217667	0.364084
C65	C	-0.302515	1.165721	0.331177
H66	H	-0.542456	1.258954	-0.230173
H67	H	-0.230003	1.071552	0.337209
H68	H	-0.230395	1.071202	-0.063627
O69	O	-0.537058	1.063771	-0.382375
C70	C	-0.499160	1.011647	-0.346494
H71	H	-0.489388	1.040060	-0.298804
H72	H	-0.524558	0.951903	-0.339545
C73	C	-0.448653	0.962133	-0.439679
C74	C	-0.436647	0.997034	-0.381108
H75	H	-0.410093	0.953115	-0.461031
H76	H	-0.474187	0.997248	-0.463853
H77	H	-0.469820	0.912351	-0.433880
H78	H	-0.415488	1.046819	-0.386907
H79	H	-0.411107	0.961927	-0.356935
O80	O	-0.224067	1.063041	0.060774
C81	C	-0.238296	0.982788	0.044849
H82	H	-0.288622	0.979142	0.026917
H83	H	-0.204702	0.961383	0.006629
C84	C	-0.169426	0.933442	0.125330
C85	C	-0.231239	0.928963	0.103311
H86	H	-0.165071	0.900239	0.161391
H87	H	-0.159837	0.987509	0.136058
H88	H	-0.141438	0.915606	0.093475
H89	H	-0.259225	0.946808	0.135164
H90	H	-0.240832	0.874897	0.092590
O91	O	-0.381190	1.268253	0.461694
C92	C	-0.416515	1.314016	0.418619
H93	H	-0.390761	1.316545	0.371679
H94	H	-0.464498	1.284892	0.411806
C95	C	-0.456703	1.396823	0.501831
C96	C	-0.425069	1.399935	0.444180
H97	H	-0.461983	1.449821	0.517599
H98	H	-0.432906	1.365990	0.530852
H99	H	-0.496685	1.372550	0.496145
H100	H	-0.385085	1.424199	0.449868
H101	H	-0.448860	1.430775	0.415161
H102	H	-0.661721	1.259018	-0.230198
O103	O	-0.381491	1.267940	0.060925
C104	C	-0.367303	1.348170	0.044699
H105	H	-0.317009	1.351801	0.026484
H106	H	-0.400966	1.369501	0.006603
C107	C	-0.436045	1.397632	0.125418
C108	C	-0.374270	1.402091	0.103050
H109	H	-0.440345	1.430894	0.161410
H110	H	-0.445606	1.343579	0.136348
H111	H	-0.464090	1.415406	0.093665
H112	H	-0.346227	1.384308	0.134799
H113	H	-0.364705	1.456142	0.092126
O114	O	-0.381585	1.267812	-0.068673
C115	C	-0.345485	1.319534	-0.106887
H116	H	-0.295860	1.324103	-0.087224
H117	H	-0.343510	1.294544	-0.156682
C118	C	-0.436707	1.398006	-0.132078
C119	C	-0.375757	1.403623	-0.107924
H120	H	-0.455381	1.449875	-0.132721
H121	H	-0.461029	1.363158	-0.106335
H122	H	-0.435053	1.377178	-0.173572
H123	H	-0.377414	1.424441	-0.066429
H124	H	-0.351436	1.438476	-0.133661
O125	O	-0.938229	1.267323	-0.223904
C126	C	-0.981376	1.312830	-0.188399
H127	H	-1.028182	1.315660	-0.214195
H128	H	-0.988493	1.283286	-0.140573
C129	C	-0.898177	1.395152	-0.147688
C130	C	-0.955664	1.398633	-0.179375
H131	H	-0.882317	1.448078	-0.142119
H132	H	-0.869108	1.364491	-0.171607
H133	H	-0.904117	1.370528	-0.107837
H134	H	-0.949723	1.423246	-0.219228
H135	H	-0.984732	1.429300	-0.155463
O136	O	-0.223582	1.063435	0.461539
C137	C	-0.188344	1.017592	0.418393
H138	H	-0.214190	1.014980	0.371609
H139	H	-0.140374	1.046700	0.411222
C140	C	-0.147995	0.934933	0.501611
C141	C	-0.179742	0.931719	0.444151
H142	H	-0.142686	0.881963	0.517500
H143	H	-0.171733	0.965820	0.530680
H144	H	-0.108023	0.959193	0.495627
H145	H	-0.219716	0.907468	0.450137
H146	H	-0.156010	0.900825	0.415083
O147	O	-0.381202	1.268150	0.332169
C148	C	-0.345100	1.319876	0.293959
H149	H	-0.295475	1.324440	0.313623
H150	H	-0.343124	1.294892	0.244162
C151	C	-0.436320	1.398354	0.268772
C152	C	-0.375371	1.403966	0.292928
H153	H	-0.454993	1.450224	0.268134
H154	H	-0.460643	1.363504	0.294513
H155	H	-0.434665	1.377531	0.227277
H156	H	-0.377027	1.424779	0.334425
H157	H	-0.351048	1.438822	0.267194
H158	H	-1.062412	1.072165	-0.376233
O159	O	-1.067735	1.267467	-0.224072
C160	C	-1.105616	1.319566	-0.259994
H161	H	-1.085697	1.324458	-0.309578
H162	H	-1.155477	1.294727	-0.262131
C163	C	-1.131015	1.397412	-0.168467
C164	C	-1.106547	1.403426	-0.229366
H165	H	-1.131592	1.449139	-0.149574
H166	H	-1.105495	1.362310	-0.144265
H167	H	-1.172563	1.376710	-0.170257
H168	H	-1.064997	1.424118	-0.227575
H169	H	-1.132059	1.438533	-0.253567
H170	H	-0.661574	1.071972	-0.376159
O171	O	-0.938065	1.063921	-0.382545
C172	C	-0.981138	1.018455	-0.418065
H173	H	-1.028056	1.015678	-0.392289
H174	H	-0.988007	1.048001	-0.465896
C175	C	-0.897905	0.936042	-0.458734
C176	C	-0.955529	0.932625	-0.427072
H177	H	-0.882107	0.883099	-0.464293
H178	H	-0.868885	0.966675	-0.434805
H179	H	-0.903637	0.960667	-0.498589
H180	H	-0.949795	0.908009	-0.387215
H181	H	-0.984547	0.901986	-0.450995
