data_functionalizedCrystal
_audit_creation_method	'MofGen! by Chris Wilmer'
_symmetry_space_group_name_H-M	'P1'
_symmetry_Int_Tables_number	1
_symmetry_cell_setting	triclinic
loop_
_symmetry_equiv_pos_as_xyz
  x,y,z
_cell_length_a	17.699097
_cell_length_b	14.421503
_cell_length_c	15.944551
_cell_angle_alpha	90.003340
_cell_angle_beta	96.606416
_cell_angle_gamma	90.011209
loop_
_atom_site_label
_atom_site_type_symbol
_atom_site_fract_x
_atom_site_fract_y
_atom_site_fract_z
O1	O	1.004256	0.077191	-0.106261
O2	O	1.504256	0.577191	0.393739
O3	O	0.783902	0.077176	-0.120069
O4	O	1.283902	0.577176	0.379931
O5	O	0.900096	0.077175	0.009122
O6	O	1.400096	0.577175	0.509122
O7	O	0.888061	0.077191	-0.235452
O8	O	1.388061	0.577191	0.264548
O9	O	0.900077	-0.077048	0.009103
O10	O	1.400077	0.422952	0.509103
O11	O	0.783883	-0.077048	-0.120089
O12	O	1.283883	0.422952	0.379911
O13	O	1.004236	-0.077033	-0.106281
O14	O	1.504236	0.422967	0.393719
Cu15	Cu	0.894058	-0.091122	-0.113186
Cu16	Cu	1.394058	0.408878	0.386814
Cu17	Cu	0.894081	0.091265	-0.113164
Cu18	Cu	1.394081	0.591265	0.386836
O19	O	0.888042	-0.077032	-0.235472
O20	O	1.388042	0.422968	0.264528
C21	C	0.755695	0.000062	-0.119582
C22	C	1.255695	0.500062	0.380418
C23	C	0.671675	0.000056	-0.118092
C24	C	1.171675	0.500056	0.381908
N25	N	0.894047	-0.219403	-0.113202
N26	N	1.394047	0.280597	0.386798
C27	C	0.155951	0.084160	-0.108949
C28	C	0.655951	0.584160	0.391051
C29	C	0.234898	0.084156	-0.110343
C30	C	0.734898	0.584156	0.389657
C31	C	0.274355	0.000085	-0.111052
C32	C	0.774355	0.500085	0.388948
C33	C	0.234862	-0.083987	-0.110358
C34	C	0.734862	0.416013	0.389642
C35	C	0.155917	-0.083982	-0.108958
C36	C	0.655917	0.416018	0.391042
C37	C	0.553235	-0.084011	-0.116004
C38	C	1.053235	0.415989	0.383996
C39	C	0.632185	-0.084010	-0.117407
C40	C	1.132185	0.415990	0.382593
C41	C	0.632216	0.084126	-0.117389
C42	C	1.132216	0.584126	0.382611
C43	C	0.553272	0.084132	-0.115989
C44	C	1.053272	0.584132	0.384011
C45	C	0.513786	0.000060	-0.115291
C46	C	1.013786	0.500060	0.384709
C47	C	0.428184	0.000066	-0.113777
C48	C	0.928184	0.500066	0.386223
C49	C	0.359955	0.000078	-0.112572
C50	C	0.859955	0.500078	0.387428
C51	C	0.840310	-0.469057	-0.172913
C52	C	1.340310	0.030943	0.327087
C53	C	0.908700	-0.530853	-0.189080
C54	C	1.408700	-0.030853	0.310920
C55	C	0.894066	-0.408565	-0.113182
C56	C	1.394066	0.091435	0.386818
C57	C	0.825693	-0.530862	-0.097034
C58	C	1.325693	-0.030862	0.402966
C59	C	0.894077	-0.591286	-0.113164
C60	C	1.394077	-0.091286	0.386836
C61	C	0.962491	-0.469001	-0.129386
C62	C	1.462491	0.030999	0.370614
C63	C	0.879439	-0.469004	-0.037308
C64	C	1.379439	0.030996	0.462692
C65	C	0.947878	-0.530772	-0.053442
C66	C	1.447878	-0.030772	0.446558
C67	C	0.894058	-0.303304	-0.113194
C68	C	1.394058	0.196696	0.386806
C69	C	0.894093	-0.696545	-0.113151
C70	C	1.394093	-0.196545	0.386849
C71	C	1.032444	0.000083	-0.106768
C72	C	1.532444	0.500083	0.393232
C73	C	1.116464	0.000095	-0.108258
C74	C	1.616464	0.500095	0.391742
C75	C	0.899587	0.000063	0.040405
C76	C	1.399587	0.500063	0.540405
C77	C	0.898089	0.000063	0.133648
C78	C	1.398089	0.500063	0.633648
N79	N	0.894097	0.219546	-0.113141
N80	N	1.394097	0.719546	0.386859
C81	C	0.888551	0.000082	-0.266755
C82	C	1.388551	0.500082	0.233245
C83	C	0.890049	0.000088	-0.359998
C84	C	1.390049	0.500088	0.140002
C85	C	0.822486	0.000070	0.348350
C86	C	1.322486	0.500070	0.848350
C87	C	0.857584	-0.075969	0.409430
C88	C	1.357584	0.424031	0.909430
C89	C	0.895379	0.000070	0.304368
C90	C	1.395379	0.500070	0.804368
C91	C	0.857621	0.076084	0.409432
C92	C	1.357621	0.576084	0.909432
C93	C	0.892757	0.000080	0.469276
C94	C	1.392757	0.500080	0.969276
C95	C	0.930497	-0.076032	0.364220
C96	C	1.430497	0.423968	0.864220
C97	C	0.930523	0.076088	0.364216
C98	C	1.430523	0.576088	0.864216
C99	C	0.965674	0.000031	0.425278
C100	C	1.465674	0.500031	0.925278
C101	C	0.896888	0.000063	0.209369
C102	C	1.396888	0.500063	0.709369
C103	C	0.891253	0.000081	0.564274
C104	C	1.391253	0.500081	1.064274
H105	H	0.123831	0.152621	-0.108378
H106	H	0.623831	0.652621	0.391622
O107	O	1.037871	0.000056	0.465114
O108	O	1.537871	0.500056	0.965114
C109	C	1.035693	0.000805	0.553228
C110	C	1.535693	0.500805	1.053228
H111	H	0.978962	0.030407	0.567918
H112	H	1.478962	0.530407	1.067918
H113	H	1.084074	0.045616	0.584392
H114	H	1.584074	0.545616	1.084392
H115	H	1.042283	-0.072999	0.578626
H116	H	1.542283	0.427001	1.078626
O117	O	1.031537	-0.436748	-0.145635
O118	O	1.531537	0.063252	0.354365
C119	C	1.088169	-0.468920	-0.082975
C120	C	1.588169	0.031080	0.417025
H121	H	1.061248	-0.486657	-0.023378
H122	H	1.561248	0.013343	0.476622
H123	H	1.132926	-0.412617	-0.068092
H124	H	1.632926	0.087383	0.431908
H125	H	1.116127	-0.533498	-0.106784
H126	H	1.616127	-0.033498	0.393216
H127	H	0.267046	0.152610	-0.110901
H128	H	0.767046	0.652610	0.389099
H129	H	0.826745	-0.140258	0.429467
H130	H	1.326745	0.359742	0.929467
H131	H	0.867034	-0.441815	0.026829
H132	H	1.367034	0.058185	0.526829
O133	O	0.514894	0.165775	-0.115449
O134	O	1.014894	0.665775	0.384551
C135	C	0.460648	0.170805	-0.187344
C136	C	0.960648	0.670805	0.312656
H137	H	0.478440	0.123101	-0.238599
H138	H	0.978440	0.623101	0.261401
H139	H	0.456892	0.245162	-0.211726
H140	H	0.956892	0.745162	0.288274
H141	H	0.402751	0.148219	-0.169845
H142	H	0.902751	0.648219	0.330155
H143	H	0.521097	-0.152467	-0.115423
H144	H	1.021097	0.347533	0.384577
H145	H	0.921083	-0.558020	-0.253237
H146	H	1.421083	-0.058020	0.246763
H147	H	0.993393	-0.557700	-0.002919
H148	H	1.493393	-0.057700	0.497081
H149	H	0.961294	-0.140388	0.344285
H150	H	1.461294	0.359612	0.844285
H151	H	0.767867	-0.558037	-0.083385
H152	H	1.267867	-0.058037	0.416615
H153	H	0.123766	-0.152436	-0.108404
H154	H	0.623766	0.347564	0.391596
O155	O	0.967172	0.152880	0.340300
O156	O	1.467172	0.652880	0.840300
C157	C	0.928564	0.232896	0.363086
C158	C	1.428564	0.732896	0.863086
H159	H	0.866856	0.214673	0.369723
H160	H	1.366856	0.714673	0.869723
H161	H	0.930420	0.288076	0.312170
H162	H	1.430420	0.788076	0.812170
H163	H	0.957194	0.260641	0.425788
H164	H	1.457194	0.760641	0.925788
H165	H	0.794896	-0.441959	-0.223466
H166	H	1.294896	0.058041	0.276534
O167	O	0.670532	-0.165658	-0.118238
O168	O	1.170532	0.334342	0.381762
C169	C	0.707642	-0.170684	-0.191756
C170	C	1.207642	0.329316	0.308244
H171	H	0.677868	-0.122983	-0.242160
H172	H	1.177868	0.377017	0.257840
H173	H	0.705652	-0.245042	-0.216180
H174	H	1.205652	0.254958	0.283820
H175	H	0.769413	-0.148093	-0.176378
H176	H	1.269413	0.351907	0.323622
H177	H	0.826788	0.140373	0.429454
H178	H	1.326788	0.640373	0.929454
H179	H	0.761982	-0.000009	0.314918
H180	H	1.261982	0.499991	0.814918
H181	H	0.664375	0.152581	-0.117954
H182	H	1.164375	0.652581	0.382046
H183	H	0.266994	-0.152439	-0.110930
H184	H	0.766994	0.347561	0.389070
