data_functionalizedCrystal
_audit_creation_method	'MofGen! by Chris Wilmer'
_symmetry_space_group_name_H-M	'P1'
_symmetry_Int_Tables_number	1
_symmetry_cell_setting	triclinic
loop_
_symmetry_equiv_pos_as_xyz
  x,y,z
_cell_length_a	11.026623
_cell_length_b	10.967931
_cell_length_c	9.482900
_cell_angle_alpha	68.660030
_cell_angle_beta	101.363987
_cell_angle_gamma	96.380029
loop_
_atom_site_label
_atom_site_type_symbol
_atom_site_fract_x
_atom_site_fract_y
_atom_site_fract_z
O1	O	-1.612858	-0.524844	0.010588
O2	O	-1.261455	-0.463278	-0.004837
O3	O	-1.452552	-0.308357	-0.043642
O4	O	-1.421761	-0.679765	0.049393
O5	O	-1.413731	-0.339986	0.206073
O6	O	-1.222634	-0.494907	0.244878
O7	O	-1.574037	-0.556474	0.260303
Cu8	Cu	-1.394791	-0.528578	0.275392
Cu9	Cu	-1.440701	-0.491173	-0.019925
O10	O	-1.382940	-0.711394	0.299108
C11	C	-1.197184	-0.467735	0.117175
C12	C	-1.063517	-0.433876	0.108692
C13	C	-1.433835	-0.275884	0.069117
C14	C	-1.435888	-0.131998	0.033066
C15	C	-0.986823	-0.527361	0.132108
C16	C	-0.848670	-0.492369	0.123342
C17	C	-0.638308	-0.552015	0.138288
C18	C	-0.771977	-0.585867	0.146761
C19	C	-1.418806	0.064478	0.109112
C20	C	-1.416689	-0.084235	0.146368
N21	N	-1.362508	-0.554889	0.483102
C22	C	-1.401658	0.256133	0.186348
C23	C	-1.399609	0.112247	0.222398
N24	N	-1.472993	-0.464855	-0.227638
C25	C	-1.431171	-0.498924	0.541283
C26	C	-1.404320	-0.520827	0.714187
H27	H	-0.812064	-0.386417	0.096764
O28	O	-1.300116	-0.605786	0.817740
H29	H	-1.295386	-0.609667	0.937297
O30	O	-0.820447	-0.726215	0.181925
H31	H	-0.892641	-0.733218	0.085125
H32	H	-1.453897	-0.062805	-0.091514
O33	O	-1.392851	-0.175887	0.311389
H34	H	-1.379122	-0.118275	0.388708
H35	H	-1.551657	-0.400716	0.694172
O36	O	-1.375768	0.020603	0.387416
H37	H	-1.291468	-0.034105	0.407349
O38	O	-1.035317	-0.667696	0.167273
H39	H	-0.958120	-0.730855	0.183106
H40	H	-1.509830	-0.434790	0.463091
H41	H	-1.026904	-0.327931	0.082117
H42	H	-1.436815	0.133677	-0.015458
O43	O	-1.258310	-0.639844	0.586660
H44	H	-1.253579	-0.643725	0.706217
