data_functionalizedCrystal
_audit_creation_method	'MofGen! by Chris Wilmer'
_symmetry_space_group_name_H-M	'P1'
_symmetry_Int_Tables_number	1
_symmetry_cell_setting	triclinic
loop_
_symmetry_equiv_pos_as_xyz
  x,y,z
_cell_length_a	30.706043
_cell_length_b	30.700811
_cell_length_c	30.700862
_cell_angle_alpha	59.998324
_cell_angle_beta	90.009089
_cell_angle_gamma	60.017102
loop_
_atom_site_label
_atom_site_type_symbol
_atom_site_fract_x
_atom_site_fract_y
_atom_site_fract_z
O1	O	-0.371129	-0.311882	0.012944
O2	O	-0.307810	-0.222667	-0.012907
O3	O	-0.307807	-0.311860	0.076286
O4	O	-0.371132	-0.222688	-0.076249
O5	O	-0.235387	-0.384280	0.076286
O6	O	-0.235389	-0.295087	-0.012907
O7	O	-0.298709	-0.384302	0.012944
Cu8	Cu	-0.260437	-0.346307	0.000018
Cu9	Cu	-0.346082	-0.260661	0.000019
O10	O	-0.298711	-0.295109	-0.076249
C11	C	-0.234717	-0.137223	-0.018777
C12	C	-0.261586	-0.083477	-0.015076
C13	C	-0.182313	-0.163293	-0.019143
C14	C	-0.234719	-0.216095	-0.018783
C15	C	-0.261590	-0.246679	-0.015089
C16	C	-0.182315	-0.242045	-0.019150
C17	C	-0.155868	-0.216072	-0.018777
C18	C	-0.098431	-0.246632	-0.015075
C19	C	-0.261044	-0.163316	-0.019150
C20	C	-0.496259	-0.535519	0.039262
C21	C	-0.548662	-0.509571	0.039632
C22	C	-0.496258	-0.614396	0.039265
C23	C	-0.548661	-0.588329	0.039634
C24	C	-0.575107	-0.535548	0.039265
C25	C	-0.469932	-0.588300	0.039632
C26	C	-0.368540	-0.473026	0.024976
C27	C	-0.343548	-0.444152	0.020937
C28	C	-0.370491	-0.390188	0.018910
C29	C	-0.343399	-0.358872	0.014520
C30	C	-0.422427	-0.365101	0.020926
C31	C	-0.447412	-0.393979	0.024972
C32	C	-0.420466	-0.447944	0.026997
C33	C	-0.765250	-0.393570	0.024987
C34	C	-0.819097	-0.364550	0.020950
C35	C	-0.846111	-0.389481	0.018923
C36	C	-0.904496	-0.358016	0.014538
C37	C	-0.819271	-0.443441	0.020939
C38	C	-0.765425	-0.472466	0.024984
C39	C	-0.738417	-0.447521	0.027005
C40	C	-0.368538	-0.790282	0.024985
C41	C	-0.343547	-0.840097	0.020942
C42	C	-0.370490	-0.865101	0.018916
C43	C	-0.343397	-0.919112	0.014529
C44	C	-0.422423	-0.840287	0.020930
C45	C	-0.447411	-0.790472	0.024972
C46	C	-0.420462	-0.765476	0.027004
C47	C	-0.447566	-0.479251	0.031380
C48	C	-0.469164	-0.504208	0.034875
C49	C	-0.469163	-0.668407	0.034880
C50	C	-0.447564	-0.711461	0.031386
C51	C	-0.633492	-0.504079	0.034880
C52	C	-0.680030	-0.478994	0.031387
C53	C	-0.496264	-0.071249	-0.503890
C54	C	-0.548667	-0.018476	-0.530226
C55	C	-0.496264	-0.071248	-0.425015
C56	C	-0.548668	-0.018476	-0.451471
C57	C	-0.575113	0.007601	-0.503892
C58	C	-0.469938	-0.097206	-0.451469
C59	C	-0.368541	-0.213251	-0.552051
C60	C	-0.343548	-0.242282	-0.576877
C61	C	-0.370491	-0.217366	-0.628824
C62	C	-0.343398	-0.248847	-0.655741
C63	C	-0.422427	-0.163414	-0.655946
C64	C	-0.447414	-0.134383	-0.631122
C65	C	-0.420468	-0.159304	-0.579173
C66	C	-0.765258	0.183466	-0.631659
C67	C	-0.819105	0.233276	-0.656662
C68	C	-0.846120	0.258262	-0.629713
C69	C	-0.904505	0.312262	-0.656813
C70	C	-0.819281	0.233438	-0.577759
C71	C	-0.765433	0.183637	-0.552761
C72	C	-0.738426	0.158651	-0.579717
C73	C	-0.368543	-0.213249	-0.234803
C74	C	-0.343553	-0.242284	-0.180935
C75	C	-0.370496	-0.217367	-0.153914
C76	C	-0.343404	-0.248848	-0.095506
C77	C	-0.422430	-0.163420	-0.180762
C78	C	-0.447419	-0.134390	-0.234627
C79	C	-0.420468	-0.159307	-0.261646
C80	C	-0.447569	-0.127823	-0.552258
C81	C	-0.469168	-0.102729	-0.530805
C82	C	-0.469169	-0.102728	-0.366609
C83	C	-0.447570	-0.127822	-0.320054
C84	C	-0.633499	0.061601	-0.530997
C85	C	-0.680038	0.104647	-0.552605
O86	O	0.076250	-0.384186	0.012960
O87	O	-0.076232	-0.295041	-0.012894
O88	O	0.012925	-0.384209	0.076300
O89	O	-0.012907	-0.295018	-0.076234
O90	O	0.012928	-0.311768	0.076306
O91	O	-0.076229	-0.222600	-0.012888
O92	O	0.076253	-0.311744	0.012966
Cu93	Cu	0.000012	-0.260558	0.000040
Cu94	Cu	0.000009	-0.346228	0.000033
O95	O	-0.012904	-0.222577	-0.076228
O96	O	-0.298704	0.063212	0.012964
O97	O	-0.235383	-0.063446	-0.012888
O98	O	-0.235385	-0.063454	0.076305
O99	O	-0.298701	0.063220	-0.076229
O100	O	-0.307808	-0.063475	0.076299
O101	O	-0.307805	-0.063468	-0.012895
O102	O	-0.371126	0.063191	0.012958
Cu103	Cu	-0.346078	-0.000140	0.000031
Cu104	Cu	-0.260430	-0.000115	0.000038
O105	O	-0.371124	0.063199	-0.076236
O106	O	-1.076240	0.456575	-0.692421
O107	O	-0.923759	0.329940	-0.629074
O108	O	-1.012918	0.329908	-0.629073
O109	O	-0.987082	0.456607	-0.692422
O110	O	-1.012916	0.329906	-0.701518
O111	O	-0.923757	0.329938	-0.701519
O112	O	-1.076239	0.456573	-0.764866
Cu113	Cu	-0.999998	0.393256	-0.739807
Cu114	Cu	-1.000000	0.393257	-0.654133
O115	O	-0.987080	0.456605	-0.764867
O116	O	-0.307807	-0.311860	-0.764507
O117	O	-0.371128	-0.222692	-0.701165
O118	O	-0.371128	-0.311883	-0.701162
O119	O	-0.307808	-0.222668	-0.764510
O120	O	-0.298706	-0.384305	-0.628716
O121	O	-0.298707	-0.295113	-0.628719
O122	O	-0.235386	-0.384282	-0.692061
Cu123	Cu	-0.260434	-0.346310	-0.653775
Cu124	Cu	-0.346080	-0.260663	-0.739451
O125	O	-0.235387	-0.295090	-0.692064
C126	C	-0.155869	-0.469681	0.234827
C127	C	-0.098432	-0.523419	0.261706
C128	C	-0.182315	-0.443604	0.261162
C129	C	-0.234719	-0.390831	0.155950
C130	C	-0.261588	-0.360262	0.098494
C131	C	-0.261045	-0.364874	0.182405
C132	C	-0.234718	-0.390831	0.234826
C133	C	-0.261588	-0.360263	0.261704
C134	C	-0.182315	-0.443603	0.182406
C135	C	0.018802	-0.390769	0.234846
C136	C	0.015105	-0.360196	0.261727
C137	C	0.019168	-0.443558	0.261179
C138	C	0.018804	-0.390763	0.155968
C139	C	0.015108	-0.360184	0.098511
C140	C	0.019170	-0.443552	0.182420
C141	C	0.018799	-0.469641	0.234841
C142	C	0.015099	-0.523399	0.261717
C143	C	0.019173	-0.364800	0.182425
C144	C	-0.234720	-0.216130	0.234834
C145	C	-0.261591	-0.246717	0.261708
C146	C	-0.182315	-0.242084	0.261172
C147	C	-0.234718	-0.137245	0.155964
C148	C	-0.261588	-0.083489	0.098509
C149	C	-0.182314	-0.163319	0.182421
C150	C	-0.155868	-0.216107	0.234841
C151	C	-0.098431	-0.246671	0.261721
C152	C	-0.261046	-0.163342	0.182415
C153	C	-0.039186	0.007450	-0.503869
C154	C	-0.039554	-0.018633	-0.530207
C155	C	-0.039190	-0.071427	-0.424995
C156	C	-0.039559	-0.097391	-0.451452
C157	C	-0.039188	-0.071422	-0.503874
C158	C	-0.039556	-0.018638	-0.451448
C159	C	-0.024903	0.183379	-0.552025
C160	C	-0.020865	0.233207	-0.576849
C161	C	-0.018837	0.258204	-0.628796
C162	C	-0.014448	0.312225	-0.655711
C163	C	-0.020851	0.233373	-0.655919
C164	C	-0.024897	0.183554	-0.631097
C165	C	-0.026923	0.158557	-0.579148
C166	C	-0.024911	-0.133852	-0.631644
C167	C	-0.020876	-0.162712	-0.656647
C168	C	-0.018849	-0.216685	-0.629699
C169	C	-0.014466	-0.247986	-0.656801
C170	C	-0.020866	-0.241793	-0.577746
C171	C	-0.024911	-0.212928	-0.552747
C172	C	-0.026931	-0.158956	-0.579702
C173	C	-0.024921	-0.133877	-0.234783
C174	C	-0.020880	-0.162746	-0.180915
C175	C	-0.018856	-0.216719	-0.153896
C176	C	-0.014473	-0.248025	-0.095488
C177	C	-0.020869	-0.241822	-0.180744
C178	C	-0.024908	-0.212952	-0.234610
C179	C	-0.026938	-0.158975	-0.261627
C180	C	-0.031305	0.104532	-0.552235
C181	C	-0.034799	0.061471	-0.530782
C182	C	-0.034809	-0.102729	-0.366590
C183	C	-0.031318	-0.127678	-0.320035
C184	C	-0.034805	-0.102719	-0.530980
C185	C	-0.031312	-0.127664	-0.552588
O186	O	-0.012936	-0.295041	0.371303
O187	O	0.012917	-0.384225	0.307961
O188	O	-0.076248	-0.295061	0.307950
O189	O	0.076230	-0.384205	0.371315
O190	O	-0.076240	-0.222616	0.235508
O191	O	0.012926	-0.311780	0.235520
O192	O	-0.012927	-0.222597	0.298862
Cu193	Cu	0.000000	-0.260574	0.260576
Cu194	Cu	-0.000010	-0.346247	0.346247
O195	O	0.076239	-0.311761	0.298873
C196	C	-0.574765	0.464522	-0.503864
C197	C	-0.548318	0.490499	-0.530195
C198	C	-0.495915	0.385660	-0.424987
C199	C	-0.469588	0.411757	-0.451438
C200	C	-0.495914	0.464545	-0.503857
C201	C	-0.548319	0.411734	-0.451445
C202	C	-0.764912	0.526914	-0.552039
C203	C	-0.818760	0.555765	-0.576867
C204	C	-0.845772	0.609736	-0.628812
C205	C	-0.904160	0.641027	-0.655732
C206	C	-0.818932	0.634852	-0.655929
C207	C	-0.765086	0.605997	-0.631102
C208	C	-0.738076	0.552026	-0.579155
C209	C	-0.447762	0.606616	-0.631604
C210	C	-0.422943	0.635665	-0.656601
C211	C	-0.371015	0.610756	-0.629648
C212	C	-0.344103	0.642251	-0.656743
C213	C	-0.343904	0.556789	-0.577696
C214	C	-0.368719	0.527736	-0.552705
C215	C	-0.420653	0.552659	-0.579664
C216	C	-0.447767	0.209722	-0.234786
C217	C	-0.422952	0.159900	-0.180920
C218	C	-0.371022	0.134917	-0.153895
C219	C	-0.344113	0.080898	-0.095489
C220	C	-0.343912	0.159762	-0.180738
C221	C	-0.368730	0.209584	-0.234602
C222	C	-0.420658	0.234557	-0.261624
C223	C	-0.679691	0.520745	-0.552238
C224	C	-0.633151	0.495808	-0.530782
C225	C	-0.469009	0.331641	-0.366584
C226	C	-0.447562	0.288581	-0.320030
C227	C	-0.469007	0.496045	-0.530956
C228	C	-0.447559	0.521154	-0.552558
H229	H	-0.569892	-0.610168	0.040224
H230	H	-0.569559	0.389904	-0.430206
H231	H	-0.346593	-0.233536	-0.256801
N232	N	-0.503436	-0.076216	-0.660371
H233	H	-0.504296	-0.043266	-0.694040
H234	H	-0.528325	-0.084873	-0.669864
N235	N	-0.451478	-0.136528	-0.711978
H236	H	-0.427767	-0.163101	-0.723592
H237	H	-0.485126	-0.134977	-0.712859
H238	H	-0.161075	-0.465420	0.161163
N239	N	-0.154183	-0.298301	-0.019936
H240	H	-0.152235	-0.333201	0.012779
H241	H	-0.174579	-0.288492	-0.053020
N242	N	-0.154182	-0.298352	0.318220
H243	H	-0.143563	-0.288589	0.341524
H244	H	-0.178919	-0.310910	0.330916
N245	N	0.019949	-0.472482	0.318230
H246	H	0.053003	-0.516157	0.341530
H247	H	0.020100	-0.447886	0.330927
N248	N	-0.318086	-0.134421	0.154284
H249	H	-0.330822	-0.096946	0.116997
H250	H	-0.320244	-0.165215	0.152364
N251	N	-0.040345	-0.153658	-0.423325
H252	H	-0.040518	-0.166230	-0.386029
H253	H	-0.073402	-0.143856	-0.443755
N254	N	0.019955	-0.308530	0.154289
H255	H	0.020125	-0.295961	0.179014
H256	H	0.053011	-0.318326	0.143671
H257	H	-0.161083	-0.141451	-0.019737
H258	H	-0.304103	-0.141493	-0.019747
N259	N	0.019967	-0.472477	0.154290
H260	H	0.020148	-0.509950	0.179020
H261	H	-0.012735	-0.441683	0.121335
H262	H	-0.301619	0.536502	-0.555753
N263	N	-0.040343	0.010288	-0.587261
H264	H	-0.040514	0.047754	-0.600002
H265	H	-0.007643	-0.020514	-0.589404
N266	N	-0.154188	-0.134387	0.154299
H267	H	-0.178905	-0.096922	0.117006
H268	H	-0.143577	-0.121753	0.174737
H269	H	-0.445031	0.139679	-0.159066
N270	N	-0.318072	-0.308615	0.154239
H271	H	-0.341388	-0.318361	0.174602
H272	H	-0.320206	-0.273742	0.152292
H273	H	-0.019223	0.253419	-0.554762
H274	H	-0.301268	-0.286210	-0.159078
N275	N	-0.018668	0.260335	-0.711944
H276	H	-0.015800	0.295664	-0.723555
H277	H	0.013422	0.227557	-0.712811
H278	H	-0.040107	0.003166	-0.430195
N279	N	-0.018704	-0.135676	-0.151956
H280	H	-0.020602	-0.097104	-0.177246
H281	H	-0.049822	-0.125196	-0.138302
N282	N	-0.027110	-0.075661	-0.263924
H283	H	-0.025218	-0.064141	-0.238743
H284	H	0.004008	-0.082700	-0.277586
H285	H	-0.026554	0.163031	-0.509727
H286	H	-0.489696	-0.770271	0.026613
H287	H	-0.026537	0.163341	-0.653183
N288	N	-0.339479	-0.240129	-0.496023
H289	H	-0.302788	-0.278707	-0.482610
H290	H	-0.336078	-0.209048	-0.496059
H291	H	-0.490047	0.626911	-0.653559
H292	H	-0.426880	-0.139669	-0.430231
N293	N	-0.576787	-0.453317	0.040421
H294	H	-0.552073	-0.440736	0.040591
H295	H	-0.609733	-0.418473	0.007708
N296	N	-0.154196	-0.472513	0.318216
H297	H	-0.116914	-0.509967	0.330959
H298	H	-0.152299	-0.441698	0.320357
N299	N	-0.027088	-0.075644	-0.660712
H300	H	-0.025198	-0.064119	-0.697415
H301	H	-0.061557	-0.041205	-0.664117
H302	H	-0.426877	-0.610113	0.040221
H303	H	-0.840928	0.678793	-0.698223
H304	H	-0.019231	-0.142268	-0.698946
H305	H	-0.019224	-0.285734	-0.555806
N306	N	-0.287540	-0.300472	-0.547625
H307	H	-0.274264	-0.311854	-0.510949
H308	H	-0.287516	-0.334981	-0.544148
N309	N	-0.027090	-0.240002	-0.496718
H310	H	-0.025194	-0.278573	-0.483437
H311	H	0.004030	-0.250488	-0.472569
H312	H	-0.301627	0.139419	-0.158731
H313	H	-0.301263	-0.860295	0.019298
H314	H	-0.026547	-0.233395	-0.256467
H315	H	-0.743271	0.163129	-0.653612
N316	N	-0.339474	-0.763319	0.027175
H317	H	-0.302786	-0.786593	0.025282
H318	H	-0.360180	-0.718534	-0.003953
N319	N	-0.018684	-0.300037	-0.151606
H320	H	-0.015821	-0.314518	-0.113409
H321	H	-0.052183	-0.291515	-0.169678
N322	N	-0.412557	0.382860	-0.423303
H323	H	-0.399819	0.345394	-0.386010
H324	H	-0.389305	0.370232	-0.443732
H325	H	-0.569551	0.532974	-0.573266
N326	N	-0.503775	0.236661	-0.263932
H327	H	-0.517185	0.213366	-0.238755
H328	H	-0.527844	0.281442	-0.277591
N329	N	-0.735781	0.468702	-0.496015
H330	H	-0.760952	0.457168	-0.482606
H331	H	-0.704749	0.434270	-0.496057
N332	N	-0.848050	0.260051	-0.712694
H333	H	-0.822768	0.236667	-0.725975
H334	H	-0.879076	0.256595	-0.712727
H335	H	-0.743236	0.626448	-0.653184
H336	H	-0.346594	-0.516967	0.026627
H337	H	-0.445021	0.679604	-0.698898
H338	H	-0.840609	0.535313	-0.554785
N339	N	-0.339480	0.469532	-0.496678
H340	H	-0.302817	0.458155	-0.483394
H341	H	-0.360108	0.476501	-0.472529
H342	H	-0.346652	0.229808	-0.256454
H343	H	-0.444358	-0.321165	0.019277
N344	N	-0.287538	-0.471206	0.018761
H345	H	-0.274262	-0.509772	0.020656
H346	H	-0.287511	-0.440197	-0.015724
H347	H	-0.841265	-0.463745	0.019294
H348	H	-0.489696	-0.373552	0.026615
H349	H	-0.840946	-0.320615	0.019306
N350	N	-0.736118	-0.366676	0.027178
H351	H	-0.761288	-0.328096	0.025293
H352	H	-0.705086	-0.397750	0.061663
N353	N	-0.576794	0.010432	-0.587278
H354	H	-0.614072	0.047890	-0.600018
H355	H	-0.556373	0.023074	-0.610539
H356	H	-0.743575	-0.516400	0.026628
N357	N	-0.451489	-0.867249	0.018743
H358	H	-0.427781	-0.902573	0.015878
H359	H	-0.461024	-0.882694	0.052254
H360	H	-0.743584	0.163432	-0.510462
N361	N	-0.576797	0.010435	-0.423340
H362	H	-0.552082	-0.014110	-0.386045
H363	H	-0.587413	0.054118	-0.443768
H364	H	-0.841275	0.253788	-0.555818
N365	N	-0.503430	-0.076206	-0.263584
H366	H	-0.516707	-0.064825	-0.238295
H367	H	-0.503462	-0.041691	-0.294622
N368	N	-0.451497	-0.136543	-0.151622
H369	H	-0.427789	-0.163116	-0.113425
H370	H	-0.461034	-0.093496	-0.169693
