data_functionalizedCrystal
_audit_creation_method	'MofGen! by Chris Wilmer'
_symmetry_space_group_name_H-M	'P1'
_symmetry_Int_Tables_number	1
_symmetry_cell_setting	triclinic
loop_
_symmetry_equiv_pos_as_xyz
  x,y,z
_cell_length_a	22.863218
_cell_length_b	22.862586
_cell_length_c	22.858745
_cell_angle_alpha	60.006856
_cell_angle_beta	60.013818
_cell_angle_gamma	59.991795
loop_
_atom_site_label
_atom_site_type_symbol
_atom_site_fract_x
_atom_site_fract_y
_atom_site_fract_z
O1	O	0.081006	-0.854581	0.714630
O2	O	0.030492	-0.665350	0.575795
O3	O	0.150314	-0.785089	0.575706
O4	O	-0.038816	-0.734841	0.714718
O5	O	0.190066	-0.745348	0.615369
O6	O	0.070244	-0.625609	0.615458
O7	O	0.120758	-0.814840	0.754293
Zn8	Zn	0.101812	-0.713914	0.691173
Zn9	Zn	0.049438	-0.766275	0.638915
O10	O	0.000936	-0.695100	0.754381
N11	N	0.137558	-0.678184	0.726840
N12	N	0.013698	-0.802011	0.603247
C13	C	0.187224	-0.518558	0.776483
C14	C	0.187235	-0.628552	0.776467
C15	C	0.214753	-0.601061	0.803961
C16	C	0.334724	-0.580392	0.740801
C17	C	0.409718	-0.605392	0.715784
C18	C	0.409746	-0.726732	0.762051
C19	C	0.334754	-0.701730	0.787070
C20	C	0.205297	-0.481049	0.702756
C21	C	0.180267	-0.406048	0.677779
C22	C	0.119099	-0.406071	0.800259
C23	C	0.144128	-0.481071	0.825236
C24	C	0.113501	-0.610437	0.794610
C25	C	0.088492	-0.635428	0.769607
C26	C	0.210943	-0.696652	0.708337
C27	C	0.235956	-0.671660	0.733331
C28	C	0.113585	-0.610461	0.923980
C29	C	0.088635	-0.635476	0.998978
C30	C	0.211128	-0.696714	0.998930
C31	C	0.236077	-0.671700	0.923930
C32	C	0.187303	-0.628571	0.886457
C33	C	0.297246	-0.628559	0.776441
C34	C	-0.117796	-0.823430	0.581283
C35	C	-0.007671	-0.823587	0.471446
C36	C	-0.007879	-0.933535	0.581483
C37	C	-0.007861	-0.823583	0.581554
C38	C	-0.035301	-0.851035	0.553942
N39	N	0.446162	-0.678198	0.726752
O40	O	0.691234	-0.690164	0.550341
O41	O	0.691462	-0.829422	0.739388
O42	O	0.691373	-0.829102	0.619485
O43	O	0.691323	-0.690484	0.670244
O44	O	0.572233	-0.789455	0.659278
O45	O	0.572322	-0.789775	0.779181
O46	O	0.572094	-0.650517	0.590134
Zn47	Zn	0.553292	-0.713851	0.690976
Zn48	Zn	0.710264	-0.766088	0.638547
O49	O	0.572183	-0.650837	0.710037
N50	N	0.817394	-0.801741	0.602763
N51	N	0.137538	-0.369628	0.726874
O52	O	-0.038795	-0.124419	0.714761
O53	O	0.150256	-0.124417	0.575522
O54	O	0.030331	-0.124432	0.575860
O55	O	0.081131	-0.124404	0.714423
O56	O	0.070086	-0.243584	0.615573
O57	O	0.190011	-0.243569	0.615236
O58	O	0.000960	-0.243571	0.754474
Zn59	Zn	0.101797	-0.262488	0.691160
Zn60	Zn	0.049419	-0.105500	0.638836
O61	O	0.120885	-0.243556	0.754137
N62	N	0.013669	0.001640	0.603123
N63	N	0.137749	-0.678230	1.035381
O64	O	0.125655	-0.854547	1.280566
O65	O	-0.013567	-0.665426	1.280590
O66	O	-0.013245	-0.785328	1.280537
O67	O	0.125333	-0.734644	1.280618
O68	O	0.026456	-0.745599	1.161392
O69	O	0.026134	-0.625697	1.161444
O70	O	0.165355	-0.814817	1.161420
Zn71	Zn	0.102048	-0.713949	1.142516
Zn72	Zn	0.049740	-0.766294	1.299495
O73	O	0.165033	-0.694915	1.161473
N74	N	0.014038	-0.802020	1.406629
C75	C	0.045634	-0.621635	0.576499
C76	C	0.194019	-0.769918	0.576389
C77	C	0.105616	-0.858555	0.753588
C78	C	-0.042769	-0.710272	0.753698
C79	C	0.631920	-0.828776	0.783102
C80	C	0.631811	-0.828380	0.634616
C81	C	0.631633	-0.651162	0.546422
C82	C	0.631745	-0.651559	0.694907
C83	C	0.193900	-0.183846	0.576155
C84	C	0.045437	-0.184012	0.576622
C85	C	-0.042734	-0.183994	0.753792
C86	C	0.105780	-0.183977	0.753375
C87	C	-0.012889	-0.621735	1.221020
C88	C	-0.012483	-0.770211	1.220931
C89	C	0.164678	-0.858508	1.220991
C90	C	0.164280	-0.710023	1.221052
H91	H	0.028603	-0.620718	1.029520
C92	C	-0.116153	-0.695810	0.812674
C93	C	-0.175132	-0.622400	0.798233
C94	C	-0.248516	-0.607938	0.857210
C95	C	-0.262921	-0.666885	0.930627
C96	C	-0.203941	-0.740299	0.945071
C97	C	-0.130557	-0.754762	0.886095
H98	H	-0.164469	-0.578760	0.743883
H99	H	-0.292177	-0.553591	0.846517
H100	H	-0.317245	-0.656179	0.974285
H101	H	-0.214604	-0.783940	0.999422
H102	H	-0.086896	-0.809108	0.896787
C103	C	0.031063	-0.548203	0.517588
C104	C	-0.042373	-0.489289	0.532126
C105	C	-0.056943	-0.415858	0.473215
C106	C	0.001922	-0.401340	0.399765
C107	C	0.075363	-0.460255	0.385223
C108	C	0.089934	-0.533687	0.444134
H109	H	-0.085953	-0.500035	0.586501
H110	H	-0.111310	-0.372245	0.483980
H111	H	-0.008864	-0.346981	0.356155
H112	H	0.118943	-0.449510	0.330848
H113	H	0.144300	-0.577300	0.433369
C114	C	0.267401	-0.784382	0.517411
C115	C	0.326379	-0.857792	0.531851
C116	C	0.399761	-0.872256	0.472873
C117	C	0.414166	-0.813310	0.399455
C118	C	0.355187	-0.739895	0.385012
C119	C	0.281804	-0.725431	0.443990
H120	H	0.315717	-0.901432	0.586202
H121	H	0.443422	-0.926603	0.483566
H122	H	0.468488	-0.824017	0.355796
H123	H	0.365849	-0.696255	0.330661
H124	H	0.238144	-0.671084	0.433298
C125	C	0.120467	-0.183971	0.812187
C126	C	0.140233	-0.122094	0.798934
C127	C	0.154920	-0.122088	0.857746
C128	C	0.149841	-0.183957	0.929811
C129	C	0.130074	-0.245838	0.943067
C130	C	0.115387	-0.245845	0.884255
H131	H	0.143994	-0.076291	0.745584
H132	H	0.169553	-0.076279	0.847932
H133	H	0.160714	-0.183952	0.973347
H134	H	0.126314	-0.291642	0.996417
H135	H	0.100754	-0.291654	0.894069
C136	C	0.632003	-0.887841	0.856449
C137	C	0.632057	-0.961222	0.870754
C138	C	0.632141	-1.020287	0.944101
C139	C	0.632171	-1.005971	1.003143
C140	C	0.632118	-0.932587	0.988839
C141	C	0.632034	-0.873522	0.915492
H142	H	0.632034	-0.971822	0.827046
H143	H	0.632180	-1.074611	0.954689
H144	H	0.632233	-1.049695	1.057438
H145	H	0.632140	-0.921987	1.032547
H146	H	0.631994	-0.819198	0.904904
C147	C	-0.071942	-0.548360	1.221028
C148	C	-0.102771	-0.502214	1.159149
C149	C	-0.161823	-0.428838	1.159157
C150	C	-0.190046	-0.401610	1.221044
C151	C	-0.159218	-0.447757	1.282928
C152	C	-0.100165	-0.521132	1.282920
H153	H	-0.081878	-0.522369	1.113332
H154	H	-0.184644	-0.394677	1.113346
H155	H	-0.233760	-0.347293	1.221050
H156	H	-0.180110	-0.427601	1.328744
H157	H	-0.077344	-0.555293	1.328730
C158	C	0.120185	-0.931988	0.812498
C159	C	0.073751	-0.978240	0.843351
C160	C	0.088320	-1.051673	0.902261
C161	C	0.149323	-1.078855	0.930318
C162	C	0.195760	-1.032603	0.899464
C163	C	0.181191	-0.959170	0.840554
H164	H	0.028590	-0.958118	0.822583
H165	H	0.053944	-1.085911	0.925101
H166	H	0.160108	-1.133214	0.973926
H167	H	0.240921	-1.052724	0.920233
H168	H	0.215567	-0.924931	0.817714
H169	H	0.631832	-0.871926	0.623751
H170	H	-0.056000	-0.781036	1.220859
C171	C	0.631537	-0.592093	0.473079
C172	C	0.631478	-0.518710	0.458776
C173	C	0.631383	-0.459641	0.385433
C174	C	0.631346	-0.473955	0.326393
C175	C	0.631406	-0.547341	0.340695
C176	C	0.631501	-0.606410	0.414038
H177	H	0.631505	-0.508111	0.502482
H178	H	0.631339	-0.405316	0.374846
H179	H	0.631276	-0.430229	0.272100
H180	H	0.631379	-0.557940	0.296988
H181	H	0.631545	-0.660735	0.424624
C182	C	0.631723	-0.592728	0.709575
C183	C	0.631788	-0.607396	0.783038
C184	C	0.631766	-0.548565	0.797707
C185	C	0.631678	-0.475065	0.738912
C186	C	0.631612	-0.460393	0.665444
C187	C	0.631634	-0.519224	0.650776
H188	H	0.631854	-0.661809	0.826566
H189	H	0.631814	-0.559427	0.852093
H190	H	0.631661	-0.431514	0.749771
H191	H	0.631546	-0.405980	0.621917
H192	H	0.631586	-0.508363	0.596390
H193	H	0.248082	-0.183515	0.532333
H194	H	0.034558	-0.184014	0.533090
H195	H	-0.097027	-0.183996	0.797505
C196	C	0.223099	-0.695381	1.221073
C197	C	0.295155	-0.700508	1.159210
C198	C	0.353974	-0.685866	1.159231
C199	C	0.340738	-0.666099	1.221116
C200	C	0.268678	-0.660971	1.282984
C201	C	0.209859	-0.675613	1.282963
H202	H	0.304957	-0.715142	1.113395
H203	H	0.407317	-0.689662	1.113432
H204	H	0.384279	-0.655260	1.221131
H205	H	0.258877	-0.646337	1.328799
H206	H	0.156516	-0.671817	1.328762
H207	H	0.073862	-0.575336	0.893474
H208	H	0.250848	-0.731818	1.029432
C209	C	0.223730	-0.931883	1.220983
C210	C	0.210723	-1.000374	1.282834
C211	C	0.269775	-1.073749	1.282826
C212	C	0.341834	-1.078634	1.220968
C213	C	0.354844	-1.010141	1.159112
C214	C	0.295792	-0.936766	1.159120
H215	H	0.157378	-0.996760	1.328629
H216	H	0.260144	-1.124452	1.328616
H217	H	0.385548	-1.132951	1.220962
H218	H	0.408189	-1.013755	1.113316
H219	H	0.305423	-0.886063	1.113330
C220	C	0.059910	-0.563018	0.842057
C221	C	0.060235	-0.486895	0.817166
C222	C	0.006644	-0.439477	0.864617
C223	C	-0.047273	-0.468182	0.936959
C224	C	-0.047601	-0.544309	0.961853
C225	C	0.005990	-0.591727	0.914402
H226	H	0.100150	-0.465641	0.763611
H227	H	0.006887	-0.383122	0.846188
H228	H	-0.086945	-0.433081	0.972085
H229	H	-0.087515	-0.565562	1.015408
H230	H	0.005748	-0.648081	0.932831
C231	C	0.007385	-0.615509	0.789556
C232	C	-0.039654	-0.637351	0.868771
C233	C	-0.120759	-0.617433	0.888718
C234	C	-0.154825	-0.575673	0.829450
C235	C	-0.107786	-0.553828	0.750229
C236	C	-0.026681	-0.573746	0.730282
H237	H	-0.014437	-0.668267	0.912650
H238	H	-0.155581	-0.633604	0.947363
H239	H	-0.214864	-0.560928	0.844216
H240	H	-0.133003	-0.522913	0.706351
H241	H	0.008141	-0.557575	0.671638
H242	H	0.296108	-0.686456	0.893383
H243	H	0.250621	-0.731757	0.673222
H244	H	0.295996	-0.686402	0.718551
H245	H	0.440287	-0.786313	0.770693
C246	C	0.293525	-0.754718	0.826275
C247	C	0.334786	-0.835203	0.837959
C248	C	0.293557	-0.888191	0.877167
C249	C	0.211068	-0.860694	0.904692
C250	C	0.169802	-0.780205	0.893009
C251	C	0.211031	-0.727217	0.853800
H252	H	0.395854	-0.855561	0.817583
H253	H	0.324105	-0.947774	0.885816
H254	H	0.180548	-0.899919	0.933716
H255	H	0.108734	-0.759847	0.913385
H256	H	0.180483	-0.667634	0.845152
H257	H	0.304191	-0.520811	0.732143
C258	C	0.450945	-0.552406	0.676577
C259	C	0.502526	-0.560824	0.707018
C260	C	0.543754	-0.507835	0.667810
C261	C	0.533401	-0.446428	0.598160
C262	C	0.481817	-0.438008	0.567715
C263	C	0.440589	-0.490996	0.606923
H264	H	0.510193	-0.606283	0.758580
H265	H	0.581940	-0.514069	0.690347
H266	H	0.563920	-0.407203	0.569136
H267	H	0.474151	-0.392549	0.516153
H268	H	0.402404	-0.484763	0.584386
H269	H	0.194981	-0.375507	0.617742
C270	C	0.252700	-0.522286	0.649131
C271	C	0.272571	-0.481024	0.568031
C272	C	0.319975	-0.522261	0.514403
C273	C	0.347510	-0.604758	0.541875
C274	C	0.327640	-0.646024	0.622979
C275	C	0.280235	-0.604788	0.676607
H276	H	0.252187	-0.419951	0.547691
H277	H	0.334684	-0.491712	0.454364
H278	H	0.382602	-0.635284	0.502176
H279	H	0.348023	-0.707098	0.643319
H280	H	0.265526	-0.635336	0.736646
H281	H	0.129402	-0.511613	0.885274
C282	C	0.071707	-0.364830	0.853884
C283	C	0.051846	-0.406088	0.934985
C284	C	0.004457	-0.364849	0.988611
C285	C	-0.023072	-0.282352	0.961136
C286	C	-0.003211	-0.241089	0.880031
C287	C	0.044179	-0.282328	0.826406
H288	H	0.072225	-0.467162	0.955327
H289	H	-0.010245	-0.395396	1.048650
H290	H	-0.058152	-0.251824	1.000833
H291	H	-0.023590	-0.180015	0.859689
H292	H	0.058881	-0.251781	0.766366
