data_functionalizedCrystal
_audit_creation_method	'MofGen! by Chris Wilmer'
_symmetry_space_group_name_H-M	'P1'
_symmetry_Int_Tables_number	1
_symmetry_cell_setting	triclinic
loop_
_symmetry_equiv_pos_as_xyz
  x,y,z
_cell_length_a	12.645331
_cell_length_b	12.645330
_cell_length_c	12.759393
_cell_angle_alpha	89.969952
_cell_angle_beta	89.982788
_cell_angle_gamma	90.018103
loop_
_atom_site_label
_atom_site_type_symbol
_atom_site_fract_x
_atom_site_fract_y
_atom_site_fract_z
Zn1	Zn	1.620723	-0.421965	-0.593956
Zn2	Zn	1.620607	-0.599269	-0.418281
Zn3	Zn	1.443440	-0.422022	-0.418300
Zn4	Zn	1.443419	-0.599188	-0.593927
O5	O	1.532047	-0.510611	-0.506116
O6	O	1.769055	-0.445495	-0.570657
O7	O	1.597066	-0.575814	-0.271263
O8	O	1.467014	-0.273667	-0.441621
O9	O	1.768970	-0.575760	-0.441590
O10	O	1.597263	-0.273625	-0.570675
O11	O	1.466902	-0.445591	-0.271276
O12	O	1.295090	-0.445513	-0.441592
O13	O	1.466979	-0.575622	-0.740952
O14	O	1.295075	-0.575677	-0.570625
O15	O	1.597243	-0.445417	-0.740974
O16	O	1.597045	-0.747606	-0.441561
O17	O	1.466866	-0.747546	-0.570607
C18	C	1.256618	-0.510593	-0.506108
C19	C	1.138787	-0.510610	-0.506129
C20	C	1.531970	-0.786041	-0.506101
C21	C	1.532034	-0.903871	-0.506130
C22	C	1.093932	-0.592636	-0.587185
C23	C	0.971371	-0.592973	-0.586944
C24	C	0.970835	-0.540459	-0.395273
C25	C	1.093434	-0.541038	-0.395742
C26	C	1.093641	-0.398562	-0.534962
C27	C	0.971036	-0.399181	-0.537403
C28	C	1.450476	-1.071442	-0.587563
C29	C	1.450059	-0.948882	-0.587301
C30	C	1.501790	-0.948475	-0.395409
C31	C	1.501292	-1.071074	-0.395904
C32	C	1.644334	-1.070957	-0.534520
C33	C	1.643646	-0.948350	-0.536941
C34	C	1.808552	-0.510630	-0.506125
C35	C	1.926382	-0.510638	-0.506129
C36	C	1.532121	-0.510504	-0.780149
C37	C	1.532153	-0.510459	-0.896926
C38	C	1.532154	-0.234106	-0.506154
C39	C	1.532199	-0.116276	-0.506170
C40	C	1.599991	-0.442654	-0.951801
C41	C	1.600016	-0.442616	-1.061525
C42	C	1.464363	-0.578195	-1.061490
C43	C	1.464333	-0.578227	-0.951767
C44	C	1.667811	-0.374885	-0.896960
C45	C	1.735656	-0.307076	-0.951835
C46	C	1.735681	-0.307038	-1.061559
C47	C	1.667862	-0.374809	-1.116408
C48	C	1.532034	-0.510641	-0.233149
C49	C	1.532208	-0.510388	-0.116372
H50	H	0.941318	-0.574370	-0.669128
H51	H	1.419320	-1.099768	-0.371886
N52	N	1.391219	-0.651274	-1.120657
H53	H	1.434290	-0.700391	-1.166174
H54	H	1.348243	-0.694165	-1.069186
H55	H	1.122650	-0.337454	-0.475931
H56	H	1.420673	-0.917867	-0.370958
N57	N	1.391166	-0.651356	-0.892571
H58	H	1.348213	-0.694288	-0.943960
H59	H	1.434287	-0.700430	-0.847036
N60	N	1.808810	-0.233994	-0.892685
H61	H	1.798510	-0.244313	-0.814849
H62	H	1.884512	-0.250514	-0.911878
H63	H	1.468981	-0.918721	-0.669400
N64	N	0.930125	-0.647746	-0.362426
H65	H	0.882899	-0.677186	-0.419184
H66	H	0.991794	-0.697115	-0.350836
N67	N	1.132993	-0.568264	-0.696397
H68	H	1.180152	-0.503819	-0.694396
H69	H	1.174299	-0.630628	-0.724090
H70	H	1.667875	-0.374760	-1.205753
N71	N	1.134692	-0.701995	-0.562163
H72	H	1.182088	-0.698635	-0.498551
H73	H	1.073055	-0.750579	-0.547377
H74	H	1.121998	-0.622930	-0.371373
H75	H	0.941693	-0.482550	-0.333221
N76	N	0.932468	-0.702956	-0.561597
H77	H	0.959302	-0.754176	-0.616177
H78	H	0.959450	-0.724656	-0.490267
N79	N	1.134636	-0.362464	-0.640232
H80	H	1.182897	-0.418386	-0.670301
H81	H	1.073161	-0.350564	-0.689351
H82	H	1.667801	-0.374911	-0.807617
N83	N	1.808846	-0.233910	-1.120758
H84	H	1.765795	-0.184764	-1.166288
H85	H	1.851791	-0.191054	-1.069304
N86	N	1.132748	-0.465322	-0.312975
H87	H	1.070435	-0.431720	-0.276344
H88	H	1.176998	-0.505139	-0.260204
H89	H	0.940412	-0.334843	-0.482716
N90	N	0.932558	-0.369370	-0.645466
H91	H	0.886392	-0.427810	-0.674053
H92	H	0.890347	-0.301717	-0.641231
H93	H	1.558233	-1.100736	-0.333192
N94	N	1.475294	-1.110393	-0.696673
H95	H	1.539752	-1.157482	-0.694406
H96	H	1.413056	-1.151750	-0.724604
N97	N	1.341042	-1.112367	-0.563012
H98	H	1.344174	-1.159824	-0.499395
H99	H	1.292359	-1.050807	-0.548420
N100	N	1.673880	-0.909702	-0.644861
H101	H	1.745735	-0.938560	-0.664242
H102	H	1.619734	-0.934785	-0.697451
N103	N	1.339948	-0.910145	-0.562412
H104	H	1.288969	-0.936988	-0.617213
H105	H	1.317975	-0.937228	-0.491180
H106	H	1.559426	-0.919322	-0.333108
N107	N	1.680903	-1.111800	-0.639639
H108	H	1.629037	-1.089502	-0.695622
H109	H	1.753005	-1.081722	-0.656170
N110	N	1.728556	-0.907755	-0.464143
H111	H	1.695729	-0.859746	-0.409913
H112	H	1.763886	-0.969428	-0.428035
N113	N	1.724989	-1.109366	-0.456004
H114	H	1.796873	-1.079999	-0.474611
H115	H	1.704332	-1.084647	-0.383583
