data_functionalizedCrystal
_audit_creation_method	'MofGen! by Chris Wilmer'
_symmetry_space_group_name_H-M	'P1'
_symmetry_Int_Tables_number	1
_symmetry_cell_setting	triclinic
loop_
_symmetry_equiv_pos_as_xyz
  x,y,z
_cell_length_a	12.759399
_cell_length_b	12.759401
_cell_length_c	12.759393
_cell_angle_alpha	89.978843
_cell_angle_beta	90.030906
_cell_angle_gamma	89.989281
loop_
_atom_site_label
_atom_site_type_symbol
_atom_site_fract_x
_atom_site_fract_y
_atom_site_fract_z
Zn1	Zn	-0.418339	-1.606263	0.594023
Zn2	Zn	-0.594054	-1.606153	0.418342
Zn3	Zn	-0.418376	-1.430562	0.418358
Zn4	Zn	-0.593963	-1.430553	0.593979
O5	O	-0.506183	-1.518383	0.506175
O6	O	-0.441670	-1.753270	0.570731
O7	O	-0.570804	-1.582818	0.271323
O8	O	-0.271350	-1.453919	0.441685
O9	O	-0.570768	-1.753189	0.441659
O10	O	-0.271323	-1.583006	0.570746
O11	O	-0.441735	-1.453812	0.271334
O12	O	-0.441646	-1.283540	0.441642
O13	O	-0.570612	-1.453903	0.741006
O14	O	-0.570648	-1.283533	0.570670
O15	O	-0.441582	-1.582997	0.741038
O16	O	-0.741063	-1.582809	0.441615
O17	O	-0.740996	-1.453796	0.570655
C18	C	-0.506142	-1.245415	0.506154
C19	C	-0.506150	-1.128639	0.506169
C20	C	-0.439064	-0.964082	0.573484
C21	C	-0.439051	-1.073807	0.573480
C22	C	-0.573275	-1.073741	0.438866
C23	C	-0.573293	-0.964019	0.438876
C24	C	-0.779150	-1.518318	0.506151
C25	C	-0.895927	-1.518387	0.506176
C26	C	-0.950789	-1.585641	0.439062
C27	C	-1.060513	-1.585708	0.439097
C28	C	-1.060503	-1.451259	0.573364
C29	C	-0.950781	-1.451198	0.573334
C30	C	-0.232150	-1.518476	0.506222
C31	C	-0.115373	-1.518516	0.506242
C32	C	-0.506082	-1.518461	0.780209
C33	C	-0.506039	-1.518495	0.896986
C34	C	-0.506210	-0.792416	0.506192
C35	C	-0.506182	-0.909193	0.506184
C36	C	-0.506208	-1.518365	0.233208
C37	C	-0.505955	-1.518535	0.116432
C38	C	-0.438842	-1.585719	0.951866
C39	C	-0.438797	-1.585737	1.061590
C40	C	-0.573154	-1.451303	1.061543
C41	C	-0.573194	-1.451281	0.951821
H42	H	-0.384398	-1.118493	0.628283
O43	O	-0.638350	-0.910576	0.373447
C44	C	-0.578465	-0.847093	0.305684
H45	H	-0.498890	-0.830680	0.342875
H46	H	-0.566828	-0.889337	0.227837
C47	C	-0.733999	-0.763014	0.240905
C48	C	-0.636267	-0.742847	0.286588
H49	H	-0.769655	-0.698712	0.229121
H50	H	-0.774346	-0.805786	0.286555
H51	H	-0.724287	-0.798219	0.176038
H52	H	-0.645981	-0.707655	0.351459
H53	H	-0.595923	-0.700067	0.240948
H54	H	-0.627912	-1.118394	0.384065
H55	H	-0.384418	-0.919446	0.628290
O56	O	-1.113629	-1.385956	0.638691
C57	C	-1.041673	-1.326566	0.697905
H58	H	-0.963425	-1.369554	0.701559
H59	H	-1.030094	-1.246786	0.659359
C60	C	-1.180522	-1.258592	0.805234
C61	C	-1.084418	-1.311396	0.809728
H62	H	-1.206889	-1.249230	0.874210
H63	H	-1.229000	-1.298601	0.765338
H64	H	-1.170859	-1.192115	0.773108
H65	H	-1.094084	-1.377877	0.841842
H66	H	-1.035942	-1.271398	0.849632
H67	H	-0.627913	-1.396532	0.907136
O68	O	-1.113643	-1.651069	0.373800
C69	C	-1.041695	-1.710375	0.314544
H70	H	-0.963518	-1.667296	0.310847
H71	H	-1.029930	-1.790142	0.353081
C72	C	-1.180615	-1.778506	0.207292
C73	C	-1.084600	-1.725591	0.202744
H74	H	-1.207082	-1.787897	0.138330
H75	H	-1.229090	-1.738554	0.247216
H76	H	-1.170798	-1.844973	0.239411
H77	H	-1.094420	-1.659121	0.170638
H78	H	-1.036128	-1.765532	0.162812
H79	H	-0.906129	-1.640352	0.384380
H80	H	-0.906110	-1.396432	0.627991
H81	H	-0.384158	-1.640446	0.907222
O82	O	-0.638356	-1.386119	1.114976
C83	C	-0.623897	-1.400535	1.223588
H84	H	-0.589499	-1.481631	1.238594
H85	H	-0.567926	-1.338245	1.254726
C86	C	-0.772427	-1.291275	1.261469
C87	C	-0.730186	-1.390882	1.279899
H88	H	-0.837989	-1.285317	1.296206
H89	H	-0.782166	-1.281559	1.188294
H90	H	-0.725774	-1.239378	1.287417
H91	H	-0.776832	-1.442777	1.253939
H92	H	-0.720457	-1.400607	1.353071
H93	H	-0.384077	-1.640476	1.106269
