data_functionalizedCrystal
_audit_creation_method	'MofGen! by Chris Wilmer'
_symmetry_space_group_name_H-M	'P1'
_symmetry_Int_Tables_number	1
_symmetry_cell_setting	triclinic
loop_
_symmetry_equiv_pos_as_xyz
  x,y,z
_cell_length_a	16.098713
_cell_length_b	15.944551
_cell_length_c	15.944545
_cell_angle_alpha	83.497456
_cell_angle_beta	93.053041
_cell_angle_gamma	93.051727
loop_
_atom_site_label
_atom_site_type_symbol
_atom_site_fract_x
_atom_site_fract_y
_atom_site_fract_z
O1	O	0.069172	-1.111183	-0.104982
O2	O	0.069193	-0.866632	-0.118338
O3	O	0.069172	-0.995589	0.010615
O4	O	0.069193	-0.982226	-0.233935
O5	O	-0.069337	-1.002263	0.003911
O6	O	-0.069316	-0.873306	-0.125042
O7	O	-0.069338	-1.117857	-0.111686
Zn8	Zn	-0.091318	-0.996642	-0.119428
Zn9	Zn	0.091174	-0.987848	-0.110596
O10	O	-0.069316	-0.988901	-0.240639
C11	C	-0.000059	-0.838675	-0.121135
C12	C	-0.000051	-0.745429	-0.119472
N13	N	-0.215864	-1.002649	-0.125456
N14	N	0.215719	-0.981847	-0.104561
C15	C	0.259331	-1.030571	-0.153524
C16	C	0.346518	-1.026352	-0.149289
C17	C	0.390091	-0.973411	-0.096086
C18	C	0.346473	-0.924681	-0.047121
C19	C	0.259288	-0.928897	-0.051362
C20	C	0.653333	-0.958135	-0.080732
C21	C	0.740524	-0.953925	-0.076493
C22	C	0.740563	-1.055595	-0.178662
C23	C	0.653376	-1.059810	-0.182894
C24	C	0.609766	-1.011076	-0.133933
C25	C	0.479210	-0.969099	-0.091754
C26	C	0.520648	-1.015385	-0.138270
C27	C	-0.000084	-0.998372	0.038557
C28	C	-0.000086	-0.996712	0.131803
C29	C	-0.000084	-1.145814	-0.108889
C30	C	-0.000086	-1.239060	-0.110551
C31	C	-0.000075	-0.530575	-0.035569
C32	C	0.068221	-0.466263	-0.071226
C33	C	-0.000062	-0.574703	-0.116466
C34	C	-0.068338	-0.472866	-0.077855
C35	C	-0.000075	-0.409791	-0.113555
C36	C	0.068291	-0.511617	-0.152142
C37	C	-0.068330	-0.518229	-0.158762
C38	C	-0.000018	-0.453934	-0.194477
C39	C	-0.000053	-0.669705	-0.118140
C40	C	-0.000077	-0.314790	-0.111887
C41	C	-0.000059	-0.986117	-0.268581
C42	C	-0.000052	-0.987777	-0.361827
C43	C	-0.000062	-0.911817	0.402437
C44	C	0.068228	-0.949456	0.355157
C45	C	-0.000062	-0.990790	0.467448
C46	C	-0.068332	-0.956057	0.348574
C47	C	-0.000075	-0.993696	0.302534
C48	C	0.068284	-1.028405	0.421399
C49	C	-0.068337	-1.034998	0.414817
C50	C	-0.000031	-1.072693	0.367570
C51	C	-0.000053	-0.989114	0.562450
C52	C	-0.000077	-0.995378	0.207534
H53	H	0.223860	-1.073685	-0.196844
H54	H	-0.126078	-1.071103	0.440971
C55	C	-0.146327	-0.914742	0.305741
N56	N	-0.205070	-0.883618	0.273482
H57	H	0.617905	-1.102921	-0.226216
C58	C	0.394487	-1.079958	-0.203147
N59	N	0.430617	-1.120339	-0.243714
C60	C	0.000008	-0.575573	0.055148
N61	N	0.000075	-0.609466	0.123475
C62	C	0.000043	-0.409125	-0.285265
N63	N	0.000093	-0.375372	-0.353645
C64	C	0.146230	-0.900640	0.319840
N65	N	0.204979	-0.863866	0.293241
C66	C	0.146369	-1.069661	0.464090
N67	N	0.205184	-1.100731	0.496247
C68	C	0.527149	-0.911034	-0.033064
N69	N	0.563259	-0.867358	0.011200
H70	H	0.776080	-1.095269	-0.218525
C71	C	0.788453	-0.895680	-0.017967
N72	N	0.824553	-0.851812	0.026113
H73	H	0.617836	-0.918455	-0.040861
C74	C	-0.146330	-0.549192	-0.208720
N75	N	-0.205086	-0.572517	-0.246342
C76	C	0.394407	-0.866565	0.011521
N77	N	0.430509	-0.822837	0.055738
H78	H	0.223780	-0.889218	-0.011493
H79	H	0.485168	-1.058485	-0.181592
C80	C	0.146213	-0.435331	-0.021225
N81	N	0.204952	-0.412035	0.016441
H82	H	-0.126075	-0.455563	-0.046418
H83	H	0.126092	-0.528818	-0.183535
C84	C	0.000011	-1.164644	0.346643
N85	N	0.000045	-1.233900	0.330880
H86	H	0.000011	-0.843801	0.418093
