data_functionalizedCrystal
_audit_creation_method	'MofGen! by Chris Wilmer'
_symmetry_space_group_name_H-M	'P1'
_symmetry_Int_Tables_number	1
_symmetry_cell_setting	triclinic
loop_
_symmetry_equiv_pos_as_xyz
  x,y,z
_cell_length_a	29.839135
_cell_length_b	21.395362
_cell_length_c	21.395355
_cell_angle_alpha	89.980094
_cell_angle_beta	89.972219
_cell_angle_gamma	90.030029
loop_
_atom_site_label
_atom_site_type_symbol
_atom_site_fract_x
_atom_site_fract_y
_atom_site_fract_z
Zn1	Zn	0.686818	-0.249469	-0.354309
Zn2	Zn	0.686752	-0.354229	-0.249529
Zn3	Zn	0.611684	-0.249474	-0.249540
Zn4	Zn	0.611666	-0.354217	-0.354264
O5	O	0.649230	-0.301847	-0.301911
O6	O	0.749676	-0.263368	-0.340425
O7	O	0.676774	-0.340339	-0.161853
O8	O	0.621686	-0.161795	-0.263462
O9	O	0.749628	-0.340335	-0.263443
O10	O	0.676886	-0.161792	-0.340435
O11	O	0.621622	-0.263376	-0.161861
O12	O	0.548815	-0.263365	-0.263417
O13	O	0.621655	-0.340315	-0.441948
O14	O	0.548802	-0.340320	-0.340357
O15	O	0.676869	-0.263357	-0.441981
O16	O	0.676757	-0.441905	-0.263399
O17	O	0.621592	-0.441897	-0.340347
C18	C	0.649177	-0.464635	-0.301880
C19	C	0.649196	-0.534276	-0.301888
C20	C	0.532507	-0.301842	-0.301884
C21	C	0.482573	-0.301855	-0.301887
C22	C	0.678063	-1.036056	-0.261946
C23	C	0.678046	-0.970620	-0.261931
C24	C	0.649294	-0.937914	-0.301955
C25	C	0.620549	-0.970649	-0.341986
C26	C	0.620563	-1.036083	-0.341995
C27	C	0.645703	-0.834224	-0.358386
C28	C	0.645691	-0.768791	-0.358378
C29	C	0.649246	-0.736093	-0.301927
C30	C	0.652821	-0.768837	-0.245483
C31	C	0.652836	-0.834271	-0.245492
C32	C	0.649274	-0.866962	-0.301950
C33	C	0.677969	-0.632414	-0.261880
C34	C	0.677948	-0.566977	-0.261864
C35	C	0.620454	-0.567007	-0.341925
C36	C	0.620472	-0.632443	-0.341935
C37	C	0.649231	-0.665142	-0.301913
C38	C	0.172952	-0.261831	-0.342054
C39	C	-0.014721	-0.261836	-0.342072
O40	O	-0.038967	-0.227791	-0.376193
N41	N	-0.038212	-0.301848	-0.301934
C42	C	-0.014782	-0.341859	-0.261785
O43	O	-0.039068	-0.375887	-0.227641
C44	C	0.172890	-0.341851	-0.261765
C45	C	0.196379	-0.301840	-0.301910
C46	C	0.196440	-0.221824	-0.382195
C47	C	0.243356	-0.221825	-0.382193
C48	C	0.266783	-0.261835	-0.342049
C49	C	0.243294	-0.301842	-0.301908
C50	C	0.196320	-0.381858	-0.221614
C51	C	0.243241	-0.381851	-0.221611
C52	C	0.266729	-0.341841	-0.261756
C53	C	0.313637	-0.341853	-0.261761
N54	N	0.337128	-0.301841	-0.301899
C55	C	0.313701	-0.261832	-0.342043
C56	C	-0.113312	-0.341861	-0.261800
C57	C	-0.160230	-0.341864	-0.261806
C58	C	-0.160166	-0.261840	-0.342091
C59	C	-0.113248	-0.261840	-0.342088
C60	C	-0.089822	-0.301849	-0.301938
C61	C	0.412226	-0.261839	-0.342035
C62	C	0.459146	-0.261846	-0.342031
C63	C	0.459078	-0.341867	-0.261743
C64	C	0.412163	-0.341863	-0.261750
C65	C	0.388738	-0.301844	-0.301898
O66	O	0.337912	-0.375874	-0.227653
O67	O	0.337995	-0.227799	-0.376172
C68	C	0.126036	-0.261829	-0.342056
C69	C	0.102548	-0.301837	-0.301915
C70	C	0.125975	-0.341846	-0.261771
C71	C	0.055630	-0.301840	-0.301921
C72	C	0.032203	-0.261831	-0.342065
C73	C	0.055694	-0.221819	-0.382203
C74	C	0.102609	-0.221820	-0.382200
C75	C	0.102484	-0.381858	-0.221633
C76	C	0.055569	-0.381854	-0.221639
C77	C	0.032142	-0.341845	-0.261783
C78	C	0.766408	-0.301852	-0.301938
C79	C	0.816343	-0.301855	-0.301949
C80	C	0.649267	-0.301834	-0.465334
C81	C	0.649283	-0.301829	-0.534975
C82	C	0.649295	-0.138424	-0.301955
C83	C	0.649323	-0.068782	-0.301974
C84	C	0.678032	-0.261755	-0.567707
C85	C	0.678031	-0.261728	-0.633142
C86	C	0.649287	-0.301786	-0.665844
C87	C	0.620533	-0.341863	-0.633104
C88	C	0.620531	-0.341884	-0.567670
C89	C	0.645721	-0.358202	-0.769508
C90	C	0.645726	-0.358181	-0.834941
C91	C	0.649290	-0.301720	-0.867664
C92	C	0.652858	-0.245277	-0.834947
C93	C	0.652856	-0.245298	-0.769513
C94	C	0.649285	-0.301767	-0.736796
C95	C	0.678039	-0.261614	-0.971349
C96	C	0.678035	-0.261586	-1.036785
C97	C	0.620539	-0.341726	-1.036746
C98	C	0.620541	-0.341748	-0.971310
C99	C	0.649293	-0.301693	-0.938616
C100	C	0.649219	-0.301814	-0.139123
C101	C	0.649290	-0.301643	-0.069482
H102	H	0.701480	-1.062675	-0.229355
H103	H	0.177204	-0.414438	-0.188922
Br104	Br	0.275226	-0.167521	-0.436677
H105	H	0.597119	-0.374516	-0.541020
Br106	Br	0.717038	-0.207323	-0.677574
Br107	Br	0.717057	-0.207253	-0.926974
H108	H	0.642783	-0.742134	-0.404336
Br109	Br	0.717061	-0.207204	-1.081209
Br110	Br	0.640807	-0.878592	-0.434995
H111	H	0.701450	-0.943969	-0.229334
H112	H	0.655746	-0.860929	-0.199533
H113	H	0.597131	-0.374336	-1.063371
Br114	Br	-0.081526	-0.396156	-0.207297
Br115	Br	0.275031	-0.436152	-0.167118
H116	H	0.597160	-1.062729	-0.374593
H117	H	0.597042	-0.540379	-0.374511
H118	H	0.655760	-0.199341	-0.742878
H119	H	0.642823	-0.404141	-0.861574
Br120	Br	0.657698	-0.168645	-0.879350
H121	H	0.597133	-0.374384	-0.944660
Br122	Br	0.657649	-0.724471	-0.168866
H123	H	0.393037	-0.374450	-0.229067
Br124	Br	0.716996	-0.676796	-0.207563
H125	H	0.597138	-0.944016	-0.374574
H126	H	0.597128	-0.374476	-0.659734
Br127	Br	-0.192101	-0.396173	-0.207328
Br128	Br	0.717050	-0.207392	-0.523338
H129	H	0.177371	-0.189240	-0.414885
Br130	Br	-0.081376	-0.207539	-0.396572
Br131	Br	0.640898	-0.434837	-0.725103
H132	H	0.393160	-0.229249	-0.374726
Br133	Br	0.716955	-0.522561	-0.207534
Br134	Br	0.023891	-0.167524	-0.436687
H135	H	0.478268	-0.229264	-0.374724
Br136	Br	0.581470	-0.676861	-0.396268
Br137	Br	-0.191969	-0.207541	-0.396571
Br138	Br	0.490881	-0.396165	-0.207266
H139	H	0.121729	-0.189239	-0.414890
Br140	Br	0.023697	-0.436159	-0.167151
H141	H	0.121554	-0.414438	-0.188941
