data_functionalizedCrystal
_audit_creation_method	'MofGen! by Chris Wilmer'
_symmetry_space_group_name_H-M	'P1'
_symmetry_Int_Tables_number	1
_symmetry_cell_setting	triclinic
loop_
_symmetry_equiv_pos_as_xyz
  x,y,z
_cell_length_a	10.065875
_cell_length_b	9.065218
_cell_length_c	9.065218
_cell_angle_alpha	85.015885
_cell_angle_beta	98.921783
_cell_angle_gamma	81.121528
loop_
_atom_site_label
_atom_site_type_symbol
_atom_site_fract_x
_atom_site_fract_y
_atom_site_fract_z
O1	O	0.113491	-1.981701	-0.194956
O2	O	0.113493	-1.552416	-0.212703
O3	O	0.113489	-1.775931	0.010812
O4	O	0.113495	-1.758186	-0.418471
O5	O	-0.113499	-1.733312	-0.031982
O6	O	-0.113495	-1.509797	-0.255497
O7	O	-0.113497	-1.939082	-0.237751
Zn8	Zn	-0.149535	-1.717673	-0.253419
Zn9	Zn	0.149531	-1.773825	-0.197035
O10	O	-0.113493	-1.715567	-0.461266
C11	C	-0.000001	-1.476120	-0.232394
C12	C	-0.000000	-1.312277	-0.227295
N13	N	-0.353640	-1.679361	-0.291898
C14	C	-0.000003	-1.752917	0.044402
C15	C	0.000004	-1.747818	0.208246
C16	C	-0.421420	-1.760486	-0.210414
C17	C	-0.578587	-1.731012	-0.240040
N18	N	0.353636	-1.812148	-0.158544
C19	C	0.000000	-2.015378	-0.218059
C20	C	0.000008	-2.179223	-0.223157
C21	C	0.000002	-1.738582	-0.494855
C22	C	0.000004	-1.743682	-0.658698
H23	H	-0.363097	-1.851756	-0.118712
C24	C	-0.657371	-1.607690	-0.363920
N25	N	-0.716714	-1.514805	-0.457225
H26	H	-0.411965	-1.588081	-0.383588
H27	H	-0.588044	-1.903424	-0.066837
