data_functionalizedCrystal
_audit_creation_method	'MofGen! by Chris Wilmer'
_symmetry_space_group_name_H-M	'P1'
_symmetry_Int_Tables_number	1
_symmetry_cell_setting	triclinic
loop_
_symmetry_equiv_pos_as_xyz
  x,y,z
_cell_length_a	12.594517
_cell_length_b	21.295417
_cell_length_c	12.594510
_cell_angle_alpha	89.958049
_cell_angle_beta	89.977213
_cell_angle_gamma	90.030306
loop_
_atom_site_label
_atom_site_type_symbol
_atom_site_fract_x
_atom_site_fract_y
_atom_site_fract_z
Zn1	Zn	1.627175	-0.250558	-0.601801
Zn2	Zn	2.127175	0.249442	-0.101801
Zn3	Zn	1.627017	-0.355847	-0.423797
Zn4	Zn	2.127017	0.144153	0.076203
Zn5	Zn	1.449175	-0.250596	-0.423830
Zn6	Zn	1.949175	0.249404	0.076170
Zn7	Zn	1.449117	-0.355793	-0.601727
Zn8	Zn	1.949117	0.144207	-0.101727
O9	O	1.538121	-0.303199	-0.512789
O10	O	2.038121	0.196801	-0.012789
O11	O	1.776100	-0.264532	-0.578205
O12	O	2.276100	0.235468	-0.078205
O13	O	1.603384	-0.341924	-0.274856
O14	O	2.103384	0.158076	0.225144
O15	O	1.472878	-0.162501	-0.447482
O16	O	1.972878	0.337499	0.052518
O17	O	1.775984	-0.341888	-0.447427
O18	O	2.275984	0.158112	0.052573
O19	O	1.603654	-0.162474	-0.578237
O20	O	2.103654	0.337526	-0.078237
O21	O	1.472724	-0.264596	-0.274879
O22	O	1.972724	0.235404	0.225121
O23	O	1.300221	-0.264543	-0.447411
O24	O	1.800221	0.235457	0.052589
O25	O	1.472779	-0.341795	-0.750683
O26	O	1.972779	0.158205	-0.250683
O27	O	1.300179	-0.341831	-0.578112
O28	O	1.800179	0.158169	-0.078112
O29	O	1.603598	-0.264479	-0.750737
O30	O	2.103598	0.235521	-0.250737
O31	O	1.603327	-0.443930	-0.447356
O32	O	2.103327	0.056070	0.052644
O33	O	1.472625	-0.443890	-0.578080
O34	O	1.972625	0.056110	-0.078080
C35	C	1.261580	-0.303186	-0.512757
C36	C	1.761580	0.196814	-0.012757
C37	C	1.143274	-0.303196	-0.512769
C38	C	1.643274	0.196804	-0.012769
C39	C	1.074014	-0.261101	-0.441817
C40	C	1.574014	0.238899	0.058183
C41	C	1.003178	-0.318523	-0.415623
C42	C	1.503178	0.181477	0.084377
C43	C	1.003312	-0.245802	-0.538981
C44	C	1.503312	0.254198	-0.038981
C45	C	1.073997	-0.360647	-0.486525
C46	C	1.573997	0.139353	0.013475
C47	C	1.074137	-0.287888	-0.609928
C48	C	1.574137	0.212112	-0.109928
C49	C	1.003333	-0.345349	-0.583771
C50	C	1.503333	0.154651	-0.083771
C51	C	1.537981	-0.466750	-0.512730
C52	C	2.037981	0.033250	-0.012730
C53	C	1.538019	-0.536718	-0.512740
C54	C	2.038019	-0.036718	-0.012740
C55	C	1.606136	-0.569585	-0.444742
C56	C	2.106136	-0.069585	0.055258
C57	C	1.606186	-0.635327	-0.444766
C58	C	2.106186	-0.135327	0.055234
C59	C	1.538100	-0.668201	-0.512777
C60	C	2.038100	-0.168201	-0.012777
C61	C	1.469978	-0.635326	-0.580789
C62	C	1.969978	-0.135326	-0.080789
C63	C	1.469937	-0.569585	-0.580770
C64	C	1.969937	-0.069585	-0.080770
N65	N	1.444990	-0.771465	-0.520881
N66	N	1.944990	-0.271465	-0.020881
N67	N	1.445031	-0.833917	-0.520892
N68	N	1.945031	-0.333917	-0.020892
C69	C	1.538219	-0.866275	-0.512838
C70	C	2.038219	-0.366275	-0.012838
N71	N	1.631366	-0.833823	-0.504752
N72	N	2.131366	-0.333823	-0.004752
N73	N	1.631324	-0.771366	-0.504735
N74	N	2.131324	-0.271366	-0.004735
C75	C	1.538137	-0.739486	-0.512805
C76	C	2.038137	-0.239486	-0.012805
C77	C	1.606396	-0.970427	-0.444862
C78	C	2.106396	-0.470427	0.055138
C79	C	1.606448	-1.036171	-0.444893
C80	C	2.106448	-0.536171	0.055107
C81	C	1.470230	-1.036169	-0.580911
C82	C	1.970230	-0.536169	-0.080911
C83	C	1.470188	-0.970427	-0.580885
C84	C	1.970188	-0.470427	-0.080885
C85	C	1.538269	-0.937560	-0.512855
C86	C	2.038269	-0.437560	-0.012855
C87	C	1.815742	-0.303212	-0.512821
C88	C	2.315742	0.196788	-0.012821
C89	C	1.934047	-0.303217	-0.512835
C90	C	2.434047	0.196783	-0.012835
C91	C	1.538199	-0.303127	-0.790410
C92	C	2.038199	0.196873	-0.290410
C93	C	1.538233	-0.303097	-0.908715
C94	C	2.038233	0.196903	-0.408715
C95	C	1.538290	-0.139008	-0.512871
C96	C	2.038290	0.360992	-0.012871
C97	C	1.538362	-0.069040	-0.512906
C98	C	2.038362	0.430960	-0.012906
C99	C	1.609410	-0.261032	-1.048762
C100	C	2.109410	0.238968	-0.548762
C101	C	1.635374	-0.318471	-0.977927
C102	C	2.135374	0.181529	-0.477927
C103	C	1.512317	-0.245664	-0.977978
C104	C	2.012317	0.254336	-0.477978
C105	C	1.564291	-0.360547	-1.048667
C106	C	2.064291	0.139453	-0.548667
C107	C	1.441189	-0.287701	-1.048724
C108	C	1.941189	0.212299	-0.548724
C109	C	1.467115	-0.345180	-0.977921
C110	C	1.967115	0.154820	-0.477921
C111	C	1.538104	-0.303224	-0.236248
C112	C	2.038104	0.196776	0.263752
C113	C	1.538277	-0.303077	-0.117943
C114	C	2.038277	0.196923	0.382057
H115	H	0.972493	-0.380997	-0.643801
H116	H	1.472493	0.119003	-0.143801
H117	H	1.586348	-0.409119	-1.079588
H118	H	2.086348	0.090881	-0.579588
H119	H	1.406941	-0.380785	-0.947015
H120	H	1.906941	0.119215	-0.447015
N121	N	1.679582	-0.534137	-0.371386
N122	N	2.179582	-0.034137	0.128614
H123	H	1.636345	-0.506908	-0.322009
H124	H	2.136345	-0.006908	0.177991
H125	H	1.722729	-0.564979	-0.328389
H126	H	2.222729	-0.064979	0.171611
N127	N	1.679648	-0.670793	-0.371421
N128	N	2.179648	-0.170793	0.128579
H129	H	1.755687	-0.659309	-0.388005
H130	H	2.255687	-0.159309	0.111995
H131	H	1.663051	-0.659390	-0.295383
H132	H	2.163051	-0.159390	0.204617
N133	N	1.396539	-0.670784	-0.654135
N134	N	1.896539	-0.170784	-0.154135
H135	H	1.320493	-0.659390	-0.637531
H136	H	1.820493	-0.159390	-0.137531
H137	H	1.413113	-0.659284	-0.730170
H138	H	1.913113	-0.159284	-0.230170
H139	H	1.359127	-0.274666	-1.079847
H140	H	1.859127	0.225334	-0.579847
N141	N	1.396463	-0.534131	-0.654112
N142	N	1.896463	-0.034131	-0.154112
H143	H	1.353338	-0.564930	-0.697205
H144	H	1.853338	-0.064930	-0.197205
H145	H	1.347212	-0.506907	-0.610729
H146	H	1.847212	-0.006907	-0.110729
H147	H	1.490380	-0.197102	-0.946923
H148	H	1.990380	0.302898	-0.446923
H149	H	0.972011	-0.331484	-0.333486
H150	H	1.472011	0.168516	0.166514
H151	H	1.661924	-1.062930	-0.389523
H152	H	2.161924	-0.562930	0.110477
H153	H	1.104917	-0.409208	-0.464291
H154	H	1.604917	0.090792	0.035709
N155	N	1.679824	-0.934972	-0.371494
N156	N	2.179824	-0.434972	0.128506
H157	H	1.722991	-0.965772	-0.328425
H158	H	2.222991	-0.465772	0.171575
H159	H	1.729038	-0.907643	-0.414855
H160	H	2.229038	-0.407643	0.085145
H161	H	1.414797	-1.062934	-0.636291
H162	H	1.914797	-0.562934	-0.136291
N163	N	1.396708	-0.934970	-0.654213
N164	N	1.896708	-0.434970	-0.154213
H165	H	1.413200	-0.946361	-0.730282
H166	H	1.913200	-0.446361	-0.230282
H167	H	1.320705	-0.946475	-0.637520
H168	H	1.820705	-0.446475	-0.137520
N169	N	1.115135	-0.213994	-0.362249
N170	N	1.615135	0.286006	0.137751
H171	H	1.089321	-0.225651	-0.288899
H172	H	1.589321	0.274349	0.211101
H173	H	1.195318	-0.214057	-0.363359
H174	H	1.695318	0.285943	0.136641
N175	N	1.115452	-0.270698	-0.718697
N176	N	1.615452	0.229302	-0.218697
H177	H	1.160742	-0.231670	-0.713447
H178	H	1.660742	0.268330	-0.213447
H179	H	1.159525	-0.306445	-0.747511
H180	H	1.659525	0.193555	-0.247511
N181	N	0.962173	-0.181501	-0.568317
N182	N	1.462173	0.318499	-0.068317
H183	H	0.987883	-0.149734	-0.514644
H184	H	1.487883	0.350266	-0.014644
H185	H	0.989101	-0.169658	-0.641178
H186	H	1.489101	0.330342	-0.141178
N187	N	1.689170	-0.213984	-1.089980
N188	N	2.189170	0.286016	-0.589980
H189	H	1.762475	-0.225693	-1.064230
H190	H	2.262475	0.274307	-0.564230
H191	H	1.688046	-0.214052	-1.170162
H192	H	2.188046	0.285948	-0.670162
H193	H	1.717460	-0.331488	-0.946826
H194	H	2.217460	0.168512	-0.446826
