data_functionalizedCrystal
_audit_creation_method	'MofGen! by Chris Wilmer'
_symmetry_space_group_name_H-M	'P1'
_symmetry_Int_Tables_number	1
_symmetry_cell_setting	triclinic
loop_
_symmetry_equiv_pos_as_xyz
  x,y,z
_cell_length_a	15.995288
_cell_length_b	15.072220
_cell_length_c	15.995350
_cell_angle_alpha	90.007147
_cell_angle_beta	96.520422
_cell_angle_gamma	89.993785
loop_
_atom_site_label
_atom_site_type_symbol
_atom_site_fract_x
_atom_site_fract_y
_atom_site_fract_z
O1	O	-1.111017	0.073824	0.107683
O2	O	-0.611017	0.573824	0.607683
O3	O	-0.867234	0.073815	0.121065
O4	O	-0.367234	0.573815	0.621065
O5	O	-0.995790	0.073819	-0.007515
O6	O	-0.495790	0.573819	0.492485
O7	O	-0.982462	0.073821	0.236263
O8	O	-0.482462	0.573821	0.736263
O9	O	-0.995781	-0.073746	-0.007531
O10	O	-0.495781	0.426254	0.492469
O11	O	-0.867226	-0.073750	0.121049
O12	O	-0.367226	0.426250	0.621049
O13	O	-1.111008	-0.073741	0.107667
O14	O	-0.611008	0.426259	0.607667
Zn15	Zn	-0.989116	-0.097174	0.114356
Zn16	Zn	-0.489116	0.402826	0.614356
Zn17	Zn	-0.989127	0.097249	0.114376
Zn18	Zn	-0.489127	0.597249	0.614376
O19	O	-0.982453	-0.073745	0.236247
O20	O	-0.482453	0.426255	0.736247
C21	C	-0.836035	0.000032	0.120513
C22	C	-0.336035	0.500032	0.620513
C23	C	-0.743081	0.000029	0.118882
C24	C	-0.243081	0.500029	0.618882
N25	N	-0.989114	-0.229863	0.114341
N26	N	-0.489114	0.270137	0.614341
C27	C	-0.572897	0.000033	0.115870
C28	C	-0.072897	0.500033	0.615870
C29	C	-0.525431	0.000031	0.207420
C30	C	-0.025431	0.500031	0.707420
C31	C	-0.428743	0.000367	0.205754
C32	C	0.071257	0.500367	0.705754
C33	C	-0.405340	0.000037	0.112906
C34	C	0.094660	0.500037	0.612906
C35	C	-0.446478	0.084138	0.067493
C36	C	0.053522	0.584138	0.567493
C37	C	-0.543112	0.084207	0.069805
C38	C	-0.043112	0.584207	0.569805
C39	C	-0.543381	-0.083608	0.068432
C40	C	-0.043381	0.416392	0.568432
C41	C	-0.446436	-0.084712	0.068445
C42	C	0.053564	0.415288	0.568445
C43	C	-0.310644	0.000042	0.111226
C44	C	0.189356	0.500042	0.611226
C45	C	-0.667594	0.000034	0.117548
C46	C	-0.167594	0.500034	0.617548
C47	C	-0.989128	-0.589065	0.114370
C48	C	-0.489128	-0.089065	0.614370
C49	C	-1.058138	-0.551428	0.045799
C50	C	-0.558138	-0.051428	0.545799
C51	C	-1.057958	-0.448602	0.045546
C52	C	-0.557958	0.051398	0.545546
C53	C	-0.989122	-0.410861	0.114356
C54	C	-0.489122	0.089139	0.614356
C55	C	-0.901762	-0.448207	0.095295
C56	C	-0.401762	0.051793	0.595295
C57	C	-0.902171	-0.551065	0.094810
C58	C	-0.402171	-0.051065	0.594810
C59	C	-1.006690	-0.551140	0.202204
C60	C	-0.506690	-0.051140	0.702204
C61	C	-1.008673	-0.448276	0.201615
C62	C	-0.508673	0.051724	0.701615
C63	C	-0.989113	-0.310147	0.114349
C64	C	-0.489113	0.189853	0.614349
C65	C	-0.989131	-0.689778	0.114374
C66	C	-0.489131	-0.189778	0.614374
C67	C	-0.142207	0.000042	0.108230
C68	C	0.357793	0.500042	0.608230
C69	C	-0.235156	0.000042	0.109894
C70	C	0.264844	0.500042	0.609894
C71	C	-0.995234	0.000038	-0.038718
C72	C	-0.495234	0.500038	0.461282
C73	C	-0.993583	0.000043	-0.131668
C74	C	-0.493583	0.500043	0.368332
N75	N	-0.989135	0.229938	0.114384
N76	N	-0.489135	0.729938	0.614384
C77	C	-0.987650	0.000040	-0.469414
C78	C	-0.487650	0.500040	0.030586
C79	C	-0.896096	0.000368	-0.421959
C80	C	-0.396096	0.500368	0.078041
C81	C	-0.897748	0.000035	-0.325269
C82	C	-0.397748	0.500035	0.174731
C83	C	-0.990593	0.000042	-0.301854
C84	C	-0.490593	0.500042	0.198146
C85	C	-1.035746	-0.084221	-0.342951
C86	C	-0.535746	0.415779	0.157049
C87	C	-1.033446	-0.084292	-0.439586
C88	C	-0.533446	0.415708	0.060414
C89	C	-1.035347	0.083517	-0.439927
C90	C	-0.535347	0.583517	0.060073
C91	C	-1.035325	0.084631	-0.342981
C92	C	-0.535325	0.584631	0.157019
C93	C	-0.992261	0.000041	-0.207157
C94	C	-0.492261	0.500041	0.292843
C95	C	-0.985985	0.000036	-0.564111
C96	C	-0.485985	0.500036	-0.064111
C97	C	-0.983009	0.000038	0.267450
C98	C	-0.483009	0.500038	0.767450
C99	C	-0.984660	0.000039	0.360400
C100	C	-0.484660	0.500039	0.860400
H101	H	-0.400276	-0.059906	0.241439
H102	H	0.099724	0.440094	0.741439
F103	F	-1.143305	-0.583741	0.060392
F104	F	-0.643305	-0.083741	0.560392
F105	F	-0.426383	-0.091682	-0.020035
F106	F	0.073617	0.408318	0.479965
F107	F	-0.947232	-0.414695	0.271436
F108	F	-0.447232	0.085305	0.771436
H109	H	-0.956366	-0.575484	0.253233
H110	H	-0.456366	-0.075484	0.753233
F111	F	-0.833020	-0.416256	0.158835
F112	F	-0.333020	0.083744	0.658835
F113	F	-0.851355	0.078987	-0.288099
F114	F	-0.351355	0.578987	0.211901
F115	F	-0.584933	-0.084676	-0.019788
F116	F	-0.084933	0.415324	0.480212
H117	H	-0.545043	0.060250	0.243668
H118	H	-0.045043	0.560250	0.743668
H119	H	-0.561434	0.147312	0.102545
H120	H	-0.061434	0.647312	0.602545
F121	F	-1.123577	0.084266	-0.481461
F122	F	-0.623577	0.584266	0.018539
H123	H	-0.543919	-0.060268	0.244204
H124	H	-0.043919	0.439732	0.744204
H125	H	-1.002312	0.146967	-0.315719
H126	H	-0.502312	0.646967	0.184281
F127	F	-1.142834	-0.415594	0.060388
F128	F	-0.642834	0.084406	0.560388
H129	H	-0.400898	0.061005	0.241298
H130	H	0.099102	0.561005	0.741298
H131	H	-0.418096	0.146961	0.098640
H132	H	0.081904	0.646961	0.598640
F133	F	-0.585298	0.088899	-0.018062
F134	F	-0.085298	0.588899	0.481938
F135	F	-0.848350	-0.077962	-0.447849
F136	F	-0.348350	0.422038	0.052151
H137	H	-1.046737	-0.424006	-0.019638
H138	H	-0.546737	0.075994	0.480362
H139	H	-0.432378	0.087029	-0.000730
H140	H	0.067622	0.587029	0.499270
F141	F	-1.123822	0.091294	-0.322918
F142	F	-0.623822	0.591294	0.177082
F143	F	-0.570171	-0.166952	0.107816
F144	F	-0.070171	0.333048	0.607816
F145	F	-0.410696	-0.166039	0.111789
F146	F	0.089304	0.333961	0.611789
F147	F	-0.881940	-0.582438	0.011084
F148	F	-0.381940	-0.082438	0.511084
H149	H	-0.862009	-0.060474	-0.297403
H150	H	-0.362009	0.439526	0.202597
F151	F	-0.881032	-0.414552	0.012521
F152	F	-0.381032	0.085448	0.512521
H153	H	-1.047081	-0.577287	-0.019015
H154	H	-0.547081	-0.077287	0.480985
F155	F	-0.848267	0.079351	-0.446160
F156	F	-0.348267	0.579351	0.053840
H157	H	-1.004378	-0.146932	-0.314569
H158	H	-0.504378	0.353068	0.185431
H159	H	-0.849276	-0.575963	0.142856
H160	H	-0.349276	-0.075963	0.642856
F161	F	-1.088178	-0.585026	0.226153
F162	F	-0.588178	-0.085026	0.726153
F163	F	-1.092668	-0.416365	0.220528
F164	F	-0.592668	0.083635	0.720528
F165	F	-0.990397	-0.166626	-0.463508
F166	F	-0.490397	0.333374	0.036492
H167	H	-1.100664	-0.088110	-0.471849
H168	H	-0.600664	0.411890	0.028151
F169	F	-1.124903	-0.088314	-0.324509
F170	F	-0.624903	0.411686	0.175491
H171	H	-1.005417	0.147384	-0.460453
H172	H	-0.505417	0.647384	0.039547
