data_functionalizedCrystal
_audit_creation_method	'MofGen! by Chris Wilmer'
_symmetry_space_group_name_H-M	'P1'
_symmetry_Int_Tables_number	1
_symmetry_cell_setting	triclinic
loop_
_symmetry_equiv_pos_as_xyz
  x,y,z
_cell_length_a	18.215407
_cell_length_b	19.805405
_cell_length_c	18.215399
_cell_angle_alpha	89.968971
_cell_angle_beta	89.983584
_cell_angle_gamma	90.023870
loop_
_atom_site_label
_atom_site_type_symbol
_atom_site_fract_x
_atom_site_fract_y
_atom_site_fract_z
Zn1	Zn	1.125061	-0.269513	-0.416045
Zn2	Zn	1.124967	-0.382705	-0.292973
Zn3	Zn	1.001994	-0.269530	-0.292998
Zn4	Zn	1.001956	-0.382661	-0.416004
O5	O	1.063494	-0.326102	-0.354505
O6	O	1.228032	-0.284540	-0.399725
O7	O	1.108631	-0.367718	-0.189992
O8	O	1.018375	-0.174811	-0.309348
O9	O	1.227963	-0.367701	-0.309305
O10	O	1.108791	-0.174799	-0.399750
O11	O	1.018284	-0.284569	-0.190011
O12	O	0.899005	-0.284526	-0.309309
O13	O	1.018309	-0.367626	-0.518994
O14	O	0.898977	-0.367642	-0.399681
O15	O	1.108754	-0.284497	-0.519024
O16	O	1.108594	-0.477416	-0.309265
O17	O	1.018218	-0.477383	-0.399656
C18	C	0.872288	-0.326082	-0.354494
C19	C	0.790489	-0.326089	-0.354506
C20	C	0.525436	-0.369452	-0.401497
C21	C	0.602295	-0.369446	-0.401493
C22	C	0.602294	-0.282768	-0.307526
C23	C	0.525436	-0.282777	-0.307526
C24	C	0.487010	-0.326119	-0.354516
C25	C	0.640726	-0.326103	-0.354512
C26	C	0.724059	-0.326097	-0.354508
C27	C	0.403671	-0.326126	-0.354519
C28	C	1.063412	-0.501958	-0.354469
C29	C	1.063443	-0.577190	-0.354479
C30	C	1.110548	-0.612529	-0.307462
C31	C	1.110579	-0.683217	-0.307478
C32	C	1.063502	-0.718566	-0.354508
C33	C	1.016395	-0.683222	-0.401530
C34	C	1.016368	-0.612535	-0.401517
C35	C	1.016504	-0.968296	-0.401585
C36	C	1.016533	-1.038988	-0.401593
C37	C	1.110715	-1.038978	-0.307545
C38	C	1.110688	-0.968291	-0.307532
C39	C	1.063584	-0.932953	-0.354557
C40	C	1.063552	-0.856305	-0.354540
C41	C	1.063530	-0.795213	-0.354522
C42	C	1.255447	-0.326124	-0.354517
C43	C	1.337246	-0.326133	-0.354522
C44	C	1.063538	-0.326054	-0.546458
C45	C	1.063556	-0.326034	-0.628257
C46	C	1.063598	-0.149560	-0.354557
C47	C	1.063641	-0.074328	-0.354579
C48	C	1.110678	-0.282690	-0.893331
C49	C	1.110669	-0.282709	-0.816473
C50	C	1.016494	-0.369279	-0.816431
C51	C	1.016507	-0.369264	-0.893288
C52	C	1.063598	-0.325966	-0.931737
C53	C	1.063576	-0.325999	-0.778020
C54	C	1.063566	-0.326019	-0.694687
C55	C	1.063609	-0.325946	-1.015076
C56	C	1.063494	-0.326101	-0.163299
C57	C	1.063618	-0.325931	-0.081500
H58	H	0.494149	-0.247489	-0.269265
H59	H	1.149007	-0.247470	-0.785206
H60	H	0.978153	-0.404530	-0.785117
O61	O	1.156319	-0.240564	-0.930713
C62	C	1.166286	-0.149189	-1.017550
C63	C	1.114511	-0.196844	-0.975252
H64	H	1.132507	-0.113838	-1.053582
H65	H	1.199922	-0.118214	-0.976928
H66	H	1.204772	-0.180272	-1.053495
H67	H	1.075982	-0.165812	-0.939307
H68	H	1.080928	-0.227821	-1.015914
H69	H	0.494151	-0.404743	-0.439758
H70	H	0.633578	-0.404733	-0.439749
O71	O	0.639540	-0.240572	-0.261919
C72	C	0.663108	-0.125395	-0.226435
C73	C	0.620873	-0.173107	-0.278121
H74	H	0.648044	-0.070840	-0.239526
H75	H	0.647959	-0.137165	-0.167061
H76	H	0.724638	-0.132863	-0.234489
H77	H	0.559333	-0.165666	-0.270132
H78	H	0.636084	-0.161326	-0.337476
H79	H	0.978067	-0.712009	-0.439826
O80	O	0.970701	-0.411325	-0.930486
C81	C	0.877323	-0.497224	-0.922341
C82	C	0.929142	-0.449613	-0.880123
H83	H	0.843720	-0.528202	-0.881641
H84	H	0.838816	-0.466172	-0.958311
H85	H	0.911114	-0.532579	-0.958334
H86	H	0.895411	-0.414249	-0.844090
H87	H	0.967651	-0.480707	-0.844199
H88	H	1.148880	-0.583753	-0.269161
H89	H	1.148935	-0.711987	-0.269191
H90	H	1.149071	-1.067758	-0.269258
O91	O	1.156383	-0.934029	-0.261745
C92	C	1.192148	-0.912423	-0.136589
C93	C	1.140360	-0.951277	-0.188358
H94	H	1.179201	-0.926343	-0.077244
H95	H	1.251498	-0.926285	-0.149509
H96	H	1.184050	-0.855834	-0.144694
H97	H	1.148392	-1.007874	-0.180282
H98	H	1.081028	-0.937359	-0.175426
O99	O	0.970780	-1.073222	-0.447354
C100	C	0.877336	-1.065776	-0.540617
C101	C	0.929122	-1.026922	-0.488847
H102	H	0.843631	-1.028360	-0.574167
H103	H	0.911085	-1.098804	-0.579176
H104	H	0.838917	-1.098937	-0.506792
H105	H	0.967552	-0.993725	-0.522613
H106	H	0.895328	-0.993937	-0.450286
H107	H	0.978149	-0.939529	-0.439872
H108	H	0.978012	-0.583763	-0.439804
