data_functionalizedCrystal
_audit_creation_method	'MofGen! by Chris Wilmer'
_symmetry_space_group_name_H-M	'P1'
_symmetry_Int_Tables_number	1
_symmetry_cell_setting	triclinic
loop_
_symmetry_equiv_pos_as_xyz
  x,y,z
_cell_length_a	21.295418
_cell_length_b	12.759394
_cell_length_c	12.759387
_cell_angle_alpha	90.031660
_cell_angle_beta	89.957911
_cell_angle_gamma	89.969348
loop_
_atom_site_label
_atom_site_type_symbol
_atom_site_fract_x
_atom_site_fract_y
_atom_site_fract_z
Zn1	Zn	0.962414	0.417767	-0.594604
Zn2	Zn	0.962348	0.593484	-0.418922
Zn3	Zn	0.857140	0.417869	-0.418875
Zn4	Zn	0.857135	0.593454	-0.594495
O5	O	0.909760	0.505643	-0.506724
O6	O	1.050495	0.441047	-0.571365
O7	O	0.948367	0.570244	-0.271894
O8	O	0.871135	0.270834	-0.442212
O9	O	1.050446	0.570146	-0.442292
O10	O	0.948479	0.270760	-0.571319
O11	O	0.871071	0.441220	-0.271860
O12	O	0.769050	0.441190	-0.442106
O13	O	0.871126	0.570093	-0.741530
O14	O	0.769047	0.570191	-0.571133
O15	O	0.948474	0.441017	-0.741611
O16	O	0.948362	0.740501	-0.442186
O17	O	0.871063	0.740479	-0.571179
C18	C	0.746208	0.505699	-0.506603
C19	C	0.676240	0.505748	-0.506576
C20	C	0.909807	0.505540	-0.780757
C21	C	0.909827	0.505497	-0.897534
C22	C	0.909722	0.778611	-0.506698
C23	C	0.909763	0.895388	-0.506723
C24	C	0.643388	0.573008	-0.573660
C25	C	0.577645	0.572982	-0.573707
C26	C	0.544757	0.505707	-0.506652
C27	C	0.577617	0.438434	-0.439563
C28	C	0.643358	0.438454	-0.439525
N29	N	0.441482	0.497511	-0.414760
N30	N	0.379030	0.497498	-0.414798
C31	C	0.346683	0.505640	-0.506763
N32	N	0.379146	0.513817	-0.598689
N33	N	0.441603	0.513835	-0.598649
C34	C	0.473472	0.505677	-0.506686
C35	C	0.242545	0.572876	-0.573904
C36	C	0.176801	0.572842	-0.573953
C37	C	0.176775	0.438300	-0.439799
C38	C	0.242517	0.438327	-0.439760
C39	C	0.275398	0.505621	-0.506811
C40	C	1.073950	0.505589	-0.506846
C41	C	1.143918	0.505565	-0.506898
C42	C	0.909815	0.231610	-0.506772
C43	C	0.909838	0.114833	-0.506793
C44	C	0.990315	0.895358	-0.372503
C45	C	1.030608	0.950204	-0.305406
C46	C	1.030645	1.059925	-0.305435
C47	C	0.990386	1.114804	-0.372570
C48	C	0.950094	1.059958	-0.439667
C49	C	0.950060	0.950234	-0.439629
C50	C	0.869546	1.059987	-0.573890
C51	C	0.869504	0.950266	-0.573858
C52	C	0.829287	1.114866	-0.641026
C53	C	0.788990	1.060020	-0.708119
C54	C	0.788954	0.950291	-0.708087
C55	C	0.829212	0.895420	-0.640955
C56	C	0.990375	0.371099	-0.897638
C57	C	1.030658	0.303884	-0.952550
C58	C	1.030673	0.303846	-1.062272
C59	C	0.990400	0.371027	-1.117084
C60	C	0.950117	0.438242	-1.062171
C61	C	0.950108	0.438275	-0.952447
C62	C	0.869567	0.572633	-1.062068
C63	C	0.869554	0.572678	-0.952346
C64	C	0.829294	0.639814	-1.116879
C65	C	0.789014	0.707036	-1.061967
C66	C	0.789001	0.707072	-0.952238
C67	C	0.829272	0.639893	-0.897433
C68	C	0.909748	0.505670	-0.233756
C69	C	0.909850	0.505418	-0.116980
H70	H	0.670156	0.627802	-0.628260
N71	N	0.747881	0.775658	-1.117946
N72	N	0.752023	0.872609	-1.105686
H73	H	0.722969	0.921075	-1.145222
H74	H	0.550836	0.383656	-0.384968
N75	N	0.143198	0.369580	-0.371288
N76	N	0.172543	0.309537	-0.311386
H77	H	0.148828	0.260999	-0.262998
H78	H	0.829268	0.639920	-0.808092
H79	H	0.990425	1.204145	-0.372596
H80	H	0.550892	0.627753	-0.628339
N81	N	0.676910	0.369736	-0.370994
N82	N	0.647542	0.309664	-0.311134
H83	H	0.671238	0.261130	-0.262732
H84	H	0.269318	0.627665	-0.628506
N85	N	0.143251	0.641548	-0.642498
N86	N	0.172621	0.701619	-0.702358
H87	H	0.148926	0.750143	-0.750771
H88	H	0.829322	1.204207	-0.641049
H89	H	1.063388	0.905512	-0.250747
H90	H	0.756218	1.104710	-0.762780
H91	H	1.063458	1.104581	-0.250803
N92	N	0.747797	0.894287	-0.776643
N93	N	0.711861	0.943302	-0.836577
H94	H	0.682793	0.903754	-0.884998
H95	H	0.829183	0.806079	-0.640916
N96	N	0.990374	0.371135	-0.785560
N97	N	1.026335	0.311155	-0.736635
H98	H	1.026336	0.311177	-0.657478
H99	H	0.269265	0.383562	-0.385127
H100	H	0.990281	0.806017	-0.372460
N101	N	1.071786	0.235264	-0.896545
N102	N	1.071769	0.235302	-0.798580
H103	H	1.100815	0.186837	-0.759028
H104	H	1.063471	0.249107	-1.106982
H105	H	0.990411	0.370981	-1.206425
N106	N	0.829311	0.639755	-1.228957
N107	N	0.865279	0.579739	-1.277976
H108	H	0.865291	0.579698	-1.357132
H109	H	0.756191	0.761795	-0.907535
