data_functionalizedCrystal
_audit_creation_method	'MofGen! by Chris Wilmer'
_symmetry_space_group_name_H-M	'P1'
_symmetry_Int_Tables_number	1
_symmetry_cell_setting	triclinic
loop_
_symmetry_equiv_pos_as_xyz
  x,y,z
_cell_length_a	13.635800
_cell_length_b	14.681089
_cell_length_c	19.551833
_cell_angle_alpha	92.029432
_cell_angle_beta	78.336523
_cell_angle_gamma	134.850527
loop_
_atom_site_label
_atom_site_type_symbol
_atom_site_fract_x
_atom_site_fract_y
_atom_site_fract_z
V1	V	-2.106298	-0.179108	0.217848
O2	O	-1.992964	0.007221	0.213711
O3	O	-2.182715	-0.353807	0.216349
O4	O	-2.076408	-0.176961	0.312864
O5	O	-2.100007	-0.170850	0.116528
V6	V	-2.335811	-0.156749	0.205731
O7	O	-2.263794	-0.228154	0.244429
O8	O	-2.403414	-0.107703	0.179150
O9	O	-2.147791	0.017951	0.207230
O10	O	-2.507843	-0.343077	0.209868
O11	O	-2.400801	-0.165006	0.307051
O12	O	-2.254097	-0.158896	0.110715
V13	V	-1.606298	-0.179108	0.217848
O14	O	-1.492964	0.007221	0.213711
O15	O	-1.682715	-0.353807	0.216349
O16	O	-1.576408	-0.176961	0.312864
O17	O	-1.600007	-0.170850	0.116528
V18	V	-1.835811	-0.156749	0.205731
O19	O	-1.763794	-0.228154	0.244429
O20	O	-1.903414	-0.107703	0.179150
O21	O	-1.647791	0.017951	0.207230
O22	O	-2.007843	-0.343077	0.209868
O23	O	-1.900801	-0.165006	0.307051
O24	O	-1.754097	-0.158896	0.110715
C25	C	-1.629877	-0.396376	0.212909
C26	C	-1.732962	-0.539199	0.212317
C27	C	-2.129877	-0.396376	0.212909
C28	C	-2.232962	-0.539199	0.212317
C29	C	-1.765309	-0.734457	0.207539
C30	C	-1.657884	-0.585815	0.207878
C31	C	-1.799461	-0.577432	0.147156
C32	C	-1.905976	-0.725971	0.146466
C33	C	-1.966674	-0.765378	0.280042
C34	C	-1.857632	-0.616874	0.281455
C35	C	-1.994271	-0.170789	0.336023
C36	C	-2.011141	-0.170190	0.413699
C37	C	-2.032304	0.060513	0.210667
C38	C	-1.918838	0.203335	0.211265
C39	C	-2.167909	-0.165071	0.087552
C40	C	-2.140654	-0.165664	0.009876
C41	C	-1.494271	-0.170789	0.336023
C42	C	-1.511141	-0.170190	0.413699
C43	C	-2.113667	-0.176357	0.453746
C44	C	-2.129518	-0.175794	0.526730
C45	C	-2.042856	-0.169090	0.559667
C46	C	-1.940310	-0.162914	0.519610
C47	C	-1.924452	-0.163464	0.446626
C48	C	-2.051689	-0.238948	0.678975
C49	C	-2.067557	-0.238406	0.751959
C50	C	-2.091759	-0.167387	0.784774
C51	C	-2.100122	-0.096927	0.744599
C52	C	-2.084264	-0.097478	0.671614
C53	C	-2.060040	-0.168492	0.638806
C54	C	-2.211478	-0.172942	0.903959
C55	C	-2.227320	-0.172371	0.976944
C56	C	-2.038118	-0.159503	0.969824
C57	C	-2.022270	-0.160062	0.896839
C58	C	-2.108959	-0.166788	0.863912
C59	C	-1.532304	0.060513	0.210667
C60	C	-1.418838	0.203335	0.211265
C61	C	-1.667909	-0.165071	0.087552
C62	C	-1.640654	-0.165664	0.009876
C63	C	-1.613661	-0.176336	0.453737
C64	C	-1.629513	-0.175756	0.526721
C65	C	-1.542851	-0.169039	0.559665
C66	C	-1.440319	-0.162888	0.519621
C67	C	-1.424461	-0.163459	0.446638
C68	C	-1.545077	-0.172367	-0.023051
C69	C	-1.519443	-0.172908	-0.096037
C70	C	-1.589394	-0.166757	-0.136094
C71	C	-1.684977	-0.160050	-0.103163
C72	C	-1.710602	-0.159499	-0.030179
C73	C	-2.265309	-0.734457	0.207539
C74	C	-2.157884	-0.585815	0.207878
C75	C	-2.299461	-0.577432	0.147156
C76	C	-2.405976	-0.725971	0.146466
C77	C	-2.466674	-0.765378	0.280042
C78	C	-2.357632	-0.616874	0.281455
H79	H	-1.607954	-0.560338	0.254438
H80	H	-1.566370	-0.533066	0.158237
H81	H	-1.916093	-0.586711	0.288733
H82	H	-2.060757	-0.295786	0.784665
C83	C	-1.761924	-0.153295	-0.147234
C84	C	-1.674538	-0.039777	-0.207892
C85	C	-1.751491	-0.033032	-0.251966
C86	C	-1.915829	-0.139805	-0.235380
C87	C	-2.003224	-0.253331	-0.174719
C88	C	-1.926271	-0.260076	-0.130646
H89	H	-1.552877	0.039270	-0.220172
H90	H	-1.686794	0.051008	-0.296871
H91	H	-1.972794	-0.134812	-0.268006
H92	H	-2.124885	-0.332378	-0.162439
H93	H	-1.990968	-0.344116	-0.085740
C94	C	-2.180476	-0.503746	0.078005
C95	C	-2.023044	-0.408919	0.080524
C96	C	-1.904055	-0.335237	0.011374
C97	C	-1.942499	-0.356380	-0.060295
C98	C	-2.099939	-0.451211	-0.062818
C99	C	-2.218927	-0.524894	0.006332
H100	H	-1.994579	-0.393264	0.133581
H101	H	-1.787508	-0.265037	0.013242
H102	H	-1.854417	-0.301836	-0.111484
H103	H	-2.128404	-0.466867	-0.115874
H104	H	-2.335474	-0.595093	0.004465
H105	H	-1.441611	-0.178369	-0.122838
H106	H	-1.713010	-0.180770	0.559315
H107	H	-1.568529	-0.167222	-0.195520
C108	C	-2.267817	-0.797559	0.270041
C109	C	-2.409303	-0.906349	0.325231
C110	C	-2.411819	-0.969464	0.387735
C111	C	-2.272850	-0.923788	0.395050
C112	C	-2.131355	-0.814992	0.339858
C113	C	-2.128838	-0.751877	0.277354
H114	H	-2.512185	-0.940166	0.319818
H115	H	-2.516564	-1.050002	0.428591
H116	H	-2.274713	-0.970509	0.441319
H117	H	-2.028472	-0.781174	0.345272
H118	H	-2.024093	-0.671339	0.236498
H119	H	-2.416093	-0.586711	0.288733
C120	C	-2.242313	-0.182590	0.570797
C121	C	-2.234935	-0.075849	0.554214
C122	C	-2.347730	-0.082649	0.598279
C123	C	-2.467903	-0.196189	0.658928
C124	C	-2.475286	-0.302939	0.675514
C125	C	-2.362491	-0.296139	0.631448
H126	H	-2.145971	0.008208	0.509316
H127	H	-2.342264	-0.003625	0.586001
H128	H	-2.551401	-0.201222	0.691548
H129	H	-2.564250	-0.386995	0.720412
H130	H	-2.367957	-0.375163	0.643726
H131	H	-1.684241	-0.181809	0.426924
C132	C	-2.090415	-0.551385	0.270772
C133	C	-2.134139	-0.659269	0.321041
C134	C	-2.066670	-0.624846	0.383936
C135	C	-1.955477	-0.482540	0.396563
C136	C	-1.911747	-0.374646	0.346293
C137	C	-1.979217	-0.409069	0.283398
H138	H	-2.216455	-0.764621	0.311695
H139	H	-2.099042	-0.704717	0.421148
H140	H	-1.905532	-0.457058	0.443121
H141	H	-1.829431	-0.269294	0.355639
H142	H	-1.946844	-0.329198	0.246185
C143	C	-2.213183	-0.761813	0.140535
C144	C	-2.309382	-0.840325	0.089262
C145	C	-2.257263	-0.867687	0.022259
C146	C	-2.108945	-0.816536	0.006528
C147	C	-2.012737	-0.738019	0.057802
C148	C	-2.064856	-0.710657	0.124805
H149	H	-2.419184	-0.878194	0.100906
H150	H	-2.328483	-0.925810	-0.015697
H151	H	-2.070363	-0.836791	-0.043072
H152	H	-1.902935	-0.700150	0.046158
H153	H	-1.993636	-0.652533	0.162761
C154	C	-2.034304	-0.514598	0.140795
C155	C	-2.065129	-0.531923	0.067340
C156	C	-1.941573	-0.460734	0.000243
C157	C	-1.787192	-0.372221	0.006600
C158	C	-1.756360	-0.354892	0.080058
C159	C	-1.879916	-0.426081	0.147156
H160	H	-2.179417	-0.597449	0.062631
H161	H	-1.964398	-0.473562	-0.054136
H162	H	-1.695729	-0.319522	-0.043070
H163	H	-1.642072	-0.289366	0.084767
H164	H	-1.857091	-0.413253	0.201534
H165	H	-1.369765	-0.157420	0.546456
C166	C	-2.355707	-0.749211	0.076578
C167	C	-2.453279	-0.822401	0.025405
C168	C	-2.403000	-0.845632	-0.044484
C169	C	-2.255148	-0.795672	-0.063200
C170	C	-2.157567	-0.722477	-0.012026
C171	C	-2.207846	-0.699246	0.057863
H172	H	-2.562736	-0.859389	0.039258
H173	H	-2.475236	-0.899817	-0.082367
H174	H	-2.217928	-0.812869	-0.114936
H175	H	-2.048110	-0.685490	-0.025879
H176	H	-2.135609	-0.645062	0.095746
C177	C	-2.552647	-0.781220	0.146323
C178	C	-2.684124	-0.886445	0.207001
C179	C	-2.830786	-0.941689	0.206852
C180	C	-2.845973	-0.891709	0.146025
C181	C	-2.714492	-0.786479	0.085342
C182	C	-2.567829	-0.731234	0.085491
H183	H	-2.672886	-0.923448	0.252033
H184	H	-2.928117	-1.019588	0.251774
H185	H	-2.954541	-0.932605	0.145915
H186	H	-2.725730	-0.749475	0.040310
H187	H	-2.470499	-0.653335	0.040569
C188	C	-2.025073	-0.317080	0.642883
C189	C	-2.015900	-0.394599	0.687071
C190	C	-1.989285	-0.472728	0.650980
C191	C	-1.971842	-0.473338	0.570701
C192	C	-1.981015	-0.395816	0.526508
C193	C	-2.007631	-0.317687	0.562599
H194	H	-2.028812	-0.394150	0.746503
H195	H	-1.982494	-0.530115	0.683695
H196	H	-1.952140	-0.531174	0.543984
H197	H	-1.968103	-0.396265	0.467076
H198	H	-2.014421	-0.260300	0.529884
C199	C	-2.296514	-0.584980	0.346580
C200	C	-2.342027	-0.694086	0.396620
C201	C	-2.280890	-0.662172	0.461741
C202	C	-2.174239	-0.521154	0.476822
C203	C	-2.128720	-0.412039	0.426781
C204	C	-2.189857	-0.443952	0.361660
H205	H	-2.420982	-0.798484	0.385457
H206	H	-2.314586	-0.742947	0.498784
H207	H	-2.128981	-0.497530	0.525028
H208	H	-2.049765	-0.307640	0.437944
H209	H	-2.156160	-0.363178	0.324617
C210	C	-1.680476	-0.503746	0.078005
C211	C	-1.523044	-0.408919	0.080524
C212	C	-1.404055	-0.335237	0.011374
C213	C	-1.442499	-0.356380	-0.060295
C214	C	-1.599939	-0.451211	-0.062818
C215	C	-1.718927	-0.524894	0.006332
H216	H	-1.494579	-0.393264	0.133581
H217	H	-1.287508	-0.265037	0.013242
H218	H	-1.354417	-0.301836	-0.111484
H219	H	-1.628404	-0.466867	-0.115874
H220	H	-1.835474	-0.595093	0.004465
H221	H	-2.357022	-0.547201	0.147908
H222	H	-1.767174	-0.781163	0.253809
C223	C	-1.855707	-0.749212	0.076579
C224	C	-1.719111	-0.632745	0.021783
C225	C	-1.668831	-0.655978	-0.048105
C226	C	-1.755147	-0.795677	-0.063197
C227	C	-1.891751	-0.912153	-0.008401
C228	C	-1.942031	-0.888921	0.061488
H229	H	-1.655207	-0.529323	0.032954
H230	H	-1.567707	-0.569754	-0.088669
H231	H	-1.717927	-0.812876	-0.114933
H232	H	-1.955655	-1.015576	-0.019572
H233	H	-2.043155	-0.975144	0.102052
H234	H	-1.555779	-0.168576	0.619093
H235	H	-1.726733	-0.754710	0.157939
H236	H	-2.014542	-0.766853	0.146363
H237	H	-1.340979	-0.158457	0.414044
H238	H	-1.979276	-0.815200	0.329347
H239	H	-1.857022	-0.547201	0.147908
H240	H	-2.119834	-0.039101	0.771315
H241	H	-1.488105	-0.177375	0.009555
C242	C	-1.796531	-0.584967	0.346588
C243	C	-1.634212	-0.488847	0.337071
C244	C	-1.573099	-0.456913	0.402203
C245	C	-1.674306	-0.521100	0.476851
C246	C	-1.836634	-0.617226	0.486372
C247	C	-1.897747	-0.649159	0.421240
H248	H	-1.559284	-0.441326	0.281809
H249	H	-1.452932	-0.385754	0.395155
H250	H	-1.629066	-0.497460	0.525066
H251	H	-1.911562	-0.664746	0.541634
H252	H	-2.017914	-0.720318	0.428288
H253	H	-2.076534	-0.806516	0.283457
H254	H	-1.788437	-0.154048	-0.003376
H255	H	-2.479276	-0.815200	0.329347
H256	H	-2.184254	-0.181829	0.426941
H257	H	-2.091071	-0.040105	0.638906
H258	H	-2.282062	-0.178414	0.877148
H259	H	-2.576534	-0.806516	0.283457
H260	H	-2.310804	-0.177384	1.009549
H261	H	-1.967548	-0.154033	0.996639
H262	H	-1.938793	-0.155053	0.864233
H263	H	-1.840954	-0.158432	0.414019
H264	H	-1.869747	-0.157451	0.546431
