data_functionalizedCrystal
_audit_creation_method	'MofGen! by Chris Wilmer'
_symmetry_space_group_name_H-M	'P1'
_symmetry_Int_Tables_number	1
_symmetry_cell_setting	triclinic
loop_
_symmetry_equiv_pos_as_xyz
  x,y,z
_cell_length_a	14.044191
_cell_length_b	13.101018
_cell_length_c	10.654550
_cell_angle_alpha	93.391548
_cell_angle_beta	91.161646
_cell_angle_gamma	93.666878
loop_
_atom_site_label
_atom_site_type_symbol
_atom_site_fract_x
_atom_site_fract_y
_atom_site_fract_z
O1	O	1.264876	0.085164	-0.296687
O2	O	0.988835	0.085177	-0.285743
O3	O	1.133202	0.085164	-0.109114
O4	O	1.120510	0.085178	-0.473316
O5	O	1.122832	-0.085265	-0.121798
O6	O	0.978465	-0.085252	-0.298427
O7	O	1.254506	-0.085265	-0.309370
Zn8	Zn	1.114839	-0.112318	-0.305912
Zn9	Zn	1.128502	0.112230	-0.289201
O10	O	1.110139	-0.085252	-0.485999
C11	C	0.948305	-0.000036	-0.287298
C12	C	0.842985	-0.000031	-0.273018
N13	N	1.105522	-0.265566	-0.317317
C14	C	0.593192	-0.000038	-0.348184
C15	C	0.650156	-0.000040	-0.246934
C16	C	0.757456	-0.000035	-0.261451
C17	C	0.485882	-0.000044	-0.333669
C18	C	1.150500	-0.525480	-0.262264
C19	C	1.092852	-0.474602	-0.332836
C20	C	1.099903	-0.358283	-0.324199
C21	C	1.143450	-0.641808	-0.270900
C22	C	1.295037	-0.000050	-0.307815
C23	C	1.400357	-0.000048	-0.322094
C24	C	1.127085	-0.000050	-0.068564
C25	C	1.124297	-0.000048	0.071159
N26	N	1.137828	0.265478	-0.277787
C27	C	1.116257	-0.000035	-0.526549
C28	C	1.119045	-0.000030	-0.666272
C29	C	1.209298	-0.000052	0.142100
C30	C	1.206673	-0.000039	0.273386
C31	C	1.034038	-0.000024	0.262778
C32	C	1.036664	-0.000029	0.131495
H33	H	0.618343	0.000028	-0.149343
H34	H	0.625008	-0.000032	-0.445762
H35	H	1.038204	-0.518402	-0.399742
N36	N	1.219046	-0.470527	-0.178341
N37	N	1.224746	-0.374745	-0.171361
H38	H	1.273158	-0.335923	-0.112093
N39	N	1.298816	-0.000075	0.080487
N40	N	1.374703	-0.000079	0.143849
H41	H	1.437929	-0.000094	0.100340
N42	N	1.293509	-0.000035	0.345831
N43	N	1.371741	-0.000046	0.291939
H44	H	1.433074	-0.000041	0.343103
N45	N	0.944537	-0.000002	0.324432
N46	N	0.942202	0.000002	0.441648
H47	H	0.878989	0.000016	0.485191
H48	H	0.967442	-0.000023	0.073733
