data_functionalizedCrystal
_audit_creation_method	'MofGen! by Chris Wilmer'
_symmetry_space_group_name_H-M	'P1'
_symmetry_Int_Tables_number	1
_symmetry_cell_setting	triclinic
loop_
_symmetry_equiv_pos_as_xyz
  x,y,z
_cell_length_a	31.640172
_cell_length_b	14.446369
_cell_length_c	31.640172
_cell_angle_alpha	60.002431
_cell_angle_beta	90.000068
_cell_angle_gamma	59.987431
loop_
_atom_site_label
_atom_site_type_symbol
_atom_site_fract_x
_atom_site_fract_y
_atom_site_fract_z
Zr1	Zr	0.407149	1.013138	-0.055508
Zr2	Zr	0.907149	1.513138	0.444492
O3	O	0.339639	1.206298	-0.122990
O4	O	0.839639	1.706298	0.377010
O5	O	0.427848	0.820007	-0.034822
O6	O	0.927848	1.320007	0.465178
O7	O	0.427822	1.013154	-0.123000
O8	O	0.927822	1.513154	0.377000
O9	O	0.339682	1.013130	0.034747
O10	O	0.839682	1.513130	0.534747
O11	O	0.497379	1.013133	-0.123008
O12	O	0.997379	1.513133	0.376992
O13	O	0.339665	1.013151	-0.034811
O14	O	0.839665	1.513151	0.465189
O15	O	0.497425	0.667630	0.034727
O16	O	0.997425	1.167630	0.534727
O17	O	0.339636	1.358633	-0.122989
O18	O	0.839636	1.858633	0.377011
O19	O	0.488582	0.899419	-0.026004
O20	O	0.988582	1.399419	0.473996
O21	O	0.436685	0.899418	0.025911
O22	O	0.936685	1.399418	0.525911
O23	O	0.436655	1.126823	-0.077907
O24	O	0.936655	1.626823	0.422093
O25	O	0.384758	1.126822	-0.025992
O26	O	0.884758	1.626822	0.474008
Zr27	Zr	0.518113	1.013071	0.055416
Zr28	Zr	1.018113	1.513071	0.555416
Zr29	Zr	0.518085	1.013106	-0.055520
Zr30	Zr	1.018085	1.513106	0.444480
Zr31	Zr	0.407177	1.013103	0.055429
Zr32	Zr	0.907177	1.513103	0.555429
Zr33	Zr	0.407145	1.256096	-0.055507
Zr34	Zr	0.907145	1.756096	0.444493
Zr35	Zr	0.518118	0.770114	0.055415
Zr36	Zr	1.018118	1.270114	0.555415
O37	O	0.497415	1.206202	0.034730
O38	O	0.997415	1.706202	0.534730
O39	O	0.497375	1.206252	-0.123007
O40	O	0.997375	1.706252	0.376993
O41	O	0.339678	1.206248	0.034748
O42	O	0.839678	1.706248	0.534748
O43	O	0.585624	0.819912	0.122898
O44	O	1.085624	1.319912	0.622898
O45	O	0.585584	0.819961	-0.034839
O46	O	1.085584	1.319961	0.465161
O47	O	0.427887	0.819958	0.122915
O48	O	0.927887	1.319958	0.622915
O49	O	0.585580	1.013080	-0.034838
O50	O	1.085580	1.513080	0.465162
O51	O	0.497441	1.013056	0.122909
O52	O	0.997441	1.513056	0.622909
O53	O	0.427883	1.013076	0.122917
O54	O	0.927883	1.513076	0.622917
O55	O	0.585598	1.013058	0.034719
O56	O	1.085598	1.513058	0.534719
O57	O	0.427815	1.358608	-0.122999
O58	O	0.927815	1.858608	0.377001
O59	O	0.497447	0.667602	0.122907
O60	O	0.997447	1.167602	0.622907
O61	O	0.585627	0.667576	0.122897
O62	O	1.085627	1.167576	0.622897
O63	O	0.585604	0.667604	0.034718
O64	O	1.085604	1.167604	0.534718
O65	O	0.339658	1.358605	-0.034809
O66	O	0.839658	1.858605	0.465191
O67	O	0.427837	1.358580	-0.034819
O68	O	0.927837	1.858580	0.465181
O69	O	0.488608	0.899387	0.077816
O70	O	0.988608	1.399387	0.577816
O71	O	0.540505	0.899388	0.025900
O72	O	1.040505	1.399388	0.525900
O73	O	0.488577	1.126792	-0.026003
O74	O	0.988577	1.626792	0.473997
O75	O	0.436681	1.126790	0.025913
O76	O	0.936681	1.626790	0.525913
C77	C	0.462637	0.709202	-0.000047
C78	C	0.962637	1.209202	0.499953
C79	C	0.462639	0.606061	-0.000048
C80	C	0.962639	1.106061	0.499952
C81	C	0.495204	0.459746	-0.032951
C82	C	0.995204	0.959746	0.467049
C83	C	0.495388	0.566670	-0.032811
C84	C	0.995388	1.066670	0.467189
C85	C	0.486536	0.479178	0.056354
C86	C	0.986536	0.979178	0.556354
C87	C	0.486773	0.371800	0.056176
C88	C	0.986773	0.871800	0.556176
C89	C	0.406132	0.546823	-0.023084
C90	C	0.906132	1.046823	0.476916
C91	C	0.406223	0.655297	-0.024228
C92	C	0.906223	1.155297	0.475772
C93	C	0.323867	1.013145	-0.000030
C94	C	0.823867	1.513145	0.499970
C95	C	0.276772	1.013159	-0.000025
C96	C	0.776772	1.513159	0.499975
C97	C	-0.059492	1.013067	0.038283
C98	C	0.440508	1.513067	0.538283
C99	C	0.117490	1.013104	0.038291
C100	C	0.617490	1.513104	0.538291
O101	O	0.140391	1.013047	0.070893
O102	O	0.640391	1.513047	0.570893
N103	N	0.139615	1.013121	-0.000029
N104	N	0.639615	1.513121	0.499971
C105	C	0.117493	1.013120	-0.038352
C106	C	0.617493	1.513120	0.461648
O107	O	0.140375	1.013122	-0.070942
O108	O	0.640375	1.513122	0.429058
C109	C	-0.059486	1.013074	-0.038357
C110	C	0.440514	1.513074	0.461643
C111	C	-0.081611	1.013070	-0.000037
C112	C	0.418389	1.513070	0.499963
C113	C	-0.081617	1.013062	0.076600
C114	C	0.418383	1.513062	0.576600
C115	C	-0.125861	1.013059	0.076596
C116	C	0.374139	1.513059	0.576596
C117	C	-0.147980	1.013062	0.038275
C118	C	0.352020	1.513062	0.538275
C119	C	-0.125855	1.013068	-0.000041
C120	C	0.374145	1.513068	0.499959
C121	C	-0.081604	1.013063	-0.076677
C122	C	0.418396	1.513063	0.423323
C123	C	-0.125851	1.013048	-0.076674
C124	C	0.374149	1.513048	0.423326
C125	C	-0.147976	1.013045	-0.038355
C126	C	0.352024	1.513045	0.461645
C127	C	-0.192219	1.013068	-0.038366
C128	C	0.307781	1.513068	0.461634
N129	N	-0.214344	1.013051	-0.000046
N130	N	0.285656	1.513051	0.499954
C131	C	-0.192224	1.013048	0.038275
C132	C	0.307776	1.513048	0.538275
C133	C	0.210409	1.013148	-0.038347
C134	C	0.710409	1.513148	0.461653
C135	C	0.254653	1.013162	-0.038346
C136	C	0.754653	1.513162	0.461654
C137	C	0.254647	1.013143	0.038298
C138	C	0.754647	1.513143	0.538298
C139	C	0.210401	1.013138	0.038294
C140	C	0.710401	1.513138	0.538294
C141	C	0.188284	1.013131	-0.000027
C142	C	0.688284	1.513131	0.499973
C143	C	-0.285141	1.013045	0.038263
C144	C	0.214859	1.513045	0.538263
C145	C	-0.329391	1.013048	0.038254
C146	C	0.170609	1.513048	0.538254
C147	C	-0.329380	1.013060	-0.038387
C148	C	0.170620	1.513060	0.461613
C149	C	-0.285136	1.013063	-0.038381
C150	C	0.214864	1.513063	0.461619
C151	C	-0.263016	1.013051	-0.000051
C152	C	0.236984	1.513051	0.499949
O153	O	-0.215143	1.013111	-0.070948
O154	O	0.284857	1.513111	0.429052
O155	O	-0.215108	1.013017	0.070867
O156	O	0.284892	1.513017	0.570867
C157	C	-0.015247	1.013069	0.038287
C158	C	0.484753	1.513069	0.538287
C159	C	0.006878	1.013074	-0.000029
C160	C	0.506878	1.513074	0.499971
C161	C	-0.015242	1.013077	-0.038350
C162	C	0.484758	1.513077	0.461650
C163	C	0.051122	1.013088	-0.000029
C164	C	0.551122	1.513088	0.499971
C165	C	0.073241	1.013085	0.038292
C166	C	0.573241	1.513085	0.538292
C167	C	0.051117	1.013068	0.076612
C168	C	0.551117	1.513068	0.576612
C169	C	0.006872	1.013066	0.076608
C170	C	0.506872	1.513066	0.576608
C171	C	0.006883	1.013094	-0.076670
C172	C	0.506883	1.513094	0.423330
C173	C	0.051127	1.013098	-0.076663
C174	C	0.551127	1.513098	0.423337
C175	C	0.073247	1.013095	-0.038343
C176	C	0.573247	1.513095	0.461657
C177	C	0.601395	1.013065	-0.000061
C178	C	1.101395	1.513065	0.499939
C179	C	0.648490	1.013051	-0.000066
C180	C	1.148490	1.513051	0.499934
C181	C	0.462596	1.013149	-0.138810
C182	C	0.962596	1.513149	0.361190
C183	C	0.462585	1.013163	-0.185906
C184	C	0.962585	1.513163	0.314094
C185	C	0.462625	1.317007	-0.000044
C186	C	0.962625	1.817007	0.499956
C187	C	0.462623	1.420149	-0.000044
C188	C	0.962623	1.920149	0.499956
C189	C	0.424314	1.013090	-0.522174
C190	C	0.924314	1.513090	-0.022174
C191	C	0.424288	1.013130	-0.345193
C192	C	0.924288	1.513130	0.154807
O193	O	0.391708	1.013092	-0.322297
O194	O	0.891708	1.513092	0.177703
N195	N	0.462606	1.013124	-0.323063
N196	N	0.962606	1.513124	0.176937
C197	C	0.500934	1.013100	-0.345179
C198	C	1.000934	1.513100	0.154821
O199	O	0.533528	1.013082	-0.322292
O200	O	1.033528	1.513082	0.177708
C201	C	0.500962	1.013050	-0.522157
C202	C	1.000962	1.513050	-0.022157
C203	C	0.462639	1.013069	-0.544288
C204	C	0.962639	1.513069	-0.044288
C205	C	0.385995	1.013107	-0.544304
C206	C	0.885995	1.513107	-0.044304
C207	C	0.386000	1.013104	-0.588548
C208	C	0.886000	1.513104	-0.088548
C209	C	0.424325	1.013084	-0.610662
C210	C	0.924325	1.513084	-0.110662
C211	C	0.462644	1.013066	-0.588532
C212	C	0.962644	1.513066	-0.088532
C213	C	0.539292	1.013016	-0.544270
C214	C	1.039292	1.513016	-0.044270
C215	C	0.539296	1.013001	-0.588517
C216	C	1.039296	1.513001	-0.088517
C217	C	0.500973	1.013020	-0.610648
C218	C	1.000973	1.513020	-0.110648
C219	C	0.500974	1.013043	-0.654890
C220	C	1.000974	1.513043	-0.154890
N221	N	0.462657	1.013049	-0.677020
N222	N	0.962657	1.513049	-0.177020
C223	C	0.424332	1.013069	-0.654906
C224	C	0.924332	1.513069	-0.154906
C225	C	0.500917	1.013128	-0.252264
C226	C	1.000917	1.513128	0.247736
C227	C	0.500909	1.013143	-0.208020
C228	C	1.000909	1.513143	0.291980
C229	C	0.424264	1.013171	-0.208036
C230	C	0.924264	1.513171	0.291964
C231	C	0.424269	1.013165	-0.252283
C232	C	0.924269	1.513165	0.247717
C233	C	0.462599	1.013134	-0.274393
C234	C	0.962599	1.513134	0.225607
C235	C	0.424346	1.013064	-0.747823
C236	C	0.924346	1.513064	-0.247823
C237	C	0.424353	1.013067	-0.792072
C238	C	0.924353	1.513067	-0.292072
C239	C	0.501000	1.013032	-0.792050
C240	C	1.001000	1.513032	-0.292050
C241	C	0.500991	1.013037	-0.747806
C242	C	1.000991	1.513037	-0.247806
C243	C	0.462662	1.013048	-0.725692
C244	C	0.962662	1.513048	-0.225692
O245	O	0.533541	1.013066	-0.677810
O246	O	1.033541	1.513066	-0.177810
O247	O	0.391750	1.013058	-0.677794
O248	O	0.891750	1.513058	-0.177794
C249	C	0.424309	1.013093	-0.477930
C250	C	0.924309	1.513093	0.022070
C251	C	0.462629	1.013075	-0.455799
C252	C	0.962629	1.513075	0.044201
C253	C	0.500953	1.013054	-0.477913
C254	C	1.000953	1.513054	0.022087
C255	C	0.462621	1.013090	-0.411555
C256	C	0.962621	1.513090	0.088445
C257	C	0.424297	1.013110	-0.389442
C258	C	0.924297	1.513110	0.110558
C259	C	0.385979	1.013116	-0.411571
C260	C	0.885979	1.513116	0.088429
C261	C	0.385984	1.013113	-0.455816
C262	C	0.885984	1.513113	0.044184
C263	C	0.539271	1.013049	-0.455783
C264	C	1.039271	1.513049	0.044217
C265	C	0.539262	1.013053	-0.411539
C266	C	1.039262	1.513053	0.088461
C267	C	0.500937	1.013074	-0.389425
C268	C	1.000937	1.513074	0.110575
C269	C	0.462666	1.013061	0.138719
C270	C	0.962666	1.513061	0.638719
C271	C	0.462678	1.013046	0.185814
C272	C	0.962678	1.513046	0.685814
C273	C	0.601401	0.709162	-0.000063
C274	C	1.101401	1.209162	0.499937
C275	C	0.648498	0.606007	-0.000069
C276	C	1.148498	1.106007	0.499931
C277	C	0.462672	0.709159	0.138717
C278	C	0.962672	1.209159	0.638717
C279	C	0.462686	0.606002	0.185812
C280	C	0.962686	1.106002	0.685812
C281	C	0.601436	0.709118	0.138702
C282	C	1.101436	1.209118	0.638702
C283	C	0.648545	0.605948	0.185791
C284	C	1.148545	1.105948	0.685791
C285	C	0.323827	1.317091	-0.138793
C286	C	0.823827	1.817091	0.361207
C287	C	0.276718	1.420262	-0.185883
C288	C	0.776718	1.920262	0.314117
C289	C	0.323861	1.317048	-0.000029
C290	C	0.823861	1.817048	0.499971
C291	C	0.276764	1.420203	-0.000023
C292	C	0.776764	1.920203	0.499977
C293	C	0.462590	1.317051	-0.138809
C294	C	0.962590	1.817051	0.361191
C295	C	0.462577	1.420208	-0.185904
C296	C	0.962577	1.920208	0.314096
C297	C	0.643512	0.557580	-0.027169
C298	C	1.143512	1.057580	0.472831
C299	C	0.687761	0.460668	-0.027185
C300	C	1.187761	0.960668	0.472815
C301	C	0.736995	0.412178	-0.000097
C302	C	1.236995	0.912178	0.499903
C303	C	0.741980	0.460614	0.027005
C304	C	1.241980	0.960614	0.527005
C305	C	0.697731	0.557531	0.027017
C306	C	1.197731	1.057531	0.527017
C307	C	0.489795	0.557542	0.235026
C308	C	0.989795	1.057542	0.735026
C309	C	0.489806	0.460629	0.279281
C310	C	0.989806	0.960629	0.779281
C311	C	0.462710	0.412171	0.274321
C312	C	0.962710	0.912171	0.774321
C313	C	0.435597	0.460641	0.225101
C314	C	0.935597	0.960641	0.725101
C315	C	0.435584	0.557558	0.180847
C316	C	0.935584	1.057558	0.680847
C317	C	0.697762	0.557499	0.180806
C318	C	1.197762	1.057499	0.680806
C319	C	0.742030	0.460573	0.225047
C320	C	1.242030	0.960573	0.725047
C321	C	0.737080	0.412092	0.274274
C322	C	1.237080	0.912092	0.774274
C323	C	0.687857	0.460550	0.279259
C324	C	1.187857	0.960550	0.779259
C325	C	0.643590	0.557481	0.235018
C326	C	1.143590	1.057481	0.735018
C327	C	0.227501	1.468722	-0.180897
C328	C	0.727501	1.968722	0.319103
C329	C	0.183233	1.565678	-0.225139
C330	C	0.683233	2.065678	0.274861
C331	C	0.188183	1.614165	-0.274366
C332	C	0.688183	2.114165	0.225634
C333	C	0.237405	1.565700	-0.279350
C334	C	0.737405	2.065700	0.220650
C335	C	0.281672	1.468753	-0.235109
C336	C	0.781672	1.968753	0.264891
C337	C	0.281750	1.468640	0.027073
C338	C	0.781750	1.968640	0.527073
C339	C	0.237501	1.565578	0.027077
C340	C	0.737501	2.065578	0.527077
C341	C	0.188268	1.614072	-0.000013
C342	C	0.688268	2.114072	0.499987
C343	C	0.183283	1.565632	-0.027113
C344	C	0.683283	2.065632	0.472887
C345	C	0.227531	1.468701	-0.027119
C346	C	0.727531	1.968701	0.472881
C347	C	0.489678	1.468635	-0.180926
C348	C	0.989678	1.968635	0.319074
C349	C	0.489675	1.565549	-0.225173
C350	C	0.989675	2.065549	0.274827
C351	C	0.462568	1.614040	-0.274396
C352	C	0.962568	2.114040	0.225604
C353	C	0.435466	1.565603	-0.279372
C354	C	0.935466	2.065603	0.220628
C355	C	0.435472	1.468684	-0.235126
C356	C	0.935472	1.968684	0.264874
H357	H	0.528343	0.281027	0.074622
H358	H	1.028343	0.781027	0.574622
O359	O	0.519024	0.609790	0.240388
O360	O	1.019024	1.109790	0.740388
H361	H	0.514468	0.685319	0.201351
H362	H	1.014468	1.185319	0.701351
O363	O	-0.261292	1.013039	0.079603
O364	O	0.238708	1.513039	0.579603
H365	H	-0.220864	0.924278	0.101705
H366	H	0.279136	1.424278	0.601705
H367	H	0.223464	1.429267	-0.049183
H368	H	0.723464	1.929267	0.450817
O369	O	0.518925	1.416332	-0.127840
O370	O	1.018925	1.916332	0.372160
H371	H	0.503276	1.497683	-0.123335
H372	H	1.003276	1.997683	0.376665
H373	H	0.462726	0.333255	0.310359
H374	H	0.962726	0.833255	0.810359
H375	H	0.701802	0.596958	0.140727
H376	H	1.201802	1.096958	0.640727
H377	H	0.683692	0.421243	-0.049255
H378	H	1.183692	0.921243	0.450745
H379	H	0.413510	0.597002	0.140776
H380	H	0.913510	1.097002	0.640776
H381	H	0.511744	1.604976	-0.221111
H382	H	1.011744	2.104976	0.278889
O383	O	0.703116	0.609732	0.056260
O384	O	1.203116	1.109732	0.556260
H385	H	0.684250	0.716649	0.028918
H386	H	1.184250	1.216649	0.528918
H387	H	0.143158	1.605122	-0.221070
H388	H	0.643158	2.105122	0.278930
O389	O	0.130178	1.617938	-0.056327
O390	O	0.630178	2.117938	0.443673
H391	H	0.125657	1.662119	-0.097975
H392	H	0.625657	2.162119	0.402025
H393	H	0.536627	0.370068	-0.017111
H394	H	1.036627	0.870068	0.482889
O395	O	-0.057749	1.013067	-0.118009
O396	O	0.442251	1.513067	0.381991
H397	H	-0.017318	0.924318	-0.099583
H398	H	0.482682	1.424318	0.400417
H399	H	0.603517	0.596916	0.239084
H400	H	1.103517	1.096916	0.739084
O401	O	0.222155	1.416443	-0.127805
O402	O	0.722155	1.916443	0.372195
H403	H	0.180491	1.466455	-0.131780
H404	H	0.680491	1.966455	0.368220
H405	H	0.570498	1.013000	-0.526257
H406	H	1.070498	1.513000	-0.026257
O407	O	0.186539	1.013126	0.079625
O408	O	0.686539	1.513126	0.579625
H409	H	0.186653	0.924365	0.101716
H410	H	0.686653	1.424365	0.601716
O411	O	-0.149711	1.013060	-0.118012
O412	O	0.350289	1.513060	0.381988
H413	H	-0.120946	0.924315	-0.116131
H414	H	0.379054	1.424315	0.383869
O415	O	0.406239	1.416461	-0.240502
O416	O	0.906239	1.916461	0.259498
H417	H	0.410797	1.340911	-0.201469
H418	H	0.910797	1.840911	0.298531
O419	O	-0.261268	1.013072	-0.079710
O420	O	0.238732	1.513072	0.420290
H421	H	-0.284084	1.013068	-0.106356
H422	H	0.215916	1.513068	0.393644
H423	H	0.479254	0.497006	-0.074591
H424	H	0.979254	0.997006	0.425409
O425	O	0.186556	1.013160	-0.079688
O426	O	0.686556	1.513160	0.420312
H427	H	0.186674	0.924395	-0.061271
H428	H	0.686674	1.424395	0.438729
O429	O	0.462555	1.718590	-0.322117
O430	O	0.962555	2.218590	0.177883
H431	H	0.485950	1.744123	-0.310382
H432	H	0.985950	2.244123	0.189618
O433	O	0.140436	1.718745	-0.322082
O434	O	0.640436	2.218745	0.177918
H435	H	0.105382	1.744287	-0.310339
H436	H	0.605382	2.244287	0.189661
O437	O	0.242739	1.618004	-0.332447
O438	O	0.742739	2.118004	0.167553
H439	H	0.264223	1.536655	-0.336955
H440	H	0.764223	2.036655	0.163045
H441	H	0.537060	0.529187	-0.016830
H442	H	1.037060	1.029187	0.483170
H443	H	0.773020	0.333261	-0.000111
H444	H	1.273020	0.833261	0.499889
O445	O	0.334757	1.416469	-0.240489
O446	O	0.834757	1.916469	0.259511
H447	H	0.330756	1.466467	-0.282153
H448	H	0.830756	1.966467	0.217847
O449	O	0.406223	1.617921	-0.332464
O450	O	0.906223	2.117921	0.167536
H451	H	0.410769	1.693463	-0.362390
H452	H	0.910769	2.193463	0.137610
H453	H	0.379905	0.687423	-0.002749
H454	H	0.879905	1.187423	0.497251
O455	O	0.074984	1.013052	0.117946
O456	O	0.574984	1.513052	0.617946
H457	H	0.046228	1.101804	0.116065
H458	H	0.546228	1.601804	0.616065
H459	H	0.152242	1.692999	-0.000004
H460	H	0.652242	2.192999	0.499996
H461	H	-0.143872	1.013051	0.107800
H462	H	0.356128	1.513051	0.607800
H463	H	0.479363	0.656034	-0.074344
H464	H	0.979363	1.156034	0.425656
H465	H	0.511887	0.421177	0.319354
H466	H	1.011887	0.921177	0.819354
O467	O	0.457391	0.332069	0.090432
O468	O	0.957391	0.832069	0.590432
H469	H	0.443077	0.389560	0.107054
H470	H	0.943077	0.889560	0.607054
O471	O	0.795109	0.408364	0.219649
O472	O	1.295109	0.908364	0.719649
H473	H	0.816561	0.427000	0.238493
H474	H	1.316561	0.927000	0.738493
O475	O	0.784830	0.307529	0.321987
O476	O	1.284830	0.807529	0.821987
H477	H	0.773123	0.281950	0.357058
H478	H	1.273123	0.781950	0.857058
O479	O	0.334848	1.416372	0.056286
O480	O	0.834848	1.916372	0.556286
H481	H	0.339361	1.372229	0.097932
H482	H	0.839361	1.872229	0.597932
O483	O	0.456623	0.508625	0.090246
O484	O	0.956623	1.008625	0.590246
H485	H	0.424331	0.614262	0.067196
H486	H	0.924331	1.114262	0.567196
O487	O	-0.353244	1.013079	-0.079722
O488	O	0.146756	1.513079	0.420278
H489	H	-0.387726	1.013068	-0.073281
H490	H	0.112274	1.513068	0.426719
H491	H	0.683835	0.421062	0.319345
H492	H	1.183835	0.921062	0.819345
O493	O	0.406390	0.408334	0.219753
O494	O	0.906390	0.908334	0.719753
H495	H	0.410968	0.332779	0.258797
H496	H	0.910968	0.832779	0.758797
O497	O	0.590413	0.609883	-0.056394
O498	O	1.090413	1.109883	0.443606
H499	H	0.594388	0.559929	-0.075245
H500	H	1.094388	1.059929	0.424755
H501	H	0.241570	1.605002	0.049146
H502	H	0.741570	2.105002	0.549146
H503	H	0.527712	0.440603	0.074929
H504	H	1.027712	0.940603	0.574929
O505	O	0.383008	1.013129	-0.815952
O506	O	0.883008	1.513129	-0.315952
H507	H	0.356358	1.013147	-0.793139
H508	H	0.856358	1.513147	-0.293139
O509	O	0.379693	0.599282	-0.077270
O510	O	0.879693	1.099282	0.422730
H511	H	0.377686	0.523858	-0.076422
H512	H	0.877686	1.023858	0.423578
O513	O	0.382566	0.775201	-0.079267
O514	O	0.882566	1.275201	0.420733
H515	H	0.410866	0.799642	-0.089363
H516	H	0.910866	1.299642	0.410637
O517	O	0.373820	0.513998	0.008507
O518	O	0.873820	1.013998	0.508507
H519	H	0.397846	0.408017	0.040459
H520	H	0.897846	0.908017	0.540459
H521	H	-0.347404	1.013048	0.069459
H522	H	0.152596	1.513048	0.569459
H523	H	-0.063610	1.013055	0.107808
H524	H	0.436390	1.513055	0.607808
H525	H	0.272660	1.013185	-0.069554
H526	H	0.772660	1.513185	0.430446
O527	O	0.278514	1.013117	0.079636
O528	O	0.778514	1.513117	0.579636
H529	H	0.278407	1.101867	0.061216
H530	H	0.778407	1.601867	0.561216
O531	O	-0.016982	1.013030	0.117945
O532	O	0.483018	1.513030	0.617945
H533	H	0.005843	1.013010	0.144593
H534	H	0.505843	1.513010	0.644593
H535	H	0.069136	1.013112	-0.107872
H536	H	0.569136	1.513112	0.392128
H537	H	-0.011123	1.013095	-0.107875
H538	H	0.488877	1.513095	0.392125
H539	H	0.354796	1.013114	-0.606563
H540	H	0.854796	1.513114	-0.106563
O541	O	0.383008	1.013077	-0.723970
O542	O	0.883008	1.513077	-0.223970
H543	H	0.344368	1.101848	-0.752728
H544	H	0.844368	1.601848	-0.252728
O545	O	0.344657	1.013130	-0.520454
O546	O	0.844657	1.513130	-0.020454
H547	H	0.306018	1.101900	-0.549216
H548	H	0.806018	1.601900	-0.049216
O549	O	0.382929	1.013206	-0.276152
O550	O	0.882929	1.513206	0.223848
H551	H	0.384813	0.924466	-0.247403
H552	H	0.884813	1.424466	0.252597
O553	O	0.382933	1.013162	-0.184174
O554	O	0.882933	1.513162	0.315826
H555	H	0.389375	1.013150	-0.149687
H556	H	0.889375	1.513150	0.350313
H557	H	0.532111	1.013148	-0.190009
H558	H	1.032111	1.513148	0.309991
H559	H	0.532130	1.013104	-0.270263
H560	H	1.032130	1.513104	0.229737
O561	O	0.542334	1.013006	-0.815908
O562	O	1.042334	1.513006	-0.315908
H563	H	0.540444	1.101758	-0.827682
H564	H	1.040444	1.601758	-0.327682
O565	O	0.580634	1.012986	-0.612370
O566	O	1.080634	1.512986	-0.112370
H567	H	0.607275	1.012989	-0.589548
H568	H	1.107275	1.512989	-0.089548
O569	O	0.795085	0.408302	0.056220
O570	O	1.295085	0.908302	0.556220
H571	H	0.791125	0.458258	0.075066
H572	H	1.291125	0.958258	0.575066
O573	O	0.542322	1.013020	-0.723933
O574	O	1.042322	1.513020	-0.223933
H575	H	0.568974	1.013000	-0.746745
H576	H	1.068974	1.513000	-0.246745
H577	H	0.354778	1.013128	-0.473831
H578	H	0.854778	1.513128	0.026169
H579	H	0.354772	1.013139	-0.393561
H580	H	0.854772	1.513139	0.106439
H581	H	0.570469	1.013048	-0.393526
H582	H	1.070469	1.513048	0.106474
H583	H	0.570480	1.013030	-0.473784
H584	H	1.070480	1.513030	0.026216
