data_functionalizedCrystal
_audit_creation_method	'MofGen! by Chris Wilmer'
_symmetry_space_group_name_H-M	'P1'
_symmetry_Int_Tables_number	1
_symmetry_cell_setting	triclinic
loop_
_symmetry_equiv_pos_as_xyz
  x,y,z
_cell_length_a	16.109302
_cell_length_b	10.654550
_cell_length_c	14.586319
_cell_angle_alpha	89.997374
_cell_angle_beta	89.994552
_cell_angle_gamma	83.973342
loop_
_atom_site_label
_atom_site_type_symbol
_atom_site_fract_x
_atom_site_fract_y
_atom_site_fract_z
O1	O	1.104090	0.161423	-0.076279
O2	O	1.604090	0.661423	0.423721
O3	O	0.862148	0.181511	-0.076272
O4	O	1.362148	0.681511	0.423728
O5	O	0.988682	-0.011348	-0.076272
O6	O	1.488682	0.488652	0.423728
O7	O	0.977556	0.354282	-0.076279
O8	O	1.477556	0.854282	0.423721
O9	O	0.988673	-0.011350	0.076209
O10	O	1.488673	0.488650	0.576209
O11	O	0.862139	0.181508	0.076209
O12	O	1.362139	0.681508	0.576209
O13	O	1.104081	0.161420	0.076202
O14	O	1.604081	0.661420	0.576202
Cu15	Cu	0.983109	0.171464	0.090128
Cu16	Cu	1.483109	0.671464	0.590128
Cu17	Cu	0.983120	0.171467	-0.090198
Cu18	Cu	1.483120	0.671467	0.409802
O19	O	0.977547	0.354279	0.076202
O20	O	1.477547	0.854279	0.576202
C21	C	0.831164	0.180695	-0.000030
C22	C	1.331164	0.680695	0.499970
C23	C	0.738854	0.178255	-0.000028
C24	C	1.238854	0.678255	0.499972
C25	C	0.526474	0.172612	0.083081
C26	C	1.026474	0.672612	0.583081
C27	C	0.439741	0.170306	0.083078
C28	C	0.939741	0.670306	0.583078
C29	C	0.439761	0.170316	-0.083165
C30	C	0.939761	0.670316	0.416835
C31	C	0.526494	0.172613	-0.083161
C32	C	1.026494	0.672613	0.416839
C33	C	0.569848	0.173767	-0.000035
C34	C	1.069848	0.673767	0.499965
C35	C	0.396381	0.169164	-0.000043
C36	C	0.896381	0.669164	0.499957
C37	C	0.302341	0.166664	-0.000047
C38	C	0.802341	0.666664	0.499953
C39	C	0.663895	0.176265	-0.000031
C40	C	1.163895	0.676265	0.499969
C41	C	0.987860	-0.058136	-0.000033
C42	C	1.487860	0.441864	0.499967
C43	C	0.985416	-0.197546	-0.000036
C44	C	1.485416	0.302454	0.499964
C45	C	1.059918	-0.278042	-0.000036
C46	C	1.559918	0.221958	0.499964
C47	C	1.057616	-0.409032	-0.000042
C48	C	1.557616	0.090968	0.499958
C49	C	0.906306	-0.379016	-0.000045
C50	C	1.406306	0.120984	0.499955
C51	C	0.908608	-0.248029	-0.000046
C52	C	1.408608	0.251971	0.499954
C53	C	1.136726	-0.227559	-0.000026
C54	C	1.636726	0.272441	0.499974
C55	C	1.211233	-0.308057	-0.000025
C56	C	1.711233	0.191943	0.499975
C57	C	1.208932	-0.439046	-0.000031
C58	C	1.708932	0.060954	0.499969
C59	C	1.132123	-0.489538	-0.000039
C60	C	1.632123	0.010462	0.499961
C61	C	1.135065	0.162236	-0.000042
C62	C	1.635065	0.662236	0.499958
C63	C	1.227375	0.164676	-0.000051
C64	C	1.727375	0.664676	0.499949
C65	C	0.978369	0.401067	-0.000039
C66	C	1.478369	0.901067	0.499961
C67	C	0.980813	0.540477	-0.000042
C68	C	1.480813	1.040477	0.499958
N69	N	0.983108	0.171461	0.216960
N70	N	1.483108	0.671461	0.716960
N71	N	0.983128	0.171460	-0.217030
N72	N	1.483128	0.671460	0.282970
C73	C	1.039156	0.086092	0.451966
C74	C	1.539156	0.586092	0.951966
C75	C	1.039158	0.086089	0.547947
C76	C	1.539158	0.586089	1.047947
C77	C	0.927073	0.256834	0.547957
C78	C	1.427073	0.756834	1.047957
C79	C	0.927068	0.256830	0.451978
C80	C	1.427068	0.756830	0.951978
C81	C	0.983114	0.171460	0.403985
C82	C	1.483114	0.671460	0.903985
C83	C	0.983122	0.171461	0.595945
C84	C	1.483122	0.671461	1.095945
C85	C	0.983124	0.171458	0.700012
C86	C	1.483124	0.671458	1.200012
C87	C	0.983111	0.171461	0.299911
C88	C	1.483111	0.671461	0.799911
H89	H	0.404451	0.169377	-0.150843
H90	H	0.904451	0.669377	0.349157
H91	H	1.273768	-0.266937	-0.000041
H92	H	1.773768	0.233063	0.499959
C93	C	0.392033	0.169044	0.174505
C94	C	0.892033	0.669044	0.674505
H95	H	0.430277	0.170070	0.224009
H96	H	0.930277	0.670070	0.724009
H97	H	0.364117	0.094958	0.177964
H98	H	0.864117	0.594958	0.677964
H99	H	0.352278	0.241346	0.177956
H100	H	0.852278	0.741346	0.677956
H101	H	1.084791	0.016577	0.412892
H102	H	1.584791	0.516577	0.912892
C103	C	0.865408	0.350707	0.600748
C104	C	1.365408	0.850707	1.100748
H105	H	0.832018	0.401530	0.558423
H106	H	1.332018	0.901530	1.058423
H107	H	0.895592	0.403013	0.638196
H108	H	1.395592	0.903013	1.138196
H109	H	0.830550	0.305473	0.638183
H110	H	1.330550	0.805473	1.138183
C111	C	1.290884	-0.527589	-0.000031
C112	C	1.790884	-0.027589	0.499969
H113	H	1.336954	-0.478758	-0.000019
H114	H	1.836954	0.021242	0.499981
H115	H	1.293141	-0.579309	-0.053204
H116	H	1.793141	-0.079309	0.446796
H117	H	1.293123	-0.579312	0.053149
H118	H	1.793123	-0.079312	0.553149
H119	H	0.881427	0.326348	0.412909
H120	H	1.381427	0.826348	0.912909
H121	H	0.561771	0.173552	0.150767
H122	H	1.061771	0.673552	0.650767
C123	C	0.574207	0.173888	-0.174594
C124	C	1.074207	0.673888	0.325406
H125	H	0.535965	0.172890	-0.224101
H126	H	1.035965	0.672890	0.275899
H127	H	0.613963	0.101596	-0.178048
H128	H	1.113963	0.601596	0.321952
H129	H	0.602121	0.247984	-0.178042
H130	H	1.102121	0.747984	0.321958
H131	H	1.138608	-0.120902	-0.000018
H132	H	1.638608	0.379098	0.499982
C133	C	1.129592	-0.633624	-0.000051
C134	C	1.629592	-0.133624	0.499949
H135	H	1.184964	-0.674337	-0.000047
H136	H	1.684964	-0.174337	0.499953
H137	H	1.101133	-0.657707	-0.053224
H138	H	1.601133	-0.157707	0.446776
H139	H	1.101129	-0.657720	0.053130
H140	H	1.601129	-0.157720	0.553130
C141	C	0.821825	-0.434556	-0.000043
C142	C	1.321825	0.065444	0.499957
H143	H	0.831124	-0.524096	-0.000033
H144	H	1.331124	-0.024096	0.499967
H145	H	0.791117	-0.406924	-0.053214
H146	H	1.291117	0.093076	0.446786
H147	H	0.791117	-0.406925	0.053139
H148	H	1.291117	0.093075	0.553139
C149	C	0.826661	-0.159474	-0.000043
C150	C	1.326661	0.340526	0.499957
H151	H	0.839035	-0.074233	-0.000052
H152	H	1.339035	0.425767	0.499948
H153	H	0.795192	-0.174771	0.053129
H154	H	1.295192	0.325229	0.553129
H155	H	0.795206	-0.174771	-0.053225
H156	H	1.295206	0.325229	0.446775
C157	C	1.100808	-0.007812	0.600723
C158	C	1.600808	0.492188	1.100723
H159	H	1.134188	-0.058645	0.558391
H160	H	1.634188	0.441355	1.058391
H161	H	1.070607	-0.060105	0.638173
H162	H	1.570607	0.439895	1.138173
H163	H	1.135679	0.037390	0.638155
H164	H	1.635679	0.537390	1.138155
