data_functionalizedCrystal
_audit_creation_method	'MofGen! by Chris Wilmer'
_symmetry_space_group_name_H-M	'P1'
_symmetry_Int_Tables_number	1
_symmetry_cell_setting	triclinic
loop_
_symmetry_equiv_pos_as_xyz
  x,y,z
_cell_length_a	19.805407
_cell_length_b	19.076808
_cell_length_c	19.805399
_cell_angle_alpha	87.672943
_cell_angle_beta	89.982197
_cell_angle_gamma	92.320774
loop_
_atom_site_label
_atom_site_type_symbol
_atom_site_fract_x
_atom_site_fract_y
_atom_site_fract_z
Zn1	Zn	1.023912	-0.280283	-0.371852
Zn2	Zn	1.523912	0.219717	0.128148
Zn3	Zn	1.019281	-0.397988	-0.254114
Zn4	Zn	1.519281	0.102012	0.245886
Zn5	Zn	0.910726	-0.280297	-0.258680
Zn6	Zn	1.410726	0.219703	0.241320
Zn7	Zn	0.906146	-0.397945	-0.367265
Zn8	Zn	1.406146	0.102055	0.132735
O9	O	0.965016	-0.339128	-0.312978
O10	O	1.465016	0.160872	0.187022
O11	O	1.118013	-0.295909	-0.356243
O12	O	1.618013	0.204091	0.143757
O13	O	1.004860	-0.382400	-0.160002
O14	O	1.504860	0.117600	0.339998
O15	O	0.929595	-0.181799	-0.277523
O16	O	1.429595	0.318201	0.222477
O17	O	1.114611	-0.382386	-0.269740
O18	O	1.614611	0.117614	0.230260
O19	O	1.012752	-0.181788	-0.360670
O20	O	1.512752	0.318212	0.139330
O21	O	0.925105	-0.295932	-0.163357
O22	O	1.425105	0.204068	0.336643
O23	O	0.815402	-0.295891	-0.273075
O24	O	1.315402	0.204109	0.226925
O25	O	0.921789	-0.382313	-0.462591
O26	O	1.421789	0.117687	0.037409
O27	O	0.812037	-0.382326	-0.352853
O28	O	1.312037	0.117674	0.147147
O29	O	1.008311	-0.295867	-0.465961
O30	O	1.508311	0.204133	0.034039
O31	O	1.000419	-0.496478	-0.265293
O32	O	1.500419	0.003522	0.234707
O33	O	0.917299	-0.496447	-0.348425
O34	O	1.417299	0.003553	0.151575
C35	C	0.789161	-0.339106	-0.312962
C36	C	1.289161	0.160894	0.187038
C37	C	0.713929	-0.339113	-0.312971
C38	C	1.213929	0.160887	0.187029
C39	C	0.680354	-0.294164	-0.358075
C40	C	1.180354	0.205836	0.141925
C41	C	0.609665	-0.294168	-0.358078
C42	C	1.109665	0.205832	0.141922
C43	C	0.572553	-0.339125	-0.312979
C44	C	1.072553	0.160875	0.187021
C45	C	0.606133	-0.384076	-0.267869
C46	C	1.106133	0.115924	0.232131
C47	C	0.676820	-0.384068	-0.267864
C48	C	1.176820	0.115932	0.232136
C49	C	0.321058	-0.384108	-0.267889
C50	C	0.821058	0.115892	0.232111
C51	C	0.250366	-0.384113	-0.267899
C52	C	0.750366	0.115887	0.232101
C53	C	0.253903	-0.294207	-0.358102
C54	C	0.753903	0.205793	0.141898
C55	C	0.324590	-0.294200	-0.358097
C56	C	0.824590	0.205800	0.141903
C57	C	0.358164	-0.339148	-0.312986
C58	C	0.858164	0.160852	0.187014
C59	C	0.434813	-0.339142	-0.312983
C60	C	0.934813	0.160858	0.187017
C61	C	0.495905	-0.339134	-0.312984
C62	C	0.995905	0.160866	0.187016
C63	C	0.957878	-0.522001	-0.305881
C64	C	1.457878	-0.022001	0.194119
C65	C	0.954886	-0.600235	-0.302867
C66	C	1.454886	-0.100235	0.197133
C67	C	0.996743	-0.636924	-0.344777
C68	C	1.496743	-0.136924	0.155223
C69	C	0.993929	-0.710433	-0.341946
C70	C	1.493929	-0.210433	0.158054
C71	C	0.949261	-0.747253	-0.297202
C72	C	1.449261	-0.247253	0.202798
C73	C	0.907399	-0.710559	-0.255291
C74	C	1.407399	-0.210559	0.244709
C75	C	0.910210	-0.637051	-0.258125
C76	C	1.410210	-0.137051	0.241875
C77	C	0.936211	-0.967105	-0.284083
C78	C	1.436211	-0.467105	0.215917
C79	C	0.933405	-1.040618	-0.281250
C80	C	1.433405	-0.540618	0.218750
C81	C	1.019935	-1.040487	-0.367907
C82	C	1.519935	-0.540487	0.132093
C83	C	1.022745	-0.966978	-0.370734
C84	C	1.522745	-0.466978	0.129266
C85	C	0.980880	-0.930290	-0.328826
C86	C	1.480880	-0.430290	0.171174
N87	N	0.946385	-0.822391	-0.294307
N88	N	1.446385	-0.322391	0.205693
N89	N	0.983753	-0.855154	-0.331725
N90	N	1.483753	-0.355154	0.168275
C91	C	1.141558	-0.339151	-0.312994
C92	C	1.641558	0.160849	0.187006
C93	C	1.216789	-0.339160	-0.313001
C94	C	1.716789	0.160840	0.186999
C95	C	0.965056	-0.339084	-0.489522
C96	C	1.465056	0.160916	0.010478
C97	C	0.965073	-0.339065	-0.564755
C98	C	1.465073	0.160935	-0.064755
C99	C	0.972201	-0.155540	-0.320117
C100	C	1.472201	0.344460	0.179883
C101	C	0.975262	-0.077306	-0.323160
C102	C	1.475262	0.422694	0.176840
C103	C	1.010126	-0.294050	-0.601855
C104	C	1.510126	0.205950	-0.101855
C105	C	1.010133	-0.294030	-0.672544
C106	C	1.510133	0.205970	-0.172544
C107	C	0.965091	-0.339028	-0.706132
C108	C	1.465091	0.160972	-0.206132
C109	C	0.920033	-0.384045	-0.669027
C110	C	1.420033	0.115955	-0.169027
C111	C	0.920022	-0.384061	-0.598339
C112	C	1.420022	0.115939	-0.098339
C113	C	0.920074	-0.383979	-0.954103
C114	C	1.420074	0.116021	-0.454103
C115	C	0.920089	-0.383961	-1.024796
C116	C	1.420089	0.116039	-0.524796
C117	C	1.010185	-0.293948	-1.028308
C118	C	1.510185	0.206052	-0.528308
C119	C	1.010174	-0.293964	-0.957620
C120	C	1.510174	0.206036	-0.457620
C121	C	0.965114	-0.338978	-0.920522
C122	C	1.465114	0.161022	-0.420522
C123	C	0.965105	-0.338998	-0.843872
C124	C	1.465105	0.161002	-0.343872
C125	C	0.965102	-0.339011	-0.782780
C126	C	1.465102	0.160989	-0.282780
C127	C	0.965017	-0.339121	-0.137122
C128	C	1.465017	0.160879	0.362878
C129	C	0.965139	-0.338942	-0.061897
C130	C	1.465139	0.161058	0.438103
H131	H	0.704156	-0.420670	-0.231135
H132	H	1.204156	0.079330	0.268865
H133	H	0.226559	-0.257606	-0.394832
H134	H	0.726559	0.242394	0.105168
H135	H	0.575910	-0.420677	-0.231146
H136	H	1.075910	0.079323	0.268854
H137	H	0.883407	-0.420605	-1.052141
H138	H	1.383407	0.079395	-0.552141
O139	O	0.876272	-0.427761	-0.918174
O140	O	1.376272	0.072239	-0.418174
C141	C	0.836506	-0.467455	-0.962981
C142	C	1.336506	0.032545	-0.462981
H143	H	0.864151	-0.469899	-1.013272
H144	H	1.364151	0.030101	-0.513272
H145	H	0.827091	-0.522911	-0.940394
H146	H	1.327091	-0.022911	-0.440394
H147	H	0.786121	-0.441655	-0.971507
H148	H	1.286121	0.058345	-0.471507
H149	H	0.902125	-0.937239	-0.249958
H150	H	1.402125	-0.437239	0.250042
H151	H	0.348385	-0.420708	-0.231157
H152	H	0.848385	0.079292	0.268843
O153	O	0.214417	-0.427806	-0.224019
O154	O	0.714417	0.072194	0.275981
C155	C	0.259207	-0.467489	-0.184212
C156	C	0.759207	0.032511	0.315788
H157	H	0.310717	-0.438652	-0.183026
H158	H	0.810717	0.061348	0.316974
H159	H	0.238468	-0.474921	-0.130586
H160	H	0.738468	0.025079	0.369414
H161	H	0.264653	-0.520982	-0.206832
H162	H	0.764653	-0.020982	0.293168
O163	O	1.040151	-0.601270	-0.388303
O164	O	1.540151	-0.101270	0.111697
C165	C	1.076501	-0.649419	-0.424676
C166	C	1.576501	-0.149419	0.075324
H167	H	1.046771	-0.701840	-0.424969
H168	H	1.546771	-0.201840	0.075031
H169	H	1.084499	-0.628144	-0.478832
H170	H	1.584499	-0.128144	0.021168
H171	H	1.127625	-0.657208	-0.399639
H172	H	1.627625	-0.157208	0.100361
O173	O	1.066044	-0.931140	-0.414239
O174	O	1.566044	-0.431140	0.085761
C175	C	1.029109	-0.888639	-0.459572
C176	C	1.529109	-0.388639	0.040428
H177	H	0.978249	-0.877681	-0.436077
H178	H	1.478249	-0.377681	0.063923
H179	H	1.058654	-0.836921	-0.470664
H180	H	1.558654	-0.336921	0.029336
H181	H	1.020559	-0.916946	-0.508632
H182	H	1.520559	-0.416946	-0.008632
O183	O	0.577020	-0.250435	-0.401801
O184	O	1.077020	0.249565	0.098199
C185	C	0.537875	-0.204933	-0.365112
C186	C	1.037875	0.295067	0.134888
H187	H	0.559330	-0.200502	-0.311982
H188	H	1.059330	0.299498	0.188018
H189	H	0.539187	-0.150802	-0.391786
H190	H	1.039187	0.349198	0.108214
H191	H	0.483455	-0.226699	-0.361902
H192	H	0.983455	0.273301	0.138098
H193	H	0.871026	-0.740543	-0.218862
H194	H	1.371026	-0.240543	0.281138
H195	H	1.054018	-1.070366	-0.402027
H196	H	1.554018	-0.570366	0.097973
O197	O	1.034622	-0.746155	-0.382554
O198	O	1.534622	-0.246155	0.117446
C199	C	1.076739	-0.788649	-0.342410
C200	C	1.576739	-0.288649	0.157590
H201	H	1.052468	-0.799707	-0.290671
H202	H	1.552468	-0.299707	0.209329
H203	H	1.083817	-0.840319	-0.367991
H204	H	1.583817	-0.340319	0.132009
H205	H	1.127989	-0.760286	-0.336108
H206	H	1.627989	-0.260286	0.163892
O207	O	0.869523	-0.601518	-0.217347
O208	O	1.369523	-0.101518	0.282653
C209	C	0.829481	-0.649776	-0.177260
C210	C	1.329481	-0.149776	0.322740
H211	H	0.855205	-0.702152	-0.172917
H212	H	1.355205	-0.202152	0.327083
H213	H	0.823097	-0.628573	-0.124744
H214	H	1.323097	-0.128573	0.375256
H215	H	0.777763	-0.657626	-0.201702
H216	H	1.277763	-0.157626	0.298298
O217	O	1.053894	-0.250308	-0.924887
O218	O	1.553894	0.249692	-0.424887
C219	C	1.044207	-0.259958	-0.854541
C220	C	1.544207	0.240042	-0.354541
H221	H	1.019927	-0.314282	-0.842767
H222	H	1.519927	0.185718	-0.342767
H223	H	1.095084	-0.255177	-0.827864
H224	H	1.595084	0.244823	-0.327864
H225	H	1.009778	-0.218217	-0.836109
H226	H	1.509778	0.281783	-0.336109
O227	O	0.889949	-1.076276	-0.237769
O228	O	1.389949	-0.576276	0.262231
C229	C	0.853611	-1.028133	-0.201376
C230	C	1.353611	-0.528133	0.298624
H231	H	0.853253	-0.975719	-0.231117
H232	H	1.353253	-0.475719	0.268883
H233	H	0.799474	-1.049427	-0.193292
H234	H	1.299474	-0.549427	0.306708
H235	H	0.878721	-1.020326	-0.150291
H236	H	1.378721	-0.520326	0.349709
O237	O	0.360717	-0.250494	-0.401814
O238	O	0.860717	0.249506	0.098186
C239	C	0.403349	-0.204966	-0.365111
C240	C	0.903349	0.295034	0.134889
H241	H	0.412953	-0.229721	-0.312816
H242	H	0.912953	0.270279	0.187184
H243	H	0.453434	-0.195566	-0.393054
H244	H	0.953434	0.304434	0.106946
H245	H	0.378134	-0.152798	-0.359783
H246	H	0.878134	0.347202	0.140217
H247	H	0.883329	-0.420709	-0.568133
H248	H	1.383329	0.079291	-0.068133
H249	H	1.046807	-0.257409	-0.574513
H250	H	1.546807	0.242591	-0.074513
H251	H	1.046822	-0.257376	-0.702748
H252	H	1.546822	0.242624	-0.202748
O253	O	1.053923	-0.250116	-1.064276
O254	O	1.553923	0.249884	-0.564276
C255	C	1.041865	-0.179967	-1.049738
C256	C	1.541865	0.320033	-0.549738
H257	H	1.015894	-0.178519	-0.998467
H258	H	1.515894	0.321481	-0.498467
H259	H	1.091949	-0.148414	-1.048553
H260	H	1.591949	0.351586	-0.548553
H261	H	1.008002	-0.156241	-1.090438
H262	H	1.508002	0.343759	-0.590438
H263	H	0.710565	-0.257557	-0.394802
H264	H	1.210565	0.242443	0.105198
H265	H	0.883356	-0.420680	-0.696380
H266	H	1.383356	0.079320	-0.196380
