data_functionalizedCrystal
_audit_creation_method	'MofGen! by Chris Wilmer'
_symmetry_space_group_name_H-M	'P1'
_symmetry_Int_Tables_number	1
_symmetry_cell_setting	triclinic
loop_
_symmetry_equiv_pos_as_xyz
  x,y,z
_cell_length_a	14.044191
_cell_length_b	19.188928
_cell_length_c	13.101039
_cell_angle_alpha	86.656500
_cell_angle_beta	86.337551
_cell_angle_gamma	91.832205
loop_
_atom_site_label
_atom_site_type_symbol
_atom_site_fract_x
_atom_site_fract_y
_atom_site_fract_z
O1	O	1.262237	-0.164779	-0.085196
O2	O	1.762237	0.335221	0.414804
O3	O	0.986293	-0.158701	-0.085208
O4	O	1.486293	0.341299	0.414792
O5	O	1.132228	-0.060600	-0.085176
O6	O	1.632228	0.439400	0.414824
O7	O	1.116302	-0.262881	-0.085228
O8	O	1.616302	0.237119	0.414772
O9	O	1.121757	-0.067651	0.085252
O10	O	1.621757	0.432349	0.585252
O11	O	0.975822	-0.165753	0.085220
O12	O	1.475822	0.334247	0.585220
O13	O	1.251766	-0.171831	0.085232
O14	O	1.751766	0.328169	0.585232
Zn15	Zn	1.112132	-0.169911	0.112285
Zn16	Zn	1.612132	0.330089	0.612285
Zn17	Zn	1.125927	-0.160621	-0.112261
Zn18	Zn	1.625927	0.339379	0.387739
O19	O	1.105831	-0.269932	0.085199
O20	O	1.605831	0.230068	0.585199
C21	C	0.945754	-0.159568	0.000005
C22	C	1.445754	0.340432	0.500005
C23	C	0.840562	-0.151637	0.000002
C24	C	1.340562	0.348363	0.500002
C25	C	0.590102	-0.193385	0.000001
C26	C	1.090102	0.306615	0.500001
C27	C	0.647964	-0.137150	0.000014
C28	C	1.147964	0.362850	0.500014
C29	C	0.755135	-0.145212	0.000007
C30	C	1.255135	0.354788	0.500007
C31	C	0.482920	-0.185323	0.000008
C32	C	0.982920	0.314677	0.500008
C33	C	1.126477	-0.038081	0.000043
C34	C	1.626477	0.461919	0.500043
C35	C	1.124928	0.039523	0.000056
C36	C	1.624928	0.539523	0.500056
C37	C	1.210558	0.078919	0.000067
C38	C	1.710558	0.578919	0.500067
C39	C	1.209105	0.151837	0.000055
C40	C	1.709105	0.651837	0.500055
C41	C	1.122016	0.185355	0.000052
C42	C	1.622016	0.685355	0.500052
C43	C	1.036376	0.145950	0.000035
C44	C	1.536376	0.645950	0.500035
C45	C	1.037832	0.073034	0.000037
C46	C	1.537832	0.573034	0.500037
N47	N	1.051885	0.295257	0.058055
N48	N	1.551885	0.795257	0.558055
N49	N	1.050507	0.364525	0.058056
N50	N	1.550507	0.864525	0.558056
C51	C	1.117624	0.405048	0.000044
C52	C	1.617624	0.905048	0.500044
N53	N	1.186185	0.373687	-0.057955
N54	N	1.686185	0.873687	0.442045
N55	N	1.187565	0.304413	-0.057951
N56	N	1.687565	0.804413	0.442049
C57	C	1.120428	0.264421	0.000049
C58	C	1.620428	0.764421	0.500049
C59	C	1.201685	0.523511	0.000040
C60	C	1.701685	1.023511	0.500040
C61	C	1.200229	0.596430	0.000022
C62	C	1.700229	1.096430	0.500022
C63	C	1.027496	0.590542	0.000013
C64	C	1.527496	1.090542	0.500013
C65	C	1.028955	0.517624	0.000021
C66	C	1.528955	1.017624	0.500021
C67	C	1.116052	0.484113	0.000040
C68	C	1.616052	0.984113	0.500040
C69	C	1.292305	-0.170964	0.000017
C70	C	1.792305	0.329036	0.500017
C71	C	1.397498	-0.178894	0.000013
C72	C	1.897498	0.321106	0.500013
N73	N	1.102724	-0.176252	0.265531
N74	N	1.602724	0.323748	0.765531
C75	C	1.111585	0.707549	-0.000006
C76	C	1.611585	1.207549	0.499994
C77	C	1.113139	0.629944	0.000017
C78	C	1.613139	1.129944	0.500017
N79	N	1.135343	-0.154275	-0.265507
N80	N	1.635343	0.345725	0.234493
C81	C	1.089923	-0.184885	0.474571
C82	C	1.589923	0.315115	0.974571
C83	C	1.148140	-0.145644	0.525460
C84	C	1.648140	0.354356	1.025460
C85	C	1.141018	-0.150448	0.641776
C86	C	1.641018	0.349552	1.141776
C87	C	1.097044	-0.180082	0.358244
C88	C	1.597044	0.319918	0.858244
H89	H	0.617017	-0.082947	-0.000044
H90	H	1.117017	0.417053	0.499956
H91	H	0.959226	0.485547	0.000018
H92	H	1.459226	0.985547	0.500018
Br93	Br	0.921611	0.019564	0.000020
Br94	Br	1.421611	0.519564	0.500020
Br95	Br	0.641686	-0.283717	-0.000033
Br96	Br	1.141686	0.216283	0.499967
Br97	Br	1.328762	0.033443	0.000064
Br98	Br	1.828762	0.533443	0.500064
H99	H	1.278838	0.183920	0.000060
H100	H	1.778838	0.683920	0.500060
H101	H	1.034738	-0.222085	0.518356
H102	H	1.534738	0.277915	1.018356
H103	H	0.956587	0.617832	0.000005
H104	H	1.456587	1.117832	0.500005
H105	H	0.965467	0.173246	0.000031
H106	H	1.465467	0.673246	0.500031
H107	H	1.269962	0.628506	0.000025
H108	H	1.769962	1.128506	0.500025
Br109	Br	1.319884	0.478026	0.000076
Br110	Br	1.819884	0.978026	0.500076
Br111	Br	1.240527	-0.083957	0.452480
Br112	Br	1.740527	0.416043	0.952480
