data_functionalizedCrystal
_audit_creation_method	'MofGen! by Chris Wilmer'
_symmetry_space_group_name_H-M	'P1'
_symmetry_Int_Tables_number	1
_symmetry_cell_setting	triclinic
loop_
_symmetry_equiv_pos_as_xyz
  x,y,z
_cell_length_a	14.044220
_cell_length_b	14.853567
_cell_length_c	13.330367
_cell_angle_alpha	89.995418
_cell_angle_beta	90.003147
_cell_angle_gamma	91.588096
loop_
_atom_site_label
_atom_site_type_symbol
_atom_site_fract_x
_atom_site_fract_y
_atom_site_fract_z
O1	O	-0.123767	1.206175	-0.083352
O2	O	-0.138510	0.944883	-0.083369
O3	O	0.006851	1.071607	-0.083356
O4	O	-0.269128	1.079451	-0.083364
O5	O	0.006854	1.071587	0.083491
O6	O	-0.138507	0.944863	0.083478
O7	O	-0.123764	1.206154	0.083495
Cu8	Cu	-0.131135	1.075507	0.098721
Cu9	Cu	-0.131139	1.075531	-0.098595
O10	O	-0.269125	1.079431	0.083483
C11	C	-0.137841	0.911231	0.000053
C12	C	-0.135839	0.810989	0.000046
C13	C	-0.041029	0.390944	0.000072
C14	C	-0.213721	0.383345	0.000065
C15	C	-0.215604	0.477528	0.000062
C16	C	-0.130197	0.528423	0.000062
C17	C	-0.042908	0.485135	0.000065
C18	C	-0.302891	0.520822	0.000049
C19	C	-0.304777	0.615011	0.000044
C20	C	-0.219369	0.665908	0.000051
C21	C	-0.132077	0.622615	0.000056
C22	C	-0.046670	0.673510	0.000056
C23	C	0.040623	0.630218	0.000067
C24	C	0.042499	0.536032	0.000072
C25	C	-0.221246	0.760094	0.000046
C26	C	-0.048550	0.767702	0.000050
C27	C	-0.304446	1.082874	0.000058
C28	C	-0.409685	1.093116	0.000055
C29	C	-0.602371	1.111840	0.000061
C30	C	-0.659909	1.039201	0.000057
C31	C	-0.767126	1.049620	0.000060
C32	C	-0.495144	1.101423	0.000058
C33	C	0.042172	1.068163	0.000066
C34	C	0.147411	1.057921	0.000063
C35	C	-0.124433	1.239806	0.000072
C36	C	-0.126435	1.340048	0.000072
N37	N	-0.131132	1.075496	0.237503
N38	N	-0.131135	1.075548	-0.237376
C39	C	-0.195480	1.019413	0.710120
C40	C	-0.066791	1.131672	0.710099
C41	C	-0.066788	1.131662	0.605081
C42	C	-0.131133	1.075527	0.552577
C43	C	-0.195481	1.019403	0.605092
C44	C	-0.002448	1.187792	0.552558
C45	C	-0.002443	1.187785	0.447534
C46	C	-0.066784	1.131644	0.395028
C47	C	-0.131134	1.075517	0.447549
C48	C	-0.195479	1.019382	0.395046
C49	C	-0.259825	0.963249	0.447565
C50	C	-0.259822	0.963262	0.552587
C51	C	-0.066787	1.131631	0.290007
C52	C	-0.195480	1.019372	0.290018
H53	H	0.110161	0.671670	0.000061
C54	C	-0.317253	0.807715	0.000030
H55	H	-0.306142	0.871099	0.000022
H56	H	-0.352429	0.790715	0.058208
H57	H	-0.352416	0.790721	-0.058166
C58	C	-0.644594	1.206417	0.000080
H59	H	-0.594396	1.250626	0.000079
H60	H	-0.682712	1.213473	0.058267
H61	H	-0.682721	1.213501	-0.058107
C62	C	-0.400793	0.662624	0.000045
H63	H	-0.451388	0.618822	0.000054
H64	H	-0.405124	0.699215	-0.058135
H65	H	-0.405110	0.699200	0.058239
H66	H	-0.247874	0.973656	0.247275
C67	C	-0.330567	0.901493	0.610354
H68	H	-0.368874	0.868042	0.564046
H69	H	-0.370105	0.937073	0.651332
H70	H	-0.296352	0.861233	0.651315
C71	C	-0.307660	0.327363	0.000067
H72	H	-0.294039	0.265069	0.000077
H73	H	-0.343454	0.341238	-0.058114
H74	H	-0.343440	0.341234	0.058260
H75	H	-0.628645	0.969189	0.000053
C76	C	0.003982	1.193416	0.767850
H77	H	-0.005230	1.185380	0.837919
H78	H	-0.006425	1.254416	0.750624
H79	H	0.067273	1.178528	0.750649
H80	H	-0.312219	0.917548	0.404804
H81	H	0.113569	0.500776	0.000106
C82	C	-0.266258	0.957674	0.767885
H83	H	-0.257048	0.965720	0.837952
H84	H	-0.255849	0.896672	0.750682
H85	H	-0.329548	0.972558	0.750667
H86	H	0.049936	1.233500	0.595310
H87	H	0.030044	0.355691	0.000085
H88	H	0.049952	1.233490	0.404779
C89	C	0.003981	1.193368	0.232235
H90	H	-0.005237	1.185326	0.162168
H91	H	0.067270	1.178501	0.249455
H92	H	-0.006444	1.254375	0.249431
C93	C	0.045399	0.823679	0.000044
H94	H	0.097652	0.784405	0.000044
H95	H	0.048259	0.860585	0.058220
H96	H	0.048253	0.860574	-0.058153
H97	H	-0.372424	0.479377	0.000038
