data_functionalizedCrystal
_audit_creation_method	'MofGen! by Chris Wilmer'
_symmetry_space_group_name_H-M	'P1'
_symmetry_Int_Tables_number	1
_symmetry_cell_setting	triclinic
loop_
_symmetry_equiv_pos_as_xyz
  x,y,z
_cell_length_a	14.519709
_cell_length_b	13.339070
_cell_length_c	11.804365
_cell_angle_alpha	105.124870
_cell_angle_beta	101.851959
_cell_angle_gamma	80.345281
loop_
_atom_site_label
_atom_site_type_symbol
_atom_site_fract_x
_atom_site_fract_y
_atom_site_fract_z
O1	O	0.449147	-1.363544	-0.099080
O2	O	0.388436	-1.068905	-0.099072
O3	O	0.286542	-1.224034	-0.099066
O4	O	0.551041	-1.208414	-0.099087
O5	O	0.313329	-1.183194	0.098989
O6	O	0.415223	-1.028065	0.098982
O7	O	0.475934	-1.322704	0.098974
Cu8	Cu	0.448024	-1.171656	0.117062
Cu9	Cu	0.416345	-1.219953	-0.117160
O10	O	0.577828	-1.167575	0.098968
C11	C	0.265390	-1.202886	-0.000038
C12	C	0.162454	-1.200704	-0.000038
C13	C	0.391574	-1.010777	-0.000044
C14	C	0.361005	-0.898419	-0.000040
N15	N	0.470307	-1.137693	0.281801
C16	C	-0.214489	-1.192677	-0.000068
C17	C	-0.109613	-1.194906	-0.000059
C18	C	-0.026021	-1.196690	-0.000052
C19	C	0.078862	-1.198920	-0.000045
C20	C	0.598979	-1.188723	-0.000062
C21	C	0.701915	-1.190907	-0.000071
C22	C	0.472796	-1.380832	-0.000057
C23	C	0.503364	-1.493192	-0.000068
C24	C	0.598691	-0.534064	-0.000078
C25	C	0.627415	-0.639630	-0.000085
C26	C	0.560815	-0.704332	-0.000073
C27	C	0.465486	-0.663459	-0.000055
C28	C	0.436759	-0.557884	-0.000058
C29	C	0.398882	-0.728152	-0.000053
C30	C	0.303554	-0.687279	-0.000035
C31	C	0.274831	-0.581714	-0.000037
C32	C	0.341431	-0.517012	-0.000048
C33	C	0.427610	-0.833727	-0.000051
C34	C	0.265677	-0.857547	-0.000031
C35	C	0.236954	-0.751981	-0.000024
N36	N	0.394058	-1.253924	-0.281899
C37	C	0.340531	-1.335480	0.655758
C38	C	0.323670	-1.361172	0.531097
C39	C	0.360328	-1.305304	0.468767
C40	C	0.413850	-1.223741	0.531110
C41	C	0.430719	-1.198052	0.655783
C42	C	0.450515	-1.167876	0.468792
C43	C	0.504037	-1.086313	0.531135
C44	C	0.520903	-1.060628	0.655795
C45	C	0.484245	-1.116496	0.718126
C46	C	0.433646	-1.193565	0.344119
C47	C	0.523834	-1.056137	0.344144
C48	C	0.540695	-1.030445	0.468805
H49	H	0.505227	-0.866995	-0.000061
H50	H	0.318049	-0.431050	-0.000042
H51	H	0.584274	-0.964035	0.519580
N52	N	0.670510	-0.464279	-0.000100
H53	H	0.720842	-0.462294	0.073311
H54	H	0.700898	-0.492632	-0.073575
H55	H	0.564492	-0.994223	0.706555
N56	N	0.563381	-0.995875	0.276933
H57	H	0.544572	-1.024522	0.188499
H58	H	0.537265	-0.919568	0.298743
H59	H	0.197207	-0.548441	-0.000035
N60	N	0.502432	-1.088791	0.852585
H61	H	0.572956	-1.097437	0.882607
H62	H	0.475388	-1.013823	0.882535
N63	N	0.591791	-0.818192	-0.000073
H64	H	0.662286	-0.834267	-0.000082
H65	H	0.576793	-0.833072	0.073359
H66	H	0.705029	-0.672904	-0.000109
N67	N	0.134139	-0.707889	0.000004
H68	H	0.126053	-0.631195	0.000005
H69	H	0.093865	-0.746680	-0.073410
H70	H	0.211445	-0.910229	-0.000026
H71	H	0.390069	-1.259973	0.293371
H72	H	0.310695	-1.380966	0.706515
N73	N	0.342143	-1.333009	0.334312
H74	H	0.302674	-1.393153	0.304276
H75	H	0.307057	-1.270353	0.304400
N76	N	0.265949	-1.449137	0.463858
H77	H	0.245284	-1.480630	0.522257
H78	H	0.208228	-1.420979	0.412146
