data_functionalizedCrystal
_audit_creation_method	'MofGen! by Chris Wilmer'
_symmetry_space_group_name_H-M	'P1'
_symmetry_Int_Tables_number	1
_symmetry_cell_setting	triclinic
loop_
_symmetry_equiv_pos_as_xyz
  x,y,z
_cell_length_a	16.109301
_cell_length_b	13.339070
_cell_length_c	14.586319
_cell_angle_alpha	89.998714
_cell_angle_beta	89.999213
_cell_angle_gamma	99.545388
loop_
_atom_site_label
_atom_site_type_symbol
_atom_site_fract_x
_atom_site_fract_y
_atom_site_fract_z
O1	O	1.133153	0.130021	-0.076178
O2	O	0.894827	0.146201	-0.076192
O3	O	0.986638	-0.009144	-0.076184
O4	O	1.041342	0.285365	-0.076186
O5	O	0.986629	-0.009146	0.076297
O6	O	0.894818	0.146199	0.076289
O7	O	1.133144	0.130018	0.076303
Cu8	Cu	1.013980	0.138108	0.090219
Cu9	Cu	1.013991	0.138111	-0.090107
O10	O	1.041333	0.285363	0.076295
C11	C	0.863697	0.145545	0.000047
C12	C	0.770947	0.143580	0.000041
C13	C	0.568905	0.231189	0.000051
C14	C	0.481756	0.229335	0.000057
C15	C	0.459072	0.045023	0.000055
C16	C	0.546219	0.046879	0.000055
C17	C	0.601133	0.139965	0.000049
C18	C	0.426838	0.136255	0.000054
C19	C	0.332347	0.134244	0.000061
C20	C	0.695630	0.141976	0.000044
C21	C	0.977393	-0.046831	0.000055
C22	C	0.949849	-0.159124	0.000050
C23	C	1.164017	-0.523987	0.000063
C24	C	1.189898	-0.418483	0.000073
C25	C	1.129888	-0.353638	0.000067
C26	C	1.043992	-0.394307	0.000051
C27	C	1.018108	-0.499822	0.000048
C28	C	0.983979	-0.329473	0.000052
C29	C	0.898083	-0.370142	0.000037
C30	C	0.872203	-0.475647	0.000033
C31	C	0.932213	-0.540492	0.000039
C32	C	1.009863	-0.223958	0.000055
C33	C	0.863954	-0.199793	0.000041
C34	C	0.838073	-0.305297	0.000030
C35	C	1.164275	0.130675	0.000063
C36	C	1.257024	0.132640	0.000062
C37	C	1.050578	0.323050	0.000054
C38	C	1.078122	0.435343	0.000054
N39	N	1.013978	0.138106	0.217051
N40	N	1.013998	0.138106	-0.216939
C41	C	1.054656	0.069342	0.452061
C42	C	1.054658	0.069340	0.548042
C43	C	0.973315	0.206873	0.548044
C44	C	0.973308	0.206870	0.452065
C45	C	1.013984	0.138105	0.404075
C46	C	1.013992	0.138106	0.596036
C47	C	1.013994	0.138104	0.700103
C48	C	1.013981	0.138106	0.300002
H49	H	1.150966	-0.267732	0.000075
H50	H	0.613614	0.306986	0.000053
H51	H	0.414350	-0.030764	0.000066
H52	H	0.572459	-0.027412	0.000056
O53	O	0.788789	-0.515272	-0.000100
C54	C	0.769457	-0.575554	-0.079086
H55	H	0.828922	-0.601852	-0.105406
H56	H	0.720377	-0.644633	-0.061332
H57	H	0.743439	-0.528924	-0.134388
O58	O	0.754660	-0.344930	-0.000101
C59	C	0.735332	-0.405212	-0.079087
H60	H	0.794800	-0.431501	-0.105410
H61	H	0.686258	-0.474298	-0.061333
H62	H	0.709307	-0.358586	-0.134387
O63	O	0.907176	-0.642999	-0.000092
C64	C	0.938537	-0.684861	-0.079076
H65	H	0.996049	-0.631107	-0.105398
H66	H	0.957090	-0.761388	-0.061319
H67	H	0.887833	-0.695940	-0.134378
O68	O	0.933810	0.273577	0.405304
C69	C	0.942545	0.258843	0.310300
H70	H	0.955065	0.178428	0.297197
H71	H	0.882177	0.270077	0.273823
H72	H	0.997454	0.316108	0.283057
O73	O	1.273307	-0.378863	-0.000040
C74	C	1.292658	-0.318571	-0.079019
H75	H	1.233199	-0.292267	-0.105352
H76	H	1.341736	-0.249496	-0.061253
H77	H	1.318687	-0.365196	-0.134317
H78	H	0.815089	-0.146996	0.000040
H79	H	1.087775	0.013349	0.412990
H80	H	1.087775	0.013345	0.587109
O81	O	0.933745	0.273533	0.594766
C82	C	0.869947	0.219343	0.650278
H83	H	0.884804	0.140200	0.664656
H84	H	0.866541	0.261562	0.717770
H85	H	0.806909	0.212450	0.613297
O86	O	0.450491	0.317978	-0.000107
C87	C	0.478703	0.374504	-0.079069
H88	H	0.496021	0.321093	-0.134265
H89	H	0.426538	0.415089	-0.105575
H90	H	0.536363	0.433039	-0.061217
O91	O	1.093272	-0.184338	-0.000059
C92	C	1.112622	-0.124050	-0.079040
H93	H	1.053163	-0.097746	-0.105373
H94	H	1.161700	-0.054973	-0.061276
H95	H	1.138650	-0.170676	-0.134337
H96	H	1.212868	-0.576792	0.000075
