data_functionalizedCrystal
_audit_creation_method	'MofGen! by Chris Wilmer'
_symmetry_space_group_name_H-M	'P1'
_symmetry_Int_Tables_number	1
_symmetry_cell_setting	triclinic
loop_
_symmetry_equiv_pos_as_xyz
  x,y,z
_cell_length_a	15.995350
_cell_length_b	15.995350
_cell_length_c	15.072220
_cell_angle_alpha	90.001101
_cell_angle_beta	89.991149
_cell_angle_gamma	83.492375
loop_
_atom_site_label
_atom_site_type_symbol
_atom_site_fract_x
_atom_site_fract_y
_atom_site_fract_z
O1	O	1.110996	0.107921	-0.073703
O2	O	0.867221	0.121249	-0.073721
O3	O	0.995772	-0.007303	-0.073710
O4	O	0.982444	0.236472	-0.073713
O5	O	0.995740	-0.007296	0.073855
O6	O	0.867189	0.121256	0.073844
O7	O	1.110964	0.107928	0.073862
Zn8	Zn	0.989071	0.114593	0.097283
Zn9	Zn	0.989113	0.114584	-0.097141
O10	O	0.982413	0.236480	0.073852
C11	C	0.836010	0.120701	0.000060
C12	C	0.743060	0.119049	0.000053
C13	C	0.405312	0.113117	0.000071
C14	C	0.452746	0.021565	0.000401
C15	C	0.549436	0.023217	0.000063
C16	C	0.572873	0.116060	0.000063
C17	C	0.531804	0.161212	-0.084201
C18	C	0.435168	0.158912	-0.084266
C19	C	0.434793	0.160812	0.083543
C20	C	0.531738	0.160790	0.084651
C21	C	0.667570	0.117727	0.000055
C22	C	0.310614	0.111452	0.000073
C23	C	0.995205	-0.038494	0.000070
C24	C	0.993553	-0.131444	0.000065
C25	C	0.987621	-0.469192	0.000068
C26	C	0.896069	-0.421758	-0.000270
C27	C	0.897721	-0.325068	0.000063
C28	C	0.990564	-0.301631	0.000066
C29	C	1.035702	-0.342705	0.084335
C30	C	1.033402	-0.439341	0.084405
C31	C	1.035330	-0.439707	-0.083404
C32	C	1.035308	-0.342761	-0.084518
C33	C	0.992231	-0.206934	0.000068
C34	C	0.985956	-0.563890	0.000072
C35	C	1.142175	0.108476	0.000080
C36	C	1.235125	0.110127	0.000081
C37	C	0.982980	0.267671	0.000069
C38	C	0.984631	0.360621	0.000069
N39	N	0.989049	0.114599	0.229971
N40	N	0.989142	0.114571	-0.229830
C41	C	0.989112	0.114580	0.589173
C42	C	0.920095	0.183135	0.551560
C43	C	0.920254	0.183385	0.448735
C44	C	0.989080	0.114590	0.410969
C45	C	1.076445	0.133671	0.448266
C46	C	1.076058	0.134159	0.551124
C47	C	0.971542	0.026741	0.551272
C48	C	0.969537	0.027327	0.448409
C49	C	0.989067	0.114593	0.310255
C50	C	0.989130	0.114579	0.689886
H51	H	0.433165	-0.014865	-0.059694
H52	H	0.402920	0.226128	-0.088090
H53	H	0.403031	0.228312	0.084113
C54	C	1.096967	0.220701	0.583529
C55	C	1.181399	0.251870	0.558139
C56	C	1.202306	0.338415	0.590538
C57	C	1.138781	0.393791	0.648328
C58	C	1.054343	0.362622	0.673722
C59	C	1.033436	0.276077	0.641322
H60	H	1.228428	0.210877	0.515357
H61	H	1.264812	0.361488	0.571740
H62	H	1.154257	0.457857	0.672312
H63	H	1.007314	0.403615	0.716504
H64	H	0.970930	0.253004	0.660121
H65	H	1.129019	0.086195	0.576003
H66	H	0.909219	0.008392	0.577258
H67	H	0.859626	-0.441349	0.059819
H68	H	0.931473	0.248570	0.424121
H69	H	1.102831	-0.471468	-0.083968
H70	H	0.862238	-0.296649	-0.060344
C71	C	0.552486	0.252257	0.091531
C72	C	0.518333	0.307891	0.169796
C73	C	0.539081	0.399361	0.176669
C74	C	0.593981	0.435198	0.105278
C75	C	0.628137	0.379563	0.027008
C76	C	0.607390	0.288093	0.020135
H77	H	0.477690	0.281363	0.222649
H78	H	0.513796	0.440545	0.234610
H79	H	0.609340	0.502910	0.110366
H80	H	0.668781	0.406091	-0.025845
H81	H	0.632675	0.246909	-0.037806
H82	H	0.560191	0.129845	-0.146912
C83	C	0.407048	0.120382	0.169835
C84	C	0.312921	0.116078	0.188183
C85	C	0.285180	0.075639	0.274469
C86	C	0.351565	0.039504	0.342408
C87	C	0.445698	0.043808	0.324062
C88	C	0.473439	0.084247	0.237775
H89	H	0.263774	0.142827	0.137889
H90	H	0.215496	0.072453	0.288050
H91	H	0.331029	0.009569	0.406283
H92	H	0.494845	0.017058	0.374356
H93	H	0.543123	0.087433	0.224195
C94	C	0.568996	0.116346	0.168751
C95	C	0.615584	0.165607	0.237121
C96	C	0.653034	0.121204	0.321162
C97	C	0.643896	0.027539	0.336832
C98	C	0.597306	-0.021727	0.268460
C99	C	0.559856	0.022676	0.184420
H100	H	0.622351	0.234948	0.225523
H101	H	0.687524	0.157674	0.371775
H102	H	0.671619	-0.005331	0.399044
H103	H	0.590540	-0.091068	0.280059
H104	H	0.525367	-0.013795	0.133806
C105	C	0.846649	-0.446783	-0.081913
C106	C	0.888814	-0.510599	-0.149277
C107	C	0.839396	-0.535623	-0.230929
C108	C	0.747813	-0.496833	-0.245216
C109	C	0.705643	-0.433013	-0.177851
C110	C	0.755061	-0.407989	-0.096199
H111	H	0.956614	-0.539317	-0.138702
H112	H	0.870614	-0.582867	-0.280797
H113	H	0.711230	-0.515358	-0.305659
H114	H	0.637843	-0.404295	-0.188425
H115	H	0.723843	-0.360745	-0.046331
H116	H	0.861974	-0.297200	0.060568
C117	C	0.832067	0.167985	0.584928
C118	C	0.821771	0.093186	0.646746
C119	C	0.733735	0.078008	0.680082
C120	C	0.655995	0.137629	0.651599
C121	C	0.666289	0.212433	0.589777
C122	C	0.754325	0.227611	0.556442
H123	H	0.879321	0.049046	0.667834
H124	H	0.726115	0.022632	0.725846
H125	H	0.590825	0.126393	0.676276
H126	H	0.608738	0.256573	0.568689
H127	H	0.761944	0.282987	0.510677
C128	C	0.988890	-0.464067	0.169492
C129	C	0.955681	-0.395914	0.236903
C130	C	0.911165	-0.420635	0.321990
C131	C	0.899857	-0.513507	0.339665
C132	C	0.933067	-0.581666	0.272252
C133	C	0.977584	-0.556945	0.187165
H134	H	0.964051	-0.327159	0.223820
H135	H	0.886581	-0.370179	0.371893
H136	H	0.866904	-0.531807	0.402652
H137	H	0.924698	-0.650421	0.285335
H138	H	1.002168	-0.607401	0.137262
C139	C	1.097864	0.219229	0.413464
C140	C	1.105564	0.233888	0.312959
C141	C	1.126977	0.319448	0.278159
C142	C	1.140691	0.390348	0.343864
C143	C	1.132991	0.375691	0.444376
C144	C	1.111577	0.290131	0.479176
H145	H	1.095413	0.181401	0.264314
H146	H	1.132677	0.330297	0.203753
H147	H	1.156542	0.453684	0.318103
H148	H	1.143142	0.428177	0.493020
H149	H	1.105877	0.279281	0.553581
C150	C	0.882719	0.007756	0.415480
C151	C	0.829794	0.070689	0.354879
C152	C	0.742975	0.051121	0.321943
C153	C	0.709082	-0.031382	0.349608
C154	C	0.762008	-0.094322	0.410212
C155	C	0.848827	-0.074753	0.443148
H156	H	0.854883	0.131768	0.334397
H157	H	0.703796	0.097713	0.277080
H158	H	0.644814	-0.045868	0.325227
H159	H	0.736920	-0.155400	0.430694
H160	H	0.888006	-0.121345	0.488011
H161	H	1.100617	-0.471588	0.088231
C162	C	1.033032	-0.044826	0.413688
C163	C	1.104058	-0.025685	0.350451
C164	C	1.167561	-0.097836	0.315731
C165	C	1.160038	-0.189129	0.344249
C166	C	1.089010	-0.208274	0.407490
C167	C	1.025507	-0.136122	0.442209
H168	H	1.109630	0.041898	0.329337
H169	H	1.220141	-0.083664	0.268916
H170	H	1.207047	-0.242539	0.318547
H171	H	1.083438	-0.275857	0.428603
H172	H	0.972927	-0.150295	0.489025
H173	H	0.931160	0.247952	0.577399
C174	C	1.127846	-0.323622	0.088583
C175	C	1.163261	-0.270394	0.015406
C176	C	1.255405	-0.251309	0.019652
C177	C	1.312134	-0.285452	0.097075
C178	C	1.276720	-0.338683	0.170257
C179	C	1.184576	-0.357768	0.166011
H180	H	1.121266	-0.245116	-0.041912
H181	H	1.281620	-0.211904	-0.034522
H182	H	1.380344	-0.271324	0.100218
H183	H	1.318715	-0.363960	0.227575
H184	H	1.158361	-0.397173	0.220186
H185	H	1.004325	-0.314320	0.147042
H186	H	1.005411	-0.460250	-0.147274
C187	C	0.990792	-0.305885	-0.168742
C188	C	0.914172	-0.238742	-0.160791
C189	C	0.869655	-0.201858	-0.245013
C190	C	0.901757	-0.232119	-0.337186
C191	C	0.978381	-0.299266	-0.345141
C192	C	1.022898	-0.336149	-0.260919
H193	H	0.890405	-0.216338	-0.092556
H194	H	0.812933	-0.152152	-0.239124
H195	H	0.868803	-0.204816	-0.399533
H196	H	1.002149	-0.321670	-0.413376
H197	H	1.079620	-0.385856	-0.266808
H198	H	1.021872	-0.024275	0.575595
H199	H	0.434211	-0.015027	0.060830
C200	C	0.587828	-0.024739	0.081659
C201	C	0.637383	0.020911	0.150560
C202	C	0.675769	-0.027053	0.232157
C203	C	0.664598	-0.120668	0.244852
C204	C	0.615041	-0.166324	0.175949
C205	C	0.576655	-0.118359	0.094352
H206	H	0.645654	0.090215	0.141164
H207	H	0.712454	0.006744	0.283164
H208	H	0.693013	-0.156174	0.305255
H209	H	0.606770	-0.235628	0.185345
H210	H	0.539970	-0.152157	0.043345
H211	H	0.416873	0.125979	-0.147255
C212	C	0.587096	-0.025051	-0.081686
C213	C	0.529177	-0.065218	-0.146867
C214	C	0.566835	-0.113485	-0.228621
C215	C	0.662412	-0.121585	-0.245196
C216	C	0.720337	-0.081417	-0.180013
C217	C	0.682679	-0.033150	-0.098258
H218	H	0.458419	-0.059223	-0.134599
H219	H	0.523955	-0.143220	-0.276874
H220	H	0.690289	-0.157315	-0.305715
H221	H	0.791095	-0.087412	-0.192281
H222	H	0.725559	-0.003414	-0.050006
H223	H	0.545929	0.229421	-0.087335
C224	C	1.126775	-0.322009	-0.091391
C225	C	1.189952	-0.348974	-0.016839
C226	C	1.281422	-0.328221	-0.023704
C227	C	1.309715	-0.280502	-0.105120
C228	C	1.246537	-0.253535	-0.179678
C229	C	1.155067	-0.274288	-0.172813
H230	H	1.169008	-0.384301	0.043435
H231	H	1.328190	-0.348184	0.031489
H232	H	1.377427	-0.265139	-0.110201
H233	H	1.267481	-0.218208	-0.239952
H234	H	1.108299	-0.254324	-0.228006
H235	H	0.855314	0.172016	0.423519
H236	H	1.129029	0.085068	0.423801
