data_functionalizedCrystal
_audit_creation_method	'MofGen! by Chris Wilmer'
_symmetry_space_group_name_H-M	'P1'
_symmetry_Int_Tables_number	1
_symmetry_cell_setting	triclinic
loop_
_symmetry_equiv_pos_as_xyz
  x,y,z
_cell_length_a	19.077114
_cell_length_b	19.077142
_cell_length_c	19.076919
_cell_angle_alpha	89.925643
_cell_angle_beta	85.527261
_cell_angle_gamma	90.115975
loop_
_atom_site_label
_atom_site_type_symbol
_atom_site_fract_x
_atom_site_fract_y
_atom_site_fract_z
Zn1	Zn	0.340467	-1.044038	-0.453547
Zn2	Zn	0.453617	-1.043948	-0.340392
Zn3	Zn	0.331038	-0.931650	-0.330974
Zn4	Zn	0.453191	-0.921788	-0.453124
O5	O	0.394578	-0.985356	-0.394509
O6	O	0.359601	-1.142185	-0.442655
O7	O	0.433589	-1.033141	-0.240666
O8	O	0.233814	-0.950723	-0.343469
O9	O	0.442732	-1.142119	-0.359520
O10	O	0.240742	-1.033294	-0.433523
O11	O	0.343531	-0.950636	-0.233747
O12	O	0.343118	-0.832182	-0.343059
O13	O	0.442005	-0.933915	-0.551656
O14	O	0.432862	-0.824937	-0.432802
O15	O	0.359188	-1.023731	-0.551967
O16	O	0.552035	-1.023579	-0.359110
O17	O	0.551722	-0.933828	-0.441934
C18	C	0.386921	-0.803108	-0.386863
C19	C	0.383663	-0.725140	-0.383609
C20	C	0.577413	-0.977642	-0.401514
C21	C	0.655635	-0.974405	-0.404537
C22	C	0.428923	-0.684757	-0.428737
C23	C	0.425852	-0.611498	-0.425683
C24	C	0.377525	-0.578624	-0.377497
C25	C	0.332260	-0.619013	-0.332367
C26	C	0.335328	-0.692270	-0.335425
C27	C	0.363329	-0.359930	-0.363351
C28	C	0.360266	-0.286667	-0.360295
C29	C	0.453858	-0.279158	-0.453612
C30	C	0.456924	-0.352417	-0.456663
C31	C	0.411657	-0.392799	-0.411536
N32	N	0.374386	-0.503742	-0.374372
N33	N	0.414792	-0.467680	-0.414664
C34	C	0.692526	-1.019646	-0.362875
C35	C	0.766023	-1.016605	-0.365722
C36	C	0.802628	-0.968320	-0.410230
C37	C	0.765732	-0.923077	-0.451897
C38	C	0.692236	-0.926121	-0.449053
C39	C	1.022422	-0.954203	-0.423360
C40	C	1.095923	-0.951161	-0.426200
C41	C	1.096209	-1.044690	-0.340026
C42	C	1.022712	-1.047728	-0.337182
C43	C	0.985822	-1.002487	-0.378852
N44	N	0.877754	-0.965209	-0.413140
N45	N	0.910698	-1.005602	-0.375945
C46	C	1.211031	-0.993112	-0.387501
C47	C	1.132814	-0.996402	-0.384537
C48	C	0.401601	-0.977733	-0.578059
C49	C	0.404593	-0.974485	-0.656277
C50	C	0.402262	-0.168316	-0.402177
C51	C	0.405526	-0.246284	-0.405423
C52	C	0.362883	-1.019719	-0.693187
C53	C	0.365692	-1.016658	-0.766681
C54	C	0.410215	-0.968366	-0.803263
C55	C	0.451928	-0.923127	-0.766348
C56	C	0.449115	-0.926185	-0.692856
C57	C	0.423248	-0.954203	-1.023045
C58	C	0.426060	-0.951150	-1.096543
C59	C	0.339822	-1.044681	-1.096871
C60	C	0.337016	-1.047737	-1.023377
C61	C	0.378726	-1.002496	-0.986468
N62	N	0.413089	-0.965238	-0.878386
N63	N	0.375848	-1.005621	-0.911346
C64	C	0.387534	-0.992992	-0.211673
C65	C	0.384349	-0.996384	-0.133453
H66	H	0.468278	-0.711517	-0.467973
H67	H	0.462708	-0.578621	-0.462430
O68	O	0.656932	-1.066454	-0.319559
C69	C	0.570722	-1.083353	-0.221772
C70	C	0.610992	-1.030263	-0.270766
H71	H	0.533559	-1.054114	-0.182320
H72	H	0.609682	-1.115157	-0.192431
H73	H	0.539075	-1.120100	-0.254331
H74	H	0.642640	-0.993471	-0.238259
H75	H	0.571996	-0.998509	-0.300110
O76	O	0.497722	-0.239898	-0.497520
C77	C	0.507499	-0.152827	-0.589402
C78	C	0.457745	-0.197259	-0.539722
H79	H	0.475198	-0.118332	-0.623525
H80	H	0.542555	-0.188871	-0.624419
H81	H	0.541586	-0.118348	-0.556999
H82	H	0.423614	-0.231743	-0.572070
H83	H	0.422737	-0.161175	-0.504703
H84	H	0.320904	-0.259904	-0.321060
O85	O	0.986572	-0.910350	-0.463911
C86	C	0.906775	-0.900314	-0.555281
C87	C	0.947350	-0.950062	-0.509414
H88	H	0.875042	-0.932401	-0.592071
H89	H	0.945539	-0.865293	-0.587624
H90	H	0.869666	-0.866412	-0.520063
H91	H	0.984460	-0.984008	-0.544579
H92	H	0.908546	-0.985035	-0.477065
H93	H	0.796057	-1.053445	-0.331795
O94	O	0.801371	-0.876266	-0.495174
C95	C	0.887524	-0.859372	-0.593011
C96	C	0.847225	-0.912463	-0.544041
H97	H	0.924595	-0.888617	-0.632542
H98	H	0.919250	-0.822643	-0.560508
H99	H	0.848515	-0.827546	-0.622268
H100	H	0.886184	-0.944337	-0.514773
H101	H	0.815488	-0.949144	-0.576582
O102	O	0.291465	-0.731577	-0.291559
C103	C	0.281679	-0.818590	-0.199622
C104	C	0.331437	-0.774130	-0.249271
H105	H	0.313976	-0.852995	-0.165409
H106	H	0.247621	-0.853147	-0.231980
H107	H	0.246596	-0.782500	-0.164686
H108	H	0.366564	-0.810167	-0.284217
H109	H	0.365447	-0.739566	-0.216870
O110	O	0.987267	-1.094701	-0.293938
C111	C	0.995309	-1.187129	-0.208745
C112	C	1.035538	-1.133977	-0.257700
H113	H	1.034317	-1.218888	-0.179422
H114	H	0.963653	-1.223910	-0.241262
H115	H	0.958163	-1.157899	-0.169271
H116	H	1.072720	-1.163148	-0.297183
H117	H	1.067148	-1.097198	-0.225137
H118	H	0.326475	-0.392801	-0.326600
H119	H	0.305864	-1.081513	-1.126930
O120	O	0.285373	-0.586969	-0.285583
C121	C	0.239135	-0.477443	-0.239548
C122	C	0.292280	-0.513639	-0.292554
H123	H	0.244690	-0.418150	-0.245176
H124	H	0.249828	-0.493622	-0.183836
H125	H	0.183501	-0.493766	-0.250426
H126	H	0.347933	-0.497334	-0.281740
H127	H	0.281525	-0.497459	-0.348249
H128	H	1.126253	-1.081523	-0.306101
O129	O	0.656505	-0.882105	-0.489550
C130	C	0.663975	-0.789052	-0.575363
C131	C	0.704526	-0.838845	-0.529519
H132	H	0.702783	-0.754074	-0.607701
H133	H	0.626851	-0.755116	-0.540196
H134	H	0.632267	-0.821145	-0.612170
H135	H	0.736274	-0.806808	-0.492706
H136	H	0.741607	-0.872784	-0.564728
H137	H	1.125725	-0.911849	-0.462456
O138	O	0.325070	-1.060574	-0.802447
C139	C	0.207656	-1.098729	-0.821802
C140	C	0.253582	-1.048965	-0.781240
H141	H	0.149848	-1.089350	-0.804682
H142	H	0.221783	-1.155382	-0.810184
H143	H	0.217341	-1.088263	-0.880612
H144	H	0.243922	-1.059367	-0.722419
H145	H	0.239445	-0.992328	-0.792917
H146	H	0.326629	-1.059045	-0.663407
O147	O	0.293702	-1.094667	-0.987949
C148	C	0.208494	-1.187141	-0.996035
C149	C	0.257501	-1.134013	-1.036242
H150	H	0.179224	-1.218977	-1.035063
H151	H	0.168983	-1.157960	-0.958886
H152	H	0.241038	-1.223853	-0.964384
H153	H	0.225015	-1.097288	-1.067933
H154	H	0.297014	-1.163240	-1.073349
O155	O	0.489565	-0.882276	-0.656889
C156	C	0.523480	-0.845562	-0.543524
C157	C	0.477623	-0.895323	-0.584167
H158	H	0.513852	-0.856103	-0.484722
H159	H	0.509294	-0.788910	-0.555072
H160	H	0.581287	-0.854869	-0.560700
H161	H	0.419802	-0.886079	-0.567015
H162	H	0.491868	-0.951958	-0.572617
O163	O	0.469327	-0.904173	-1.131970
C164	C	0.554595	-0.811752	-1.123897
C165	C	0.505615	-0.864903	-1.083687
H166	H	0.583958	-0.779998	-1.084878
H167	H	0.522092	-0.774967	-1.155512
H168	H	0.594033	-0.840983	-1.161079
H169	H	0.466168	-0.835730	-1.046469
H170	H	0.538164	-0.901686	-1.052118
H171	H	0.496279	-0.379178	-0.495899
H172	H	0.457222	-0.917374	-0.993004
H173	H	0.488177	-0.883804	-0.796140
