data_functionalizedCrystal
_audit_creation_method	'MofGen! by Chris Wilmer'
_symmetry_space_group_name_H-M	'P1'
_symmetry_Int_Tables_number	1
_symmetry_cell_setting	triclinic
loop_
_symmetry_equiv_pos_as_xyz
  x,y,z
_cell_length_a	7.190339
_cell_length_b	13.635800
_cell_length_c	7.076105
_cell_angle_alpha	117.701832
_cell_angle_beta	96.843180
_cell_angle_gamma	60.611724
loop_
_atom_site_label
_atom_site_type_symbol
_atom_site_fract_x
_atom_site_fract_y
_atom_site_fract_z
V1	V	0.291769	-2.142715	-0.663521
O2	O	-0.017451	-2.089376	-0.652442
O3	O	0.581828	-2.160516	-0.657491
O4	O	0.285776	-2.155337	-0.953586
O5	O	0.280650	-2.094591	-0.354297
V6	V	0.254960	-2.374315	-0.626717
O7	O	0.372511	-2.295634	-0.744255
O8	O	0.174218	-2.446495	-0.545983
O9	O	-0.035098	-2.244911	-0.632747
O10	O	0.564180	-2.486353	-0.637796
O11	O	0.266079	-2.481138	-0.935941
O12	O	0.260954	-2.250090	-0.336651
V13	V	0.254960	-1.874308	-0.626717
O14	O	0.266079	-1.922433	-0.935941
O15	O	0.260954	-1.861686	-0.336651
O16	O	-0.035098	-1.856507	-0.632747
O17	O	0.564180	-1.927647	-0.637796
V18	V	0.291769	-1.642708	-0.663521
O19	O	0.174218	-1.721389	-0.545983
O20	O	0.372511	-1.570528	-0.744255
O21	O	0.285776	-1.766933	-0.953586
O22	O	0.280650	-1.535885	-0.354297
O23	O	-0.017451	-1.530670	-0.652442
O24	O	0.581828	-1.772112	-0.657491
C25	C	0.652587	-2.092052	-0.646649
C26	C	0.894162	-2.148539	-0.643600
C27	C	0.274928	-2.088911	-0.024334
C28	C	0.271834	-2.151677	-0.265902
C29	C	0.271791	-1.931578	-0.265890
C30	C	0.274821	-1.879373	-0.024312
C31	C	-0.105844	-1.924977	-0.643602
C32	C	-0.347414	-1.868497	-0.646677
