data_functionalizedCrystal
_audit_creation_method	'MofGen! by Chris Wilmer'
_symmetry_space_group_name_H-M	'P1'
_symmetry_Int_Tables_number	1
_symmetry_cell_setting	triclinic
loop_
_symmetry_equiv_pos_as_xyz
  x,y,z
_cell_length_a	14.519709
_cell_length_b	23.532407
_cell_length_c	13.596369
_cell_angle_alpha	89.989360
_cell_angle_beta	90.000291
_cell_angle_gamma	83.264412
loop_
_atom_site_label
_atom_site_type_symbol
_atom_site_fract_x
_atom_site_fract_y
_atom_site_fract_z
O1	O	1.222985	0.074654	-0.081674
O2	O	0.954404	0.083445	-0.081705
O3	O	1.096794	-0.003846	-0.081671
O4	O	1.080596	0.161945	-0.081708
O5	O	1.096780	-0.003850	0.081912
O6	O	0.954390	0.083441	0.081878
O7	O	1.222971	0.074649	0.081909
Zn8	Zn	1.088678	0.079044	0.107866
Zn9	Zn	1.088697	0.079050	-0.107662
O10	O	1.080582	0.161940	0.081874
C11	C	0.920042	0.083033	0.000083
C12	C	0.817676	0.081805	0.000071
C13	C	1.096374	-0.025066	0.000123
C14	C	1.095134	-0.088288	0.000131
C15	C	0.442833	0.077286	0.000117
C16	C	0.547126	0.078541	0.000104
C17	C	0.630251	0.079545	0.000093
C18	C	0.734551	0.080801	0.000082
C19	C	1.171619	-0.487046	0.000086
C20	C	1.170467	-0.546452	0.000078
O21	O	1.241369	-0.582876	0.000050
N22	N	1.085816	-0.569460	0.000069
C23	C	1.002312	-0.533059	0.000057
O24	O	0.930205	-0.558084	0.000048
C25	C	1.003465	-0.473655	0.000058
C26	C	1.088121	-0.450650	0.000077
C27	C	1.256268	-0.464041	0.000104
C28	C	1.257420	-0.404640	0.000113
C29	C	1.173922	-0.368244	0.000105
C30	C	1.089273	-0.391249	0.000087
C31	C	0.919962	-0.437255	0.000039
C32	C	0.921123	-0.377847	0.000039
C33	C	1.005779	-0.354843	0.000058
C34	C	1.006927	-0.295451	0.000087
N35	N	1.091578	-0.272443	0.000097
C36	C	1.175075	-0.308839	0.000105
C37	C	0.999897	-0.657813	0.000055
C38	C	0.998743	-0.717216	0.000061
C39	C	1.166898	-0.730604	0.000080
C40	C	1.168051	-0.671200	0.000080
C41	C	1.084548	-0.634804	0.000064
C42	C	1.177487	-0.184092	0.000126
C43	C	1.178632	-0.124685	0.000139
C44	C	1.010477	-0.111301	0.000115
C45	C	1.009332	-0.170703	0.000107
C46	C	1.092845	-0.207098	0.000109
O47	O	0.936062	-0.258992	0.000111
O48	O	1.247171	-0.283806	0.000102
C49	C	1.257333	0.075061	0.000119
C50	C	1.359700	0.076289	0.000124
C51	C	1.081001	0.183160	0.000078
C52	C	1.082241	0.246383	0.000064
N53	N	1.088673	0.079040	0.254958
N54	N	1.088710	0.079050	-0.254754
C55	C	1.088696	0.079051	0.656248
C56	C	1.088686	0.079050	0.544597
C57	C	1.088685	0.079046	0.455607
C58	C	1.088674	0.079044	0.343948
H59	H	1.245491	-0.213718	0.000124
C60	C	0.917327	-0.195573	0.000038
C61	C	0.844451	-0.150981	0.000011
C62	C	0.759682	-0.173864	-0.000079
H63	H	0.913239	-0.218473	0.057058
H64	H	0.913341	-0.218439	-0.057040
H65	H	0.848435	-0.128124	0.057083
H66	H	0.848509	-0.128078	-0.057004
H67	H	0.755696	-0.196730	-0.057157
H68	H	0.755603	-0.196764	0.056942
H69	H	0.710226	-0.143612	-0.000106
H70	H	0.942496	-0.081657	0.000112
C71	C	0.906897	-0.742266	-0.000103
C72	C	0.901334	-0.775976	-0.084257
C73	C	0.816741	-0.799065	-0.084442
H74	H	0.857259	-0.712136	-0.000158
H75	H	0.902933	-0.765201	0.056908
H76	H	0.905289	-0.753042	-0.141253
H77	H	0.950951	-0.806115	-0.084220
H78	H	0.812777	-0.822001	-0.027430
H79	H	0.767111	-0.768931	-0.084493
H80	H	0.812959	-0.821944	-0.141534
C81	C	1.270644	-0.099820	0.000105
C82	C	1.343517	-0.144413	0.000081
C83	C	1.428288	-0.121532	0.000034
H84	H	1.274720	-0.076941	0.057138
H85	H	1.274644	-0.076933	-0.056959
H86	H	1.339519	-0.167290	0.057140
H87	H	1.339472	-0.167295	-0.056948
H88	H	1.432289	-0.098645	-0.057031
H89	H	1.432355	-0.098654	0.057067
H90	H	1.477743	-0.151785	0.000008
C91	C	1.347003	-0.503483	-0.000035
C92	C	1.398027	-0.493049	-0.084171
C93	C	1.481628	-0.529362	-0.084318
H94	H	1.334342	-0.542180	-0.000086
H95	H	1.381774	-0.496489	0.056988
H96	H	1.363264	-0.500048	-0.141180
H97	H	1.410713	-0.454360	-0.084138
H98	H	1.516399	-0.522367	-0.027295
H99	H	1.468958	-0.568056	-0.084366
H100	H	1.516262	-0.522283	-0.141398
H101	H	0.851027	-0.455975	0.000018
C102	C	0.830359	-0.338428	0.000072
C103	C	0.755983	-0.371295	0.000078
C104	C	0.672360	-0.335003	0.000123
H105	H	0.827187	-0.314955	-0.056956
H106	H	0.827251	-0.314992	0.057142
H107	H	0.759090	-0.394721	-0.056986
H108	H	0.759124	-0.394766	0.057101
H109	H	0.669252	-0.311566	0.057193
H110	H	0.669198	-0.311532	-0.056906
H111	H	0.621886	-0.357297	0.000136
H112	H	1.326355	-0.385915	0.000125
H113	H	1.236985	-0.652474	0.000095
C114	C	1.257528	-0.770154	-0.000126
C115	C	1.261783	-0.804625	-0.084305
C116	C	1.345257	-0.841060	-0.084536
H117	H	1.260660	-0.793670	0.056848
H118	H	1.308140	-0.747968	-0.000174
H119	H	1.211185	-0.826809	-0.084248
H120	H	1.258667	-0.781125	-0.141292
H121	H	1.395868	-0.818874	-0.084583
H122	H	1.348381	-0.864572	-0.027558
H123	H	1.348158	-0.864449	-0.141653
H124	H	0.931894	-0.628182	0.000049
