data_functionalizedCrystal
_audit_creation_method	'MofGen! by Chris Wilmer'
_symmetry_space_group_name_H-M	'P1'
_symmetry_Int_Tables_number	1
_symmetry_cell_setting	triclinic
loop_
_symmetry_equiv_pos_as_xyz
  x,y,z
_cell_length_a	10.654556
_cell_length_b	15.944551
_cell_length_c	9.130313
_cell_angle_alpha	89.994529
_cell_angle_beta	89.998135
_cell_angle_gamma	83.993137
loop_
_atom_site_label
_atom_site_type_symbol
_atom_site_fract_x
_atom_site_fract_y
_atom_site_fract_z
O1	O	1.666308	0.118002	-0.121747
O2	O	1.300685	0.129236	-0.121763
O3	O	1.493481	0.001402	-0.121742
O4	O	1.473512	0.245836	-0.121769
O5	O	1.493468	0.001399	0.121857
O6	O	1.300672	0.129233	0.121836
O7	O	1.666295	0.117998	0.121851
Cu8	Cu	1.483482	0.123615	0.144086
Cu9	Cu	1.483498	0.123620	-0.143998
O10	O	1.473499	0.245832	0.121830
C11	C	1.253891	0.128408	0.000035
C12	C	1.114481	0.125937	0.000029
C13	C	0.917987	0.122460	-0.132745
C14	C	1.048980	0.124777	-0.132754
C15	C	1.048984	0.124772	0.132831
C16	C	0.917995	0.122449	0.132838
C17	C	1.492645	-0.029898	0.000058
C18	C	1.490160	-0.123159	0.000059
C19	C	1.364716	-0.338744	0.000033
C20	C	1.422961	-0.399425	0.120145
C21	C	1.485664	-0.293911	0.000047
C22	C	1.423003	-0.399404	-0.120025
C23	C	1.481312	-0.458849	0.000030
C24	C	1.543943	-0.353363	0.120258
C25	C	1.543967	-0.353337	-0.120019
C26	C	1.602301	-0.414000	0.000121
C27	C	1.488168	-0.198894	0.000059
C28	C	1.478818	-0.553864	0.000029
C29	C	1.713089	0.118826	0.000051
C30	C	1.852499	0.121297	0.000046
C31	C	1.474335	0.277133	0.000027
C32	C	1.476820	0.370393	0.000017
N33	N	1.483480	0.123611	0.346709
N34	N	1.483509	0.123617	-0.346620
C35	C	1.568879	0.067031	0.423370
C36	C	1.568891	0.067031	0.576707
C37	C	1.398102	0.180200	0.576708
C38	C	1.398085	0.180195	0.423374
H39	H	0.864674	0.121502	0.240980
Cl40	Cl	1.290712	0.251327	0.326990
H41	H	1.595050	-0.333078	0.221914
H42	H	0.864665	0.121521	-0.240873
H43	H	1.102294	0.125722	-0.240886
H44	H	1.328576	0.226271	0.639143
Cl45	Cl	1.131329	0.126230	0.299760
Cl46	Cl	1.343976	-0.430932	0.276916
Cl47	Cl	1.209719	-0.288218	0.000202
H48	H	1.371836	-0.419776	-0.221577
Cl49	Cl	1.757432	-0.464298	0.000227
H50	H	1.638429	0.020956	0.639120
Cl51	Cl	1.676229	-0.004107	0.326998
Cl52	Cl	1.622891	-0.321793	-0.276799
