data_functionalizedCrystal
_audit_creation_method	'MofGen! by Chris Wilmer'
_symmetry_space_group_name_H-M	'P1'
_symmetry_Int_Tables_number	1
_symmetry_cell_setting	triclinic
loop_
_symmetry_equiv_pos_as_xyz
  x,y,z
_cell_length_a	16.109301
_cell_length_b	16.109301
_cell_length_c	15.186229
_cell_angle_alpha	89.994833
_cell_angle_beta	89.999362
_cell_angle_gamma	83.461481
loop_
_atom_site_label
_atom_site_type_symbol
_atom_site_fract_x
_atom_site_fract_y
_atom_site_fract_z
O1	O	1.103131	0.106866	-0.073176
O2	O	0.861069	0.120165	-0.073190
O3	O	0.988749	-0.007515	-0.073174
O4	O	0.975450	0.234547	-0.073192
O5	O	0.988741	-0.007517	0.073284
O6	O	0.861060	0.120164	0.073267
O7	O	1.103122	0.106864	0.073282
Zn8	Zn	0.982090	0.113514	0.096528
Zn9	Zn	0.982101	0.113516	-0.096436
O10	O	0.975441	0.234545	0.073265
C11	C	0.830090	0.119626	0.000037
C12	C	0.737794	0.118011	0.000032
C13	C	0.988206	-0.038491	0.000056
C14	C	0.986591	-0.130786	0.000057
C15	C	0.515522	0.190018	0.000036
C16	C	0.428801	0.188494	0.000042
C17	C	0.448676	0.037006	0.000050
C18	C	0.535394	0.038530	0.000051
C19	C	0.568815	0.115039	0.000039
C20	C	0.395376	0.111990	0.000045
C21	C	0.301350	0.110337	0.000051
C22	C	0.662847	0.116693	0.000035
C23	C	1.058599	-0.353059	0.000047
C24	C	1.057075	-0.439779	0.000040
C25	C	0.905586	-0.419905	0.000034
C26	C	0.907111	-0.333186	0.000035
C27	C	0.983620	-0.299766	0.000046
C28	C	0.980571	-0.473205	0.000038
C29	C	0.978918	-0.567231	0.000030
C30	C	0.985273	-0.205734	0.000052
C31	C	1.134101	0.107404	0.000053
C32	C	1.226397	0.109019	0.000052
C33	C	0.975984	0.265521	0.000034
C34	C	0.977600	0.357816	0.000027
N35	N	0.982088	0.113511	0.228220
N36	N	0.982109	0.113512	-0.228129
C37	C	1.038644	0.056994	0.453950
C38	C	1.038647	0.056992	0.546140
C39	C	0.925547	0.170032	0.546135
C40	C	0.925541	0.170030	0.453947
C41	C	0.982094	0.113511	0.407857
C42	C	0.982103	0.113512	0.592235
C43	C	0.982105	0.113510	0.692191
C44	C	0.982091	0.113512	0.307894
H45	H	0.542730	0.252317	0.000034
O46	O	0.416250	-0.037333	0.000207
C47	C	0.406744	-0.167306	0.076051
C48	C	0.443501	-0.083137	0.075999
H49	H	0.428776	-0.204369	0.137313
H50	H	0.335605	-0.155569	0.076103
H51	H	0.428684	-0.204316	0.014732
H52	H	0.421625	-0.046084	0.137308
H53	H	0.514636	-0.094932	0.075901
H54	H	0.578788	-0.022530	0.000056
O55	O	0.870536	0.224964	0.590771
C56	C	0.758384	0.337114	0.581035
C57	C	0.820628	0.274934	0.530377
H58	H	0.718029	0.377543	0.532228
H59	H	0.716810	0.301248	0.624178
H60	H	0.794282	0.378624	0.624211
H61	H	0.784798	0.233408	0.487153
H62	H	0.862202	0.310852	0.487289
H63	H	1.118130	-0.483168	0.000039
H64	H	0.385413	0.249550	0.000041
O65	O	1.132989	-0.320731	0.000008
C66	C	1.283083	-0.349601	0.000051
C67	C	1.198894	-0.386319	0.000081
H68	H	1.336390	-0.402610	0.000129
H69	H	1.287639	-0.309524	-0.061256
H70	H	1.287543	-0.309475	0.061328
H71	H	1.194377	-0.426483	-0.061155
H72	H	1.194374	-0.426348	0.061428
H73	H	1.084692	0.010972	0.416426
O74	O	0.831342	-0.452510	0.000071
C75	C	0.761853	-0.577296	0.000021
C76	C	0.845994	-0.540485	-0.000004
H77	H	0.773671	-0.648428	-0.000057
H78	H	0.724789	-0.555409	0.061328
H79	H	0.724803	-0.555291	-0.061257
H80	H	0.883112	-0.562473	0.061233
H81	H	0.882995	-0.562368	-0.061350
O82	O	0.834195	-0.281530	0.000074
C83	C	0.683777	-0.270961	0.000013
C84	C	0.766287	-0.329556	-0.000005
H85	H	0.628852	-0.309766	-0.000070
H86	H	0.680646	-0.229884	0.061318
H87	H	0.680756	-0.229844	-0.061266
H88	H	0.769363	-0.370725	0.061232
H89	H	0.769384	-0.370576	-0.061351
O90	O	1.093502	0.002124	0.591051
C91	C	1.143670	-0.047943	0.733072
C92	C	1.081488	0.014230	0.682321
H93	H	1.133990	-0.038164	0.806873
H94	H	1.132857	-0.114557	0.715019
H95	H	1.210244	-0.037096	0.714888
H96	H	1.014889	0.003460	0.700478
H97	H	1.092373	0.080823	0.700379
O98	O	0.870721	0.224972	0.409070
C99	C	0.852990	0.338544	0.305012
C100	C	0.915162	0.276361	0.355763
H101	H	0.888896	0.380119	0.261914
H102	H	0.811477	0.302680	0.261800
H103	H	0.812560	0.378906	0.353805
H104	H	0.955647	0.235983	0.307032
H105	H	0.956618	0.312275	0.398987
