data_functionalizedCrystal
_audit_creation_method	'MofGen! by Chris Wilmer'
_symmetry_space_group_name_H-M	'P1'
_symmetry_Int_Tables_number	1
_symmetry_cell_setting	triclinic
loop_
_symmetry_equiv_pos_as_xyz
  x,y,z
_cell_length_a	16.959455
_cell_length_b	16.959453
_cell_length_c	16.959447
_cell_angle_alpha	89.968853
_cell_angle_beta	89.983056
_cell_angle_gamma	90.016935
loop_
_atom_site_label
_atom_site_type_symbol
_atom_site_fract_x
_atom_site_fract_y
_atom_site_fract_z
Zn1	Zn	1.208405	-0.314730	-0.446905
Zn2	Zn	1.708405	0.185270	0.053095
Zn3	Zn	1.208321	-0.446922	-0.314724
Zn4	Zn	1.708321	0.053078	0.185276
Zn5	Zn	1.076227	-0.314755	-0.314742
Zn6	Zn	1.576227	0.185245	0.185258
Zn7	Zn	1.076198	-0.446863	-0.446863
Zn8	Zn	1.576198	0.053137	0.053137
O9	O	1.142288	-0.380817	-0.380808
O10	O	1.642288	0.119183	0.119192
O11	O	1.319004	-0.332280	-0.429381
O12	O	1.819004	0.167720	0.070619
O13	O	1.190776	-0.429425	-0.204116
O14	O	1.690776	0.070575	0.295884
O15	O	1.093808	-0.204140	-0.332299
O16	O	1.593808	0.295860	0.167701
O17	O	1.318943	-0.429401	-0.332268
O18	O	1.818943	0.070599	0.167732
O19	O	1.190918	-0.204122	-0.429398
O20	O	1.690918	0.295878	0.070602
O21	O	1.093727	-0.332322	-0.204129
O22	O	1.593727	0.167678	0.295871
O23	O	0.965612	-0.332265	-0.332258
O24	O	1.465612	0.167735	0.167742
O25	O	1.093758	-0.429300	-0.557479
O26	O	1.593758	0.070700	-0.057479
O27	O	0.965591	-0.429324	-0.429327
O28	O	1.465591	0.070676	0.070673
O29	O	1.190890	-0.332222	-0.557510
O30	O	1.690890	0.167778	-0.057510
O31	O	1.190748	-0.557525	-0.332228
O32	O	1.690748	-0.057525	0.167772
O33	O	1.093677	-0.557482	-0.429310
O34	O	1.593677	-0.057482	0.070690
C35	C	0.936922	-0.380791	-0.380790
C36	C	1.436922	0.119209	0.119210
C37	C	0.849065	-0.380799	-0.380801
C38	C	1.349065	0.119201	0.119199
C39	C	0.477576	-0.330237	-0.330370
C40	C	0.977576	0.169763	0.169630
C41	C	0.477603	-0.431463	-0.431292
C42	C	0.977603	0.068537	0.068708
C43	C	0.560148	-0.431451	-0.431287
C44	C	1.060148	0.068549	0.068713
C45	C	0.601412	-0.380833	-0.380822
C46	C	1.101412	0.119167	0.119178
C47	C	0.560130	-0.330226	-0.330362
C48	C	1.060130	0.169774	0.169638
C49	C	0.601437	-0.482063	-0.481740
C50	C	1.101437	0.017937	0.018260
C51	C	0.683988	-0.482055	-0.481737
C52	C	1.183988	0.017945	0.018263
C53	C	0.725253	-0.431432	-0.431275
C54	C	1.225253	0.068568	0.068725
C55	C	0.683966	-0.380822	-0.380814
C56	C	1.183966	0.119178	0.119186
C57	C	0.725229	-0.330203	-0.330350
C58	C	1.225229	0.169797	0.169650
C59	C	0.683943	-0.279589	-0.279892
C60	C	1.183943	0.220411	0.220108
C61	C	0.601395	-0.279603	-0.279901
C62	C	1.101395	0.220397	0.220099
C63	C	0.807801	-0.431418	-0.431266
C64	C	1.307801	0.068582	0.068734
C65	C	0.807783	-0.330192	-0.330341
C66	C	1.307783	0.169808	0.169659
C67	C	1.142222	-0.586184	-0.380780
C68	C	1.642222	-0.086184	0.119220
C69	C	1.142266	-0.674040	-0.380794
C70	C	1.642266	-0.174040	0.119206
C71	C	1.192918	-1.045448	-0.431463
C72	C	1.692918	-0.545448	0.068537
C73	C	1.091878	-1.045584	-0.330271
C74	C	1.591878	-0.545584	0.169729
C75	C	1.091849	-0.963038	-0.330253
C76	C	1.591849	-0.463038	0.169747
C77	C	1.142354	-0.921693	-0.380842
C78	C	1.642354	-0.421693	0.119158
C79	C	1.192888	-0.962894	-0.431449
C80	C	1.692888	-0.462894	0.068551
C81	C	1.041310	-0.921831	-0.279652
C82	C	1.541310	-0.421831	0.220348
C83	C	1.041278	-0.839280	-0.279633
C84	C	1.541278	-0.339280	0.220367
C85	C	1.091788	-0.797934	-0.330218
C86	C	1.591788	-0.297934	0.169782
C87	C	1.142325	-0.839140	-0.380827
C88	C	1.642325	-0.339140	0.119173
C89	C	1.192830	-0.797795	-0.431415
C90	C	1.692830	-0.297795	0.068585
C91	C	1.243371	-0.839000	-0.482021
C92	C	1.743371	-0.339000	0.017979
C93	C	1.243398	-0.921548	-0.482034
C94	C	1.743398	-0.421548	0.017966
C95	C	1.091761	-0.715385	-0.330205
C96	C	1.591761	-0.215385	0.169795
C97	C	1.192800	-0.715241	-0.431401
C98	C	1.692800	-0.215241	0.068599
C99	C	1.348456	-0.380844	-0.380827
C100	C	1.848456	0.119156	0.119173
C101	C	1.436313	-0.380856	-0.380835
C102	C	1.936313	0.119144	0.119165
C103	C	1.142330	-0.380752	-0.586977
C104	C	1.642330	0.119248	-0.086977
C105	C	1.142348	-0.380724	-0.674833
C106	C	1.642348	0.119276	-0.174833
C107	C	1.142375	-0.174649	-0.380855
C108	C	1.642375	0.325351	0.119145
C109	C	1.142413	-0.086793	-0.380875
C110	C	1.642413	0.413207	0.119125
C111	C	1.091889	-0.330083	-1.046322
C112	C	1.591889	0.169917	-0.546322
C113	C	1.192947	-0.431198	-1.046296
C114	C	1.692947	0.068802	-0.546296
C115	C	1.192933	-0.431216	-0.963750
C116	C	1.692933	0.068784	-0.463750
C117	C	1.142396	-0.380668	-0.922487
C118	C	1.642396	0.119332	-0.422487
C119	C	1.091872	-0.330102	-0.963769
C120	C	1.591872	0.169898	-0.463769
C121	C	1.243450	-0.481787	-0.922462
C122	C	1.743450	0.018213	-0.422462
C123	C	1.243438	-0.481808	-0.839911
C124	C	1.743438	0.018192	-0.339911
C125	C	1.192904	-0.431256	-0.798646
C126	C	1.692904	0.068744	-0.298646
C127	C	1.142379	-0.380687	-0.839933
C128	C	1.642379	0.119313	-0.339933
C129	C	1.091841	-0.330139	-0.798669
C130	C	1.591841	0.169861	-0.298669
C131	C	1.041320	-0.279565	-0.839955
C132	C	1.541320	0.220435	-0.339955
C133	C	1.041338	-0.279549	-0.922504
C134	C	1.541338	0.220451	-0.422504
C135	C	1.192886	-0.431272	-0.716097
C136	C	1.692886	0.068728	-0.216097
C137	C	1.091824	-0.330157	-0.716116
C138	C	1.591824	0.169843	-0.216116
C139	C	1.142291	-0.380826	-0.175442
C140	C	1.642291	0.119174	0.324558
C141	C	1.142426	-0.380631	-0.087586
C142	C	1.642426	0.119369	0.412414
H143	H	0.717596	-0.523267	-0.522823
H144	H	1.217596	-0.023267	-0.022823
C145	C	0.853166	-0.274507	-0.274825
C146	C	1.353166	0.225493	0.225175
N147	N	0.887348	-0.232565	-0.233009
N148	N	1.387348	0.267435	0.266991
C149	C	0.853212	-0.487090	-0.486766
C150	C	1.353212	0.012910	0.013234
N151	N	0.887415	-0.529023	-0.528574
N152	N	1.387415	-0.029023	-0.028574
H153	H	1.233931	-0.681583	-0.472593
H154	H	1.733931	-0.181583	0.027407
H155	H	1.284546	-0.955104	-0.523235
H156	H	1.784546	-0.455104	-0.023235
C157	C	1.299038	-0.537414	-0.794504
C158	C	1.799038	-0.037414	-0.294504
N159	N	1.340927	-0.579287	-0.760303
N160	N	1.840927	-0.079287	-0.260303
C161	C	1.248511	-1.090773	-0.487127
C162	C	1.748511	-0.590773	0.012873
N163	N	1.290383	-1.124913	-0.529053
N164	N	1.790383	-0.624913	-0.029053
H165	H	1.234025	-0.472442	-0.682486
H166	H	1.734025	0.027558	-0.182486
H167	H	0.567772	-0.238396	-0.238820
H168	H	1.067772	0.261604	0.261180
H169	H	0.443957	-0.289026	-0.289291
H170	H	0.943957	0.210974	0.210709
H171	H	0.567834	-0.523280	-0.522820
H172	H	1.067834	-0.023280	-0.022820
H173	H	0.444001	-0.472679	-0.472373
H174	H	0.944001	0.027321	0.027627
C175	C	1.036388	-1.091066	-0.274565
C176	C	1.536388	-0.591066	0.225435
N177	N	0.994614	-1.125326	-0.232581
N178	N	1.494614	-0.625326	0.267419
H179	H	1.000190	-0.955500	-0.238468
H180	H	1.500190	-0.455500	0.261532
H181	H	0.717550	-0.238379	-0.238800
H182	H	1.217550	0.261621	0.261200
C183	C	1.298925	-0.793510	-0.537667
C184	C	1.798925	-0.293510	-0.037667
N185	N	1.340767	-0.759243	-0.579577
N186	N	1.840767	-0.259243	-0.079577
H187	H	1.000126	-0.805736	-0.238427
H188	H	1.500126	-0.305736	0.261573
C189	C	1.036170	-0.670064	-0.274541
C190	C	1.536170	-0.170064	0.225459
N191	N	0.994298	-0.635929	-0.232610
N192	N	1.494298	-0.135929	0.267390
C193	C	1.036228	-0.274549	-0.670732
C194	C	1.536228	0.225451	-0.170732
N195	N	0.994352	-0.232666	-0.636550
N196	N	1.494352	0.267334	-0.136550
C197	C	0.985734	-0.223961	-0.794554
C198	C	1.485734	0.276039	-0.294554
N199	N	0.943870	-0.182079	-0.760355
N200	N	1.443870	0.317921	-0.260355
C201	C	0.985765	-0.223927	-0.967924
C202	C	1.485765	0.276073	-0.467924
N203	N	0.943906	-0.182035	-1.002138
N204	N	1.443906	0.317965	-0.502138
C205	C	1.036318	-0.274455	-1.091737
C206	C	1.536318	0.225545	-0.591737
N207	N	0.994461	-0.232555	-1.125944
N208	N	1.494461	0.267445	-0.625944
C209	C	1.248301	-0.487029	-1.091689
C210	C	1.748301	0.012971	-0.591689
N211	N	1.289914	-0.529166	-1.125881
N212	N	1.789914	-0.029166	-0.625881
C213	C	1.298682	-0.537739	-0.967855
C214	C	1.798682	-0.037739	-0.467855
N215	N	1.340158	-0.580009	-1.002050
N216	N	1.840158	-0.080009	-0.502050
