data_functionalizedCrystal
_audit_creation_method	'MofGen! by Chris Wilmer'
_symmetry_space_group_name_H-M	'P1'
_symmetry_Int_Tables_number	1
_symmetry_cell_setting	triclinic
loop_
_symmetry_equiv_pos_as_xyz
  x,y,z
_cell_length_a	17.699077
_cell_length_b	15.944493
_cell_length_c	16.776229
_cell_angle_alpha	89.999222
_cell_angle_beta	89.993415
_cell_angle_gamma	83.377810
loop_
_atom_site_label
_atom_site_type_symbol
_atom_site_fract_x
_atom_site_fract_y
_atom_site_fract_z
O1	O	1.004243	0.106201	-0.066267
O2	O	1.504243	0.606201	0.433733
O3	O	0.783885	0.120026	-0.066270
O4	O	1.283885	0.620026	0.433730
O5	O	0.900104	-0.009177	-0.066275
O6	O	1.400104	0.490823	0.433725
O7	O	0.888023	0.235405	-0.066262
O8	O	1.388023	0.735405	0.433738
O9	O	0.900089	-0.009185	0.066301
O10	O	1.400089	0.490815	0.566301
O11	O	0.783869	0.120018	0.066307
O12	O	1.283869	0.620018	0.566307
O13	O	1.004227	0.106193	0.066309
O14	O	1.504227	0.606193	0.566309
Zn15	Zn	0.894046	0.113104	0.087357
Zn16	Zn	1.394046	0.613104	0.587357
Zn17	Zn	0.894066	0.113115	-0.087318
Zn18	Zn	1.394066	0.613115	0.412682
O19	O	0.888008	0.235397	0.066314
O20	O	1.388008	0.735397	0.566314
C21	C	0.755679	0.119528	0.000018
C22	C	1.255679	0.619528	0.500018
C23	C	0.671659	0.118044	0.000016
C24	C	1.171659	0.618044	0.500016
C25	C	0.899603	-0.040475	0.000010
C26	C	1.399603	0.459525	0.500010
C27	C	0.898122	-0.133721	-0.000000
C28	C	1.398122	0.366279	0.500000
C29	C	0.632182	0.117341	0.072285
C30	C	1.132182	0.617341	0.572285
C31	C	0.553237	0.115933	0.072285
C32	C	1.053237	0.615933	0.572285
C33	C	0.513770	0.115235	0.000017
C34	C	1.013770	0.615235	0.500017
C35	C	0.553253	0.115936	-0.072257
C36	C	1.053253	0.615936	0.427743
C37	C	0.632197	0.117338	-0.072257
C38	C	1.132197	0.617338	0.427743
C39	C	0.234881	0.110283	-0.072259
C40	C	0.734881	0.610283	0.427741
C41	C	0.155931	0.108885	-0.072253
C42	C	0.655931	0.608885	0.427747
C43	C	0.155921	0.108879	0.072284
C44	C	0.655921	0.608879	0.572284
C45	C	0.234865	0.110281	0.072284
C46	C	0.734865	0.610281	0.572284
C47	C	0.274342	0.110977	0.000010
C48	C	0.774342	0.610977	0.500010
C49	C	0.359943	0.112501	0.000010
C50	C	0.859943	0.612501	0.500010
C51	C	0.428170	0.113717	0.000016
C52	C	0.928170	0.613717	0.500016
C53	C	0.966532	-0.369626	0.000015
C54	C	1.466532	0.130374	0.500015
C55	C	0.929649	-0.420112	-0.065352
C56	C	1.429649	0.079888	0.434648
C57	C	0.895379	-0.304436	0.000009
C58	C	1.395379	0.195564	0.500009
C59	C	0.929617	-0.420096	0.065358
C60	C	1.429617	0.079904	0.565358
C61	C	0.892735	-0.469340	0.000022
C62	C	1.392735	0.030660	0.500022
C63	C	0.858516	-0.353693	-0.065412
C64	C	1.358516	0.146307	0.434588
C65	C	0.858494	-0.353674	0.065357
C66	C	1.358494	0.146326	0.565357
C67	C	0.821559	-0.404126	-0.000026
C68	C	1.321559	0.095874	0.499974
C69	C	0.896905	-0.209439	0.000001
C70	C	1.396905	0.290561	0.500001
C71	C	0.891204	-0.564334	0.000025
C72	C	1.391204	-0.064334	0.500025
C73	C	1.032433	0.106691	0.000020
C74	C	1.532433	0.606691	0.500020
C75	C	1.116453	0.108175	0.000016
C76	C	1.616453	0.608175	0.500016
C77	C	0.888509	0.266694	0.000028
C78	C	1.388509	0.766694	0.500028
C79	C	0.889990	0.359940	0.000033
C80	C	1.389990	0.859940	0.500033
N81	N	0.894038	0.113097	0.206569
N82	N	1.394038	0.613097	0.706569
N83	N	0.894081	0.113116	-0.206529
N84	N	1.394081	0.613116	0.293471
C85	C	0.945515	0.055909	0.248283
C86	C	1.445515	0.555909	0.748283
C87	C	0.945519	0.055908	0.331735
C88	C	1.445519	0.555908	0.831735
C89	C	0.894049	0.113100	0.373471
C90	C	1.394049	0.613100	0.873471
C91	C	0.842566	0.170291	0.331751
C92	C	1.342566	0.670291	0.831751
C93	C	0.842559	0.170287	0.248300
C94	C	1.342559	0.670287	0.748300
C95	C	0.842593	0.170307	0.668298
C96	C	1.342593	0.670307	1.168298
C97	C	0.842606	0.170308	0.751755
C98	C	1.342606	0.670308	1.251755
C99	C	0.945554	0.055929	0.751733
C100	C	1.445554	0.555929	1.251733
C101	C	0.945547	0.055925	0.668283
C102	C	1.445547	0.555925	1.168283
C103	C	0.894061	0.113112	0.626569
C104	C	1.394061	0.613112	1.126569
C105	C	0.894056	0.113111	0.536081
C106	C	1.394056	0.613111	1.036081
C107	C	0.894057	0.113106	0.463958
C108	C	1.394057	0.613106	0.963958
H109	H	0.664309	0.117916	0.131134
H110	H	1.164309	0.617916	0.631134
Br111	Br	0.288423	0.111236	0.170365
Br112	Br	0.788423	0.611236	0.670365
Br113	Br	1.015378	-0.021708	0.191650
Br114	Br	1.515378	0.478292	0.691650
Br115	Br	1.015380	-0.021708	0.388351
Br116	Br	1.515380	0.478292	0.888351
Br117	Br	0.102368	0.107938	-0.170338
Br118	Br	0.602368	0.607938	0.329662
H119	H	0.828491	-0.324806	-0.120734
H120	H	1.328491	0.175194	0.379266
H121	H	1.027820	-0.354128	-0.000050
H122	H	1.527820	0.145872	0.499950
Br123	Br	0.772706	0.247904	0.388389
Br124	Br	1.272706	0.747904	0.888389
Br125	Br	0.772688	0.247897	0.191687
Br126	Br	1.272688	0.747897	0.691687
H127	H	0.123771	0.108308	0.131132
H128	H	0.623771	0.608308	0.631132
Br129	Br	1.015405	-0.021690	0.611643
Br130	Br	1.515405	0.478310	1.111643
Br131	Br	1.015428	-0.021686	0.808348
Br132	Br	1.515428	0.478314	1.308348
Br133	Br	0.499662	0.114993	0.170368
Br134	Br	0.999662	0.614993	0.670368
Br135	Br	0.772749	0.247932	0.808397
Br136	Br	1.272749	0.747932	1.308397
Br137	Br	0.772724	0.247918	0.611692
Br138	Br	1.272724	0.747918	1.111692
H139	H	0.267013	0.110848	-0.131108
H140	H	0.767013	0.610848	0.368892
Br141	Br	0.979711	-0.468429	0.157461
Br142	Br	1.479711	0.031571	0.657461
H143	H	0.521113	0.115362	-0.131099
H144	H	1.021113	0.615362	0.368901
H145	H	0.959704	-0.449118	-0.120615
H146	H	1.459704	0.050882	0.379385
H147	H	0.664338	0.117912	-0.131105
H148	H	1.164338	0.617912	0.368895
Br149	Br	0.719329	-0.429690	-0.000082
Br150	Br	1.219329	0.070310	0.499918
H151	H	0.828465	-0.324652	0.120622
H152	H	1.328465	0.175348	0.620622
