data_functionalizedCrystal
_audit_creation_method	'MofGen! by Chris Wilmer'
_symmetry_space_group_name_H-M	'P1'
_symmetry_Int_Tables_number	1
_symmetry_cell_setting	triclinic
loop_
_symmetry_equiv_pos_as_xyz
  x,y,z
_cell_length_a	12.759401
_cell_length_b	16.625545
_cell_length_c	16.625527
_cell_angle_alpha	90.085698
_cell_angle_beta	89.943226
_cell_angle_gamma	89.976919
loop_
_atom_site_label
_atom_site_type_symbol
_atom_site_fract_x
_atom_site_fract_y
_atom_site_fract_z
Zn1	Zn	1.606584	0.320563	-0.455844
Zn2	Zn	1.606332	0.455542	-0.321011
Zn3	Zn	1.430768	0.320725	-0.321032
Zn4	Zn	1.430845	0.455356	-0.455809
O5	O	1.518632	0.388046	-0.388424
O6	O	1.753571	0.338479	-0.437964
O7	O	1.582906	0.437803	-0.208181
O8	O	1.454163	0.207871	-0.338938
O9	O	1.753386	0.437647	-0.338903
O10	O	1.583334	0.207752	-0.437984
O11	O	1.453920	0.338754	-0.208196
O12	O	1.283758	0.338573	-0.338904
O13	O	1.454295	0.437330	-0.568646
O14	O	1.283814	0.437486	-0.437924
O15	O	1.583409	0.338299	-0.568672
O16	O	1.582980	0.568350	-0.338869
O17	O	1.454051	0.568213	-0.437904
C18	C	1.245665	0.388027	-0.388413
C19	C	1.128888	0.388039	-0.388427
C20	C	1.074116	0.336499	-0.440088
C21	C	0.964392	0.336515	-0.440093
C22	C	0.964223	0.439616	-0.336774
C23	C	1.073945	0.439596	-0.336765
C24	C	1.129059	0.284942	-0.491750
C25	C	1.074286	0.233399	-0.543416
C26	C	0.964562	0.233414	-0.543421
C27	C	0.909611	0.284973	-0.491760
C28	C	1.518525	0.597537	-0.388398
C29	C	1.518576	0.687158	-0.388414
C30	C	1.518747	1.015334	-0.388510
C31	C	1.518696	0.924025	-0.388486
C32	C	1.518661	0.851249	-0.388462
C33	C	1.518611	0.759935	-0.388438
C34	C	1.792666	0.388066	-0.388436
C35	C	1.909442	0.388074	-0.388441
C36	C	1.518889	0.387775	-0.598733
C37	C	1.518998	0.387660	-0.688355
C38	C	1.518759	1.177737	-0.388477
C39	C	1.518791	1.088116	-0.388524
C40	C	1.518437	0.388258	-0.178933
C41	C	1.518532	0.388147	-0.089312
C42	C	1.518922	0.387751	0.238863
C43	C	1.518816	0.387864	0.147555
C44	C	1.518726	0.387950	0.074779
C45	C	1.518622	0.388061	-0.016535
H46	H	0.820266	0.284964	-0.491751
C47	C	1.134735	0.176684	-0.600235
N48	N	1.180263	0.133964	-0.643033
C49	C	1.249758	0.284917	-0.491745
N50	N	1.340668	0.284898	-0.491741
H51	H	0.919969	0.191440	-0.585484
H52	H	0.919473	0.481594	-0.294715
H53	H	1.118542	0.481564	-0.294698
