data_functionalizedCrystal
_audit_creation_method	'MofGen! by Chris Wilmer'
_symmetry_space_group_name_H-M	'P1'
_symmetry_Int_Tables_number	1
_symmetry_cell_setting	triclinic
loop_
_symmetry_equiv_pos_as_xyz
  x,y,z
_cell_length_a	6.817900
_cell_length_b	17.078509
_cell_length_c	10.943624
_cell_angle_alpha	95.061128
_cell_angle_beta	108.838799
_cell_angle_gamma	99.306544
loop_
_atom_site_label
_atom_site_type_symbol
_atom_site_fract_x
_atom_site_fract_y
_atom_site_fract_z
V1	V	-4.067333	-0.109746	-0.402421
O2	O	-4.075528	0.005295	-0.394894
O3	O	-3.997938	-0.217629	-0.399539
O4	O	-4.046040	-0.108049	-0.577989
O5	O	-4.027093	-0.105044	-0.215209
V6	V	-4.550169	-0.095987	-0.380044
O7	O	-4.330099	-0.139928	-0.451505
O8	O	-4.737600	-0.065805	-0.330960
O9	O	-4.396356	0.011896	-0.382926
O10	O	-4.659370	-0.211029	-0.387571
O11	O	-4.707805	-0.100690	-0.567256
O12	O	-4.348254	-0.097685	-0.204476
C13	C	-3.836955	-0.243929	-0.393158
C14	C	-3.861684	-0.332124	-0.391972
C15	C	-3.898312	-0.104147	-0.620787
C16	C	-3.962048	-0.103473	-0.764314
C17	C	-3.981251	-0.828138	-0.384620
C18	C	-3.958033	-0.745270	-0.385739
C19	C	-4.128752	-0.707878	-0.392727
C20	C	-4.322709	-0.753361	-0.398610
C21	C	-4.345929	-0.836228	-0.397500
C22	C	-4.078861	-0.460475	-0.396745
C23	C	-4.055623	-0.377601	-0.397850
C24	C	-3.690950	-0.369515	-0.384982
C25	C	-3.714184	-0.452384	-0.383865
C26	C	-3.908140	-0.497860	-0.389754
N27	N	-4.105022	-0.623173	-0.393867
N28	N	-3.931872	-0.582564	-0.388624
C29	C	-3.808870	-0.098934	-0.841467
C30	C	-3.968660	-0.166310	-0.947377
C31	C	-3.915847	-0.034904	-0.914146
C32	C	-4.121021	-0.170912	-0.868347
C33	C	-4.068153	-0.039447	-0.835093
C34	C	-4.228072	-0.106842	-0.940973
C35	C	-4.220680	0.038191	-0.389304
C36	C	-4.175190	0.126386	-0.390498
C37	C	-4.159323	-0.101589	-0.161672
C38	C	-4.074826	-0.102259	-0.018143
H39	H	-3.800109	-0.708246	-0.380949
H40	H	-3.842230	-0.858576	-0.378932
H41	H	-4.503853	-0.873255	-0.402288
H42	H	-4.194648	-0.347158	-0.403528
C43	C	-4.263545	-0.547650	-0.291424
C44	C	-4.292041	-0.510442	-0.403171
H45	H	-4.395159	-0.578499	-0.295387
H46	H	-4.210950	-0.507906	-0.215981
H47	H	-4.165225	-0.581788	-0.287134
H48	H	-4.390350	-0.476299	-0.407457
H49	H	-4.344666	-0.550191	-0.478635
C50	C	-4.456008	-0.252969	-0.892070
C51	C	-4.237295	-0.248597	-0.840530
H52	H	-4.527777	-0.300926	-0.874886
H53	H	-4.497529	-0.252993	-0.983696
H54	H	-4.491047	-0.207958	-0.852562
H55	H	-4.202254	-0.293605	-0.880046
H56	H	-4.195758	-0.248580	-0.748887
H57	H	-3.575150	-0.482820	-0.378150
H58	H	-3.829717	0.022563	-0.934977
H59	H	-3.631097	-0.095681	-0.798022
H60	H	-4.405912	-0.110201	-0.984214
H61	H	-4.461713	-0.722911	-0.404308
C62	C	-3.493429	-0.238896	-0.380981
C63	C	-3.477769	-0.319528	-0.378526
H64	H	-3.361818	-0.208040	-0.377006
H65	H	-3.528603	-0.219738	-0.308175
H66	H	-3.600470	-0.234229	-0.459439
H67	H	-3.370738	-0.324196	-0.300062
H68	H	-3.442568	-0.338692	-0.451337
C69	C	-3.694037	-0.234467	-0.962887
C70	C	-3.912787	-0.238709	-1.013387
H71	H	-3.659537	-0.279158	-1.003642
H72	H	-3.651666	-0.235156	-0.871412
H73	H	-3.622560	-0.186212	-0.979382
H74	H	-3.984264	-0.286960	-0.996883
H75	H	-3.955180	-0.238027	-1.104884
C76	C	-4.015424	0.104087	-0.791331
C77	C	-4.123918	0.032956	-0.769036
H78	H	-4.049829	0.148790	-0.750539
H79	H	-4.055480	0.105333	-0.882602
H80	H	-3.867377	0.106384	-0.755952
H81	H	-4.271966	0.030657	-0.804423
H82	H	-4.083875	0.031711	-0.677747
