data_functionalizedCrystal
_audit_creation_method	'MofGen! by Chris Wilmer'
_symmetry_space_group_name_H-M	'P1'
_symmetry_Int_Tables_number	1
_symmetry_cell_setting	triclinic
loop_
_symmetry_equiv_pos_as_xyz
  x,y,z
_cell_length_a	12.759401
_cell_length_b	18.215405
_cell_length_c	12.759393
_cell_angle_alpha	89.965441
_cell_angle_beta	89.981433
_cell_angle_gamma	90.021776
loop_
_atom_site_label
_atom_site_type_symbol
_atom_site_fract_x
_atom_site_fract_y
_atom_site_fract_z
Zn1	Zn	1.606197	-0.292960	-0.593961
Zn2	Zn	2.106197	0.207040	-0.093961
Zn3	Zn	1.606066	-0.416046	-0.418272
Zn4	Zn	2.106066	0.083954	0.081728
Zn5	Zn	1.430499	-0.292996	-0.418301
Zn6	Zn	1.930499	0.207004	0.081699
Zn7	Zn	1.430463	-0.415987	-0.593914
Zn8	Zn	1.930463	0.084013	-0.093914
O9	O	1.518306	-0.354497	-0.506112
O10	O	2.018306	0.145503	-0.006112
O11	O	1.753200	-0.309297	-0.570664
O12	O	2.253200	0.190703	-0.070664
O13	O	1.582738	-0.399763	-0.271255
O14	O	2.082738	0.100237	0.228745
O15	O	1.453875	-0.190007	-0.441634
O16	O	1.953875	0.309993	0.058366
O17	O	1.753105	-0.399728	-0.441586
O18	O	2.253105	0.100272	0.058414
O19	O	1.582960	-0.189980	-0.570691
O20	O	2.082960	0.310020	-0.070691
O21	O	1.453749	-0.309358	-0.271276
O22	O	1.953749	0.190642	0.228724
O23	O	1.283473	-0.309301	-0.441588
O24	O	1.783473	0.190699	0.058412
O25	O	1.453814	-0.399627	-0.740941
O26	O	1.953814	0.100373	-0.240941
O27	O	1.283446	-0.399662	-0.570610
O28	O	1.783446	0.100338	-0.070610
O29	O	1.582925	-0.309240	-0.740976
O30	O	2.082925	0.190760	-0.240976
O31	O	1.582703	-0.519022	-0.441540
O32	O	2.082703	-0.019022	0.058460
O33	O	1.453687	-0.518979	-0.570583
O34	O	1.953687	-0.018979	-0.070583
C35	C	1.245339	-0.354480	-0.506097
C36	C	1.745339	0.145520	-0.006097
C37	C	1.128562	-0.354490	-0.506116
C38	C	1.628562	0.145510	-0.006116
C39	C	1.073743	-0.307492	-0.573431
C40	C	1.573743	0.192508	-0.073431
C41	C	0.964019	-0.307506	-0.573438
C42	C	1.464019	0.192494	-0.073438
C43	C	0.963943	-0.401523	-0.438811
C44	C	1.463943	0.098477	0.061189
C45	C	1.073665	-0.401505	-0.438800
C46	C	1.573665	0.098495	0.061200
C47	C	1.073786	-0.253213	-0.651160
C48	C	1.573786	0.246787	-0.151160
C49	C	0.964062	-0.253228	-0.651167
C50	C	1.464062	0.246772	-0.151167
C51	C	1.518205	-0.545703	-0.506076
C52	C	2.018205	-0.045703	-0.006076
C53	C	1.518259	-0.627502	-0.506095
C54	C	2.018259	-0.127502	-0.006095
C55	C	1.585505	-0.815621	-0.573387
C56	C	2.085505	-0.315621	-0.073387
C57	C	1.585543	-0.892480	-0.573406
C58	C	2.085543	-0.392480	-0.073406
C59	C	1.451237	-0.892621	-0.438903
C60	C	1.951237	-0.392621	0.061097
C61	C	1.451195	-0.815763	-0.438889
C62	C	1.951195	-0.315763	0.061111
C63	C	1.518334	-0.777266	-0.506129
C64	C	2.018334	-0.277266	-0.006129
C65	C	1.518415	-0.930982	-0.506163
C66	C	2.018415	-0.430982	-0.006163
C67	C	1.518456	-1.014315	-0.506184
C68	C	2.018456	-0.514315	-0.006184
C69	C	1.518292	-0.693927	-0.506110
C70	C	2.018292	-0.193927	-0.006110
C71	C	1.792339	-0.354515	-0.506127
C72	C	2.292339	0.145485	-0.006127
C73	C	1.909116	-0.354523	-0.506134
C74	C	2.409116	0.145477	-0.006134
C75	C	1.518380	-0.354423	-0.780145
C76	C	2.018380	0.145577	-0.280145
C77	C	1.518411	-0.354391	-0.896922
C78	C	2.018411	0.145609	-0.396922
C79	C	1.518436	-0.162544	-0.506171
C80	C	2.018436	0.337456	-0.006171
C81	C	1.518491	-0.080745	-0.506197
C82	C	2.018491	0.419255	-0.006197
C83	C	1.585648	-0.307322	-0.951804
C84	C	2.085648	0.192678	-0.451804
C85	C	1.585673	-0.307295	-1.061528
C86	C	2.085673	0.192705	-0.561528
C87	C	1.451221	-0.401414	-1.061479
C88	C	1.951221	0.098586	-0.561479
C89	C	1.451191	-0.401436	-0.951757
C90	C	1.951191	0.098564	-0.451757
C91	C	1.663277	-0.252986	-0.951834
C92	C	2.163277	0.247014	-0.451834
C93	C	1.663302	-0.252959	-1.061558
C94	C	2.163302	0.247041	-0.561558
C95	C	1.518293	-0.354518	-0.233145
C96	C	2.018293	0.145482	0.266855
C97	C	1.518466	-0.354342	-0.116369
C98	C	2.018466	0.145658	0.383631
H99	H	1.103564	-0.196193	-0.629510
H100	H	1.603564	0.303807	-0.129510
F101	F	1.625145	-0.182210	-1.106072
F102	F	2.125145	0.317790	-0.606072
F103	F	1.657030	-0.933298	-0.644995
F104	F	2.157030	-0.433298	-0.144995
F105	F	1.656958	-0.774652	-0.644952
F106	F	2.156958	-0.274652	-0.144952
H107	H	1.641520	-0.195992	-0.922082
H108	H	2.141520	0.304008	-0.422082
H109	H	0.919232	-0.439801	-0.384005
H110	H	1.419232	0.060199	0.115995
H111	H	0.934314	-0.268564	-0.732501
H112	H	1.434314	0.231436	-0.232501
F113	F	1.379684	-0.451479	-1.119847
F114	F	1.879684	0.048521	-0.619847
H115	H	1.107847	-0.273690	-0.728396
H116	H	1.607847	0.226310	-0.228396
H117	H	1.744670	-0.268225	-1.091335
H118	H	2.244670	0.231775	-0.591335
F119	F	0.919576	-0.182432	-0.613264
F120	F	1.419576	0.317568	-0.113264
F121	F	1.379692	-0.774940	-0.367307
F122	F	1.879692	-0.274940	0.132693
F123	F	1.132004	-0.451509	-0.367129
F124	F	1.632004	0.048491	0.132871
F125	F	1.379785	-0.933599	-0.367346
F126	F	1.879785	-0.433599	0.132654
F127	F	1.379614	-0.451523	-0.893351
F128	F	1.879614	0.048477	-0.393351
H129	H	1.740545	-0.273418	-0.917796
H130	H	2.240545	0.226582	-0.417796
