data_functionalizedCrystal
_audit_creation_method	'MofGen! by Chris Wilmer'
_symmetry_space_group_name_H-M	'P1'
_symmetry_Int_Tables_number	1
_symmetry_cell_setting	triclinic
loop_
_symmetry_equiv_pos_as_xyz
  x,y,z
_cell_length_a	10.654550
_cell_length_b	10.654550
_cell_length_c	9.130313
_cell_angle_alpha	89.996647
_cell_angle_beta	89.999724
_cell_angle_gamma	84.484917
loop_
_atom_site_label
_atom_site_type_symbol
_atom_site_fract_x
_atom_site_fract_y
_atom_site_fract_z
O1	O	1.667839	0.176399	-0.121686
O2	O	1.302361	0.193205	-0.121712
O3	O	1.493503	0.002063	-0.121693
O4	O	1.476697	0.367541	-0.121705
O5	O	1.493490	0.002057	0.121906
O6	O	1.302348	0.193199	0.121886
O7	O	1.667826	0.176393	0.121913
Cu8	Cu	1.485086	0.184796	0.144142
Cu9	Cu	1.485101	0.184802	-0.143942
O10	O	1.476684	0.367535	0.121894
C11	C	1.255556	0.191968	0.000084
C12	C	1.116113	0.188276	0.000073
C13	C	1.492263	-0.044738	0.000104
C14	C	1.488571	-0.184181	0.000099
C15	C	1.036627	0.300818	0.000074
C16	C	0.905607	0.297341	0.000100
C17	C	0.933570	0.068772	0.000118
C18	C	1.064588	0.072250	0.000103
C19	C	1.601112	-0.263667	0.000112
C20	C	1.597636	-0.394688	0.000101
C21	C	1.369066	-0.366725	0.000072
C22	C	1.372544	-0.235706	0.000072
C23	C	1.717139	-0.212142	0.000139
C24	C	1.829690	-0.291629	0.000153
C25	C	1.826213	-0.422650	0.000143
C26	C	1.710186	-0.474184	0.000118
C27	C	1.714631	0.177630	0.000114
C28	C	1.854074	0.181322	0.000114
C29	C	1.477924	0.414336	0.000093
C30	C	1.481616	0.553779	0.000089
N31	N	1.485084	0.184790	0.346765
N32	N	1.485113	0.184798	-0.346564
C33	C	1.569751	0.100188	0.423425
C34	C	1.569763	0.100189	0.576762
C35	C	1.400437	0.269404	0.576765
C36	C	1.400420	0.269396	0.423431
H37	H	1.078574	0.395294	0.000061
H38	H	1.707364	-0.580871	0.000094
C39	C	1.720961	-0.068024	0.000146
H40	H	1.637317	-0.028064	0.000142
H41	H	1.763968	-0.043539	-0.084790
H42	H	1.763940	-0.043557	0.085117
C43	C	1.152028	-0.051552	0.000096
H44	H	1.102579	-0.121151	0.000094
H45	H	1.203728	-0.054946	0.085037
H46	H	1.203710	-0.054941	-0.084870
C47	C	1.307284	0.362437	0.661094
H48	H	1.256838	0.412803	0.593473
H49	H	1.352881	0.415157	0.720918
H50	H	1.254634	0.316728	0.720901
C51	C	1.248755	-0.148262	0.000062
H52	H	1.267447	-0.062854	0.000050
H53	H	1.201217	-0.163988	0.085003
H54	H	1.201238	-0.163985	-0.084904
H55	H	1.638704	0.031297	0.639175
C56	C	1.957308	-0.234947	0.000179
H57	H	1.943264	-0.145533	0.000197
H58	H	2.003707	-0.262154	-0.084763
H59	H	2.003682	-0.262173	0.085144
C60	C	1.307294	0.362469	0.339091
H61	H	1.319404	0.350339	0.236792
H62	H	1.321662	0.446418	0.364205
H63	H	1.223356	0.348048	0.364230
C64	C	1.950010	-0.510082	0.000155
H65	H	2.019604	-0.460626	0.000182
H66	H	1.953420	-0.561770	-0.084792
H67	H	1.953392	-0.561775	0.085115
C68	C	1.241449	-0.423410	0.000062
H69	H	1.255497	-0.512824	0.000079
H70	H	1.195062	-0.396194	-0.084888
H71	H	1.195062	-0.396196	0.085020
H72	H	1.638687	0.031295	0.361008
H73	H	0.891602	-0.025693	0.000151
H74	H	0.840894	0.388984	0.000103
