data_functionalizedCrystal
_audit_creation_method	'MofGen! by Chris Wilmer'
_symmetry_space_group_name_H-M	'P1'
_symmetry_Int_Tables_number	1
_symmetry_cell_setting	triclinic
loop_
_symmetry_equiv_pos_as_xyz
  x,y,z
_cell_length_a	14.908571
_cell_length_b	16.625545
_cell_length_c	14.908308
_cell_angle_alpha	86.733823
_cell_angle_beta	89.824947
_cell_angle_gamma	86.721711
loop_
_atom_site_label
_atom_site_type_symbol
_atom_site_fract_x
_atom_site_fract_y
_atom_site_fract_z
Zn1	Zn	1.345254	-0.420777	0.587574
Zn2	Zn	1.845254	0.079223	1.087574
Zn3	Zn	1.353821	-0.548312	0.437212
Zn4	Zn	1.853821	-0.048312	0.937212
Zn5	Zn	1.203571	-0.405290	0.428572
Zn6	Zn	1.703571	0.094710	0.928572
Zn7	Zn	1.194849	-0.547354	0.578863
Zn8	Zn	1.694849	-0.047354	1.078863
O9	O	1.274374	-0.480433	0.508055
O10	O	1.774374	0.019567	1.008055
O11	O	1.472216	-0.444577	0.574889
O12	O	1.972216	0.055423	1.074889
O13	O	1.341126	-0.523259	0.310241
O14	O	1.841126	-0.023259	0.810241
O15	O	1.222429	-0.294517	0.449694
O16	O	1.722429	0.205483	0.949694
O17	O	1.478510	-0.538276	0.464419
O18	O	1.978510	-0.038276	0.964419
O19	O	1.326523	-0.305895	0.566512
O20	O	1.826523	0.194105	1.066512
O21	O	1.230737	-0.418182	0.303894
O22	O	1.730737	0.081818	0.803894
O23	O	1.076588	-0.417253	0.441247
O24	O	1.576588	0.082747	0.941247
O25	O	1.207565	-0.536644	0.705843
O26	O	1.707565	-0.036644	1.205843
O27	O	1.070181	-0.521626	0.551666
O28	O	1.570181	-0.021626	1.051666
O29	O	1.318067	-0.443648	0.712243
O30	O	1.818067	0.056352	1.212243
O31	O	1.332669	-0.661012	0.455973
O32	O	1.832669	-0.161012	0.955973
O33	O	1.215873	-0.660308	0.560043
O34	O	1.715873	-0.160308	1.060043
C35	C	1.040760	-0.467656	0.494574
C36	C	1.540760	0.032344	0.994574
C37	C	0.940817	-0.462210	0.488829
C38	C	1.440817	0.037790	0.988829
C39	C	0.746400	-0.560813	0.592856
C40	C	1.246400	-0.060813	1.092856
C41	C	0.652495	-0.555699	0.587460
C42	C	1.152495	-0.055699	1.087460
C43	C	0.659100	-0.446864	0.472647
C44	C	1.159100	0.053136	0.972647
C45	C	0.753005	-0.451979	0.478042
C46	C	1.253005	0.048021	0.978042
C47	C	0.796652	-0.508956	0.538148
C48	C	1.296652	-0.008956	1.038148
C49	C	0.890559	-0.514073	0.543538
C50	C	1.390559	-0.014073	1.043538
C51	C	0.897162	-0.405235	0.428730
C52	C	1.397162	0.094765	0.928730
C53	C	0.803257	-0.400121	0.423335
C54	C	1.303257	0.099879	0.923335
C55	C	1.274278	-0.689917	0.508021
C56	C	1.774278	-0.189917	1.008021
C57	C	1.274317	-0.779542	0.508042
C58	C	1.774317	-0.279542	1.008042
C59	C	1.274351	-0.852327	0.508062
C60	C	1.774351	-0.352327	1.008062
C61	C	1.274402	-0.943639	0.508084
C62	C	1.774402	-0.443639	1.008084
C63	C	1.274448	-1.016419	0.508098
C64	C	1.774448	-0.516419	1.008098
C65	C	1.274499	-1.107737	0.508120
C66	C	1.774499	-0.607737	1.008120
C67	C	1.508900	-0.493261	0.521589
C68	C	2.008900	0.006739	1.021589
C69	C	1.608841	-0.498728	0.527357
C70	C	2.108841	0.001272	1.027357
C71	C	1.260888	-0.491767	0.742580
C72	C	1.760888	0.008233	1.242580
C73	C	1.255140	-0.496596	0.842521
C74	C	1.755140	0.003404	1.342521
C75	C	1.274494	-0.270133	0.508110
C76	C	1.774494	0.229867	1.008110
C77	C	1.274545	-0.180516	0.508134
C78	C	1.774545	0.319484	1.008134
C79	C	1.287859	-0.469089	0.274446
C80	C	1.787859	0.030911	0.774446
C81	C	1.293781	-0.464041	0.174516
C82	C	1.793781	0.035959	0.674516
C83	C	1.359404	-0.408817	1.036985
C84	C	1.859404	0.091183	1.536985
C85	C	1.354007	-0.413352	1.130889
C86	C	1.854007	0.086648	1.630889
C87	C	1.238945	-0.510197	1.124232
C88	C	1.738945	-0.010197	1.624232
C89	C	1.244342	-0.505662	1.030329
C90	C	1.744342	-0.005662	1.530329
C91	C	1.304575	-0.454971	0.986709
C92	C	1.804575	0.045029	1.486709
C93	C	1.309976	-0.450441	0.892804
C94	C	1.809976	0.049559	1.392804
C95	C	1.194910	-0.547281	0.886149
C96	C	1.694910	-0.047281	1.386149
C97	C	1.189513	-0.551816	0.980053
C98	C	1.689513	-0.051816	1.480053
H99	H	1.359021	-0.409167	0.857291
H100	H	1.859021	0.090833	1.357291
N101	N	0.614521	-0.388663	0.411252
N102	N	1.114521	0.111337	0.911252
N103	N	0.659397	-0.342362	0.362409
N104	N	1.159397	0.157638	0.862409
H105	H	0.627914	-0.301255	0.319049
H106	H	1.127914	0.198745	0.819049
N107	N	1.420915	-0.357031	0.992422
N108	N	1.920915	0.142969	1.492422
N109	N	1.392316	-0.301392	0.938212
N110	N	1.892316	0.198608	1.438212
H111	H	1.435759	-0.264816	0.906738
H112	H	1.935759	0.235184	1.406738
N113	N	0.758671	-0.341935	0.361928
N114	N	1.258671	0.158065	0.861928
N115	N	0.773906	-0.343739	0.279551
N116	N	1.273906	0.156261	0.779551
H117	H	0.742419	-0.302645	0.236178
H118	H	1.242419	0.197355	0.736178
H119	H	0.938087	-0.363010	0.384181
H120	H	1.438087	0.136990	0.884181
N121	N	1.410014	-0.366196	1.182231
N122	N	1.910014	0.133804	1.682231
N123	N	1.463782	-0.320939	1.143269
N124	N	1.963782	0.179061	1.643269
H125	H	1.503338	-0.287630	1.179529
H126	H	2.003338	0.212370	1.679529
N127	N	0.790992	-0.619025	0.654229
N128	N	1.290992	-0.119025	1.154229
N129	N	0.780835	-0.692550	0.647510
N130	N	1.280835	-0.192550	1.147510
H131	H	0.812328	-0.733664	0.690854
H132	H	1.312328	-0.233664	1.190854
H133	H	1.189907	-0.551467	1.159764
H134	H	1.689907	-0.051467	1.659764
N135	N	1.127978	-0.603575	1.024621
N136	N	1.627978	-0.103575	1.524621
N137	N	1.067687	-0.574595	1.073718
N138	N	1.567687	-0.074595	1.573718
H139	H	1.024226	-0.611148	1.105197
H140	H	1.524226	-0.111148	1.605197
N141	N	0.935131	-0.572281	0.604930
N142	N	1.435131	-0.072281	1.104930
N143	N	0.890248	-0.618577	0.653771
N144	N	1.390248	-0.118577	1.153771
H145	H	0.921724	-0.659688	0.697132
H146	H	1.421724	-0.159688	1.197132
N147	N	0.601177	-0.608673	0.643353
N148	N	1.101177	-0.108673	1.143353
N149	N	0.640162	-0.659536	0.697014
N150	N	1.140162	-0.159536	1.197014
H151	H	0.603919	-0.696951	0.736493
H152	H	1.103919	-0.196951	1.236493
N153	N	1.138905	-0.594424	0.834779
N154	N	1.638905	-0.094424	1.334779
N155	N	1.143731	-0.590370	0.750938
N156	N	1.643731	-0.090370	1.250938
H157	H	1.104180	-0.623665	0.714656
H158	H	1.604180	-0.123665	1.214656
