data_functionalizedCrystal
_audit_creation_method	'MofGen! by Chris Wilmer'
_symmetry_space_group_name_H-M	'P1'
_symmetry_Int_Tables_number	1
_symmetry_cell_setting	triclinic
loop_
_symmetry_equiv_pos_as_xyz
  x,y,z
_cell_length_a	9.065218
_cell_length_b	23.532407
_cell_length_c	8.140239
_cell_angle_alpha	89.991844
_cell_angle_beta	89.997198
_cell_angle_gamma	83.932281
loop_
_atom_site_label
_atom_site_type_symbol
_atom_site_fract_x
_atom_site_fract_y
_atom_site_fract_z
O1	O	1.956283	0.083497	-0.136637
O2	O	2.456283	0.583497	0.363363
O3	O	1.526661	0.090346	-0.136641
O4	O	2.026661	0.590346	0.363359
O5	O	1.754427	0.004085	-0.136609
O6	O	2.254427	0.504085	0.363391
O7	O	1.728517	0.169758	-0.136670
O8	O	2.228517	0.669758	0.363330
O9	O	1.754415	0.004084	0.136618
O10	O	2.254415	0.504084	0.636618
O11	O	1.526649	0.090345	0.136586
O12	O	2.026649	0.590345	0.636586
O13	O	1.956271	0.083496	0.136590
O14	O	2.456271	0.583496	0.636590
Zn15	Zn	1.741458	0.086921	0.179968
Zn16	Zn	2.241458	0.586921	0.679968
Zn17	Zn	1.741474	0.086922	-0.180020
Zn18	Zn	2.241474	0.586922	0.319980
O19	O	1.728504	0.169757	0.136558
O20	O	2.228504	0.669757	0.636558
C21	C	1.471701	0.089687	-0.000028
C22	C	1.971701	0.589687	0.499972
C23	C	1.307955	0.087719	-0.000028
C24	C	1.807955	0.587719	0.499972
C25	C	1.753761	-0.017136	0.000009
C26	C	2.253761	0.482864	0.500009
C27	C	1.751778	-0.080368	0.000021
C28	C	2.251778	0.419632	0.500021
C29	C	1.874123	-0.478573	-0.000068
C30	C	2.374123	0.021427	0.499932
C31	C	1.872280	-0.537986	-0.000080
C32	C	2.372280	-0.037986	0.499920
O33	O	1.985695	-0.573898	-0.000140
O34	O	2.485695	-0.073898	0.499860
N35	N	1.736873	-0.561607	-0.000080
N36	N	2.236873	-0.061607	0.499920
C37	C	1.603300	-0.525810	-0.000085
C38	C	2.103300	-0.025810	0.499915
O39	O	1.487956	-0.551356	-0.000087
O40	O	1.987956	-0.051356	0.499913
C41	C	1.605144	-0.466397	-0.000084
C42	C	2.105144	0.033603	0.499916
C43	C	1.740560	-0.442780	-0.000067
C44	C	2.240560	0.057220	0.499933
C45	C	2.009527	-0.454955	-0.000053
C46	C	2.509527	0.045045	0.499947
C47	C	2.011370	-0.395546	-0.000037
C48	C	2.511370	0.104454	0.499963
C49	C	1.877807	-0.359753	-0.000037
C50	C	2.377807	0.140247	0.499963
C51	C	1.742402	-0.383371	-0.000052
C52	C	2.242402	0.116629	0.499948
C53	C	1.471573	-0.430601	-0.000100
C54	C	1.971573	0.069399	0.499900
C55	C	1.473429	-0.371185	-0.000100
C56	C	1.973429	0.128815	0.499900
C57	C	1.608845	-0.347568	-0.000084
C58	C	2.108845	0.152432	0.499916
C59	C	1.610682	-0.288169	-0.000035
C60	C	2.110682	0.211831	0.499965
N61	N	1.746089	-0.264548	-0.000035
N62	N	2.246089	0.235452	0.499965
C63	C	1.879651	-0.300341	-0.000036
C64	C	2.379651	0.199659	0.499964
C65	C	1.599437	-0.650581	-0.000089
C66	C	2.099437	-0.150581	0.499911
C67	C	1.597591	-0.709992	-0.000078
C68	C	2.097591	-0.209992	0.499922
C69	C	1.866571	-0.722165	-0.000077
C70	C	2.366571	-0.222165	0.499923
C71	C	1.868416	-0.662752	-0.000076
C72	C	2.368416	-0.162752	0.499924
C73	C	1.734844	-0.626960	-0.000089
C74	C	2.234844	-0.126960	0.499911
C75	C	1.883510	-0.175576	-0.000002
C76	C	2.383510	0.324424	0.499998
C77	C	1.885340	-0.116160	0.000021
C78	C	2.385340	0.383840	0.500021
C79	C	1.616360	-0.103993	0.000011
C80	C	2.116360	0.396007	0.500011
C81	C	1.614529	-0.163403	-0.000003
C82	C	2.114529	0.336597	0.499997
C83	C	1.748116	-0.199194	-0.000015
C84	C	2.248116	0.300806	0.499985
O85	O	1.497326	-0.252222	0.000018
O86	O	1.997326	0.247778	0.500018
O87	O	1.994976	-0.274786	-0.000055
O88	O	2.494976	0.225214	0.499945
C89	C	2.011231	0.084155	-0.000027
C90	C	2.511231	0.584155	0.499973
C91	C	2.174977	0.086123	-0.000038
C92	C	2.674977	0.586123	0.499962
C93	C	1.729170	0.190979	-0.000064
C94	C	2.229170	0.690979	0.499936
C95	C	1.731154	0.254210	-0.000087
C96	C	2.231154	0.754210	0.499913
N97	N	1.741457	0.086919	0.425651
N98	N	2.241457	0.586919	0.925651
N99	N	1.741486	0.086919	-0.425703
N100	N	2.241486	0.586919	0.074297
H101	H	1.992289	-0.204710	-0.000018
H102	H	2.492289	0.295290	0.499982
H103	H	1.978683	-0.643528	-0.000064
H104	H	2.478683	-0.143528	0.499936
C105	C	2.154396	-0.493905	-0.000134
C106	C	2.654396	0.006095	0.499866
C107	C	2.123838	-0.550996	-0.000176
C108	C	2.623838	-0.050996	0.499824
C109	C	2.257263	-0.586888	-0.000261
C110	C	2.757263	-0.086888	0.499739
H111	H	2.210051	-0.486742	0.095124
H112	H	2.710051	0.013258	0.595124
H113	H	2.209972	-0.486694	-0.095449
H114	H	2.709972	0.013306	0.404551
H115	H	2.068286	-0.558204	0.095130
H116	H	2.568286	-0.058204	0.595130
H117	H	2.068204	-0.558177	-0.095427
H118	H	2.568204	-0.058177	0.404573
H119	H	2.312838	-0.579677	-0.095576
H120	H	2.812838	-0.079677	0.404424
H121	H	2.312908	-0.579720	0.094999
H122	H	2.812908	-0.079720	0.594999
H123	H	2.236547	-0.625627	-0.000304
H124	H	2.736547	-0.125627	0.499696
H125	H	1.975325	-0.751318	-0.000084
H126	H	2.475325	-0.251318	0.499916
C127	C	1.450611	-0.735662	0.000258
C128	C	1.950611	-0.235662	0.500258
C129	C	1.441658	-0.769413	0.140838
C130	C	1.941658	-0.269413	0.640838
C131	C	1.306269	-0.793061	0.141202
C132	C	1.806269	-0.293061	0.641202
H133	H	1.444154	-0.758617	-0.094918
H134	H	1.944154	-0.258617	0.405082
H135	H	1.371293	-0.705847	0.000349
H136	H	1.871293	-0.205847	0.500349
H137	H	1.520954	-0.799224	0.140732
H138	H	2.020954	-0.299224	0.640732
H139	H	1.448088	-0.746471	0.236036
H140	H	1.948088	-0.246471	0.736036
H141	H	1.226951	-0.763246	0.141294
H142	H	1.726951	-0.263246	0.641294
H143	H	1.299825	-0.816014	0.046021
H144	H	1.799825	-0.316014	0.546021
H145	H	1.300171	-0.815959	0.236591
H146	H	1.800171	-0.315959	0.736591
C147	C	1.467550	-0.189078	0.000331
C148	C	1.967550	0.310922	0.500331
C149	C	1.458600	-0.222834	0.140903
C150	C	1.958600	0.277166	0.640903
C151	C	1.323214	-0.246482	0.141261
C152	C	1.823214	0.253518	0.641261
H153	H	1.461095	-0.212031	-0.094850
H154	H	1.961095	0.287969	0.405150
H155	H	1.388230	-0.159264	0.000429
H156	H	1.888230	0.340736	0.500429
H157	H	1.537898	-0.252643	0.140791
H158	H	2.037898	0.247357	0.640791
H159	H	1.465029	-0.199893	0.236107
H160	H	1.965029	0.300107	0.736107
H161	H	1.243894	-0.216669	0.141359
H162	H	1.743894	0.283331	0.641359
H163	H	1.316771	-0.269433	0.046075
H164	H	1.816771	0.230567	0.546075
H165	H	1.317117	-0.269384	0.236645
H166	H	1.817117	0.230616	0.736645
H167	H	1.507618	-0.074840	0.000017
H168	H	2.007618	0.425160	0.500017
H169	H	1.995617	-0.096935	0.000038
H170	H	2.495617	0.403065	0.500038
H171	H	2.121639	-0.376323	-0.000030
H172	H	2.621639	0.123677	0.499970
H173	H	1.490659	-0.621442	-0.000085
H174	H	1.990659	-0.121442	0.499915
H175	H	1.361303	-0.449820	-0.000123
H176	H	1.861303	0.050180	0.499877
H177	H	1.364656	-0.342046	-0.000113
H178	H	1.864656	0.157954	0.499887
