data_functionalizedCrystal
_audit_creation_method	'MofGen! by Chris Wilmer'
_symmetry_space_group_name_H-M	'P1'
_symmetry_Int_Tables_number	1
_symmetry_cell_setting	triclinic
loop_
_symmetry_equiv_pos_as_xyz
  x,y,z
_cell_length_a	15.995350
_cell_length_b	14.044191
_cell_length_c	13.101039
_cell_angle_alpha	86.337551
_cell_angle_beta	86.633551
_cell_angle_gamma	91.657925
loop_
_atom_site_label
_atom_site_type_symbol
_atom_site_fract_x
_atom_site_fract_y
_atom_site_fract_z
O1	O	-0.197663	1.262919	-0.085147
O2	O	0.052337	1.512919	0.164853
O3	O	0.302337	1.762919	0.414853
O4	O	0.552337	2.012919	0.664853
O5	O	-0.190372	0.986950	-0.085161
O6	O	0.059628	1.236950	0.164839
O7	O	0.309628	1.486950	0.414839
O8	O	0.559628	1.736950	0.664839
O9	O	-0.072693	1.132478	-0.085158
O10	O	0.177307	1.382478	0.164842
O11	O	0.427307	1.632478	0.414842
O12	O	0.677307	1.882478	0.664842
O13	O	-0.315341	1.117390	-0.085150
O14	O	-0.065341	1.367390	0.164850
O15	O	0.184659	1.617390	0.414850
O16	O	0.434659	1.867390	0.664850
O17	O	-0.081152	1.122037	0.085272
O18	O	0.168848	1.372037	0.335272
O19	O	0.418848	1.622037	0.585272
O20	O	0.668848	1.872037	0.835272
O21	O	-0.198830	0.976509	0.085269
O22	O	0.051170	1.226509	0.335269
O23	O	0.301170	1.476509	0.585269
O24	O	0.551170	1.726509	0.835269
O25	O	-0.206121	1.252477	0.085282
O26	O	0.043879	1.502477	0.335282
O27	O	0.293879	1.752477	0.585282
O28	O	0.543879	2.002477	0.835282
Zn29	Zn	-0.203819	1.112835	0.112335
Zn30	Zn	0.046181	1.362835	0.362335
Zn31	Zn	0.296181	1.612835	0.612335
Zn32	Zn	0.546181	1.862835	0.862335
Zn33	Zn	-0.192674	1.126592	-0.112213
Zn34	Zn	0.057326	1.376592	0.137787
Zn35	Zn	0.307326	1.626592	0.387787
Zn36	Zn	0.557326	1.876592	0.637787
O37	O	-0.323800	1.106949	0.085279
O38	O	-0.073800	1.356949	0.335279
O39	O	0.176200	1.606949	0.585279
O40	O	0.426200	1.856949	0.835279
C41	C	-0.191411	0.946415	0.000052
C42	C	0.058589	1.196415	0.250052
C43	C	0.308589	1.446415	0.500052
C44	C	0.558589	1.696415	0.750052
C45	C	-0.181898	0.841189	0.000046
C46	C	0.068102	1.091189	0.250046
C47	C	0.318102	1.341189	0.500046
C48	C	0.568102	1.591189	0.750046
C49	C	-0.231977	0.590902	0.000058
C50	C	0.018023	0.840902	0.250058
C51	C	0.268023	1.090902	0.500058
C52	C	0.518023	1.340902	0.750058
C53	C	-0.164519	0.648531	0.000054
C54	C	0.085481	0.898531	0.250054
C55	C	0.335481	1.148531	0.500054
C56	C	0.585481	1.398531	0.750054
C57	C	-0.174191	0.755736	0.000050
C58	C	0.075809	1.005736	0.250050
C59	C	0.325809	1.255736	0.500050
C60	C	0.575809	1.505736	0.750050
C61	C	-0.222306	0.483687	0.000063
C62	C	0.027694	0.733687	0.250063
C63	C	0.277694	0.983687	0.500063
C64	C	0.527694	1.233687	0.750063
C65	C	-0.350812	1.112793	0.000065
C66	C	-0.100812	1.362793	0.250065
C67	C	0.149188	1.612793	0.500065
C68	C	0.399188	1.862793	0.750065
C69	C	-0.443902	1.114663	0.000068
C70	C	-0.193902	1.364663	0.250068
C71	C	0.056098	1.614663	0.500068
C72	C	0.306098	1.864663	0.750068
C73	C	-0.782151	1.121380	0.000053
C74	C	-0.532151	1.371380	0.250053
C75	C	-0.282151	1.621380	0.500053
C76	C	-0.032151	1.871380	0.750053
C77	C	-0.742441	1.225046	-0.000323
C78	C	-0.492441	1.475046	0.249677
C79	C	-0.242441	1.725046	0.499677
C80	C	0.007559	1.975046	0.749677
C81	C	-0.645631	1.223151	0.000067
C82	C	-0.395631	1.473151	0.250067
C83	C	-0.145631	1.723151	0.500067
C84	C	0.104369	1.973151	0.750067
C85	C	-0.614342	1.118048	0.000060
C86	C	-0.364342	1.368048	0.250060
C87	C	-0.114342	1.618048	0.500060
C88	C	0.135658	1.868048	0.750060
C89	C	-0.656435	1.060966	0.097377
C90	C	-0.406435	1.310966	0.347377
C91	C	-0.156435	1.560966	0.597377
C92	C	0.093565	1.810966	0.847377
C93	C	-0.753269	1.063565	0.097453
C94	C	-0.503269	1.313565	0.347453
C95	C	-0.253269	1.563565	0.597453
C96	C	-0.003269	1.813565	0.847453
C97	C	-0.743838	1.073297	-0.096357
C98	C	-0.493838	1.323297	0.153643
C99	C	-0.243838	1.573297	0.403643
C100	C	0.006162	1.823297	0.653643
C101	C	-0.646831	1.073400	-0.097638
C102	C	-0.396831	1.323400	0.152362
C103	C	-0.146831	1.573400	0.402362
C104	C	0.103169	1.823400	0.652362
C105	C	-0.519504	1.116160	0.000067
C106	C	-0.269504	1.366160	0.250067
C107	C	-0.019504	1.616160	0.500067
C108	C	0.230496	1.866160	0.750067
C109	C	-0.876989	1.123265	0.000052
C110	C	-0.626989	1.373265	0.250052
C111	C	-0.376989	1.623265	0.500052
C112	C	-0.126989	1.873265	0.750052
C113	C	-0.045681	1.126634	0.000054
C114	C	0.204319	1.376634	0.250054
C115	C	0.454319	1.626634	0.500054
C116	C	0.704319	1.876634	0.750054
C117	C	0.047410	1.124765	0.000044
C118	C	0.297410	1.374765	0.250044
C119	C	0.547410	1.624765	0.500044
C120	C	0.797410	1.874765	0.750044
C121	C	-0.205081	1.293013	0.000067
C122	C	0.044919	1.543013	0.250067
C123	C	0.294919	1.793013	0.500067
C124	C	0.544919	2.043013	0.750067
C125	C	-0.214595	1.398239	0.000066
C126	C	0.035405	1.648239	0.250066
C127	C	0.285405	1.898239	0.500066
C128	C	0.535405	2.148239	0.750066
N129	N	-0.211425	1.103453	0.265583
N130	N	0.038575	1.353453	0.515583
N131	N	0.288575	1.603453	0.765583
N132	N	0.538575	1.853453	1.015583
N133	N	-0.185062	1.135982	-0.265462
N134	N	0.064938	1.385982	-0.015462
N135	N	0.314938	1.635982	0.234538
N136	N	0.564938	1.885982	0.484538
C137	C	-0.221780	1.090689	0.474626
C138	C	0.028220	1.340689	0.724626
C139	C	0.278220	1.590689	0.974626
C140	C	0.528220	1.840689	1.224626
C141	C	-0.174709	1.148743	0.525503
C142	C	0.075291	1.398743	0.775503
C143	C	0.325291	1.648743	1.025503
C144	C	0.575291	1.898743	1.275503
C145	C	-0.180471	1.141641	0.641821
C146	C	0.069529	1.391641	0.891821
C147	C	0.319529	1.641641	1.141821
C148	C	0.569529	1.891641	1.391821
C149	C	-0.216019	1.097790	0.358297
C150	C	0.033981	1.347790	0.608297
C151	C	0.283981	1.597790	0.858297
C152	C	0.533981	1.847790	1.108297
H153	H	-0.099500	0.617361	-0.000020
H154	H	0.150500	0.867361	0.249980
H155	H	0.400500	1.117361	0.499980
H156	H	0.650500	1.367361	0.749980
Br157	Br	-0.340335	0.642861	0.000051
Br158	Br	-0.090335	0.892861	0.250051
Br159	Br	0.159665	1.142861	0.500051
Br160	Br	0.409665	1.392861	0.750051
Br161	Br	-0.100712	1.240875	0.452505
Br162	Br	0.149288	1.490875	0.702505
Br163	Br	0.399288	1.740875	0.952505
Br164	Br	0.649288	1.990875	1.202505
H165	H	-0.616745	1.267614	-0.069690
H166	H	-0.366745	1.517614	0.180310
H167	H	-0.116745	1.767614	0.430310
H168	H	0.133255	2.017614	0.680310
H169	H	-0.760589	1.270742	-0.070122
H170	H	-0.510589	1.520742	0.179878
H171	H	-0.260589	1.770742	0.429878
H172	H	-0.010589	2.020742	0.679878
H173	H	-0.768641	1.262076	0.069013
H174	H	-0.518641	1.512076	0.319013
H175	H	-0.268641	1.762076	0.569013
H176	H	-0.018641	2.012076	0.819013
H177	H	-0.266404	1.035657	0.518421
H178	H	-0.016404	1.285657	0.768421
H179	H	0.233596	1.535657	1.018421
H180	H	0.483596	1.785657	1.268421
H181	H	-0.624261	1.259321	0.069955
H182	H	-0.374261	1.509321	0.319955
H183	H	-0.124261	1.759321	0.569955
H184	H	0.125739	2.009321	0.819955
H185	H	-0.777970	1.096386	0.170205
H186	H	-0.527970	1.346386	0.420205
H187	H	-0.277970	1.596386	0.670205
H188	H	-0.027970	1.846386	0.920205
Br189	Br	-0.797914	0.936292	0.104826
Br190	Br	-0.547914	1.186292	0.354826
Br191	Br	-0.297914	1.436292	0.604826
Br192	Br	-0.047914	1.686292	0.854826
Br193	Br	-0.623582	0.931894	0.103406
Br194	Br	-0.373582	1.181894	0.353406
Br195	Br	-0.123582	1.431894	0.603406
Br196	Br	0.126418	1.681894	0.853406
Br197	Br	-0.619562	1.112751	0.218102
Br198	Br	-0.369562	1.362751	0.468102
Br199	Br	-0.119562	1.612751	0.718102
Br200	Br	0.130438	1.862751	0.968102
Br201	Br	-0.600017	1.142962	-0.217639
Br202	Br	-0.350017	1.392962	0.032361
Br203	Br	-0.100017	1.642962	0.282361
Br204	Br	0.149983	1.892962	0.532361
Br205	Br	-0.776193	1.137298	-0.219303
Br206	Br	-0.526193	1.387298	0.030697
Br207	Br	-0.276193	1.637298	0.280697
Br208	Br	-0.026193	1.887298	0.530697
H209	H	-0.625446	0.997117	-0.103523
H210	H	-0.375446	1.247117	0.146477
H211	H	-0.125446	1.497117	0.396477
H212	H	0.124554	1.747117	0.646477
H213	H	-0.769844	0.996916	-0.097008
H214	H	-0.519844	1.246916	0.152992
H215	H	-0.269844	1.496916	0.402992
H216	H	-0.019844	1.746916	0.652992
