data_functionalizedCrystal
_audit_creation_method	'MofGen! by Chris Wilmer'
_symmetry_space_group_name_H-M	'P1'
_symmetry_Int_Tables_number	1
_symmetry_cell_setting	triclinic
loop_
_symmetry_equiv_pos_as_xyz
  x,y,z
_cell_length_a	16.704494
_cell_length_b	12.970454
_cell_length_c	16.704493
_cell_angle_alpha	117.541551
_cell_angle_beta	85.847291
_cell_angle_gamma	56.632329
loop_
_atom_site_label
_atom_site_type_symbol
_atom_site_fract_x
_atom_site_fract_y
_atom_site_fract_z
Zr1	Zr	0.810316	1.021376	0.063624
O2	O	0.664787	1.255712	0.199280
O3	O	0.854928	0.800386	0.022037
O4	O	0.842025	1.017186	0.190155
O5	O	0.687867	1.037565	-0.101452
O6	O	0.981834	0.998699	0.182958
O7	O	0.677689	1.038913	0.031162
O8	O	1.004915	0.610884	-0.117775
O9	O	0.664787	1.425380	0.199281
O10	O	0.978293	0.872543	-0.001070
O11	O	0.881550	0.885334	-0.094667
O12	O	0.866359	1.140587	0.103271
O13	O	0.769617	1.153378	0.009674
Zr14	Zr	1.049527	0.989742	-0.159359
Zr15	Zr	1.033295	0.991892	0.052145
Zr16	Zr	0.826548	1.019226	-0.147880
Zr17	Zr	0.810316	1.291976	0.063625
Zr18	Zr	1.049527	0.719142	-0.159360
O19	O	1.004915	1.210733	-0.117772
O20	O	0.981834	1.213790	0.182959
O21	O	0.687867	1.252655	-0.101451
O22	O	1.195056	0.755406	-0.295016
O23	O	1.171976	0.758463	0.005715
O24	O	0.878009	0.797329	-0.278694
O25	O	1.171976	0.973554	0.005716
O26	O	1.017818	0.993933	-0.285891
O27	O	0.878009	1.012420	-0.278693
O28	O	1.182154	0.972206	-0.126898
O29	O	0.842025	1.401944	0.190157
O30	O	1.017818	0.609175	-0.285892
O31	O	1.195056	0.585739	-0.295016
O32	O	1.182154	0.587448	-0.126899
O33	O	0.677689	1.423671	0.031164
O34	O	0.854928	1.400235	0.022039
O35	O	0.993484	0.870531	-0.199006
O36	O	1.090226	0.857741	-0.105409
O37	O	0.978293	1.125785	-0.001069
O38	O	0.881550	1.138575	-0.094666
C39	C	0.929922	0.667080	-0.047869
C40	C	0.929922	0.552203	-0.047870
C41	C	0.651008	1.042439	-0.033509
C42	C	0.556348	1.054956	-0.028636
C43	C	0.495339	0.798613	-0.128435
C44	C	0.406400	0.810367	-0.123859
C45	C	0.289531	1.090215	-0.014914
C46	C	0.378470	1.078461	-0.019490
C47	C	0.481373	0.932656	-0.076251
C48	C	0.570312	0.920904	-0.080821
C49	C	0.453442	1.200750	0.028117
C50	C	0.364503	1.212504	0.032693
C51	C	1.208835	0.968679	-0.062226
C52	C	1.303495	0.956162	-0.067099
C53	C	0.909617	1.008249	0.216691
C54	C	0.902726	1.009161	0.306480
C55	C	0.929921	1.344039	-0.047866
C56	C	0.929921	1.458915	-0.047866
C57	C	1.043851	0.990477	0.467262
C58	C	1.037381	0.991334	0.551627
C59	C	0.883320	1.011721	0.559570
C60	C	0.889790	1.010864	0.475206
C61	C	0.970058	1.000244	0.429056
C62	C	0.976523	0.999398	0.344694
C63	C	0.822467	1.019774	0.352635
C64	C	0.815997	1.020631	0.437000
C65	C	0.950226	1.002870	0.687573
C66	C	0.957117	1.001957	0.597784
C67	C	1.208835	0.630200	-0.062227
C68	C	1.303495	0.502806	-0.067101
C69	C	0.950226	0.664391	-0.312428
C70	C	0.957117	0.548601	-0.402217
C71	C	1.229139	0.627511	-0.326786
C72	C	1.330691	0.499204	-0.421449
C73	C	0.630704	1.383608	0.231051
C74	C	0.529152	1.511914	0.325713
C75	C	0.651008	1.380919	-0.033508
C76	C	0.556348	1.508312	-0.028634
C77	C	0.909617	1.346728	0.216693
C78	C	0.902726	1.462517	0.306482
C79	C	1.289520	0.450708	-0.014917
C80	C	1.378453	0.331024	-0.019476
C81	C	1.481362	0.263434	-0.076225
C82	C	1.495335	0.315544	-0.128411
C83	C	1.406402	0.435232	-0.123846
C84	C	1.018782	0.486499	-0.498856
C85	C	1.025253	0.377718	-0.583231
C86	C	0.970065	0.331033	-0.570965
C87	C	0.908393	0.393148	-0.474315
C88	C	0.901916	0.501935	-0.389943
C89	C	1.428888	0.432273	-0.417047
C90	C	1.524315	0.311729	-0.505985
C91	C	1.521541	0.258113	-0.599323
C92	C	1.423333	0.325056	-0.603723
C93	C	1.327909	0.445605	-0.514786
C94	C	0.430955	1.578859	0.321312
C95	C	0.335528	1.699436	0.410250
C96	C	0.338302	1.753058	0.503588
C97	C	0.436510	1.686108	0.507987
C98	C	0.531934	1.565540	0.419050
C99	C	0.570322	1.560422	-0.080810
C100	C	0.481387	1.680136	-0.076228
C101	C	0.378479	1.747730	-0.019475
C102	C	0.364506	1.695615	0.032707
C103	C	0.453440	1.575911	0.028130
C104	C	0.957927	1.509166	0.294183
C105	C	0.951473	1.617945	0.378541
C106	C	0.889811	1.680082	0.475196
C107	C	0.834609	1.633424	0.487493
C108	C	0.841069	1.524638	0.403136
H109	H	0.654099	0.802181	-0.127045
H110	H	0.654108	1.505395	-0.127031
H111	H	0.442046	1.533488	0.070615
Br112	Br	1.635005	0.223793	-0.205428
Br113	Br	0.224836	1.787363	0.109721
H114	H	1.075477	0.327156	-0.661919
Br115	Br	0.224846	1.410372	0.109714
Br116	Br	0.665198	1.474693	0.425042
Br117	Br	0.978867	0.183391	-0.685483
H118	H	0.996425	1.655922	0.368509
Br119	Br	0.440256	1.758896	0.634670
H120	H	1.417796	0.477635	-0.166347
Br121	Br	1.419587	0.252273	-0.730405
Br122	Br	0.634994	0.600742	-0.205448
H123	H	1.063724	0.524496	-0.508863
H124	H	0.492785	1.722546	-0.118725
H125	H	0.863461	0.355121	-0.464343
Br126	Br	0.434484	1.382677	0.098975
H127	H	0.306072	1.845199	-0.015757
H128	H	0.851705	0.552485	-0.311258
H129	H	0.750647	1.029272	0.474583
H130	H	0.796113	1.486670	0.413164
H131	H	1.431166	0.475909	-0.341055
H132	H	1.008138	1.458589	0.215489
H133	H	0.762377	1.027734	0.321521
Br134	Br	1.602047	0.100998	-0.082411
Br135	Br	1.657581	0.220899	-0.499991
Br136	Br	1.651057	0.094508	-0.720016
Br137	Br	1.085452	0.984996	0.282066
Br138	Br	0.881053	1.827723	0.589672
Br139	Br	1.194645	0.536421	-0.520778
Br140	Br	0.425360	0.628445	-0.194688
Br141	Br	0.774404	1.026102	0.622198
H142	H	0.428676	1.535208	0.245320
Br143	Br	0.750919	1.717782	0.618677
Br144	Br	0.202262	1.790270	0.404255
H145	H	0.205736	1.208922	0.031283
H146	H	0.260594	1.851232	0.575998
H147	H	1.097471	0.983377	0.582731
Br148	Br	1.149869	0.542416	0.062112
H149	H	1.367055	0.288613	0.023021
Br150	Br	1.152770	0.976095	0.404640
