data_functionalizedCrystal
_audit_creation_method	'MofGen! by Chris Wilmer'
_symmetry_space_group_name_H-M	'P1'
_symmetry_Int_Tables_number	1
_symmetry_cell_setting	triclinic
loop_
_symmetry_equiv_pos_as_xyz
  x,y,z
_cell_length_a	19.288865
_cell_length_b	19.288864
_cell_length_c	18.366186
_cell_angle_alpha	90.022894
_cell_angle_beta	90.011479
_cell_angle_gamma	83.136245
loop_
_atom_site_label
_atom_site_type_symbol
_atom_site_fract_x
_atom_site_fract_y
_atom_site_fract_z
O1	O	-0.086649	-0.921353	-0.060791
O2	O	-0.098337	-0.719092	-0.060743
O3	O	0.008637	-0.826067	-0.060754
O4	O	-0.193623	-0.814378	-0.060780
O5	O	0.008643	-0.826049	0.060345
O6	O	-0.098332	-0.719074	0.060357
O7	O	-0.086643	-0.921335	0.060308
Zn8	Zn	-0.092487	-0.820201	0.079559
Zn9	Zn	-0.092494	-0.820225	-0.079994
O10	O	-0.193618	-0.814360	0.060319
C11	C	-0.097959	-0.693207	-0.000187
C12	C	-0.096830	-0.616103	-0.000167
C13	C	0.034516	-0.825682	-0.000202
C14	C	0.111620	-0.824553	-0.000195
C15	C	-0.087022	-0.947220	-0.000250
C16	C	-0.088151	-1.024324	-0.000274
C17	C	-0.219497	-0.814745	-0.000234
C18	C	-0.296601	-0.815874	-0.000246
C19	C	0.156316	-0.887321	-0.000207
C20	C	0.228763	-0.886260	-0.000218
C21	C	0.256511	-0.822428	-0.000203
C22	C	0.211805	-0.759652	-0.000196
C23	C	0.139359	-0.760714	-0.000192
C24	C	0.364800	-0.772242	0.042227
C25	C	0.437245	-0.771182	0.042228
C26	C	0.479956	-0.819148	-0.000219
C27	C	0.450216	-0.868186	-0.042657
C28	C	0.377771	-0.869248	-0.042653
C29	C	0.335065	-0.821269	-0.000208
C30	C	0.603209	-0.880770	-0.000244
C31	C	0.675657	-0.879707	-0.000259
C32	C	0.658697	-0.753097	-0.000230
C33	C	0.586250	-0.754162	-0.000221
C34	C	0.558511	-0.818001	-0.000225
N35	N	-0.092482	-0.820190	0.188451
C36	C	-0.159598	-0.571407	-0.000187
C37	C	-0.158537	-0.498960	-0.000195
C38	C	-0.094705	-0.471212	-0.000198
C39	C	-0.031929	-0.515918	-0.000174
C40	C	-0.032991	-0.588364	-0.000159
C41	C	-0.044527	-0.362956	-0.042642
C42	C	-0.043468	-0.290512	-0.042662
C43	C	-0.091425	-0.247767	-0.000241
C44	C	-0.140454	-0.277473	0.042189
C45	C	-0.141517	-0.349918	0.042205
C46	C	-0.093546	-0.392658	-0.000214
C47	C	-0.153047	-0.124514	-0.000269
C48	C	-0.151984	-0.052066	-0.000272
C49	C	-0.025374	-0.069026	-0.000259
C50	C	-0.026439	-0.141473	-0.000248
C51	C	-0.090278	-0.169212	-0.000256
N52	N	-0.092493	-0.820242	-0.188885
C53	C	-0.045137	-0.867574	0.226546
C54	C	-0.045134	-0.867578	0.302774
C55	C	-0.092488	-0.820206	0.340903
C56	C	-0.139836	-0.772813	0.302799
C57	C	-0.139834	-0.772805	0.226572
C58	C	-0.155775	-0.810907	0.461657
C59	C	-0.155779	-0.810920	0.537882
C60	C	-0.092496	-0.820225	0.576011
C61	C	-0.029207	-0.829533	0.537905
C62	C	-0.029204	-0.829525	0.461679
C63	C	-0.092496	-0.820208	0.423558
C64	C	-0.045144	-0.867617	0.696761
C65	C	-0.045140	-0.867616	0.772990
C66	C	-0.139849	-0.772854	0.773014
C67	C	-0.139847	-0.772851	0.696786
C68	C	-0.092495	-0.820236	0.658664
H69	H	0.265162	-0.937375	-0.000231
N70	N	-0.224038	-0.800876	0.578976
H71	H	-0.214439	-0.802297	0.633050
H72	H	-0.252872	-0.839393	0.565622
N73	N	0.091142	-0.693014	-0.000165
H74	H	0.060691	-0.690640	-0.045052
H75	H	0.119755	-0.652451	-0.000130
H76	H	0.353560	-0.909175	-0.077208
H77	H	0.020044	-0.493322	-0.000187
N78	N	0.039053	-0.839562	0.420581
H79	H	0.029449	-0.838148	0.366508
H80	H	0.065490	-0.886215	0.433888
H81	H	0.484991	-0.907244	-0.077221
H82	H	-0.209652	-0.462561	-0.000209
N83	N	0.005951	-0.918698	0.655640
H84	H	-0.001229	-0.911501	0.601569
H85	H	-0.001929	-0.967953	0.668928
H86	H	-0.207311	-0.803318	0.430619
H87	H	0.580622	-0.932751	-0.000250
H88	H	-0.003548	-0.266331	-0.077215
N89	N	0.688623	-0.684252	-0.000208
H90	H	0.672320	-0.656757	0.044692
H91	H	0.672293	-0.656821	-0.045121
N92	N	-0.194386	-0.381965	0.087970
H93	H	-0.243075	-0.362825	0.072128
H94	H	-0.187665	-0.370189	0.140894
N95	N	0.039057	-0.839587	0.579014
H96	H	0.067929	-0.801078	0.565774
H97	H	0.065458	-0.886264	0.565703
N98	N	-0.228449	-0.601326	-0.000201
H99	H	-0.268051	-0.562013	-0.000217
H100	H	-0.231653	-0.630990	0.044696
N101	N	-0.192189	-0.231380	0.087943
H102	H	-0.184077	-0.180979	0.081500
H103	H	-0.185880	-0.244886	0.140866
H104	H	-0.006582	-0.906200	0.804008
N105	N	-0.190902	-0.721693	0.185485
H106	H	-0.240181	-0.729534	0.198734
H107	H	-0.183657	-0.728901	0.131423
N108	N	-0.190920	-0.721752	0.814128
H109	H	-0.183737	-0.728945	0.868198
H110	H	-0.240175	-0.729616	0.800789
H111	H	-0.005473	-0.397755	-0.077191
N112	N	0.043473	-0.039105	-0.000255
H113	H	0.046736	-0.009449	-0.045151
H114	H	0.083037	-0.078454	-0.000215
N115	N	-0.190910	-0.721720	0.343925
H116	H	-0.240188	-0.729557	0.330640
H117	H	-0.182971	-0.672472	0.330673
H118	H	-0.006579	-0.906156	0.195509
N119	N	0.034715	-0.636572	-0.000137
H120	H	0.062574	-0.627695	-0.045026
H121	H	0.024300	-0.686656	-0.000101
H122	H	0.133736	-0.939303	-0.000212
H123	H	0.712049	-0.930822	-0.000273
N124	N	0.538036	-0.686462	-0.000205
H125	H	0.566605	-0.645862	-0.000196
H126	H	0.507619	-0.684139	0.044691
N127	N	-0.219687	-0.003854	-0.000235
H128	H	-0.260286	-0.032423	-0.000222
H129	H	-0.222037	0.026576	-0.045116
H130	H	0.461452	-0.731250	0.076779
H131	H	-0.205028	-0.147101	-0.000265
N132	N	0.041261	-0.189687	-0.000227
H133	H	0.081861	-0.161118	-0.000229
H134	H	0.043578	-0.220141	-0.045112
H135	H	0.330029	-0.733180	0.076796
N136	N	-0.190912	-0.721743	0.655692
H137	H	-0.220910	-0.691732	0.691411
H138	H	-0.221552	-0.748230	0.624041
H139	H	0.234401	-0.707679	-0.000185
H140	H	-0.006578	-0.906165	0.333797
