data_functionalizedCrystal
_audit_creation_method	'MofGen! by Chris Wilmer'
_symmetry_space_group_name_H-M	'P1'
_symmetry_Int_Tables_number	1
_symmetry_cell_setting	triclinic
loop_
_symmetry_equiv_pos_as_xyz
  x,y,z
_cell_length_a	15.944545
_cell_length_b	15.944551
_cell_length_c	10.065875
_cell_angle_alpha	98.788968
_cell_angle_beta	81.255204
_cell_angle_gamma	83.497455
loop_
_atom_site_label
_atom_site_type_symbol
_atom_site_fract_x
_atom_site_fract_y
_atom_site_fract_z
O1	O	1.126807	0.095970	-0.113407
O2	O	0.882259	0.109329	-0.113429
O3	O	1.011210	-0.019624	-0.113405
O4	O	0.997856	0.224923	-0.113431
O5	O	0.986621	0.005064	0.113579
O6	O	0.857670	0.134018	0.113555
O7	O	1.102218	0.120658	0.113578
Zn8	Zn	0.976040	0.131258	0.149605
Zn9	Zn	1.008437	0.098730	-0.149456
O10	O	0.973267	0.249612	0.113553
C11	C	0.838671	0.121119	0.000060
C12	C	0.745426	0.119458	0.000052
C13	C	0.474790	0.034567	0.000075
C14	C	0.513248	0.087669	0.111989
C15	C	0.409779	0.113540	0.000076
C16	C	0.537472	0.063349	-0.111799
C17	C	0.574694	0.116443	0.000062
C18	C	0.446999	0.166631	0.112082
C19	C	0.471230	0.142289	-0.111807
C20	C	0.509652	0.195451	0.000135
C21	C	0.314776	0.111866	0.000085
C22	C	0.669693	0.118125	0.000062
C23	C	0.998361	-0.038574	0.000087
C24	C	0.996699	-0.131820	0.000088
C25	C	0.912797	-0.346677	0.000061
C26	C	0.939635	-0.395522	0.111982
C27	C	0.993692	-0.302547	0.000077
C28	C	0.963897	-0.419846	-0.111807
C29	C	0.990783	-0.467461	0.000061
C30	C	1.020543	-0.350153	0.112090
C31	C	1.044804	-0.374482	-0.111799
C32	C	1.071698	-0.423306	0.000149
C33	C	0.995366	-0.207543	0.000088
C34	C	0.989115	-0.562462	0.000060
C35	C	1.145807	0.108868	0.000085
C36	C	1.239053	0.110528	0.000084
C37	C	0.986117	0.268561	0.000058
C38	C	0.987780	0.361806	0.000049
N39	N	0.953936	0.153457	0.353706
N40	N	1.030548	0.076524	-0.353558
C41	C	1.000741	0.106448	0.421494
C42	C	0.983736	0.123540	0.578658
H43	H	0.576638	0.019693	-0.206408
O44	O	0.884191	0.223547	0.430931
H45	H	0.821598	0.210047	0.403615
H46	H	1.089241	-0.364644	-0.206418
H47	H	1.138898	-0.456459	0.000218
O48	O	0.913987	0.193624	0.655901
H49	H	0.927831	0.256097	0.628534
H50	H	0.531929	0.064608	0.206611
O51	O	0.454024	-0.055501	0.000220
H52	H	0.470608	-0.077973	0.093270
O53	O	1.070497	0.036367	0.344277
H54	H	1.056646	-0.026103	0.371646
H55	H	0.452534	0.165320	-0.206432
O56	O	0.395258	0.224409	0.237567
H57	H	0.325951	0.222697	0.236620
H58	H	1.083210	0.023619	0.588131
H59	H	0.845637	-0.313357	0.000167
H60	H	0.525138	0.263522	0.000193
H61	H	0.895169	-0.405339	0.206596
O62	O	0.932143	-0.460088	-0.237145
H63	H	0.866180	-0.429057	-0.236905
H64	H	1.044469	-0.319861	0.206814
