data_functionalizedCrystal
_audit_creation_method	'MofGen! by Chris Wilmer'
_symmetry_space_group_name_H-M	'P1'
_symmetry_Int_Tables_number	1
_symmetry_cell_setting	triclinic
loop_
_symmetry_equiv_pos_as_xyz
  x,y,z
_cell_length_a	10.686220
_cell_length_b	10.686285
_cell_length_c	10.685986
_cell_angle_alpha	98.412590
_cell_angle_beta	80.968697
_cell_angle_gamma	90.345431
loop_
_atom_site_label
_atom_site_type_symbol
_atom_site_fract_x
_atom_site_fract_y
_atom_site_fract_z
Zn1	Zn	1.911629	-0.313768	0.543006
Zn2	Zn	2.411629	0.186232	1.043006
Zn3	Zn	1.946573	-0.539858	0.312019
Zn4	Zn	2.446573	-0.039858	0.812019
Zn5	Zn	1.718138	-0.343930	0.344534
Zn6	Zn	2.218138	0.156070	0.844534
Zn7	Zn	1.718162	-0.539769	0.540470
Zn8	Zn	2.218162	-0.039769	1.040470
O9	O	1.823625	-0.434331	0.435007
O10	O	2.323625	0.065669	0.935007
O11	O	2.092831	-0.331174	0.499818
O12	O	2.592831	0.168826	0.999818
O13	O	1.930884	-0.526528	0.137663
O14	O	2.430884	-0.026528	0.637663
O15	O	1.729171	-0.163350	0.385531
O16	O	2.229171	0.336650	0.885531
O17	O	2.118504	-0.497282	0.330113
O18	O	2.618504	0.002718	0.830113
O19	O	1.871328	-0.141190	0.531347
O20	O	2.371328	0.358810	1.031347
O21	O	1.763055	-0.382580	0.161552
O22	O	2.263055	0.117420	0.661552
O23	O	1.541574	-0.382493	0.383072
O24	O	2.041574	0.117507	0.883072
O25	O	1.729212	-0.497129	0.719475
O26	O	2.229212	0.002871	1.219475
O27	O	1.541592	-0.526375	0.527026
O28	O	2.041592	-0.026375	1.027026
O29	O	1.871351	-0.331087	0.721338
O30	O	2.371351	0.168913	1.221338
O31	O	1.930907	-0.716425	0.327655
O32	O	2.430907	-0.216425	0.827655
O33	O	1.763095	-0.716359	0.495497
O34	O	2.263095	-0.216359	0.995497
C35	C	1.495801	-0.457698	0.458303
C36	C	1.995801	0.042302	0.958303
C37	C	1.355557	-0.467723	0.468297
C38	C	1.855557	0.032277	0.968297
C39	C	1.850828	-0.762173	0.407798
C40	C	2.350828	-0.262173	0.907798
C41	C	1.862577	-0.902413	0.396192
C42	C	2.362577	-0.402413	0.896192
C43	C	2.152730	-0.410874	0.411621
C44	C	2.652730	0.089126	0.911621
C45	C	2.292974	-0.400877	0.401655
C46	C	2.792974	0.099123	0.901655
C47	C	1.796386	-0.410734	0.768029
C48	C	2.296386	0.089266	1.268029
C49	C	1.784779	-0.400678	0.909943
C50	C	2.284779	0.099322	1.409943
C51	C	1.796349	-0.105205	0.462348
C52	C	2.296349	0.394795	0.962348
C53	C	1.784725	0.035049	0.474000
C54	C	2.284725	0.535049	0.974000
C55	C	1.850824	-0.457741	0.103284
C56	C	2.350824	0.042259	0.603284
C57	C	1.862646	-0.467423	-0.038618
C58	C	2.362646	0.032577	0.461382
H59	H	1.301840	-0.532634	0.532994
H60	H	1.801840	-0.032634	1.032994
Cl61	Cl	1.375898	-0.300677	0.301758
Cl62	Cl	1.875898	0.199323	0.801758
Cl63	Cl	1.668140	-0.300569	1.009572
Cl64	Cl	2.168140	0.199431	1.509572
H65	H	1.709086	-0.911205	0.549495
H66	H	2.209086	-0.411205	1.049495
Cl67	Cl	1.979355	-0.985398	0.279611
Cl68	Cl	2.479355	-0.485398	0.779611
H69	H	1.938195	-0.532249	0.896854
H70	H	2.438195	-0.032249	1.396854
