data_functionalizedCrystal
_audit_creation_method	'MofGen! by Chris Wilmer'
_symmetry_space_group_name_H-M	'P1'
_symmetry_Int_Tables_number	1
_symmetry_cell_setting	triclinic
loop_
_symmetry_equiv_pos_as_xyz
  x,y,z
_cell_length_a	18.215407
_cell_length_b	19.077114
_cell_length_c	18.215399
_cell_angle_alpha	87.729790
_cell_angle_beta	89.982632
_cell_angle_gamma	87.674258
loop_
_atom_site_label
_atom_site_type_symbol
_atom_site_fract_x
_atom_site_fract_y
_atom_site_fract_z
Zn1	Zn	1.113279	0.280256	-0.427834
Zn2	Zn	1.363279	0.530256	-0.177834
Zn3	Zn	1.613279	0.780256	0.072166
Zn4	Zn	1.863279	1.030256	0.322166
Zn5	Zn	1.108234	0.397958	-0.309709
Zn6	Zn	1.358234	0.647958	-0.059709
Zn7	Zn	1.608234	0.897958	0.190291
Zn8	Zn	1.858234	1.147958	0.440291
Zn9	Zn	0.990211	0.280273	-0.304787
Zn10	Zn	1.240211	0.530273	-0.054787
Zn11	Zn	1.490211	0.780273	0.195213
Zn12	Zn	1.740211	1.030273	0.445213
Zn13	Zn	0.985226	0.397912	-0.432737
Zn14	Zn	1.235226	0.647912	-0.182737
Zn15	Zn	1.485226	0.897912	0.067263
Zn16	Zn	1.735226	1.147912	0.317263
O17	O	1.049237	0.339100	-0.368767
O18	O	1.299237	0.589100	-0.118767
O19	O	1.549237	0.839100	0.131233
O20	O	1.799237	1.089100	0.381233
O21	O	1.215593	0.295881	-0.412172
O22	O	1.465593	0.545881	-0.162172
O23	O	1.715593	0.795881	0.087828
O24	O	1.965593	1.045881	0.337828
O25	O	1.092553	0.382373	-0.206073
O26	O	1.342553	0.632373	0.043927
O27	O	1.592553	0.882373	0.293927
O28	O	1.842553	1.132373	0.543927
O29	O	1.010733	0.181780	-0.316997
O30	O	1.260733	0.431780	-0.066997
O31	O	1.510733	0.681780	0.183003
O32	O	1.760733	0.931780	0.433003
O33	O	1.211887	0.382356	-0.325386
O34	O	1.461887	0.632356	-0.075386
O35	O	1.711887	0.882356	0.174614
O36	O	1.961887	1.132356	0.424614
O37	O	1.101151	0.181768	-0.407399
O38	O	1.351151	0.431768	-0.157399
O39	O	1.601151	0.681768	0.092601
O40	O	1.851151	0.931768	0.342601
O41	O	1.005841	0.295910	-0.202457
O42	O	1.255841	0.545910	0.047543
O43	O	1.505841	0.795910	0.297543
O44	O	1.755841	1.045910	0.547543
O45	O	0.886566	0.295866	-0.321752
O46	O	1.136566	0.545866	-0.071752
O47	O	1.386566	0.795866	0.178248
O48	O	1.636566	1.045866	0.428248
O49	O	1.002238	0.382279	-0.535070
O50	O	1.252238	0.632279	-0.285070
O51	O	1.502238	0.882279	-0.035070
O52	O	1.752238	1.132279	0.214930
O53	O	0.882904	0.382295	-0.415757
O54	O	1.132904	0.632295	-0.165757
O55	O	1.382904	0.882295	0.084243
O56	O	1.632904	1.132295	0.334243
O57	O	1.096317	0.295838	-0.531467
O58	O	1.346317	0.545838	-0.281467
O59	O	1.596317	0.795838	-0.031467
O60	O	1.846317	1.045838	0.218533
O61	O	1.087720	0.496443	-0.330141
O62	O	1.337720	0.746443	-0.080141
O63	O	1.587720	0.996443	0.169859
O64	O	1.837720	1.246443	0.419859
O65	O	0.997346	0.496409	-0.420529
O66	O	1.247346	0.746409	-0.170529
O67	O	1.497346	0.996409	0.079471
O68	O	1.747346	1.246409	0.329471
C69	C	0.858032	0.339078	-0.368753
C70	C	1.108032	0.589078	-0.118753
C71	C	1.358032	0.839078	0.131247
C72	C	1.608032	1.089078	0.381247
C73	C	0.776233	0.339086	-0.368765
C74	C	1.026233	0.589086	-0.118765
C75	C	1.276233	0.839086	0.131235
C76	C	1.526233	1.089086	0.381235
C77	C	0.589964	0.294151	-0.414033
C78	C	0.839964	0.544151	-0.164033
C79	C	1.089964	0.794151	0.085967
C80	C	1.339964	1.044151	0.335967
C81	C	0.513105	0.294157	-0.414035
C82	C	0.763105	0.544157	-0.164035
C83	C	1.013105	0.794157	0.085965
C84	C	1.263105	1.044157	0.335965
C85	C	0.509262	0.384068	-0.323514
C86	C	0.759262	0.634068	-0.073514
C87	C	1.009262	0.884068	0.176486
C88	C	1.259262	1.134068	0.426486
C89	C	0.586120	0.384058	-0.323508
C90	C	0.836120	0.634058	-0.073508
C91	C	1.086120	0.884058	0.176492
C92	C	1.336120	1.134058	0.426492
C93	C	0.626469	0.339101	-0.368772
C94	C	0.876469	0.589101	-0.118772
C95	C	1.126469	0.839101	0.131228
C96	C	1.376469	1.089101	0.381228
C97	C	0.472752	0.339117	-0.368780
C98	C	0.722752	0.589117	-0.118780
C99	C	0.972752	0.839117	0.131220
C100	C	1.222752	1.089117	0.381220
C101	C	0.389418	0.339124	-0.368783
C102	C	0.639418	0.589124	-0.118783
C103	C	0.889418	0.839124	0.131217
C104	C	1.139418	1.089124	0.381217
C105	C	0.709808	0.339093	-0.368768
C106	C	0.959808	0.589093	-0.118768
C107	C	1.209808	0.839093	0.131232
C108	C	1.459808	1.089093	0.381232
C109	C	1.041465	0.521964	-0.376417
C110	C	1.291465	0.771964	-0.126417
C111	C	1.541465	1.021964	0.123583
C112	C	1.791465	1.271964	0.373583
C113	C	1.038207	0.600193	-0.379715
C114	C	1.288207	0.850193	-0.129715
C115	C	1.538207	1.100193	0.120285
C116	C	1.788207	1.350193	0.370285
C117	C	1.083765	0.636940	-0.334243
C118	C	1.333765	0.886940	-0.084243
C119	C	1.583765	1.136940	0.165757
C120	C	1.833765	1.386940	0.415757
C121	C	1.080706	0.710445	-0.337348
C122	C	1.330706	0.960445	-0.087348
C123	C	1.580706	1.210445	0.162652
C124	C	1.830706	1.460445	0.412652
C125	C	1.032083	0.747203	-0.385923
C126	C	1.282083	0.997203	-0.135923
C127	C	1.532083	1.247203	0.114077
C128	C	1.782083	1.497203	0.364077
C129	C	0.986523	0.710451	-0.431400
C130	C	1.236523	0.960451	-0.181400
C131	C	1.486523	1.210451	0.068600
C132	C	1.736523	1.460451	0.318600
C133	C	0.989587	0.636947	-0.428298
C134	C	1.239587	0.886947	-0.178298
C135	C	1.489587	1.136947	0.071702
C136	C	1.739587	1.386947	0.321702
C137	C	1.017873	0.967037	-0.400248
C138	C	1.267873	1.217037	-0.150248
C139	C	1.517873	1.467037	0.099752
C140	C	1.767873	1.717037	0.349752
C141	C	1.014811	1.040546	-0.403346
C142	C	1.264811	1.290546	-0.153346
C143	C	1.514811	1.540546	0.096654
C144	C	1.764811	1.790546	0.346654
C145	C	1.108995	1.040535	-0.309295
C146	C	1.358995	1.290535	-0.059295
C147	C	1.608995	1.540535	0.190705
C148	C	1.858995	1.790535	0.440705
C149	C	1.112052	0.967030	-0.306193
C150	C	1.362052	1.217030	-0.056193
C151	C	1.612052	1.467030	0.193807
C152	C	1.862052	1.717030	0.443807
C153	C	1.066494	0.930284	-0.351673
C154	C	1.316494	1.180284	-0.101673
C155	C	1.566494	1.430284	0.148327
C156	C	1.816494	1.680284	0.398327
N157	N	1.028953	0.822337	-0.389097
N158	N	1.278953	1.072337	-0.139097
N159	N	1.528953	1.322337	0.110903
N160	N	1.778953	1.572337	0.360903
N161	N	1.069629	0.855151	-0.348502
N162	N	1.319629	1.105151	-0.098502
N163	N	1.569629	1.355151	0.151498
N164	N	1.819629	1.605151	0.401498
C165	C	1.241189	0.339122	-0.368781
C166	C	1.491189	0.589122	-0.118781
C167	C	1.741189	0.839122	0.131219
C168	C	1.991189	1.089122	0.381219
C169	C	1.322988	0.339132	-0.368787
C170	C	1.572988	0.589132	-0.118787
C171	C	1.822988	0.839132	0.131213
C172	C	2.072988	1.089132	0.381213
C173	C	1.049284	0.339051	-0.560718
C174	C	1.299284	0.589051	-0.310718
C175	C	1.549284	0.839051	-0.060718
C176	C	1.799284	1.089051	0.189282
C177	C	1.049304	0.339031	-0.642516
C178	C	1.299304	0.589031	-0.392516
C179	C	1.549304	0.839031	-0.142516
C180	C	1.799304	1.089031	0.107484
C181	C	1.057054	1.155522	-0.361112
C182	C	1.307054	1.405522	-0.111112
C183	C	1.557054	1.655522	0.138888
C184	C	1.807054	1.905522	0.388888
C185	C	1.060370	1.077292	-0.357874
C186	C	1.310370	1.327292	-0.107874
C187	C	1.560370	1.577292	0.142126
C188	C	1.810370	1.827292	0.392126
C189	C	1.098310	0.293978	-0.828833
C190	C	1.348310	0.543978	-0.578833
C191	C	1.598310	0.793978	-0.328833
C192	C	1.848310	1.043978	-0.078833
C193	C	1.098320	0.293958	-0.905691
C194	C	1.348320	0.543958	-0.655691
C195	C	1.598320	0.793958	-0.405691
C196	C	1.848320	1.043958	-0.155691
C197	C	1.000355	0.383974	-0.909431
C198	C	1.250355	0.633974	-0.659431
C199	C	1.500355	0.883974	-0.409431
C200	C	1.750355	1.133974	-0.159431
C201	C	1.000342	0.383990	-0.832575
C202	C	1.250342	0.633990	-0.582575
C203	C	1.500342	0.883990	-0.332575
C204	C	1.750342	1.133990	-0.082575
C205	C	1.049324	0.338994	-0.792278
C206	C	1.299324	0.588994	-0.542278
C207	C	1.549324	0.838994	-0.292278
C208	C	1.799324	1.088994	-0.042278
C209	C	1.049346	0.338957	-0.945992
C210	C	1.299346	0.588957	-0.695992
C211	C	1.549346	0.838957	-0.445992
C212	C	1.799346	1.088957	-0.195992
C213	C	1.049356	0.338935	-1.029325
C214	C	1.299356	0.588935	-0.779325
C215	C	1.549356	0.838935	-0.529325
C216	C	1.799356	1.088935	-0.279325
C217	C	1.049313	0.339014	-0.708940
C218	C	1.299313	0.589014	-0.458940
C219	C	1.549313	0.839014	-0.208940
C220	C	1.799313	1.089014	0.041060
C221	C	1.049235	0.339097	-0.177560
C222	C	1.299235	0.589097	0.072440
C223	C	1.549235	0.839097	0.322440
C224	C	1.799235	1.089097	0.572440
C225	C	1.049366	0.338920	-0.095754
C226	C	1.299366	0.588920	0.154246
C227	C	1.549366	0.838920	0.404246
C228	C	1.799366	1.088920	0.654246
H229	H	0.615843	0.420662	-0.286647
H230	H	0.865843	0.670662	-0.036647
H231	H	1.115843	0.920662	0.213353
H232	H	1.365843	1.170662	0.463353
H233	H	0.980777	0.937124	-0.437278
H234	H	1.230777	1.187124	-0.187278
H235	H	1.480777	1.437124	0.062722
H236	H	1.730777	1.687124	0.312722
H237	H	0.975225	1.070471	-0.442914
H238	H	1.225225	1.320471	-0.192914
H239	H	1.475225	1.570471	0.057086
H240	H	1.725225	1.820471	0.307086
H241	H	0.476401	0.420672	-0.286663
H242	H	0.726401	0.670672	-0.036663
H243	H	0.976401	0.920672	0.213337
H244	H	1.226401	1.170672	0.463337
Cl245	Cl	1.173191	0.920826	-0.245135
Cl246	Cl	1.423191	1.170826	0.004865
Cl247	Cl	1.673191	1.420826	0.254865
Cl248	Cl	1.923191	1.670826	0.504865
Cl249	Cl	1.144890	0.590738	-0.273169
Cl250	Cl	1.394890	0.840738	-0.023169
Cl251	Cl	1.644890	1.090738	0.226831
Cl252	Cl	1.894890	1.340738	0.476831
H253	H	0.483386	0.257554	-0.450890
H254	H	0.733386	0.507554	-0.200890
H255	H	0.983386	0.757554	0.049110
H256	H	1.233386	1.007554	0.299110
H257	H	1.146087	1.070461	-0.272269
H258	H	1.396087	1.320461	-0.022269
H259	H	1.646087	1.570461	0.227731
H260	H	1.896087	1.820461	0.477731
H261	H	1.138192	0.257337	-0.796025
H262	H	1.388192	0.507337	-0.546025
H263	H	1.638192	0.757337	-0.296025
H264	H	1.888192	1.007337	-0.046025
Cl265	Cl	1.137985	0.756638	-0.280183
Cl266	Cl	1.387985	1.006638	-0.030183
Cl267	Cl	1.637985	1.256638	0.219817
Cl268	Cl	1.887985	1.506638	0.469817
H269	H	0.946936	0.740385	-0.470954
H270	H	1.196936	0.990385	-0.220954
H271	H	1.446936	1.240385	0.029046
H272	H	1.696936	1.490385	0.279046
Cl273	Cl	0.932313	0.590751	-0.485468
Cl274	Cl	1.182313	0.840751	-0.235468
Cl275	Cl	1.432313	1.090751	0.014532
Cl276	Cl	1.682313	1.340751	0.264532
H277	H	1.138208	0.257301	-0.935451
H278	H	1.388208	0.507301	-0.685451
H279	H	1.638208	0.757301	-0.435451
H280	H	1.888208	1.007301	-0.185451
Cl281	Cl	0.938785	0.440542	-0.960096
Cl282	Cl	1.188785	0.690542	-0.710096
Cl283	Cl	1.438785	0.940542	-0.460096
Cl284	Cl	1.688785	1.190542	-0.210096
H285	H	0.960447	0.420647	-0.802811
H286	H	1.210447	0.670647	-0.552811
H287	H	1.460447	0.920647	-0.302811
H288	H	1.710447	1.170647	-0.052811
Cl289	Cl	0.640685	0.237630	-0.470932
Cl290	Cl	0.890685	0.487630	-0.220932
Cl291	Cl	1.140685	0.737630	0.029068
Cl292	Cl	1.390685	0.987630	0.279068
