data_functionalizedCrystal
_audit_creation_method	'MofGen! by Chris Wilmer'
_symmetry_space_group_name_H-M	'P1'
_symmetry_Int_Tables_number	1
_symmetry_cell_setting	triclinic
loop_
_symmetry_equiv_pos_as_xyz
  x,y,z
_cell_length_a	29.839131
_cell_length_b	29.839134
_cell_length_c	29.839125
_cell_angle_alpha	90.023632
_cell_angle_beta	89.988394
_cell_angle_gamma	89.963719
loop_
_atom_site_label
_atom_site_type_symbol
_atom_site_fract_x
_atom_site_fract_y
_atom_site_fract_z
Zn1	Zn	-0.179005	-0.686727	-0.254125
Zn2	Zn	0.320995	-0.186727	0.245875
Zn3	Zn	-0.254109	-0.686657	-0.178995
Zn4	Zn	0.245891	-0.186657	0.321005
Zn5	Zn	-0.178987	-0.611608	-0.178995
Zn6	Zn	0.321013	-0.111608	0.321005
Zn7	Zn	-0.254102	-0.611557	-0.254083
Zn8	Zn	0.245898	-0.111557	0.245917
O9	O	-0.216551	-0.649137	-0.216549
O10	O	0.283449	-0.149137	0.283451
O11	O	-0.188978	-0.749585	-0.244176
O12	O	0.311022	-0.249585	0.255824
O13	O	-0.244139	-0.676693	-0.116128
O14	O	0.255861	-0.176693	0.383872
O15	O	-0.116122	-0.621623	-0.188978
O16	O	0.383878	-0.121623	0.311022
O17	O	-0.244157	-0.749533	-0.188979
O18	O	0.255843	-0.249533	0.311021
O19	O	-0.116135	-0.676812	-0.244176
O20	O	0.383865	-0.176812	0.255824
O21	O	-0.188948	-0.621555	-0.116127
O22	O	0.311052	-0.121555	0.383873
O23	O	-0.188941	-0.548734	-0.188938
O24	O	0.311059	-0.048734	0.311062
O25	O	-0.244145	-0.621537	-0.316956
O26	O	0.255855	-0.121537	0.183044
O27	O	-0.244127	-0.548697	-0.244105
O28	O	0.255873	-0.048697	0.255895
O29	O	-0.188971	-0.676764	-0.316987
O30	O	0.311029	-0.176764	0.183013
O31	O	-0.316975	-0.676645	-0.188938
O32	O	0.183025	-0.176645	0.311062
O33	O	-0.316970	-0.621469	-0.244105
O34	O	0.183030	-0.121469	0.255895
C35	C	-0.216532	-0.532415	-0.216517
C36	C	0.283468	-0.032415	0.283483
C37	C	-0.216534	-0.482480	-0.216514
C38	C	0.283466	0.017520	0.283486
C39	C	-0.333273	-0.649056	-0.216527
C40	C	0.166727	-0.149056	0.283473
C41	C	-0.383208	-0.649062	-0.216533
C42	C	0.116792	-0.149062	0.283467
C43	C	-0.216559	-0.649153	-0.333728
C44	C	0.283441	-0.149153	0.166272
C45	C	-0.216563	-0.649159	-0.383662
C46	C	0.283437	-0.149159	0.116338
C47	C	-0.692841	-0.677919	-0.187866
C48	C	-0.192841	-0.177919	0.312134
C49	C	-0.880514	-0.677975	-0.187883
C50	C	-0.380514	-0.177975	0.312117
O51	O	-0.904771	-0.702445	-0.163493
O52	O	-0.404771	-0.202445	0.336507
N53	N	-0.903993	-0.649230	-0.216583
N54	N	-0.403993	-0.149230	0.283417
C55	C	-0.880550	-0.620472	-0.245283
C56	C	-0.380550	-0.120472	0.254717
O57	O	-0.904826	-0.596028	-0.269698
O58	O	-0.404826	-0.096028	0.230302
C59	C	-0.692878	-0.620419	-0.245268
C60	C	-0.192878	-0.120419	0.254732
C61	C	-0.669402	-0.649162	-0.216563
C62	C	-0.169402	-0.149162	0.283437
C63	C	-0.669365	-0.706660	-0.159164
C64	C	-0.169365	-0.206660	0.340836
C65	C	-0.622450	-0.706644	-0.159158
C66	C	-0.122450	-0.206644	0.340842
C67	C	-0.599010	-0.677887	-0.187854
C68	C	-0.099010	-0.177887	0.312146
C69	C	-0.622486	-0.649146	-0.216557
C70	C	-0.122486	-0.149146	0.283443
C71	C	-0.669436	-0.591664	-0.273969
C72	C	-0.169436	-0.091664	0.226031
C73	C	-0.622515	-0.591654	-0.273964
C74	C	-0.122515	-0.091654	0.226036
C75	C	-0.599039	-0.620397	-0.245259
C76	C	-0.099039	-0.120397	0.254741
C77	C	-0.552132	-0.620374	-0.245248
C78	C	-0.052132	-0.120374	0.254752
N79	N	-0.528653	-0.649118	-0.216548
N80	N	-0.028653	-0.149118	0.283452
C81	C	-0.552092	-0.677875	-0.187851
C82	C	-0.052092	-0.177875	0.312149
C83	C	-0.979081	-0.620501	-0.245289
C84	C	-0.479081	-0.120501	0.254711
C85	C	-1.025999	-0.620514	-0.245292
C86	C	-0.525999	-0.120514	0.254708
C87	C	-1.025959	-0.678017	-0.187893
C88	C	-0.525959	-0.178017	0.312107
C89	C	-0.979041	-0.678002	-0.187887
C90	C	-0.479041	-0.178002	0.312113
C91	C	-0.955602	-0.649246	-0.216589
C92	C	-0.455602	-0.149246	0.283411
C93	C	-0.453567	-0.677839	-0.187841
C94	C	0.046433	-0.177839	0.312159
C95	C	-0.406647	-0.677819	-0.187836
C96	C	0.093353	-0.177819	0.312164
C97	C	-0.406690	-0.620318	-0.245237
C98	C	0.093310	-0.120318	0.254763
C99	C	-0.453606	-0.620336	-0.245240
C100	C	0.046394	-0.120336	0.254760
C101	C	-0.477043	-0.649100	-0.216540
C102	C	0.022957	-0.149100	0.283460
O103	O	-0.527846	-0.595919	-0.269629
O104	O	-0.027846	-0.095919	0.230371
O105	O	-0.527808	-0.702322	-0.163447
O106	O	-0.027808	-0.202322	0.336553
C107	C	-0.739757	-0.677935	-0.187872
C108	C	-0.239757	-0.177935	0.312128
C109	C	-0.763233	-0.649194	-0.216574
C110	C	-0.263233	-0.149194	0.283426
C111	C	-0.739794	-0.620437	-0.245271
C112	C	-0.239794	-0.120437	0.254729
C113	C	-0.810151	-0.649207	-0.216578
C114	C	-0.310151	-0.149207	0.283422
C115	C	-0.833590	-0.677963	-0.187881
C116	C	-0.333590	-0.177963	0.312119
C117	C	-0.810111	-0.706708	-0.159181
C118	C	-0.310111	-0.206708	0.340819
C119	C	-0.763196	-0.706692	-0.159175
C120	C	-0.263196	-0.206692	0.340825
C121	C	-0.763272	-0.591693	-0.273971
C122	C	-0.263272	-0.091693	0.226029
C123	C	-0.810188	-0.591711	-0.273974
C124	C	-0.310188	-0.091711	0.226026
C125	C	-0.833627	-0.620468	-0.245277
C126	C	-0.333627	-0.120468	0.254723
C127	C	-0.099372	-0.649231	-0.216582
C128	C	0.400628	-0.149231	0.283418
C129	C	-0.049438	-0.649271	-0.216595
C130	C	0.450562	-0.149271	0.283405
C131	C	-0.216570	-0.766316	-0.216582
C132	C	0.283430	-0.266316	0.283418
C133	C	-0.216578	-0.816250	-0.216596
C134	C	0.283422	-0.316250	0.283404
C135	C	-0.245329	-0.172827	-0.245240
C136	C	0.254671	0.327173	0.254760
C137	C	-0.245342	0.014846	-0.245260
C138	C	0.254658	0.514846	0.254740
O139	O	-0.269802	0.039119	-0.269665
O140	O	0.230198	0.539119	0.230335
N141	N	-0.216567	0.038305	-0.216583
N142	N	0.283433	0.538305	0.283417
C143	C	-0.187786	0.014843	-0.187902
C144	C	0.312214	0.514843	0.312098
O145	O	-0.163308	0.039102	-0.163514
O146	O	0.336692	0.539102	0.336486
C147	C	-0.187771	-0.172830	-0.187884
C148	C	0.312229	0.327170	0.312116
C149	C	-0.216550	-0.196286	-0.216560
C150	C	0.283450	0.303714	0.283440
C151	C	-0.274106	-0.196284	-0.273913
C152	C	0.225894	0.303716	0.226087
C153	C	-0.274104	-0.243199	-0.273906
C154	C	0.225896	0.256801	0.226094
C155	C	-0.245325	-0.266658	-0.245226
C156	C	0.254675	0.233342	0.254774
C157	C	-0.216549	-0.243201	-0.216553
C158	C	0.283451	0.256799	0.283447
C159	C	-0.158988	-0.196291	-0.159205
C160	C	0.341012	0.303709	0.340795
C161	C	-0.158986	-0.243212	-0.159204
C162	C	0.341014	0.256788	0.340796
C163	C	-0.187765	-0.266668	-0.187880
C164	C	0.312235	0.233332	0.312120
C165	C	-0.187769	-0.313576	-0.187865
C166	C	0.312231	0.186424	0.312135
N167	N	-0.216543	-0.337035	-0.216542
N168	N	0.283457	0.162965	0.283458
C169	C	-0.245321	-0.313576	-0.245222
C170	C	0.254679	0.186424	0.254778
C171	C	-0.187796	0.113373	-0.187912
C172	C	0.312204	0.613373	0.312088
C173	C	-0.187800	0.160291	-0.187916
C174	C	0.312200	0.660291	0.312084
C175	C	-0.245355	0.160291	-0.245275
C176	C	0.254645	0.660291	0.254725
C177	C	-0.245353	0.113372	-0.245269
C178	C	0.254647	0.613372	0.254731
C179	C	-0.216570	0.089914	-0.216589
C180	C	0.283430	0.589914	0.283411
C181	C	-0.245316	-0.412102	-0.245205
C182	C	0.254684	0.087898	0.254795
C183	C	-0.245313	-0.459021	-0.245194
C184	C	0.254687	0.040979	0.254806
C185	C	-0.187756	-0.459017	-0.187837
C186	C	0.312244	0.040983	0.312163
C187	C	-0.187760	-0.412102	-0.187846
C188	C	0.312240	0.087898	0.312154
C189	C	-0.216542	-0.388645	-0.216534
C190	C	0.283458	0.111355	0.283466
O191	O	-0.163317	-0.337878	-0.163477
O192	O	0.336683	0.162122	0.336523
O193	O	-0.269788	-0.337843	-0.269613
O194	O	0.230212	0.162157	0.230387
C195	C	-0.245331	-0.125912	-0.245247
C196	C	0.254669	0.374088	0.254753
C197	C	-0.216554	-0.102455	-0.216574
C198	C	0.283446	0.397545	0.283426
C199	C	-0.187775	-0.125914	-0.187893
C200	C	0.312225	0.374086	0.312107
C201	C	-0.216558	-0.055537	-0.216577
C202	C	0.283442	0.444463	0.283423
C203	C	-0.245336	-0.032078	-0.245258
C204	C	0.254664	0.467922	0.254742
C205	C	-0.274111	-0.055537	-0.273934
C206	C	0.225889	0.444463	0.226066
C207	C	-0.274109	-0.102453	-0.273927
C208	C	0.225891	0.397547	0.226073
C209	C	-0.159001	-0.102455	-0.159217
C210	C	0.340999	0.397545	0.340783
C211	C	-0.159006	-0.055540	-0.159226
C212	C	0.340994	0.444460	0.340774
C213	C	-0.187784	-0.032081	-0.187906
C214	C	0.312216	0.467919	0.312094
C215	C	-0.245189	-0.620434	-0.740234
C216	C	0.254811	-0.120434	-0.240234
C217	C	-0.245240	-0.620418	-0.552561
C218	C	0.254760	-0.120418	-0.052561
O219	O	-0.269664	-0.595950	-0.528282
O220	O	0.230336	-0.095950	-0.028282
N221	N	-0.216521	-0.649169	-0.529108
N222	N	0.283479	-0.149169	-0.029108
C223	C	-0.187785	-0.677925	-0.552576
C224	C	0.312215	-0.177925	-0.052576
O225	O	-0.163356	-0.702376	-0.528321
O226	O	0.336644	-0.202376	-0.028321
C227	C	-0.187731	-0.677938	-0.740248
C228	C	0.312269	-0.177938	-0.240248
C229	C	-0.216455	-0.649188	-0.763699
C230	C	0.283545	-0.149188	-0.263699
C231	C	-0.273910	-0.591686	-0.763684
C232	C	0.226090	-0.091686	-0.263684
C233	C	-0.273899	-0.591692	-0.810600
C234	C	0.226101	-0.091692	-0.310600
C235	C	-0.245166	-0.620446	-0.834065
C236	C	0.254834	-0.120446	-0.334065
C237	C	-0.216444	-0.649194	-0.810614
C238	C	0.283556	-0.149194	-0.310614
C239	C	-0.158993	-0.706691	-0.763715
C240	C	0.341007	-0.206691	-0.263715
C241	C	-0.158981	-0.706691	-0.810636
C242	C	0.341019	-0.206691	-0.310636
C243	C	-0.187706	-0.677941	-0.834087
C244	C	0.312294	-0.177941	-0.334087
C245	C	-0.187699	-0.677954	-0.880994
C246	C	0.312301	-0.177954	-0.380994
N247	N	-0.216419	-0.649203	-0.904447
N248	N	0.283581	-0.149203	-0.404447
C249	C	-0.245152	-0.620449	-0.880983
C250	C	0.254848	-0.120449	-0.380983
C251	C	-0.187816	-0.677916	-0.454045
C252	C	0.312184	-0.177916	0.045955
C253	C	-0.187830	-0.677914	-0.407127
C254	C	0.312170	-0.177914	0.092873
C255	C	-0.245285	-0.620406	-0.407115
C256	C	0.254715	-0.120406	0.092885
C257	C	-0.245273	-0.620411	-0.454034
C258	C	0.254727	-0.120411	0.045966
C259	C	-0.216535	-0.649165	-0.477498
C260	C	0.283465	-0.149165	0.022502
C261	C	-0.245126	-0.620464	-0.979508
C262	C	0.254874	-0.120464	-0.479508
C263	C	-0.245113	-0.620474	-1.026428
C264	C	0.254887	-0.120474	-0.526428
C265	C	-0.187656	-0.677980	-1.026436
C266	C	0.312344	-0.177980	-0.526436
C267	C	-0.187671	-0.677972	-0.979520
C268	C	0.312329	-0.177972	-0.479520
C269	C	-0.216407	-0.649210	-0.956058
C270	C	0.283593	-0.149210	-0.456058
O271	O	-0.163285	-0.702406	-0.905301
O272	O	0.336715	-0.202406	-0.405301
O273	O	-0.269570	-0.595994	-0.905245
O274	O	0.230430	-0.095994	-0.405245
C275	C	-0.245200	-0.620428	-0.693318
C276	C	0.254800	-0.120428	-0.193318
C277	C	-0.216478	-0.649176	-0.669868
C278	C	0.283522	-0.149176	-0.169868
C279	C	-0.187745	-0.677930	-0.693332
C280	C	0.312255	-0.177930	-0.193332
C281	C	-0.216492	-0.649173	-0.622950
C282	C	0.283508	-0.149173	-0.122950
C283	C	-0.245225	-0.620419	-0.599485
C284	C	0.254775	-0.120419	-0.099485
C285	C	-0.273945	-0.591668	-0.622938
C286	C	0.226055	-0.091668	-0.122938
C287	C	-0.273933	-0.591674	-0.669853
C288	C	0.226067	-0.091674	-0.169853
C289	C	-0.159026	-0.706682	-0.669879
C290	C	0.340974	-0.206682	-0.169879
C291	C	-0.159041	-0.706674	-0.622964
C292	C	0.340959	-0.206674	-0.122964
C293	C	-0.187774	-0.677919	-0.599499
C294	C	0.312226	-0.177919	-0.099499
C295	C	-0.216510	-0.649148	-0.099827
C296	C	0.283490	-0.149148	0.400173
C297	C	-0.216380	-0.649228	-0.049893
C298	C	0.283620	-0.149228	0.450107
H299	H	-0.387534	-0.701225	-0.164459
H300	H	0.112466	-0.201225	0.335541
H301	H	-0.297288	-0.568279	-0.829689
H302	H	0.202712	-0.068279	-0.329689
F303	F	-0.304506	-0.561074	-0.694806
F304	F	0.195494	-0.061074	-0.194806
H305	H	-0.297308	-0.568268	-0.744584
H306	H	0.202692	-0.068268	-0.244584
H307	H	-0.268662	-0.597000	-0.473124
H308	H	0.231338	-0.097000	0.026876
H309	H	-0.268681	-0.596994	-0.388002
H310	H	0.231319	-0.096994	0.111998
F311	F	-0.954060	-0.708594	-0.157336
F312	F	-0.454060	-0.208594	0.342664
F313	F	-0.275946	-0.483983	-0.275715
F314	F	0.224054	0.016017	0.224285
F315	F	-0.128374	-0.030581	-0.128702
F316	F	0.371626	0.469419	0.371298
F317	F	-0.157175	0.185250	-0.157390
F318	F	0.342825	0.685250	0.342610
F319	F	-0.738332	-0.561085	-0.304516
F320	F	-0.238332	-0.061085	0.195484
H321	H	-0.829204	-0.730121	-0.135814
H322	H	-0.329204	-0.230121	0.364186
H323	H	-0.297541	-0.177188	-0.297271
H324	H	0.202459	0.322812	0.202729
F325	F	-0.157263	-0.708519	-0.382174
F326	F	0.342737	-0.208519	0.117826
H327	H	-0.387599	-0.596903	-0.268600
H328	H	0.112401	-0.096903	0.231400
F329	F	-0.275948	-0.387144	-0.275738
F330	F	0.224052	0.112856	0.224262
H331	H	-0.603434	-0.568238	-0.297337
H332	H	-0.103434	-0.068238	0.202663
H333	H	-0.297538	-0.262293	-0.297258
H334	H	0.202462	0.237707	0.202742
F335	F	-0.738217	-0.737286	-0.128624
F336	F	-0.238217	-0.237286	0.371376
H337	H	-0.829298	-0.568301	-0.297349
H338	H	-0.329298	-0.068301	0.202651
F339	F	-0.157236	-0.708531	-0.479011
F340	F	0.342764	-0.208531	0.020989
H341	H	-0.135553	-0.177201	-0.135854
H342	H	0.364447	0.322799	0.364146
F343	F	-0.275983	0.088412	-0.275789
F344	F	0.224017	0.588412	0.224211
H345	H	-0.268788	0.179399	-0.268628
H346	H	0.231212	0.679399	0.231372
H347	H	-0.164357	0.094278	-0.164556
H348	H	0.335643	0.594278	0.335444
F349	F	-1.050913	-0.708621	-0.157350
F350	F	-0.550913	-0.208621	0.342650
F351	F	-0.157079	-0.708581	-1.051417
F352	F	0.342921	-0.208581	-0.551417
H353	H	-0.135544	-0.262309	-0.135852
H354	H	0.364456	0.237691	0.364148
F355	F	-0.128390	-0.737292	-0.835606
F356	F	0.371610	-0.237292	-0.335606
H357	H	-0.164284	-0.701385	-0.960426
H358	H	0.335716	-0.201385	-0.460426
H359	H	-0.135650	-0.730090	-0.603874
H360	H	0.364350	-0.230090	-0.103874
F361	F	-0.157137	-0.387137	-0.157320
F362	F	0.342863	0.112863	0.342680
H363	H	-0.164327	-0.478126	-0.164485
H364	H	0.335673	0.021874	0.335515
F365	F	-0.304741	-0.030562	-0.304456
F366	F	0.195259	0.469438	0.195544
F367	F	-0.304526	-0.561067	-0.597957
F368	F	0.195474	-0.061067	-0.097957
H369	H	-0.135628	-0.730097	-0.688980
H370	H	0.364372	-0.230097	-0.188980
F371	F	-0.275710	-0.589853	-0.954544
F372	F	0.224290	-0.089853	-0.454544
H373	H	-0.135603	-0.730103	-0.744630
H374	H	0.364397	-0.230103	-0.244630
H375	H	-0.472721	-0.596933	-0.268615
H376	H	0.027279	-0.096933	0.231385
H377	H	-0.297544	-0.121547	-0.297278
H378	H	0.202456	0.378453	0.202722
H379	H	-0.135566	-0.121551	-0.135861
H380	H	0.364434	0.378449	0.364139
H381	H	-0.472643	-0.701263	-0.164472
H382	H	0.027357	-0.201263	0.335528
H383	H	-0.268505	-0.597062	-1.045519
H384	H	0.231495	-0.097062	-0.545519
H385	H	-0.603338	-0.730050	-0.135785
H386	H	-0.103338	-0.230050	0.364215
H387	H	-0.688444	-0.730080	-0.135795
H388	H	-0.188444	-0.230080	0.364205
F389	F	-1.050979	-0.589917	-0.275839
F390	F	-0.550979	-0.089917	0.224161
H391	H	-0.960000	-0.597083	-0.268661
H392	H	-0.460000	-0.097083	0.231339
F393	F	-0.694411	-0.561075	-0.304526
F394	F	-0.194411	-0.061075	0.195474
