data_functionalizedCrystal
_audit_creation_method	'MofGen! by Chris Wilmer'
_symmetry_space_group_name_H-M	'P1'
_symmetry_Int_Tables_number	1
_symmetry_cell_setting	triclinic
loop_
_symmetry_equiv_pos_as_xyz
  x,y,z
_cell_length_a	12.759401
_cell_length_b	29.839131
_cell_length_c	12.759393
_cell_angle_alpha	89.962629
_cell_angle_beta	89.979527
_cell_angle_gamma	90.042945
loop_
_atom_site_label
_atom_site_type_symbol
_atom_site_fract_x
_atom_site_fract_y
_atom_site_fract_z
Zn1	Zn	1.606067	-0.178811	-0.593974
Zn2	Zn	1.605877	-0.253949	-0.418275
Zn3	Zn	1.430367	-0.178835	-0.418309
Zn4	Zn	1.430275	-0.253917	-0.593912
O5	O	1.518146	-0.216378	-0.506117
O6	O	1.753062	-0.188781	-0.570679
O7	O	1.582554	-0.244009	-0.271258
O8	O	1.453791	-0.115965	-0.441652
O9	O	1.752923	-0.243985	-0.441593
O10	O	1.582877	-0.115947	-0.570712
O11	O	1.453607	-0.188823	-0.271283
O12	O	1.283334	-0.188792	-0.441592
O13	O	1.453635	-0.243930	-0.740941
O14	O	1.283266	-0.243954	-0.570606
O15	O	1.582788	-0.188750	-0.740987
O16	O	1.582466	-0.316812	-0.441533
O17	O	1.453452	-0.316788	-0.570573
C18	C	1.245179	-0.216372	-0.506097
C19	C	1.128402	-0.216381	-0.506113
C20	C	1.073533	-0.245147	-0.573185
C21	C	0.963809	-0.245149	-0.573206
C22	C	0.963833	-0.187617	-0.439073
C23	C	1.073555	-0.187613	-0.439058
C24	C	1.517957	-0.333101	-0.506065
C25	C	1.517972	-0.383035	-0.506078
C26	C	1.585446	-0.692678	-0.439024
C27	C	1.585576	-0.880351	-0.439065
O28	O	1.642794	-0.904615	-0.382014
N29	N	1.518364	-0.903820	-0.506197
C30	C	1.451120	-0.880368	-0.573327
O31	O	1.393963	-0.904636	-0.630435
C32	C	1.450997	-0.692696	-0.573291
C33	C	1.518205	-0.669229	-0.506148
C34	C	1.652650	-0.669211	-0.371888
C35	C	1.652613	-0.622296	-0.371874
C36	C	1.585372	-0.598847	-0.438997
C37	C	1.518168	-0.622314	-0.506134
C38	C	1.383759	-0.669244	-0.640427
C39	C	1.383736	-0.622323	-0.640413
C40	C	1.450944	-0.598857	-0.573270
C41	C	1.450890	-0.551949	-0.573244
N42	N	1.518101	-0.528480	-0.506113
C43	C	1.585342	-0.551929	-0.438989
C44	C	1.451189	-0.978898	-0.573340
C45	C	1.451218	-1.025816	-0.573348
C46	C	1.585675	-1.025796	-0.439087
C47	C	1.585640	-0.978877	-0.439075
C48	C	1.518400	-0.955429	-0.506209
C49	C	1.585259	-0.453403	-0.438965
C50	C	1.585213	-0.406484	-0.438955
C51	C	1.450760	-0.406508	-0.573219
C52	C	1.450802	-0.453423	-0.573226
C53	C	1.518060	-0.476870	-0.506096
O54	O	1.393710	-0.527656	-0.630274
O55	O	1.642507	-0.527653	-0.381907
C56	C	1.585483	-0.739593	-0.439038
C57	C	1.518279	-0.763060	-0.506175
C58	C	1.451039	-0.739611	-0.573298
C59	C	1.518309	-0.809978	-0.506183
C60	C	1.585550	-0.833427	-0.439060
C61	C	1.652761	-0.809958	-0.371928
C62	C	1.652724	-0.763042	-0.371915
C63	C	1.383827	-0.763080	-0.640430
C64	C	1.383869	-0.809996	-0.640437
C65	C	1.451110	-0.833444	-0.573314
C66	C	1.792180	-0.216384	-0.506139
C67	C	1.908956	-0.216386	-0.506148
C68	C	1.518223	-0.216334	-0.780151
C69	C	1.518255	-0.216315	-0.896928
C70	C	1.518365	-0.099200	-0.506193
C71	C	1.518459	-0.049265	-0.506225
C72	C	1.585532	-0.187561	-1.061546
C73	C	1.585512	-0.187578	-0.951822
C74	C	1.451022	-0.245039	-0.951763
C75	C	1.451048	-0.245023	-1.061485
C76	C	1.518131	-0.216390	-0.233150
C77	C	1.518302	-0.216282	-0.116374
H78	H	0.919139	-0.268573	-0.627824
C79	C	1.133865	-0.276787	-0.646951
C80	C	1.209368	-0.257359	-0.729508
C81	C	1.269697	-0.288999	-0.803279
C82	C	1.254522	-0.340067	-0.794495
C83	C	1.179015	-0.359498	-0.711935
C84	C	1.118687	-0.327858	-0.638163
H85	H	1.220605	-0.219554	-0.736013
H86	H	1.325592	-0.274615	-0.864396
H87	H	1.299181	-0.363489	-0.849105
H88	H	1.167779	-0.397303	-0.705429
H89	H	1.062792	-0.342242	-0.577047
H90	H	1.118231	-0.164185	-0.384440
C91	C	1.726662	-0.737234	-0.298060
C92	C	1.718160	-0.743733	-0.178620
C93	C	1.792104	-0.717929	-0.104763
C94	C	1.874550	-0.685624	-0.150346
C95	C	1.883056	-0.679123	-0.269793
C96	C	1.809112	-0.704928	-0.343650
H97	H	1.657126	-0.767649	-0.144871
H98	H	1.785808	-0.722742	-0.016340
H99	H	1.929288	-0.666522	-0.095673
H100	H	1.944090	-0.655208	-0.303542
H101	H	1.815408	-0.700115	-0.432072
C102	C	1.659150	-0.380672	-0.365096
C103	C	1.650649	-0.387170	-0.245655
C104	C	1.724585	-0.361360	-0.171799
C105	C	1.807022	-0.329052	-0.217385
C106	C	1.815526	-0.322552	-0.336833
C107	C	1.741590	-0.348362	-0.410688
H108	H	1.589621	-0.411087	-0.211903
H109	H	1.718288	-0.366171	-0.083376
H110	H	1.861753	-0.309946	-0.162714
H111	H	1.876554	-0.298635	-0.370584
H112	H	1.747886	-0.343551	-0.499111
C113	C	0.903499	-0.155977	-0.365307
C114	C	0.782809	-0.155981	-0.365314
C115	C	0.722477	-0.124342	-0.291544
C116	C	0.782836	-0.092698	-0.217766
C117	C	0.903533	-0.092693	-0.217757
C118	C	0.963864	-0.124332	-0.291527
H119	H	0.738122	-0.179407	-0.419931
H120	H	0.633129	-0.124346	-0.291551
H121	H	0.738175	-0.069277	-0.163157
H122	H	0.948220	-0.069267	-0.163140
H123	H	1.053212	-0.124328	-0.291520
C124	C	1.659576	-0.953066	-0.365224
C125	C	1.651072	-0.959560	-0.245782
C126	C	1.725013	-0.933752	-0.171930
C127	C	1.807460	-0.901449	-0.217520
C128	C	1.815968	-0.894954	-0.336968
C129	C	1.742026	-0.920762	-0.410820
H130	H	1.590037	-0.983474	-0.212028
H131	H	1.718715	-0.938561	-0.083506
H132	H	1.862196	-0.882344	-0.162850
H133	H	1.877002	-0.871040	-0.370722
H134	H	1.748324	-0.915953	-0.499244
C135	C	1.377089	-0.276616	-1.121809
C136	C	1.294669	-0.257133	-1.197251
C137	C	1.220717	-0.288725	-1.257577
C138	C	1.229185	-0.339800	-1.242462
C139	C	1.311608	-0.359285	-1.167017
C140	C	1.385560	-0.327693	-1.106690
H141	H	1.288397	-0.219323	-1.208443
H142	H	1.159701	-0.274301	-1.313427
H143	H	1.174441	-0.363186	-1.287120
H144	H	1.317880	-0.397096	-1.155825
H145	H	1.446576	-0.342118	-1.050841
H146	H	1.640029	-0.472488	-0.384304
H147	H	1.707343	-0.603192	-0.317203
H148	H	1.640259	-0.164192	-0.907186
C149	C	1.377279	-1.051626	-0.647199
C150	C	1.303324	-1.025827	-0.721034
C151	C	1.229388	-1.051635	-0.794892
C152	C	1.229407	-1.103243	-0.794916
C153	C	1.303365	-1.129045	-0.721078
C154	C	1.377301	-1.103237	-0.647219
H155	H	1.303307	-0.987621	-0.721019
H156	H	1.174639	-1.032534	-0.849552
H157	H	1.174675	-1.122347	-0.849590
H158	H	1.303382	-1.167251	-0.721093
H159	H	1.432050	-1.122338	-0.592560
C160	C	1.377213	-0.953111	-0.647191
C161	C	1.257788	-0.959623	-0.638506
C162	C	1.183810	-0.933838	-0.712355
C163	C	1.229256	-0.901542	-0.794890
C164	C	1.348688	-0.895028	-0.803579
C165	C	1.422666	-0.920813	-0.729730
H166	H	1.224141	-0.983532	-0.577405
H167	H	1.095399	-0.938660	-0.705922
H168	H	1.174493	-0.882455	-0.849558
H169	H	1.382335	-0.871119	-0.864680
H170	H	1.511077	-0.915991	-0.736163
H171	H	1.640426	-1.044896	-0.384433
C172	C	1.309831	-0.695047	-0.714295
C173	C	1.190396	-0.688644	-0.705630
C174	C	1.116464	-0.714445	-0.779506
C175	C	1.161967	-0.746649	-0.862048
C176	C	1.281408	-0.753053	-0.870717
C177	C	1.355340	-0.727252	-0.796840
H178	H	1.156707	-0.664804	-0.644524
H179	H	1.028046	-0.709704	-0.773089
H180	H	1.107239	-0.765748	-0.916736
H181	H	1.315098	-0.776894	-0.931822
H182	H	1.443758	-0.731993	-0.803258
C183	C	1.309765	-0.596531	-0.714259
C184	C	1.190339	-0.603041	-0.705582
C185	C	1.116367	-0.577249	-0.779424
C186	C	1.161821	-0.544947	-0.861943
C187	C	1.281253	-0.538435	-0.870624
C188	C	1.355225	-0.564227	-0.796782
H189	H	1.156686	-0.626954	-0.644493
H190	H	1.027955	-0.582070	-0.772997
H191	H	1.107062	-0.525855	-0.916605
H192	H	1.314906	-0.514522	-0.931712
H193	H	1.443637	-0.559406	-0.803209
H194	H	1.707411	-0.688298	-0.317227
H195	H	1.396078	-0.472531	-0.627903
H196	H	1.396010	-0.387409	-0.627867
H197	H	1.707508	-0.829058	-0.317271
H198	H	1.329130	-0.829098	-0.695112
H199	H	1.329072	-0.743992	-0.695091
H200	H	1.396265	-0.268438	-0.907059
H201	H	1.640294	-0.164158	-1.106233
