data_functionalizedCrystal
_audit_creation_method	'MofGen! by Chris Wilmer'
_symmetry_space_group_name_H-M	'P1'
_symmetry_Int_Tables_number	1
_symmetry_cell_setting	triclinic
loop_
_symmetry_equiv_pos_as_xyz
  x,y,z
_cell_length_a	19.077105
_cell_length_b	16.625546
_cell_length_c	19.077174
_cell_angle_alpha	92.270997
_cell_angle_beta	85.483752
_cell_angle_gamma	87.718759
loop_
_atom_site_label
_atom_site_type_symbol
_atom_site_fract_x
_atom_site_fract_y
_atom_site_fract_z
Zn1	Zn	1.093718	-0.391770	-0.441833
Zn2	Zn	1.343718	-0.141770	-0.191833
Zn3	Zn	1.593718	0.108230	0.058167
Zn4	Zn	1.843718	0.358230	0.308167
Zn5	Zn	1.088907	-0.520961	-0.323942
Zn6	Zn	1.338907	-0.270961	-0.073942
Zn7	Zn	1.588907	-0.020961	0.176058
Zn8	Zn	1.838907	0.229039	0.426058
Zn9	Zn	0.971103	-0.380499	-0.319231
Zn10	Zn	1.221103	-0.130499	-0.069231
Zn11	Zn	1.471103	0.119501	0.180769
Zn12	Zn	1.721103	0.369501	0.430769
Zn13	Zn	0.975801	-0.520909	-0.437060
Zn14	Zn	1.225801	-0.270909	-0.187060
Zn15	Zn	1.475801	-0.020909	0.062940
Zn16	Zn	1.725801	0.229091	0.312940
O17	O	1.032382	-0.453535	-0.380517
O18	O	1.282382	-0.203535	-0.130517
O19	O	1.532382	0.046465	0.119483
O20	O	1.782382	0.296465	0.369483
O21	O	1.191730	-0.413647	-0.430164
O22	O	1.441730	-0.163647	-0.180164
O23	O	1.691730	0.086353	0.069836
O24	O	1.941730	0.336353	0.319836
O25	O	1.069300	-0.497634	-0.224668
O26	O	1.319300	-0.247634	0.025332
O27	O	1.569300	0.002366	0.275332
O28	O	1.819300	0.252366	0.525332
O29	O	0.987415	-0.269165	-0.335520
O30	O	1.237415	-0.019165	-0.085520
O31	O	1.487415	0.230835	0.164480
O32	O	1.737415	0.480835	0.414480
O33	O	1.188196	-0.508563	-0.343550
O34	O	1.438196	-0.258563	-0.093550
O35	O	1.688196	-0.008563	0.156450
O36	O	1.938196	0.241437	0.406450
O37	O	1.077500	-0.277446	-0.425596
O38	O	1.327500	-0.027446	-0.175596
O39	O	1.577500	0.222554	0.074404
O40	O	1.827500	0.472554	0.324404
O41	O	0.982750	-0.394436	-0.221206
O42	O	1.232750	-0.144436	0.028794
O43	O	1.482750	0.105564	0.278794
O44	O	1.732750	0.355564	0.528794
O45	O	0.873076	-0.394385	-0.330892
O46	O	1.123076	-0.144385	-0.080892
O47	O	1.373076	0.105615	0.169108
O48	O	1.623076	0.355615	0.419108
O49	O	0.995423	-0.508473	-0.536343
O50	O	1.245423	-0.258473	-0.286343
O51	O	1.495423	-0.008473	-0.036343
O52	O	1.745423	0.241527	0.213657
O53	O	0.876527	-0.497544	-0.417460
O54	O	1.126527	-0.247544	-0.167460
O55	O	1.376527	0.002456	0.082540
O56	O	1.626527	0.252456	0.332540
O57	O	1.082056	-0.413595	-0.539850
O58	O	1.332056	-0.163595	-0.289850
O59	O	1.582056	0.086405	-0.039850
O60	O	1.832056	0.336405	0.210150
O61	O	1.073856	-0.633783	-0.338921
O62	O	1.323856	-0.383783	-0.088921
O63	O	1.573856	-0.133783	0.161079
O64	O	1.823856	0.116217	0.411079
O65	O	0.990757	-0.633745	-0.422029
O66	O	1.240757	-0.383745	-0.172029
O67	O	1.490757	-0.133745	0.077971
O68	O	1.740757	0.116255	0.327971
C69	C	0.849223	-0.444736	-0.373147
C70	C	1.099223	-0.194736	-0.123147
C71	C	1.349223	0.055264	0.126853
C72	C	1.599223	0.305264	0.376853
C73	C	0.770867	-0.440993	-0.370012
C74	C	1.020867	-0.190993	-0.120012
C75	C	1.270867	0.059007	0.129988
C76	C	1.520867	0.309007	0.379988
C77	C	0.735868	-0.493017	-0.413539
C78	C	0.985868	-0.243017	-0.163539
C79	C	1.235868	0.006983	0.086461
C80	C	1.485868	0.256983	0.336461
C81	C	0.662244	-0.489489	-0.410596
C82	C	0.912244	-0.239489	-0.160596
C83	C	1.162244	0.010511	0.089404
C84	C	1.412244	0.260511	0.339404
C85	C	0.623621	-0.433940	-0.364122
C86	C	0.873621	-0.183940	-0.114122
C87	C	1.123621	0.066060	0.135878
C88	C	1.373621	0.316060	0.385878
C89	C	0.658625	-0.381910	-0.320592
C90	C	0.908625	-0.131910	-0.070592
C91	C	1.158625	0.118090	0.179408
C92	C	1.408625	0.368090	0.429408
C93	C	0.732248	-0.385434	-0.323539
C94	C	0.982248	-0.135434	-0.073539
C95	C	1.232248	0.114566	0.176461
C96	C	1.482248	0.364566	0.426461
C97	C	0.403240	-0.417627	-0.350485
C98	C	0.653240	-0.167627	-0.100485
C99	C	0.903240	0.082373	0.149515
C100	C	1.153240	0.332373	0.399515
C101	C	0.329612	-0.414107	-0.347540
C102	C	0.579612	-0.164107	-0.097540
C103	C	0.829612	0.085893	0.152460
C104	C	1.079612	0.335893	0.402460
C105	C	0.333237	-0.521686	-0.437545
C106	C	0.583237	-0.271686	-0.187545
C107	C	0.833237	-0.021686	0.062455
C108	C	1.083237	0.228314	0.312455
C109	C	0.406860	-0.525210	-0.440485
C110	C	0.656860	-0.275210	-0.190485
C111	C	0.906860	-0.025210	0.059515
C112	C	1.156860	0.224790	0.309515
C113	C	0.441858	-0.473177	-0.396959
C114	C	0.691858	-0.223177	-0.146959
C115	C	0.941858	0.026823	0.103041
C116	C	1.191858	0.276823	0.353041
N117	N	0.548366	-0.430334	-0.361111
N118	N	0.798366	-0.180334	-0.111111
N119	N	1.048366	0.069666	0.138889
N120	N	1.298366	0.319666	0.388889
N121	N	0.517112	-0.476779	-0.399974
N122	N	0.767112	-0.226779	-0.149974
N123	N	1.017112	0.023221	0.100026
N124	N	1.267112	0.273221	0.350026
C125	C	1.032314	-0.663021	-0.380484
C126	C	1.282314	-0.413021	-0.130484
C127	C	1.532314	-0.163021	0.119516
C128	C	1.782314	0.086979	0.369516
C129	C	1.032351	-0.752644	-0.380497
C130	C	1.282351	-0.502644	-0.130497
C131	C	1.532351	-0.252644	0.119503
C132	C	1.782351	-0.002644	0.369503
C133	C	1.032477	-1.080829	-0.380575
C134	C	1.282477	-0.830829	-0.130575
C135	C	1.532477	-0.580829	0.119425
C136	C	1.782477	-0.330829	0.369425
C137	C	1.032439	-0.989518	-0.380555
C138	C	1.282439	-0.739518	-0.130555
C139	C	1.532439	-0.489518	0.119445
C140	C	1.782439	-0.239518	0.369445
C141	C	1.032413	-0.916740	-0.380536
C142	C	1.282413	-0.666740	-0.130536
C143	C	1.532413	-0.416740	0.119464
C144	C	1.782413	-0.166740	0.369464
C145	C	1.032377	-0.825423	-0.380516
C146	C	1.282377	-0.575423	-0.130516
C147	C	1.532377	-0.325423	0.119484
C148	C	1.782377	-0.075423	0.369484
C149	C	1.216257	-0.462368	-0.387915
C150	C	1.466257	-0.212368	-0.137915
C151	C	1.716257	0.037632	0.112085
C152	C	1.966257	0.287632	0.362085
C153	C	1.294613	-0.466132	-0.391068
C154	C	1.544613	-0.216132	-0.141068
C155	C	1.794613	0.033868	0.108932
C156	C	2.044613	0.283868	0.358932
C157	C	1.039800	-0.462286	-0.564390
C158	C	1.289800	-0.212286	-0.314390
C159	C	1.539800	0.037714	-0.064390
C160	C	1.789800	0.287714	0.185610
C161	C	1.042961	-0.466015	-0.642746
C162	C	1.292961	-0.216015	-0.392746
C163	C	1.542961	0.033985	-0.142746
C164	C	1.792961	0.283985	0.107254
C165	C	1.032470	-0.243232	-0.380565
C166	C	1.282470	0.006768	-0.130565
C167	C	1.532470	0.256768	0.119435
C168	C	1.782470	0.506768	0.369435
C169	C	1.032508	-0.153614	-0.380586
C170	C	1.282508	0.096386	-0.130586
C171	C	1.532508	0.346386	0.119414
C172	C	1.782508	0.596386	0.369414
C173	C	0.999386	-0.414038	-0.677755
C174	C	1.249386	-0.164038	-0.427755
C175	C	1.499386	0.085962	-0.177755
C176	C	1.749386	0.335962	0.072245
C177	C	1.002353	-0.417549	-0.751379
C178	C	1.252353	-0.167549	-0.501379
C179	C	1.502353	0.082451	-0.251379
C180	C	1.752353	0.332451	-0.001379
C181	C	1.048900	-0.473032	-0.789992
C182	C	1.298900	-0.223032	-0.539992
C183	C	1.548900	0.026968	-0.289992
C184	C	1.798900	0.276968	-0.039992
C185	C	1.092477	-0.525014	-0.754978
C186	C	1.342477	-0.275014	-0.504978
C187	C	1.592477	-0.025014	-0.254978
C188	C	1.842477	0.224986	-0.004978
C189	C	1.089505	-0.521507	-0.681355
C190	C	1.339505	-0.271507	-0.431355
C191	C	1.589505	-0.021507	-0.181355
C192	C	1.839505	0.228493	0.068645
C193	C	1.062615	-0.489286	-1.010373
C194	C	1.312615	-0.239286	-0.760373
C195	C	1.562615	0.010714	-0.510373
C196	C	1.812615	0.260714	-0.260373
C197	C	1.065585	-0.492788	-1.084001
C198	C	1.315585	-0.242788	-0.834001
C199	C	1.565585	0.007212	-0.584001
C200	C	1.815585	0.257212	-0.334001
C201	C	0.975460	-0.385323	-1.080397
C202	C	1.225460	-0.135323	-0.830397
C203	C	1.475460	0.114677	-0.580397
C204	C	1.725460	0.364677	-0.330397
C205	C	0.972496	-0.381818	-1.006773
C206	C	1.222496	-0.131818	-0.756773
C207	C	1.472496	0.118182	-0.506773
C208	C	1.722496	0.368182	-0.256773
C209	C	1.016070	-0.433802	-0.971765
C210	C	1.266070	-0.183802	-0.721765
C211	C	1.516070	0.066198	-0.471765
C212	C	1.766070	0.316198	-0.221765
N213	N	1.051935	-0.476620	-0.865247
N214	N	1.301935	-0.226620	-0.615247
N215	N	1.551935	0.023380	-0.365247
N216	N	1.801935	0.273380	-0.115247
N217	N	1.013030	-0.430218	-0.896511
N218	N	1.263030	-0.180218	-0.646511
N219	N	1.513030	0.069782	-0.396511
N220	N	1.763030	0.319782	-0.146511
C221	C	1.025034	-0.444761	-0.197360
C222	C	1.275034	-0.194761	0.052640
C223	C	1.525034	0.055239	0.302640
C224	C	1.775034	0.305239	0.552640
C225	C	1.022010	-0.440812	-0.119010
C226	C	1.272010	-0.190812	0.130990
C227	C	1.522010	0.059188	0.380990
C228	C	1.772010	0.309188	0.630990
H229	H	0.431726	-0.375264	-0.315038
H230	H	0.681726	-0.125264	-0.065038
H231	H	0.931726	0.124736	0.184962
H232	H	1.181726	0.374736	0.434962
H233	H	0.939984	-0.343001	-1.108908
H234	H	1.189984	-0.093001	-0.858908
H235	H	1.439984	0.156999	-0.608908
H236	H	1.689984	0.406999	-0.358908
H237	H	0.438302	-0.570446	-0.478328
H238	H	0.688302	-0.320446	-0.228328
H239	H	0.938302	-0.070446	0.021672
H240	H	1.188302	0.179554	0.271672
H241	H	0.966867	-0.375227	-0.779880
H242	H	1.216867	-0.125227	-0.529880
H243	H	1.466867	0.124773	-0.279880
H244	H	1.716867	0.374773	-0.029880
H245	H	1.124994	-0.563826	-0.652852
H246	H	1.374994	-0.313826	-0.402852
H247	H	1.624994	-0.063826	-0.152852
H248	H	1.874994	0.186174	0.097148
Br249	Br	0.285736	-0.592302	-0.496611
Br250	Br	0.535736	-0.342302	-0.246611
Br251	Br	0.785736	-0.092302	0.003389
Br252	Br	1.035736	0.157698	0.253389
Br253	Br	0.277195	-0.338722	-0.284456
Br254	Br	0.527195	-0.088722	-0.034456
Br255	Br	0.777195	0.161278	0.215544
Br256	Br	1.027195	0.411278	0.465544
Br257	Br	0.614748	-0.560095	-0.469674
Br258	Br	0.864748	-0.310095	-0.219674
Br259	Br	1.114748	-0.060095	0.030326
Br260	Br	1.364748	0.189905	0.280326
Br261	Br	0.606209	-0.306513	-0.257526
Br262	Br	0.856209	-0.056513	-0.007526
Br263	Br	1.106209	0.193487	0.242474
Br264	Br	1.356209	0.443487	0.492474
Br265	Br	0.779747	-0.314822	-0.264468
Br266	Br	1.029747	-0.064822	-0.014468
Br267	Br	1.279747	0.185178	0.235532
Br268	Br	1.529747	0.435178	0.485532
Br269	Br	0.788278	-0.568415	-0.476610
Br270	Br	1.038278	-0.318415	-0.226610
Br271	Br	1.288278	-0.068415	0.023390
Br272	Br	1.538278	0.181585	0.273390
H273	H	0.961486	-0.368853	-0.646322
H274	H	1.211486	-0.118853	-0.396322
H275	H	1.461486	0.131147	-0.146322
H276	H	1.711486	0.381147	0.103678
Br277	Br	0.909326	-0.306512	-0.954374
Br278	Br	1.159326	-0.056512	-0.704374
Br279	Br	1.409326	0.193488	-0.454374
Br280	Br	1.659326	0.443488	-0.204374
H281	H	1.103492	-0.537970	-1.115438
H282	H	1.353492	-0.287970	-0.865438
H283	H	1.603492	-0.037970	-0.615438
H284	H	1.853492	0.212030	-0.365438
H285	H	1.098089	-0.531624	-0.981878
H286	H	1.348089	-0.281624	-0.731878
H287	H	1.598089	-0.031624	-0.481878
H288	H	1.848089	0.218376	-0.231878
H289	H	1.130372	-0.570194	-0.786422
H290	H	1.380372	-0.320194	-0.536422
H291	H	1.630372	-0.070194	-0.286422
H292	H	1.880372	0.179806	-0.036422
