data_functionalizedCrystal
_audit_creation_method	'MofGen! by Chris Wilmer'
_symmetry_space_group_name_H-M	'P1'
_symmetry_Int_Tables_number	1
_symmetry_cell_setting	triclinic
loop_
_symmetry_equiv_pos_as_xyz
  x,y,z
_cell_length_a	10.723024
_cell_length_b	15.538191
_cell_length_c	9.798715
_cell_angle_alpha	89.999989
_cell_angle_beta	89.996609
_cell_angle_gamma	65.869982
loop_
_atom_site_label
_atom_site_type_symbol
_atom_site_fract_x
_atom_site_fract_y
_atom_site_fract_z
O1	O	1.596023	0.131734	-0.113468
O2	O	1.227016	0.144344	-0.113471
O3	O	1.483350	0.001374	-0.113475
O4	O	1.339689	0.274704	-0.113464
O5	O	1.483336	0.001373	0.113507
O6	O	1.227002	0.144343	0.113511
O7	O	1.596009	0.131734	0.113514
Zn8	Zn	1.411503	0.138038	0.149551
Zn9	Zn	1.411522	0.138039	-0.149508
O10	O	1.339675	0.274704	0.113518
C11	C	1.180936	0.143426	0.000019
C12	C	1.043656	0.140680	0.000017
C13	C	0.931530	0.220679	0.000020
C14	C	0.789643	0.217843	0.000018
C15	C	1.498374	-0.033625	0.000011
C16	C	1.543145	-0.137909	-0.000002
C17	C	1.098353	-0.428574	0.000023
C18	C	1.140454	-0.526568	0.000027
C19	C	1.377262	-0.547481	0.000028
C20	C	1.335181	-0.449487	0.000018
C21	C	1.195724	-0.390041	0.000017
C22	C	1.432552	-0.410953	0.000012
C23	C	1.390474	-0.312968	0.000009
C24	C	1.251024	-0.253516	0.000012
C25	C	1.153646	-0.292055	0.000014
C26	C	1.572008	-0.470401	0.000023
C27	C	1.669379	-0.431867	0.000017
C28	C	1.627302	-0.333880	0.000004
C29	C	1.487852	-0.274428	0.000007
C30	C	1.724680	-0.295341	0.000002
C31	C	1.682601	-0.197355	-0.000001
C32	C	1.445773	-0.176443	0.000004
C33	C	1.642090	0.132651	0.000021
C34	C	1.779369	0.135397	0.000014
C35	C	1.324652	0.309702	0.000029
C36	C	1.279880	0.413987	0.000033
N37	N	1.411500	0.138037	0.353651
N38	N	1.411539	0.138032	-0.353608
C39	C	1.519250	0.077744	0.421426
C40	C	1.519272	0.077741	0.578589
H41	H	0.875594	0.066908	0.000003
H42	H	1.034608	0.070091	-0.000021
H43	H	1.061151	-0.557937	0.000052
H44	H	0.940578	0.291268	0.000031
C45	C	1.820765	-0.496459	-0.000268
C46	C	1.851846	-0.553311	-0.117060
C47	C	1.991293	-0.612814	-0.117382
H48	H	1.842262	-0.535203	0.078795
H49	H	1.872781	-0.459508	-0.000349
H50	H	1.799847	-0.590259	-0.116966
H51	H	1.830382	-0.514593	-0.196141
H52	H	2.043310	-0.575863	-0.117464
H53	H	2.012778	-0.651552	-0.038315
H54	H	2.012403	-0.651389	-0.196630
C55	C	1.528711	-0.611916	-0.000190
C56	C	1.589919	-0.594376	-0.116958
C57	C	1.729436	-0.653705	-0.117203
H58	H	1.540017	-0.675822	-0.000257
H59	H	1.570533	-0.600138	0.078917
H60	H	1.548110	-0.606161	-0.196045
H61	H	1.578651	-0.530482	-0.116916
H62	H	1.771259	-0.641927	-0.038096
H63	H	1.740729	-0.717608	-0.117266
H64	H	1.770986	-0.641807	-0.196421
C65	C	1.788106	-0.155330	0.000057
C66	C	1.721404	-0.056795	0.000093
C67	C	1.818552	-0.018050	0.000172
H68	H	1.843708	-0.175579	-0.079076
H69	H	1.843640	-0.175628	0.079242
H70	H	1.665894	-0.036506	-0.079083
H71	H	1.665809	-0.036520	0.079221
H72	H	1.874085	-0.038348	0.079357
H73	H	1.874148	-0.038306	-0.078962
H74	H	1.773309	0.048809	0.000210
C75	C	1.288419	0.206974	0.568944
C76	C	1.189047	0.262611	0.661967
C77	C	1.075619	0.326139	0.590661
H78	H	1.251640	0.173023	0.513203
H79	H	1.315664	0.246294	0.513226
H80	H	1.161802	0.223297	0.717661
H81	H	1.225782	0.296583	0.717710
H82	H	1.102864	0.365459	0.534943
H83	H	1.038852	0.292180	0.534923
H84	H	1.008187	0.363902	0.653766
C85	C	1.642157	0.008783	0.343704
C86	C	1.663478	-0.083623	0.378295
C87	C	1.776675	-0.147167	0.306700
H88	H	1.720836	0.019243	0.366965
H89	H	1.625787	0.017892	0.248402
H90	H	1.679856	-0.092728	0.473576
H91	H	1.584829	-0.094113	0.355031
H92	H	1.760305	-0.138058	0.211398
H93	H	1.855344	-0.136698	0.329966
H94	H	1.791148	-0.209871	0.330150
H95	H	0.693413	0.286328	0.000015
H96	H	1.332214	-0.128038	-0.000007
H97	H	1.319264	0.189652	0.411977
C98	C	1.205523	-0.147146	0.000221
C99	C	1.256139	-0.120419	0.116978
C100	C	1.214266	-0.022441	0.117207
H101	H	1.108547	-0.117149	0.000291
H102	H	1.239784	-0.128814	-0.078894
H103	H	1.221871	-0.138741	0.196072
H104	H	1.353111	-0.150391	0.116933
H105	H	1.248528	-0.004109	0.038092
H106	H	1.117291	0.007548	0.117273
H107	H	1.248614	-0.004295	0.196418
H108	H	1.040087	-0.243651	0.000004
H109	H	0.984794	-0.380169	0.000013
C110	C	1.642435	0.009012	0.656218
C111	C	1.758013	0.024815	0.621560
C112	C	1.871494	-0.038475	0.693060
H113	H	1.657270	-0.053775	0.632925
H114	H	1.626185	0.018161	0.751534
H115	H	1.774261	0.015658	0.526265
H116	H	1.743223	0.087589	0.644857
H117	H	1.855244	-0.029326	0.788376
H118	H	1.886316	-0.101258	0.669761
H119	H	1.949924	-0.027756	0.669564
H120	H	1.606263	-0.550186	0.000013
H121	H	1.838225	-0.343756	0.000016
