data_functionalizedCrystal
_audit_creation_method	'MofGen! by Chris Wilmer'
_symmetry_space_group_name_H-M	'P1'
_symmetry_Int_Tables_number	1
_symmetry_cell_setting	triclinic
loop_
_symmetry_equiv_pos_as_xyz
  x,y,z
_cell_length_a	13.032831
_cell_length_b	12.594516
_cell_length_c	13.034356
_cell_angle_alpha	82.793051
_cell_angle_beta	74.815040
_cell_angle_gamma	82.821304
loop_
_atom_site_label
_atom_site_type_symbol
_atom_site_fract_x
_atom_site_fract_y
_atom_site_fract_z
Zn1	Zn	1.700212	-0.539591	-0.806488
Zn2	Zn	1.677534	-0.737648	-0.628874
Zn3	Zn	1.500017	-0.539600	-0.606370
Zn4	Zn	1.522563	-0.697435	-0.783924
O5	O	1.600081	-0.628569	-0.706414
O6	O	1.845842	-0.582689	-0.801788
O7	O	1.635060	-0.728209	-0.477251
O8	O	1.526628	-0.390657	-0.632941
O9	O	1.829181	-0.728200	-0.671296
O10	O	1.673711	-0.390651	-0.779966
O11	O	1.504638	-0.582705	-0.460717
O12	O	1.354369	-0.543712	-0.611062
O13	O	1.565054	-0.659664	-0.935556
O14	O	1.370933	-0.659673	-0.741510
O15	O	1.695573	-0.543697	-0.952133
O16	O	1.656921	-0.881255	-0.649417
O17	O	1.543065	-0.851711	-0.763332
C18	C	1.324111	-0.597331	-0.671396
C19	C	1.206053	-0.583990	-0.656441
C20	C	1.161630	-0.635532	-0.714219
C21	C	1.039610	-0.621744	-0.698763
C22	C	1.600010	-0.905103	-0.706395
C23	C	1.600082	-1.023412	-0.706434
C24	C	1.538142	-1.076640	-0.768342
C25	C	1.499946	-1.155524	-0.668141
C26	C	1.638377	-1.155336	-0.806664
C27	C	1.561828	-1.100738	-0.606176
C28	C	1.700312	-1.100542	-0.744770
C29	C	1.662145	-1.179406	-0.644507
C30	C	1.877130	-0.659929	-0.741569
C31	C	1.995191	-0.673293	-0.756550
C32	C	1.635358	-0.597194	-0.983462
C33	C	1.650391	-0.583823	-1.101524
C34	C	1.600184	-0.350955	-0.706460
C35	C	1.600228	-0.232653	-0.706480
C36	C	1.608049	-0.621429	-1.267980
C37	C	1.592509	-0.635247	-1.145957
C38	C	1.565003	-0.659752	-0.430451
C39	C	1.550176	-0.672845	-0.312417
H40	H	1.213932	-0.689861	-0.775132
H41	H	1.153751	-0.529651	-0.595536
H42	H	0.987312	-0.567402	-0.637855
H43	H	1.415252	-1.179964	-0.635749
H44	H	1.669106	-0.567183	-1.320274
C45	C	1.172995	-0.746110	-0.838183
C46	C	1.065781	-0.746648	-0.838786
H47	H	1.216571	-0.791399	-0.888948
H48	H	1.193120	-0.674887	-0.856130
H49	H	1.182004	-0.771696	-0.769065
H50	H	1.056770	-0.721054	-0.907902
H51	H	1.045649	-0.817885	-0.820846
H52	H	1.531457	-0.689505	-1.093667
H53	H	1.485643	-1.032043	-0.820594
C54	C	1.692666	-1.211881	-0.468920
C55	C	1.732928	-1.239373	-0.573771
H56	H	1.736359	-1.248910	-0.425249
H57	H	1.692538	-1.136564	-0.468069
H58	H	1.621799	-1.231542	-0.442327
H59	H	1.803793	-1.219705	-0.600367
H60	H	1.733068	-1.314707	-0.574627
C61	C	1.427019	-0.995176	-0.487219
C62	C	1.518044	-1.068183	-0.491724
H63	H	1.399984	-0.975083	-0.416561
H64	H	1.445229	-0.933100	-0.534996
H65	H	1.374104	-1.027843	-0.507030
H66	H	1.570962	-1.035513	-0.471921
H67	H	1.499837	-1.130270	-0.443932
C68	C	1.732245	-0.511046	-1.279319
C69	C	1.732807	-0.510568	-1.172100
H70	H	1.783117	-0.465814	-1.322887
H71	H	1.750069	-0.582270	-1.299407
H72	H	1.663167	-0.485362	-1.288379
H73	H	1.801882	-0.536260	-1.163039
H74	H	1.714989	-0.439330	-1.152006
C75	C	1.468310	-0.745593	-1.134614
C76	C	1.467752	-0.746082	-1.241833
H77	H	1.417418	-0.790803	-1.091042
H78	H	1.537371	-0.771290	-1.125545
H79	H	1.450501	-0.674354	-1.114537
H80	H	1.485569	-0.817320	-1.261912
H81	H	1.398676	-0.720390	-1.250907
H82	H	1.784993	-1.076098	-0.777206
C83	C	1.616959	-1.135587	-0.985715
C84	C	1.682029	-1.188066	-0.921065
H85	H	1.643908	-1.155785	-1.056342
H86	H	1.546245	-1.155370	-0.958076
H87	H	1.616610	-1.060010	-0.986582
H88	H	1.682372	-1.263642	-0.920191
H89	H	1.752762	-1.168289	-0.948711
