data_functionalizedCrystal
_audit_creation_method	'MofGen! by Chris Wilmer'
_symmetry_space_group_name_H-M	'P1'
_symmetry_Int_Tables_number	1
_symmetry_cell_setting	triclinic
loop_
_symmetry_equiv_pos_as_xyz
  x,y,z
_cell_length_a	14.560432
_cell_length_b	23.196402
_cell_length_c	23.196401
_cell_angle_alpha	60.008822
_cell_angle_beta	90.013895
_cell_angle_gamma	60.001874
loop_
_atom_site_label
_atom_site_type_symbol
_atom_site_fract_x
_atom_site_fract_y
_atom_site_fract_z
Zr1	Zr	0.884748	0.631013	-0.075628
O2	O	0.738072	0.751278	-0.167675
O3	O	0.929708	0.510748	-0.047415
O4	O	0.929667	0.631015	-0.167680
O5	O	0.738149	0.631009	0.047462
O6	O	1.080805	0.631018	-0.167680
O7	O	0.738113	0.631011	-0.047409
O8	O	1.080878	0.415882	0.047452
O9	O	0.738077	0.846145	-0.167671
O10	O	1.061680	0.560217	-0.035378
O11	O	0.948914	0.560214	0.035424
O12	O	0.948867	0.701813	-0.106173
O13	O	0.836101	0.701810	-0.035372
Zr14	Zr	1.125853	0.631015	0.075680
Zr15	Zr	1.125795	0.631017	-0.075629
Zr16	Zr	0.884805	0.631011	0.075680
Zr17	Zr	0.884754	0.782316	-0.075622
Zr18	Zr	1.125846	0.479712	0.075674
O19	O	1.080892	0.751280	0.047467
O20	O	1.080810	0.751283	-0.167675
O21	O	0.738154	0.751274	0.047467
O22	O	1.272528	0.510751	0.167726
O23	O	1.272446	0.510754	-0.047415
O24	O	0.929790	0.510745	0.167727
O25	O	1.272451	0.631019	-0.047410
O26	O	1.080933	0.631013	0.167732
O27	O	0.929795	0.631010	0.167732
O28	O	1.272487	0.631018	0.047461
O29	O	0.929677	0.846148	-0.167671
O30	O	1.080924	0.415880	0.167723
O31	O	1.272524	0.415883	0.167722
O32	O	1.272478	0.415885	0.047452
O33	O	0.738122	0.846143	-0.047400
O34	O	0.929723	0.846146	-0.047400
O35	O	1.061734	0.560215	0.106225
O36	O	1.174499	0.560218	0.035423
O37	O	1.061686	0.701814	-0.035372
O38	O	0.948921	0.701811	0.035430
C39	C	1.005292	0.441758	0.000018
C40	C	1.005289	0.377526	0.000015
C41	C	1.064144	0.347357	-0.036945
C42	C	1.064155	0.286996	-0.036940
C43	C	1.005289	0.256818	0.000017
C44	C	0.946432	0.286991	0.036985
C45	C	0.946432	0.347345	0.036984
C46	C	0.906667	0.194787	-0.005257
C47	C	0.906664	0.134438	-0.005262
C48	C	1.005290	0.070663	0.000024
C49	C	1.103919	0.067253	0.005299
C50	C	1.103919	0.127607	0.005298
C51	C	1.005283	0.191374	0.000022
C52	C	1.064162	-0.024957	-0.036932
C53	C	1.064176	-0.085323	-0.036921
C54	C	0.946442	-0.085321	0.036999
C55	C	0.946439	-0.024962	0.036993
C56	C	1.005296	0.005219	0.000024
C57	C	0.703787	0.631009	0.000026
C58	C	0.601456	0.631008	0.000026
C59	C	0.719217	0.483180	0.073930
C60	C	0.730021	0.409268	0.110879
C61	C	0.633868	0.409272	0.110877
C62	C	0.526904	0.483195	0.073924
C63	C	0.516100	0.557106	0.036976
C64	C	0.612261	0.557094	0.036980
C65	C	0.398341	0.704932	-0.036923
C66	C	0.494492	0.704930	-0.036926
C67	C	0.291376	0.778855	-0.073876
C68	C	0.280571	0.852768	-0.110830
C69	C	0.376732	0.852761	-0.110827
C70	C	0.483688	0.778842	-0.073875
C71	C	1.306813	0.631019	0.000026
C72	C	1.409144	0.631021	0.000025
C73	C	1.005228	0.631017	-0.189239
C74	C	1.005204	0.631018	-0.253473
C75	C	1.005308	0.820270	0.000034
C76	C	1.005311	0.884502	0.000037
C77	C	0.946322	0.704927	-0.320600
C78	C	0.946350	0.704929	-0.380956
C79	C	1.005245	0.631016	-0.374179
C80	C	1.064140	0.557097	-0.307040
C81	C	1.064119	0.557098	-0.246687
C82	C	0.996880	0.574388	-0.441499
C83	C	0.996892	0.574390	-0.501853
C84	C	1.005317	0.631010	-0.560327
C85	C	1.013705	0.687641	-0.558448
C86	C	1.013684	0.687642	-0.498094
C87	C	1.005275	0.631007	-0.439618
C88	C	0.946463	0.704926	-0.692901
C89	C	0.946500	0.704924	-0.753256
C90	C	1.064282	0.557090	-0.679338
C91	C	1.064253	0.557094	-0.618985
C92	C	1.005337	0.631014	-0.625772
C93	C	1.005372	0.631011	0.189290
C94	C	1.005397	0.631010	0.253525
C95	C	1.306805	0.441763	0.000017
C96	C	1.409133	0.377533	0.000015
C97	C	1.005364	0.441755	0.189282
C98	C	1.005386	0.377522	0.253514
C99	C	1.306877	0.441760	0.189282
C100	C	1.409230	0.377529	0.253513
C101	C	0.703723	0.820268	-0.189230
C102	C	0.601371	0.884500	-0.253462
C103	C	0.703795	0.820265	0.000034
C104	C	0.601467	0.884496	0.000037
C105	C	1.005236	0.820273	-0.189230
C106	C	1.005215	0.884506	-0.253462
C107	C	1.398297	0.347369	-0.036951
C108	C	1.494436	0.287026	-0.036968
C109	C	1.601410	0.256844	-0.000015
C110	C	1.612244	0.287014	0.036952
C111	C	1.516106	0.347359	0.036964
C112	C	1.064286	0.347358	0.320642
C113	C	1.064302	0.287013	0.381000
C114	C	1.005424	0.256829	0.374229
C115	C	0.946516	0.286999	0.307094
C116	C	0.946494	0.347347	0.246737
C117	C	1.516168	0.347367	0.246720
C118	C	1.612348	0.287023	0.307066
C119	C	1.601588	0.256838	0.374206
C120	C	1.494638	0.287007	0.380999
C121	C	1.398460	0.347353	0.320653
C122	C	0.494432	0.914669	-0.246668
C123	C	0.398252	0.975031	-0.307015
C124	C	0.409013	1.005219	-0.374155
C125	C	0.515962	0.975047	-0.380947
C126	C	0.612140	0.914690	-0.320601
C127	C	0.612304	0.914666	0.036996
C128	C	0.516165	0.975025	0.036996
C129	C	0.409191	1.005209	0.000041
C130	C	0.398357	0.975037	-0.036922
C131	C	0.494495	0.914683	-0.036926
C132	C	1.064105	0.914671	-0.246669
C133	C	1.064106	0.975017	-0.307015
C134	C	1.005211	1.005200	-0.374155
C135	C	0.946319	0.975029	-0.380948
C136	C	0.946324	0.914681	-0.320601
H137	H	1.184226	0.124826	0.009596
H138	H	0.448616	0.483191	0.073933
N139	N	0.882782	0.882164	-0.327937
H140	H	0.891711	0.839354	-0.279524
H141	H	0.913681	0.857173	-0.354630
N142	N	0.365066	0.932485	-0.150684
H143	H	0.402313	0.935785	-0.187878
H144	H	0.402340	0.935727	-0.116738
N145	N	0.727479	0.882150	-0.327934
H146	H	0.719691	0.910435	-0.379625
H147	H	0.769937	0.821568	-0.304514
H148	H	1.112233	0.371927	0.326168
H149	H	0.330689	1.054365	-0.423286
N150	N	1.127631	1.007545	-0.299673
H151	H	1.096745	1.032585	-0.273013
H152	H	1.118689	1.050321	-0.348108
H153	H	1.699355	0.262431	0.067037
N154	N	0.282916	1.007549	-0.299670
H155	H	0.240385	0.997051	-0.323067
H156	H	0.240472	1.068119	-0.323036
N157	N	1.527802	0.379887	0.076839
H158	H	1.610159	0.351604	0.100245
H159	H	1.490499	0.369374	0.113999
H160	H	0.525008	0.999581	0.067099
N161	N	0.727678	0.882118	0.076853
H162	H	0.736707	0.857084	0.128553
H163	H	0.736603	0.928204	0.057404
N164	N	1.127845	0.254477	0.453404
H165	H	1.165149	0.282753	0.448529
H166	H	1.187042	0.193893	0.480056
H167	H	1.699422	0.262466	0.301523
H168	H	0.524710	0.999634	-0.435619
H169	H	1.679682	0.207706	-0.000030
N170	N	0.800281	0.263573	-0.010963
H171	H	0.815246	0.301289	-0.010161
H172	H	0.774868	0.240467	0.030114
N173	N	1.127631	0.882125	-0.174258
H174	H	1.164937	0.910396	-0.179122
H175	H	1.186825	0.821541	-0.147611
H176	H	1.005451	0.207690	0.423382
N177	N	0.187661	0.778869	-0.073882
H178	H	0.187633	0.749844	-0.023830
H179	H	0.187656	0.749876	-0.094957
H180	H	0.898578	0.262414	0.301592
N181	N	0.282973	1.007586	-0.076766
H182	H	0.273913	1.032634	-0.128471
H183	H	0.223799	1.050359	-0.071087
N184	N	0.882982	0.379862	0.174337
H185	H	0.891897	0.422672	0.137123
H186	H	0.800644	0.404853	0.168748
N187	N	1.527790	0.379908	0.174309
H188	H	1.610136	0.351638	0.179173
H189	H	1.490450	0.440493	0.147656
H190	H	1.311390	0.371903	0.326194
N191	N	1.127626	0.254463	-0.076817
H192	H	1.073601	0.264968	-0.114004
H193	H	1.186891	0.193891	-0.042883
N194	N	0.305504	1.070305	0.000049
H195	H	0.328611	1.084832	0.029074
H196	H	0.259274	1.049256	0.021067
N197	N	1.005222	1.070283	-0.439240
H198	H	1.051470	1.084807	-0.424742
H199	H	0.925448	1.120327	-0.468268
H200	H	1.112196	0.496909	-0.564326
H201	H	1.679911	0.207700	0.423338
N202	N	1.483041	0.254446	0.453416
H203	H	1.560202	0.211638	0.490608
H204	H	1.440537	0.229441	0.459010
H205	H	0.485649	0.890093	-0.192005
N206	N	0.882987	0.784656	-0.825655
H207	H	0.823744	0.787958	-0.852367
H208	H	0.937067	0.787913	-0.852270
H209	H	1.112109	-0.109890	-0.067016
H210	H	0.898367	0.999614	-0.435621
N211	N	1.127624	0.379909	-0.076817
H212	H	1.164910	0.351634	-0.100230
H213	H	1.186830	0.369408	-0.042886
N214	N	1.210304	-0.001524	0.010998
H215	H	1.195344	-0.039245	0.010203
H216	H	1.271029	-0.032867	0.056688
H217	H	0.990011	0.528282	-0.393891
N218	N	1.127643	0.007599	-0.076801
H219	H	1.164938	-0.020680	-0.100210
H220	H	1.186842	-0.002897	-0.042869
N221	N	0.882962	-0.117870	0.076867
H222	H	0.823699	-0.107374	0.042977
H223	H	0.845747	-0.089581	0.100278
H224	H	0.485656	0.890120	-0.067021
N225	N	0.882952	0.007578	0.076858
H226	H	0.800581	0.032615	0.057474
H227	H	0.891971	0.050358	0.071241
N228	N	0.800295	0.138110	-0.010921
H229	H	0.739489	0.190528	-0.056600
H230	H	0.774988	0.136029	0.030203
H231	H	0.898504	0.262415	0.067076
H232	H	0.898502	0.371909	0.067082
N233	N	1.482743	0.254482	-0.076829
H234	H	1.519977	0.264992	-0.114031
H235	H	1.400366	0.282768	-0.100184
H236	H	0.990056	0.528280	-0.503378
N237	N	0.822926	0.483173	0.073931
H238	H	0.799852	0.541212	0.044917
H239	H	0.869136	0.454122	0.052906
N240	N	0.845383	0.329538	0.150733
H241	H	0.887925	0.326232	0.187929
H242	H	0.887790	0.326294	0.116786
N243	N	0.645516	0.329555	0.150718
H244	H	0.568370	0.340779	0.145105
H245	H	0.688052	0.297264	0.202404
N246	N	0.165210	0.932489	-0.150685
H247	H	0.172952	0.979313	-0.174096
H248	H	0.122773	0.935706	-0.116746
N249	N	0.587402	0.778828	-0.073873
H250	H	0.633701	0.749798	-0.023817
H251	H	0.564245	0.836886	-0.102918
N252	N	0.882795	0.784652	-0.327918
H253	H	0.845502	0.831474	-0.379606
H254	H	0.936855	0.787869	-0.304473
N255	N	0.882840	0.784648	-0.453369
H256	H	0.845516	0.831475	-0.448509
H257	H	0.823662	0.787857	-0.480029
N258	N	1.282928	0.379912	-0.076810
H259	H	1.223657	0.422717	-0.071196
H260	H	1.274039	0.333814	-0.057406
H261	H	1.020517	0.733752	-0.496567
N262	N	1.127620	0.477376	-0.174281
H263	H	1.118666	0.488593	-0.137076
H264	H	1.209967	0.445101	-0.168674
H265	H	1.020560	0.733749	-0.606060
H266	H	1.112237	0.496909	-0.673819
N267	N	0.882926	0.784648	-0.700212
H268	H	0.845634	0.831472	-0.751899
H269	H	0.936975	0.787869	-0.676763
H270	H	1.112094	0.496917	-0.301526
