data_functionalizedCrystal
_audit_creation_method	'MofGen! by Chris Wilmer'
_symmetry_space_group_name_H-M	'P1'
_symmetry_Int_Tables_number	1
_symmetry_cell_setting	triclinic
loop_
_symmetry_equiv_pos_as_xyz
  x,y,z
_cell_length_a	12.759401
_cell_length_b	17.637651
_cell_length_c	12.759393
_cell_angle_alpha	78.751097
_cell_angle_beta	89.979062
_cell_angle_gamma	101.220604
loop_
_atom_site_label
_atom_site_type_symbol
_atom_site_fract_x
_atom_site_fract_y
_atom_site_fract_z
Zn1	Zn	1.521705	-0.314700	-0.509352
Zn2	Zn	2.021705	0.185300	-0.009352
Zn3	Zn	1.486064	-0.446936	-0.298095
Zn4	Zn	1.986064	0.053064	0.201905
Zn5	Zn	1.345992	-0.314742	-0.333676
Zn6	Zn	1.845992	0.185258	0.166324
Zn7	Zn	1.310478	-0.446881	-0.473747
Zn8	Zn	1.810478	0.053119	0.026253
O9	O	1.416060	-0.380814	-0.403718
O10	O	1.916060	0.119186	0.096282
O11	O	1.663997	-0.332247	-0.481339
O12	O	2.163997	0.167753	0.018661
O13	O	1.467430	-0.429441	-0.155783
O14	O	1.967430	0.070559	0.344217
O15	O	1.399080	-0.204094	-0.386772
O16	O	1.899080	0.295906	0.113228
O17	O	1.637811	-0.429400	-0.326129
O18	O	2.137811	0.070600	0.173871
O19	O	1.528175	-0.204063	-0.515840
O20	O	2.028175	0.295937	-0.015840
O21	O	1.364520	-0.332318	-0.181924
O22	O	1.864520	0.167682	0.318076
O23	O	1.194262	-0.332265	-0.352247
O24	O	1.694262	0.167735	0.147753
O25	O	1.338551	-0.429306	-0.625502
O26	O	1.838551	0.070694	-0.125502
O27	O	1.168170	-0.429347	-0.455156
O28	O	1.668170	0.070653	0.044844
O29	O	1.493738	-0.332193	-0.651661
O30	O	1.993738	0.167807	-0.151661
O31	O	1.432993	-0.557571	-0.291604
O32	O	1.932993	-0.057571	0.208396
O33	O	1.303991	-0.557530	-0.420655
O34	O	1.803991	-0.057530	0.079345
C35	C	1.143095	-0.380805	-0.403699
C36	C	1.643095	0.119195	0.096301
C37	C	1.026314	-0.380820	-0.403711
C38	C	1.526314	0.119180	0.096289
C39	C	0.957873	-0.431447	-0.457170
C40	C	1.457873	0.068553	0.042830
C41	C	0.848148	-0.431450	-0.457190
C42	C	1.348148	0.068550	0.042810
C43	C	0.875316	-0.330196	-0.350284
C44	C	1.375316	0.169804	0.149716
C45	C	0.985040	-0.330190	-0.350271
C46	C	1.485040	0.169810	0.149729
C47	C	1.360799	-0.586238	-0.348428
C48	C	1.860799	-0.086238	0.151572
C49	C	1.337254	-0.674120	-0.324810
C50	C	1.837254	-0.174120	0.175190
C51	C	1.595609	-0.962775	-0.583473
C52	C	2.095609	-0.462775	-0.083473
C53	C	1.573452	-1.045353	-0.561262
C54	C	2.073452	-0.545353	-0.061262
C55	C	1.439114	-1.045493	-0.426733
C56	C	1.939114	-0.545493	0.073267
C57	C	1.461264	-0.962913	-0.448929
C58	C	1.961264	-0.462913	0.051071
C59	C	1.539512	-0.921561	-0.527301
C60	C	2.039512	-0.421561	-0.027301
C61	C	1.405166	-0.921699	-0.392757
C62	C	1.905166	-0.421699	0.107243
C63	C	1.427311	-0.839126	-0.414956
C64	C	1.927311	-0.339126	0.085044
C65	C	1.505553	-0.797768	-0.493327
C66	C	2.005553	-0.297768	0.006673
C67	C	1.561656	-0.838989	-0.549500
C68	C	2.061656	-0.338989	-0.049500
C69	C	1.326914	-0.963052	-0.314391
C70	C	1.826914	-0.463052	0.185609
C71	C	1.270816	-0.921838	-0.258219
C72	C	1.770816	-0.421838	0.241781
C73	C	1.292966	-0.839264	-0.280412
C74	C	1.792966	-0.339264	0.219588
C75	C	1.371207	-0.797906	-0.358783
C76	C	1.871207	-0.297906	0.141217
C77	C	1.236862	-0.798044	-0.224239
C78	C	1.736862	-0.298044	0.275761
C79	C	1.259007	-0.715472	-0.246438
C80	C	1.759007	-0.215472	0.253562
C81	C	1.393352	-0.715334	-0.380981
C82	C	1.893352	-0.215334	0.119019
C83	C	1.690090	-0.380825	-0.403736
C84	C	2.190090	0.119175	0.096264
C85	C	1.806866	-0.380829	-0.403744
C86	C	2.306866	0.119171	0.096256
C87	C	1.416159	-0.380739	-0.677772
C88	C	1.916159	0.119261	-0.177772
C89	C	1.416201	-0.380706	-0.794557
C90	C	1.916201	0.119294	-0.294557
C91	C	1.471565	-0.174588	-0.459246
C92	C	1.971565	0.325412	0.040754
C93	C	1.495218	-0.086707	-0.482910
C94	C	1.995218	0.413293	0.017090
C95	C	1.497014	-0.330131	-0.863044
C96	C	1.997014	0.169869	-0.363044
C97	C	1.497041	-0.330097	-0.972777
C98	C	1.997041	0.169903	-0.472777
C99	C	1.335437	-0.431220	-0.945525
C100	C	1.835437	0.068780	-0.445525
C101	C	1.335407	-0.431249	-0.835795
C102	C	1.835407	0.068751	-0.335795
C103	C	1.416037	-0.380833	-0.130745
C104	C	1.916037	0.119167	0.369255
C105	C	1.416258	-0.380643	-0.014020
C106	C	1.916258	0.119357	0.485980
H107	H	1.457077	-0.681663	-0.444792
H108	H	1.957077	-0.181663	0.055208
H109	H	1.659334	-0.929105	-0.647284
H110	H	2.159334	-0.429105	-0.147284
C111	C	1.353110	-1.090989	-0.340460
C112	C	1.853110	-0.590989	0.159540
N113	N	1.288357	-1.125257	-0.275452
N114	N	1.788357	-0.625257	0.224548
H115	H	1.269591	-0.472432	-0.780031
H116	H	1.769591	0.027568	-0.280031
H117	H	0.991475	-0.472671	-0.500687
H118	H	1.491475	0.027329	-0.000687
C119	C	1.060331	-0.274493	-0.291459
C120	C	1.560331	0.225507	0.208541
N121	N	1.117040	-0.232542	-0.247166
N122	N	1.617040	0.267458	0.252834
C123	C	1.585883	-0.274526	-0.817688
C124	C	2.085883	0.225474	-0.317688
N125	N	1.652819	-0.232639	-0.783530
N126	N	2.152819	0.267361	-0.283530
H127	H	1.269659	-0.472372	-0.979115
H128	H	1.769659	0.027628	-0.479115
C129	C	0.772865	-0.487152	-0.515987
C130	C	1.272865	0.012848	-0.015987
N131	N	0.716160	-0.529111	-0.560272
N132	N	1.216160	-0.029111	-0.060272
H133	H	0.841697	-0.288976	-0.306774
H134	H	1.341697	0.211024	0.193226
H135	H	1.523581	-0.730533	-0.511399
H136	H	2.023581	-0.230533	-0.011399
H137	H	1.213325	-0.681915	-0.200697
H138	H	1.713325	-0.181915	0.299303
C139	C	1.647731	-0.793496	-0.635715
C140	C	2.147731	-0.293496	-0.135715
N141	N	1.712556	-0.759232	-0.700653
N142	N	2.212556	-0.259232	-0.200653
H143	H	1.619124	-1.078907	-0.607025
H144	H	2.119124	-0.578907	-0.107025
H145	H	1.308877	-1.030288	-0.296330
H146	H	1.808877	-0.530288	0.203670
H147	H	1.173146	-0.831726	-0.160436
H148	H	1.673146	-0.331726	0.339564
C149	C	1.184812	-0.967335	-0.171947
C150	C	1.684812	-0.467335	0.328053
N151	N	1.120059	-1.001602	-0.106938
N152	N	1.620059	-0.501602	0.393062
H153	H	1.562846	-0.288913	-1.028536
H154	H	2.062846	0.211087	-0.528536
