data_functionalizedCrystal
_audit_creation_method	'MofGen! by Chris Wilmer'
_symmetry_space_group_name_H-M	'P1'
_symmetry_Int_Tables_number	1
_symmetry_cell_setting	triclinic
loop_
_symmetry_equiv_pos_as_xyz
  x,y,z
_cell_length_a	14.044220
_cell_length_b	8.597304
_cell_length_c	7.088929
_cell_angle_alpha	76.027438
_cell_angle_beta	96.777923
_cell_angle_gamma	89.222988
loop_
_atom_site_label
_atom_site_type_symbol
_atom_site_fract_x
_atom_site_fract_y
_atom_site_fract_z
O1	O	1.247665	0.399762	-0.224622
O2	O	0.971704	0.385883	-0.222385
O3	O	1.117416	0.161571	-0.185406
O4	O	1.101953	0.624073	-0.261601
O5	O	1.136889	0.131521	0.137523
O6	O	0.991177	0.355832	0.100545
O7	O	1.267138	0.369711	0.098307
Cu8	Cu	1.130936	0.360028	0.128912
Cu9	Cu	1.107907	0.395566	-0.252989
O10	O	1.121426	0.594022	0.061329
C11	C	1.126577	0.086999	-0.014136
C12	C	1.124851	-0.090435	0.015082
C13	C	0.946131	0.364780	-0.059925
C14	C	0.840919	0.346653	-0.056958
C15	C	0.648286	0.313507	-0.051460
C16	C	0.590549	0.442081	-0.072633
C17	C	0.483362	0.423638	-0.069574
C18	C	0.755484	0.331948	-0.054519
C19	C	1.292711	0.390814	-0.064156
C20	C	1.397923	0.408942	-0.067136
C21	C	1.112265	0.668596	-0.109946
C22	C	1.113991	0.846030	-0.139176
N23	N	1.147140	0.335031	0.397521
N24	N	1.091710	0.420551	-0.521596
H25	H	1.106010	-0.072621	-0.293608
N26	N	1.135417	-0.198193	0.219660
H27	H	1.199071	-0.181002	0.292654
H28	H	1.081571	-0.171788	0.290976
H29	H	0.621619	0.566008	-0.093059
H30	H	0.617218	0.189590	-0.031034
N31	N	1.015607	0.537926	0.350902
H32	H	0.950449	0.506798	0.390778
H33	H	1.028716	0.649435	0.367300
H34	H	1.204598	0.246416	0.493785
