data_functionalizedCrystal
_audit_creation_method	'MofGen! by Chris Wilmer'
_symmetry_space_group_name_H-M	'P1'
_symmetry_Int_Tables_number	1
_symmetry_cell_setting	triclinic
loop_
_symmetry_equiv_pos_as_xyz
  x,y,z
_cell_length_a	12.759401
_cell_length_b	15.299816
_cell_length_c	12.759393
_cell_angle_alpha	80.349878
_cell_angle_beta	90.018496
_cell_angle_gamma	80.350473
loop_
_atom_site_label
_atom_site_type_symbol
_atom_site_fract_x
_atom_site_fract_y
_atom_site_fract_z
Zn1	Zn	1.678544	-0.358997	0.666396
Zn2	Zn	1.708812	-0.509841	0.521143
Zn3	Zn	1.502855	-0.359045	0.490745
Zn4	Zn	1.533194	-0.509771	0.696771
O5	O	1.605851	-0.434413	0.593764
O6	O	1.829582	-0.379016	0.647138
O7	O	1.681462	-0.489886	0.370100
O8	O	1.500796	-0.232830	0.488612
O9	O	1.851820	-0.489840	0.540421
O10	O	1.629874	-0.232796	0.617662
O11	O	1.530146	-0.379097	0.347766
O12	O	1.359857	-0.379030	0.518065
O13	O	1.552505	-0.489722	0.839753
O14	O	1.382147	-0.489768	0.669431
O15	O	1.659292	-0.378949	0.817437
O16	O	1.710881	-0.636039	0.569874
O17	O	1.581855	-0.635988	0.698907
C18	C	1.332881	-0.434397	0.593746
C19	C	1.216107	-0.434411	0.593768
C20	C	1.652973	-0.668738	0.641008
C21	C	1.673228	-0.768983	0.661255
C22	C	1.172898	-0.492165	0.672492
C23	C	1.063176	-0.492177	0.672506
C24	C	1.039882	-0.376678	0.515062
C25	C	1.149601	-0.376663	0.515054
C26	C	1.239403	-0.549914	0.751206
C27	C	1.196195	-0.607673	0.829936
C28	C	1.086473	-0.607684	0.829950
C29	C	1.019960	-0.549937	0.751234
C30	C	1.461775	-1.051929	0.449415
C31	C	1.442739	-0.957743	0.430395
C32	C	1.500360	-0.910549	0.488108
C33	C	1.577019	-0.957549	0.564845
C34	C	1.596051	-1.051743	0.583873
C35	C	1.634636	-0.910363	0.622566
C36	C	1.711296	-0.957363	0.699303
C37	C	1.730325	-1.051548	0.718327
C38	C	1.672704	-1.098743	0.660614
C39	C	1.615604	-0.816169	0.603538
C40	C	1.749881	-0.815983	0.737996
C41	C	1.768917	-0.910169	0.757016
C42	C	1.879888	-0.434431	0.593782
C43	C	1.996666	-0.434438	0.593790
C44	C	1.605907	-0.434322	0.867779
C45	C	1.605930	-0.434284	0.984548
C46	C	1.558574	-0.199174	0.546358
C47	C	1.538428	-0.098928	0.526156
C48	C	1.605844	-0.434439	0.320802
C49	C	1.605973	-0.434224	0.203982
C50	C	1.661543	-0.376599	1.027790
C51	C	1.661561	-0.376566	1.137508
C52	C	1.550353	-0.491911	1.160732
C53	C	1.550329	-0.491939	1.051016
C54	C	1.717144	-0.318944	0.961323
C55	C	1.772761	-0.261255	1.004564
C56	C	1.772780	-0.261222	1.114282
C57	C	1.717180	-0.318879	1.180758
H58	H	1.328746	-0.549913	0.751202
H59	H	0.930616	-0.549943	0.751259
C60	C	1.489200	-0.555330	1.233859
N61	N	1.443140	-0.603099	1.288939
C62	C	1.717124	-0.318972	0.840630
N63	N	1.717109	-0.318993	0.749724
H64	H	0.985719	-0.329663	0.450975
H65	H	1.796799	-0.777558	0.784993
H66	H	1.051295	-0.654708	0.894061
H67	H	1.250356	-0.654683	0.894029
C68	C	1.197135	-0.313134	0.428450
N69	N	1.232937	-0.265281	0.363219
C70	C	1.531281	-0.764480	0.519128
N71	N	1.467764	-0.725549	0.455545
C72	C	1.814654	-1.103246	0.802739
N73	N	1.878175	-1.142183	0.866315
C74	C	1.489159	-0.555400	1.003447
N75	N	1.443083	-0.603200	0.967618
C76	C	1.358394	-0.906051	0.346009
N77	N	1.294854	-0.867115	0.282452
C78	C	1.398475	-1.103849	0.385868
N79	N	1.350821	-1.142956	0.337972
H80	H	1.484857	-0.833859	0.472616
H81	H	1.688203	-1.175436	0.676092
H82	H	1.831333	-0.948449	0.819496
H83	H	1.818021	-0.214308	0.950432
C84	C	1.833955	-0.197761	1.161844
N85	N	1.880040	-0.149963	1.197666
C86	C	1.717198	-0.318835	1.301449
N87	N	1.717216	-0.318804	1.392354
