data_functionalizedCrystal
_audit_creation_method	'MofGen! by Chris Wilmer'
_symmetry_space_group_name_H-M	'P1'
_symmetry_Int_Tables_number	1
_symmetry_cell_setting	triclinic
loop_
_symmetry_equiv_pos_as_xyz
  x,y,z
_cell_length_a	10.723023
_cell_length_b	17.019294
_cell_length_c	9.798715
_cell_angle_alpha	86.117884
_cell_angle_beta	89.996449
_cell_angle_gamma	83.929658
loop_
_atom_site_label
_atom_site_type_symbol
_atom_site_fract_x
_atom_site_fract_y
_atom_site_fract_z
O1	O	1.655493	0.110633	-0.126487
O2	O	2.155493	0.610633	0.373513
O3	O	1.292178	0.121224	-0.127735
O4	O	1.792178	0.621224	0.372265
O5	O	1.483971	0.001151	-0.113615
O6	O	1.983971	0.501151	0.386385
O7	O	1.463700	0.230706	-0.140606
O8	O	1.963700	0.730706	0.359394
O9	O	1.483956	0.001151	0.113367
O10	O	1.983956	0.501151	0.613367
O11	O	1.292164	0.121224	0.099248
O12	O	1.792164	0.621224	0.599248
O13	O	1.655479	0.110633	0.100496
O14	O	2.155479	0.610633	0.600496
Zn15	Zn	1.473819	0.115928	0.135910
Zn16	Zn	1.973819	0.615928	0.635910
Zn17	Zn	1.473838	0.115929	-0.163149
Zn18	Zn	1.973838	0.615929	0.336851
O19	O	1.463686	0.230706	0.086376
O20	O	1.963686	0.730706	0.586376
C21	C	1.245683	0.120453	-0.014153
C22	C	1.745683	0.620453	0.485847
C23	C	1.107164	0.118148	-0.013884
C24	C	1.607164	0.618148	0.486116
C25	C	0.902241	0.114737	0.104096
C26	C	1.402241	0.614737	0.604096
C27	C	1.045408	0.117120	0.103820
C28	C	1.545408	0.617120	0.603820
C29	C	1.483195	-0.028243	0.003329
C30	C	1.983195	0.471757	0.503329
C31	C	1.480889	-0.115825	0.013618
C32	C	1.980889	0.384175	0.513618
C33	C	1.479816	-0.156967	-0.105275
C34	C	1.979816	0.343033	0.394725
C35	C	1.477642	-0.239260	-0.095603
C36	C	1.977642	0.260740	0.404397
C37	C	1.476549	-0.280410	0.032963
C38	C	1.976549	0.219590	0.532963
C39	C	1.477618	-0.239262	0.151865
C40	C	1.977618	0.260738	0.651865
C41	C	1.479784	-0.156970	0.142192
C42	C	1.979784	0.343030	0.642192
C43	C	1.470002	-0.528878	0.068360
C44	C	1.970002	-0.028878	0.568360
C45	C	1.467840	-0.611176	0.078024
C46	C	1.967840	-0.111176	0.578024
C47	C	1.467862	-0.611168	-0.169446
C48	C	1.967862	-0.111168	0.330554
C49	C	1.470035	-0.528875	-0.179107
C50	C	1.970035	-0.028875	0.320893
C51	C	1.471097	-0.487734	-0.060205
C52	C	1.971097	0.012266	0.439795
C53	C	1.474330	-0.364527	0.042852
C54	C	1.974330	0.135473	0.542852
C55	C	1.473307	-0.403618	-0.070096
C56	C	1.973307	0.096382	0.429904
C57	C	1.701973	0.111404	-0.013089
C58	C	2.201973	0.611404	0.486911
C59	C	1.840492	0.113709	-0.013367
C60	C	2.340492	0.613709	0.486633
C61	C	1.464462	0.260100	-0.030571
C62	C	1.964462	0.760100	0.469429
C63	C	1.466767	0.347682	-0.040869
C64	C	1.966767	0.847682	0.459131
N65	N	1.473815	0.115928	0.340010
N66	N	1.973815	0.615928	0.840010
N67	N	1.473851	0.115923	-0.367248
N68	N	1.973851	0.615923	0.132752
C69	C	1.554347	0.065290	0.413741
C70	C	2.054347	0.565290	0.913741
C71	C	1.554367	0.065287	0.570904
C72	C	2.054367	0.565287	1.070904
H73	H	0.849115	0.113857	0.204864
H74	H	1.349115	0.613857	0.704864
H75	H	1.623318	0.021937	0.634287
H76	H	2.123318	0.521937	1.134287
Cl77	Cl	1.367400	0.182867	0.534907
Cl78	Cl	1.867400	0.682867	1.034907
H79	H	1.098511	0.118000	0.204384
H80	H	1.598511	0.618000	0.704384
Cl81	Cl	1.660496	-0.001822	0.331594
Cl82	Cl	2.160496	0.498178	0.831594
Cl83	Cl	1.367378	0.182857	0.422178
Cl84	Cl	1.867378	0.682857	0.922178
H85	H	1.054070	0.117262	-0.114453
H86	H	1.554070	0.617262	0.385547
H87	H	0.893617	0.114598	-0.114137
H88	H	1.393617	0.614598	0.385863
H89	H	1.476774	-0.272754	-0.192419
H90	H	1.976774	0.227246	0.307581
Cl91	Cl	1.481199	-0.105245	-0.266910
Cl92	Cl	1.981199	0.394755	0.233090
H93	H	1.470926	-0.495376	-0.283800
H94	H	1.970926	0.004624	0.216200
H95	H	1.466994	-0.644674	-0.266249
H96	H	1.966994	-0.144674	0.233751
Cl97	Cl	1.471318	-0.477167	0.217838
Cl98	Cl	1.971318	0.022833	0.717838
Cl99	Cl	1.466474	-0.662907	0.239663
Cl100	Cl	1.966474	-0.162907	0.739663
H101	H	1.476721	-0.272772	0.256547
H102	H	1.976721	0.227228	0.756547
Cl103	Cl	1.481130	-0.105248	0.291665
Cl104	Cl	1.981130	0.394752	0.791665
Cl105	Cl	1.474688	-0.351886	-0.231717
Cl106	Cl	1.974688	0.148114	0.268283
Cl107	Cl	1.472950	-0.416264	0.204474
Cl108	Cl	1.972950	0.083736	0.704474
