data_functionalizedCrystal
_audit_creation_method	'MofGen! by Chris Wilmer'
_symmetry_space_group_name_H-M	'P1'
_symmetry_Int_Tables_number	1
_symmetry_cell_setting	triclinic
loop_
_symmetry_equiv_pos_as_xyz
  x,y,z
_cell_length_a	15.944551
_cell_length_b	16.098524
_cell_length_c	15.944551
_cell_angle_alpha	93.059518
_cell_angle_beta	83.498738
_cell_angle_gamma	93.059982
loop_
_atom_site_label
_atom_site_type_symbol
_atom_site_fract_x
_atom_site_fract_y
_atom_site_fract_z
O1	O	1.117873	0.069160	0.111680
O2	O	0.873324	0.069180	0.125037
O3	O	1.002277	0.069174	-0.003916
O4	O	0.988920	0.069166	0.240633
O5	O	0.995559	-0.069338	-0.010625
O6	O	0.866607	-0.069333	0.118328
O7	O	1.111155	-0.069352	0.104971
Zn8	Zn	0.987814	-0.091334	0.110584
Zn9	Zn	0.996665	0.091162	0.119424
O10	O	0.982203	-0.069347	0.233924
C11	C	0.838671	-0.000074	0.121128
C12	C	0.745426	-0.000066	0.119466
C13	C	0.530568	-0.000079	0.035561
C14	C	0.472860	0.068214	0.077832
C15	C	0.574699	-0.000076	0.116459
C16	C	0.466260	-0.068349	0.071236
C17	C	0.409786	-0.000089	0.113547
C18	C	0.518222	0.068273	0.158754
C19	C	0.511625	-0.068350	0.152144
C20	C	0.453935	-0.000041	0.194474
C21	C	0.669702	-0.000067	0.118134
C22	C	0.314785	-0.000091	0.111879
N23	N	0.981780	-0.215883	0.104551
C24	C	1.030613	-0.259471	0.153419
C25	C	1.026403	-0.346660	0.149192
C26	C	0.973356	-0.390259	0.096102
C27	C	0.924522	-0.346666	0.047229
C28	C	0.928736	-0.259478	0.051451
C29	C	0.958086	-0.653508	0.080799
C30	C	0.953873	-0.740702	0.076583
C31	C	1.055756	-0.740690	0.178546
C32	C	1.059963	-0.653501	0.182767
C33	C	1.011131	-0.609915	0.133890
C34	C	0.969050	-0.479380	0.091783
C35	C	1.015443	-0.520796	0.138205
C36	C	1.145808	-0.000097	0.108880
C37	C	1.239054	-0.000099	0.110542
C38	C	0.998364	-0.000079	-0.038564
C39	C	0.996702	-0.000070	-0.131810
N40	N	1.002705	0.215711	0.125451
C41	C	0.986116	-0.000092	0.268572
C42	C	0.987778	-0.000095	0.361818
C43	C	1.071682	-0.000090	0.576675
C44	C	1.029408	-0.068381	0.634384
C45	C	0.990785	-0.000088	0.532545
C46	C	1.036012	0.068181	0.640984
C47	C	0.993697	-0.000078	0.697458
C48	C	0.948486	-0.068436	0.589022
C49	C	0.955104	0.068188	0.595619
C50	C	0.912770	-0.000121	0.653309
C51	C	0.989111	-0.000095	0.437542
C52	C	0.995365	-0.000077	0.792459
H53	H	0.541013	0.126072	0.195744
H54	H	0.918324	-0.618031	0.041000
H55	H	0.420778	-0.000005	0.261683
H56	H	1.095512	-0.776187	0.218338
H57	H	1.138828	-0.000162	0.543366
H58	H	1.060824	-0.126122	0.651694
H59	H	0.910671	-0.776198	0.033350
H60	H	0.888971	-0.223991	0.011658
H61	H	0.845561	-0.000153	0.686466
O62	O	1.073714	-0.389095	0.196705
C63	C	1.073805	-0.487504	0.305387
C64	C	1.020121	-0.439511	0.251623
H65	H	1.030496	-0.528263	0.349813
H66	H	1.118204	-0.528371	0.262169
H67	H	1.112464	-0.441354	0.344022
H68	H	0.981410	-0.485601	0.212980
H69	H	0.975775	-0.398631	0.294886
O70	O	1.111570	-0.611280	0.234351
C71	C	1.212146	-0.620472	0.335071
C72	C	1.153754	-0.668391	0.276671
H73	H	1.246255	-0.666625	0.369316
H74	H	1.260561	-0.579673	0.295800
H75	H	1.172800	-0.579633	0.383379
H76	H	1.193031	-0.709275	0.228354
H77	H	1.105337	-0.709137	0.315998
O78	O	0.532285	-0.137318	0.189465
C79	C	0.529361	-0.287276	0.185557
C80	C	0.505930	-0.209232	0.143204
H81	H	0.508047	-0.345438	0.148183
H82	H	0.600731	-0.286335	0.186981
H83	H	0.496597	-0.287828	0.252906
H84	H	0.538636	-0.208630	0.075837
H85	H	0.434550	-0.210204	0.141846
H86	H	0.923717	0.125931	0.578287
O87	O	0.873007	-0.389142	-0.004273
C88	C	0.821344	-0.523457	-0.055961
C89	C	0.879709	-0.475461	0.002413
H90	H	0.826757	-0.593255	-0.050589
H91	H	0.753190	-0.506343	-0.036479
H92	H	0.840924	-0.506298	-0.124085
H93	H	0.860206	-0.492595	0.070554
H94	H	0.947850	-0.492580	-0.017141
H95	H	0.443374	-0.126083	0.034208
O96	O	1.080296	0.137034	0.668172
C97	C	1.214133	0.214788	0.659712
C98	C	1.164069	0.136795	0.628842
H99	H	1.281878	0.214612	0.627941
H100	H	1.183192	0.273021	0.642945
H101	H	1.214401	0.214442	0.731160
H102	H	1.163784	0.137060	0.557393
H103	H	1.195026	0.078597	0.645673
O104	O	1.067094	-0.478484	0.189678
C105	C	1.209732	-0.451820	0.223913
C106	C	1.151340	-0.499784	0.165544
H107	H	1.277855	-0.469036	0.204433
H108	H	1.204426	-0.382009	0.218525
H109	H	1.190128	-0.468950	0.292042
H110	H	1.170906	-0.482723	0.097391
H111	H	1.156654	-0.569583	0.171005
H112	H	0.563906	0.000008	-0.031573
O113	O	0.904410	-0.137364	0.561694
C114	C	0.853348	-0.214668	0.442608
C115	C	0.903300	-0.136585	0.473442
H116	H	0.852419	-0.214055	0.371256
H117	H	0.884774	-0.272833	0.458799
H118	H	0.785813	-0.214893	0.474961
H119	H	0.970840	-0.136279	0.441106
H120	H	0.871807	-0.078455	0.457264
H121	H	0.455550	0.125953	0.046412
H122	H	1.073805	-0.223978	0.196656
H123	H	0.925858	-0.514889	0.048557
