data_functionalizedCrystal
_audit_creation_method	'MofGen! by Chris Wilmer'
_symmetry_space_group_name_H-M	'P1'
_symmetry_Int_Tables_number	1
_symmetry_cell_setting	triclinic
loop_
_symmetry_equiv_pos_as_xyz
  x,y,z
_cell_length_a	15.995350
_cell_length_b	16.109301
_cell_length_c	14.472310
_cell_angle_alpha	90.001991
_cell_angle_beta	90.010588
_cell_angle_gamma	83.476928
loop_
_atom_site_label
_atom_site_type_symbol
_atom_site_fract_x
_atom_site_fract_y
_atom_site_fract_z
O1	O	-1.110969	-0.107160	-0.076766
O2	O	-0.867190	-0.120394	-0.076785
O3	O	-0.995776	0.007252	-0.076765
O4	O	-0.982383	-0.234806	-0.076785
O5	O	-0.995740	0.007243	0.076917
O6	O	-0.867154	-0.120403	0.076897
O7	O	-1.110933	-0.107169	0.076916
Cu8	Cu	-0.989040	-0.113787	0.090939
Cu9	Cu	-0.989083	-0.113776	-0.090808
O10	O	-0.982346	-0.234815	0.076897
C11	C	-0.835977	-0.119851	0.000054
C12	C	-0.743027	-0.118211	0.000047
C13	C	-0.995216	0.038223	0.000076
C14	C	-0.993589	0.130519	0.000077
C15	C	-1.142145	-0.107712	0.000076
C16	C	-1.235095	-0.109352	0.000077
C17	C	-0.405281	-0.112320	0.000066
C18	C	-0.452740	-0.021413	0.000417
C19	C	-0.549430	-0.023054	0.000064
C20	C	-0.572841	-0.115242	0.000057
C21	C	-0.531762	-0.160076	-0.087703
C22	C	-0.435127	-0.157792	-0.087770
C23	C	-0.434747	-0.159680	0.086995
C24	C	-0.531692	-0.159659	0.088149
C25	C	-0.667538	-0.116898	0.000049
C26	C	-0.310584	-0.110667	0.000068
C27	C	-0.982907	-0.265786	0.000053
C28	C	-0.984534	-0.358081	0.000046
N29	N	-0.989016	-0.113794	0.218770
C30	C	-1.066107	0.352771	0.000068
C31	C	-1.064573	0.439492	0.000061
C32	C	-0.912009	0.419659	0.000052
C33	C	-0.913545	0.332940	0.000053
C34	C	-0.990597	0.299499	0.000066
C35	C	-0.987526	0.472939	0.000057
C36	C	-0.985861	0.566965	0.000049
C37	C	-0.992262	0.205466	0.000073
C38	C	-0.989068	-0.113780	0.592861
C39	C	-0.920034	-0.181851	0.553685
C40	C	-0.920195	-0.182098	0.446597
C41	C	-0.989041	-0.113787	0.407270
C42	C	-1.076400	-0.132734	0.446112
C43	C	-1.076010	-0.133219	0.553234
C44	C	-0.971523	-0.026558	0.553396
C45	C	-0.969521	-0.027139	0.446268
C46	C	-0.989032	-0.113789	0.302382
C47	C	-0.989083	-0.113779	0.697749
N48	N	-0.989093	-0.113773	0.781361
H49	H	-0.577854	0.012188	0.062974
Cl50	Cl	-0.406894	-0.107301	-0.189046
Cl51	Cl	-0.818609	0.265963	0.000042
Cl52	Cl	-0.592452	0.031496	-0.097393
H53	H	-0.547037	-0.226886	0.093445
H54	H	-0.905260	-0.012759	0.420882
Cl55	Cl	-1.049247	0.051652	0.592510
Cl56	Cl	-0.819444	-0.164699	0.593470
Cl57	Cl	-0.815150	0.461706	0.000036
H58	H	-0.434213	0.014921	0.063353
Cl59	Cl	-1.157625	-0.059503	0.593248
Cl60	Cl	-0.819923	-0.164723	0.406049
Cl61	Cl	-0.422524	0.034444	-0.096201
Cl62	Cl	-1.159505	0.506461	0.000062
H63	H	-1.128848	0.325547	0.000077
H64	H	-0.931080	-0.246212	0.580590
Cl65	Cl	-0.937457	-0.282038	0.407006
H66	H	-1.091474	-0.196829	0.578206
Cl67	Cl	-0.385308	-0.260833	-0.093928
Cl68	Cl	-1.042122	0.054737	0.404958
H69	H	-1.128998	-0.084473	0.420637
Cl70	Cl	-0.875290	0.001555	0.595148
Cl71	Cl	-0.553567	-0.264635	-0.092773
Cl72	Cl	-0.575602	-0.111989	-0.188537
Cl73	Cl	-1.100852	-0.229823	0.404676
H74	H	-0.414204	-0.129965	0.153515
H75	H	-0.402967	-0.226705	0.087584
Cl76	Cl	-0.573753	-0.109046	0.188387
