data_functionalizedCrystal
_audit_creation_method	'MofGen! by Chris Wilmer'
_symmetry_space_group_name_H-M	'P1'
_symmetry_Int_Tables_number	1
_symmetry_cell_setting	triclinic
loop_
_symmetry_equiv_pos_as_xyz
  x,y,z
_cell_length_a	19.077432
_cell_length_b	17.077404
_cell_length_c	17.077396
_cell_angle_alpha	90.021457
_cell_angle_beta	87.672793
_cell_angle_gamma	92.273989
loop_
_atom_site_label
_atom_site_type_symbol
_atom_site_fract_x
_atom_site_fract_y
_atom_site_fract_z
Zn1	Zn	-0.280214	-1.212590	-0.431333
Zn2	Zn	0.219786	-0.712590	0.068667
Zn3	Zn	-0.397916	-1.217763	-0.294795
Zn4	Zn	0.102084	-0.717763	0.205205
Zn5	Zn	-0.280236	-1.081323	-0.300075
Zn6	Zn	0.219764	-0.581323	0.199925
Zn7	Zn	-0.397872	-1.086554	-0.426016
Zn8	Zn	0.102128	-0.586554	0.073984
O9	O	-0.339060	-1.149558	-0.363055
O10	O	0.160940	-0.649558	0.136945
O11	O	-0.295837	-1.323124	-0.413236
O12	O	0.204163	-0.823124	0.086764
O13	O	-0.382334	-1.199640	-0.185647
O14	O	0.117666	-0.699640	0.314353
O15	O	-0.181744	-1.094382	-0.321922
O16	O	0.318256	-0.594382	0.178078
O17	O	-0.382312	-1.326924	-0.312922
O18	O	0.117688	-0.826924	0.187078
O19	O	-0.181727	-1.190824	-0.418356
O20	O	0.318273	-0.690824	0.081644
O21	O	-0.295875	-1.099398	-0.189526
O22	O	0.204125	-0.599398	0.310474
O23	O	-0.295832	-0.972170	-0.316766
O24	O	0.204168	-0.472170	0.183234
O25	O	-0.382237	-1.103297	-0.536569
O26	O	0.117763	-0.603297	-0.036569
O27	O	-0.382258	-0.976013	-0.409294
O28	O	0.117742	-0.476013	0.090706
O29	O	-0.295794	-1.195896	-0.540476
O30	O	0.204206	-0.695896	-0.040476
O31	O	-0.496400	-1.204712	-0.307766
O32	O	0.003600	-0.704712	0.192234
O33	O	-0.496368	-1.108313	-0.404174
O34	O	0.003632	-0.608313	0.095826
C35	C	-0.339043	-0.945609	-0.363027
C36	C	0.160957	-0.445609	0.136973
C37	C	-0.339053	-0.858360	-0.363033
C38	C	0.160947	-0.358360	0.136967
C39	C	-0.384123	-0.819394	-0.411127
C40	C	0.115877	-0.319394	0.088873
C41	C	-0.384123	-0.737414	-0.411137
C42	C	0.115877	-0.237414	0.088863
C43	C	-0.339057	-0.694400	-0.363047
C44	C	0.160943	-0.194400	0.136953
C45	C	-0.293982	-0.733372	-0.314951
C46	C	0.206018	-0.233372	0.185049
C47	C	-0.293979	-0.815350	-0.314946
C48	C	0.206021	-0.315350	0.185054
C49	C	-0.293993	-0.562502	-0.314964
C50	C	0.206007	-0.062502	0.185036
C51	C	-0.293997	-0.480518	-0.314967
C52	C	0.206003	0.019482	0.185033
C53	C	-0.384137	-0.484565	-0.411154
C54	C	0.115863	0.015435	0.088846
C55	C	-0.384134	-0.566544	-0.411149
C56	C	0.115866	-0.066544	0.088851
C57	C	-0.339060	-0.605510	-0.363052
C58	C	0.160940	-0.105510	0.136948
C59	C	-0.521921	-1.157662	-0.354837
C60	C	-0.021921	-0.657662	0.145163
C61	C	-0.600150	-1.161201	-0.351348
C62	C	-0.100150	-0.661201	0.148652
C63	C	-0.636911	-1.112640	-0.399862
C64	C	-0.136911	-0.612640	0.100138
C65	C	-0.710415	-1.115969	-0.396580
C66	C	-0.210415	-0.615969	0.103420
C67	C	-0.747157	-1.167863	-0.344789
C68	C	-0.247157	-0.667863	0.155211
C69	C	-0.710391	-1.216427	-0.296270
C70	C	-0.210391	-0.716427	0.203730
C71	C	-0.636888	-1.213094	-0.299548
C72	C	-0.136888	-0.713094	0.200452
C73	C	-0.966987	-1.183215	-0.329603
C74	C	-0.466987	-0.683215	0.170397
C75	C	-1.040495	-1.186546	-0.326330
C76	C	-0.540495	-0.686546	0.173670
C77	C	-1.040513	-1.086086	-0.426640
C78	C	-0.540513	-0.586086	0.073360
C79	C	-0.967009	-1.082761	-0.429917
C80	C	-0.467009	-0.582761	0.070083
C81	C	-0.930249	-1.131321	-0.381395
C82	C	-0.430249	-0.631321	0.118605
N83	N	-0.822290	-1.171269	-0.341435
N84	N	-0.322290	-0.671269	0.158565
N85	N	-0.855118	-1.127911	-0.384746
N86	N	-0.355118	-0.627911	0.115254
C87	C	-0.155484	-1.141443	-0.371321
C88	C	0.344516	-0.641443	0.128679
C89	C	-0.077255	-1.137984	-0.374844
C90	C	0.422745	-0.637984	0.125156
C91	C	-0.339008	-1.149603	-0.567801
C92	C	0.160992	-0.649603	-0.067801
C93	C	-0.338986	-1.149622	-0.655052
C94	C	0.161014	-0.649622	-0.155052
C95	C	-0.339072	-0.354302	-0.363075
C96	C	0.160928	0.145698	0.136925
C97	C	-0.339066	-0.441552	-0.363062
C98	C	0.160934	0.058448	0.136938
C99	C	-0.293971	-1.197840	-0.698078
C100	C	0.206029	-0.697840	-0.198078
C101	C	-0.293948	-1.197848	-0.780059
C102	C	0.206052	-0.697848	-0.280059
C103	C	-0.338943	-1.149642	-0.819014
C104	C	0.161057	-0.649642	-0.319014
C105	C	-0.383959	-1.101419	-0.775982
C106	C	0.116041	-0.601419	-0.275982
C107	C	-0.383979	-1.101407	-0.694002
C108	C	0.116021	-0.601407	-0.194002
C109	C	-0.383917	-1.101449	-0.946854
C110	C	0.116083	-0.601449	-0.446854
C111	C	-0.383899	-1.101462	-1.028840
C112	C	0.116101	-0.601462	-0.528840
C113	C	-0.293886	-1.197890	-1.032911
C114	C	0.206114	-0.697890	-0.532911
C115	C	-0.293905	-1.197878	-0.950931
C116	C	0.206095	-0.697878	-0.450931
C117	C	-0.338923	-1.149656	-0.907905
C118	C	0.161077	-0.649656	-0.407905
C119	C	-0.339061	-1.149556	-0.159107
C120	C	0.160939	-0.649556	0.340893
C121	C	-0.338884	-1.149679	-0.071865
C122	C	0.161116	-0.649679	0.428135
H123	H	-0.257283	-0.594225	-0.275805
H124	H	0.242717	-0.094225	0.224195
H125	H	-0.257285	-0.698344	-0.275799
H126	H	0.242715	-0.198344	0.224201
H127	H	-0.420593	-1.062166	-0.807705
H128	H	0.079407	-0.562166	-0.307705
O129	O	-1.076331	-1.038943	-0.473688
O130	O	-0.576331	-0.538943	0.026312
C131	C	-1.149085	-1.053024	-0.459706
C132	C	-0.649085	-0.553024	0.040294
H133	H	-1.159141	-1.079225	-0.398704
H134	H	-0.659141	-0.579225	0.101296
H135	H	-1.177064	-0.995490	-0.463725
H136	H	-0.677064	-0.495490	0.036275
H137	H	-1.169881	-1.095739	-0.505381
H138	H	-0.669881	-0.595739	-0.005381
H139	H	-0.420536	-1.062207	-1.060554
H140	H	0.079464	-0.562207	-0.560554
O141	O	-0.427803	-0.861256	-0.457885
O142	O	0.072197	-0.361256	0.042115
C143	C	-0.387787	-0.906908	-0.510466
C144	C	0.112213	-0.406908	-0.010466
H145	H	-0.334418	-0.916811	-0.485274
H146	H	0.165582	-0.416811	0.014726
H147	H	-0.416465	-0.965832	-0.519643
H148	H	0.083535	-0.465832	-0.019643
H149	H	-0.380119	-0.874998	-0.568998
H150	H	0.119881	-0.374998	-0.068998
O151	O	-0.250160	-1.244580	-0.660282
O152	O	0.249840	-0.744580	-0.160282
C153	C	-0.180010	-1.224336	-0.683489
C154	C	0.319990	-0.724336	-0.183489
H155	H	-0.176449	-1.161471	-0.706169
H156	H	0.323551	-0.661471	-0.206169
H157	H	-0.145249	-1.229553	-0.631146
H158	H	0.354751	-0.729553	-0.131146
H159	H	-0.161605	-1.265612	-0.731915
H160	H	0.338395	-0.765612	-0.231915
O161	O	-1.076078	-1.236977	-0.275945
O162	O	-0.576078	-0.736977	0.224055
C163	C	-1.027873	-1.279137	-0.233834
C164	C	-0.527873	-0.779137	0.266166
H165	H	-0.975506	-1.244613	-0.233417
H166	H	-0.475506	-0.744613	0.266583
H167	H	-1.049146	-1.288507	-0.171048
H168	H	-0.549146	-0.788507	0.328952
H169	H	-1.019987	-1.338382	-0.262984
H170	H	-0.519987	-0.838382	0.237016
H171	H	-0.257270	-1.237136	-0.919217
H172	H	0.242730	-0.737136	-0.419217
H173	H	-0.420824	-0.705692	-0.450299
H174	H	0.079176	-0.205692	0.049701
O175	O	-0.427781	-1.054557	-0.652322
O176	O	0.072219	-0.554557	-0.152322
C177	C	-0.467484	-1.012002	-0.704282
C178	C	0.032516	-0.512002	-0.204282
H179	H	-0.469902	-1.044267	-0.762620
H180	H	0.030098	-0.544267	-0.262620
H181	H	-0.522944	-1.006089	-0.678098
H182	H	-0.022944	-0.506089	-0.178098
H183	H	-0.441712	-0.951241	-0.714143
H184	H	0.058288	-0.451241	-0.214143
H185	H	-0.257275	-0.847075	-0.275787
H186	H	0.242725	-0.347075	0.224213
H187	H	-0.257294	-1.237114	-0.815087
H188	H	0.242706	-0.737114	-0.315087
H189	H	-0.257230	-1.237153	-1.067947
H190	H	0.242770	-0.737153	-0.567947
O191	O	-0.427853	-0.446594	-0.457859
O192	O	0.072147	0.053406	0.042141
C193	C	-0.418204	-0.365015	-0.447544
C194	C	0.081796	0.134985	0.052456
H195	H	-0.363858	-0.351396	-0.424381
H196	H	0.136142	0.148604	0.075619
H197	H	-0.423047	-0.334102	-0.506119
H198	H	0.076953	0.165898	-0.006119
H199	H	-0.459902	-0.343579	-0.403792
H200	H	0.040098	0.156421	0.096208
H201	H	-0.607000	-1.070385	-0.442040
H202	H	-0.107000	-0.570385	0.057960
H203	H	-0.937063	-1.222756	-0.290096
H204	H	-0.437063	-0.722756	0.209904
H205	H	-0.937095	-1.040504	-0.472090
H206	H	-0.437095	-0.540504	0.027910
O207	O	-0.746158	-1.068720	-0.443597
O208	O	-0.246158	-0.568720	0.056403
C209	C	-0.788758	-1.019986	-0.396964
C210	C	-0.288758	-0.519986	0.103036
H211	H	-0.766647	-1.014161	-0.336123
H212	H	-0.266647	-0.514161	0.163877
H213	H	-0.789628	-0.959603	-0.425267
H214	H	-0.289628	-0.459603	0.074733
H215	H	-0.844445	-1.046785	-0.391795
H216	H	-0.344445	-0.546785	0.108205
O217	O	-0.601285	-1.260345	-0.252391
O218	O	-0.101285	-0.760345	0.247609
C219	C	-0.649474	-1.306849	-0.205961
C220	C	-0.149474	-0.806849	0.294039
H221	H	-0.701847	-1.311929	-0.235781
H222	H	-0.201847	-0.811929	0.264219
H223	H	-0.628188	-1.367734	-0.198589
H224	H	-0.128188	-0.867734	0.301411
H225	H	-0.657354	-1.278491	-0.145967
H226	H	-0.157354	-0.778491	0.354033
H227	H	-0.257292	-0.445498	-0.275819
H228	H	0.242708	0.054502	0.224181
H229	H	-0.740312	-1.258677	-0.254096
H230	H	-0.240312	-0.758677	0.245904
O231	O	-0.427754	-1.054707	-0.905081
O232	O	0.072246	-0.554707	-0.405081
C233	C	-0.497893	-1.074970	-0.921975
C234	C	0.002107	-0.574970	-0.421975
H235	H	-0.501432	-1.137836	-0.944379
H236	H	-0.001432	-0.637836	-0.444379
H237	H	-0.532678	-1.069759	-0.866492
H238	H	-0.032678	-0.569759	-0.366492
H239	H	-0.516286	-1.033700	-0.968714
H240	H	-0.016286	-0.533700	-0.468714
O241	O	-0.427934	-0.608208	-0.457934
O242	O	0.072066	-0.108208	0.042066
C243	C	-0.467730	-0.556240	-0.500373
C244	C	0.032270	-0.056240	-0.000373
H245	H	-0.438911	-0.496524	-0.504447
H246	H	0.061089	0.003476	-0.004447
H247	H	-0.475308	-0.580294	-0.561863
H248	H	0.024692	-0.080294	-0.061863
H249	H	-0.521151	-0.549880	-0.469129
H250	H	-0.021151	-0.049880	0.030871
