data_functionalizedCrystal
_audit_creation_method	'MofGen! by Chris Wilmer'
_symmetry_space_group_name_H-M	'P1'
_symmetry_Int_Tables_number	1
_symmetry_cell_setting	triclinic
loop_
_symmetry_equiv_pos_as_xyz
  x,y,z
_cell_length_a	14.044191
_cell_length_b	14.044190
_cell_length_c	14.586319
_cell_angle_alpha	89.991348
_cell_angle_beta	89.998893
_cell_angle_gamma	93.191777
loop_
_atom_site_label
_atom_site_type_symbol
_atom_site_fract_x
_atom_site_fract_y
_atom_site_fract_z
O1	O	1.277177	0.230199	-0.076215
O2	O	1.527177	0.480199	0.173785
O3	O	1.777177	0.730199	0.423785
O4	O	2.027177	0.980199	0.673785
O5	O	1.000504	0.221887	-0.076226
O6	O	1.250504	0.471887	0.173774
O7	O	1.500504	0.721887	0.423774
O8	O	1.750504	0.971887	0.673774
O9	O	1.134684	0.087707	-0.076203
O10	O	1.384684	0.337707	0.173797
O11	O	1.634684	0.587707	0.423797
O12	O	1.884684	0.837707	0.673797
O13	O	1.142997	0.364379	-0.076238
O14	O	1.392997	0.614379	0.173762
O15	O	1.642997	0.864379	0.423762
O16	O	1.892997	1.114379	0.673762
O17	O	1.134674	0.087704	0.076278
O18	O	1.384674	0.337704	0.326278
O19	O	1.634674	0.587704	0.576278
O20	O	1.884674	0.837704	0.826278
O21	O	1.000494	0.221884	0.076255
O22	O	1.250494	0.471884	0.326255
O23	O	1.500494	0.721884	0.576255
O24	O	1.750494	0.971884	0.826255
O25	O	1.277167	0.230196	0.076266
O26	O	1.527167	0.480196	0.326266
O27	O	1.777167	0.730196	0.576266
O28	O	2.027167	0.980196	0.826266
Cu29	Cu	1.138829	0.226040	0.090183
Cu30	Cu	1.388829	0.476040	0.340183
Cu31	Cu	1.638829	0.726040	0.590183
Cu32	Cu	1.888829	0.976040	0.840183
Cu33	Cu	1.138842	0.226043	-0.090143
Cu34	Cu	1.388842	0.476043	0.159857
Cu35	Cu	1.638842	0.726043	0.409857
Cu36	Cu	1.888842	0.976043	0.659857
O37	O	1.142987	0.364376	0.076242
O38	O	1.392987	0.614376	0.326242
O39	O	1.642987	0.864376	0.576242
O40	O	1.892987	1.114376	0.826242
C41	C	0.964877	0.218249	0.000013
C42	C	1.214877	0.468249	0.250013
C43	C	1.464877	0.718249	0.500013
C44	C	1.714877	0.968249	0.750013
C45	C	0.858734	0.207401	0.000010
C46	C	1.108734	0.457401	0.250010
C47	C	1.358734	0.707401	0.500010
C48	C	1.608734	0.957401	0.750010
C49	C	0.613277	0.264502	0.000012
C50	C	0.863277	0.514502	0.250012
C51	C	1.113277	0.764502	0.500012
C52	C	1.363277	1.014502	0.750012
C53	C	0.664400	0.187585	0.000020
C54	C	0.914400	0.437585	0.250020
C55	C	1.164400	0.687585	0.500020
C56	C	1.414400	0.937585	0.750020
C57	C	0.772537	0.198614	0.000014
C58	C	1.022537	0.448614	0.250014
C59	C	1.272537	0.698614	0.500014
C60	C	1.522537	0.948614	0.750014
C61	C	0.505130	0.253475	0.000017
C62	C	0.755130	0.503475	0.250017
C63	C	1.005130	0.753475	0.500017
C64	C	1.255130	1.003475	0.750017
C65	C	1.131043	0.052083	0.000040
C66	C	1.381043	0.302083	0.250040
C67	C	1.631043	0.552083	0.500040
C68	C	1.881043	0.802083	0.750040
C69	C	1.120195	-0.054060	0.000048
C70	C	1.370195	0.195940	0.250048
C71	C	1.620195	0.445940	0.500048
C72	C	1.870195	0.695940	0.750048
C73	C	1.177296	-0.299517	0.000014
C74	C	1.427296	-0.049517	0.250014
C75	C	1.677296	0.200483	0.500014
C76	C	1.927296	0.450483	0.750014
C77	C	1.100379	-0.248394	0.000018
C78	C	1.350379	0.001606	0.250018
C79	C	1.600379	0.251606	0.500018
C80	C	1.850379	0.501606	0.750018
C81	C	1.111408	-0.140257	0.000034
C82	C	1.361408	0.109743	0.250034
C83	C	1.611408	0.359743	0.500034
C84	C	1.861408	0.609743	0.750034
C85	C	1.166269	-0.407664	-0.000003
C86	C	1.416269	-0.157664	0.249997
C87	C	1.666269	0.092336	0.499997
C88	C	1.916269	0.342336	0.749997
C89	C	1.312794	0.233834	0.000024
C90	C	1.562794	0.483834	0.250024
C91	C	1.812794	0.733834	0.500024
C92	C	2.062794	0.983834	0.750024
C93	C	1.418937	0.244682	0.000022
C94	C	1.668937	0.494682	0.250022
C95	C	1.918937	0.744682	0.500022
C96	C	2.168937	0.994682	0.750022
C97	C	1.146628	0.400000	-0.000003
C98	C	1.396628	0.650000	0.249997
C99	C	1.646628	0.900000	0.499997
C100	C	1.896628	1.150000	0.749997
C101	C	1.157476	0.506143	-0.000016
C102	C	1.407476	0.756143	0.249984
C103	C	1.657476	1.006143	0.499984
C104	C	1.907476	1.256143	0.749984
N105	N	1.138828	0.226037	0.217015
N106	N	1.388828	0.476037	0.467015
N107	N	1.638828	0.726037	0.717015
N108	N	1.888828	0.976037	0.967015
N109	N	1.138850	0.226039	-0.216975
N110	N	1.388850	0.476039	0.033025
N111	N	1.638850	0.726039	0.283025
N112	N	1.888850	0.976039	0.533025
C113	C	1.198266	0.166646	0.452032
C114	C	1.448266	0.416646	0.702032
C115	C	1.698266	0.666646	0.952032
C116	C	1.948266	0.916646	1.202032
C117	C	1.198268	0.166644	0.548013
C118	C	1.448268	0.416644	0.798013
C119	C	1.698268	0.666644	1.048013
C120	C	1.948268	0.916644	1.298013
C121	C	1.079405	0.285433	0.548002
C122	C	1.329405	0.535433	0.798002
C123	C	1.579405	0.785433	1.048002
C124	C	1.829405	1.035433	1.298002
C125	C	1.079399	0.285429	0.452022
C126	C	1.329399	0.535429	0.702022
C127	C	1.579399	0.785429	0.952022
C128	C	1.829399	1.035429	1.202022
C129	C	1.138834	0.226037	0.404040
C130	C	1.388834	0.476037	0.654040
C131	C	1.638834	0.726037	0.904040
C132	C	1.888834	0.976037	1.154040
C133	C	1.138844	0.226039	0.596000
C134	C	1.388844	0.476039	0.846000
C135	C	1.638844	0.726039	1.096000
C136	C	1.888844	0.976039	1.346000
C137	C	1.138846	0.226037	0.700067
C138	C	1.388846	0.476037	0.950067
C139	C	1.638846	0.726037	1.200067
C140	C	1.888846	0.976037	1.450067
C141	C	1.138831	0.226038	0.299966
C142	C	1.388831	0.476038	0.549966
C143	C	1.638831	0.726038	0.799966
C144	C	1.888831	0.976038	1.049966
H145	H	0.650720	0.338629	-0.000001
H146	H	0.900720	0.588629	0.249999
H147	H	1.150720	0.838629	0.499999
H148	H	1.400720	1.088629	0.749999
H149	H	1.246661	0.118284	0.412966
H150	H	1.496661	0.368284	0.662966
H151	H	1.746661	0.618284	0.912966
H152	H	1.996661	0.868284	1.162966
F153	F	1.261521	0.103430	0.599086
F154	F	1.511521	0.353430	0.849086
F155	F	1.761521	0.603430	1.099086
F156	F	2.011521	0.853430	1.349086
H157	H	1.251423	-0.262074	0.000027
H158	H	1.501423	-0.012074	0.250027
H159	H	1.751423	0.237926	0.500027
H160	H	2.001423	0.487926	0.750027
F161	F	1.016136	0.348641	0.400941
F162	F	1.266136	0.598641	0.650941
F163	F	1.516136	0.848641	0.900941
F164	F	1.766136	1.098641	1.150941
H165	H	1.031016	0.333790	0.587079
H166	H	1.281016	0.583790	0.837079
H167	H	1.531016	0.833790	1.087079
H168	H	1.781016	1.083790	1.337079
F169	F	0.615459	0.090688	0.000033
F170	F	0.865459	0.340688	0.250033
F171	F	1.115459	0.590688	0.500033
F172	F	1.365459	0.840688	0.750033
F173	F	1.003482	-0.297335	0.000011
F174	F	1.253482	-0.047335	0.250011
F175	F	1.503482	0.202665	0.500011
F176	F	1.753482	0.452665	0.750011
