data_functionalizedCrystal
_audit_creation_method	'MofGen! by Chris Wilmer'
_symmetry_space_group_name_H-M	'P1'
_symmetry_Int_Tables_number	1
_symmetry_cell_setting	triclinic
loop_
_symmetry_equiv_pos_as_xyz
  x,y,z
_cell_length_a	17.077404
_cell_length_b	12.645330
_cell_length_c	17.077396
_cell_angle_alpha	90.026204
_cell_angle_beta	90.018362
_cell_angle_gamma	90.010616
loop_
_atom_site_label
_atom_site_type_symbol
_atom_site_fract_x
_atom_site_fract_y
_atom_site_fract_z
Zn1	Zn	1.200110	-0.422097	0.443831
Zn2	Zn	1.700110	0.077903	0.943831
Zn3	Zn	1.200041	-0.599382	0.312570
Zn4	Zn	1.700041	-0.099382	0.812570
Zn5	Zn	1.068842	-0.422127	0.312582
Zn6	Zn	1.568842	0.077873	0.812582
Zn7	Zn	1.068834	-0.599312	0.443797
Zn8	Zn	1.568834	-0.099312	0.943797
O9	O	1.134457	-0.510730	0.378195
O10	O	1.634457	-0.010730	0.878195
O11	O	1.309948	-0.445631	0.426429
O12	O	1.809948	0.054369	0.926429
O13	O	1.182612	-0.575911	0.202725
O14	O	1.682612	-0.075911	0.702725
O15	O	1.086288	-0.273776	0.330012
O16	O	1.586288	0.226224	0.830012
O17	O	1.309897	-0.575882	0.329992
O18	O	1.809897	-0.075882	0.829992
O19	O	1.182730	-0.273754	0.426440
O20	O	1.682730	0.226246	0.926440
O21	O	1.086221	-0.445682	0.202733
O22	O	1.586221	0.054318	0.702733
O23	O	0.958994	-0.445614	0.329978
O24	O	1.458994	0.054386	0.829978
O25	O	1.086273	-0.575762	0.553648
O26	O	1.586273	-0.075762	1.053648
O27	O	0.958988	-0.575792	0.426381
O28	O	1.458988	-0.075792	0.926381
O29	O	1.182722	-0.445563	0.553674
O30	O	1.682722	0.054437	1.053674
O31	O	1.182603	-0.747720	0.329959
O32	O	1.682603	-0.247720	0.829959
O33	O	1.086206	-0.747669	0.426370
O34	O	1.586206	-0.247669	0.926370
C35	C	0.930509	-0.510700	0.378177
C36	C	1.430509	-0.010700	0.878177
C37	C	0.843259	-0.510712	0.378189
C38	C	1.343259	-0.010712	0.878189
C39	C	0.802296	-0.443011	0.428480
C40	C	1.302296	0.056989	0.928480
C41	C	0.720316	-0.443018	0.428483
C42	C	1.220316	0.056982	0.928483
C43	C	0.679300	-0.510732	0.378199
C44	C	1.179300	-0.010732	0.878199
C45	C	0.720268	-0.578436	0.327902
C46	C	1.220268	-0.078436	0.827902
C47	C	0.802247	-0.578423	0.327895
C48	C	1.302247	-0.078423	0.827895
C49	C	0.549398	-0.578460	0.327922
C50	C	1.049398	-0.078460	0.827922
C51	C	0.467414	-0.578475	0.327930
C52	C	0.967414	-0.078475	0.827930
C53	C	0.467467	-0.443055	0.428510
C54	C	0.967467	0.056945	0.928510
C55	C	0.549446	-0.443042	0.428503
C56	C	1.049446	0.056958	0.928503
C57	C	0.590409	-0.510748	0.378207
C58	C	1.090409	-0.010748	0.878207
C59	C	1.134418	-0.786159	0.378177
C60	C	1.634418	-0.286159	0.878177
C61	C	1.134473	-0.903989	0.378195
C62	C	1.634473	-0.403989	0.878195
C63	C	1.195019	-1.071541	0.317419
C64	C	1.695019	-0.571541	0.817419
C65	C	1.195216	-0.948981	0.317568
C66	C	1.695216	-0.448981	0.817568
C67	C	1.156905	-0.948374	0.460938
C68	C	1.656905	-0.448374	0.960938
C69	C	1.157385	-1.070972	0.460616
C70	C	1.657385	-0.570972	0.960616
C71	C	1.051470	-1.071312	0.357042
C72	C	1.551470	-0.571312	0.857042
C73	C	1.051868	-0.948708	0.355187
C74	C	1.551868	-0.448708	0.855187
C75	C	1.339201	-0.510761	0.378213
C76	C	1.839201	-0.010761	0.878213
C77	C	1.426451	-0.510774	0.378221
C78	C	1.926451	-0.010774	0.878221
C79	C	1.134504	-0.510651	0.582939
C80	C	1.634504	-0.010651	1.082939
C81	C	1.134525	-0.510618	0.670189
C82	C	1.634525	-0.010618	1.170189
C83	C	1.134518	-0.234224	0.378231
C84	C	1.634518	0.265776	0.878231
C85	C	1.134544	-0.116394	0.378246
C86	C	1.634544	0.383606	0.878246
C87	C	1.134455	-0.510731	0.174247
C88	C	1.634455	-0.010731	0.674247
C89	C	1.134587	-0.510466	0.086998
C90	C	1.634587	-0.010466	0.586998
C91	C	1.184747	-0.442818	0.711194
C92	C	1.684747	0.057182	1.211194
C93	C	1.184757	-0.442782	0.793174
C94	C	1.684757	0.057218	1.293174
C95	C	1.134547	-0.510554	0.834149
C96	C	1.634547	-0.010554	1.334149
C97	C	1.084319	-0.578357	0.793138
C98	C	1.584319	-0.078357	1.293138
C99	C	1.084306	-0.578386	0.711159
C100	C	1.584306	-0.078386	1.211159
C101	C	1.084350	-0.578294	0.964009
C102	C	1.584350	-0.078294	1.464009
C103	C	1.084364	-0.578266	1.045993
C104	C	1.584364	-0.078266	1.545993
C105	C	1.184801	-0.442689	1.046024
C106	C	1.684801	0.057311	1.546024
C107	C	1.184788	-0.442719	0.964045
C108	C	1.684788	0.057281	1.464045
C109	C	1.134561	-0.510524	0.923040
C110	C	1.634561	-0.010524	1.423040
H111	H	0.434021	-0.633614	0.286984
H112	H	0.934021	-0.133614	0.786984
C113	C	0.594456	-0.652943	0.272595
C114	C	1.094456	-0.152943	0.772595
N115	N	0.628393	-0.709048	0.230928
N116	N	1.128393	-0.209048	0.730928
C117	C	1.238016	-0.906796	0.485605
C118	C	1.738016	-0.406796	0.985605
N119	N	1.299111	-0.875483	0.504180
N120	N	1.799111	-0.375483	1.004180
C121	C	1.029100	-0.652887	0.918905
C122	C	1.529100	-0.152887	1.418905
N123	N	0.987491	-0.709075	0.884933
N124	N	1.487491	-0.209075	1.384933
C125	C	0.675261	-0.368545	0.483810
C126	C	1.175261	0.131455	0.983810
N127	N	0.641325	-0.312448	0.525485
N128	N	1.141325	0.187552	1.025485
C129	C	1.239982	-0.368261	0.666130
C130	C	1.739982	0.131739	1.166130
N131	N	1.281584	-0.312100	0.632190
N132	N	1.781584	0.187900	1.132190
C133	C	1.029059	-0.652974	0.666055
C134	C	1.529059	-0.152974	1.166055
N135	N	0.987443	-0.709154	0.632083
N136	N	1.487443	-0.209154	1.132083
C137	C	1.240007	-0.368198	0.838276
C138	C	1.740007	0.131802	1.338276
N139	N	1.281624	-0.312018	0.872246
N140	N	1.781624	0.187982	1.372246
H141	H	0.835686	-0.387873	0.469429
H142	H	1.335686	0.112127	0.969429
C143	C	0.847306	-0.652902	0.272573
C144	C	1.347306	-0.152902	0.772573
N145	N	0.881243	-0.709000	0.230900
N146	N	1.381243	-0.209000	0.730900
C147	C	1.176227	-0.908443	0.234689
C148	C	1.676227	-0.408443	0.734689
N149	N	1.161917	-0.877915	0.172263
N150	N	1.661917	-0.377915	0.672263
C151	C	1.023915	-1.113192	0.276946
C152	C	1.523915	-0.613192	0.776946
N153	N	1.003169	-1.144735	0.216614
N154	N	1.503169	-0.644735	0.716614
C155	C	1.029010	-0.909519	0.272929
C156	C	1.529010	-0.409519	0.772929
N157	N	1.011794	-0.879991	0.210973
N158	N	1.511794	-0.379991	0.710973
C159	C	0.422406	-0.368581	0.483839
C160	C	0.922406	0.131419	0.983839
N161	N	0.388463	-0.312495	0.525514
N162	N	0.888463	0.187505	1.025514
H163	H	1.225678	-0.387539	0.930685
H164	H	1.725678	0.112461	1.430685
C165	C	1.176303	-1.111474	0.234290
C166	C	1.676303	-0.611474	0.734290
N167	N	1.162205	-1.141557	0.171676
N168	N	1.662205	-0.641557	0.671676
H169	H	1.256218	-1.102275	0.331287
H170	H	1.756218	-0.602275	0.831287
C171	C	1.240051	-0.368102	1.091130
C172	C	1.740051	0.131898	1.591130
N173	N	1.281666	-0.311928	1.125108
N174	N	1.781666	0.188072	1.625108
H175	H	0.582839	-0.387909	0.469453
H176	H	1.082839	0.112091	0.969453
H177	H	1.004379	-0.918092	0.396242
H178	H	1.504379	-0.418092	0.896242
H179	H	0.686867	-0.633565	0.286956
H180	H	1.186867	-0.133565	0.786956
H181	H	1.043477	-0.633449	1.079352
H182	H	1.543477	-0.133449	1.579352
H183	H	1.043434	-0.633534	0.826506
H184	H	1.543434	-0.133534	1.326506
H185	H	1.256746	-0.919576	0.331593
H186	H	1.756746	-0.419576	0.831593
C187	C	1.239421	-1.109498	0.484870
C188	C	1.739421	-0.609498	0.984870
N189	N	1.301214	-1.138511	0.503136
N190	N	1.801214	-0.638511	1.003136
C191	C	1.099215	-0.908992	0.523808
C192	C	1.599215	-0.408992	1.023808
N193	N	1.055763	-0.879326	0.571161
N194	N	1.555763	-0.379326	1.071161
C195	C	1.100472	-1.111053	0.523937
C196	C	1.600472	-0.611053	1.023937
N197	N	1.057611	-1.141237	0.571635
N198	N	1.557611	-0.641237	1.071635
H199	H	1.006411	-1.100319	0.401345
H200	H	1.506411	-0.600319	0.901345
