data_functionalizedCrystal
_audit_creation_method	'MofGen! by Chris Wilmer'
_symmetry_space_group_name_H-M	'P1'
_symmetry_Int_Tables_number	1
_symmetry_cell_setting	triclinic
loop_
_symmetry_equiv_pos_as_xyz
  x,y,z
_cell_length_a	12.759399
_cell_length_b	13.033299
_cell_length_c	13.032268
_cell_angle_alpha	74.837961
_cell_angle_beta	97.149720
_cell_angle_gamma	97.156924
loop_
_atom_site_label
_atom_site_type_symbol
_atom_site_fract_x
_atom_site_fract_y
_atom_site_fract_z
Zn1	Zn	-0.665977	-1.547489	-0.393952
Zn2	Zn	-0.821879	-1.569949	-0.216358
Zn3	Zn	-0.626451	-1.392438	-0.238957
Zn4	Zn	-0.821830	-1.369865	-0.416506
O5	O	-0.734034	-1.469935	-0.316443
O6	O	-0.703220	-1.699094	-0.351497
O7	O	-0.779434	-1.565249	-0.070727
O8	O	-0.484682	-1.413053	-0.259537
O9	O	-0.817761	-1.715595	-0.221019
O10	O	-0.513721	-1.526968	-0.373411
O11	O	-0.635854	-1.434832	-0.087331
O12	O	-0.635806	-1.240818	-0.281406
O13	O	-0.817677	-1.374580	-0.562143
O14	O	-0.779351	-1.224233	-0.411850
O15	O	-0.703172	-1.505080	-0.545573
O16	O	-0.968885	-1.543360	-0.242889
O17	O	-0.968849	-1.396359	-0.389937
C18	C	-0.703285	-1.193989	-0.351529
C19	C	-0.690158	-1.075935	-0.366563
C20	C	-0.740869	-1.031480	-0.308609
C21	C	-0.727303	-0.909465	-0.324146
C22	C	-1.006992	-1.469873	-0.316427
C23	C	-1.123779	-1.469939	-0.316444
C24	C	-1.178642	-1.546551	-0.239943
C25	C	-1.288378	-1.546614	-0.239970
C26	C	-1.288377	-1.393446	-0.393002
C27	C	-1.178644	-1.393388	-0.392979
C28	C	-1.448002	-1.676781	-0.186224
C29	C	-1.502866	-1.753385	-0.109708
C30	C	-1.457591	-1.782895	-0.003994
C31	C	-1.357450	-1.735788	0.025223
C32	C	-1.302591	-1.659177	-0.051289
C33	C	-1.347867	-1.629685	-0.157014
C34	C	-1.019017	-1.263221	-0.446715
C35	C	-0.964154	-1.186604	-0.523222
C36	C	-1.009425	-1.157083	-0.628939
C37	C	-1.109567	-1.204172	-0.658154
C38	C	-1.164430	-1.280789	-0.581647
C39	C	-1.119151	-1.310311	-0.475931
C40	C	-0.460017	-1.470023	-0.316479
C41	C	-0.343247	-1.470061	-0.316494
C42	C	-0.764828	-1.434806	-0.593473
C43	C	-0.777950	-1.419837	-0.711527
C44	C	-0.764895	-0.746960	-0.281214
C45	C	-0.778020	-0.865014	-0.266184
C46	C	-0.727146	-1.477731	-0.755960
C47	C	-0.740707	-1.462261	-0.877975
C48	C	-0.703291	-1.504988	-0.040483
C49	C	-0.689896	-1.520164	0.077596
H50	H	-1.221057	-1.620825	-0.027502
H51	H	-0.831478	-1.358811	-0.763817
O52	O	-1.158406	-1.172344	-0.772179
H53	H	-1.103428	-1.111167	-0.820473
O54	O	-0.618980	-1.601001	-0.853152
H55	H	-0.583825	-1.641053	-0.904264
H56	H	-0.794330	-1.083751	-0.247492
O57	O	-0.848835	-0.934234	-0.185208
H58	H	-0.848372	-1.019208	-0.185702
H59	H	-0.673607	-1.538747	-0.703671
O60	O	-0.656477	-0.840244	-0.405110
H61	H	-0.656926	-0.755272	-0.404601
H62	H	-1.333061	-1.331119	-0.455313
H63	H	-0.636704	-1.023662	-0.427687
H64	H	-1.484869	-1.652769	-0.272305
O65	O	-1.119463	-1.629123	-0.157410
H66	H	-1.176055	-1.682413	-0.104228
O67	O	-1.308616	-1.767613	0.139247
H68	H	-1.363582	-1.828806	0.187539
O69	O	-1.516751	-1.865531	0.078534
H70	H	-1.593983	-1.893334	0.040458
H71	H	-1.584401	-1.791739	-0.133506
O72	O	-1.272437	-1.331592	-0.613152
H73	H	-1.294702	-1.298201	-0.699520
O74	O	-0.950255	-1.074445	-0.711464
H75	H	-0.873014	-1.046656	-0.673395
H76	H	-0.882609	-1.148269	-0.499428
H77	H	-0.794239	-1.401231	-0.930262
O78	O	-0.970192	-1.295063	-0.332683
H79	H	-0.891350	-1.249432	-0.325218
