data_functionalizedCrystal
_audit_creation_method	'MofGen! by Chris Wilmer'
_symmetry_space_group_name_H-M	'P1'
_symmetry_Int_Tables_number	1
_symmetry_cell_setting	triclinic
loop_
_symmetry_equiv_pos_as_xyz
  x,y,z
_cell_length_a	18.215407
_cell_length_b	18.215404
_cell_length_c	18.215399
_cell_angle_alpha	90.027515
_cell_angle_beta	89.980167
_cell_angle_gamma	89.975729
loop_
_atom_site_label
_atom_site_type_symbol
_atom_site_fract_x
_atom_site_fract_y
_atom_site_fract_z
Zn1	Zn	1.125077	0.292983	-0.416118
Zn2	Zn	1.625077	0.792983	0.083882
Zn3	Zn	1.124988	0.416054	-0.293053
Zn4	Zn	1.624988	0.916054	0.206947
Zn5	Zn	1.002010	0.293007	-0.293065
Zn6	Zn	1.502010	0.793007	0.206935
Zn7	Zn	1.001978	0.416013	-0.416078
Zn8	Zn	1.501978	0.916013	0.083922
O9	O	1.063513	0.354514	-0.354578
O10	O	1.563513	0.854514	0.145422
O11	O	1.228050	0.309316	-0.399805
O12	O	1.728050	0.809316	0.100195
O13	O	1.108651	0.399759	-0.190070
O14	O	1.608651	0.899759	0.309930
O15	O	1.018386	0.190020	-0.309411
O16	O	1.518386	0.690020	0.190589
O17	O	1.227984	0.399736	-0.309389
O18	O	1.727984	0.899736	0.190611
O19	O	1.108803	0.190002	-0.399817
O20	O	1.608803	0.690002	0.100183
O21	O	1.018299	0.309357	-0.190079
O22	O	1.518299	0.809357	0.309921
O23	O	0.899021	0.309317	-0.309372
O24	O	1.399021	0.809317	0.190628
O25	O	1.018332	0.399666	-0.519067
O26	O	1.518332	0.899666	-0.019067
O27	O	0.898998	0.399689	-0.399748
O28	O	1.398998	0.899689	0.100252
O29	O	1.108772	0.309276	-0.519097
O30	O	1.608772	0.809276	-0.019097
O31	O	1.108620	0.519033	-0.309350
O32	O	1.608620	1.019033	0.190650
O33	O	1.018245	0.519003	-0.399736
O34	O	1.518245	1.019003	0.100264
C35	C	0.872307	0.354502	-0.354557
C36	C	1.372307	0.854502	0.145443
C37	C	0.790508	0.354514	-0.354566
C38	C	1.290508	0.854514	0.145434
C39	C	0.602321	0.401645	-0.401566
C40	C	1.102321	0.901645	0.098434
C41	C	0.525463	0.401647	-0.401575
C42	C	1.025463	0.901647	0.098425
C43	C	0.525457	0.307397	-0.307607
C44	C	1.025457	0.807397	0.192393
C45	C	0.602315	0.307392	-0.307602
C46	C	1.102315	0.807392	0.192398
C47	C	0.640745	0.354520	-0.354581
C48	C	1.140745	0.854520	0.145419
C49	C	0.487029	0.354528	-0.354595
C50	C	0.987029	0.854528	0.145405
C51	C	0.403695	0.354530	-0.354604
C52	C	0.903695	0.854530	0.145396
C53	C	0.724084	0.354517	-0.354572
C54	C	1.224084	0.854517	0.145428
C55	C	1.063439	0.545721	-0.354553
C56	C	1.563439	1.045721	0.145447
C57	C	1.063475	0.627520	-0.354567
C58	C	1.563475	1.127520	0.145433
C59	C	1.110647	0.815705	-0.307600
C60	C	1.610647	1.315705	0.192400
C61	C	1.110681	0.892563	-0.307622
C62	C	1.610681	1.392563	0.192378
C63	C	1.016492	0.892572	-0.401663
C64	C	1.516492	1.392572	0.098337
C65	C	1.016462	0.815715	-0.401644
C66	C	1.516462	1.315715	0.098356
C67	C	1.063539	0.777283	-0.354609
C68	C	1.563539	1.277283	0.145391
C69	C	1.063603	0.930999	-0.354649
C70	C	1.563603	1.430999	0.145351
C71	C	1.063640	1.014333	-0.354673
C72	C	1.563640	1.514333	0.145327
C73	C	1.063503	0.693944	-0.354585
C74	C	1.563503	1.193944	0.145415
C75	C	1.255466	0.354528	-0.354600
C76	C	1.755466	0.854528	0.145400
C77	C	1.337265	0.354533	-0.354609
C78	C	1.837265	0.854533	0.145391
C79	C	1.063558	0.354464	-0.546531
C80	C	1.563558	0.854464	-0.046531
C81	C	1.063577	0.354442	-0.628330
C82	C	1.563577	0.854442	-0.128330
C83	C	1.063613	1.162561	-0.354633
C84	C	1.563613	1.662561	0.145367
C85	C	1.063667	1.080763	-0.354691
C86	C	1.563667	1.580763	0.145309
C87	C	1.110687	0.307332	-0.816541
C88	C	1.610687	0.807332	-0.316541
C89	C	1.110695	0.307311	-0.893400
C90	C	1.610695	0.807311	-0.393400
C91	C	1.016520	0.401438	-0.893358
C92	C	1.516520	0.901438	-0.393358
C93	C	1.016508	0.401455	-0.816500
C94	C	1.516508	0.901455	-0.316500
C95	C	1.063596	0.354403	-0.778094
C96	C	1.563596	0.854403	-0.278094
C97	C	1.063616	0.354365	-0.931810
C98	C	1.563616	0.854365	-0.431810
C99	C	1.063625	0.354342	-1.015144
C100	C	1.563625	0.854342	-0.515144
C101	C	1.063586	0.354425	-0.694755
C102	C	1.563586	0.854425	-0.194755
C103	C	1.063511	0.354512	-0.163372
C104	C	1.563511	0.854512	0.336628
C105	C	1.063635	0.354326	-0.081574
C106	C	1.563635	0.854326	0.418426
H107	H	0.633600	0.269012	-0.269341
H108	H	1.133600	0.769012	0.230659
C109	C	0.438995	0.500654	-0.411633
C110	C	0.938995	1.000654	0.088367
C111	C	0.483225	0.453449	-0.453220
C112	C	0.983225	0.953449	0.046780
H113	H	0.412917	0.532631	-0.443521
H114	H	0.912917	1.032631	0.056479
H115	H	0.468953	0.528760	-0.379524
H116	H	0.968953	1.028760	0.120476
H117	H	0.405110	0.472582	-0.383660
H118	H	0.905110	0.972582	0.116340
H119	H	0.517115	0.481522	-0.481190
H120	H	1.017115	0.981522	0.018810
H121	H	0.453265	0.425340	-0.485343
H122	H	0.953265	0.925340	0.014657
C123	C	0.980617	0.526047	-0.916979
C124	C	1.480617	1.026047	-0.416979
C125	C	0.964768	0.453162	-0.935576
C126	C	1.464768	0.953162	-0.435576
H127	H	0.948664	0.557980	-0.943039
H128	H	1.448664	1.057980	-0.443039
H129	H	1.030055	0.536810	-0.929584
H130	H	1.530055	1.036810	-0.429584
H131	H	0.973867	0.532784	-0.865701
H132	H	1.473867	1.032784	-0.365701
H133	H	0.971523	0.446425	-0.986852
H134	H	1.471523	0.946425	-0.486852
H135	H	0.915319	0.442395	-0.922975
H136	H	1.415319	0.942395	-0.422975
C137	C	0.501756	0.271391	-0.183056
C138	C	1.001756	0.771391	0.316944
C139	C	0.483212	0.255601	-0.255966
C140	C	0.983212	0.755601	0.244034
H141	H	0.475679	0.239410	-0.151175
H142	H	0.975679	0.739410	0.348825
H143	H	0.489136	0.320819	-0.172206
H144	H	0.989136	0.820819	0.327794
H145	H	0.553030	0.264640	-0.176338
H146	H	1.053030	0.764640	0.323662
H147	H	0.431939	0.262357	-0.262685
H148	H	0.931939	0.762357	0.237315
H149	H	0.495827	0.206161	-0.266819
H150	H	0.995827	0.706161	0.233181
C151	C	1.146579	0.182721	-0.792918
C152	C	1.646579	0.682721	-0.292918
C153	C	1.162436	0.255605	-0.774324
C154	C	1.662436	0.755605	-0.274324
H155	H	1.178525	0.150786	-0.766852
H156	H	1.678525	0.650786	-0.266852
H157	H	1.153327	0.175981	-0.844188
H158	H	1.653327	0.675981	-0.344188
H159	H	1.097133	0.171965	-0.780310
H160	H	1.597133	0.671965	-0.280310
H161	H	1.211881	0.266364	-0.786937
H162	H	1.711881	0.766364	-0.286937
H163	H	1.155695	0.262349	-0.723043
H164	H	1.655695	0.762349	-0.223043
H165	H	1.149040	0.268979	-0.924700
H166	H	1.649040	0.768979	-0.424700
C167	C	0.980581	0.916183	-0.526252
C168	C	1.480581	1.416183	-0.026252
C169	C	0.964745	0.934821	-0.453359
C170	C	1.464745	1.434821	0.046641
H171	H	0.948635	0.942269	-0.558165
H172	H	1.448635	1.442269	-0.058165
H173	H	0.973817	0.864917	-0.532965
H174	H	1.473817	1.364917	-0.032965
H175	H	1.030027	0.928734	-0.537063
H176	H	1.530027	1.428734	-0.037063
H177	H	0.915300	0.922264	-0.442547
H178	H	1.415300	1.422264	0.057453
H179	H	0.971503	0.986098	-0.446642
H180	H	1.471503	1.486098	0.053358
H181	H	0.978156	0.439786	-0.785196
H182	H	1.478156	0.939786	-0.285196
H183	H	0.633609	0.440018	-0.439820
H184	H	1.133609	0.940018	0.060180
H185	H	1.148980	0.784415	-0.269301
H186	H	1.648980	1.284415	0.230699
H187	H	1.149043	0.923843	-0.269343
H188	H	1.649043	1.423843	0.230657
H189	H	0.978101	0.784430	-0.439928
H190	H	1.478101	1.284430	0.060072
