data_functionalizedCrystal
_audit_creation_method	'MofGen! by Chris Wilmer'
_symmetry_space_group_name_H-M	'P1'
_symmetry_Int_Tables_number	1
_symmetry_cell_setting	triclinic
loop_
_symmetry_equiv_pos_as_xyz
  x,y,z
_cell_length_a	12.594517
_cell_length_b	18.215405
_cell_length_c	18.215399
_cell_angle_alpha	90.030551
_cell_angle_beta	89.979999
_cell_angle_gamma	89.975315
loop_
_atom_site_label
_atom_site_type_symbol
_atom_site_fract_x
_atom_site_fract_y
_atom_site_fract_z
Zn1	Zn	1.627188	0.292996	-0.416106
Zn2	Zn	2.127188	0.792996	0.083894
Zn3	Zn	1.627055	0.416067	-0.293034
Zn4	Zn	2.127055	0.916067	0.206966
Zn5	Zn	1.449196	0.293018	-0.293053
Zn6	Zn	1.949196	0.793018	0.206947
Zn7	Zn	1.449146	0.416025	-0.416059
Zn8	Zn	1.949146	0.916025	0.083941
O9	O	1.538146	0.354526	-0.354563
O10	O	2.038146	0.854526	0.145437
O11	O	1.776116	0.309330	-0.399792
O12	O	2.276116	0.809330	0.100208
O13	O	1.603427	0.399772	-0.190052
O14	O	2.103427	0.899772	0.309948
O15	O	1.472883	0.190031	-0.309404
O16	O	1.972883	0.690031	0.190596
O17	O	1.776019	0.399750	-0.309372
O18	O	2.276019	0.899750	0.190628
O19	O	1.603653	0.190014	-0.399810
O20	O	2.103653	0.690014	0.100190
O21	O	1.472754	0.309368	-0.190066
O22	O	1.972754	0.809368	0.309934
O23	O	1.300243	0.309327	-0.309358
O24	O	1.800243	0.809327	0.190642
O25	O	1.472799	0.399677	-0.519049
O26	O	1.972799	0.899677	-0.019049
O27	O	1.300207	0.399699	-0.399730
O28	O	1.800207	0.899699	0.100270
O29	O	1.603605	0.309289	-0.519084
O30	O	2.103605	0.809289	-0.019084
O31	O	1.603379	0.519046	-0.309326
O32	O	2.103379	1.019046	0.190674
O33	O	1.472670	0.519015	-0.399711
O34	O	1.972670	1.019015	0.100289
C35	C	1.538034	0.545733	-0.354527
C36	C	2.038034	1.045733	0.145473
C37	C	1.538083	0.627532	-0.354537
C38	C	2.038083	1.127532	0.145463
C39	C	1.261605	0.354512	-0.354541
C40	C	1.761605	0.854512	0.145459
C41	C	1.143300	0.354523	-0.354549
C42	C	1.643300	0.854523	0.145451
C43	C	1.538211	0.354476	-0.546516
C44	C	2.038211	0.854476	-0.046516
C45	C	1.538239	0.354454	-0.628315
C46	C	2.038239	0.854454	-0.128315
C47	C	1.074036	0.305303	-0.305490
C48	C	1.574036	0.805303	0.194510
C49	C	1.003210	0.372431	-0.287381
C50	C	1.503210	0.872431	0.212619
C51	C	1.003326	0.287428	-0.372671
C52	C	1.503326	0.787428	0.127329
C53	C	1.074033	0.421686	-0.336405
C54	C	1.574033	0.921686	0.163595
C55	C	1.074155	0.336639	-0.421726
C56	C	1.574155	0.836639	0.078274
C57	C	1.003362	0.403813	-0.403643
C58	C	1.503362	0.903813	0.096357
C59	C	1.815767	0.354542	-0.354585
C60	C	2.315767	0.854542	0.145415
C61	C	1.934072	0.354548	-0.354594
C62	C	2.434072	0.854548	0.145406
C63	C	1.538288	0.162574	-0.354614
C64	C	2.038288	0.662574	0.145386
C65	C	1.538348	0.080775	-0.354636
C66	C	2.038348	0.580775	0.145364
C67	C	1.606303	0.815717	-0.307560
C68	C	2.106303	1.315717	0.192440
C69	C	1.606351	0.892576	-0.307578
C70	C	2.106351	1.392576	0.192422
C71	C	1.470126	0.892584	-0.401619
C72	C	1.970126	1.392584	0.098381
C73	C	1.470084	0.815726	-0.401604
C74	C	1.970084	1.315726	0.098396
C75	C	1.538171	0.777295	-0.354570
C76	C	2.038171	1.277295	0.145430
C77	C	1.538260	0.931011	-0.354603
C78	C	2.038260	1.431011	0.145397
C79	C	1.538311	1.014345	-0.354623
C80	C	2.038311	1.514345	0.145377
C81	C	1.538122	0.693956	-0.354552
C82	C	2.038122	1.193956	0.145448
C83	C	1.606374	0.307345	-0.816528
C84	C	2.106374	0.807345	-0.316528
C85	C	1.606387	0.307323	-0.893387
C86	C	2.106387	0.807323	-0.393387
C87	C	1.470179	0.401450	-0.893339
C88	C	1.970179	0.901450	-0.393339
C89	C	1.470161	0.401467	-0.816482
C90	C	1.970161	0.901467	-0.316482
C91	C	1.538265	0.354415	-0.778078
C92	C	2.038265	0.854415	-0.278078
C93	C	1.538295	0.354377	-0.931795
C94	C	2.038295	0.854377	-0.431795
C95	C	1.538308	0.354354	-1.015128
C96	C	2.038308	0.854354	-0.515128
C97	C	1.538251	0.354437	-0.694739
C98	C	2.038251	0.854437	-0.194739
C99	C	1.538143	0.354524	-0.163357
C100	C	2.038143	0.854524	0.336643
C101	C	1.538321	0.354338	-0.081558
C102	C	2.038321	0.854338	0.418442
H103	H	1.105067	0.263719	-0.263951
H104	H	1.605067	0.763719	0.236049
C105	C	0.961371	0.210758	-0.393355
C106	C	1.461371	0.710758	0.106645
N107	N	0.929775	0.153009	-0.408930
N108	N	1.429775	0.653009	0.091070
C109	C	0.961105	0.392885	-0.210661
C110	C	1.461105	0.892885	0.289339
N111	N	0.929392	0.408285	-0.152874
N112	N	1.429392	0.908285	0.347126
H113	H	1.105341	0.321475	-0.478500
H114	H	1.605341	0.821475	0.021500
H115	H	1.661745	0.784428	-0.269263
H116	H	2.161745	1.284428	0.230737
C117	C	1.681280	0.255580	-0.774287
C118	C	2.181280	0.755580	-0.274287
N119	N	1.737699	0.216587	-0.742473
N120	N	2.237699	0.716587	-0.242473
C121	C	1.395267	0.453202	-0.935591
C122	C	1.895267	0.953202	-0.435591
N123	N	1.338841	0.492183	-0.967413
N124	N	1.838841	0.992183	-0.467413
H125	H	1.414691	0.439797	-0.785175
H126	H	1.914691	0.939797	-0.285175
C127	C	1.681314	0.255543	-0.935678
C128	C	2.181314	0.755543	-0.435678
N129	N	1.737753	0.216540	-0.967531
N130	N	2.237753	0.716540	-0.467531
C131	C	1.115813	0.498377	-0.315630
C132	C	1.615813	0.998377	0.184370
N133	N	1.147285	0.556138	-0.299979
N134	N	1.647285	1.056138	0.200021
H135	H	1.661832	0.923856	-0.269298
H136	H	2.161832	1.423856	0.230702
H137	H	1.414690	0.923884	-0.439911
H138	H	1.914690	1.423884	0.060089
C139	C	1.395152	0.773459	-0.453337
C140	C	1.895152	1.273459	0.046663
N141	N	1.338725	0.741624	-0.492308
N142	N	1.838725	1.241624	0.007692
C143	C	0.961691	0.460124	-0.459714
C144	C	1.461691	0.960124	0.040286
N145	N	0.930300	0.502540	-0.501942
N146	N	1.430300	1.002540	-0.001942
