data_functionalizedCrystal
_audit_creation_method	'MofGen! by Chris Wilmer'
_symmetry_space_group_name_H-M	'P1'
_symmetry_Int_Tables_number	1
_symmetry_cell_setting	triclinic
loop_
_symmetry_equiv_pos_as_xyz
  x,y,z
_cell_length_a	12.594517
_cell_length_b	21.295417
_cell_length_c	12.594510
_cell_angle_alpha	89.957633
_cell_angle_beta	89.978880
_cell_angle_gamma	90.030306
loop_
_atom_site_label
_atom_site_type_symbol
_atom_site_fract_x
_atom_site_fract_y
_atom_site_fract_z
Zn1	Zn	1.627158	-0.250556	-0.601801
Zn2	Zn	1.627004	-0.355845	-0.423797
Zn3	Zn	1.449162	-0.250594	-0.423830
Zn4	Zn	1.449099	-0.355790	-0.601727
O5	O	1.538106	-0.303196	-0.512789
O6	O	1.776083	-0.264530	-0.578205
O7	O	1.603376	-0.341923	-0.274856
O8	O	1.472865	-0.162499	-0.447482
O9	O	1.775971	-0.341886	-0.447427
O10	O	1.603637	-0.162471	-0.578237
O11	O	1.472716	-0.264595	-0.274879
O12	O	1.300208	-0.264541	-0.447411
O13	O	1.472757	-0.341792	-0.750683
O14	O	1.300162	-0.341829	-0.578112
O15	O	1.603576	-0.264476	-0.750737
O16	O	1.603314	-0.443928	-0.447356
O17	O	1.472608	-0.443887	-0.578080
C18	C	1.261565	-0.303184	-0.512757
C19	C	1.143260	-0.303193	-0.512769
C20	C	1.074001	-0.261099	-0.441817
C21	C	1.003165	-0.318521	-0.415623
C22	C	1.003296	-0.245800	-0.538981
C23	C	1.073982	-0.360645	-0.486525
C24	C	1.074119	-0.287885	-0.609928
C25	C	1.003316	-0.345347	-0.583771
C26	C	1.537966	-0.466748	-0.512730
C27	C	1.538004	-0.536716	-0.512740
C28	C	1.606123	-0.569583	-0.444742
C29	C	1.606173	-0.635325	-0.444766
C30	C	1.538085	-0.668199	-0.512777
C31	C	1.469961	-0.635324	-0.580789
C32	C	1.469920	-0.569583	-0.580770
N33	N	1.444974	-0.771463	-0.520881
N34	N	1.445016	-0.833915	-0.520892
C35	C	1.538204	-0.866273	-0.512838
N36	N	1.631352	-0.833821	-0.504752
N37	N	1.631309	-0.771364	-0.504735
C38	C	1.538122	-0.739484	-0.512805
C39	C	1.606383	-0.970426	-0.444862
C40	C	1.606435	-1.036169	-0.444893
C41	C	1.470213	-1.036166	-0.580911
C42	C	1.470171	-0.970424	-0.580885
C43	C	1.538254	-0.937557	-0.512855
C44	C	1.815727	-0.303209	-0.512821
C45	C	1.934032	-0.303215	-0.512835
C46	C	1.538176	-0.303124	-0.790410
C47	C	1.538206	-0.303093	-0.908715
C48	C	1.538275	-0.139006	-0.512871
C49	C	1.538347	-0.069038	-0.512906
C50	C	1.609380	-0.261038	-0.977998
C51	C	1.512310	-0.245629	-1.048792
C52	C	1.635333	-0.318457	-1.048720
C53	C	1.441085	-0.287655	-0.977952
C54	C	1.564173	-0.360509	-0.977873
C55	C	1.467036	-0.345123	-1.048636
C56	C	1.538097	-0.303223	-0.236248
C57	C	1.538274	-0.303077	-0.117943
H58	H	1.105309	-0.274907	-0.692040
N59	N	1.675958	-0.936852	-0.375404
N60	N	1.743739	-0.900115	-0.412915
H61	H	1.792882	-0.876405	-0.363863
H62	H	1.414525	-0.662093	-0.636166
N63	N	1.400659	-1.069746	-0.650369
N64	N	1.332880	-1.106487	-0.612865
H65	H	1.283756	-1.130207	-0.661923
H66	H	0.972475	-0.380995	-0.643801
H67	H	0.972001	-0.331482	-0.333486
N68	N	1.391501	-0.389739	-1.087312
N69	N	1.400277	-0.446448	-1.063206
H70	H	1.346929	-0.477957	-1.090523
N71	N	1.400333	-0.535997	-0.650217
N72	N	1.400304	-0.477300	-0.650187
H73	H	1.351156	-0.453578	-0.699234
H74	H	1.490371	-0.197067	-1.079944
N75	N	1.676041	-1.069734	-0.375436
N76	N	1.736824	-1.040378	-0.314710
H77	H	1.785988	-1.064084	-0.265656
H78	H	1.669463	-0.225452	-0.946978
H79	H	1.586142	-0.409058	-0.946701
N80	N	1.400579	-0.936857	-0.650350
N81	N	1.339793	-0.966213	-0.711074
H82	H	1.290643	-0.942507	-0.760140
N83	N	0.964342	-0.184898	-0.566747
N84	N	0.987004	-0.138496	-0.510399
H85	H	0.959496	-0.095482	-0.530000
H86	H	1.717442	-0.331457	-1.079810
H87	H	1.358951	-0.274597	-0.946996
N88	N	1.112965	-0.216494	-0.366456
N89	N	1.210723	-0.209013	-0.354889
H90	H	1.238244	-0.177513	-0.301664
N91	N	1.112779	-0.421558	-0.458610
N92	N	1.170049	-0.428300	-0.378375
H93	H	1.197453	-0.471318	-0.358656
N94	N	1.675674	-0.536021	-0.375247
N95	N	1.736492	-0.565380	-0.314539
H96	H	1.785615	-0.541677	-0.265457
H97	H	1.661648	-0.662091	-0.389393
