data_functionalizedCrystal
_audit_creation_method	'MofGen! by Chris Wilmer'
_symmetry_space_group_name_H-M	'P1'
_symmetry_Int_Tables_number	1
_symmetry_cell_setting	triclinic
loop_
_symmetry_equiv_pos_as_xyz
  x,y,z
_cell_length_a	14.044220
_cell_length_b	15.995350
_cell_length_c	13.101039
_cell_angle_alpha	93.364563
_cell_angle_beta	86.340132
_cell_angle_gamma	88.340626
loop_
_atom_site_label
_atom_site_type_symbol
_atom_site_fract_x
_atom_site_fract_y
_atom_site_fract_z
O1	O	1.262914	0.197637	-0.085096
O2	O	1.762914	0.697637	0.414904
O3	O	0.986946	0.190352	-0.085122
O4	O	1.486946	0.690352	0.414878
O5	O	1.132474	0.072670	-0.085107
O6	O	1.632474	0.572670	0.414893
O7	O	1.117386	0.315319	-0.085111
O8	O	1.617386	0.815319	0.414889
O9	O	1.122032	0.081129	0.085321
O10	O	1.622032	0.581129	0.585321
O11	O	0.976505	0.198810	0.085307
O12	O	1.476505	0.698810	0.585307
O13	O	1.252472	0.206096	0.085333
O14	O	1.752472	0.706096	0.585333
Zn15	Zn	1.112831	0.203796	0.112379
Zn16	Zn	1.612831	0.703796	0.612379
Zn17	Zn	1.126588	0.192651	-0.112168
Zn18	Zn	1.626588	0.692651	0.387832
O19	O	1.106945	0.323777	0.085318
O20	O	1.606945	0.823777	0.585318
C21	C	0.946411	0.191392	0.000089
C22	C	1.446411	0.691392	0.500089
C23	C	0.841186	0.181881	0.000079
C24	C	1.341186	0.681881	0.500079
C25	C	1.126629	0.045658	0.000105
C26	C	1.626629	0.545658	0.500105
C27	C	1.124760	-0.047432	0.000099
C28	C	1.624760	0.452568	0.500099
C29	C	0.648524	0.164494	0.000099
C30	C	1.148524	0.664494	0.500099
C31	C	0.590890	0.231950	0.000102
C32	C	1.090890	0.731950	0.500102
C33	C	0.483686	0.222275	0.000114
C34	C	0.983686	0.722275	0.500114
C35	C	0.755738	0.174167	0.000088
C36	C	1.255738	0.674167	0.500088
C37	C	1.118044	-0.385681	0.000102
C38	C	1.618044	0.114319	0.500102
C39	C	1.014425	-0.346007	-0.000290
C40	C	1.514425	0.153993	0.499710
C41	C	1.016272	-0.249158	0.000094
C42	C	1.516272	0.250842	0.500094
C43	C	1.121375	-0.217872	0.000100
C44	C	1.621375	0.282128	0.500100
C45	C	1.166533	-0.250301	0.097426
C46	C	1.666533	0.249699	0.597426
C47	C	1.163924	-0.347127	0.097507
C48	C	1.663924	0.152873	0.597507
C49	C	1.177939	-0.356944	-0.096302
C50	C	1.677939	0.143056	0.403698
C51	C	1.177993	-0.260065	-0.097588
C52	C	1.677993	0.239935	0.402412
C53	C	1.123263	-0.123033	0.000102
C54	C	1.623263	0.376967	0.500102
C55	C	1.116159	-0.480519	0.000106
C56	C	1.616159	0.019481	0.500106
C57	C	1.293008	0.205055	0.000120
C58	C	1.793008	0.705055	0.500120
C59	C	1.398233	0.214566	0.000123
C60	C	1.898233	0.714566	0.500123
C61	C	1.112789	0.350789	0.000103
C62	C	1.612789	0.850789	0.500103
C63	C	1.114659	0.443879	0.000103
C64	C	1.614659	0.943879	0.500103
N65	N	1.103449	0.211402	0.265626
N66	N	1.603449	0.711402	0.765626
N67	N	1.135977	0.185039	-0.265416
N68	N	1.635977	0.685039	0.234584
C69	C	1.090685	0.221758	0.474668
C70	C	1.590685	0.721758	0.974668
C71	C	1.148739	0.174686	0.525549
C72	C	1.648739	0.674686	1.025549
C73	C	1.141636	0.180448	0.641867
C74	C	1.641636	0.680448	1.141867
C75	C	1.097786	0.215997	0.358340
C76	C	1.597786	0.715997	0.858340
H77	H	0.622062	0.296967	0.000097
H78	H	1.122062	0.796967	0.500097
C79	C	0.606421	0.076667	0.000094
C80	C	1.106421	0.576667	0.500094
H81	H	0.538846	0.081605	0.000090
H82	H	1.038846	0.581605	0.500090
H83	H	0.623579	0.050049	0.059519
H84	H	1.123579	0.550049	0.559519
H85	H	0.630845	0.044166	-0.059353
H86	H	1.130845	0.544166	0.440647
C87	C	1.223116	0.114426	0.466392
C88	C	1.723116	0.614426	0.966392
H89	H	1.218212	0.118423	0.394840
H90	H	1.718212	0.618423	0.894840
H91	H	1.211696	0.058633	0.483897
H92	H	1.711696	0.558633	0.983897
H93	H	1.285341	0.129068	0.483928
H94	H	1.785341	0.629068	0.983928
C95	C	0.967749	-0.219489	-0.094144
C96	C	1.467749	0.280511	0.405856
H97	H	0.946724	-0.266654	-0.133006
H98	H	1.446724	0.233346	0.366994
H99	H	1.012037	-0.190123	-0.135321
H100	H	1.512037	0.309877	0.364679
H101	H	0.914527	-0.183398	-0.072237
H102	H	1.414527	0.316602	0.427763
H103	H	0.977276	-0.371097	-0.070085
H104	H	1.477276	0.128903	0.429915
H105	H	0.968933	-0.365237	0.069108
H106	H	1.468933	0.134763	0.569108
C107	C	1.133548	-0.231771	-0.194862
C108	C	1.633548	0.268229	0.305138
H109	H	1.168111	-0.257505	-0.253695
H110	H	1.668111	0.242495	0.246305
H111	H	1.136209	-0.172596	-0.196649
H112	H	1.636209	0.327404	0.303351
H113	H	1.068905	-0.247765	-0.194258
H114	H	1.568905	0.252235	0.305742
C115	C	1.016320	0.282025	0.533821
C116	C	1.516320	0.782025	1.033821
H117	H	0.980816	0.310795	0.486603
H118	H	1.480816	0.810795	0.986603
H119	H	1.047955	0.321434	0.575689
H120	H	1.547955	0.821434	1.075689
H121	H	0.974292	0.251013	0.575661
H122	H	1.474292	0.751013	1.075661
H123	H	1.239746	-0.373472	0.101927
H124	H	1.739746	0.126528	0.601927
H125	H	0.971537	-0.220847	0.069973
H126	H	1.471537	0.279153	0.569973
H127	H	1.122190	-0.364602	0.170256
H128	H	1.622190	0.135398	0.670256
C129	C	1.270542	-0.223181	0.102333
C130	C	1.770542	0.276819	0.602333
H131	H	1.287389	-0.191762	0.044934
H132	H	1.787389	0.308238	0.544934
H133	H	1.311697	-0.271443	0.101434
H134	H	1.811697	0.228557	0.601434
H135	H	1.276700	-0.189590	0.163656
H136	H	1.776700	0.310410	0.663656
H137	H	1.126590	-0.220977	0.169849
H138	H	1.626590	0.279023	0.669849
C139	C	1.138267	-0.393049	-0.195956
C140	C	1.638267	0.106951	0.304044
H141	H	1.084797	-0.425989	-0.179697
H142	H	1.584797	0.074011	0.320303
H143	H	1.186327	-0.426993	-0.233955
H144	H	1.686327	0.073007	0.266045
H145	H	1.119175	-0.348430	-0.235685
H146	H	1.619175	0.151570	0.264315
H147	H	1.254999	-0.239269	-0.103460
H148	H	1.754999	0.260731	0.396540
C149	C	1.281218	-0.392190	-0.097191
C150	C	1.781218	0.107810	0.402809
H151	H	1.287846	-0.424266	-0.039131
H152	H	1.787846	0.075734	0.460869
H153	H	1.323911	-0.347223	-0.095053
H154	H	1.823911	0.152777	0.404947
H155	H	1.295604	-0.426844	-0.157930
H156	H	1.795604	0.073156	0.342070
