data_functionalizedCrystal
_audit_creation_method	'MofGen! by Chris Wilmer'
_symmetry_space_group_name_H-M	'P1'
_symmetry_Int_Tables_number	1
_symmetry_cell_setting	triclinic
loop_
_symmetry_equiv_pos_as_xyz
  x,y,z
_cell_length_a	10.654550
_cell_length_b	19.288865
_cell_length_c	9.130313
_cell_angle_alpha	89.990258
_cell_angle_beta	89.999724
_cell_angle_gamma	83.810589
loop_
_atom_site_label
_atom_site_type_symbol
_atom_site_fract_x
_atom_site_fract_y
_atom_site_fract_z
O1	O	1.665751	0.097555	-0.121709
O2	O	1.300074	0.106849	-0.121738
O3	O	1.493479	0.001141	-0.121693
O4	O	1.472346	0.203263	-0.121753
O5	O	1.493466	0.001138	0.121905
O6	O	1.300061	0.106846	0.121861
O7	O	1.665738	0.097552	0.121890
Cu8	Cu	1.482898	0.102198	0.144118
Cu9	Cu	1.482914	0.102202	-0.143966
O10	O	1.472333	0.203260	0.121846
C11	C	1.253284	0.106165	0.000059
C12	C	1.113884	0.104123	0.000049
C13	C	1.033066	0.166363	0.000035
C14	C	0.902087	0.164440	0.000061
C15	C	0.932756	0.038033	0.000109
C16	C	1.063733	0.039956	0.000094
C17	C	1.492792	-0.024742	0.000110
C18	C	1.490751	-0.101859	0.000123
C19	C	1.604232	-0.145812	0.000139
C20	C	1.602315	-0.218272	0.000116
C21	C	1.486909	-0.246775	0.000106
C22	C	1.373413	-0.202812	0.000081
C23	C	1.375334	-0.130354	0.000090
C24	C	1.396183	-0.355657	0.085426
C25	C	1.394266	-0.428114	0.085426
C26	C	1.480980	-0.470259	0.000073
C27	C	1.569631	-0.439940	-0.085263
C28	C	1.571552	-0.367482	-0.085254
C29	C	1.484814	-0.325343	0.000095
C30	C	1.592390	-0.592782	0.000061
C31	C	1.590467	-0.665243	0.000029
C32	C	1.361562	-0.649781	0.000009
C33	C	1.363488	-0.577322	0.000027
C34	C	1.478905	-0.548827	0.000060
C35	C	1.712528	0.098236	0.000090
C36	C	1.851928	0.100277	0.000091
C37	C	1.473020	0.229142	0.000039
C38	C	1.475061	0.306259	0.000016
N39	N	1.482896	0.102195	0.346741
N40	N	1.482925	0.102200	-0.346588
C41	C	1.568565	0.055408	0.423412
C42	C	1.568577	0.055408	0.576749
C43	C	1.397248	0.148990	0.576729
C44	C	1.397231	0.148986	0.423395
H45	H	0.891906	-0.014209	0.000154
O46	O	1.261198	-0.230382	0.000008
C47	C	1.161443	-0.176045	0.000033
H48	H	1.196369	-0.126656	-0.046077
H49	H	1.080851	-0.191568	-0.070703
H50	H	1.126446	-0.165973	0.116895
H51	H	0.836289	0.215122	0.000052
H52	H	1.327503	0.187086	0.639157
H53	H	1.129539	-0.010730	0.000109
O54	O	1.716455	-0.118248	0.000097
C55	C	1.816206	-0.172586	0.000144
H56	H	1.781287	-0.221966	-0.045985
H57	H	1.896815	-0.157052	-0.070564
H58	H	1.851179	-0.182681	0.117016
O59	O	1.657699	-0.338138	-0.168287
C60	C	1.733851	-0.390868	-0.243600
H61	H	1.681238	-0.439060	-0.253918
H62	H	1.756543	-0.371413	-0.357469
H63	H	1.825348	-0.404771	-0.180316
H64	H	1.640241	-0.474253	-0.154767
H65	H	1.327464	0.187086	0.360965
H66	H	1.686369	-0.569580	0.000081
O67	O	1.081576	0.228751	0.000069
C68	C	0.982151	0.283272	0.000027
H69	H	0.893286	0.263370	0.046163
H70	H	1.009274	0.328030	0.070733
H71	H	0.963495	0.302502	-0.116843
H72	H	1.694728	-0.254065	0.000123
O73	O	1.253283	-0.534594	-0.000232
C74	C	1.247565	-0.492194	-0.126371
H75	H	1.311938	-0.518406	-0.214548
H76	H	1.146366	-0.484532	-0.168728
H77	H	1.279765	-0.439358	-0.097837
H78	H	1.638317	0.017307	0.361003
H79	H	1.682881	-0.701029	0.000034
O80	O	1.308039	-0.457448	0.168354
C81	C	1.231923	-0.404716	0.243703
H82	H	1.233451	-0.353071	0.183353
H83	H	1.130870	-0.418866	0.249201
H84	H	1.269897	-0.399570	0.359482
O85	O	1.249533	-0.677541	-0.000200
C86	C	1.241568	-0.718961	-0.126391
H87	H	1.340651	-0.736523	-0.168442
H88	H	1.191774	-0.766645	-0.098035
H89	H	1.185839	-0.687210	-0.214736
O90	O	1.312112	-0.314659	0.168438
C91	C	1.377860	-0.277136	0.270231
H92	H	1.477571	-0.272987	0.228353
H93	H	1.326380	-0.222619	0.284626
H94	H	1.382794	-0.305458	0.380022
H95	H	1.282921	-0.094566	0.000077
H96	H	1.638334	0.017308	0.639171
