data_functionalizedCrystal
_audit_creation_method	'MofGen! by Chris Wilmer'
_symmetry_space_group_name_H-M	'P1'
_symmetry_Int_Tables_number	1
_symmetry_cell_setting	triclinic
loop_
_symmetry_equiv_pos_as_xyz
  x,y,z
_cell_length_a	6.817900
_cell_length_b	13.923258
_cell_length_c	11.102183
_cell_angle_alpha	84.093713
_cell_angle_beta	108.603876
_cell_angle_gamma	81.871755
loop_
_atom_site_label
_atom_site_type_symbol
_atom_site_fract_x
_atom_site_fract_y
_atom_site_fract_z
V1	V	-3.994472	0.302811	-0.178521
O2	O	-3.955743	0.297049	0.005819
O3	O	-3.972039	0.300739	-0.351322
O4	O	-3.920204	0.434878	-0.176986
O5	O	-4.007937	0.161980	-0.169725
V6	V	-4.478087	0.285967	-0.156328
O7	O	-4.255528	0.339761	-0.227201
O8	O	-4.667227	0.249018	-0.107648
O9	O	-4.277313	0.288040	0.016473
O10	O	-4.634212	0.291730	-0.340668
O11	O	-4.582018	0.426798	-0.165124
O12	O	-4.329148	0.153900	-0.157863
C13	C	-3.824194	0.295961	-0.393409
C14	C	-3.886967	0.295147	-0.534685
C15	C	-3.835371	0.117261	-0.496832
C16	C	-3.839059	0.027939	-0.544276
C17	C	-3.898046	0.027179	-0.677017
C18	C	-3.953355	0.115751	-0.762319
C19	C	-3.949667	0.205073	-0.714875
C20	C	-3.890669	0.205823	-0.582129
C21	C	-4.001277	0.382957	-0.752728
C22	C	-3.942276	0.383719	-0.619987
C23	C	-4.056586	0.471529	-0.838031
C24	C	-4.052883	0.560853	-0.790587
C25	C	-3.993889	0.561609	-0.657836
C26	C	-3.938588	0.473041	-0.572543
C27	C	-4.154623	0.121704	-0.163829
C28	C	-4.113128	0.013738	-0.163934
C29	C	-4.037230	-0.183911	-0.164341
C30	C	-3.854708	-0.227324	-0.170505
C31	C	-3.812475	-0.337302	-0.170732
C32	C	-4.079472	-0.073922	-0.164114
C33	C	-3.758072	0.467069	-0.171024
C34	C	-3.778806	0.575034	-0.170913
C35	C	-4.088501	0.292814	0.058554
C36	C	-4.004965	0.293635	0.199828
H37	H	-3.794027	-0.044174	-0.474808
H38	H	-4.161765	-0.229337	-0.159235
H39	H	-3.890519	0.473647	-0.464454
H40	H	-3.730162	-0.181894	-0.175611
H41	H	-4.097930	0.632961	-0.860049
N42	N	-3.775065	0.118017	-0.361235
N43	N	-3.725667	0.038934	-0.285087
H44	H	-3.683067	0.039465	-0.189319
H45	H	-4.001408	0.115125	-0.870403
N46	N	-3.901839	-0.064067	-0.725467
N47	N	-3.852478	-0.143139	-0.649301
H48	H	-3.855161	-0.207582	-0.683518
N49	N	-3.990115	0.652860	-0.609400
N50	N	-3.873146	0.708589	-0.631879
H51	H	-3.870480	0.773038	-0.597677
N52	N	-4.116859	0.470739	-0.973620
N53	N	-4.120145	0.390983	-1.015967
H54	H	-4.162711	0.390426	-1.111729
