data_functionalizedCrystal
_audit_creation_method	'MofGen! by Chris Wilmer'
_symmetry_space_group_name_H-M	'P1'
_symmetry_Int_Tables_number	1
_symmetry_cell_setting	triclinic
loop_
_symmetry_equiv_pos_as_xyz
  x,y,z
_cell_length_a	14.519709
_cell_length_b	14.519709
_cell_length_c	7.540329
_cell_angle_alpha	89.995460
_cell_angle_beta	90.002655
_cell_angle_gamma	83.680145
loop_
_atom_site_label
_atom_site_type_symbol
_atom_site_fract_x
_atom_site_fract_y
_atom_site_fract_z
O1	O	1.223866	0.120890	-0.147255
O2	O	0.955389	0.135126	-0.147310
O3	O	1.096745	-0.006230	-0.147265
O4	O	1.082509	0.262247	-0.147300
O5	O	1.096737	-0.006232	0.147700
O6	O	0.955380	0.135125	0.147655
O7	O	1.223857	0.120888	0.147710
Cu8	Cu	1.089618	0.128006	0.174615
Cu9	Cu	1.089628	0.128008	-0.174215
O10	O	1.082500	0.262245	0.147665
C11	C	0.921025	0.134462	0.000166
C12	C	0.818643	0.132474	0.000145
C13	C	1.096078	-0.040591	0.000217
C14	C	1.094090	-0.142972	0.000218
C15	C	0.443748	0.125154	0.000227
C16	C	0.548056	0.127187	0.000204
C17	C	0.631192	0.128814	0.000184
C18	C	0.735507	0.130847	0.000164
C19	C	1.086770	-0.517868	0.000170
C20	C	1.088803	-0.413560	0.000184
C21	C	1.090430	-0.330423	0.000196
C22	C	1.092463	-0.226109	0.000206
C23	C	1.258221	0.121553	0.000230
C24	C	1.360602	0.123541	0.000239
C25	C	1.083168	0.296606	0.000178
C26	C	1.085156	0.398987	0.000166
N27	N	1.089618	0.128004	0.419963
N28	N	1.089635	0.128003	-0.419564
