data_functionalizedCrystal
_audit_creation_method	'MofGen! by Chris Wilmer'
_symmetry_space_group_name_H-M	'P1'
_symmetry_Int_Tables_number	1
_symmetry_cell_setting	triclinic
loop_
_symmetry_equiv_pos_as_xyz
  x,y,z
_cell_length_a	21.395362
_cell_length_b	21.395361
_cell_length_c	21.395355
_cell_angle_alpha	90.021511
_cell_angle_beta	90.043940
_cell_angle_gamma	90.046585
loop_
_atom_site_label
_atom_site_type_symbol
_atom_site_fract_x
_atom_site_fract_y
_atom_site_fract_z
Zn1	Zn	-0.957859	0.249246	-0.354573
Zn2	Zn	-0.457859	0.749246	0.145427
Zn3	Zn	-0.957762	0.354005	-0.249790
Zn4	Zn	-0.457762	0.854005	0.250210
Zn5	Zn	-0.853074	0.249275	-0.249774
Zn6	Zn	-0.353074	0.749275	0.250226
Zn7	Zn	-0.853044	0.354018	-0.354494
Zn8	Zn	-0.353044	0.854018	0.145506
O9	O	-0.905435	0.301636	-0.302158
O10	O	-0.405435	0.801636	0.197842
O11	O	-1.045524	0.263125	-0.340712
O12	O	-0.545524	0.763125	0.159288
O13	O	-0.943847	0.340119	-0.162110
O14	O	-0.443847	0.840119	0.337890
O15	O	-0.867028	0.161593	-0.263702
O16	O	-0.367028	0.661593	0.236298
O17	O	-1.045453	0.340091	-0.263729
O18	O	-0.545453	0.840091	0.236271
O19	O	-0.944013	0.161572	-0.340697
O20	O	-0.444013	0.661572	0.159303
O21	O	-0.866934	0.263174	-0.162098
O22	O	-0.366934	0.763174	0.337902
O23	O	-0.765392	0.263187	-0.263626
O24	O	-0.265392	0.763187	0.236374
O25	O	-0.866976	0.340113	-0.442183
O26	O	-0.366976	0.840113	0.057817
O27	O	-0.765370	0.340141	-0.340564
O28	O	-0.265370	0.840141	0.159436
O29	O	-0.943983	0.263137	-0.442240
O30	O	-0.443983	0.763137	0.057760
O31	O	-0.943817	0.441685	-0.263653
O32	O	-0.443817	0.941685	0.236347
O33	O	-0.866881	0.441695	-0.340579
O34	O	-0.366881	0.941695	0.159421
C35	C	-0.742647	0.301669	-0.302085
C36	C	-0.242647	0.801669	0.197915
C37	C	-0.673006	0.301698	-0.302069
C38	C	-0.173006	0.801698	0.197931
C39	C	-0.905352	0.464424	-0.302123
C40	C	-0.405352	0.964424	0.197877
C41	C	-0.905374	0.534065	-0.302129
C42	C	-0.405374	1.034065	0.197871
C43	C	-0.905487	0.301623	-0.465581
C44	C	-0.405487	0.801623	0.034419
C45	C	-0.905509	0.301618	-0.535222
C46	C	-0.405509	0.801618	-0.035222
C47	C	-1.068858	0.301603	-0.302231
C48	C	-0.568858	0.801603	0.197769
C49	C	-1.138499	0.301589	-0.302262
C50	C	-0.638499	0.801589	0.197738
C51	C	-0.640297	0.341822	-0.342070
C52	C	-0.140297	0.841822	0.157930
C53	C	-0.574862	0.341806	-0.342098
C54	C	-0.074862	0.841806	0.157902
C55	C	-0.542138	0.301674	-0.302113
C56	C	-0.042138	0.801674	0.197887
C57	C	-0.574854	0.261543	-0.262109
C58	C	-0.074854	0.761543	0.237891
C59	C	-0.640288	0.261555	-0.262087
C60	C	-0.140288	0.761555	0.237913
C61	C	-0.438413	0.296627	-0.245708
C62	C	0.061587	0.796627	0.254292
C63	C	-0.372980	0.296619	-0.245730
C64	C	0.127020	0.796619	0.254270
C65	C	-0.340317	0.301633	-0.302182
C66	C	0.159683	0.801633	0.197818
C67	C	-0.373095	0.306668	-0.358616
C68	C	0.126905	0.806668	0.141384
C69	C	-0.438529	0.306681	-0.358594
C70	C	0.061471	0.806681	0.141406
C71	C	-0.471185	0.301656	-0.302133
C72	C	0.028815	0.801656	0.197867
C73	C	-0.236656	0.341742	-0.342218
C74	C	0.263344	0.841742	0.157782
C75	C	-0.171219	0.341723	-0.342247
C76	C	0.328781	0.841723	0.157753
C77	C	-0.171213	0.261462	-0.262252
C78	C	0.328787	0.761462	0.237748
C79	C	-0.236648	0.261479	-0.262229
C80	C	0.263352	0.761479	0.237771
C81	C	-0.269366	0.301622	-0.302211
C82	C	0.230634	0.801622	0.197789
C83	C	-0.905535	0.138213	-0.302206
C84	C	-0.405535	0.638213	0.197794
C85	C	-0.905578	0.068571	-0.302227
C86	C	-0.405578	0.568571	0.197773
C87	C	-0.945470	0.566752	-0.262114
C88	C	-0.445470	1.066752	0.237886
C89	C	-0.945499	0.632188	-0.262128
C90	C	-0.445499	1.132188	0.237872
C91	C	-0.905421	0.664933	-0.302150
C92	C	-0.405421	1.164933	0.197850
C93	C	-0.865322	0.632238	-0.342172
C94	C	-0.365322	1.132238	0.157828
C95	C	-0.865299	0.566804	-0.342162
C96	C	-0.365299	1.066804	0.157838
C97	C	-0.849006	0.768664	-0.307041
C98	C	-0.349006	1.268664	0.192959
C99	C	-0.849029	0.834097	-0.307047
C100	C	-0.349029	1.334097	0.192953
C101	C	-0.905494	0.866754	-0.302187
C102	C	-0.405494	1.366754	0.197813
C103	C	-0.961939	0.833970	-0.297307
C104	C	-0.461939	1.333970	0.202693
C105	C	-0.961915	0.768536	-0.297296
C106	C	-0.461915	1.268536	0.202704
C107	C	-0.905443	0.735886	-0.302167
C108	C	-0.405443	1.235886	0.197833
C109	C	-0.945625	0.970394	-0.262186
C110	C	-0.445625	1.470394	0.237814
C111	C	-0.945655	1.035830	-0.262204
C112	C	-0.445655	1.535830	0.237796
C113	C	-0.865473	1.035879	-0.342245
C114	C	-0.365473	1.535879	0.157755
C115	C	-0.865448	0.970444	-0.342230
C116	C	-0.365448	1.470444	0.157770
C117	C	-0.905524	0.937705	-0.302197
C118	C	-0.405524	1.437705	0.197803
C119	C	-0.945605	0.261535	-0.567966
C120	C	-0.445605	0.761535	-0.067966
C121	C	-0.945604	0.261508	-0.633402
C122	C	-0.445604	0.761508	-0.133402
C123	C	-0.905514	0.301575	-0.666091
C124	C	-0.405514	0.801575	-0.166091
C125	C	-0.865410	0.341661	-0.633339
C126	C	-0.365410	0.841661	-0.133339
C127	C	-0.865407	0.341682	-0.567904
C128	C	-0.365407	0.841682	-0.067904
C129	C	-0.900538	0.357992	-0.769752
C130	C	-0.400538	0.857992	-0.269752
C131	C	-0.900545	0.357972	-0.835185
C132	C	-0.400545	0.857972	-0.335185
C133	C	-0.905518	0.301509	-0.867911
C134	C	-0.405518	0.801509	-0.367911
C135	C	-0.910497	0.245065	-0.835197
C136	C	-0.410497	0.745065	-0.335197
C137	C	-0.910495	0.245086	-0.769763
C138	C	-0.410495	0.745086	-0.269763
C139	C	-0.905512	0.301556	-0.737043
C140	C	-0.405512	0.801556	-0.237043
C141	C	-0.945615	0.261393	-0.971608
C142	C	-0.445615	0.761393	-0.471608
C143	C	-0.945610	0.261365	-1.037045
C144	C	-0.445610	0.761365	-0.537045
C145	C	-0.865419	0.341524	-1.036980
C146	C	-0.365419	0.841524	-0.536980
C147	C	-0.865421	0.341547	-0.971545
C148	C	-0.365421	0.841547	-0.471545
C149	C	-0.905522	0.301482	-0.938863
C150	C	-0.405522	0.801482	-0.438863
C151	C	-0.905419	0.301603	-0.139370
C152	C	-0.405419	0.801603	0.360630
C153	C	-0.905518	0.301432	-0.069729
C154	C	-0.405518	0.801432	0.430271
H155	H	-0.666932	0.374509	-0.374627
H156	H	-0.166932	0.874509	0.125373
H157	H	-0.346502	0.310751	-0.404585
H158	H	0.153498	0.810751	0.095415
F159	F	-0.988292	0.218751	-0.936823
F160	F	-0.488292	0.718751	-0.436823
H161	H	-0.978259	0.943737	-0.229590
H162	H	-0.478259	1.443737	0.270410
H163	H	-0.803022	0.742081	-0.311001
H164	H	-0.303022	1.242081	0.188999
H165	H	-0.832753	0.374322	-0.541245
H166	H	-0.332753	0.874322	-0.041245
H167	H	-0.832774	0.374190	-0.944885
H168	H	-0.332774	0.874190	-0.444885
F169	F	-0.675100	0.218848	-0.219510
F170	F	-0.175100	0.718848	0.280490
H171	H	-0.832647	0.540189	-0.374747
H172	H	-0.332647	1.040189	0.125253
F173	F	-1.021986	0.733647	-0.292107
F174	F	-0.521986	1.233647	0.207893
F175	F	-1.022037	0.868720	-0.292129
F176	F	-0.522037	1.368720	0.207871
F177	F	-0.895259	0.418093	-0.734927
F178	F	-0.395259	0.918093	-0.234927
F179	F	-0.136389	0.218747	-0.219700
F180	F	0.363611	0.718747	0.280300
F181	F	-0.988283	0.218892	-0.533187
F182	F	-0.488283	0.718892	-0.033187
H183	H	-0.803068	0.860785	-0.311015
H184	H	-0.303068	1.360785	0.188985
H185	H	-0.548226	0.374479	-0.374674
H186	H	-0.048226	0.874479	0.125326
F187	F	-0.473411	0.312037	-0.418652
F188	F	0.026589	0.812037	0.081348
H189	H	-0.978103	0.540098	-0.229519
H190	H	-0.478103	1.040098	0.270481
H191	H	-0.832795	0.943828	-0.374811
H192	H	-0.332795	1.443828	0.125189
F193	F	-0.988338	1.070619	-0.219617
F194	F	-0.488338	1.570619	0.280383
F195	F	-0.915791	0.185016	-0.734949
F196	F	-0.415791	0.685016	-0.234949
F197	F	-0.473169	0.291291	-0.185619
F198	F	0.026831	0.791291	0.314381
F199	F	-0.988272	0.218834	-0.668258
F200	F	-0.488272	0.718834	-0.168258
H201	H	-0.263280	0.228809	-0.229652
H202	H	0.236720	0.728809	0.270348
F203	F	-0.915792	0.184969	-0.870022
F204	F	-0.415792	0.684969	-0.370022
F205	F	-0.540026	0.218829	-0.219557
F206	F	-0.040026	0.718829	0.280443
H207	H	-0.832843	1.062540	-0.374834
H208	H	-0.332843	1.562540	0.125166
F209	F	-0.271479	0.384463	-0.384772
F210	F	0.228521	0.884463	0.115228
H211	H	-0.978260	0.228721	-1.063704
H212	H	-0.478260	0.728721	-0.563704
H213	H	-0.832766	0.374282	-0.659958
H214	H	-0.332766	0.874282	-0.159958
H215	H	-0.978153	0.658807	-0.229544
H216	H	-0.478153	1.158807	0.270456
F217	F	-0.822746	0.384163	-1.071766
F218	F	-0.322746	0.884163	-0.571766
H219	H	-0.896494	0.403932	-0.861815
H220	H	-0.396494	0.903932	-0.361815
F221	F	-0.822671	0.667089	-0.384769
F222	F	-0.322671	1.167089	0.115231
H223	H	-0.346297	0.292523	-0.199778
H224	H	0.153703	0.792523	0.300222
H225	H	-0.144589	0.374395	-0.374824
H226	H	0.355411	0.874395	0.125176
