data_functionalizedCrystal
_audit_creation_method	'MofGen! by Chris Wilmer'
_symmetry_space_group_name_H-M	'P1'
_symmetry_Int_Tables_number	1
_symmetry_cell_setting	triclinic
loop_
_symmetry_equiv_pos_as_xyz
  x,y,z
_cell_length_a	19.188938
_cell_length_b	14.519709
_cell_length_c	12.996460
_cell_angle_alpha	90.007090
_cell_angle_beta	89.995186
_cell_angle_gamma	96.586046
loop_
_atom_site_label
_atom_site_type_symbol
_atom_site_fract_x
_atom_site_fract_y
_atom_site_fract_z
O1	O	0.926553	-0.115169	-0.085550
O2	O	0.723297	-0.130661	-0.085557
O3	O	0.830314	0.011356	-0.085544
O4	O	0.819536	-0.257187	-0.085563
O5	O	0.830303	0.011364	0.085590
O6	O	0.723286	-0.130654	0.085577
O7	O	0.926541	-0.115161	0.085584
Cu8	Cu	0.824913	-0.122907	0.101206
Cu9	Cu	0.824926	-0.122916	-0.101179
O10	O	0.819525	-0.257179	0.085571
C11	C	0.697279	-0.130155	0.000010
C12	C	0.619769	-0.128645	0.000007
C13	C	0.952560	-0.115668	0.000015
C14	C	1.030069	-0.117177	0.000011
C15	C	1.583366	-0.127930	-0.093275
C16	C	1.510537	-0.126521	-0.093278
C17	C	1.474115	-0.125808	0.000008
C18	C	1.510526	-0.126528	0.093303
C19	C	1.583353	-0.127947	0.093303
N20	N	1.364897	-0.071099	0.069450
N21	N	1.295714	-0.069749	0.069444
C22	C	1.254691	-0.121535	0.000014
N23	N	1.285464	-0.174710	-0.069425
N24	N	1.354653	-0.176055	-0.069422
C25	C	1.395146	-0.124270	0.000019
C26	C	1.139318	-0.119293	-0.093277
C27	C	1.066486	-0.117889	-0.093276
C28	C	1.066478	-0.117887	0.093307
C29	C	1.139307	-0.119300	0.093303
C30	C	1.175723	-0.119998	0.000008
C31	C	0.829806	0.045717	0.000023
C32	C	0.828301	0.148089	0.000024
C33	C	0.820033	-0.291540	0.000002
C34	C	0.821538	-0.393912	-0.000006
N35	N	0.824908	-0.122900	0.243553
C36	C	0.822759	0.522951	-0.000003
C37	C	0.824298	0.418652	0.000005
C38	C	0.825530	0.335523	0.000011
C39	C	0.827069	0.231218	0.000017
N40	N	0.824936	-0.122916	-0.243526
C41	C	0.824925	-0.122917	0.663368
C42	C	0.824918	-0.122915	0.546563
C43	C	0.824917	-0.122909	0.453464
C44	C	0.824910	-0.122906	0.336652
H45	H	1.613011	-0.128499	-0.169243
C46	C	1.027090	-0.117068	-0.194668
C47	C	1.074576	-0.117957	-0.276366
C48	C	1.038310	-0.117187	-0.369784
H49	H	0.993424	-0.170267	-0.198707
H50	H	1.003953	-0.062728	-0.198588
H51	H	1.097702	-0.172291	-0.272448
H52	H	1.108243	-0.064761	-0.272361
H53	H	1.015173	-0.062847	-0.373704
H54	H	1.004645	-0.170387	-0.373812
H55	H	1.070524	-0.117781	-0.425227
C56	C	1.471004	-0.125942	0.194617
C57	C	1.480942	-0.205622	0.250877
C58	C	1.444538	-0.205125	0.344210
H59	H	1.488160	-0.072471	0.233077
H60	H	1.422405	-0.125041	0.181300
H61	H	1.529531	-0.206514	0.264197
H62	H	1.463783	-0.259106	0.212448
H63	H	1.395939	-0.204224	0.330893
H64	H	1.461697	-0.151650	0.382661
H65	H	1.451270	-0.259190	0.382390
H66	H	1.168968	-0.119872	-0.169244
C67	C	1.622900	-0.128905	0.194555
C68	C	1.656945	-0.209050	0.200008
C69	C	1.693377	-0.209967	0.293272
H70	H	1.656615	-0.075753	0.198537
H71	H	1.590798	-0.128331	0.250146
H72	H	1.689044	-0.209615	0.144433
H73	H	1.623246	-0.262215	0.196044
H74	H	1.661275	-0.209393	0.348863
H75	H	1.727088	-0.156812	0.297246
H76	H	1.716475	-0.264348	0.296988
C77	C	1.178958	-0.120108	0.194477
C78	C	1.250530	-0.121524	0.174512
C79	C	1.287076	-0.122283	0.267692
H80	H	1.172359	-0.066124	0.232887
H81	H	1.161804	-0.173663	0.232814
H82	H	1.267678	-0.067975	0.136191
H83	H	1.257150	-0.175505	0.136117
H84	H	1.269922	-0.175837	0.306029
H85	H	1.280471	-0.068297	0.306094
H86	H	1.335640	-0.123252	0.254158
H87	H	1.480891	-0.125940	-0.169242
C88	C	1.026929	-0.116916	0.194563
C89	C	0.992890	-0.036765	0.200033
C90	C	0.956457	-0.035834	0.293304
H91	H	0.993210	-0.170064	0.198543
H92	H	1.059029	-0.117488	0.250148
H93	H	0.960793	-0.036201	0.144463
H94	H	1.026593	0.016396	0.196071
H95	H	0.988557	-0.036406	0.348889
H96	H	0.922742	-0.088985	0.297275
H97	H	0.933362	0.018551	0.297032
