data_functionalizedCrystal
_audit_creation_method	'MofGen! by Chris Wilmer'
_symmetry_space_group_name_H-M	'P1'
_symmetry_Int_Tables_number	1
_symmetry_cell_setting	triclinic
loop_
_symmetry_equiv_pos_as_xyz
  x,y,z
_cell_length_a	14.853558
_cell_length_b	15.995350
_cell_length_c	13.930277
_cell_angle_alpha	89.997676
_cell_angle_beta	89.993309
_cell_angle_gamma	83.561754
loop_
_atom_site_label
_atom_site_type_symbol
_atom_site_fract_x
_atom_site_fract_y
_atom_site_fract_z
O1	O	1.196226	0.109280	-0.079814
O2	O	1.696226	0.609280	0.420186
O3	O	0.933748	0.122310	-0.079818
O4	O	1.433748	0.622310	0.420182
O5	O	1.072162	-0.006084	-0.079815
O6	O	1.572162	0.493916	0.420185
O7	O	1.057812	0.237675	-0.079817
O8	O	1.557812	0.737675	0.420183
O9	O	1.072143	-0.006087	0.079847
O10	O	1.572143	0.493913	0.579847
O11	O	0.933729	0.122307	0.079844
O12	O	1.433729	0.622307	0.579844
O13	O	1.196207	0.109277	0.079848
O14	O	1.696207	0.609277	0.579848
Zn15	Zn	1.064965	0.115792	0.105195
Zn16	Zn	1.564965	0.615792	0.605195
Zn17	Zn	1.064990	0.115795	-0.105166
Zn18	Zn	1.564990	0.615795	0.394834
O19	O	1.057793	0.237672	0.079845
O20	O	1.557793	0.737672	0.579845
C21	C	0.900150	0.121720	0.000012
C22	C	1.400150	0.621720	0.500012
C23	C	0.800069	0.119955	0.000011
C24	C	1.300069	0.619955	0.500011
C25	C	1.071559	-0.037281	0.000014
C26	C	1.571559	0.462719	0.500014
C27	C	1.069781	-0.130234	0.000008
C28	C	1.569781	0.369766	0.500008
C29	C	0.753060	0.119129	-0.087025
C30	C	1.253060	0.619129	0.412975
C31	C	0.753037	0.119116	0.087045
C32	C	1.253037	0.619116	0.587045
C33	C	0.659006	0.117453	0.087046
C34	C	1.159006	0.617453	0.587046
C35	C	0.611997	0.116626	0.000011
C36	C	1.111997	0.616626	0.500011
C37	C	0.659020	0.117463	-0.087026
C38	C	1.159020	0.617463	0.412974
C39	C	0.611977	0.116607	0.174082
C40	C	1.111977	0.616607	0.674082
C41	C	0.517940	0.114944	0.174087
C42	C	1.017940	0.614944	0.674087
C43	C	0.470929	0.114123	0.087050
C44	C	0.970929	0.614123	0.587050
C45	C	0.517958	0.114961	0.000010
C46	C	1.017958	0.614961	0.500010
C47	C	0.470949	0.114135	-0.087025
C48	C	0.970949	0.614135	0.412975
C49	C	0.517975	0.114978	-0.174067
C50	C	1.017975	0.614978	0.325933
C51	C	0.612009	0.116643	-0.174062
C52	C	1.112009	0.616643	0.325938
C53	C	0.376895	0.112459	0.087046
C54	C	0.876895	0.612459	0.587046
C55	C	0.376909	0.112469	-0.087026
C56	C	0.876909	0.612469	0.412974
C57	C	1.063393	-0.467988	0.000012
C58	C	1.563393	0.032012	0.500012
C59	C	0.964817	-0.420666	-0.000348
C60	C	1.464817	0.079334	0.499652
C61	C	0.966596	-0.323974	0.000012
C62	C	1.466596	0.176026	0.500012
C63	C	1.066562	-0.300424	0.000009
C64	C	1.566562	0.199576	0.500009
C65	C	1.115172	-0.341448	0.091183
C66	C	1.615172	0.158552	0.591183
C67	C	1.112696	-0.438087	0.091260
C68	C	1.612696	0.061913	0.591260
C69	C	1.114754	-0.438440	-0.090306
C70	C	1.614754	0.061560	0.409694
C71	C	1.114730	-0.341494	-0.091511
C72	C	1.614730	0.158506	0.408489
C73	C	1.068357	-0.205725	0.000011
C74	C	1.568357	0.294275	0.500011
C75	C	1.061601	-0.562688	0.000016
C76	C	1.561601	-0.062688	0.500016
C77	C	1.229805	0.109867	0.000015
C78	C	1.729805	0.609867	0.500015
C79	C	1.329886	0.111633	0.000010
C80	C	1.829886	0.611633	0.500010
C81	C	1.058396	0.268869	0.000013
C82	C	1.558396	0.768869	0.500013
C83	C	1.060174	0.361821	0.000013
C84	C	1.560174	0.861821	0.500013
N85	N	1.064954	0.115789	0.248761
N86	N	1.564954	0.615789	0.748761
N87	N	1.065008	0.115792	-0.248732
N88	N	1.565008	0.615792	0.251268
C89	C	1.003698	0.172626	0.701029
C90	C	1.503698	0.672626	1.201029
C91	C	1.126307	0.058958	0.701001
C92	C	1.626307	0.558958	1.201001
C93	C	1.126296	0.058955	0.600506
C94	C	1.626296	0.558955	1.100506
C95	C	1.064987	0.115790	0.550267
C96	C	1.564987	0.615790	1.050267
C97	C	1.003687	0.172627	0.600524
C98	C	1.503687	0.672627	1.100524
C99	C	1.187601	0.002125	0.550241
C100	C	1.687601	0.502125	1.050241
C101	C	1.187593	0.002121	0.449739
C102	C	1.687593	0.502121	0.949739
C103	C	1.126278	0.058952	0.399499
C104	C	1.626278	0.558952	0.899499
C105	C	1.064976	0.115791	0.449762
C106	C	1.564976	0.615791	0.949762
C107	C	1.003666	0.172625	0.399524
C108	C	1.503666	0.672625	0.899524
C109	C	0.942358	0.229461	0.449785
C110	C	1.442358	0.729461	0.949785
C111	C	0.942372	0.229458	0.550284
C112	C	1.442372	0.729458	1.050284
C113	C	1.126264	0.058954	0.299000
C114	C	1.626264	0.558954	0.799000
C115	C	1.003655	0.172626	0.299019
C116	C	1.503655	0.672626	0.799019
H117	H	0.338641	0.111801	-0.157902
H118	H	0.838641	0.611801	0.342098
Cl119	Cl	1.264679	-0.069316	0.613395
Cl120	Cl	1.764679	0.430684	1.113395
H121	H	1.237512	-0.044158	0.408822
H122	H	1.737512	0.455842	0.908822
Cl123	Cl	0.812175	0.120189	-0.196443
Cl124	Cl	1.312175	0.620189	0.303557
H125	H	1.187433	-0.470118	-0.090920
H126	H	1.687433	0.029882	0.409080
H127	H	1.176228	0.012689	0.741909
H128	H	1.676228	0.512689	1.241909
Cl129	Cl	0.865292	0.300913	0.386618
Cl130	Cl	1.365292	0.800913	0.886618
H131	H	1.187630	-0.326050	-0.097018
H132	H	1.687630	0.173950	0.402982
Cl133	Cl	0.926570	0.244075	0.235870
Cl134	Cl	1.426570	0.744075	0.735870
H135	H	0.925585	-0.440306	0.064669
H136	H	1.425585	0.059694	0.564669
H137	H	0.892459	0.275732	0.591213
H138	H	1.392459	0.775732	1.091213
Cl139	Cl	0.926626	0.244071	0.764210
Cl140	Cl	1.426626	0.744071	1.264210
H141	H	0.338610	0.111780	0.157914
H142	H	0.838610	0.611780	0.657914
H143	H	1.176184	0.012684	0.258082
H144	H	1.676184	0.512684	0.758082
H145	H	0.479689	0.114301	-0.244931
H146	H	0.979689	0.614301	0.255069
H147	H	0.479660	0.114256	0.244961
H148	H	0.979660	0.614256	0.744961
H149	H	0.791318	0.119782	0.157905
H150	H	1.291318	0.619782	0.657905
Cl151	Cl	0.671134	0.117692	-0.283475
Cl152	Cl	1.171134	0.617692	0.216525
H153	H	0.650260	0.117273	0.244941
H154	H	1.150260	0.617273	0.744941
Cl155	Cl	0.907177	-0.281015	0.101087
Cl156	Cl	1.407177	0.218985	0.601087
H157	H	0.928385	-0.295594	-0.065345
H158	H	1.428385	0.204406	0.434655
H159	H	1.077233	-0.456430	0.159415
H160	H	1.577233	0.043570	0.659415
Cl161	Cl	0.903993	-0.449342	-0.101294
Cl162	Cl	1.403993	0.050658	0.398706
Cl163	Cl	1.228561	-0.319513	0.096422
Cl164	Cl	1.728561	0.180487	0.596422
Cl165	Cl	1.224429	-0.487753	0.097658
Cl166	Cl	1.724429	0.012247	0.597658
Cl167	Cl	1.064998	-0.470192	-0.196999
Cl168	Cl	1.564998	0.029808	0.303001
Cl169	Cl	1.063022	-0.297695	0.195941
Cl170	Cl	1.563022	0.202305	0.695941
H171	H	1.079190	-0.314285	-0.158959
H172	H	1.579190	0.185715	0.341041
