data_functionalizedCrystal
_audit_creation_method	'MofGen! by Chris Wilmer'
_symmetry_space_group_name_H-M	'P1'
_symmetry_Int_Tables_number	1
_symmetry_cell_setting	triclinic
loop_
_symmetry_equiv_pos_as_xyz
  x,y,z
_cell_length_a	16.625546
_cell_length_b	13.032831
_cell_length_c	13.032268
_cell_angle_alpha	90.886977
_cell_angle_beta	82.855386
_cell_angle_gamma	97.173222
loop_
_atom_site_label
_atom_site_type_symbol
_atom_site_fract_x
_atom_site_fract_y
_atom_site_fract_z
Zn1	Zn	-0.544521	-1.498429	0.780776
Zn2	Zn	-0.664651	-1.520160	0.608784
Zn3	Zn	-0.510838	-1.348291	0.587021
Zn4	Zn	-0.660292	-1.326409	0.758909
O5	O	-0.595075	-1.423322	0.683873
O6	O	-0.576377	-1.645231	0.776220
O7	O	-0.631976	-1.515614	0.461981
O8	O	-0.402484	-1.368270	0.612767
O9	O	-0.664636	-1.661197	0.649858
O10	O	-0.427231	-1.478576	0.755118
O11	O	-0.518970	-1.389342	0.445992
O12	O	-0.514743	-1.201469	0.591563
O13	O	-0.657206	-1.330976	0.905725
O14	O	-0.624546	-1.185392	0.717849
O15	O	-0.572150	-1.457358	0.921791
O16	O	-0.776895	-1.494396	0.628654
O17	O	-0.773692	-1.352048	0.738951
C18	C	-0.804552	-1.423230	0.683817
C19	C	-0.894180	-1.423281	0.683840
C20	C	-0.565517	-1.156114	0.649972
C21	C	-0.552893	-1.041798	0.635494
C22	C	-0.617949	-1.389302	0.952117
C23	C	-0.627696	-1.374805	1.066427
C24	C	-1.222385	-1.423447	0.683970
C25	C	-1.131068	-1.423397	0.683936
C26	C	-1.058285	-1.423363	0.683904
C27	C	-0.966963	-1.423315	0.683872
C28	C	-0.384786	-1.423440	0.683954
C29	C	-0.295173	-1.423490	0.683989
C30	C	-0.624750	-1.691574	0.717906
C31	C	-0.637396	-1.805887	0.732409
C32	C	-0.601664	-0.982917	0.691429
C33	C	-0.588618	-0.864766	0.676466
C34	C	-0.572239	-1.457270	0.416679
C35	C	-0.562287	-1.471966	0.302395
C36	C	-0.589958	-1.430873	1.125339
C37	C	-0.600031	-1.415890	1.243485
H38	H	-0.653074	-1.019978	0.750398
H39	H	-0.688808	-0.842942	0.791385
H40	H	-0.639795	-1.356786	1.280509
H41	H	-0.501477	-1.004736	0.576533
F42	F	-0.537959	-1.508094	1.076942
H43	H	-0.522512	-1.531059	1.265370
H44	H	-0.537199	-0.827708	0.617501
F45	F	-0.679671	-1.297557	1.114821
