data_functionalizedCrystal
_audit_creation_method	'MofGen! by Chris Wilmer'
_symmetry_space_group_name_H-M	'P1'
_symmetry_Int_Tables_number	1
_symmetry_cell_setting	triclinic
loop_
_symmetry_equiv_pos_as_xyz
  x,y,z
_cell_length_a	11.792254
_cell_length_b	15.944493
_cell_length_c	10.268362
_cell_angle_alpha	90.000590
_cell_angle_beta	89.995475
_cell_angle_gamma	83.836821
loop_
_atom_site_label
_atom_site_type_symbol
_atom_site_fract_x
_atom_site_fract_y
_atom_site_fract_z
O1	O	1.505919	0.115182	-0.108281
O2	O	1.755919	0.365182	0.141719
O3	O	2.005919	0.615182	0.391719
O4	O	2.255919	0.865182	0.641719
O5	O	1.175479	0.127036	-0.108282
O6	O	1.425479	0.377036	0.141718
O7	O	1.675479	0.627036	0.391718
O8	O	1.925479	0.877036	0.641718
O9	O	1.349757	-0.001128	-0.108292
O10	O	1.599757	0.248872	0.141708
O11	O	1.849757	0.498872	0.391708
O12	O	2.099757	0.748872	0.641708
O13	O	1.331641	0.243346	-0.108271
O14	O	1.581641	0.493346	0.141729
O15	O	1.831641	0.743346	0.391729
O16	O	2.081641	0.993346	0.641729
O17	O	1.349742	-0.001133	0.108309
O18	O	1.599742	0.248867	0.358309
O19	O	1.849742	0.498867	0.608309
O20	O	2.099742	0.748867	0.858309
O21	O	1.175464	0.127031	0.108319
O22	O	1.425464	0.377031	0.358319
O23	O	1.675464	0.627031	0.608319
O24	O	1.925464	0.877031	0.858319
O25	O	1.505904	0.115177	0.108320
O26	O	1.755904	0.365177	0.358320
O27	O	2.005904	0.615177	0.608320
O28	O	2.255904	0.865177	0.858320
Cu29	Cu	1.340682	0.121103	0.128097
Cu30	Cu	1.590682	0.371103	0.378097
Cu31	Cu	1.840682	0.621103	0.628097
Cu32	Cu	2.090682	0.871103	0.878097
Cu33	Cu	1.340700	0.121110	-0.128059
Cu34	Cu	1.590700	0.371110	0.121941
Cu35	Cu	1.840700	0.621110	0.371941
Cu36	Cu	2.090700	0.871110	0.621941
O37	O	1.331626	0.243341	0.108330
O38	O	1.581626	0.493341	0.358330
O39	O	1.831626	0.743341	0.608330
O40	O	2.081626	0.993341	0.858330
C41	C	1.133187	0.126287	0.000018
C42	C	1.383187	0.376287	0.250018
C43	C	1.633187	0.626287	0.500018
C44	C	1.883187	0.876287	0.750018
C45	C	1.007193	0.124052	0.000017
C46	C	1.257193	0.374052	0.250017
C47	C	1.507193	0.624052	0.500017
C48	C	1.757193	0.874052	0.750017
C49	C	0.904872	0.122236	0.000011
C50	C	1.154872	0.372236	0.250011
C51	C	1.404872	0.622236	0.500011
C52	C	1.654872	0.872236	0.750011
C53	C	0.776504	0.119965	0.000010
C54	C	1.026504	0.369965	0.250010
C55	C	1.276504	0.619965	0.500010
C56	C	1.526504	0.869965	0.750010
C57	C	1.349009	-0.032429	0.000003
C58	C	1.599009	0.217571	0.250003
C59	C	1.849009	0.467571	0.500003
C60	C	2.099009	0.717571	0.750003
C61	C	1.346789	-0.125687	-0.000014
C62	C	1.596789	0.124313	0.249986
C63	C	1.846789	0.374313	0.499986
C64	C	2.096789	0.624313	0.749986
C65	C	1.449373	-0.360981	0.000011
C66	C	1.699373	-0.110981	0.250011
C67	C	1.949373	0.139019	0.500011
C68	C	2.199373	0.389019	0.750011
C69	C	1.394061	-0.411798	-0.106784
C70	C	1.644061	-0.161798	0.143216
C71	C	1.894061	0.088202	0.393216
C72	C	2.144061	0.338202	0.643216
C73	C	1.342676	-0.296427	0.000002
C74	C	1.592676	-0.046427	0.250002
C75	C	1.842676	0.203573	0.500002
C76	C	2.092676	0.453573	0.750002
C77	C	1.394021	-0.411779	0.106767
C78	C	1.644021	-0.161779	0.356767
C79	C	1.894021	0.088221	0.606767
C80	C	2.144021	0.338221	0.856767
C81	C	1.338711	-0.461355	0.000023
C82	C	1.588711	-0.211355	0.250023
C83	C	1.838711	0.038645	0.500023
C84	C	2.088711	0.288645	0.750023
C85	C	1.287392	-0.346016	-0.106881
C86	C	1.537392	-0.096016	0.143119
C87	C	1.787392	0.153984	0.393119
C88	C	2.037392	0.403984	0.643119
C89	C	1.287368	-0.345994	0.106766
C90	C	1.537368	-0.095994	0.356766
C91	C	1.787368	0.154006	0.606766
C92	C	2.037368	0.404006	0.856766
C93	C	1.231977	-0.396778	-0.000055
C94	C	1.481977	-0.146778	0.249945
C95	C	1.731977	0.103222	0.499945
C96	C	1.981977	0.353222	0.749945
C97	C	1.344963	-0.201417	-0.000011
C98	C	1.594963	0.048583	0.249989
C99	C	1.844963	0.298583	0.499989
C100	C	2.094963	0.548583	0.749989
C101	C	1.336415	-0.556362	0.000027
C102	C	1.586415	-0.306362	0.250027
C103	C	1.836415	-0.056362	0.500027
C104	C	2.086415	0.193638	0.750027
C105	C	1.548196	0.115926	0.000017
C106	C	1.798196	0.365926	0.250017
C107	C	2.048196	0.615926	0.500017
C108	C	2.298196	0.865926	0.750017
C109	C	1.674190	0.118161	0.000010
C110	C	1.924190	0.368161	0.250010
C111	C	2.174190	0.618161	0.500010
C112	C	2.424190	0.868161	0.750010
C113	C	1.332374	0.274642	0.000033
C114	C	1.582374	0.524642	0.250033
C115	C	1.832374	0.774642	0.500033
C116	C	2.082374	1.024642	0.750033
C117	C	1.334594	0.367900	0.000041
C118	C	1.584594	0.617900	0.250041
C119	C	1.834594	0.867900	0.500041
C120	C	2.084594	1.117900	0.750041
N121	N	1.340678	0.121098	0.308263
N122	N	1.590678	0.371098	0.558263
N123	N	1.840678	0.621098	0.808263
N124	N	2.090678	0.871098	1.058263
N125	N	1.340713	0.121108	-0.308225
N126	N	1.590713	0.371108	-0.058225
N127	N	1.840713	0.621108	0.191775
N128	N	2.090713	0.871108	0.441775
C129	C	1.340694	0.121108	0.573933
C130	C	1.590694	0.371108	0.823933
C131	C	1.840694	0.621108	1.073933
C132	C	2.090694	0.871108	1.323933
C133	C	1.340682	0.121105	0.426095
C134	C	1.590682	0.371105	0.676095
C135	C	1.840682	0.621105	0.926095
C136	C	2.090682	0.871105	1.176095
H137	H	1.541279	-0.344935	-0.000096
H138	H	1.791279	-0.094935	0.249904
H139	H	2.041279	0.155065	0.499904
H140	H	2.291279	0.405065	0.749904
O141	O	1.110139	-0.417809	-0.000134
O142	O	1.360139	-0.167809	0.249866
O143	O	1.610139	0.082191	0.499866
O144	O	1.860139	0.332191	0.749866
H145	H	1.109298	-0.487351	0.000715
H146	H	1.359298	-0.237351	0.250715
H147	H	1.609298	0.012649	0.500715
H148	H	1.859298	0.262649	0.750715
H149	H	1.439127	-0.440536	-0.197072
H150	H	1.689127	-0.190536	0.052928
H151	H	1.939127	0.059464	0.302928
H152	H	2.189127	0.309464	0.552928
H153	H	1.242365	-0.317398	-0.197264
H154	H	1.492365	-0.067398	0.052736
H155	H	1.742365	0.182602	0.302736
H156	H	1.992365	0.432602	0.552736
O157	O	1.453721	-0.449816	0.226369
O158	O	1.703721	-0.199816	0.476369
O159	O	1.953721	0.050184	0.726369
O160	O	2.203721	0.300184	0.976369
H161	H	1.410262	-0.422425	0.314918
H162	H	1.660262	-0.172425	0.564918
H163	H	1.910262	0.077575	0.814918
H164	H	2.160262	0.327575	1.064918
O165	O	1.227727	-0.307891	0.226361
O166	O	1.477727	-0.057891	0.476361
O167	O	1.727727	0.192109	0.726361
O168	O	1.977727	0.442109	0.976361
H169	H	1.272206	-0.334350	0.314887
H170	H	1.522206	-0.084350	0.564887
H171	H	1.772206	0.165650	0.814887
H172	H	2.022206	0.415650	1.064887
