data_functionalizedCrystal
_audit_creation_method	'MofGen! by Chris Wilmer'
_symmetry_space_group_name_H-M	'P1'
_symmetry_Int_Tables_number	1
_symmetry_cell_setting	triclinic
loop_
_symmetry_equiv_pos_as_xyz
  x,y,z
_cell_length_a	10.686220
_cell_length_b	10.686203
_cell_length_c	19.805399
_cell_angle_alpha	85.613528
_cell_angle_beta	85.648109
_cell_angle_gamma	89.651864
loop_
_atom_site_label
_atom_site_type_symbol
_atom_site_fract_x
_atom_site_fract_y
_atom_site_fract_z
Zn1	Zn	1.956131	0.352102	0.287876
Zn2	Zn	2.456131	0.852102	0.787876
Zn3	Zn	1.972126	0.561884	0.165430
Zn4	Zn	2.472126	1.061884	0.665430
Zn5	Zn	1.746367	0.368251	0.182661
Zn6	Zn	2.246367	0.868251	0.682661
Zn7	Zn	1.762445	0.577925	0.286538
Zn8	Zn	2.262445	1.077925	0.786538
O9	O	1.859267	0.465041	0.230626
O10	O	2.359267	0.965041	0.730626
O11	O	2.133791	0.366459	0.264982
O12	O	2.633791	0.866459	0.764982
O13	O	1.942144	0.536244	0.072999
O14	O	2.442144	1.036244	0.572999
O15	O	1.760770	0.190566	0.204389
O16	O	2.260770	0.690566	0.704389
O17	O	2.145543	0.520585	0.175021
O18	O	2.645543	1.020585	0.675021
O19	O	1.914882	0.178701	0.281690
O20	O	2.414882	0.678701	0.781690
O21	O	1.776280	0.393983	0.085658
O22	O	2.276280	0.893983	0.585658
O23	O	1.572961	0.409537	0.203092
O24	O	2.072961	0.909537	0.703092
O25	O	1.788172	0.547924	0.381433
O26	O	2.288172	1.047924	0.881433
O27	O	1.584773	0.563583	0.279410
O28	O	2.084773	1.063583	0.779410
O29	O	1.930472	0.382013	0.382416
O30	O	2.430472	0.882013	0.882416
O31	O	1.957734	0.739556	0.173724
O32	O	2.457734	1.239556	0.673724
O33	O	1.803683	0.751341	0.262702
O34	O	2.303683	1.251341	0.762702
C35	C	1.533352	0.490054	0.242976
C36	C	2.033352	0.990054	0.742976
C37	C	1.393926	0.500785	0.248274
C38	C	1.893926	1.000785	0.748274
C39	C	1.884223	0.790962	0.216212
C40	C	2.384223	1.290962	0.716212
C41	C	1.895014	0.930384	0.210064
C42	C	2.395014	1.430384	0.710064
C43	C	2.186455	0.439931	0.218229
C44	C	2.686455	0.939931	0.718229
C45	C	2.325883	0.429231	0.212945
C46	C	2.825883	0.929231	0.712945
C47	C	1.859332	0.464956	0.407170
C48	C	2.359332	0.964956	0.907170
C49	C	1.859359	0.464920	0.482402
C50	C	2.359359	0.964920	0.982402
C51	C	1.834236	1.137845	0.245118
C52	C	2.334236	1.637845	0.745118
C53	C	1.823538	0.998416	0.251313
C54	C	2.323538	1.498416	0.751313
C55	C	1.859269	0.465029	0.054771
C56	C	2.359269	0.965029	0.554771
C57	C	1.859457	0.464693	-0.020455
C58	C	2.359457	0.964693	0.479545
C59	C	1.933456	0.378526	0.518259
C60	C	2.433456	0.878526	1.018259
C61	C	1.933466	0.378489	0.588949
C62	C	2.433466	0.878489	1.088949
C63	C	1.859385	0.464853	0.623780
C64	C	2.359385	0.964853	1.123780
C65	C	1.785279	0.551251	0.587918
C66	C	2.285279	1.051251	1.087918
C67	C	1.785263	0.551281	0.517230
C68	C	2.285263	1.051281	1.017230
C69	C	1.785341	0.551128	0.872994
C70	C	2.285341	1.051128	1.372994
C71	C	1.785366	0.551094	0.943686
C72	C	2.285366	1.051094	1.443686
C73	C	1.933544	0.378336	0.944713
C74	C	2.433544	0.878336	1.444713
C75	C	1.933528	0.378367	0.874025
C76	C	2.433528	0.878367	1.374025
C77	C	1.859418	0.464760	0.838170
C78	C	2.359418	0.964760	1.338170
C79	C	1.859406	0.464798	0.761520
C80	C	2.359406	0.964798	1.261520
C81	C	1.859403	0.464821	0.700427
C82	C	2.359403	0.964821	1.200427
H83	H	1.374300	0.359763	0.178640
H84	H	1.874300	0.859763	0.678640
O85	O	1.713428	0.635093	0.621853
O86	O	2.213428	1.135093	1.121853
C87	C	1.729307	0.616524	0.691935
C88	C	2.229307	1.116524	1.191935
H89	H	1.822977	0.568010	0.699744
H90	H	2.322977	1.068010	1.199744
H91	H	1.727986	0.711130	0.714961
H92	H	2.227986	1.211130	1.214961
H93	H	1.649800	0.555420	0.717769
H94	H	2.149800	1.055420	1.217769
O95	O	1.740867	0.940593	0.299130
O96	O	2.240867	1.440593	0.799130
C97	C	1.806434	0.859193	0.343471
C98	C	2.306434	1.359193	0.843471
H99	H	1.908243	0.891084	0.342230
H100	H	2.408243	1.391084	0.842230
H101	H	1.760884	0.861047	0.397333
H102	H	2.260884	1.361047	0.897333
H103	H	1.803192	0.759629	0.326707
H104	H	2.303192	1.259629	0.826707
O105	O	1.977879	0.988335	0.162388
O106	O	2.477879	1.488335	0.662388
C107	C	1.970577	1.119309	0.166656
C108	C	2.470577	1.619309	0.666656
H109	H	1.930740	1.140212	0.219649
H110	H	2.430740	1.640212	0.719649
H111	H	2.068366	1.161880	0.156409
H112	H	2.568366	1.661880	0.656409
H113	H	1.906726	1.161743	0.127362
H114	H	2.406726	1.661743	0.627362
O115	O	1.335980	0.583559	0.289188
O116	O	1.835980	1.083559	0.789188
C117	C	1.205004	0.576220	0.285540
C118	C	1.705004	1.076220	0.785540
H119	H	1.179788	0.480712	0.268410
H120	H	1.679788	0.980712	0.768410
H121	H	1.155823	0.588642	0.337722
H122	H	1.655823	1.088642	0.837722
H123	H	1.173488	0.653371	0.247541
H124	H	1.673488	1.153371	0.747541
O125	O	2.005451	0.294510	0.484536
O126	O	2.505451	0.794510	0.984536
C127	C	2.070875	0.218269	0.531345
C128	C	2.570875	0.718269	1.031345
H129	H	2.019172	0.217849	0.583870
H130	H	2.519172	0.717849	1.083870
H131	H	2.076693	0.118413	0.514792
H132	H	2.576693	0.618413	1.014792
H133	H	2.169659	0.256891	0.533223
H134	H	2.669659	0.756891	1.033223
H135	H	1.993807	0.308141	0.618140
H136	H	2.493807	0.808141	1.118140
H137	H	1.993857	0.308045	0.845669
H138	H	2.493857	0.808045	1.345669
H139	H	1.993883	0.307986	0.973915
H140	H	2.493883	0.807986	1.473915
H141	H	1.725035	0.621424	0.972044
H142	H	2.225035	1.121424	1.472044
O143	O	1.713307	0.635155	0.838272
O144	O	2.213307	1.135155	1.338272
C145	C	1.647896	0.711343	0.884178
C146	C	2.147896	1.211343	1.384178
H147	H	1.699641	0.711746	0.932421
H148	H	2.199641	1.211746	1.432421
H149	H	1.642027	0.811210	0.859882
H150	H	2.142027	1.311210	1.359882
H151	H	1.549131	0.672682	0.897350
H152	H	2.049131	1.172682	1.397350
H153	H	1.724912	0.621621	0.488037
H154	H	2.224912	1.121621	0.988037
