data_functionalizedCrystal
_audit_creation_method	'MofGen! by Chris Wilmer'
_symmetry_space_group_name_H-M	'P1'
_symmetry_Int_Tables_number	1
_symmetry_cell_setting	triclinic
loop_
_symmetry_equiv_pos_as_xyz
  x,y,z
_cell_length_a	12.811445
_cell_length_b	12.811415
_cell_length_c	16.776229
_cell_angle_alpha	84.562504
_cell_angle_beta	84.561450
_cell_angle_gamma	83.528277
loop_
_atom_site_label
_atom_site_type_symbol
_atom_site_fract_x
_atom_site_fract_y
_atom_site_fract_z
O1	O	1.393302	0.141416	-0.177223
O2	O	1.087784	0.156780	-0.156251
O3	O	1.248228	-0.003661	-0.156247
O4	O	1.232858	0.301857	-0.177228
O5	O	1.248207	-0.003671	-0.023668
O6	O	1.087763	0.156770	-0.023672
O7	O	1.393281	0.141406	-0.044645
Zn8	Zn	1.240518	0.149086	-0.013109
Zn9	Zn	1.240547	0.149100	-0.187787
O10	O	1.232837	0.301847	-0.044649
C11	C	1.048665	0.155913	-0.087073
C12	C	0.932136	0.153330	-0.078463
C13	C	0.713183	0.148508	-0.206839
C14	C	0.603693	0.146082	-0.198753
C15	C	0.603663	0.146059	-0.054207
C16	C	0.713153	0.148485	-0.062293
C17	C	0.767909	0.149708	-0.138611
C18	C	0.877402	0.152127	-0.146696
C19	C	0.877369	0.152112	-0.002151
C20	C	0.767879	0.149686	0.005935
C21	C	1.247356	-0.042774	-0.087069
C22	C	1.244775	-0.159304	-0.078461
C23	C	1.239931	-0.378254	-0.206838
C24	C	1.237506	-0.487744	-0.198754
C25	C	1.237494	-0.487776	-0.054209
C26	C	1.239919	-0.378286	-0.062293
C27	C	1.241139	-0.323529	-0.138610
C28	C	1.243571	-0.214038	-0.146694
C29	C	1.243551	-0.214070	-0.002149
C30	C	1.241126	-0.323561	0.005935
C31	C	1.432400	0.142273	-0.113825
C32	C	1.548929	0.144856	-0.122439
C33	C	1.233709	0.340961	-0.113829
C34	C	1.236290	0.457491	-0.122442
N35	N	1.240507	0.149077	0.106104
N36	N	1.240566	0.149101	-0.307000
C37	C	1.311573	0.078063	0.147819
C38	C	1.311579	0.078062	0.231271
C39	C	1.240523	0.149081	0.273005
C40	C	1.169448	0.220099	0.231284
C41	C	1.169438	0.220094	0.147835
C42	C	1.169486	0.220119	0.567827
C43	C	1.169504	0.220121	0.651282
C44	C	1.311627	0.078088	0.651264
C45	C	1.311617	0.078083	0.567814
C46	C	1.240540	0.149096	0.526101
C47	C	1.240533	0.149095	0.435613
C48	C	1.240534	0.149088	0.363491
H49	H	0.921939	0.153087	0.053405
Br50	Br	1.072980	0.316467	0.091222
H51	H	0.757767	0.149499	-0.268980
Br52	Br	0.693557	0.148034	0.109504
Br53	Br	1.245206	-0.139797	0.090451
Br54	Br	1.245233	-0.139726	-0.250266
H55	H	0.921983	0.153122	-0.208838
Br56	Br	1.408024	-0.018319	0.287888
H57	H	1.369499	0.020261	0.685236
Br58	Br	1.235860	-0.562011	-0.291353
Br59	Br	1.073030	0.316493	0.511221
Br60	Br	1.239458	-0.397881	0.109504
Br61	Br	1.241608	-0.303939	-0.310409
Br62	Br	0.529422	0.144461	-0.291352
H63	H	1.236492	-0.532377	0.007926
Br64	Br	0.529330	0.144424	0.049358
H65	H	1.369440	0.020235	0.113844
Br66	Br	1.408059	-0.018297	0.511177
H67	H	1.111637	0.277955	0.685261
H68	H	1.111588	0.277920	0.265270
