data_functionalizedCrystal
_audit_creation_method	'MofGen! by Chris Wilmer'
_symmetry_space_group_name_H-M	'P1'
_symmetry_Int_Tables_number	1
_symmetry_cell_setting	triclinic
loop_
_symmetry_equiv_pos_as_xyz
  x,y,z
_cell_length_a	14.971486
_cell_length_b	9.065218
_cell_length_c	13.448316
_cell_angle_alpha	89.995277
_cell_angle_beta	89.998199
_cell_angle_gamma	84.315007
loop_
_atom_site_label
_atom_site_type_symbol
_atom_site_fract_x
_atom_site_fract_y
_atom_site_fract_z
O1	O	1.188380	0.192261	-0.082573
O2	O	0.928152	0.215285	-0.082600
O3	O	1.063645	-0.010978	-0.082584
O4	O	1.052887	0.418525	-0.082589
O5	O	1.063628	-0.010992	0.082800
O6	O	0.928134	0.215271	0.082784
O7	O	1.188363	0.192248	0.082811
Cu8	Cu	1.058247	0.203758	0.097898
Cu9	Cu	1.058268	0.203775	-0.097687
O10	O	1.052870	0.418511	0.082795
C11	C	0.894811	0.214248	0.000089
C12	C	0.795491	0.211163	0.000078
C13	C	0.739256	0.344086	0.000078
C14	C	0.645935	0.341178	0.000093
C15	C	0.608850	0.205345	0.000101
C16	C	0.665092	0.072412	0.000104
C17	C	0.758411	0.075321	0.000096
C18	C	0.470584	0.066357	0.000118
C19	C	0.377259	0.063446	0.000124
C20	C	0.358108	0.332214	0.000115
C21	C	0.451427	0.335123	0.000107
C22	C	0.507663	0.202189	0.000108
C23	C	1.062602	-0.065951	0.000106
C24	C	1.059511	-0.229731	0.000101
C25	C	1.221704	0.193284	0.000120
C26	C	1.321024	0.196370	0.000124
C27	C	1.053912	0.473483	0.000102
C28	C	1.057004	0.637264	0.000101
N29	N	1.058239	0.203746	0.235462
N30	N	1.058283	0.203775	-0.235252
C31	C	1.118255	0.103597	0.287510
C32	C	1.118260	0.103596	0.391613
C33	C	1.058254	0.203751	0.443667
C34	C	0.998232	0.303904	0.391612
C35	C	0.998223	0.303897	0.287511
C36	C	0.998257	0.303914	0.608592
C37	C	0.998267	0.303924	0.712701
C38	C	1.118294	0.103613	0.712694
C39	C	1.118285	0.103606	0.608593
C40	C	1.058264	0.203761	0.556546
H41	H	0.804197	-0.032919	0.000096
O42	O	0.525248	-0.062737	0.000292
C43	C	0.641769	-0.215412	0.085926
C44	C	0.579900	-0.069181	0.085872
H45	H	0.685984	-0.220656	0.155099
H46	H	0.599278	-0.313052	0.085993
H47	H	0.685891	-0.220739	0.016677
H48	H	0.535766	-0.063709	0.155110
H49	H	0.622444	0.028390	0.085754
O50	O	0.629175	-0.059628	-0.000022
C51	C	0.616948	-0.290183	-0.085732
C52	C	0.657698	-0.140713	-0.085695
H53	H	0.639978	-0.355769	-0.155001
H54	H	0.640044	-0.355990	-0.016566
H55	H	0.540592	-0.269393	-0.085682
H56	H	0.734056	-0.161368	-0.085780
H57	H	0.634531	-0.074955	-0.154855
H58	H	0.347068	-0.047161	0.000132
H59	H	0.949351	0.385446	0.245135
H60	H	1.167165	0.022064	0.755078
O61	O	1.176482	0.006368	0.557867
C62	C	1.298015	-0.025257	0.439894
C63	C	1.232297	0.085131	0.497372
H64	H	1.343146	0.038379	0.390954
H65	H	1.340993	-0.097050	0.494795
H66	H	1.258507	-0.098840	0.391329
H67	H	1.271733	0.158811	0.545939
H68	H	1.189319	0.156821	0.442417
H69	H	0.769442	0.454697	0.000071
H70	H	0.600152	0.449418	0.000092
H71	H	0.949403	0.385479	0.755078
O72	O	1.176456	0.006072	0.237016
C73	C	1.226804	-0.250350	0.205302
C74	C	1.160828	-0.140041	0.262511
H75	H	1.214205	-0.368506	0.225910
H76	H	1.216511	-0.233328	0.121939
H77	H	1.298592	-0.230865	0.225758
H78	H	1.089014	-0.159459	0.242139
H79	H	1.171200	-0.157090	0.345861
O80	O	0.303396	0.461254	-0.000017
C81	C	0.186959	0.613997	-0.085731
C82	C	0.248855	0.467796	-0.085685
H83	H	0.142860	0.619349	-0.154996
H84	H	0.142732	0.619386	-0.016561
H85	H	0.229516	0.711551	-0.085697
H86	H	0.206368	0.370160	-0.085753
H87	H	0.293086	0.462538	-0.154849
H88	H	0.949378	0.385467	0.566219
O89	O	0.939903	0.400991	0.442286
C90	C	0.817982	0.432065	0.559795
C91	C	0.884001	0.321948	0.502489
H92	H	0.772756	0.368201	0.608467
H93	H	0.857150	0.505857	0.608586
H94	H	0.775123	0.503673	0.504694
H95	H	0.926876	0.250242	0.557518
H96	H	0.844779	0.248258	0.453683
O97	O	1.176441	0.006169	0.442211
C98	C	1.193889	-0.195217	0.559791
C99	C	1.127896	-0.084981	0.502539
H100	H	1.154667	-0.268920	0.608596
H101	H	1.236764	-0.266895	0.504744
H102	H	1.239104	-0.131362	0.608473
H103	H	1.082624	-0.148716	0.453856
H104	H	1.085084	-0.013304	0.557640
H105	H	0.481618	0.445730	0.000091
