data_functionalizedCrystal
_audit_creation_method	'MofGen! by Chris Wilmer'
_symmetry_space_group_name_H-M	'P1'
_symmetry_Int_Tables_number	1
_symmetry_cell_setting	triclinic
loop_
_symmetry_equiv_pos_as_xyz
  x,y,z
_cell_length_a	12.827893
_cell_length_b	16.120444
_cell_length_c	12.827885
_cell_angle_alpha	92.864681
_cell_angle_beta	89.980538
_cell_angle_gamma	92.926466
loop_
_atom_site_label
_atom_site_type_symbol
_atom_site_fract_x
_atom_site_fract_y
_atom_site_fract_z
Zn1	Zn	1.576498	-0.331868	-0.611901
Zn2	Zn	1.909831	0.001466	-0.278567
Zn3	Zn	2.243165	0.334799	0.054766
Zn4	Zn	1.567496	-0.471303	-0.446006
Zn5	Zn	1.900829	-0.137970	-0.112673
Zn6	Zn	2.234162	0.195363	0.220661
Zn7	Zn	1.401736	-0.331908	-0.437177
Zn8	Zn	1.735070	0.001425	-0.103844
Zn9	Zn	2.068403	0.334758	0.229490
Zn10	Zn	1.392833	-0.471241	-0.620702
Zn11	Zn	1.726166	-0.137908	-0.287369
Zn12	Zn	2.059499	0.195425	0.045965
O13	O	1.484641	-0.401580	-0.528946
O14	O	1.817974	-0.068247	-0.195613
O15	O	2.151307	0.265086	0.137720
O16	O	1.721539	-0.350373	-0.589906
O17	O	2.054873	-0.017040	-0.256573
O18	O	2.388206	0.316294	0.076761
O19	O	1.545466	-0.452855	-0.298601
O20	O	1.878799	-0.119522	0.034732
O21	O	2.212133	0.213811	0.368065
O22	O	1.432413	-0.215237	-0.452976
O23	O	1.765746	0.118096	-0.119643
O24	O	2.099079	0.451430	0.213691
O25	O	1.714925	-0.452816	-0.468024
O26	O	2.048259	-0.119483	-0.134691
O27	O	2.381592	0.213851	0.198643
O28	O	1.560809	-0.215207	-0.581345
O29	O	1.894143	0.118126	-0.248011
O30	O	2.227476	0.451459	0.085322
O31	O	1.423683	-0.350442	-0.292115
O32	O	1.757017	-0.017109	0.041219
O33	O	2.090350	0.316224	0.374552
O34	O	1.254320	-0.350382	-0.461510
O35	O	1.587653	-0.017049	-0.128177
O36	O	1.920986	0.316285	0.205156
O37	O	1.417238	-0.452710	-0.765768
O38	O	1.750571	-0.119377	-0.432435
O39	O	2.083904	0.213956	-0.099101
O40	O	1.247778	-0.452750	-0.596346
O41	O	1.581112	-0.119416	-0.263012
O42	O	1.914445	0.213917	0.070321
O43	O	1.552176	-0.350313	-0.759302
O44	O	1.885509	-0.016980	-0.425968
O45	O	2.218843	0.316354	-0.092635
O46	O	1.536832	-0.587961	-0.476558
O47	O	1.870166	-0.254628	-0.143225
O48	O	2.203499	0.078706	0.190108
O49	O	1.408508	-0.587915	-0.604907
O50	O	1.741842	-0.254582	-0.271573
O51	O	2.075175	0.078751	0.061760
C52	C	1.213132	-0.401564	-0.528926
C53	C	1.546465	-0.068231	-0.195592
C54	C	1.879798	0.265103	0.137741
C55	C	1.096978	-0.401577	-0.528943
C56	C	1.430311	-0.068244	-0.195609
C57	C	1.763644	0.265089	0.137724
C58	C	1.470756	-0.618188	-0.542669
C59	C	1.804089	-0.284855	-0.209335
C60	C	2.137422	0.048478	0.123998
C61	C	1.464911	-0.710854	-0.548574
C62	C	1.798244	-0.377521	-0.215241
C63	C	2.131578	-0.044188	0.118093
C64	C	1.041979	-0.452311	-0.595570
C65	C	1.375312	-0.118978	-0.262237
C66	C	1.708645	0.214356	0.071096
C67	C	0.921927	-0.452326	-0.595590
C68	C	1.255261	-0.118993	-0.262256
C69	C	1.588594	0.214341	0.071077
C70	C	1.515215	-0.921799	-0.498537
C71	C	1.848549	-0.588465	-0.165204
C72	C	2.181882	-0.255132	0.168129
C73	C	1.454260	-0.880510	-0.559367
C74	C	1.787593	-0.547177	-0.226033
C75	C	2.120926	-0.213844	0.107300
C76	C	1.460188	-0.786105	-0.553360
C77	C	1.793521	-0.452772	-0.220026
C78	C	2.126855	-0.119438	0.113307
C79	C	1.509288	-1.016213	-0.504543
C80	C	1.842622	-0.682879	-0.171209
C81	C	2.175955	-0.349546	0.162124
C82	C	1.757210	-0.401597	-0.528968
C83	C	2.090543	-0.068264	-0.195635
C84	C	2.423876	0.265070	0.137699
C85	C	1.873362	-0.401604	-0.528977
C86	C	2.206696	-0.068271	-0.195644
C87	C	2.540029	0.265063	0.137689
C88	C	1.484718	-0.401500	-0.801512
C89	C	1.818051	-0.068167	-0.468178
C90	C	2.151384	0.265167	-0.134845
C91	C	1.484751	-0.401466	-0.917663
C92	C	1.818084	-0.068133	-0.584329
C93	C	2.151417	0.265201	-0.250996
C94	C	1.498608	-0.184126	-0.515194
C95	C	1.831942	0.149207	-0.181860
C96	C	2.165275	0.482540	0.151473
C97	C	1.504561	-0.091460	-0.509333
C98	C	1.837894	0.241873	-0.176000
C99	C	2.171227	0.575206	0.157334
C100	C	1.424510	-0.350779	-0.966237
C101	C	1.757843	-0.017446	-0.632904
C102	C	2.091176	0.315888	-0.299570
C103	C	1.424542	-0.350742	-1.086285
C104	C	1.757876	-0.017409	-0.752952
C105	C	2.091209	0.315924	-0.419618
C106	C	1.484628	-0.401600	-0.257438
C107	C	1.817961	-0.068266	0.075896
C108	C	2.151294	0.265067	0.409229
C109	C	1.484812	-0.401399	-0.141272
C110	C	1.818146	-0.068066	0.192061
C111	C	2.151479	0.265268	0.525394
H112	H	1.083770	-0.495732	-0.652602
H113	H	1.417103	-0.162399	-0.319269
H114	H	1.750436	0.170934	0.014064
H115	H	1.536394	-0.444793	-1.099494
H116	H	1.869727	-0.111460	-0.766161
H117	H	2.203060	0.221873	-0.432827
C118	C	0.858050	-0.511007	-0.672655
C119	C	1.191383	-0.177674	-0.339321
C120	C	1.524716	0.155659	-0.005988
N121	N	0.809934	-0.555207	-0.730704
N122	N	1.143268	-0.221873	-0.397370
N123	N	1.476601	0.111460	-0.064037
H124	H	1.372907	-0.307414	-0.918948
H125	H	1.706240	0.025919	-0.585615
H126	H	2.039573	0.359253	-0.252282
H127	H	1.536348	-0.444835	-0.964952
H128	H	1.869681	-0.111502	-0.631618
H129	H	2.203015	0.221832	-0.298285
H130	H	0.920641	-0.358170	-0.471928
H131	H	1.253975	-0.024836	-0.138595
H132	H	1.587308	0.308497	0.194738
C133	C	1.040526	-0.342910	-0.451898
C134	C	1.373859	-0.009577	-0.118564
C135	C	1.707192	0.323756	0.214769
N136	N	0.998007	-0.298721	-0.393864
N137	N	1.331341	0.034612	-0.060531
N138	N	1.664674	0.367945	0.272802
H139	H	1.372973	-0.307344	-1.128070
H140	H	1.706306	0.025990	-0.794737
H141	H	2.039639	0.359323	-0.461403
C142	C	1.591717	-0.873770	-0.422084
C143	C	1.925050	-0.540437	-0.088751
C144	C	2.258384	-0.207104	0.244582
N145	N	1.649333	-0.837586	-0.364496
N146	N	1.982666	-0.504253	-0.031163
N147	N	2.316000	-0.170919	0.302170
C148	C	1.377737	-0.928539	-0.635809
C149	C	1.711070	-0.595206	-0.302476
C150	C	2.044403	-0.261872	0.030857
N151	N	1.320098	-0.964718	-0.693380
N152	N	1.653431	-0.631385	-0.360046
N153	N	1.986765	-0.298051	-0.026713
