data_functionalizedCrystal
_audit_creation_method	'MofGen! by Chris Wilmer'
_symmetry_space_group_name_H-M	'P1'
_symmetry_Int_Tables_number	1
_symmetry_cell_setting	triclinic
loop_
_symmetry_equiv_pos_as_xyz
  x,y,z
_cell_length_a	14.044220
_cell_length_b	14.044220
_cell_length_c	12.503552
_cell_angle_alpha	93.839943
_cell_angle_beta	93.844387
_cell_angle_gamma	86.811123
loop_
_atom_site_label
_atom_site_type_symbol
_atom_site_fract_x
_atom_site_fract_y
_atom_site_fract_z
O1	O	1.282213	-0.225115	0.089324
O2	O	1.615547	0.108219	0.422657
O3	O	1.948880	0.441552	0.755991
O4	O	1.005542	-0.216809	0.089327
O5	O	1.338875	0.116525	0.422660
O6	O	1.672209	0.449858	0.755993
O7	O	1.139724	-0.082627	0.089315
O8	O	1.473057	0.250707	0.422648
O9	O	1.806391	0.584040	0.755981
O10	O	1.148031	-0.359297	0.089336
O11	O	1.481364	-0.025963	0.422669
O12	O	1.814698	0.307370	0.756003
O13	O	1.129621	-0.092726	-0.089327
O14	O	1.462954	0.240607	0.244006
O15	O	1.796288	0.573940	0.577340
O16	O	0.995439	-0.226909	-0.089315
O17	O	1.328772	0.106425	0.244018
O18	O	1.662105	0.439758	0.577352
O19	O	1.272110	-0.235214	-0.089318
O20	O	1.605443	0.098119	0.244016
O21	O	1.938777	0.431452	0.577349
Cu22	Cu	1.132852	-0.231984	-0.105628
Cu23	Cu	1.466185	0.101350	0.227706
Cu24	Cu	1.799519	0.434683	0.561039
Cu25	Cu	1.144800	-0.220039	0.105637
Cu26	Cu	1.478133	0.113294	0.438970
Cu27	Cu	1.811467	0.446627	0.772303
O28	O	1.137928	-0.369397	-0.089306
O29	O	1.471261	-0.036063	0.244028
O30	O	1.804594	0.297270	0.577361
C31	C	0.964868	-0.218223	0.000006
C32	C	1.298202	0.115110	0.333339
C33	C	1.631535	0.448444	0.666673
C34	C	0.858726	-0.207378	0.000007
C35	C	1.192059	0.125955	0.333340
C36	C	1.525392	0.459288	0.666673
C37	C	1.131037	-0.052055	-0.000007
C38	C	1.464370	0.281279	0.333327
C39	C	1.797704	0.614612	0.666660
C40	C	1.120192	0.054088	-0.000008
C41	C	1.453526	0.387421	0.333326
C42	C	1.786859	0.720755	0.666659
C43	C	1.312784	-0.233800	0.000005
C44	C	1.646117	0.099533	0.333339
C45	C	1.979450	0.432867	0.666672
C46	C	1.418927	-0.244644	0.000012
C47	C	1.752260	0.088689	0.333345
C48	C	2.085593	0.422022	0.666679
N49	N	1.124455	-0.240385	-0.254220
N50	N	1.457788	0.092949	0.079114
N51	N	1.791122	0.426282	0.412447
C52	C	1.613264	-0.264470	0.000012
C53	C	1.946598	0.068863	0.333346
C54	C	2.279931	0.402196	0.666679
C55	C	1.664394	-0.187556	0.000006
C56	C	1.997727	0.145777	0.333339
C57	C	2.331061	0.479110	0.666673
C58	C	1.772530	-0.198588	0.000006
C59	C	2.105863	0.134745	0.333340
C60	C	2.439197	0.468079	0.666673
C61	C	1.505118	-0.253440	0.000012
C62	C	1.838452	0.079893	0.333345
C63	C	2.171785	0.413226	0.666679
C64	C	1.146615	-0.399968	0.000018
C65	C	1.479949	-0.066635	0.333351
C66	C	1.813282	0.266698	0.666685
C67	C	1.157460	-0.506111	0.000026
C68	C	1.490794	-0.172777	0.333359
C69	C	1.824127	0.160556	0.666693
C70	C	1.100367	0.248427	0.000008
C71	C	1.433700	0.581760	0.333341
C72	C	1.767034	0.915093	0.666675
C73	C	1.177281	0.299557	0.000010
C74	C	1.510615	0.632890	0.333344
C75	C	1.843948	0.966223	0.666677
C76	C	1.166250	0.407693	0.000019
C77	C	1.499584	0.741027	0.333353
C78	C	1.832917	1.074360	0.666686
C79	C	1.111396	0.140280	-0.000001
C80	C	1.444730	0.473613	0.333333
C81	C	1.778063	0.806947	0.666666
C82	C	1.165551	-0.199270	-0.526656
C83	C	1.498884	0.134063	-0.193323
C84	C	1.832217	0.467397	0.140010
C85	C	1.112111	-0.252743	-0.473328
C86	C	1.445444	0.080590	-0.139994
C87	C	1.778778	0.413923	0.193339
C88	C	1.118981	-0.245865	-0.351405
C89	C	1.452314	0.087468	-0.018071
C90	C	1.785648	0.420801	0.315262
C91	C	1.158682	-0.206147	-0.648590
C92	C	1.492015	0.127186	-0.315257
C93	C	1.825348	0.460520	0.018076
N94	N	1.153204	-0.211632	0.254229
N95	N	1.486537	0.121702	0.587562
N96	N	1.819870	0.455035	0.920895
H97	H	1.650702	-0.338598	0.000019
H98	H	1.984035	-0.005264	0.333352
H99	H	2.317368	0.328069	0.666686
H100	H	1.061201	-0.303690	-0.519239
H101	H	1.394535	0.029643	-0.185906
H102	H	1.727868	0.362977	0.147428
O103	O	1.232966	-0.131768	-0.465856
O104	O	1.566299	0.201566	-0.132523
O105	O	1.899633	0.534899	0.200810
H106	H	1.227842	-0.136886	-0.378248
H107	H	1.561176	0.196447	-0.044914
H108	H	1.894509	0.529781	0.288419
O109	O	1.002170	0.298006	-0.000008
O110	O	1.335503	0.631339	0.333325
O111	O	1.668836	0.964672	0.666659
H112	H	1.008807	0.376390	-0.000017
H113	H	1.342140	0.709723	0.333317
H114	H	1.675473	1.043057	0.666650
H115	H	1.626959	-0.113419	0.000078
H116	H	1.960292	0.219914	0.333412
H117	H	2.293626	0.553248	0.666745
O118	O	1.275483	0.249975	-0.000010
O119	O	1.608817	0.583309	0.333324
O120	O	1.942150	0.916642	0.666657
H121	H	1.268852	0.171589	-0.000028
H122	H	1.602185	0.504922	0.333305
H123	H	1.935519	0.838255	0.666639
