data_functionalizedCrystal
_audit_creation_method	'MofGen! by Chris Wilmer'
_symmetry_space_group_name_H-M	'P1'
_symmetry_Int_Tables_number	1
_symmetry_cell_setting	triclinic
loop_
_symmetry_equiv_pos_as_xyz
  x,y,z
_cell_length_a	6.817900
_cell_length_b	16.306099
_cell_length_c	16.305550
_cell_angle_alpha	95.377095
_cell_angle_beta	103.455250
_cell_angle_gamma	103.465342
loop_
_atom_site_label
_atom_site_type_symbol
_atom_site_fract_x
_atom_site_fract_y
_atom_site_fract_z
V1	V	-4.026242	-0.117433	-0.263339
O2	O	-4.013841	0.004911	-0.258011
O3	O	-3.977690	-0.232145	-0.261841
O4	O	-3.977649	-0.115948	-0.378053
O5	O	-4.013883	-0.112091	-0.140996
V6	V	-4.509915	-0.102761	-0.248669
O7	O	-4.287172	-0.149616	-0.295519
O8	O	-4.699183	-0.070578	-0.216489
O9	O	-4.335261	0.011951	-0.250167
O10	O	-4.639713	-0.225104	-0.253997
O11	O	-4.639671	-0.108103	-0.371013
O12	O	-4.335303	-0.104246	-0.133956
C13	C	-3.822660	-0.260099	-0.257765
C14	C	-3.864249	-0.353879	-0.257305
C15	C	-3.940317	-0.525576	-0.256434
C16	C	-4.176204	-0.566502	-0.261357
C17	C	-4.219361	-0.663995	-0.260545
C18	C	-4.015214	-0.694623	-0.255578
C19	C	-3.847661	-0.643781	-0.172400
C20	C	-3.805831	-0.546231	-0.172859
C21	C	-3.886227	-0.571637	-0.334028
C22	C	-3.934127	-0.669482	-0.334692
C23	C	-4.057530	-0.790160	-0.255091
C24	C	-3.897992	-0.430037	-0.256915
C25	C	-3.822606	-0.111877	-0.406003
C26	C	-3.864158	-0.111422	-0.499784
C27	C	-4.015245	-0.109659	-0.840524
C28	C	-3.779197	-0.104424	-0.799582
C29	C	-3.736003	-0.105247	-0.702089
C30	C	-3.940287	-0.110533	-0.671479
C31	C	-4.107318	-0.193849	-0.722324
C32	C	-4.149182	-0.193378	-0.819872
C33	C	-4.070002	-0.032243	-0.794478
C34	C	-4.022073	-0.031584	-0.696634
C35	C	-3.897938	-0.111030	-0.575942
C36	C	-4.057604	-0.109168	-0.936062
C37	C	-4.153633	0.039901	-0.254241
C38	C	-4.091283	0.133680	-0.254707
C39	C	-4.153687	-0.108319	-0.106001
C40	C	-4.091374	-0.108770	-0.012220
H41	H	-3.978047	-0.558432	-0.397064
O42	O	-4.306670	-0.685370	-0.185842
H43	H	-4.464311	-0.730548	-0.209615
O44	O	-3.638595	-0.024700	-0.815750
H45	H	-3.473007	-0.022461	-0.786262
H46	H	-4.169361	-0.030547	-0.675283
O47	O	-4.094941	-0.715241	-0.416194
H48	H	-4.232055	-0.755726	-0.400431
H49	H	-4.282728	-0.554292	-0.321427
O50	O	-4.235316	-0.524566	-0.187503
H51	H	-4.097419	-0.474703	-0.147303
O52	O	-3.948959	0.051378	-0.811975
H53	H	-3.990324	0.104948	-0.778822
H54	H	-3.786993	-0.690855	-0.335969
H55	H	-3.609508	-0.045343	-0.666909
O56	O	-3.658486	-0.536115	-0.330254
H57	H	-3.584103	-0.485903	-0.273424
O58	O	-4.379437	-0.203053	-0.856991
H59	H	-4.470752	-0.264277	-0.844600
H60	H	-3.734105	-0.160044	-0.831240
H61	H	-3.841473	-0.515686	-0.114128
H62	H	-3.669576	-0.161508	-0.685944
O63	O	-3.861742	0.050053	-0.650895
H64	H	-3.724376	0.034474	-0.610407
O65	O	-4.310208	-0.202982	-0.697307
H66	H	-4.282157	-0.206219	-0.627994
H67	H	-4.113035	-0.251984	-0.850407
H68	H	-4.051883	-0.252471	-0.705665
O69	O	-4.297913	-0.036334	-0.830015
H70	H	-4.335354	0.018521	-0.797184
O71	O	-4.387420	-0.710603	-0.339742
H72	H	-4.438538	-0.663550	-0.378967
H73	H	-3.694585	-0.662687	-0.165753
O74	O	-3.575692	-0.509132	-0.163480
H75	H	-3.494737	-0.560879	-0.158631
H76	H	-3.902580	-0.660432	-0.113662
