data_functionalizedCrystal
_audit_creation_method	'MofGen! by Chris Wilmer'
_symmetry_space_group_name_H-M	'P1'
_symmetry_Int_Tables_number	1
_symmetry_cell_setting	triclinic
loop_
_symmetry_equiv_pos_as_xyz
  x,y,z
_cell_length_a	11.026607
_cell_length_b	11.026607
_cell_length_c	9.482900
_cell_angle_alpha	78.599815
_cell_angle_beta	101.363848
_cell_angle_gamma	108.586017
loop_
_atom_site_label
_atom_site_type_symbol
_atom_site_fract_x
_atom_site_fract_y
_atom_site_fract_z
O1	O	1.742236	0.518010	0.120892
O2	O	1.375656	0.457246	0.120894
O3	O	1.528564	0.304339	0.120888
O4	O	1.589328	0.670917	0.120898
O5	O	1.497539	0.335557	-0.120903
O6	O	1.344632	0.488465	-0.120897
O7	O	1.711212	0.549228	-0.120899
Cu8	Cu	1.525089	0.521697	-0.142976
Cu9	Cu	1.561779	0.484778	0.142971
O10	O	1.558304	0.702136	-0.120893
C11	C	1.312485	0.461645	-0.000001
C12	C	1.170471	0.428228	-0.000000
C13	C	1.116822	0.520498	0.000003
C14	C	0.970043	0.485962	0.000004
C15	C	1.501842	0.272288	-0.000006
C16	C	1.468426	0.130273	-0.000000
C17	C	1.560695	0.076624	0.000001
C18	C	1.526161	-0.070155	0.000007
C19	C	1.774384	0.544829	-0.000001
C20	C	1.916399	0.578244	0.000008
C21	C	1.585026	0.734186	0.000004
C22	C	1.618444	0.876199	0.000008
N23	N	1.499293	0.547665	-0.344095
C24	C	1.554160	0.492428	-0.416296
C25	C	1.532708	0.514046	-0.583713
N26	N	1.587583	0.458801	0.344090
H27	H	0.979125	0.682816	0.000001
H28	H	1.723028	-0.061087	0.000117
H29	H	1.179554	0.625061	-0.000002
H30	H	0.907319	0.381388	0.000039
H31	H	1.617009	0.429128	-0.354171
H32	H	1.107742	0.323661	0.000034
C33	C	1.322676	0.547245	-0.630912
C34	C	1.447845	0.599494	-0.667566
H35	H	1.270287	0.599992	-0.682690
H36	H	1.325969	0.543940	-0.529419
H37	H	1.286879	0.462374	-0.655794
H38	H	1.483646	0.684362	-0.642675
H39	H	1.444557	0.602814	-0.769082
C40	C	1.708744	0.290316	-0.000015
C41	C	1.701856	0.161300	-0.000007
H42	H	1.795892	0.342588	-0.000030
H43	H	1.678340	0.297052	0.084299
H44	H	1.656684	0.318810	-0.084337
H45	H	1.753908	0.132803	0.084321
H46	H	1.732276	0.154558	-0.084331
C47	C	1.378104	-0.283842	0.000012
C48	C	1.384993	-0.154827	0.000009
H49	H	1.290953	-0.336111	0.000004
H50	H	1.430148	-0.312340	0.084326
H51	H	1.408521	-0.290571	-0.084311
H52	H	1.354584	-0.148096	0.084337
H53	H	1.332930	-0.126320	-0.084314
C54	C	1.676778	0.367980	-0.422444
C55	C	1.672101	0.373010	-0.572063
H56	H	1.728860	0.314921	-0.370684
H57	H	1.591789	0.332832	-0.397778
H58	H	1.712877	0.452777	-0.397400
H59	H	1.635993	0.288213	-0.597109
H60	H	1.757106	0.408152	-0.596739
C61	C	1.289265	0.580860	-0.391300
C62	C	1.414434	0.633109	-0.427954
H63	H	1.236875	0.633607	-0.443077
H64	H	1.292558	0.577555	-0.289807
H65	H	1.253468	0.495988	-0.416181
H66	H	1.450235	0.717977	-0.403062
H67	H	1.411146	0.636428	-0.529470
C68	C	1.282462	0.055553	0.124306
C69	C	1.327266	0.045596	0.000009
H70	H	1.195316	0.003271	0.124314
H71	H	1.287147	0.143073	0.124288
H72	H	1.334527	0.027044	0.208614
H73	H	1.275207	0.074114	-0.084299
H74	H	1.322571	-0.041943	0.000013
