data_functionalizedCrystal
_audit_creation_method	'MofGen! by Chris Wilmer'
_symmetry_space_group_name_H-M	'P1'
_symmetry_Int_Tables_number	1
_symmetry_cell_setting	triclinic
loop_
_symmetry_equiv_pos_as_xyz
  x,y,z
_cell_length_a	12.759401
_cell_length_b	12.827892
_cell_length_c	12.759393
_cell_angle_alpha	90.029972
_cell_angle_beta	90.019802
_cell_angle_gamma	90.014477
loop_
_atom_site_label
_atom_site_type_symbol
_atom_site_fract_x
_atom_site_fract_y
_atom_site_fract_z
Zn1	Zn	1.606261	-0.416008	0.593992
Zn2	Zn	1.606150	-0.590785	0.418314
Zn3	Zn	1.430560	-0.416056	0.418331
Zn4	Zn	1.430550	-0.590705	0.593954
O5	O	1.518380	-0.503389	0.506148
O6	O	1.753268	-0.439206	0.570697
O7	O	1.582816	-0.567661	0.271295
O8	O	1.453918	-0.269814	0.441655
O9	O	1.753186	-0.567614	0.441627
O10	O	1.583005	-0.269778	0.570713
O11	O	1.453810	-0.439288	0.271307
O12	O	1.283538	-0.439210	0.441619
O13	O	1.453900	-0.567477	0.740981
O14	O	1.283530	-0.567524	0.570649
O15	O	1.582995	-0.439128	0.741008
O16	O	1.582806	-0.737011	0.441590
O17	O	1.453793	-0.736952	0.570633
C18	C	1.245413	-0.503364	0.506132
C19	C	1.128636	-0.503379	0.506151
C20	C	0.964080	-0.436662	0.573468
C21	C	1.073804	-0.436641	0.573461
C22	C	1.073739	-0.570149	0.438850
C23	C	0.964016	-0.570174	0.438863
C24	C	1.223813	-0.399417	0.697414
C25	C	1.278707	-0.332638	0.764702
C26	C	1.243106	-0.230699	0.781013
C27	C	1.152613	-0.195517	0.730020
C28	C	1.097725	-0.262291	0.662724
C29	C	1.133324	-0.364245	0.646433
C30	C	0.814006	-0.607388	0.314910
C31	C	0.759116	-0.674156	0.247607
C32	C	0.794714	-0.776098	0.231286
C33	C	0.885211	-0.811275	0.282260
C34	C	0.940101	-0.744506	0.349562
C35	C	0.904495	-0.642566	0.365886
C36	C	1.518315	-0.774899	0.506128
C37	C	1.518383	-0.891052	0.506155
C38	C	1.582231	-0.942735	0.570074
C39	C	1.582302	-1.062786	0.570103
C40	C	1.792414	-0.503414	0.506164
C41	C	1.909190	-0.503425	0.506171
C42	C	1.518459	-0.503288	0.780181
C43	C	1.518492	-0.503246	0.896958
C44	C	1.518475	-0.230818	0.506190
C45	C	1.518515	-0.114665	0.506208
C46	C	1.518362	-0.503413	0.233180
C47	C	1.518533	-0.503161	0.116404
C48	C	1.585717	-0.436403	0.951836
C49	C	1.585735	-0.436358	1.061560
C50	C	1.451301	-0.570006	1.061519
C51	C	1.451278	-0.570045	0.951796
C52	C	1.623348	-0.313065	1.211536
C53	C	1.690589	-0.246232	1.266418
C54	C	1.793102	-0.230212	1.230825
C55	C	1.828395	-0.281040	1.140351
C56	C	1.761160	-0.347881	1.085475
C57	C	1.658632	-0.363881	1.121067
C58	C	1.413676	-0.693340	0.801818
C59	C	1.346445	-0.760187	0.746940
C60	C	1.243930	-0.776218	0.782532
C61	C	1.208641	-0.725408	0.873009
C62	C	1.275872	-0.658561	0.927887
C63	C	1.378385	-0.642529	0.892288
H64	H	1.023952	-0.233701	0.621339
N65	N	1.302308	-0.158671	0.853588
H66	H	1.365034	-0.196424	0.883414
H67	H	1.254750	-0.135958	0.912589
N68	N	1.654578	-0.883640	0.642537
H69	H	1.638250	-0.902540	0.717611
H70	H	1.644244	-0.806276	0.632159
N71	N	1.658212	-0.364358	0.892692
H72	H	1.706877	-0.406855	0.847178
H73	H	1.700729	-0.322028	0.944183
N74	N	0.661512	-0.636217	0.192618
H75	H	0.647281	-0.561507	0.213174
H76	H	0.600046	-0.681216	0.213597
H77	H	1.789896	-0.389268	1.011816
N78	N	1.446050	-0.950157	0.433685
H79	H	1.403433	-0.899172	0.391023
H80	H	1.397474	-0.995452	0.476459
N81	N	1.938970	-0.263770	1.101966
H82	H	1.976207	-0.213712	1.150456
H83	H	1.937001	-0.233639	1.028879
N84	N	1.237825	-0.603744	1.025471
H85	H	1.216309	-0.657177	1.079451
H86	H	1.175730	-0.558354	1.007424
H87	H	1.847850	-0.175795	1.275517
N88	N	0.923616	-0.921226	0.264656
H89	H	0.989276	-0.933376	0.307156
H90	H	0.939533	-0.931625	0.187827
H91	H	1.013789	-0.773156	0.391067
N92	N	1.171423	-0.848316	0.723331
H93	H	1.107873	-0.808174	0.698891
H94	H	1.148557	-0.906985	0.770875
H95	H	0.750016	-0.830458	0.176475
H96	H	1.123641	-0.112503	0.743296
N97	N	1.652529	-0.191411	1.363996
H98	H	1.577377	-0.211689	1.378213
H99	H	1.657133	-0.113508	1.353539
H100	H	1.375190	-0.801568	0.673276
N101	N	1.524246	-0.676039	0.763423
H102	H	1.562985	-0.744682	0.762286
H103	H	1.561388	-0.625942	0.811941
N104	N	0.904944	-0.364669	0.646058
H105	H	0.956370	-0.322373	0.688690
H106	H	0.859437	-0.407271	0.694612
N107	N	1.512771	-0.330315	1.249924
H108	H	1.514644	-0.360488	1.322998
H109	H	1.475580	-0.380333	1.201362
H110	H	1.396580	-0.624395	1.106181
H111	H	1.125166	-0.738465	0.901991
H112	H	1.463853	-1.070226	0.451478
N113	N	1.654721	-1.121649	0.642590
H114	H	1.644509	-1.199065	0.632334
H115	H	1.638336	-1.102584	0.717623
H116	H	1.352387	-0.361292	0.806220
H117	H	1.252802	-0.482427	0.684148
H118	H	1.118391	-0.624492	0.384048
H119	H	0.785010	-0.524379	0.328197
