data_functionalizedCrystal
_audit_creation_method	'MofGen! by Chris Wilmer'
_symmetry_space_group_name_H-M	'P1'
_symmetry_Int_Tables_number	1
_symmetry_cell_setting	triclinic
loop_
_symmetry_equiv_pos_as_xyz
  x,y,z
_cell_length_a	27.440280
_cell_length_b	27.440280
_cell_length_c	17.917603
_cell_angle_alpha	63.034592
_cell_angle_beta	90.006544
_cell_angle_gamma	60.004534
loop_
_atom_site_label
_atom_site_type_symbol
_atom_site_fract_x
_atom_site_fract_y
_atom_site_fract_z
Zr1	Zr	0.472354	0.527762	-0.093769
O2	O	0.397938	0.622644	-0.207991
O3	O	0.495157	0.428178	-0.058756
O4	O	0.499599	0.520972	-0.207974
O5	O	0.390002	0.536846	0.058935
O6	O	0.579802	0.520963	-0.207960
O7	O	0.393496	0.529851	-0.058773
O8	O	0.571855	0.354973	0.058965
O9	O	0.397948	0.702837	-0.207990
O10	O	0.564747	0.470873	-0.043810
O11	O	0.502286	0.476100	0.044023
O12	O	0.507516	0.585352	-0.131663
O13	O	0.445054	0.590580	-0.043830
Zr14	Zr	0.594695	0.538905	0.093984
Zr15	Zr	0.600267	0.527748	-0.093746
Zr16	Zr	0.466781	0.538919	0.093961
Zr17	Zr	0.472370	0.655660	-0.093767
Zr18	Zr	0.594678	0.411008	0.093982
O19	O	0.571891	0.638489	0.058970
O20	O	0.579815	0.622625	-0.207958
O21	O	0.390015	0.638508	0.058937
O22	O	0.669110	0.444023	0.208206
O23	O	0.677033	0.428159	-0.058722
O24	O	0.487234	0.444042	0.208172
O25	O	0.677046	0.529821	-0.058720
O26	O	0.567449	0.545696	0.208189
O27	O	0.487247	0.545704	0.208174
O28	O	0.673552	0.536816	0.058987
O29	O	0.499623	0.702826	-0.207971
O30	O	0.567426	0.363841	0.208186
O31	O	0.669100	0.363831	0.208204
O32	O	0.673529	0.354962	0.058984
O33	O	0.393519	0.711705	-0.058769
O34	O	0.495193	0.711694	-0.058751
O35	O	0.559532	0.481315	0.131878
O36	O	0.621994	0.476088	0.044045
O37	O	0.564763	0.590567	-0.043808
O38	O	0.502301	0.595794	0.044025
C39	C	0.533504	0.373353	0.000105
C40	C	0.533497	0.319057	0.000104
C41	C	0.566145	-0.020413	-0.045733
C42	C	0.566150	-0.071437	-0.045730
O43	O	0.593896	-0.100162	-0.084696
N44	N	0.533545	-0.094224	0.000116
C45	C	0.500938	-0.065990	0.045970
O46	O	0.473206	-0.090058	0.084966
C47	C	0.500936	-0.014970	0.045972
C48	C	0.533538	0.007819	0.000115
C49	C	0.598745	0.002376	-0.091585
C50	C	0.598738	0.053397	-0.091588
C51	C	0.566132	0.081629	-0.045740
C52	C	0.533532	0.058840	0.000112
C53	C	0.468332	0.013260	0.091830
C54	C	0.468334	0.064282	0.091829
C55	C	0.500936	0.087072	0.045973
C56	C	0.500919	0.138093	0.045957
N57	N	0.533524	0.160881	0.000111
C58	C	0.566130	0.132649	-0.045738
C59	C	0.500945	-0.173136	0.045963
C60	C	0.500943	-0.224151	0.045956
C61	C	0.566156	-0.229595	-0.045743
C62	C	0.566154	-0.178575	-0.045741
C63	C	0.533549	-0.150348	0.000117
C64	C	0.566114	0.239797	-0.045742
C65	C	0.566103	0.290825	-0.045745
C66	C	0.500892	0.296262	0.045958
C67	C	0.500901	0.245241	0.045957
C68	C	0.533516	0.217008	0.000105
O69	O	0.473189	0.166847	0.084905
O70	O	0.593864	0.156718	-0.084718
C71	C	0.373524	0.533351	0.000078
C72	C	0.319221	0.533356	0.000068
C73	C	0.012396	0.473567	0.045990
C74	C	-0.038623	0.473563	0.045997
O75	O	-0.039605	0.422744	0.085025
N76	N	-0.094014	0.533320	0.000138
C77	C	-0.098385	0.593083	-0.045724
O78	O	-0.150184	0.643910	-0.084730
C79	C	-0.047367	0.593086	-0.045726
C80	C	0.008023	0.533326	0.000129
C81	C	0.067784	0.413811	0.091842
C82	C	0.118799	0.413815	0.091832
C83	C	0.114426	0.473574	0.045971
C84	C	0.059038	0.533329	0.000119
C85	C	-0.051740	0.652850	-0.091583
C86	C	-0.000716	0.652848	-0.091581
C87	C	0.054675	0.593087	-0.045726
C88	C	0.105680	0.593092	-0.045751
N89	N	0.161071	0.533336	0.000108
C90	C	0.165444	0.473577	0.045969
C91	C	-0.205524	0.593073	-0.045715
C92	C	-0.256541	0.593070	-0.045719
C93	C	-0.196775	0.473550	0.046005
C94	C	-0.145758	0.473553	0.046003
C95	C	-0.150133	0.533317	0.000144
C96	C	0.272577	0.473589	0.045945
C97	C	0.323594	0.473597	0.045929
C98	C	0.263824	0.593117	-0.045790
C99	C	0.212811	0.593109	-0.045778
C100	C	0.217192	0.533339	0.000096
O101	O	0.106707	0.643886	-0.084756
O102	O	0.217244	0.422759	0.084977
C103	C	0.693524	0.533317	0.000137
C104	C	0.747827	0.533311	0.000147
C105	C	0.540494	0.519378	-0.234714
C106	C	0.542860	0.514641	-0.314411
C107	C	0.533545	0.693314	0.000110
C108	C	0.533552	0.747610	0.000111
C109	C	0.547193	0.505989	-0.460342
C110	C	0.519856	0.560675	-0.539446
C111	C	0.522267	0.555861	-0.620647
C112	C	0.544783	0.510802	-0.379132
C113	C	0.526554	0.547290	0.234929
C114	C	0.524188	0.552026	0.314625
C115	C	0.693504	0.373336	0.000134
C116	C	0.747799	0.319034	0.000143
C117	C	0.526533	0.387309	0.234926
C118	C	0.524161	0.337749	0.314622
C119	C	0.686534	0.387292	0.234956
C120	C	0.738464	0.337727	0.314661
C121	C	0.380515	0.679375	-0.234741
C122	C	0.328585	0.728940	-0.314446
C123	C	0.373544	0.693331	0.000081
C124	C	0.319249	0.747633	0.000072
C125	C	0.540515	0.679358	-0.234712
C126	C	0.542887	0.728918	-0.314407
C127	C	0.743415	0.290811	-0.045720
C128	C	0.794428	0.239795	-0.045729
C129	C	0.849823	0.216999	0.000131
C130	C	0.854206	0.245228	0.045995
C131	C	0.803195	0.296246	0.045998
C132	C	0.552928	0.317198	0.397915
C133	C	0.550697	0.270639	0.472804
C134	C	0.519700	0.244629	0.464399
C135	C	0.490929	0.265185	0.381097
C136	C	0.493158	0.311746	0.306209
C137	C	0.795460	0.311722	0.306244
C138	C	0.844259	0.265157	0.381128
C139	C	0.836060	0.244594	0.464429
C140	C	0.779058	0.270604	0.472845
C141	C	0.730260	0.317171	0.397961
C142	C	0.271588	0.754952	-0.306029
C143	C	0.222789	0.801532	-0.380914
C144	C	0.230988	0.822098	-0.464215
C145	C	0.287991	0.796085	-0.472630
C146	C	0.336788	0.749508	-0.397747
C147	C	0.323633	0.775861	0.045927
C148	C	0.272622	0.826890	0.045915
C149	C	0.217226	0.849687	0.000053
C150	C	0.212843	0.821457	-0.045808
C151	C	0.263854	0.770432	-0.045801
C152	C	0.573889	0.754913	-0.305974
C153	C	0.576130	0.801473	-0.380849
C154	C	0.547365	0.822040	-0.464156
C155	C	0.516363	0.796040	-0.472588
C156	C	0.514126	0.749477	-0.397714
H157	H	0.625288	0.071948	-0.128925
C158	C	0.582353	0.248030	0.564428
C159	C	0.631125	0.174676	0.628532
C160	C	0.662782	0.152068	0.720152
C161	C	0.645667	0.202813	0.747669
C162	C	0.596892	0.276171	0.683563
C163	C	0.565235	0.298780	0.591943
H164	H	0.643797	0.137107	0.608164
H165	H	0.698888	0.097763	0.767607
H166	H	0.669101	0.186077	0.815492
H167	H	0.584221	0.313740	0.703932
H168	H	0.529129	0.353085	0.544488
H169	H	0.572406	0.455560	-0.453604
C170	C	0.151904	0.846533	-0.096242
C171	C	0.110447	0.919278	-0.170624
C172	C	0.049506	0.944352	-0.221050
C173	C	0.030022	0.896681	-0.197094
C174	C	0.071479	0.823931	-0.122709
C175	C	0.132420	0.798857	-0.072283
H176	H	0.124870	0.954571	-0.188361
H177	H	0.018817	0.998206	-0.276115
H178	H	-0.015091	0.915242	-0.234423
H179	H	0.057056	0.788638	-0.104972
H180	H	0.163110	0.745003	-0.017218
C181	C	0.277452	0.857931	0.096374
C182	C	0.252457	0.932165	0.047223
C183	C	0.257290	0.963202	0.097682
C184	C	0.287118	0.920006	0.197293
C185	C	0.312115	0.845767	0.246449
C186	C	0.307282	0.814730	0.195990
H187	H	0.230375	0.964145	-0.026520
H188	H	0.238785	1.018159	0.061293
H189	H	0.290695	0.942982	0.234646
H190	H	0.334197	0.813787	0.320192
H191	H	0.325787	0.759773	0.232379
C192	C	0.259021	0.658850	-0.096234
C193	C	0.198098	0.724587	-0.146674
C194	C	0.193296	0.790321	-0.197112
C195	C	0.249417	0.790318	-0.197110
C196	C	0.310345	0.724578	-0.146667
C197	C	0.315146	0.658844	-0.096229
H198	H	0.156550	0.724592	-0.146678
H199	H	0.148194	0.838986	-0.234453
H200	H	0.245863	0.838978	-0.234447
H201	H	0.351893	0.724573	-0.146664
H202	H	0.360249	0.610180	-0.058888
H203	H	0.494640	0.611109	-0.546185
C204	C	0.770048	0.247972	0.564482
C205	C	0.736454	0.298692	0.592045
C206	C	0.727447	0.276053	0.683686
C207	C	0.752035	0.202694	0.747763
C208	C	0.785632	0.151969	0.720201
C209	C	0.794638	0.174608	0.628561
H210	H	0.718250	0.353001	0.544610
H211	H	0.702577	0.313604	0.704088
H212	H	0.745368	0.185935	0.815601
H213	H	0.803836	0.097660	0.767636
H214	H	0.819509	0.137058	0.608158
H215	H	0.899316	0.226660	0.083332
H216	H	0.683852	0.338339	0.404827
C217	C	0.905933	0.160874	0.000128
C218	C	0.952269	0.172713	-0.036425
C219	C	1.008376	0.116586	-0.036429
C220	C	1.018146	0.048620	0.000120
C221	C	0.971808	0.036778	0.036676
C222	C	0.915702	0.092905	0.036680
H223	H	0.945038	0.223029	-0.063483
H224	H	1.042678	0.125353	-0.063490
H225	H	1.059680	0.007071	0.000118
H226	H	0.979040	-0.013538	0.063734
H227	H	0.881400	0.084138	0.063741
H228	H	0.264901	0.738210	-0.238208
C229	C	0.484720	0.818668	-0.564230
C230	C	0.417673	0.852122	-0.591788
C231	C	0.386028	0.874755	-0.683430
C232	C	0.421429	0.863933	-0.747515
C233	C	0.488480	0.830478	-0.719959
C234	C	0.520126	0.807845	-0.628316
H235	H	0.391463	0.860135	-0.544347
H236	H	0.336392	0.899521	-0.703829
H237	H	0.398004	0.880687	-0.815355
H238	H	0.514690	0.822466	-0.767399
H239	H	0.569761	0.783079	-0.607917
C240	C	0.517256	0.193408	0.546781
C241	C	0.548906	0.170803	0.638399
C242	C	0.546465	0.119580	0.720785
C243	C	0.512374	0.090962	0.711553
C244	C	0.480722	0.113567	0.619931
C245	C	0.483162	0.164790	0.537545
H246	H	0.574144	0.191987	0.645237
H247	H	0.569897	0.102847	0.788610
H248	H	0.510568	0.053044	0.772540
H249	H	0.455483	0.092382	0.613093
H250	H	0.459731	0.181523	0.469721
C251	C	0.549826	0.873264	-0.546514
C252	C	0.576707	0.855297	-0.612918
C253	C	0.579168	0.906522	-0.695271
C254	C	0.554748	0.975715	-0.711220
C255	C	0.527865	0.993685	-0.644814
C256	C	0.525403	0.942460	-0.562461
H257	H	0.594786	0.804073	-0.601114
H258	H	0.599069	0.893219	-0.744429
H259	H	0.556570	1.013635	-0.772183
H260	H	0.509786	1.044908	-0.656619
H261	H	0.505502	0.955763	-0.513303
C262	C	0.682485	0.315882	-0.096176
C263	C	0.677675	0.284834	-0.146629
C264	C	0.616746	0.309904	-0.197093
C265	C	0.560628	0.366023	-0.197104
C266	C	0.565435	0.397074	-0.146649
C267	C	0.626364	0.372004	-0.096185
H268	H	0.719219	0.243288	-0.146622
H269	H	0.613188	0.286917	-0.234443
H270	H	0.515525	0.384581	-0.234461
H271	H	0.523891	0.438620	-0.146656
H272	H	0.629922	0.394991	-0.058835
C273	C	0.461518	0.334342	0.214588
C274	C	0.463965	0.385554	0.132203
C275	C	0.432323	0.408147	0.040583
C276	C	0.398234	0.379527	0.031348
C277	C	0.395786	0.328312	0.113736
C278	C	0.427428	0.305720	0.205356
H279	H	0.489200	0.406743	0.139036
H280	H	0.434135	0.446060	-0.020406
H281	H	0.374811	0.396252	-0.036475
H282	H	0.370551	0.307124	0.106902
H283	H	0.425615	0.267807	0.266344
H284	H	0.260276	0.747450	-0.083139
C285	C	0.456837	0.236566	0.371863
C286	C	0.489183	0.161711	0.410758
C287	C	0.455095	0.133087	0.401528
C288	C	0.388661	0.179319	0.353403
C289	C	0.356311	0.254179	0.314505
C290	C	0.390399	0.282803	0.323735
H291	H	0.538365	0.127483	0.446386
H292	H	0.479042	0.077670	0.430323
H293	H	0.363426	0.158130	0.346571
H294	H	0.307129	0.288407	0.278877
H295	H	0.366452	0.338220	0.294939
H296	H	0.368734	0.757304	0.083279
C297	C	0.277399	0.407843	0.096398
C298	C	0.310896	0.354880	0.072443
C299	C	0.315718	0.289135	0.122887
C300	C	0.287043	0.276353	0.197288
C301	C	0.253544	0.329317	0.221247
C302	C	0.248722	0.395062	0.170802
H303	H	0.332125	0.364341	0.017364
H304	H	0.340516	0.249927	0.105151
H305	H	0.290612	0.227684	0.234630
H306	H	0.232315	0.319856	0.276326
H307	H	0.223924	0.434270	0.188539
C308	C	0.804489	0.334337	0.214619
C309	C	0.867191	0.305729	0.205378
C310	C	0.876225	0.328344	0.113756
C311	C	0.822559	0.379566	0.031374
C312	C	0.759854	0.408177	0.040611
C313	C	0.750819	0.385563	0.132234
H314	H	0.906921	0.267808	0.266365
H315	H	0.922645	0.307164	0.106918
H316	H	0.829247	0.396307	-0.036450
H317	H	0.720123	0.446098	-0.020375
H318	H	0.704400	0.406743	0.139072
C319	C	0.906957	0.236549	0.371856
C320	C	0.927131	0.198614	0.323734
C321	C	0.989827	0.170008	0.314458
C322	C	1.032347	0.179337	0.353305
C323	C	1.012173	0.217273	0.401431
C324	C	0.949478	0.245879	0.410706
H325	H	0.895655	0.191707	0.294974
H326	H	1.004760	0.141925	0.278832
H327	H	1.078757	0.158161	0.346439
H328	H	1.043650	0.224181	0.430191
H329	H	0.934544	0.273963	0.446332
C330	C	0.399484	0.720895	-0.407014
C331	C	0.408495	0.743519	-0.498647
C332	C	0.471191	0.714910	-0.507923
C333	C	0.524874	0.663676	-0.425565
C334	C	0.515865	0.641049	-0.333926
C335	C	0.453170	0.669658	-0.324651
H336	H	0.368754	0.781448	-0.559619
H337	H	0.477860	0.731660	-0.575761
H338	H	0.571285	0.642497	-0.432432
H339	H	0.555606	0.603120	-0.272954
H340	H	0.446500	0.652908	-0.256813
H341	H	0.875799	0.206675	0.525397
C342	C	0.160091	0.830135	-0.371642
C343	C	0.117582	0.904983	-0.410486
C344	C	0.054886	0.933582	-0.401212
C345	C	0.034701	0.887333	-0.353094
C346	C	0.077211	0.812480	-0.314246
C347	C	0.139906	0.783881	-0.323521
H348	H	0.132524	0.939223	-0.446109
H349	H	0.023418	0.988994	-0.429970
H350	H	-0.011710	0.908504	-0.346228
H351	H	0.062269	0.778240	-0.278624
H352	H	0.171375	0.728470	-0.294763
H353	H	0.474388	-0.150151	0.083300
C354	C	-0.112665	0.718586	-0.142011
C355	C	-0.157777	0.738680	-0.092829
C356	C	-0.218704	0.804419	-0.143255
C357	C	-0.234520	0.850063	-0.242862
C358	C	-0.189408	0.829969	-0.292049
C359	C	-0.128480	0.764231	-0.241624
H360	H	-0.146070	0.704891	-0.019089
H361	H	-0.252100	0.819293	-0.106842
H362	H	-0.279623	0.898727	-0.280190
H363	H	-0.201114	0.863759	-0.365790
H364	H	-0.095084	0.749356	-0.278036
H365	H	0.175694	0.891235	0.000054
H366	H	0.790847	0.216817	-0.083077
H367	H	0.597313	0.738175	-0.238147
C368	C	0.602020	-0.153513	-0.096177
C369	C	0.588667	-0.124361	-0.195784
C370	C	0.624536	-0.099302	-0.246221
C371	C	0.673758	-0.103395	-0.197051
C372	C	0.687113	-0.132548	-0.097439
C373	C	0.651245	-0.157607	-0.047002
H374	H	0.552228	-0.121330	-0.232187
H375	H	0.614649	-0.077721	-0.319961
H376	H	0.700310	-0.084845	-0.234388
H377	H	0.723553	-0.135579	-0.061036
H378	H	0.661132	-0.179188	0.026738
H379	H	0.806772	0.319219	0.083351
C380	C	0.587024	0.345806	0.407176
C381	C	0.618659	0.323197	0.498807
C382	C	0.652753	0.351805	0.508077
C383	C	0.655212	0.403022	0.425716
C384	C	0.623576	0.425634	0.334079
C385	C	0.589482	0.397026	0.324809
H386	H	0.616840	0.285280	0.559781
H387	H	0.676172	0.335065	0.575913
H388	H	0.680450	0.424199	0.432578
H389	H	0.625395	0.463551	0.273105
H390	H	0.566063	0.413766	0.256973
C391	C	0.177307	0.873329	-0.546583
C392	C	0.114613	0.901902	-0.537314
C393	C	0.060929	0.953131	-0.619679
C394	C	0.069939	0.975787	-0.711312
C395	C	0.132636	0.947214	-0.720585
C396	C	0.186319	0.895985	-0.638220
H397	H	0.107940	0.885131	-0.469478
H398	H	0.014517	0.974282	-0.612814
H399	H	0.030199	1.013710	-0.772283
H400	H	0.139308	0.963985	-0.788421
H401	H	0.232732	0.874834	-0.645085
C402	C	0.610228	0.830073	-0.371560
C403	C	0.641857	0.807457	-0.279921
C404	C	0.675954	0.836056	-0.270630
C405	C	0.678423	0.887272	-0.352978
C406	C	0.646793	0.909891	-0.444624
C407	C	0.612696	0.881292	-0.453915
H408	H	0.640030	0.769541	-0.218956
H409	H	0.699368	0.819311	-0.202787
H410	H	0.703664	0.908443	-0.346101
H411	H	0.648620	0.947807	-0.505589
H412	H	0.589282	0.898037	-0.521758
H413	H	0.592651	0.309380	-0.083089
H414	H	0.592673	0.216815	-0.083078
H415	H	0.625300	-0.020607	-0.128919
H416	H	0.294659	0.812836	-0.540463
H417	H	0.592707	-0.252592	-0.083074
C418	C	0.072605	0.348068	0.142296
C419	C	0.106110	0.295100	0.118350
C420	C	0.110940	0.229351	0.168805
C421	C	0.082265	0.216569	0.243206
C422	C	0.048759	0.269537	0.267156
C423	C	0.043929	0.335287	0.216701
H424	H	0.127339	0.304561	0.063271
H425	H	0.135744	0.190140	0.151075
H426	H	0.085841	0.167897	0.280555
H427	H	0.027530	0.260077	0.322235
H428	H	0.019125	0.374498	0.234431
H429	H	0.474387	-0.242695	0.083285
H430	H	0.488878	0.728316	-0.404593
H431	H	0.441785	-0.005287	0.129173
H432	H	0.474346	0.226693	0.083285
H433	H	0.441782	0.087264	0.129171
H434	H	0.474343	0.319259	0.083283
H435	H	0.163896	0.365151	0.129168
H436	H	0.368695	0.424931	0.083272
H437	H	-0.193223	0.424891	0.083345
H438	H	-0.100660	0.424891	0.083350
H439	H	-0.301639	0.641733	-0.083070
H440	H	-0.004286	0.701516	-0.128914
H441	H	-0.209095	0.641742	-0.083063
H442	H	0.167709	0.641770	-0.083128
