data_functionalizedCrystal
_audit_creation_method	'MofGen! by Chris Wilmer'
_symmetry_space_group_name_H-M	'P1'
_symmetry_Int_Tables_number	1
_symmetry_cell_setting	triclinic
loop_
_symmetry_equiv_pos_as_xyz
  x,y,z
_cell_length_a	14.853558
_cell_length_b	14.421503
_cell_length_c	14.853567
_cell_angle_alpha	90.005344
_cell_angle_beta	96.366968
_cell_angle_gamma	89.992399
loop_
_atom_site_label
_atom_site_type_symbol
_atom_site_fract_x
_atom_site_fract_y
_atom_site_fract_z
O1	O	1.196356	0.077092	-0.117658
O2	O	0.933895	0.077096	-0.131688
O3	O	1.072136	0.077097	0.006557
O4	O	1.058115	0.077091	-0.255903
O5	O	1.072153	-0.077127	0.006548
O6	O	0.933912	-0.077128	-0.131697
O7	O	1.196372	-0.077131	-0.117667
Cu8	Cu	1.065144	-0.091211	-0.124683
Cu9	Cu	1.065124	0.091176	-0.124672
O10	O	1.058131	-0.077132	-0.255912
C11	C	0.900314	-0.000015	-0.131058
C12	C	0.800230	-0.000014	-0.129158
N13	N	1.065164	-0.219492	-0.124689
C14	C	0.753201	0.084057	-0.128261
C15	C	0.753218	-0.084083	-0.128260
C16	C	0.659184	-0.084085	-0.126470
C17	C	0.612155	-0.000014	-0.125574
C18	C	0.659159	0.084058	-0.126468
C19	C	0.612174	-0.168156	-0.125567
C20	C	0.518135	-0.168160	-0.123775
C21	C	0.471103	-0.084089	-0.122885
C22	C	0.518113	-0.000013	-0.123781
C23	C	0.471083	0.084058	-0.122884
C24	C	0.518091	0.168134	-0.123786
C25	C	0.612127	0.168130	-0.125578
C26	C	0.377066	-0.084084	-0.121093
C27	C	0.377041	0.084059	-0.121091
C28	C	1.129100	-0.469121	-0.060751
C29	C	1.047616	-0.530916	-0.043143
C30	C	1.065144	-0.408654	-0.124679
C31	C	1.146609	-0.530952	-0.142234
C32	C	1.065132	-0.591375	-0.124666
C33	C	0.983618	-0.469088	-0.107030
C34	C	1.082665	-0.469119	-0.206157
C35	C	1.001122	-0.530887	-0.188583
C36	C	1.065152	-0.303393	-0.124683
C37	C	1.065114	-0.696634	-0.124662
C38	C	1.229953	-0.000018	-0.118296
C39	C	1.330037	-0.000013	-0.120197
C40	C	1.071509	-0.000012	0.040141
C41	C	1.069605	-0.000004	0.140225
N42	N	1.065110	0.219457	-0.124658
C43	C	1.058758	-0.000021	-0.289496
C44	C	1.060662	-0.000023	-0.389580
C45	C	0.979439	-0.000021	0.552756
C46	C	1.143673	-0.000023	0.574042
C47	C	1.145463	-0.000017	0.480009
C48	C	1.064240	-0.000015	0.422344
C49	C	0.981227	-0.000018	0.458713
C50	C	1.228474	-0.000024	0.443632
C51	C	1.230268	-0.000019	0.349593
C52	C	1.149044	-0.000010	0.291927
C53	C	1.066027	-0.000012	0.328301
C54	C	0.984805	-0.000010	0.270637
C55	C	0.901787	-0.000005	0.307009
C56	C	0.900003	-0.000009	0.401047
C57	C	1.150828	-0.000007	0.197890
C58	C	0.986592	-0.000007	0.176594
H59	H	0.338756	0.152520	-0.120367
H60	H	0.650409	0.236580	-0.126311
H61	H	1.097522	-0.441954	-0.275045
H62	H	0.791516	-0.152530	-0.128983
H63	H	1.215509	-0.558126	-0.157088
H64	H	1.297865	-0.000022	0.319987
H65	H	0.479869	-0.236621	-0.123040
H66	H	0.479788	0.236585	-0.123052
H67	H	1.209801	-0.000032	0.620998
H68	H	0.832414	-0.000006	0.430670
H69	H	1.294601	-0.000034	0.490589
H70	H	0.338796	-0.152538	-0.120367
H71	H	0.650473	-0.236601	-0.126288
H72	H	1.032784	-0.558062	0.025766
H73	H	0.946972	-0.557836	-0.242643
H74	H	1.183129	-0.442000	-0.006659
H75	H	0.920449	-0.000001	0.129649
H76	H	0.914703	-0.442029	-0.092098
H77	H	0.911848	-0.000013	0.582375
H78	H	0.791478	0.152510	-0.128999
H79	H	0.835656	-0.000010	0.260047
H80	H	1.218419	-0.000016	0.168279
