data_functionalizedCrystal
_audit_creation_method	'MofGen! by Chris Wilmer'
_symmetry_space_group_name_H-M	'P1'
_symmetry_Int_Tables_number	1
_symmetry_cell_setting	triclinic
loop_
_symmetry_equiv_pos_as_xyz
  x,y,z
_cell_length_a	18.215407
_cell_length_b	10.685194
_cell_length_c	18.215399
_cell_angle_alpha	85.603424
_cell_angle_beta	89.983101
_cell_angle_gamma	94.374677
loop_
_atom_site_label
_atom_site_type_symbol
_atom_site_fract_x
_atom_site_fract_y
_atom_site_fract_z
Zn1	Zn	1.102695	-0.502506	-0.393598
Zn2	Zn	1.093205	-0.713547	-0.261098
Zn3	Zn	0.979626	-0.502536	-0.270550
Zn4	Zn	0.970199	-0.713466	-0.384133
O5	O	1.036431	-0.608014	-0.327345
O6	O	1.204419	-0.530522	-0.376027
O7	O	1.078113	-0.685603	-0.159366
O8	O	1.003868	-0.325935	-0.294789
O9	O	1.197448	-0.685574	-0.278680
O10	O	1.094286	-0.325913	-0.385191
O11	O	0.994667	-0.530574	-0.166310
O12	O	0.875392	-0.530495	-0.285612
O13	O	0.987801	-0.685435	-0.488375
O14	O	0.868466	-0.685465	-0.369061
O15	O	1.085145	-0.530443	-0.495329
O16	O	1.068972	-0.890133	-0.269503
O17	O	0.978600	-0.890074	-0.359896
C18	C	0.845227	-0.607975	-0.327335
C19	C	0.763427	-0.607989	-0.327347
C20	C	0.494776	-0.688839	-0.370726
C21	C	0.571635	-0.688828	-0.370723
C22	C	0.578827	-0.527217	-0.283975
C23	C	0.501969	-0.527235	-0.283975
C24	C	0.459945	-0.608044	-0.327354
C25	C	0.613663	-0.608015	-0.327352
C26	C	0.696997	-0.608003	-0.327348
C27	C	0.376606	-0.608059	-0.327357
C28	C	1.021753	-0.935893	-0.312663
C29	C	1.015541	-1.076161	-0.306406
C30	C	1.228383	-0.608054	-0.327355
C31	C	1.310181	-0.608071	-0.327359
C32	C	1.036480	-0.607927	-0.519302
C33	C	1.036501	-0.607890	-0.601102
C34	C	1.051187	-0.278854	-0.342100
C35	C	1.057475	-0.138586	-0.348388
C36	C	1.087208	-0.527110	-0.792921
C37	C	1.087219	-0.527073	-0.869782
C38	C	0.985854	-0.688474	-0.862530
C39	C	0.985841	-0.688504	-0.785671
C40	C	1.036522	-0.607824	-0.750869
C41	C	1.036546	-0.607757	-0.904588
C42	C	1.036557	-0.607718	-0.987923
C43	C	1.036510	-0.607861	-0.667528
C44	C	1.036429	-0.608009	-0.136139
C45	C	1.036567	-0.607691	-0.054354
H46	H	0.460562	-0.754639	-0.406049
H47	H	0.473610	-0.461440	-0.248653
Br48	Br	0.635864	-0.417548	-0.225108
H49	H	0.974877	-1.130032	-0.265678
H50	H	0.944561	-0.754229	-0.751430
H51	H	1.098131	-1.084723	-0.389121
H52	H	0.599990	-0.754621	-0.406040
Br53	Br	1.155988	-0.417614	-0.745692
H54	H	1.128491	-0.461346	-0.904018
H55	H	0.944593	-0.754164	-0.890875
