data_functionalizedCrystal
_audit_creation_method	'MofGen! by Chris Wilmer'
_symmetry_space_group_name_H-M	'P1'
_symmetry_Int_Tables_number	1
_symmetry_cell_setting	triclinic
loop_
_symmetry_equiv_pos_as_xyz
  x,y,z
_cell_length_a	8.634740
_cell_length_b	8.597304
_cell_length_c	7.088929
_cell_angle_alpha	76.027438
_cell_angle_beta	97.174675
_cell_angle_gamma	92.879752
loop_
_atom_site_label
_atom_site_type_symbol
_atom_site_fract_x
_atom_site_fract_y
_atom_site_fract_z
O1	O	2.029527	0.534261	-0.246984
O2	O	1.580632	0.490633	-0.239800
O3	O	1.817657	0.282029	-0.205433
O4	O	1.792503	0.742864	-0.281351
O5	O	1.849333	0.254078	0.117147
O6	O	1.612308	0.462681	0.082780
O7	O	2.061203	0.506309	0.075596
Cu8	Cu	1.839648	0.481943	0.108642
Cu9	Cu	1.802187	0.514999	-0.272846
O10	O	1.824179	0.714912	0.041229
C11	C	1.539033	0.466773	-0.076883
C12	C	1.367889	0.437305	-0.072030
C13	C	1.832558	0.208444	-0.034327
C14	C	1.829750	0.030824	-0.005078
C15	C	2.102802	0.530169	-0.087325
C16	C	2.273945	0.559639	-0.092191
C17	C	1.809277	0.788498	-0.129881
C18	C	1.812084	0.966119	-0.159142
N19	N	1.866007	0.458694	0.376961
N20	N	1.775841	0.538237	-0.541163
H21	H	1.799103	0.046607	-0.313431
C22	C	1.847272	-0.077907	0.203377
C23	C	1.716369	-0.199313	0.270881
C24	C	1.733891	-0.308043	0.479332
C25	C	1.882315	-0.295369	0.620278
C26	C	2.013228	-0.173959	0.552776
C27	C	1.995707	-0.065228	0.344326
H28	H	1.606487	-0.208699	0.166542
H29	H	1.636979	-0.397919	0.529300
H30	H	1.895286	-0.375859	0.774586
H31	H	2.123110	-0.164573	0.657116
H32	H	2.092618	0.024648	0.294358
H33	H	1.959471	0.376272	0.472195
H34	H	1.682394	0.620667	0.363611
H35	H	1.317374	0.310022	-0.051116
H36	H	1.324449	0.686916	-0.113141
