data_functionalizedCrystal
_audit_creation_method	'MofGen! by Chris Wilmer'
_symmetry_space_group_name_H-M	'P1'
_symmetry_Int_Tables_number	1
_symmetry_cell_setting	triclinic
loop_
_symmetry_equiv_pos_as_xyz
  x,y,z
_cell_length_a	19.077236
_cell_length_b	13.897448
_cell_length_c	19.076919
_cell_angle_alpha	87.724536
_cell_angle_beta	89.887323
_cell_angle_gamma	87.687493
loop_
_atom_site_label
_atom_site_type_symbol
_atom_site_fract_x
_atom_site_fract_y
_atom_site_fract_z
Zn1	Zn	1.058312	0.350147	-0.440559
Zn2	Zn	1.062962	0.504728	-0.323060
Zn3	Zn	0.945528	0.349641	-0.318339
Zn4	Zn	0.940782	0.517597	-0.435799
O5	O	1.001896	0.430528	-0.379439
O6	O	1.157263	0.365478	-0.428941
O7	O	1.051316	0.478558	-0.224103
O8	O	0.960530	0.214725	-0.334568
O9	O	1.160678	0.479049	-0.342614
O10	O	1.043392	0.215097	-0.424363
O11	O	0.965038	0.364616	-0.220634
O12	O	0.846565	0.377095	-0.329953
O13	O	0.952441	0.500981	-0.534761
O14	O	0.843078	0.500491	-0.416250
O15	O	1.038790	0.377957	-0.538259
O16	O	1.046714	0.641418	-0.337999
O17	O	0.956949	0.650873	-0.420827
C18	C	0.819325	0.440135	-0.372073
C19	C	0.741219	0.444269	-0.368938
C20	C	0.702745	0.387183	-0.412479
C21	C	0.629356	0.391062	-0.409528
C22	C	0.594444	0.452034	-0.363038
C23	C	0.632924	0.509122	-0.319492
C24	C	0.706311	0.505237	-0.322440
C25	C	0.375152	0.469978	-0.349389
C26	C	0.301760	0.473861	-0.346446
C27	C	0.298197	0.355800	-0.436481
C28	C	0.371585	0.351924	-0.439428
C29	C	0.410059	0.409009	-0.395880
N30	N	0.519430	0.456003	-0.360021
N31	N	0.485072	0.405034	-0.398893
C32	C	1.001839	0.681145	-0.379425
C33	C	1.001878	0.788358	-0.379445
C34	C	1.001945	0.984652	-0.379498
C35	C	1.001906	0.875420	-0.379471
C36	C	1.185180	0.420884	-0.386835
C37	C	1.263285	0.416775	-0.389987
C38	C	0.994567	0.440961	-0.562719
C39	C	0.991444	0.445407	-0.640822
C40	C	1.001965	1.178933	-0.379478
C41	C	1.001979	1.071721	-0.379515
C42	C	1.034932	0.383446	-0.679337
C43	C	1.031989	0.387620	-0.752723
C44	C	0.985561	0.453760	-0.787592
C45	C	0.942068	0.515724	-0.749072
C46	C	0.945008	0.511544	-0.675688
C47	C	0.971944	0.473124	-1.006873
C48	C	0.969008	0.477300	-1.080262
C49	C	1.058928	0.349195	-1.083908
C50	C	1.061867	0.345025	-1.010522
C51	C	1.018372	0.406985	-0.972008
N52	N	0.982553	0.458030	-0.862604
N53	N	1.021377	0.402710	-0.896997
C54	C	1.009237	0.420064	-0.196874
C55	C	1.012496	0.415340	-0.118777
H56	H	1.072741	0.329590	-0.650952
H57	H	0.406468	0.516461	-0.313930
H58	H	0.909589	0.561990	-0.644329
N59	N	0.597265	0.571387	-0.271993
N60	N	0.558100	0.536974	-0.225613
H61	H	0.532916	0.580951	-0.192066
N62	N	0.738392	0.324902	-0.459976
N63	N	0.704027	0.273936	-0.498846
H64	H	0.729201	0.229945	-0.532391
H65	H	0.273336	0.523516	-0.308588
H66	H	0.266864	0.309324	-0.471934
N67	N	0.745604	0.563547	-0.277954
N68	N	0.714426	0.617979	-0.236446
H69	H	0.742176	0.659159	-0.205022
H70	H	1.067403	0.337167	-0.784078
N71	N	0.590067	0.332716	-0.453990
N72	N	0.621247	0.278269	-0.495486
H73	H	0.593501	0.237048	-0.526883
H74	H	1.099676	0.291169	-0.982136
H75	H	0.904263	0.569573	-0.777469
H76	H	0.400006	0.302279	-0.477287
H77	H	1.094339	0.298749	-1.115273
H78	H	0.931199	0.531162	-1.108651
H79	H	0.936537	0.523590	-0.975524
