data_functionalizedCrystal
_audit_creation_method	'MofGen! by Chris Wilmer'
_symmetry_space_group_name_H-M	'P1'
_symmetry_Int_Tables_number	1
_symmetry_cell_setting	triclinic
loop_
_symmetry_equiv_pos_as_xyz
  x,y,z
_cell_length_a	19.805407
_cell_length_b	18.050589
_cell_length_c	19.805398
_cell_angle_alpha	89.979370
_cell_angle_beta	89.984135
_cell_angle_gamma	90.028221
loop_
_atom_site_label
_atom_site_type_symbol
_atom_site_fract_x
_atom_site_fract_y
_atom_site_fract_z
Zn1	Zn	1.034702	-0.295689	-0.382745
Zn2	Zn	1.534702	0.204311	0.117255
Zn3	Zn	1.034621	-0.419877	-0.269567
Zn4	Zn	1.534621	0.080123	0.230433
Zn5	Zn	0.921524	-0.295706	-0.269569
Zn6	Zn	1.421524	0.204294	0.230431
Zn7	Zn	0.921477	-0.419842	-0.382713
Zn8	Zn	1.421477	0.080158	0.117287
O9	O	0.978081	-0.357778	-0.326148
O10	O	1.478081	0.142222	0.173852
O11	O	1.129408	-0.312171	-0.367743
O12	O	1.629408	0.187829	0.132257
O13	O	1.019604	-0.403428	-0.174850
O14	O	1.519604	0.096572	0.325150
O15	O	0.936592	-0.191779	-0.284596
O16	O	1.436592	0.308221	0.215404
O17	O	1.129348	-0.403411	-0.284592
O18	O	1.629348	0.096589	0.215408
O19	O	1.019743	-0.191766	-0.367746
O20	O	1.519743	0.308234	0.132254
O21	O	0.936513	-0.312199	-0.174852
O22	O	1.436513	0.187801	0.325148
O23	O	0.826802	-0.312165	-0.284566
O24	O	1.326802	0.187835	0.215434
O25	O	0.936511	-0.403350	-0.477434
O26	O	1.436511	0.096650	0.022566
O27	O	0.826767	-0.403367	-0.367693
O28	O	1.326767	0.096633	0.132307
O29	O	1.019697	-0.312136	-0.477457
O30	O	1.519697	0.187864	0.022543
O31	O	1.019558	-0.523797	-0.284562
O32	O	1.519558	-0.023797	0.215438
O33	O	0.936432	-0.523771	-0.367690
O34	O	1.436432	-0.023771	0.132310
C35	C	0.802225	-0.357764	-0.326127
C36	C	1.302225	0.142236	0.173873
C37	C	0.726993	-0.357776	-0.326133
C38	C	1.226993	0.142224	0.173867
C39	C	0.977999	-0.550731	-0.326137
C40	C	1.477999	-0.050731	0.173863
C41	C	0.978026	-0.633276	-0.326155
C42	C	1.478026	-0.133276	0.173845
C43	C	0.691649	-0.405336	-0.369347
C44	C	1.191649	0.094664	0.130653
C45	C	0.620960	-0.405338	-0.369357
C46	C	1.120960	0.094662	0.130643
C47	C	0.585618	-0.357782	-0.326148
C48	C	1.085618	0.142218	0.173852
C49	C	0.620967	-0.310216	-0.282933
C50	C	1.120967	0.189784	0.217067
C51	C	0.691654	-0.310212	-0.282927
C52	C	1.191654	0.189788	0.217073
C53	C	0.335894	-0.310233	-0.282955
C54	C	0.835894	0.189767	0.217045
C55	C	0.265202	-0.310242	-0.282962
C56	C	0.765202	0.189758	0.217038
C57	C	0.265200	-0.405359	-0.369385
C58	C	0.765200	0.094641	0.130615
C59	C	0.335887	-0.405354	-0.369379
C60	C	0.835887	0.094646	0.130621
C61	C	0.371230	-0.357786	-0.326166
C62	C	0.871230	0.142214	0.173834
C63	C	0.447879	-0.357784	-0.326157
C64	C	0.947879	0.142216	0.173843
C65	C	0.508970	-0.357787	-0.326153
C66	C	1.008970	0.142213	0.173847
C67	C	0.932867	-0.832740	-0.371344
C68	C	1.432867	-0.332740	0.128656
C69	C	0.916372	-0.882176	-0.309581
C70	C	1.416372	-0.382176	0.190419
C71	C	0.978093	-0.784407	-0.326164
C72	C	1.478093	-0.284407	0.173836
C73	C	0.994621	-0.882051	-0.387934
C74	C	1.494621	-0.382051	0.112066
C75	C	0.978156	-0.930392	-0.326178
C76	C	1.478156	-0.430392	0.173822
C77	C	0.961566	-0.832756	-0.264368
C78	C	1.461566	-0.332756	0.235632
C79	C	1.039843	-0.832627	-0.342762
C80	C	1.539843	-0.332627	0.157238
C81	C	1.023372	-0.882042	-0.280957
C82	C	1.523372	-0.382042	0.219043
C83	C	0.978055	-0.700308	-0.326157
C84	C	1.478055	-0.200308	0.173843
C85	C	0.978194	-1.014488	-0.326178
C86	C	1.478194	-0.514488	0.173822
C87	C	1.154624	-0.357793	-0.326171
C88	C	1.654624	0.142207	0.173829
C89	C	1.229856	-0.357800	-0.326180
C90	C	1.729856	0.142200	0.173820
C91	C	0.978108	-0.357737	-0.502691
C92	C	1.478108	0.142263	-0.002691
C93	C	0.978119	-0.357720	-0.577923
C94	C	1.478119	0.142280	-0.077923
C95	C	0.978182	-0.164073	-0.326175
C96	C	1.478182	0.335927	0.173825
C97	C	0.978224	-0.081527	-0.326186
C98	C	1.478224	0.418473	0.173814
C99	C	1.021516	-0.310093	-1.039727
C100	C	1.521516	0.189907	-0.539727
C101	C	1.021505	-0.310116	-0.969039
C102	C	1.521505	0.189884	-0.469039
C103	C	0.978188	-0.357616	-0.933685
C104	C	1.478188	0.142384	-0.433685
C105	C	0.934884	-0.405103	-0.969023
C106	C	1.434884	0.094897	-0.469023
C107	C	0.934899	-0.405083	-1.039711
C108	C	1.434899	0.094917	-0.539711
C109	C	0.934826	-0.405183	-0.683950
C110	C	1.434826	0.094817	-0.183950
C111	C	0.934813	-0.405198	-0.613258
C112	C	1.434813	0.094802	-0.113258
C113	C	1.021432	-0.310216	-0.613278
C114	C	1.521432	0.189784	-0.113278
C115	C	1.021446	-0.310196	-0.683966
C116	C	1.521446	0.189804	-0.183966
C117	C	0.978145	-0.357685	-0.719298
C118	C	1.478145	0.142315	-0.219298
C119	C	0.978158	-0.357661	-0.795946
C120	C	1.478158	0.142339	-0.295946
C121	C	0.978172	-0.357637	-0.857038
C122	C	1.478172	0.142363	-0.357038
C123	C	0.978094	-0.357766	-0.150292
C124	C	1.478094	0.142234	0.349708
C125	C	0.978214	-0.357574	-0.075061
C126	C	1.478214	0.142426	0.424939
H127	H	0.720419	-0.444064	-0.404530
H128	H	1.220419	0.055936	0.095470
H129	H	0.947552	-0.811192	-0.212121
H130	H	1.447552	-0.311192	0.287879
H131	H	0.899566	-0.443851	-0.712709
H132	H	1.399566	0.056149	-0.212709
H133	H	0.894564	-0.811091	-0.409498
H134	H	1.394564	-0.311091	0.090502
C135	C	1.069098	-0.257942	-0.722851
C136	C	1.569098	0.242058	-0.222851
N137	N	1.104993	-0.218586	-0.752138
N138	N	1.604993	0.281414	-0.252138
H139	H	1.092022	-0.810848	-0.356819
H140	H	1.592022	-0.310848	0.143181
C141	C	1.013473	-0.911304	-0.458498
C142	C	1.513473	-0.411304	0.041502
N143	N	1.027668	-0.933334	-0.511648
N144	N	1.527668	-0.433334	-0.011648
C145	C	0.226316	-0.457679	-0.416926
C146	C	0.726316	0.042321	0.083074
N147	N	0.197029	-0.497086	-0.452733
N148	N	0.697029	0.002914	0.047267
H149	H	1.056785	-0.271407	-1.068507
H150	H	1.556785	0.228593	-0.568507
H151	H	1.056768	-0.271454	-0.940274
H152	H	1.556768	0.228546	-0.440274
H153	H	1.056692	-0.271550	-0.584502
H154	H	1.556692	0.228450	-0.084502
C155	C	0.887162	-0.457458	-0.574370
C156	C	1.387162	0.042542	-0.074370
N157	N	0.851272	-0.496818	-0.545080
N158	N	1.351272	0.003182	-0.045080
H159	H	0.236428	-0.271512	-0.247777
H160	H	0.736428	0.228488	0.252223
C161	C	0.582084	-0.457672	-0.416883
C162	C	1.082084	0.042328	0.083117
N163	N	0.552803	-0.497098	-0.452677
N164	N	1.052803	0.002902	0.047323
C165	C	0.374762	-0.257911	-0.235415
C166	C	0.874762	0.242089	0.264585
N167	N	0.404040	-0.218501	-0.199604
N168	N	0.904040	0.281499	0.300396
C169	C	0.582088	-0.257902	-0.235404
C170	C	1.082088	0.242098	0.264596
N171	N	0.552804	-0.218500	-0.199604
N172	N	1.052804	0.281500	0.300396
C173	C	0.887234	-0.457353	-0.930132
C174	C	1.387234	0.042647	-0.430132
N175	N	0.851341	-0.496706	-0.900839
N176	N	1.351341	0.003294	-0.400839
H177	H	0.720431	-0.271479	-0.247741
H178	H	1.220431	0.228521	0.252259
H179	H	0.364659	-0.444082	-0.404562
H180	H	0.864659	0.055918	0.095438
C181	C	0.845862	-0.911579	-0.290617
C182	C	1.345862	-0.411579	0.209383
N183	N	0.792752	-0.933724	-0.276338
N184	N	1.292752	-0.433724	0.223662
C185	C	1.075075	-0.911109	-0.229289
C186	C	1.575075	-0.411109	0.270711
N187	N	1.114015	-0.933005	-0.190371
N188	N	1.614015	-0.433005	0.309629
C189	C	0.887262	-0.457315	-1.078577
C190	C	1.387262	0.042685	-0.578577
N191	N	0.851381	-0.496658	-1.107850
N192	N	1.351381	0.003342	-0.607850
