data_functionalizedCrystal
_audit_creation_method	'MofGen! by Chris Wilmer'
_symmetry_space_group_name_H-M	'P1'
_symmetry_Int_Tables_number	1
_symmetry_cell_setting	triclinic
loop_
_symmetry_equiv_pos_as_xyz
  x,y,z
_cell_length_a	19.805407
_cell_length_b	16.120484
_cell_length_c	19.805398
_cell_angle_alpha	92.872517
_cell_angle_beta	89.984135
_cell_angle_gamma	92.925608
loop_
_atom_site_label
_atom_site_type_symbol
_atom_site_fract_x
_atom_site_fract_y
_atom_site_fract_z
Zn1	Zn	1.021049	-0.331942	-0.396378
Zn2	Zn	1.015233	-0.471356	-0.288926
Zn3	Zn	0.907870	-0.331961	-0.283203
Zn4	Zn	0.902091	-0.471316	-0.402071
O5	O	0.961561	-0.401644	-0.342644
O6	O	1.114994	-0.350444	-0.382136
O7	O	1.000976	-0.452890	-0.193451
O8	O	0.927736	-0.215292	-0.293438
O9	O	1.110721	-0.452872	-0.303192
O10	O	1.010888	-0.215278	-0.376587
O11	O	0.922097	-0.350476	-0.189247
O12	O	0.812387	-0.350437	-0.298959
O13	O	0.917886	-0.452803	-0.496031
O14	O	0.808141	-0.452821	-0.386290
O15	O	1.005284	-0.350405	-0.491848
O16	O	0.995372	-0.588017	-0.308712
O17	O	0.912247	-0.587988	-0.391839
C18	C	0.785705	-0.401628	-0.342622
C19	C	0.710473	-0.401641	-0.342629
C20	C	0.672932	-0.455032	-0.388036
C21	C	0.602244	-0.455034	-0.388045
C22	C	0.569097	-0.401647	-0.342644
C23	C	0.606643	-0.348250	-0.297235
C24	C	0.677330	-0.348245	-0.297230
C25	C	0.321569	-0.348268	-0.297259
C26	C	0.250876	-0.348279	-0.297267
C27	C	0.246482	-0.455057	-0.388074
C28	C	0.317170	-0.455052	-0.388069
C29	C	0.354710	-0.401652	-0.342662
C30	C	0.431358	-0.401650	-0.342653
C31	C	0.492450	-0.401653	-0.342650
C32	C	0.952570	-0.618253	-0.351529
C33	C	0.948785	-0.710919	-0.355353
C34	C	0.941879	-0.880581	-0.362348
C35	C	0.981364	-0.921866	-0.322952
C36	C	0.977521	-1.016272	-0.326844
C37	C	0.945721	-0.786167	-0.358457
C38	C	1.138103	-0.401660	-0.342667
C39	C	1.213335	-0.401667	-0.342677
C40	C	0.961589	-0.401597	-0.519185
C41	C	0.961601	-0.401578	-0.594416
C42	C	0.970606	-0.184189	-0.333739
C43	C	0.974460	-0.091523	-0.329945
C44	C	1.007197	-0.348112	-1.054025
C45	C	1.007186	-0.348137	-0.983337
C46	C	0.961676	-0.401462	-0.950174
C47	C	0.916179	-0.454770	-0.987701
C48	C	0.916194	-0.454748	-1.058388
C49	C	0.916116	-0.454861	-0.702632
C50	C	0.916103	-0.454877	-0.631940
C51	C	1.007108	-0.348250	-0.627581
C52	C	1.007123	-0.348228	-0.698268
C53	C	0.961629	-0.401539	-0.735789
C54	C	0.961643	-0.401512	-0.812437
C55	C	0.961658	-0.401485	-0.873527
C56	C	0.961574	-0.401629	-0.166788
C57	C	0.961703	-0.401414	-0.091547
H58	H	0.223891	-0.304801	-0.260295
H59	H	0.699915	-0.498509	-0.425005
H60	H	0.879071	-0.498269	-0.733173
H61	H	1.044153	-0.304843	-0.597023
C62	C	0.205187	-0.513789	-0.438028
H63	H	0.158341	-0.506142	-0.431537
H64	H	0.214444	-0.569787	-0.430343
H65	H	0.217295	-0.501657	-0.483024
C66	C	1.057224	-0.289501	-0.942062
H67	H	1.050704	-0.297156	-0.895214
H68	H	1.049647	-0.233482	-0.951350
H69	H	1.102200	-0.301703	-0.954151
C70	C	0.892315	-0.928604	-0.411856
H71	H	0.868047	-0.890289	-0.436067
H72	H	0.861487	-0.962630	-0.387308
H73	H	0.916838	-0.962521	-0.442745
C74	C	0.866052	-0.513552	-0.595462
H75	H	0.838966	-0.545309	-0.627932
H76	H	0.837876	-0.481679	-0.566574
H77	H	0.890444	-0.549882	-0.569382
C78	C	0.866118	-0.513425	-0.951223
H79	H	0.872619	-0.505798	-0.903750
H80	H	0.873694	-0.569439	-0.965102
H81	H	0.821149	-0.501209	-0.962306
H82	H	0.879149	-0.498154	-1.088938
H83	H	1.044180	-0.304802	-0.725266
H84	H	0.571681	-0.498511	-0.425020
H85	H	0.344154	-0.498528	-0.425037
C86	C	1.030908	-0.873838	-0.273419
H87	H	1.027013	-0.815767	-0.277256
H88	H	1.075821	-0.887988	-0.283919
H89	H	1.020439	-0.888119	-0.228514
C90	C	1.057259	-0.289457	-1.090502
H91	H	1.050750	-0.297071	-1.137974
H92	H	1.102225	-0.301667	-1.079420
H93	H	1.049678	-0.233440	-1.076621
C94	C	0.362853	-0.289546	-0.247303
H95	H	0.332986	-0.257763	-0.220259
H96	H	0.391946	-0.253255	-0.271743
H97	H	0.389092	-0.321399	-0.219073
H98	H	0.579649	-0.304778	-0.260272
H99	H	0.707895	-0.304764	-0.260258
