data_functionalizedCrystal
_audit_creation_method	'MofGen! by Chris Wilmer'
_symmetry_space_group_name_H-M	'P1'
_symmetry_Int_Tables_number	1
_symmetry_cell_setting	triclinic
loop_
_symmetry_equiv_pos_as_xyz
  x,y,z
_cell_length_a	14.519709
_cell_length_b	14.519731
_cell_length_c	9.130313
_cell_angle_alpha	89.997760
_cell_angle_beta	90.005376
_cell_angle_gamma	83.684499
loop_
_atom_site_label
_atom_site_type_symbol
_atom_site_fract_x
_atom_site_fract_y
_atom_site_fract_z
O1	O	1.223872	0.120886	-0.121612
O2	O	0.955396	0.135122	-0.121657
O3	O	1.096742	-0.006233	-0.121620
O4	O	1.082526	0.262241	-0.121649
O5	O	1.096740	-0.006229	0.121979
O6	O	0.955394	0.135126	0.121942
O7	O	1.223870	0.120890	0.121987
Cu8	Cu	1.089632	0.128008	0.144207
Cu9	Cu	1.089634	0.128004	-0.143877
O10	O	1.082524	0.262245	0.121950
C11	C	0.921035	0.134461	0.000137
C12	C	0.818654	0.132473	0.000120
C13	C	1.096075	-0.040591	0.000180
C14	C	1.094079	-0.142971	0.000180
C15	C	0.443757	0.125153	0.000187
C16	C	0.548065	0.127186	0.000168
C17	C	0.631202	0.128813	0.000152
C18	C	0.735517	0.130846	0.000136
C19	C	1.092457	-0.226115	0.000176
C20	C	1.090430	-0.330424	0.000165
C21	C	1.088822	-0.413563	0.000155
C22	C	1.086795	-0.517878	0.000146
C23	C	1.258230	0.121551	0.000190
C24	C	1.360612	0.123539	0.000197
C25	C	1.083191	0.296603	0.000147
C26	C	1.085187	0.398983	0.000137
N27	N	1.089637	0.128011	0.346829
N28	N	1.089636	0.127994	-0.346500
C29	C	1.152241	0.065440	0.423498
C30	C	1.152238	0.065429	0.576835
C31	C	1.027025	0.190568	0.576821
C32	C	1.027024	0.190574	0.423487
C33	C	1.224535	-0.006806	0.423507
C34	C	1.224532	-0.006817	0.576844
H35	H	0.976039	0.241516	0.361065
O36	O	1.198218	-0.086467	0.633635
C37	C	1.118370	-0.065636	0.720517
H38	H	1.080507	0.003653	0.684702
H39	H	1.139378	-0.061366	0.840431
C40	C	1.100419	-0.227350	0.745806
C41	C	1.053911	-0.142252	0.701809
H42	H	1.060659	-0.274612	0.734273
H43	H	1.154216	-0.241385	0.687277
H44	H	1.117923	-0.223779	0.845732
H45	H	1.036418	-0.145821	0.601881
H46	H	1.000109	-0.128220	0.760321
O47	O	1.309023	0.011321	0.626347
C48	C	1.377544	-0.057366	0.574786
H49	H	1.351307	-0.090867	0.472210
H50	H	1.393568	-0.112379	0.662986
C51	C	1.498410	0.028316	0.663864
C52	C	1.466189	-0.012825	0.537872
H53	H	1.553092	0.055789	0.641099
H54	H	1.452247	0.074590	0.698607
H55	H	1.511756	-0.017535	0.737352
H56	H	1.452832	0.033028	0.464393
H57	H	1.512352	-0.059091	0.503115
O58	O	0.966171	0.251214	0.651453
C59	C	0.909183	0.201687	0.740103
H60	H	0.945794	0.129604	0.763072
H61	H	0.841018	0.195270	0.680995
C62	C	0.844590	0.342163	0.857547
C63	C	0.889560	0.253631	0.885768
H64	H	0.832482	0.374206	0.947397
H65	H	0.882981	0.375531	0.797818
H66	H	0.787791	0.336803	0.808287
H67	H	0.946363	0.258992	0.935010
H68	H	0.851178	0.220265	0.945508
O69	O	1.206168	-0.091201	0.373926
C70	C	1.118645	-0.109997	0.425543
H71	H	1.074942	-0.042071	0.452781
H72	H	1.127864	-0.154780	0.528181
C73	C	1.123300	-0.245214	0.273035
C74	C	1.069620	-0.161787	0.306477
H75	H	1.093059	-0.277165	0.199594
H76	H	1.182267	-0.232554	0.238263
H77	H	1.130978	-0.282523	0.358576
H78	H	1.061952	-0.124475	0.220941
H79	H	1.010650	-0.174442	0.341232
O80	O	1.304140	0.019605	0.366723
C81	C	1.283203	0.099453	0.279858
H82	H	1.213877	0.137224	0.315676
H83	H	1.278952	0.078458	0.159939
C84	C	1.444869	0.117620	0.254587
C85	C	1.359726	0.164016	0.298588
H86	H	1.492073	0.157445	0.266134
H87	H	1.458976	0.063823	0.313105
H88	H	1.441314	0.100127	0.154657
H89	H	1.363279	0.181498	0.398520
H90	H	1.345622	0.217818	0.240087
