data_functionalizedCrystal
_audit_creation_method	'MofGen! by Chris Wilmer'
_symmetry_space_group_name_H-M	'P1'
_symmetry_Int_Tables_number	1
_symmetry_cell_setting	triclinic
loop_
_symmetry_equiv_pos_as_xyz
  x,y,z
_cell_length_a	17.077404
_cell_length_b	13.032721
_cell_length_c	17.077395
_cell_angle_alpha	97.154458
_cell_angle_beta	89.984359
_cell_angle_gamma	97.204757
loop_
_atom_site_label
_atom_site_type_symbol
_atom_site_fract_x
_atom_site_fract_y
_atom_site_fract_z
Zn1	Zn	1.160341	-0.416050	-0.483525
Zn2	Zn	1.143587	-0.590812	-0.368927
Zn3	Zn	1.029078	-0.416082	-0.352276
Zn4	Zn	1.012377	-0.590754	-0.500145
O5	O	1.086346	-0.503425	-0.426218
O6	O	1.267964	-0.439243	-0.468336
O7	O	1.128376	-0.567672	-0.256875
O8	O	1.060492	-0.269839	-0.355762
O9	O	1.255656	-0.567640	-0.384142
O10	O	1.156930	-0.269814	-0.452190
O11	O	1.044247	-0.439299	-0.244641
O12	O	0.917017	-0.439242	-0.371878
O13	O	1.032026	-0.567541	-0.607784
O14	O	0.904746	-0.567573	-0.480517
O15	O	1.140735	-0.439186	-0.595573
O16	O	1.112181	-0.737044	-0.400258
O17	O	1.015781	-0.737001	-0.496663
C18	C	0.882400	-0.503406	-0.426195
C19	C	0.795148	-0.503423	-0.426206
C20	C	1.060372	-0.774941	-0.452088
C21	C	1.049332	-0.891097	-0.463182
C22	C	0.747780	-0.570345	-0.482703
C23	C	0.665799	-0.570347	-0.482716
C24	C	0.631188	-0.503432	-0.426227
C25	C	0.678563	-0.436502	-0.369727
C26	C	0.760543	-0.436495	-0.369718
C27	C	0.507691	-0.436522	-0.369748
C28	C	0.425706	-0.436530	-0.369755
C29	C	0.412948	-0.570375	-0.482745
C30	C	0.494927	-0.570368	-0.482737
C31	C	0.542296	-0.503439	-0.426235
C32	C	1.092149	-0.942869	-0.420464
C33	C	1.080740	-1.062922	-0.431928
C34	C	1.291088	-0.503444	-0.426242
C35	C	1.378337	-0.503453	-0.426252
C36	C	1.086386	-0.503354	-0.630956
C37	C	1.086404	-0.503323	-0.718203
C38	C	1.112442	-0.230848	-0.400264
C39	C	1.123563	-0.114692	-0.389204
C40	C	1.143109	-0.436347	-1.087647
C41	C	1.143089	-0.436384	-1.005670
C42	C	1.086478	-0.503224	-0.971042
C43	C	1.029887	-0.570040	-1.018397
C44	C	1.029911	-0.570008	-1.100373
C45	C	1.029841	-0.570101	-0.847533
C46	C	1.029816	-0.570132	-0.765551
C47	C	1.143019	-0.436476	-0.752829
C48	C	1.143043	-0.436444	-0.834805
C49	C	1.086451	-0.503259	-0.882155
C50	C	1.086358	-0.503420	-0.222270
C51	C	1.086521	-0.503156	-0.134995
H52	H	0.627235	-0.624843	-0.528721
H53	H	0.983759	-0.624512	-0.886083
N54	N	0.989579	-0.950096	-0.522867
H55	H	1.003524	-0.931094	-0.577163
H56	H	0.989921	-1.027476	-0.522529
H57	H	0.799110	-0.381994	-0.323716
N58	N	0.968766	-0.642234	-0.728201
H59	H	0.996032	-0.690666	-0.698801
H60	H	0.936462	-0.599703	-0.690181
H61	H	1.189204	-0.381911	-1.115833
H62	H	1.189171	-0.381984	-0.967122
N63	N	0.968825	-0.642138	-0.981059
H64	H	0.996075	-0.690584	-0.951658
H65	H	0.936521	-0.599603	-0.943041
N66	N	0.968879	-0.642057	-1.151455
H67	H	0.973912	-0.716734	-1.144304
H68	H	0.914373	-0.625734	-1.135620
N69	N	0.785105	-0.642519	-0.543634
H70	H	0.844226	-0.632365	-0.535056
H71	H	0.763632	-0.717133	-0.538433
H72	H	0.397529	-0.382029	-0.323765
H73	H	1.189138	-0.382012	-0.862996
N74	N	0.532252	-0.642543	-0.543667
H75	H	0.570335	-0.600131	-0.576050
H76	H	0.561583	-0.690900	-0.516256
N77	N	0.361862	-0.642566	-0.543686
H78	H	0.304677	-0.632416	-0.535125
H79	H	0.377761	-0.626403	-0.598227
N80	N	1.183315	-1.055691	-0.329514
H81	H	1.210322	-1.106737	-0.302583
H82	H	1.223900	-1.010340	-0.357205
N83	N	1.204052	-0.364399	-0.701765
H84	H	1.195449	-0.374559	-0.644579
H85	H	1.258563	-0.380651	-0.717642
H86	H	0.546258	-0.382013	-0.323744
H87	H	1.137257	-0.898317	-0.375406
N88	N	0.641229	-0.364347	-0.308789
H89	H	0.611843	-0.315977	-0.336132
H90	H	0.603193	-0.406856	-0.276431
N91	N	1.020993	-1.121922	-0.491625
H92	H	1.021312	-1.199320	-0.491354
H93	H	0.966727	-1.102974	-0.477558
