data_functionalizedCrystal
_audit_creation_method	'MofGen! by Chris Wilmer'
_symmetry_space_group_name_H-M	'P1'
_symmetry_Int_Tables_number	1
_symmetry_cell_setting	triclinic
loop_
_symmetry_equiv_pos_as_xyz
  x,y,z
_cell_length_a	25.639239
_cell_length_b	14.908780
_cell_length_c	14.908694
_cell_angle_alpha	96.797826
_cell_angle_beta	93.266315
_cell_angle_gamma	86.672354
loop_
_atom_site_label
_atom_site_type_symbol
_atom_site_fract_x
_atom_site_fract_y
_atom_site_fract_z
Zn1	Zn	-0.180755	-1.413292	-0.591786
Zn2	Zn	0.152578	-1.079959	-0.258453
Zn3	Zn	0.485912	-0.746626	0.074881
Zn4	Zn	-0.263429	-1.404414	-0.440407
Zn5	Zn	0.069904	-1.071080	-0.107074
Zn6	Zn	0.403237	-0.737747	0.226259
Zn7	Zn	-0.180766	-1.253188	-0.431687
Zn8	Zn	0.152567	-0.919855	-0.098354
Zn9	Zn	0.485900	-0.586522	0.234980
Zn10	Zn	-0.272922	-1.261835	-0.582974
Zn11	Zn	0.060411	-0.928501	-0.249640
Zn12	Zn	0.393744	-0.595168	0.083693
O13	O	-0.224468	-1.333182	-0.511713
O14	O	0.108865	-0.999849	-0.178380
O15	O	0.442198	-0.666516	0.154953
O16	O	-0.187744	-1.538788	-0.579043
O17	O	0.145589	-1.205455	-0.245710
O18	O	0.478922	-0.872122	0.087624
O19	O	-0.248496	-1.377019	-0.312584
O20	O	0.084837	-1.043686	0.020749
O21	O	0.418171	-0.710352	0.354083
O22	O	-0.107598	-1.274523	-0.452963
O23	O	0.225736	-0.941190	-0.119629
O24	O	0.559069	-0.607857	0.213704
O25	O	-0.248485	-1.532265	-0.467826
O26	O	0.084848	-1.198932	-0.134492
O27	O	0.418182	-0.865599	0.198841
O28	O	-0.107589	-1.392151	-0.570587
O29	O	0.225744	-1.058818	-0.237254
O30	O	0.559077	-0.725485	0.096080
O31	O	-0.187764	-1.265914	-0.306177
O32	O	0.145570	-0.932581	0.027156
O33	O	0.478903	-0.599248	0.360490
O34	O	-0.196968	-1.127661	-0.444418
O35	O	0.136365	-0.794328	-0.111084
O36	O	0.469698	-0.460995	0.222249
O37	O	-0.264664	-1.289260	-0.710809
O38	O	0.068669	-0.955927	-0.377476
O39	O	0.402003	-0.622594	-0.044143
O40	O	-0.264675	-1.134014	-0.555567
O41	O	0.068658	-0.800681	-0.222234
O42	O	0.401992	-0.467347	0.111099
O43	O	-0.196949	-1.400535	-0.717284
O44	O	0.136384	-1.067202	-0.383950
O45	O	0.469717	-0.733869	-0.050617
O46	O	-0.337856	-1.385403	-0.459281
O47	O	-0.004523	-1.052070	-0.125947
O48	O	0.328811	-0.718736	0.207386
O49	O	-0.344830	-1.280651	-0.564023
O50	O	-0.011497	-0.947318	-0.230690
O51	O	0.321836	-0.613984	0.102643
C52	C	-0.231853	-1.097993	-0.498091
C53	C	0.101480	-0.764659	-0.164757
C54	C	0.434813	-0.431326	0.168576
C55	C	-0.235026	-0.997379	-0.492284
C56	C	0.098307	-0.664045	-0.158951
C57	C	0.431641	-0.330712	0.174383
C58	C	-0.177836	-0.815115	-0.597361
C59	C	0.155498	-0.481782	-0.264027
C60	C	0.488831	-0.148448	0.069306
C61	C	-0.180815	-0.720580	-0.591908
C62	C	0.152518	-0.387246	-0.258575
C63	C	0.485852	-0.053913	0.074759
C64	C	-0.243961	-0.713770	-0.475922
C65	C	0.089373	-0.380437	-0.142589
C66	C	0.422706	-0.047103	0.190745
C67	C	-0.240982	-0.808306	-0.481375
C68	C	0.092352	-0.474972	-0.148041
C69	C	0.425685	-0.141639	0.185292
C70	C	-0.207918	-0.858975	-0.542097
C71	C	0.125415	-0.525642	-0.208764
C72	C	0.458748	-0.192308	0.124570
C73	C	-0.204942	-0.953513	-0.547554
C74	C	0.128391	-0.620179	-0.214220
C75	C	0.461724	-0.286846	0.119113
C76	C	-0.268085	-0.946701	-0.431564
C77	C	0.065248	-0.613368	-0.098230
C78	C	0.398582	-0.280034	0.235103
C79	C	-0.271064	-0.852165	-0.426111
C80	C	0.062269	-0.518832	-0.092778
C81	C	0.395602	-0.185499	0.240556
C82	C	-0.360314	-1.333028	-0.511663
C83	C	-0.026981	-0.999694	-0.178330
C84	C	0.306352	-0.666361	0.155003
C85	C	-0.418428	-1.333046	-0.511677
C86	C	-0.085095	-0.999713	-0.178343
C87	C	0.248239	-0.666379	0.154990
C88	C	-0.775142	-1.387883	-0.457281
C89	C	-0.441809	-1.054550	-0.123948
C90	C	-0.108475	-0.721217	0.209385
C91	C	-0.829746	-1.387919	-0.457295
C92	C	-0.496412	-1.054586	-0.123962
C93	C	-0.163079	-0.721252	0.209371
O94	O	-0.854883	-1.434383	-0.410992
O95	O	-0.521550	-1.101050	-0.077658
O96	O	-0.188217	-0.767717	0.255675
N97	N	-0.860704	-1.333345	-0.511783
N98	N	-0.527371	-1.000011	-0.178449
N99	N	-0.194037	-0.666678	0.154884
C100	C	-0.837056	-1.278738	-0.566266
C101	C	-0.503723	-0.945405	-0.232933
C102	C	-0.170390	-0.612071	0.100400
O103	O	-0.868403	-1.232322	-0.612614
O104	O	-0.535070	-0.898989	-0.279280
O105	O	-0.201736	-0.565655	0.054053
C106	C	-0.782454	-1.278708	-0.566256
C107	C	-0.449120	-0.945374	-0.232923
C108	C	-0.115787	-0.612041	0.100410
C109	C	-0.751498	-1.333279	-0.511759
C110	C	-0.418165	-0.999945	-0.178425
C111	C	-0.084831	-0.666612	0.154908
C112	C	-0.744186	-1.442451	-0.402789
C113	C	-0.410853	-1.109117	-0.069455
C114	C	-0.077520	-0.775784	0.263878
C115	C	-0.689587	-1.442413	-0.402774
C116	C	-0.356253	-1.109080	-0.069440
C117	C	-0.022920	-0.775747	0.263893
C118	C	-0.665942	-1.387809	-0.457251
C119	C	-0.332609	-1.054475	-0.123918
C120	C	0.000724	-0.721142	0.209416
C121	C	-0.696898	-1.333241	-0.511743
C122	C	-0.363565	-0.999908	-0.178410
C123	C	-0.030231	-0.666575	0.154923
C124	C	-0.758807	-1.224106	-0.620744
C125	C	-0.425474	-0.890773	-0.287411
C126	C	-0.092140	-0.557440	0.045923
C127	C	-0.704200	-1.224081	-0.620730
C128	C	-0.370867	-0.890748	-0.287397
C129	C	-0.037534	-0.557414	0.045937
C130	C	-0.673244	-1.278652	-0.566232
C131	C	-0.339911	-0.945319	-0.232899
C132	C	-0.006578	-0.611986	0.100434
C133	C	-0.618654	-1.278599	-0.566206
C134	C	-0.285321	-0.945266	-0.232872
C135	C	0.048013	-0.611933	0.100461
N136	N	-0.587696	-1.333174	-0.511718
N137	N	-0.254362	-0.999841	-0.178385
N138	N	0.078971	-0.666507	0.154948
C139	C	-0.611340	-1.387779	-0.457241
C140	C	-0.278007	-1.054445	-0.123908
C141	C	0.055327	-0.721112	0.209426
C142	C	-0.951725	-1.278807	-0.566284
C143	C	-0.618392	-0.945474	-0.232951
C144	C	-0.285059	-0.612140	0.100383
C145	C	-1.006327	-1.278832	-0.566290
C146	C	-0.672994	-0.945498	-0.232957
C147	C	-0.339660	-0.612165	0.100377
C148	C	-0.999012	-1.388014	-0.457320
C149	C	-0.665679	-1.054681	-0.123987
C150	C	-0.332346	-0.721348	0.209347
C151	C	-0.944410	-1.387984	-0.457310
C152	C	-0.611076	-1.054651	-0.123977
C153	C	-0.277743	-0.721317	0.209356
C154	C	-0.920767	-1.333381	-0.511797
C155	C	-0.587434	-1.000048	-0.178464
C156	C	-0.254100	-0.666715	0.154870
C157	C	-0.496677	-1.387696	-0.457213
C158	C	-0.163343	-1.054362	-0.123879
C159	C	0.169990	-0.721029	0.209454
C160	C	-0.442072	-1.387651	-0.457200
C161	C	-0.108739	-1.054317	-0.123866
C162	C	0.224594	-0.720984	0.209467
C163	C	-0.449392	-1.278472	-0.566172
C164	C	-0.116058	-0.945139	-0.232839
C165	C	0.217275	-0.611805	0.100494
C166	C	-0.503991	-1.278513	-0.566182
C167	C	-0.170658	-0.945180	-0.232849
C168	C	0.162676	-0.611846	0.100484
C169	C	-0.527632	-1.333132	-0.511700
C170	C	-0.194299	-0.999799	-0.178367
C171	C	0.139035	-0.666465	0.154967
O172	O	-0.593480	-1.232162	-0.612488
O173	O	-0.260147	-0.898828	-0.279155
O174	O	0.073186	-0.565495	0.054178
O175	O	-0.579987	-1.434195	-0.410910
O176	O	-0.246654	-1.100862	-0.077577
O177	O	0.086679	-0.767529	0.255757
C178	C	-0.088092	-1.333363	-0.511785
C179	C	0.245242	-1.000030	-0.178452
C180	C	0.578575	-0.666697	0.154881
C181	C	-0.029976	-1.333440	-0.511816
C182	C	0.303357	-1.000107	-0.178482
C183	C	0.636691	-0.666774	0.154851
C184	C	-0.231864	-1.346853	-0.747808
C185	C	0.101469	-1.013519	-0.414475
C186	C	0.434802	-0.680186	-0.081141
C187	C	-0.235016	-1.352678	-0.848417
C188	C	0.098317	-1.019345	-0.515084
C189	C	0.431651	-0.686012	-0.181751
C190	C	-0.217050	-0.569290	-0.525383
C191	C	0.116283	-0.235956	-0.192050
C192	C	0.449617	0.097377	0.141283
C193	C	-0.213877	-0.669904	-0.531192
C194	C	0.119456	-0.336571	-0.197858
C195	C	0.452790	-0.003237	0.135475
C196	C	-0.177700	-1.247911	-1.030802
C197	C	0.155633	-0.914577	-0.697469
C198	C	0.488967	-0.581244	-0.364135
C199	C	-0.180660	-1.253381	-1.125333
C200	C	0.152674	-0.920048	-0.792000
C201	C	0.486007	-0.586714	-0.458667
C202	C	-0.243898	-1.369084	-1.132013
C203	C	0.089436	-1.035751	-0.798679
C204	C	0.422769	-0.702418	-0.465346
C205	C	-0.240938	-1.363614	-1.037481
C206	C	0.092395	-1.030281	-0.704148
C207	C	0.425729	-0.696947	-0.370815
C208	C	-0.207837	-1.303026	-0.986879
C209	C	0.125496	-0.969693	-0.653546
C210	C	0.458829	-0.636359	-0.320213
C211	C	-0.204875	-1.297561	-0.892346
C212	C	0.128458	-0.964227	-0.559013
C213	C	0.461791	-0.630894	-0.225680
C214	C	-0.268116	-1.413259	-0.899027
C215	C	0.065218	-1.079926	-0.565694
C216	C	0.398551	-0.746592	-0.232361
C217	C	-0.271075	-1.418729	-0.993559
C218	C	0.062258	-1.085396	-0.660225
C219	C	0.395591	-0.752063	-0.326892
C220	C	-0.217062	-1.319617	-0.276541
C221	C	0.116272	-0.986284	0.056793
C222	C	0.449605	-0.652950	0.390126
C223	C	-0.213757	-1.313967	-0.175942
C224	C	0.119576	-0.980634	0.157391
C225	C	0.452910	-0.647300	0.490725
H226	H	-0.178021	-0.994766	-0.596998
H227	H	0.155312	-0.661433	-0.263664
H228	H	0.488645	-0.328100	0.069669
H229	H	-0.156317	-0.684873	-0.636907
H230	H	0.177016	-0.351539	-0.303574
H231	H	0.510349	-0.018206	0.029760
H232	H	-0.156119	-1.208501	-1.161091
H233	H	0.177215	-0.875167	-0.827758
H234	H	0.510548	-0.541834	-0.494424
C235	C	-0.280559	-1.435306	-1.187665
C236	C	0.052774	-1.101972	-0.854332
C237	C	0.386107	-0.768639	-0.520999
N238	N	-0.308264	-1.485034	-1.229575
N239	N	0.025070	-1.151701	-0.896242
N240	N	0.358403	-0.818368	-0.562908
C241	C	-0.141287	-1.181268	-0.975138
C242	C	0.192046	-0.847935	-0.641804
C243	C	0.525379	-0.514601	-0.308471
N244	N	-0.113861	-1.131071	-0.933213
N245	N	0.219472	-0.797737	-0.599879
N246	N	0.552806	-0.464404	-0.266546
H247	H	-0.784002	-1.179664	-0.665117
H248	H	-0.450669	-0.846331	-0.331784
H249	H	-0.117336	-0.512997	0.001549
H250	H	-0.297981	-0.810897	-0.376670
H251	H	0.035352	-0.477564	-0.043337
H252	H	0.368685	-0.144231	0.289997
C253	C	-0.301179	-0.994954	-0.370771
C254	C	0.032154	-0.661621	-0.037438
C255	C	0.365488	-0.328288	0.295895
N256	N	-0.326106	-1.031300	-0.324986
N257	N	0.007227	-0.697967	0.008348
N258	N	0.340561	-0.364633	0.341681
H259	H	-0.177921	-1.248230	-0.851148
H260	H	0.155412	-0.914897	-0.517814
H261	H	0.488746	-0.581564	-0.184481
C262	C	-0.301269	-1.473890	-0.850705
C263	C	0.032064	-1.140556	-0.517372
C264	C	0.365397	-0.807223	-0.184038
N265	N	-0.326239	-1.519557	-0.814308
N266	N	0.007094	-1.186224	-0.480975
N267	N	0.340428	-0.852890	-0.147641
H268	H	-0.150917	-0.856371	-0.646807
H269	H	0.182416	-0.523038	-0.313474
H270	H	0.515750	-0.189705	0.019860
C271	C	-0.280323	-0.658017	-0.409126
C272	C	0.053011	-0.324684	-0.075792
C273	C	0.386344	0.008649	0.257541
N274	N	-0.307711	-0.616023	-0.358814
N275	N	0.025623	-0.282690	-0.025480
N276	N	0.358956	0.050644	0.307853
H277	H	-1.031527	-1.234385	-0.610658
H278	H	-0.698194	-0.901052	-0.277325
H279	H	-0.364860	-0.567719	0.056008
H280	H	-0.416869	-1.432089	-0.412818
H281	H	-0.083536	-1.098755	-0.079484
H282	H	0.249797	-0.765422	0.253849
C283	C	-0.925723	-1.218739	-0.626232
C284	C	-0.592390	-0.885406	-0.292898
C285	C	-0.259057	-0.552073	0.040435
N286	N	-0.906142	-1.173502	-0.671389
N287	N	-0.572808	-0.840168	-0.338056
N288	N	-0.239475	-0.506835	-0.004723
C289	C	-0.522673	-1.447773	-0.397273
C290	C	-0.189340	-1.114440	-0.063940
C291	C	0.143993	-0.781107	0.269393
N292	N	-0.542254	-1.493019	-0.352122
N293	N	-0.208921	-1.159685	-0.018788
N294	N	0.124413	-0.826352	0.314545
C295	C	-0.655542	-1.502439	-0.342814
C296	C	-0.322209	-1.169106	-0.009480
C297	C	0.011125	-0.835772	0.323853
N298	N	-0.629903	-1.547651	-0.297646
N299	N	-0.296569	-1.214317	0.035687
N300	N	0.036764	-0.880984	0.369021
H301	H	-0.430132	-1.234010	-0.610524
H302	H	-0.096799	-0.900677	-0.277191
H303	H	0.236535	-0.567344	0.056142
H304	H	-0.763431	-1.486921	-0.358427
H305	H	-0.430098	-1.153588	-0.025093
H306	H	-0.096765	-0.820255	0.308240
H307	H	-0.684953	-1.179618	-0.665103
H308	H	-0.351620	-0.846285	-0.331769
H309	H	-0.018287	-0.512951	0.001564
H310	H	-0.919208	-1.432421	-0.412934
H311	H	-0.585875	-1.099088	-0.079601
H312	H	-0.252542	-0.765754	0.253733
H313	H	-0.298027	-1.468055	-1.034772
H314	H	0.035307	-1.134722	-0.701438
H315	H	0.368640	-0.801389	-0.368105
C316	C	-1.025031	-1.448089	-0.397401
C317	C	-0.691698	-1.114755	-0.064068
C318	C	-0.358365	-0.781422	0.269266
N319	N	-1.044631	-1.493335	-0.352274
N320	N	-0.711297	-1.160002	-0.018941
N321	N	-0.377964	-0.826668	0.314393
H322	H	-0.529197	-1.234080	-0.610562
H323	H	-0.195864	-0.900746	-0.277228
H324	H	0.137470	-0.567413	0.056105
