data_functionalizedCrystal
_audit_creation_method	'MofGen! by Chris Wilmer'
_symmetry_space_group_name_H-M	'P1'
_symmetry_Int_Tables_number	1
_symmetry_cell_setting	triclinic
loop_
_symmetry_equiv_pos_as_xyz
  x,y,z
_cell_length_a	11.792241
_cell_length_b	11.026607
_cell_length_c	9.482900
_cell_angle_alpha	101.363848
_cell_angle_beta	99.398500
_cell_angle_gamma	83.610284
loop_
_atom_site_label
_atom_site_type_symbol
_atom_site_fract_x
_atom_site_fract_y
_atom_site_fract_z
O1	O	0.461983	-1.632118	-0.120906
O2	O	0.961983	-1.132118	0.379094
O3	O	0.407791	-1.278456	-0.120907
O4	O	0.907791	-0.778456	0.379093
O5	O	0.271422	-1.463868	-0.120897
O6	O	0.771422	-0.963868	0.379103
O7	O	0.598353	-1.446706	-0.120917
O8	O	1.098353	-0.946706	0.379083
O9	O	0.299264	-1.426207	0.120894
O10	O	0.799264	-0.926207	0.620894
O11	O	0.435633	-1.240795	0.120883
O12	O	0.935633	-0.740795	0.620883
O13	O	0.489825	-1.594458	0.120884
O14	O	0.989825	-1.094458	0.620884
Cu15	Cu	0.465271	-1.414188	0.142961
Cu16	Cu	0.965271	-0.914188	0.642961
Cu17	Cu	0.432345	-1.458726	-0.142984
Cu18	Cu	0.932345	-0.958726	0.357016
O19	O	0.626195	-1.409046	0.120873
O20	O	1.126195	-0.909046	0.620873
C21	C	0.411715	-1.214349	-0.000012
C22	C	0.911715	-0.714349	0.499988
C23	C	0.381912	-1.079439	-0.000012
C24	C	0.881912	-0.579439	0.499988
C25	C	0.242838	-1.443960	-0.000002
C26	C	0.742838	-0.943960	0.499998
C27	C	0.116183	-1.440733	-0.000003
C28	C	0.616183	-0.940733	0.499997
C29	C	0.485901	-1.658565	-0.000014
C30	C	0.985901	-1.158565	0.499986
C31	C	0.515703	-1.793477	-0.000024
C32	C	1.015703	-1.293477	0.499976
C33	C	-0.115710	-1.434802	-0.000028
C34	C	0.384290	-0.934802	0.499972
C35	C	0.013331	-1.438097	-0.000014
C36	C	0.513331	-0.938097	0.499986
C37	C	0.654778	-1.428955	-0.000025
C38	C	1.154778	-0.928955	0.499975
C39	C	0.781432	-1.432183	-0.000033
C40	C	1.281432	-0.932183	0.499967
N41	N	0.488431	-1.382871	0.344079
N42	N	0.988431	-0.882871	0.844079
C43	C	0.464202	-1.006176	-0.000018
C44	C	0.964202	-0.506176	0.499982
C45	C	0.433401	-0.866739	-0.000018
C46	C	0.933401	-0.366739	0.499982
N47	N	0.409178	-1.490052	-0.344102
N48	N	0.909178	-0.990052	0.155898
C49	C	0.439169	-1.449480	0.416282
C50	C	0.939169	-0.949480	0.916282
C51	C	0.458448	-1.423433	0.583698
C52	C	0.958448	-0.923433	1.083698
H53	H	0.557456	-1.046680	-0.000015
H54	H	1.057456	-0.546680	0.499985
N55	N	0.309868	-0.813104	0.000007
N56	N	0.809868	-0.313104	0.500007
H57	H	0.305376	-0.721097	0.000010
H58	H	0.805376	-0.221097	0.500010
H59	H	0.260478	-0.855187	-0.089623
H60	H	0.760478	-0.355187	0.410377
N61	N	0.533218	-1.322338	0.665975
N62	N	1.033218	-0.822338	1.165975
H63	H	0.600182	-1.359486	0.729117
H64	H	1.100182	-0.859486	1.229117
H65	H	0.563360	-1.281498	0.594699
H66	H	1.063360	-0.781498	1.094699
H67	H	0.608964	-0.833974	-0.000020
H68	H	1.108964	-0.333974	0.499980
H69	H	0.288655	-1.038939	-0.000043
H70	H	0.788655	-0.538939	0.499957
N71	N	0.364359	-1.550534	0.334007
N72	N	0.864359	-1.050534	0.834007
H73	H	0.361175	-1.554804	0.226073
H74	H	0.861175	-1.054804	0.726073
H75	H	0.397941	-1.632795	0.360495
H76	H	0.897941	-1.132795	0.860495
H77	H	0.352721	-1.566362	0.593777
H78	H	0.852721	-1.066362	1.093777
N79	N	0.563197	-1.281781	0.426362
N80	N	1.063197	-0.781781	0.926362
H81	H	0.630161	-1.318929	0.489504
H82	H	1.130161	-0.818929	0.989504
H83	H	0.593339	-1.240941	0.355085
H84	H	1.093339	-0.740941	0.855085
