data_functionalizedCrystal
_audit_creation_method	'MofGen! by Chris Wilmer'
_symmetry_space_group_name_H-M	'P1'
_symmetry_Int_Tables_number	1
_symmetry_cell_setting	triclinic
loop_
_symmetry_equiv_pos_as_xyz
  x,y,z
_cell_length_a	18.101398
_cell_length_b	21.295417
_cell_length_c	18.101389
_cell_angle_alpha	90.022566
_cell_angle_beta	90.024327
_cell_angle_gamma	90.025773
loop_
_atom_site_label
_atom_site_type_symbol
_atom_site_fract_x
_atom_site_fract_y
_atom_site_fract_z
Zn1	Zn	1.132124	-0.250755	0.418817
Zn2	Zn	1.632124	0.249245	0.918817
Zn3	Zn	1.132021	-0.356008	0.294967
Zn4	Zn	1.632021	0.143992	0.794967
Zn5	Zn	1.008283	-0.250748	0.294979
Zn6	Zn	1.508283	0.249252	0.794979
Zn7	Zn	1.008235	-0.355981	0.418755
Zn8	Zn	1.508235	0.144019	0.918755
O9	O	1.070166	-0.303373	0.356880
O10	O	1.570166	0.196627	0.856880
O11	O	1.235743	-0.264731	0.402409
O12	O	1.735743	0.235269	0.902409
O13	O	1.115584	-0.342054	0.191335
O14	O	1.615584	0.157946	0.691335
O15	O	1.024774	-0.162660	0.311437
O16	O	1.524774	0.337340	0.811437
O17	O	1.235668	-0.342060	0.311417
O18	O	1.735668	0.157940	0.811417
O19	O	1.115759	-0.162664	0.402421
O20	O	1.615759	0.337336	0.902421
O21	O	1.024674	-0.264720	0.191344
O22	O	1.524674	0.235280	0.691344
O23	O	0.904644	-0.264694	0.311377
O24	O	1.404644	0.235306	0.811377
O25	O	1.024692	-0.342014	0.522397
O26	O	1.524692	0.157986	1.022397
O27	O	0.904609	-0.342008	0.402315
O28	O	1.404609	0.157992	0.902315
O29	O	1.115713	-0.264705	0.522442
O30	O	1.615713	0.235295	1.022442
O31	O	1.115538	-0.444094	0.311357
O32	O	1.615538	0.055906	0.811357
O33	O	1.024592	-0.444074	0.402304
O34	O	1.524592	0.055926	0.902304
C35	C	0.877755	-0.303348	0.356841
C36	C	1.377755	0.196652	0.856841
C37	C	0.795441	-0.303352	0.356842
C38	C	1.295441	0.196648	0.856842
C39	C	0.496350	-0.303391	0.356904
C40	C	0.996350	0.196609	0.856904
C41	C	0.527673	-0.254504	0.299967
C42	C	1.027673	0.245496	0.799967
C43	C	0.613291	-0.254635	0.299724
C44	C	1.113291	0.245365	0.799724
C45	C	0.644733	-0.303371	0.356873
C46	C	1.144733	0.196629	0.856873
C47	C	0.613615	-0.369679	0.335543
C48	C	1.113615	0.130321	0.835543
C49	C	0.527970	-0.369407	0.335147
C50	C	1.027970	0.130593	0.835147
C51	C	0.527965	-0.286547	0.435305
C52	C	1.027965	0.213453	0.935305
C53	C	0.613615	-0.285070	0.434877
C54	C	1.113615	0.214930	0.934877
C55	C	0.728592	-0.303364	0.356857
C56	C	1.228592	0.196636	0.856857
C57	C	0.412491	-0.303403	0.356919
C58	C	0.912491	0.196597	0.856919
C59	C	1.070069	-0.466925	0.356839
C60	C	1.570069	0.033075	0.856839
C61	C	1.070095	-0.536893	0.356846
C62	C	1.570095	-0.036893	0.856846
C63	C	1.117492	-0.569749	0.309538
C64	C	1.617492	-0.069749	0.809538
C65	C	1.117527	-0.635491	0.309555
C66	C	1.617527	-0.135491	0.809555
C67	C	1.070151	-0.668375	0.356871
C68	C	1.570151	-0.168375	0.856871
C69	C	1.022751	-0.635511	0.404188
C70	C	1.522751	-0.135511	0.904188
C71	C	1.022722	-0.569770	0.404175
C72	C	1.522722	-0.069770	0.904175
N73	N	1.005367	-0.771637	0.362504
N74	N	1.505367	-0.271637	0.862504
N75	N	1.005396	-0.834089	0.362512
N76	N	1.505396	-0.334089	0.862512
C77	C	1.070234	-0.866450	0.356914
C78	C	1.570234	-0.366450	0.856914
N79	N	1.135044	-0.834001	0.351293
N80	N	1.635044	-0.334001	0.851293
N81	N	1.135014	-0.771543	0.351282
N82	N	1.635014	-0.271543	0.851282
C83	C	1.070177	-0.739661	0.356891
C84	C	1.570177	-0.239661	0.856891
C85	C	1.117673	-0.970592	0.309622
C86	C	1.617673	-0.470592	0.809622
C87	C	1.117709	-1.036335	0.309644
C88	C	1.617709	-0.536335	0.809644
C89	C	1.022926	-1.036354	0.404273
C90	C	1.522926	-0.536354	0.904273
C91	C	1.022897	-0.970612	0.404255
C92	C	1.522897	-0.470612	0.904255
C93	C	1.070269	-0.937734	0.356925
C94	C	1.570269	-0.437734	0.856925
C95	C	1.263328	-0.303399	0.356919
C96	C	1.763328	0.196601	0.856919
C97	C	1.345642	-0.303410	0.356935
C98	C	1.845642	0.196590	0.856935
C99	C	1.070209	-0.303357	0.550042
C100	C	1.570209	0.196643	1.050042
C101	C	1.070227	-0.303350	0.632356
C102	C	1.570227	0.196650	1.132356
C103	C	1.070283	-0.139183	0.356937
C104	C	1.570283	0.360817	0.856937
C105	C	1.070334	-0.069215	0.356961
C106	C	1.570334	0.430785	0.856961
C107	C	1.070166	-0.303344	0.164469
C108	C	1.570166	0.196656	0.664469
C109	C	1.070291	-0.303173	0.082155
C110	C	1.570291	0.196827	0.582155
C111	C	1.070270	-0.303232	0.931447
C112	C	1.570270	0.196768	1.431447
C113	C	1.012805	-0.351719	0.900093
C114	C	1.512805	0.148281	1.400093
C115	C	1.012960	-0.351944	0.814475
C116	C	1.512960	0.148056	1.314475
C117	C	1.070248	-0.303291	0.783064
C118	C	1.570248	0.196709	1.283064
C119	C	1.148274	-0.321303	0.814168
C120	C	1.648274	0.178697	1.314168
C121	C	1.147953	-0.321621	0.899813
C122	C	1.647953	0.178379	1.399813
C123	C	1.050388	-0.236626	0.899877
C124	C	1.550388	0.263374	1.399877
C125	C	1.048652	-0.237011	0.814226
C126	C	1.548652	0.262989	1.314226
C127	C	1.070240	-0.303323	0.699205
C128	C	1.570240	0.196677	1.199205
C129	C	1.070283	-0.303202	1.015306
C130	C	1.570283	0.196798	1.515306
H131	H	0.633959	-0.236275	0.450961
H132	H	1.133959	0.263725	0.950961
O133	O	1.100049	-0.186613	0.785917
O134	O	1.600049	0.313387	1.285917
H135	H	1.141979	-0.208115	0.749035
H136	H	1.641979	0.291885	1.249035
O137	O	0.971768	-0.935172	0.455277
O138	O	1.471768	-0.435172	0.955277
H139	H	0.979711	-0.883934	0.447324
H140	H	1.479711	-0.383934	0.947324
H141	H	0.635030	-0.384213	0.278847
H142	H	1.135030	0.115787	0.778847
H143	H	0.507249	-0.407065	0.374809
H144	H	1.007249	0.092935	0.874809
H145	H	0.954772	-0.340562	0.920680
H146	H	1.454772	0.159438	1.420680
H147	H	0.955101	-0.340671	0.793443
H148	H	1.455101	0.159329	1.293443
O149	O	0.640586	-0.419223	0.388753
O150	O	1.140586	0.080777	0.888753
H151	H	0.672486	-0.455281	0.358064
H152	H	1.172486	0.044719	0.858064
O153	O	0.971826	-1.071817	0.455305
O154	O	1.471826	-0.571817	0.955305
H155	H	0.984491	-1.059167	0.513439
H156	H	1.484491	-0.559167	1.013439
O157	O	1.029986	-0.416714	0.928628
O158	O	1.529986	0.083286	1.428628
H159	H	1.079281	-0.414636	0.965038
H160	H	1.579281	0.085364	1.465038
O161	O	0.641940	-0.328812	0.494085
O162	O	1.141940	0.171188	0.994085
H163	H	0.678801	-0.364438	0.468726
H164	H	1.178801	0.135562	0.968726
H165	H	0.506392	-0.239037	0.454697
H166	H	1.006392	0.260963	0.954697
O167	O	1.168787	-0.935134	0.258591
O168	O	1.668787	-0.435134	0.758591
H169	H	1.206424	-0.905141	0.291780
H170	H	1.706424	-0.405141	0.791780
H171	H	1.192239	-0.287098	0.793825
H172	H	1.692239	0.212902	1.293825
O173	O	1.168588	-0.534288	0.258495
O174	O	1.668588	-0.034288	0.758495
H175	H	1.206231	-0.504292	0.291674
H176	H	1.706231	-0.004292	0.791674
O177	O	1.168831	-1.071778	0.258616
O178	O	1.668831	-0.571778	0.758616
H179	H	1.201759	-1.037869	0.225699
H180	H	1.701759	-0.537869	0.725699
H181	H	1.156126	-0.662248	0.271032
H182	H	1.656126	-0.162248	0.771032
O183	O	1.030252	-0.417357	0.787327
O184	O	1.530252	0.082643	1.287327
H185	H	1.038559	-0.448948	0.835371
H186	H	1.538559	0.051052	1.335371
O187	O	1.170267	-0.386117	0.926288
O188	O	1.670267	0.113883	1.426288
H189	H	1.181181	-0.416787	0.877919
H190	H	1.681181	0.083213	1.377919
O191	O	0.971642	-0.670973	0.455216
O192	O	1.471642	-0.170973	0.955216
H193	H	0.979616	-0.722208	0.447269
H194	H	1.479616	-0.222208	0.947269
O195	O	1.206599	-0.276887	0.927300
O196	O	1.706599	0.223113	1.427300
H197	H	1.235066	-0.255127	0.879418
H198	H	1.735066	0.244873	1.379418
H199	H	0.507102	-0.205183	0.313191
H200	H	1.007102	0.294817	0.813191
O201	O	0.501130	-0.333704	0.491507
O202	O	1.001130	0.166296	0.991507
H203	H	0.465450	-0.368971	0.463784
H204	H	0.965450	0.131029	0.963784
O205	O	0.971586	-0.534326	0.455188
O206	O	1.471586	-0.034326	0.955188
H207	H	0.938641	-0.568234	0.488089
H208	H	1.438641	-0.068234	0.988089
H209	H	1.165420	-0.369476	0.792722
H210	H	1.665420	0.130524	1.292722
H211	H	0.994480	-0.220216	0.921464
H212	H	1.494480	0.279784	1.421464
O213	O	0.972600	-0.219004	0.787287
O214	O	1.472600	0.280996	1.287287
H215	H	0.950270	-0.257096	0.751848
H216	H	1.450270	0.242904	1.251848
H217	H	1.092243	-0.200501	0.920156
H218	H	1.592243	0.299499	1.420156
H219	H	0.506124	-0.265512	0.242211
H220	H	1.006124	0.234488	0.742211
O221	O	0.641171	-0.189501	0.317410
O222	O	1.141171	0.310499	0.817410
H223	H	0.593481	-0.157624	0.326213
H224	H	1.093481	0.342376	0.826213
O225	O	0.640378	-0.269361	0.222763
O226	O	1.140378	0.230639	0.722763
H227	H	0.619590	-0.316225	0.205728
H228	H	1.119590	0.183775	0.705728
O229	O	0.501453	-0.388321	0.259227
O230	O	1.001453	0.111679	0.759227
H231	H	0.549801	-0.397572	0.223140
H232	H	1.049801	0.102428	0.723140
