data_functionalizedCrystal
_audit_creation_method	'MofGen! by Chris Wilmer'
_symmetry_space_group_name_H-M	'P1'
_symmetry_Int_Tables_number	1
_symmetry_cell_setting	triclinic
loop_
_symmetry_equiv_pos_as_xyz
  x,y,z
_cell_length_a	21.295418
_cell_length_b	21.295417
_cell_length_c	21.295411
_cell_angle_alpha	89.978356
_cell_angle_beta	89.956262
_cell_angle_gamma	90.046319
loop_
_atom_site_label
_atom_site_type_symbol
_atom_site_fract_x
_atom_site_fract_y
_atom_site_fract_z
Zn1	Zn	0.962356	-0.250415	-0.356234
Zn2	Zn	0.962258	-0.355667	-0.250959
Zn3	Zn	0.857079	-0.250445	-0.250943
Zn4	Zn	0.857048	-0.355680	-0.356155
O5	O	0.909685	-0.303052	-0.303573
O6	O	1.050432	-0.264360	-0.342308
O7	O	0.948278	-0.341716	-0.162867
O8	O	0.871098	-0.162351	-0.264937
O9	O	1.050361	-0.341688	-0.264963
O10	O	0.948444	-0.162330	-0.342293
O11	O	0.871003	-0.264410	-0.162856
O12	O	0.768985	-0.264422	-0.264861
O13	O	0.871046	-0.341709	-0.444255
O14	O	0.768963	-0.341738	-0.342160
O15	O	0.948415	-0.264372	-0.444313
O16	O	0.948248	-0.443758	-0.264887
O17	O	0.870951	-0.443767	-0.342175
C18	C	0.746134	-0.303085	-0.303500
C19	C	0.676166	-0.303114	-0.303484
C20	C	0.643304	-0.343426	-0.343674
C21	C	0.577561	-0.343410	-0.343702
C22	C	0.544683	-0.303090	-0.303530
C23	C	0.577553	-0.262770	-0.263337
C24	C	0.643294	-0.262783	-0.263315
N25	N	0.441407	-0.298163	-0.248472
N26	N	0.378956	-0.298155	-0.248495
C27	C	0.346608	-0.303050	-0.303596
N28	N	0.379072	-0.307965	-0.358675
N29	N	0.441529	-0.307976	-0.358650
C30	C	0.473398	-0.303072	-0.303550
C31	C	0.242461	-0.343346	-0.343820
C32	C	0.176717	-0.343326	-0.343849
C33	C	0.176710	-0.262690	-0.263479
C34	C	0.242453	-0.262707	-0.263455
C35	C	0.275324	-0.303038	-0.303625
C36	C	0.909603	-0.466603	-0.303538
C37	C	0.909625	-0.536571	-0.303544
C38	C	0.949910	-0.569412	-0.263342
C39	C	0.949939	-0.635155	-0.263356
C40	C	0.909673	-0.668054	-0.303566
C41	C	0.869386	-0.635205	-0.343776
C42	C	0.869362	-0.569464	-0.343765
N43	N	0.854606	-0.771336	-0.308340
N44	N	0.854630	-0.833787	-0.308347
C45	C	0.909743	-0.866129	-0.303602
N46	N	0.964832	-0.833659	-0.298838
N47	N	0.964807	-0.771202	-0.298828
C48	C	0.909695	-0.739339	-0.303582
C49	C	0.950063	-0.970255	-0.263413
C50	C	0.950094	-1.035999	-0.263431
C51	C	0.869535	-1.036048	-0.343848
C52	C	0.869510	-0.970305	-0.343833
C53	C	0.909773	-0.937413	-0.303612
C54	C	1.073876	-0.303019	-0.303646
C55	C	1.143844	-0.303005	-0.303677
C56	C	0.909738	-0.303038	-0.467763
C57	C	0.909760	-0.303033	-0.537731
C58	C	0.909785	-0.138861	-0.303622
C59	C	0.909828	-0.068893	-0.303642
C60	C	0.950044	-0.262761	-0.570629
C61	C	0.950043	-0.262734	-0.636371
C62	C	0.909765	-0.302989	-0.669214
C63	C	0.869473	-0.343263	-0.636308
C64	C	0.869470	-0.343285	-0.570567
N65	N	0.904908	-0.358058	-0.772428
N66	N	0.904914	-0.358036	-0.834879
C67	C	0.909769	-0.302926	-0.867289
N68	N	0.914629	-0.247837	-0.834888
N69	N	0.914627	-0.247860	-0.772430
C70	C	0.909763	-0.302970	-0.740499
C71	C	0.950054	-0.262621	-0.971472
C72	C	0.950049	-0.262593	-1.037216
C73	C	0.869482	-0.343128	-1.037151
C74	C	0.869484	-0.343151	-0.971409
C75	C	0.909773	-0.302898	-0.938573
C76	C	0.909670	-0.303019	-0.140021
C77	C	0.909769	-0.302848	-0.070054
H78	H	0.269209	-0.229884	-0.230726
C79	C	0.744066	-0.227000	-0.227595
C80	C	0.679421	-0.218472	-0.219133
H81	H	0.766369	-0.199641	-0.200320
H82	H	0.754781	-0.269279	-0.218299
H83	H	0.754891	-0.217851	-0.269906
H84	H	0.668595	-0.227625	-0.176824
H85	H	0.668702	-0.176183	-0.228425
H86	H	0.550779	-0.229940	-0.230630
C87	C	1.034742	-0.253887	-0.897612
C88	C	0.994338	-0.218374	-0.935377
H89	H	1.062084	-0.226570	-0.875334
H90	H	1.010753	-0.277870	-0.868609
H91	H	1.058799	-0.281298	-0.923285
H92	H	0.970278	-0.190966	-0.909703
H93	H	1.018330	-0.194380	-0.964383
C94	C	0.762865	-0.373941	-0.656478
C95	C	0.825199	-0.387513	-0.672408
H96	H	0.735531	-0.401256	-0.678767
H97	H	0.757100	-0.379720	-0.612622
H98	H	0.753688	-0.331642	-0.667252
H99	H	0.834377	-0.429810	-0.661629
H100	H	0.830966	-0.381740	-0.716273
H101	H	0.670063	-0.376266	-0.376384
C102	C	0.584165	-0.423121	-0.423138
C103	C	0.541429	-0.387721	-0.387883
H104	H	0.561858	-0.450477	-0.450412
H105	H	0.609860	-0.395736	-0.447258
H106	H	0.609752	-0.447165	-0.395652
H107	H	0.515845	-0.363674	-0.415369
H108	H	0.515723	-0.415109	-0.363762
H109	H	0.836663	-0.376078	-0.543782
C110	C	1.029697	-0.183003	-1.030672
C111	C	0.994334	-0.218324	-1.073379
H112	H	1.057039	-0.155676	-1.053000
H113	H	1.002288	-0.158936	-1.005011
H114	H	1.053754	-0.210444	-1.005047
H115	H	0.970273	-0.190883	-1.099002
H116	H	1.021746	-0.242392	-1.099050
C117	C	0.235867	-0.423042	-0.423272
C118	C	0.278598	-0.387668	-0.387982
H119	H	0.258177	-0.450400	-0.450538
H120	H	0.210172	-0.447077	-0.395813
H121	H	0.210279	-0.395636	-0.447407
H122	H	0.304184	-0.415074	-0.363843
H123	H	0.304304	-0.363632	-0.415444
H124	H	0.982696	-0.542633	-0.230593
H125	H	0.836680	-0.375898	-1.063891
C126	C	1.034865	-1.109753	-0.254879
C127	C	0.994442	-1.072065	-0.219273
H128	H	1.062264	-1.132006	-0.227626
H129	H	1.010893	-1.138778	-0.278795
H130	H	1.058859	-1.084031	-0.282357
H131	H	0.970444	-1.097788	-0.191798
H132	H	1.018416	-1.043037	-0.195346
C133	C	1.029693	-0.183144	-0.629838
C134	C	0.994331	-0.218469	-0.672543
H135	H	1.057037	-0.155820	-0.652169
H136	H	1.002284	-0.159074	-0.604181
H137	H	1.053749	-0.210582	-0.604210
H138	H	0.970271	-0.191030	-0.698168
H139	H	1.021743	-0.242541	-0.698210
C140	C	0.102880	-0.352190	-0.428540
C141	C	0.140595	-0.387640	-0.388031
H142	H	0.080583	-0.379550	-0.455819
H143	H	0.073894	-0.328178	-0.404623
H144	H	0.128590	-0.324809	-0.452659
H145	H	0.114885	-0.415018	-0.363908
H146	H	0.169585	-0.411663	-0.411951
H147	H	0.836752	-1.062833	-0.376591
C148	C	0.833709	-0.378942	-0.870605
C149	C	0.825207	-0.387424	-0.935243
H150	H	0.806369	-0.406272	-0.848279
H151	H	0.875994	-0.388150	-0.859865
H152	H	0.824521	-0.336650	-0.859832
H153	H	0.834400	-0.429715	-0.946016
H154	H	0.782913	-0.378219	-0.945986
C155	C	0.075934	-0.226897	-0.227798
C156	C	0.140578	-0.218388	-0.219300
H157	H	0.053627	-0.199552	-0.200515
H158	H	0.065211	-0.217724	-0.270102
H159	H	0.065124	-0.269185	-0.218528
H160	H	0.151390	-0.176101	-0.228575
H161	H	0.151306	-0.227556	-0.176986
H162	H	0.982746	-0.661899	-0.230619
C163	C	0.958817	-0.178090	-0.496734
C164	C	0.994313	-0.218493	-0.534545
H165	H	0.986145	-0.150758	-0.474457
H166	H	0.931404	-0.154029	-0.522370
H167	H	0.934838	-0.202086	-0.467724
H168	H	1.018290	-0.194498	-0.563559
H169	H	1.021738	-0.242557	-0.508906
H170	H	0.836704	-0.943564	-0.376567
H171	H	0.836602	-0.661996	-0.376516
H172	H	0.836557	-0.542724	-0.376503
C173	C	1.029695	-0.976807	-0.183928
C174	C	0.994323	-0.934095	-0.219208
H175	H	1.057021	-0.954483	-0.156640
H176	H	1.002291	-1.002496	-0.159822
H177	H	1.053771	-1.002404	-0.211397
H178	H	0.970244	-0.908501	-0.191738
H179	H	1.021731	-0.908396	-0.243315
