data_functionalizedCrystal
_audit_creation_method	'MofGen! by Chris Wilmer'
_symmetry_space_group_name_H-M	'P1'
_symmetry_Int_Tables_number	1
_symmetry_cell_setting	triclinic
loop_
_symmetry_equiv_pos_as_xyz
  x,y,z
_cell_length_a	14.044191
_cell_length_b	12.503572
_cell_length_c	10.654551
_cell_angle_alpha	86.439802
_cell_angle_beta	88.838569
_cell_angle_gamma	93.837835
loop_
_atom_site_label
_atom_site_type_symbol
_atom_site_fract_x
_atom_site_fract_y
_atom_site_fract_z
O1	O	1.265120	0.089256	0.296376
O2	O	0.989079	0.089270	0.285432
O3	O	1.133446	0.089263	0.108803
O4	O	1.120753	0.089263	0.473005
O5	O	1.122588	-0.089378	0.122110
O6	O	0.978222	-0.089372	0.298740
O7	O	1.254263	-0.089386	0.309683
Cu8	Cu	1.115251	-0.105690	0.305427
Cu9	Cu	1.128091	0.105574	0.289689
O10	O	1.109896	-0.089379	0.486313
C11	C	0.948305	-0.000049	0.287299
C12	C	0.842985	-0.000043	0.273019
N13	N	1.106227	-0.254282	0.316496
C14	C	0.593192	-0.000054	0.348185
C15	C	0.650155	-0.000052	0.246935
C16	C	0.757456	-0.000047	0.261452
C17	C	0.485882	-0.000059	0.333670
C18	C	1.092953	-0.473396	0.332789
C19	C	1.150393	-0.526726	0.262321
C20	C	1.143007	-0.648649	0.271387
C21	C	1.100337	-0.351463	0.323725
C22	C	1.295037	-0.000064	0.307816
C23	C	1.400357	-0.000063	0.322095
C24	C	1.127085	-0.000055	0.068565
C25	C	1.124297	-0.000048	-0.071159
N26	N	1.137122	0.254166	0.278611
C27	C	1.128906	0.097328	-0.144057
C28	C	1.126277	0.097323	-0.275341
C29	C	1.114433	-0.097442	-0.260819
C30	C	1.117055	-0.097436	-0.129536
C31	C	1.135749	0.209774	-0.152443
C32	C	1.133120	0.209769	-0.283727
C33	C	1.116257	-0.000058	0.526551
C34	C	1.119046	-0.000059	0.666274
H35	H	0.625008	-0.000051	0.445763
H36	H	1.205118	-0.480816	0.195183
H37	H	1.207053	0.244659	-0.118520
C38	C	1.019033	-0.535407	0.423496
C39	C	1.011029	-0.659089	0.431664
C40	C	0.937113	-0.721113	0.522374
C41	C	0.871203	-0.659455	0.604917
C42	C	0.879205	-0.535766	0.596753
C43	C	0.953121	-0.473742	0.506043
H44	H	1.059822	-0.704738	0.370558
H45	H	0.931190	-0.812676	0.528417
H46	H	0.816487	-0.705369	0.672067
H47	H	0.830413	-0.490117	0.657859
H48	H	0.959044	-0.382179	0.499999
H49	H	1.113296	-0.176728	-0.070187
C50	C	1.106467	-0.204562	-0.325041
C51	C	1.019714	-0.284885	-0.295951
C52	C	1.011747	-0.392008	-0.360172
C53	C	1.090531	-0.418807	-0.453483
C54	C	1.177290	-0.338482	-0.482578
C55	C	1.185258	-0.231359	-0.418357
H56	H	0.961387	-0.265049	-0.226872
H57	H	0.947522	-0.451469	-0.338633
H58	H	1.084633	-0.498105	-0.501024
H59	H	1.235617	-0.358318	-0.551657
H60	H	1.249483	-0.171898	-0.439896
H61	H	1.072822	0.252956	-0.115968
C62	C	1.225224	0.268070	-0.341718
C63	C	1.302133	0.315069	-0.255826
C64	C	1.394234	0.373364	-0.313817
C65	C	1.409425	0.384660	-0.457700
C66	C	1.332513	0.337660	-0.543600
C67	C	1.240413	0.279365	-0.485610
H68	H	1.290890	0.306707	-0.149308
H69	H	1.451169	0.408156	-0.250227
H70	H	1.477604	0.427814	-0.500628
H71	H	1.343757	0.346022	-0.650119
H72	H	1.183478	0.244573	-0.549200
H73	H	0.618343	0.000024	0.149343
H74	H	1.066060	0.244673	-0.322849
