data_functionalizedCrystal
_audit_creation_method	'MofGen! by Chris Wilmer'
_symmetry_space_group_name_H-M	'P1'
_symmetry_Int_Tables_number	1
_symmetry_cell_setting	triclinic
loop_
_symmetry_equiv_pos_as_xyz
  x,y,z
_cell_length_a	16.109301
_cell_length_b	16.109301
_cell_length_c	15.186229
_cell_angle_alpha	90.005167
_cell_angle_beta	89.999362
_cell_angle_gamma	96.538519
loop_
_atom_site_label
_atom_site_type_symbol
_atom_site_fract_x
_atom_site_fract_y
_atom_site_fract_z
O1	O	1.103131	-0.106866	-0.073176
O2	O	1.353131	0.143134	0.176824
O3	O	1.603131	0.393134	0.426824
O4	O	1.853131	0.643134	0.676824
O5	O	0.861069	-0.120165	-0.073190
O6	O	1.111069	0.129835	0.176810
O7	O	1.361069	0.379835	0.426810
O8	O	1.611069	0.629835	0.676810
O9	O	0.988749	0.007515	-0.073174
O10	O	1.238749	0.257515	0.176826
O11	O	1.488749	0.507515	0.426826
O12	O	1.738749	0.757515	0.676826
O13	O	0.975450	-0.234547	-0.073192
O14	O	1.225450	0.015453	0.176808
O15	O	1.475450	0.265453	0.426808
O16	O	1.725450	0.515453	0.676808
O17	O	0.988741	0.007517	0.073284
O18	O	1.238741	0.257517	0.323284
O19	O	1.488741	0.507517	0.573284
O20	O	1.738741	0.757517	0.823284
O21	O	0.861060	-0.120164	0.073267
O22	O	1.111060	0.129836	0.323267
O23	O	1.361060	0.379836	0.573267
O24	O	1.611060	0.629836	0.823267
O25	O	1.103122	-0.106864	0.073282
O26	O	1.353122	0.143136	0.323282
O27	O	1.603122	0.393136	0.573282
O28	O	1.853122	0.643136	0.823282
Zn29	Zn	0.982090	-0.113514	0.096528
Zn30	Zn	1.232090	0.136486	0.346528
Zn31	Zn	1.482090	0.386486	0.596528
Zn32	Zn	1.732090	0.636486	0.846528
Zn33	Zn	0.982101	-0.113516	-0.096436
Zn34	Zn	1.232101	0.136484	0.153564
Zn35	Zn	1.482101	0.386484	0.403564
Zn36	Zn	1.732101	0.636484	0.653564
O37	O	0.975441	-0.234545	0.073265
O38	O	1.225441	0.015455	0.323265
O39	O	1.475441	0.265455	0.573265
O40	O	1.725441	0.515455	0.823265
C41	C	0.830090	-0.119626	0.000037
C42	C	1.080090	0.130374	0.250037
C43	C	1.330090	0.380374	0.500037
C44	C	1.580090	0.630374	0.750037
C45	C	0.737794	-0.118011	0.000032
C46	C	0.987794	0.131989	0.250032
C47	C	1.237794	0.381989	0.500032
C48	C	1.487794	0.631989	0.750032
N49	N	0.982088	-0.113511	0.228220
N50	N	1.232088	0.136489	0.478220
N51	N	1.482088	0.386489	0.728220
N52	N	1.732088	0.636489	0.978220
C53	C	0.988206	0.038491	0.000056
C54	C	1.238206	0.288491	0.250056
C55	C	1.488206	0.538491	0.500056
C56	C	1.738206	0.788491	0.750056
C57	C	0.986591	0.130786	0.000057
C58	C	1.236591	0.380786	0.250057
C59	C	1.486591	0.630786	0.500057
C60	C	1.736591	0.880786	0.750057
C61	C	0.515522	-0.190018	0.000036
C62	C	0.765522	0.059982	0.250036
C63	C	1.015522	0.309982	0.500036
C64	C	1.265522	0.559982	0.750036
C65	C	0.428801	-0.188494	0.000042
C66	C	0.678801	0.061506	0.250042
C67	C	0.928801	0.311506	0.500042
C68	C	1.178801	0.561506	0.750042
C69	C	0.448676	-0.037006	0.000050
C70	C	0.698676	0.212994	0.250050
C71	C	0.948676	0.462994	0.500050
C72	C	1.198676	0.712994	0.750050
C73	C	0.535394	-0.038530	0.000051
C74	C	0.785394	0.211470	0.250051
C75	C	1.035394	0.461470	0.500051
C76	C	1.285394	0.711470	0.750051
C77	C	0.568815	-0.115039	0.000039
C78	C	0.818815	0.134961	0.250039
C79	C	1.068815	0.384961	0.500039
C80	C	1.318815	0.634961	0.750039
C81	C	0.395376	-0.111990	0.000045
C82	C	0.645376	0.138010	0.250045
C83	C	0.895376	0.388010	0.500045
C84	C	1.145376	0.638010	0.750045
C85	C	0.301350	-0.110337	0.000051
C86	C	0.551350	0.139663	0.250051
C87	C	0.801350	0.389663	0.500051
C88	C	1.051350	0.639663	0.750051
C89	C	0.662847	-0.116693	0.000035
C90	C	0.912847	0.133307	0.250035
C91	C	1.162847	0.383307	0.500035
C92	C	1.412847	0.633307	0.750035
C93	C	1.134101	-0.107404	0.000053
C94	C	1.384101	0.142596	0.250053
C95	C	1.634101	0.392596	0.500053
C96	C	1.884101	0.642596	0.750053
C97	C	1.226397	-0.109019	0.000052
C98	C	1.476397	0.140981	0.250052
C99	C	1.726397	0.390981	0.500052
C100	C	1.976397	0.640981	0.750052
C101	C	0.975984	-0.265521	0.000034
C102	C	1.225984	-0.015521	0.250034
C103	C	1.475984	0.234479	0.500034
C104	C	1.725984	0.484479	0.750034
C105	C	0.977600	-0.357816	0.000027
C106	C	1.227600	-0.107816	0.250027
C107	C	1.477600	0.142184	0.500027
C108	C	1.727600	0.392184	0.750027
C109	C	1.058599	0.353059	0.000047
C110	C	1.308599	0.603059	0.250047
C111	C	1.558599	0.853059	0.500047
C112	C	1.808599	1.103059	0.750047
C113	C	1.057075	0.439779	0.000040
C114	C	1.307075	0.689779	0.250040
C115	C	1.557075	0.939779	0.500040
C116	C	1.807075	1.189779	0.750040
C117	C	0.905586	0.419905	0.000034
C118	C	1.155586	0.669905	0.250034
C119	C	1.405586	0.919905	0.500034
C120	C	1.655586	1.169905	0.750034
C121	C	0.907111	0.333186	0.000035
C122	C	1.157111	0.583186	0.250035
C123	C	1.407111	0.833186	0.500035
C124	C	1.657111	1.083186	0.750035
C125	C	0.983620	0.299766	0.000046
C126	C	1.233620	0.549766	0.250046
C127	C	1.483620	0.799766	0.500046
C128	C	1.733620	1.049766	0.750046
C129	C	0.980571	0.473205	0.000038
C130	C	1.230571	0.723205	0.250038
C131	C	1.480571	0.973205	0.500038
C132	C	1.730571	1.223205	0.750038
C133	C	0.978918	0.567231	0.000030
C134	C	1.228918	0.817231	0.250030
C135	C	1.478918	1.067231	0.500030
C136	C	1.728918	1.317231	0.750030
C137	C	0.985273	0.205734	0.000052
C138	C	1.235273	0.455734	0.250052
C139	C	1.485273	0.705734	0.500052
C140	C	1.735273	0.955734	0.750052
N141	N	0.982109	-0.113512	-0.228129
N142	N	1.232109	0.136488	0.021871
N143	N	1.482109	0.386488	0.271871
N144	N	1.732109	0.636488	0.521871
C145	C	1.038644	-0.056994	0.453950
C146	C	1.288644	0.193006	0.703950
C147	C	1.538644	0.443006	0.953950
C148	C	1.788644	0.693006	1.203950
C149	C	1.038647	-0.056992	0.546140
C150	C	1.288647	0.193008	0.796140
C151	C	1.538647	0.443008	1.046140
C152	C	1.788647	0.693008	1.296140
C153	C	0.925547	-0.170032	0.546135
C154	C	1.175547	0.079968	0.796135
C155	C	1.425547	0.329968	1.046135
C156	C	1.675547	0.579968	1.296135
C157	C	0.925541	-0.170030	0.453947
C158	C	1.175541	0.079970	0.703947
C159	C	1.425541	0.329970	0.953947
C160	C	1.675541	0.579970	1.203947
C161	C	0.982094	-0.113511	0.407857
C162	C	1.232094	0.136489	0.657857
C163	C	1.482094	0.386489	0.907857
C164	C	1.732094	0.636489	1.157857
C165	C	0.982103	-0.113512	0.592235
C166	C	1.232103	0.136488	0.842235
C167	C	1.482103	0.386488	1.092235
C168	C	1.732103	0.636488	1.342235
C169	C	0.982105	-0.113510	0.692191
C170	C	1.232105	0.136490	0.942191
C171	C	1.482105	0.386490	1.192191
C172	C	1.732105	0.636490	1.442191
C173	C	0.982091	-0.113512	0.307894
C174	C	1.232091	0.136488	0.557894
C175	C	1.482091	0.386488	0.807894
C176	C	1.732091	0.636488	1.057894
H177	H	0.542730	-0.252317	0.000034
H178	H	0.792730	-0.002317	0.250034
H179	H	1.042730	0.247683	0.500034
H180	H	1.292730	0.497683	0.750034
H181	H	0.578788	0.022530	0.000056
H182	H	0.828788	0.272530	0.250056
H183	H	1.078788	0.522530	0.500056
H184	H	1.328788	0.772530	0.750056
N185	N	1.141116	0.317013	0.000058
N186	N	1.391116	0.567013	0.250058
N187	N	1.641116	0.817013	0.500058
N188	N	1.891116	1.067013	0.750058
H189	H	1.173966	0.336441	-0.054234
H190	H	1.423966	0.586441	0.195766
H191	H	1.673966	0.836441	0.445766
H192	H	1.923966	1.086441	0.695766
H193	H	1.130637	0.253996	0.000095
H194	H	1.380637	0.503996	0.250095
H195	H	1.630637	0.753996	0.500095
H196	H	1.880637	1.003996	0.750095
H197	H	1.084692	-0.010972	0.416426
H198	H	1.334692	0.239028	0.666426
H199	H	1.584692	0.489028	0.916426
H200	H	1.834692	0.739028	1.166426
H201	H	0.846050	0.289792	0.000032
H202	H	1.096050	0.539792	0.250032
H203	H	1.346050	0.789792	0.500032
H204	H	1.596050	1.039792	0.750032
H205	H	1.084694	-0.010969	0.583667
H206	H	1.334694	0.239031	0.833667
H207	H	1.584694	0.489031	1.083667
H208	H	1.834694	0.739031	1.333667
N209	N	0.371341	-0.269377	0.000074
N210	N	0.621341	-0.019377	0.250074
N211	N	0.871341	0.230623	0.500074
N212	N	1.121341	0.480623	0.750074
H213	H	0.382082	-0.302774	-0.054210
H214	H	0.632082	-0.052774	0.195790
H215	H	0.882082	0.197226	0.445790
H216	H	1.132082	0.447226	0.695790
H217	H	0.311350	-0.256758	0.000124
H218	H	0.561350	-0.006758	0.250124
H219	H	0.811350	0.243242	0.500124
H220	H	1.061350	0.493242	0.750124
N221	N	0.864560	-0.231000	0.595842
N222	N	1.114560	0.019000	0.845842
N223	N	1.364560	0.269000	1.095842
N224	N	1.614560	0.519000	1.345842
H225	H	0.805557	-0.221408	0.579806
H226	H	1.055557	0.028592	0.829806
H227	H	1.305557	0.278592	1.079806
H228	H	1.555557	0.528592	1.329806
H229	H	0.873217	-0.222401	0.661222
H230	H	1.123217	0.027599	0.911222
H231	H	1.373217	0.277599	1.161222
H232	H	1.623217	0.527599	1.411222
H233	H	0.879487	-0.216053	0.416415
H234	H	1.129487	0.033947	0.666415
H235	H	1.379487	0.283947	0.916415
H236	H	1.629487	0.533947	1.166415
H237	H	1.118130	0.483168	0.000039
H238	H	1.368130	0.733168	0.250039
H239	H	1.618130	0.983168	0.500039
H240	H	1.868130	1.233168	0.750039
N241	N	0.412629	0.045511	0.000067
N242	N	0.662629	0.295511	0.250067
N243	N	0.912629	0.545511	0.500067
N244	N	1.162629	0.795511	0.750067
H245	H	0.349606	0.035102	0.000066
H246	H	0.599606	0.285102	0.250066
H247	H	0.849606	0.535102	0.500066
H248	H	1.099606	0.785102	0.750066
H249	H	0.432126	0.078322	-0.054223
H250	H	0.682126	0.328322	0.195777
H251	H	0.932126	0.578322	0.445777
H252	H	1.182126	0.828322	0.695777
H253	H	0.843295	0.447127	0.000027
H254	H	1.093295	0.697127	0.250027
H255	H	1.343295	0.947127	0.500027
H256	H	1.593295	1.197127	0.750027
