data_functionalizedCrystal
_audit_creation_method	'MofGen! by Chris Wilmer'
_symmetry_space_group_name_H-M	'P1'
_symmetry_Int_Tables_number	1
_symmetry_cell_setting	triclinic
loop_
_symmetry_equiv_pos_as_xyz
  x,y,z
_cell_length_a	11.169416
_cell_length_b	11.169417
_cell_length_c	11.169409
_cell_angle_alpha	89.980176
_cell_angle_beta	89.968635
_cell_angle_gamma	90.011027
loop_
_atom_site_label
_atom_site_type_symbol
_atom_site_fract_x
_atom_site_fract_y
_atom_site_fract_z
Zn1	Zn	-0.477682	1.834964	-0.678551
Zn2	Zn	-0.678422	1.834854	-0.477871
Zn3	Zn	-0.477755	1.634250	-0.477885
Zn4	Zn	-0.678325	1.634258	-0.678516
O5	O	-0.578046	1.734581	-0.578206
O6	O	-0.504321	2.002899	-0.651939
O7	O	-0.651875	1.808194	-0.309923
O8	O	-0.309796	1.660918	-0.504524
O9	O	-0.651804	2.002818	-0.504500
O10	O	-0.309742	1.808381	-0.651953
O11	O	-0.504445	1.660811	-0.309934
O12	O	-0.504351	1.466301	-0.504491
O13	O	-0.651637	1.660931	-0.846470
O14	O	-0.651708	1.466307	-0.651893
O15	O	-0.504226	1.808389	-0.846496
O16	O	-0.846359	1.808202	-0.504467
O17	O	-0.846287	1.660825	-0.651880
C18	C	-0.578028	1.422757	-0.578190
C19	C	-0.578049	1.289357	-0.578212
C20	C	-0.889871	1.734535	-0.578194
C21	C	-1.023271	1.734625	-0.578229
C22	C	-0.265004	1.734661	-0.578244
C23	C	-0.131604	1.734695	-0.578260
C24	C	-0.577913	1.734674	-0.891248
C25	C	-0.577856	1.734713	-1.024649
C26	C	-0.578065	2.047624	-0.578222
C27	C	-0.578073	2.181024	-0.578229
C28	C	-0.578092	1.734559	-0.266381
C29	C	-0.577811	1.734752	-0.132982
