data_functionalizedCrystal
_audit_creation_method	'MofGen! by Chris Wilmer'
_symmetry_space_group_name_H-M	'P1'
_symmetry_Int_Tables_number	1
_symmetry_cell_setting	triclinic
loop_
_symmetry_equiv_pos_as_xyz
  x,y,z
_cell_length_a	11.169417
_cell_length_b	19.077432
_cell_length_c	11.169409
_cell_angle_alpha	92.335551
_cell_angle_beta	90.019513
_cell_angle_gamma	87.728377
loop_
_atom_site_label
_atom_site_type_symbol
_atom_site_fract_x
_atom_site_fract_y
_atom_site_fract_z
Zn1	Zn	1.854016	-0.280118	0.659311
Zn2	Zn	1.861913	-0.397837	0.450551
Zn3	Zn	1.653305	-0.280162	0.458644
Zn4	Zn	1.661313	-0.397781	0.651200
O5	O	1.757637	-0.338975	0.554927
O6	O	2.023014	-0.295739	0.631626
O7	O	1.834194	-0.382269	0.283671
O8	O	1.673274	-0.181666	0.492044
O9	O	2.028816	-0.382227	0.478251
O10	O	1.820735	-0.181634	0.639474
O11	O	1.680931	-0.295814	0.289618
O12	O	1.486417	-0.295759	0.484180
O13	O	1.686922	-0.382131	0.820229
O14	O	1.492301	-0.382173	0.625650
O15	O	1.828501	-0.295684	0.826188
O16	O	1.841960	-0.496320	0.470386
O17	O	1.694580	-0.496279	0.617802
C18	C	1.445812	-0.338965	0.554914
C19	C	1.312413	-0.338978	0.554935
C20	C	1.770028	-0.521837	0.542362
C21	C	1.775439	-0.600066	0.537027
C22	C	1.701195	-0.636822	0.611209
C23	C	1.706285	-0.710327	0.606191
C24	C	1.785624	-0.747074	0.526996
C25	C	1.859870	-0.710312	0.452806
C26	C	1.854774	-0.636809	0.457819
C27	C	1.809094	-0.966905	0.503776
C28	C	1.814187	-1.040413	0.498771
C29	C	1.660599	-1.040422	0.652155
C30	C	1.655515	-0.966918	0.657166
C31	C	1.729757	-0.930163	0.582971
N32	N	1.790830	-0.822207	0.521868
N33	N	1.724543	-0.855030	0.588094
C34	C	2.070680	-0.338985	0.554940
C35	C	2.204080	-0.338989	0.554946
C36	C	1.757724	-0.338896	0.867975
C37	C	1.757761	-0.338863	1.001377
C38	C	1.745230	-0.155398	0.567567
C39	C	1.739943	-0.077169	0.572953
C40	C	1.757616	-0.339002	0.243100
C41	C	1.757798	-0.338837	0.109712
H42	H	1.645817	-0.740250	0.666587
C43	C	1.549893	-0.644222	0.762315
C44	C	1.613985	-0.596433	0.698266
H45	H	1.496046	-0.619287	0.816055
H46	H	1.604145	-0.672839	0.806311
H47	H	1.506003	-0.672942	0.708012
H48	H	1.657882	-0.567716	0.752569
H49	H	1.559725	-0.567804	0.654268
H50	H	1.915230	-0.606883	0.397410
C51	C	1.504177	-0.974313	0.808243
C52	C	1.568281	-0.926527	0.744198
H53	H	1.450316	-0.949376	0.861965
H54	H	1.558422	-1.002924	0.852258
H55	H	1.460304	-1.003039	0.753936
H56	H	1.612161	-0.897804	0.798505
H57	H	1.514029	-0.897904	0.700180
C58	C	1.965482	-1.033025	0.347638
C59	C	1.901397	-1.080807	0.411707
H60	H	2.019314	-1.057964	0.293889
H61	H	2.009376	-1.004305	0.401918
H62	H	1.911215	-1.004408	0.303638
H63	H	1.955664	-1.109421	0.455714
H64	H	1.857500	-1.109539	0.357420
H65	H	1.924465	-0.740238	0.388318
C66	C	1.600203	-1.153101	0.712573
C67	C	1.578984	-1.080825	0.733695
H68	H	1.549806	-1.178042	0.762908
H69	H	1.681653	-1.165091	0.729397
H70	H	1.583519	-1.165188	0.631090
H71	H	1.595676	-1.068737	0.815176
H72	H	1.497516	-1.068831	0.716879
H73	H	1.869547	-0.936984	0.443366
