data_functionalizedCrystal
_audit_creation_method	'MofGen! by Chris Wilmer'
_symmetry_space_group_name_H-M	'P1'
_symmetry_Int_Tables_number	1
_symmetry_cell_setting	triclinic
loop_
_symmetry_equiv_pos_as_xyz
  x,y,z
_cell_length_a	13.897449
_cell_length_b	29.839131
_cell_length_c	13.897441
_cell_angle_alpha	89.964857
_cell_angle_beta	89.979267
_cell_angle_gamma	90.042700
loop_
_atom_site_label
_atom_site_type_symbol
_atom_site_fract_x
_atom_site_fract_y
_atom_site_fract_z
Zn1	Zn	1.474544	-0.178824	-0.545351
Zn2	Zn	1.974544	0.321176	-0.045351
Zn3	Zn	1.474371	-0.253959	-0.384039
Zn4	Zn	1.974371	0.246041	0.115961
Zn5	Zn	1.313233	-0.178845	-0.384069
Zn6	Zn	1.813233	0.321155	0.115931
Zn7	Zn	1.313148	-0.253929	-0.545292
Zn8	Zn	1.813148	0.246071	-0.045292
O9	O	1.393824	-0.216389	-0.464688
O10	O	1.893824	0.283611	0.035312
O11	O	1.609502	-0.188794	-0.523965
O12	O	2.109502	0.311206	-0.023965
O13	O	1.452959	-0.244016	-0.249061
O14	O	1.952959	0.255984	0.250939
O15	O	1.334739	-0.115975	-0.405500
O16	O	1.834739	0.384025	0.094500
O17	O	1.609375	-0.243995	-0.405450
O18	O	2.109375	0.256005	0.094550
O19	O	1.453253	-0.115959	-0.523993
O20	O	1.953253	0.384041	-0.023993
O21	O	1.334571	-0.188830	-0.249083
O22	O	1.834571	0.311170	0.250917
O23	O	1.178240	-0.188802	-0.405443
O24	O	1.678240	0.311198	0.094557
O25	O	1.334594	-0.243945	-0.680281
O26	O	1.834594	0.256055	-0.180281
O27	O	1.178177	-0.243966	-0.523893
O28	O	1.678177	0.256034	-0.023893
O29	O	1.453171	-0.188765	-0.680325
O30	O	1.953171	0.311235	-0.180325
O31	O	1.452876	-0.316822	-0.405393
O32	O	1.952876	0.183178	0.094607
O33	O	1.334426	-0.316800	-0.523864
O34	O	1.834426	0.183200	-0.023864
C35	C	1.143209	-0.216383	-0.464666
C36	C	1.643209	0.283617	0.035334
C37	C	1.035995	-0.216391	-0.464679
C38	C	1.535995	0.283609	0.035321
C39	C	0.839700	-0.216393	-0.464704
C40	C	1.339700	0.283607	0.035296
C41	C	0.948933	-0.216391	-0.464688
C42	C	1.448933	0.283609	0.035312
C43	C	1.393649	-0.333112	-0.464640
C44	C	1.893649	0.166888	0.035360
C45	C	1.393663	-0.383046	-0.464652
C46	C	1.893663	0.116954	0.035348
C47	C	1.455613	-0.692688	-0.403090
C48	C	1.955613	-0.192688	0.096910
C49	C	1.455732	-0.880361	-0.403127
C50	C	1.955732	-0.380361	0.096873
O51	O	1.508265	-0.904625	-0.350748
O52	O	2.008265	-0.404625	0.149252
N53	N	1.394024	-0.903831	-0.464760
N54	N	1.894024	-0.403831	0.035240
C55	C	1.332286	-0.880380	-0.526393
C56	C	1.832286	-0.380380	-0.026393
O57	O	1.279809	-0.904649	-0.578824
O58	O	1.779809	-0.404649	-0.078824
C59	C	1.332172	-0.692708	-0.526360
C60	C	1.832172	-0.192708	-0.026360
C61	C	1.393878	-0.669240	-0.464716
C62	C	1.893878	-0.169240	0.035284
C63	C	1.517314	-0.669221	-0.341451
C64	C	2.017314	-0.169221	0.158549
C65	C	1.517280	-0.622305	-0.341439
C66	C	2.017280	-0.122305	0.158561
C67	C	1.455545	-0.598857	-0.403065
C68	C	1.955545	-0.098857	0.096935
C69	C	1.393844	-0.622325	-0.464703
C70	C	1.893844	-0.122325	0.035297
C71	C	1.270440	-0.669258	-0.587997
C72	C	1.770440	-0.169258	-0.087997
C73	C	1.270419	-0.622336	-0.587985
C74	C	1.770419	-0.122336	-0.087985
C75	C	1.332124	-0.598869	-0.526341
C76	C	1.832124	-0.098869	-0.026341
C77	C	1.332074	-0.551962	-0.526317
C78	C	1.832074	-0.051962	-0.026317
N79	N	1.393782	-0.528492	-0.464684
N80	N	1.893782	-0.028492	0.035316
C81	C	1.455518	-0.551939	-0.403057
C82	C	1.955518	-0.051939	0.096943
C83	C	1.332349	-0.978911	-0.526405
C84	C	1.832349	-0.478911	-0.026405
C85	C	1.332375	-1.025828	-0.526412
C86	C	1.832375	-0.525828	-0.026412
C87	C	1.455823	-1.025806	-0.403147
C88	C	1.955823	-0.525806	0.096853
C89	C	1.455790	-0.978888	-0.403136
C90	C	1.955790	-0.478888	0.096864
C91	C	1.394057	-0.955441	-0.464772
C92	C	1.894057	-0.455441	0.035228
C93	C	1.455441	-0.453414	-0.403035
C94	C	1.955441	0.046586	0.096965
C95	C	1.455398	-0.406494	-0.403026
C96	C	1.955398	0.093506	0.096974
C97	C	1.331955	-0.406520	-0.526294
C98	C	1.831955	0.093480	-0.026294
C99	C	1.331993	-0.453436	-0.526301
C100	C	1.831993	0.046564	-0.026301
C101	C	1.393744	-0.476881	-0.464668
C102	C	1.893744	0.023119	0.035332
O103	O	1.279576	-0.527669	-0.578676
O104	O	1.779576	-0.027669	-0.078676
O105	O	1.508002	-0.527662	-0.350650
O106	O	2.008002	-0.027662	0.149350
C107	C	1.455647	-0.739604	-0.403102
C108	C	1.955647	-0.239604	0.096898
C109	C	1.393946	-0.763071	-0.464741
C110	C	1.893946	-0.263071	0.035259
C111	C	1.332211	-0.739623	-0.526367
C112	C	1.832211	-0.239623	-0.026367
C113	C	1.393973	-0.809989	-0.464748
C114	C	1.893973	-0.309989	0.035252
C115	C	1.455708	-0.833437	-0.403122
C116	C	1.955708	-0.333437	0.096878
C117	C	1.517416	-0.809967	-0.341489
C118	C	2.017416	-0.309967	0.158511
C119	C	1.517382	-0.763051	-0.341476
C120	C	2.017382	-0.263051	0.158524
C121	C	1.270503	-0.763093	-0.588000
C122	C	1.770503	-0.263093	-0.088000
C123	C	1.270541	-0.810009	-0.588007
C124	C	1.770541	-0.310009	-0.088007
C125	C	1.332276	-0.833457	-0.526381
C126	C	1.832276	-0.333457	-0.026381
C127	C	1.645417	-0.216395	-0.464710
C128	C	2.145417	0.283605	0.035290
C129	C	1.752631	-0.216398	-0.464720
C130	C	2.252631	0.283602	0.035280
C131	C	1.393892	-0.216349	-0.716281
C132	C	1.893892	0.283651	-0.216281
C133	C	1.393921	-0.216332	-0.823495
C134	C	1.893921	0.283668	-0.323495
C135	C	1.394025	-0.099211	-0.464757
C136	C	1.894025	0.400789	0.035243
C137	C	1.394111	-0.049276	-0.464786
C138	C	1.894111	0.450724	0.035214
C139	C	1.393948	-0.216302	-1.019790
C140	C	1.893948	0.283698	-0.519790
C141	C	1.393930	-0.216320	-0.910558
C142	C	1.893930	0.283680	-0.410558
C143	C	1.393811	-0.216396	-0.214073
C144	C	1.893811	0.283604	0.285927
C145	C	1.393969	-0.216287	-0.106860
C146	C	1.893969	0.283713	0.393140
H147	H	1.505646	-0.387388	-0.352824
H148	H	2.005646	0.112612	0.147176
C149	C	1.639438	-0.805245	-0.219635
C150	C	2.139438	-0.305245	0.280365
C151	C	1.585277	-0.835746	-0.273747
C152	C	2.085277	-0.335746	0.226253
H153	H	1.681328	-0.821163	-0.177817
H154	H	2.181328	-0.321163	0.322183
H155	H	1.676300	-0.786913	-0.261687
H156	H	2.176300	-0.286913	0.238313
H157	H	1.597415	-0.786978	-0.182691
H158	H	2.097415	-0.286978	0.317309
H159	H	1.627301	-0.854012	-0.310697
H160	H	2.127301	-0.354012	0.189303
H161	H	1.548413	-0.854086	-0.231690
H162	H	2.048413	-0.354086	0.268310
C163	C	1.202636	-1.078644	-0.539717
C164	C	1.702636	-0.578644	-0.039717
C165	C	1.264539	-1.051621	-0.594166
C166	C	1.764539	-0.551621	-0.094166
H167	H	1.160756	-1.094563	-0.581552
H168	H	1.660756	-0.594563	-0.081552
H169	H	1.239402	-1.099325	-0.503028
H170	H	1.739402	-0.599325	-0.003028
H171	H	1.165755	-1.060368	-0.497655
H172	H	1.665755	-0.560368	0.002345
H173	H	1.301426	-1.069897	-0.636223
H174	H	1.801426	-0.569897	-0.136223
H175	H	1.227769	-1.030937	-0.630871
H176	H	1.727769	-0.530937	-0.130871
H177	H	1.567628	-0.743947	-0.291280
H178	H	2.067628	-0.243947	0.208720
H179	H	1.505726	-0.472497	-0.352851
H180	H	2.005726	0.027503	0.147149
C181	C	1.148525	-0.805306	-0.709863
C182	C	1.648525	-0.305306	-0.209863
C183	C	1.202710	-0.835801	-0.655775
C184	C	1.702710	-0.335801	-0.155775
H185	H	1.106661	-0.821229	-0.751707
H186	H	1.606661	-0.321229	-0.251707
H187	H	1.111636	-0.787043	-0.667798
H188	H	1.611636	-0.287043	-0.167798
H189	H	1.190536	-0.786970	-0.746779
H190	H	1.690536	-0.286970	-0.246779
H191	H	1.160700	-0.854135	-0.618853
H192	H	1.660700	-0.354135	-0.118853
H193	H	1.239602	-0.854072	-0.697846
H194	H	1.739602	-0.354072	-0.197846
C195	C	1.256971	-0.710300	-0.717739
C196	C	1.756971	-0.210300	-0.217739
C197	C	1.202633	-0.737325	-0.655743
C198	C	1.702633	-0.237325	-0.155743
H199	H	1.215063	-0.694396	-0.759564
H200	H	1.715063	-0.194396	-0.259564
H201	H	1.293701	-0.689605	-0.681036
H202	H	1.793701	-0.189605	-0.181036
H203	H	1.298991	-0.728573	-0.754674
H204	H	1.798991	-0.228573	-0.254674
H205	H	1.160618	-0.719052	-0.618803
H206	H	1.660618	-0.219052	-0.118803
H207	H	1.165887	-0.758022	-0.692450
H208	H	1.665887	-0.258022	-0.192450
H209	H	1.567528	-0.603201	-0.291246
H210	H	2.067528	-0.103201	0.208754
H211	H	1.506090	-1.044906	-0.352969
H212	H	2.006090	-0.544906	0.147031
H213	H	1.567591	-0.688307	-0.291268
H214	H	2.067591	-0.188307	0.208732
C215	C	1.585522	-0.926070	-0.389834
C216	C	2.085522	-0.426070	0.110166
C217	C	1.523622	-0.953093	-0.335381
C218	C	2.023622	-0.453093	0.164619
H219	H	1.627397	-0.910146	-0.348002
H220	H	2.127397	-0.410146	0.151998
H221	H	1.622401	-0.944344	-0.431889
H222	H	2.122401	-0.444344	0.068111
H223	H	1.548747	-0.905389	-0.426530
H224	H	2.048747	-0.405389	0.073470
H225	H	1.560398	-0.973777	-0.298690
H226	H	2.060398	-0.473777	0.201310
H227	H	1.486740	-0.934819	-0.293310
H228	H	1.986740	-0.434819	0.206690
H229	H	1.282075	-0.959823	-0.576598
H230	H	1.782075	-0.459823	-0.076598
H231	H	1.281688	-0.387422	-0.576466
H232	H	1.781688	0.112578	-0.076466
H233	H	1.220189	-0.688357	-0.638190
H234	H	1.720189	-0.188357	-0.138190
C235	C	1.148410	-0.627075	-0.709842
C236	C	1.648410	-0.127075	-0.209842
C237	C	1.202558	-0.596564	-0.655740
C238	C	1.702558	-0.096564	-0.155740
H239	H	1.106513	-0.611164	-0.751665
H240	H	1.606513	-0.111164	-0.251665
H241	H	1.190435	-0.645340	-0.746772
H242	H	1.690435	-0.145340	-0.246772
H243	H	1.111548	-0.645407	-0.667777
H244	H	1.611548	-0.145407	-0.167777
H245	H	1.239426	-0.578234	-0.697804
H246	H	1.739426	-0.078234	-0.197804
H247	H	1.160528	-0.578291	-0.618807
H248	H	1.660528	-0.078291	-0.118807
C249	C	1.209974	-0.448742	-0.648147
C250	C	1.709974	0.051258	-0.148147
C251	C	1.264167	-0.479234	-0.594060
C252	C	1.764167	0.020766	-0.094060
H253	H	1.168111	-0.464668	-0.689989
H254	H	1.668111	0.035332	-0.189989
H255	H	1.173082	-0.430480	-0.606081
H256	H	1.673082	0.069520	-0.106081
H257	H	1.251978	-0.430404	-0.685066
H258	H	1.751978	0.069596	-0.185066
H259	H	1.222163	-0.497570	-0.557135
H260	H	1.722163	0.002430	-0.057135
H261	H	1.301062	-0.497503	-0.636131
H262	H	1.801062	0.002497	-0.136131
