data_functionalizedCrystal
_audit_creation_method	'MofGen! by Chris Wilmer'
_symmetry_space_group_name_H-M	'P1'
_symmetry_Int_Tables_number	1
_symmetry_cell_setting	triclinic
loop_
_symmetry_equiv_pos_as_xyz
  x,y,z
_cell_length_a	13.032831
_cell_length_b	12.759400
_cell_length_c	13.032268
_cell_angle_alpha	82.849813
_cell_angle_beta	89.113023
_cell_angle_gamma	82.819639
loop_
_atom_site_label
_atom_site_type_symbol
_atom_site_fract_x
_atom_site_fract_y
_atom_site_fract_z
Zn1	Zn	1.498516	-0.709532	0.780845
Zn2	Zn	1.520267	-0.866067	0.608867
Zn3	Zn	1.348373	-0.665643	0.587085
Zn4	Zn	1.326515	-0.860387	0.758992
O5	O	1.423418	-0.775407	0.683947
O6	O	1.645323	-0.751042	0.776293
O7	O	1.515715	-0.823490	0.462060
O8	O	1.368334	-0.524453	0.612817
O9	O	1.661303	-0.866048	0.649941
O10	O	1.478644	-0.556699	0.755172
O11	O	1.389425	-0.676239	0.446057
O12	O	1.201551	-0.670731	0.591628
O13	O	1.331081	-0.856366	0.905808
O14	O	1.185493	-0.813808	0.717927
O15	O	1.457450	-0.745534	0.921863
O16	O	1.494520	-1.012325	0.628751
O17	O	1.352172	-1.008152	0.739048
C18	C	1.156205	-0.736891	0.650043
C19	C	1.041887	-0.720442	0.635563
C20	C	1.423359	-1.048363	0.683918
C21	C	1.423424	-1.165153	0.683952
C22	C	0.983014	-0.783992	0.691504
C23	C	0.864860	-0.766993	0.676540
C24	C	1.497609	-1.222171	0.626602
C25	C	1.497668	-1.331908	0.626642
C26	C	1.349348	-1.327596	0.741382
C27	C	1.349295	-1.217863	0.741348
C28	C	1.571738	-1.169461	0.569206
C29	C	1.645929	-1.226480	0.511852
C30	C	1.645988	-1.336216	0.511891
C31	C	1.571857	-1.388934	0.569286
C32	C	1.691674	-0.814074	0.717984
C33	C	1.805989	-0.830552	0.732489
C34	C	1.389401	-0.805212	0.952195
C35	C	1.374905	-0.817913	1.066506
C36	C	1.423501	-0.501392	0.684002
C37	C	1.423537	-0.384623	0.684026
C38	C	1.457361	-0.745651	0.416751
C39	C	1.472056	-0.732683	0.302465
C40	C	1.430967	-0.768738	1.125413
C41	C	1.415986	-0.781864	1.243560
H42	H	1.020083	-0.850982	0.750480
O43	O	1.717942	-1.391739	0.456176
C44	C	1.667952	-1.439511	0.382292
H45	H	1.585377	-1.448751	0.408563
H46	H	1.666422	-1.387235	0.304598
C47	C	1.828381	-1.538479	0.338785
C48	C	1.726963	-1.549836	0.371055
H49	H	1.864782	-1.606530	0.331849
H50	H	1.862061	-1.506291	0.388559
H51	H	1.827091	-1.494911	0.274043
H52	H	1.728253	-1.593391	0.435802
H53	H	1.693284	-1.582033	0.321292
O54	O	1.717836	-1.175103	0.456125
C55	C	1.701895	-1.066025	0.468405
H56	H	1.618227	-1.043386	0.491945
H57	H	1.755888	-1.049680	0.530944
C58	C	1.827330	-1.027342	0.336628
C59	C	1.724564	-0.999534	0.365532
H60	H	1.841317	-0.986326	0.273173
H61	H	1.838073	-1.100830	0.328357
H62	H	1.872312	-1.013720	0.388752
H63	H	1.679584	-1.013169	0.313415
H64	H	1.713814	-0.926047	0.373792
H65	H	1.531143	-0.680854	1.265436
O66	O	1.304272	-0.879597	1.110615
C67	C	1.205071	-0.838996	1.071421
H68	H	1.203627	-0.751056	1.041176
H69	H	1.186010	-0.884579	1.005724
C70	C	1.126184	-0.959869	1.195355
C71	C	1.124407	-0.851858	1.158216
H72	H	1.076425	-0.967806	1.248891
H73	H	1.193018	-0.987226	1.221759
H74	H	1.110303	-0.997843	1.140599
H75	H	1.140301	-0.813888	1.212968
H76	H	1.057575	-0.824494	1.131823
O77	O	0.850300	-0.910357	0.802917
C78	C	0.904005	-0.866915	0.877275
H79	H	0.924581	-0.785508	0.843147
H80	H	0.853009	-0.858057	0.948309
C81	C	0.978489	-1.041380	0.950564
C82	C	1.003769	-0.941398	0.908644
H83	H	1.040026	-1.087326	0.969918
H84	H	0.942305	-1.070649	0.900470
H85	H	0.935991	-1.033983	1.009753
H86	H	1.046255	-0.948794	0.849448
H87	H	1.039963	-0.912132	0.958729
O88	O	1.277474	-1.378944	0.797193
C89	C	1.327576	-1.458141	0.871123
H90	H	1.410147	-1.481740	0.844813
H91	H	1.329126	-1.425900	0.948761
C92	C	1.167256	-1.527340	0.914860
C93	C	1.268668	-1.556331	0.882540
H94	H	1.130918	-1.587907	0.921907
H95	H	1.133500	-1.473981	0.865055
H96	H	1.168562	-1.500472	0.979555
H97	H	1.267361	-1.583186	0.817841
H98	H	1.302423	-1.609697	0.932335
O99	O	0.997836	-0.640437	0.565194
C100	C	1.075519	-0.584667	0.516065
H101	H	1.146798	-0.596721	0.567829
H102	H	1.096797	-0.615956	0.439323
C103	C	0.947800	-0.450392	0.432568
C104	C	1.035343	-0.465189	0.496148
H105	H	0.923017	-0.376693	0.420276
H106	H	0.895463	-0.487967	0.465663
H107	H	0.965544	-0.476473	0.368622
H108	H	1.017595	-0.439120	0.560096
H109	H	1.087676	-0.427607	0.463062
H110	H	1.571696	-1.080107	0.569164
O111	O	1.501334	-0.706837	1.081108
C112	C	1.450623	-0.623673	1.011569
H113	H	1.374680	-0.647722	0.985687
H114	H	1.434149	-0.548748	1.051487
C115	C	1.613342	-0.572016	0.948434
C116	C	1.520072	-0.601558	0.916638
H117	H	1.656182	-0.558370	0.889878
H118	H	1.647509	-0.628042	0.995286
H119	H	1.599601	-0.509583	0.981700
H120	H	1.533813	-0.663997	0.883385
H121	H	1.485909	-0.545541	0.869778
O122	O	1.277367	-1.162450	0.797181
C123	C	1.327421	-1.114694	0.871032
H124	H	1.407617	-1.160086	0.887735
H125	H	1.334989	-1.028525	0.839657
C126	C	1.165043	-1.061862	0.951006
C127	C	1.263538	-1.117619	0.971528
H128	H	1.125636	-1.063661	1.012995
H129	H	1.131320	-1.094032	0.901249
H130	H	1.171364	-0.990059	0.924858
H131	H	1.257216	-1.189422	0.997662
H132	H	1.297259	-1.085461	1.021291
O133	O	1.345569	-0.843691	1.287899
C134	C	1.346277	-0.843021	1.395989
H135	H	1.423822	-0.821655	1.420633
H136	H	1.281448	-0.781651	1.418750
C137	C	1.234632	-0.980297	1.419758
C138	C	1.329877	-0.954063	1.450027
H139	H	1.224511	-1.048790	1.453092
H140	H	1.234151	-0.980745	1.346935
H141	H	1.180618	-0.929146	1.438727
H142	H	1.383889	-1.005206	1.431047
H143	H	1.330367	-0.953626	1.522849
H144	H	0.827794	-0.699991	0.617568
H145	H	1.571918	-1.478291	0.569323
