data_functionalizedCrystal
_audit_creation_method	'MofGen! by Chris Wilmer'
_symmetry_space_group_name_H-M	'P1'
_symmetry_Int_Tables_number	1
_symmetry_cell_setting	triclinic
loop_
_symmetry_equiv_pos_as_xyz
  x,y,z
_cell_length_a	16.959454
_cell_length_b	14.908932
_cell_length_c	14.908308
_cell_angle_alpha	96.369940
_cell_angle_beta	86.730321
_cell_angle_gamma	86.680301
loop_
_atom_site_label
_atom_site_type_symbol
_atom_site_fract_x
_atom_site_fract_y
_atom_site_fract_z
Zn1	Zn	-0.268023	-1.354240	0.432083
Zn2	Zn	-0.392126	-1.362878	0.280738
Zn3	Zn	-0.268056	-1.211613	0.289459
Zn4	Zn	-0.408259	-1.202849	0.440767
O5	O	-0.334116	-1.282895	0.360762
O6	O	-0.277719	-1.482048	0.404723
O7	O	-0.368930	-1.350095	0.155233
O8	O	-0.157439	-1.230586	0.308394
O9	O	-0.368897	-1.488395	0.293530
O10	O	-0.157414	-1.335373	0.413180
O11	O	-0.277777	-1.238962	0.161641
O12	O	-0.293420	-1.083788	0.316815
O13	O	-0.396394	-1.215648	0.566276
O14	O	-0.396427	-1.077349	0.427980
O15	O	-0.293363	-1.326875	0.559896
O16	O	-0.504879	-1.341597	0.301950
O17	O	-0.516732	-1.224024	0.419523
C18	C	-0.346678	-1.047727	0.374287
C19	C	-0.352073	-0.947119	0.380094
C20	C	-0.539485	-1.282820	0.360751
C21	C	-0.627341	-1.282869	0.360772
C22	C	-0.413377	-0.801995	0.446053
C23	C	-0.408309	-0.896524	0.440604
C24	C	-0.300902	-0.903179	0.325027
C25	C	-0.305970	-0.808650	0.330475
C26	C	-0.362208	-0.758061	0.390991
C27	C	-0.367272	-0.663530	0.396444
C28	C	-0.259869	-0.670186	0.280863
C29	C	-0.254801	-0.764716	0.275414
C30	C	-1.005011	-1.221759	0.421971
C31	C	-0.992609	-1.344278	0.299630
C32	C	-0.910064	-1.344247	0.299624
C33	C	-0.874989	-1.282970	0.360791
C34	C	-0.922459	-1.221725	0.421964
C35	C	-0.862588	-1.405485	0.238445
C36	C	-0.780038	-1.405455	0.238436
C37	C	-0.744962	-1.344182	0.299608
C38	C	-0.792437	-1.282935	0.360784
C39	C	-0.757363	-1.221659	0.421952
C40	C	-0.804836	-1.160415	0.483133
C41	C	-0.887383	-1.160452	0.483137
C42	C	-0.662415	-1.344146	0.299605
C43	C	-0.674810	-1.221624	0.421945
C44	C	-0.127944	-1.282994	0.360791
C45	C	-0.040086	-1.283036	0.360804
C46	C	-0.346674	-1.269320	0.596847
C47	C	-0.352026	-1.263536	0.697452
C48	C	-0.321497	-0.518982	0.347179
C49	C	-0.316101	-0.619589	0.341377
C50	C	-0.321546	-1.296469	0.125593
C51	C	-0.315963	-1.302429	0.024978
C52	C	-0.254778	-1.368483	0.879858
C53	C	-0.259804	-1.363051	0.974386
C54	C	-0.367098	-1.247234	0.981036
C55	C	-0.362073	-1.252667	0.886509
C56	C	-0.305912	-1.313294	0.835923
C57	C	-0.300890	-1.318731	0.741393
C58	C	-0.408181	-1.202910	0.748046
C59	C	-0.413206	-1.197478	0.842573
H60	H	-0.413062	-0.622341	0.445723
C61	C	-0.428867	-1.180548	1.036686
H62	H	-0.458600	-1.148450	0.996984
H63	H	-0.463414	-1.213037	1.071571
H64	H	-0.402690	-1.139000	1.075828
C65	C	-0.939601	-1.093087	0.550427
H66	H	-0.906891	-1.056593	0.586863
H67	H	-0.972098	-1.055684	0.518039
H68	H	-0.972021	-1.125431	0.587906
H69	H	-0.218164	-1.407989	1.010154
C70	C	-0.464598	-0.944854	0.501163
H71	H	-0.453533	-1.008398	0.489245
H72	H	-0.457188	-0.925878	0.562895
H73	H	-0.517810	-0.930111	0.488691
H74	H	-0.458930	-1.148115	0.883773
H75	H	-0.449820	-1.157974	0.712264
H76	H	-0.623766	-1.394005	0.249787
C77	C	-0.727825	-1.472827	0.171148
H78	H	-0.760538	-1.509329	0.134726
H79	H	-0.695398	-1.440497	0.133669
H80	H	-0.695333	-1.510234	0.203546
H81	H	-0.218200	-0.634405	0.236031
C82	C	-0.239050	-0.958837	0.258463
H83	H	-0.243361	-1.021426	0.263109
H84	H	-0.248129	-0.946830	0.198520
H85	H	-0.187494	-0.942599	0.272709
C86	C	-1.031189	-1.411680	0.232357
H87	H	-1.087150	-1.402934	0.241127
H88	H	-1.015153	-1.401985	0.172286
H89	H	-1.015076	-1.471716	0.242170
H90	H	-0.209015	-0.805918	0.226141
C91	C	-0.239117	-1.385414	0.685746
H92	H	-0.243450	-1.380753	0.623155
H93	H	-0.187540	-1.371298	0.702006
H94	H	-0.248261	-1.445338	0.697739
H95	H	-1.043668	-1.171899	0.471786
H96	H	-0.459162	-0.760804	0.495335
C97	C	-0.636234	-1.154219	0.489232
H98	H	-0.676332	-1.117750	0.525662
H99	H	-0.604249	-1.186529	0.526702
H100	H	-0.604333	-1.116782	0.456835
C101	C	-0.766252	-1.093015	0.550417
H102	H	-0.806344	-1.056543	0.586853
H103	H	-0.734265	-1.125329	0.587882
H104	H	-0.734350	-1.055581	0.518017
H105	H	-0.891152	-1.455366	0.188640
C106	C	-0.193005	-1.435166	0.824212
H107	H	-0.163267	-1.467255	0.863917
H108	H	-0.219170	-1.476709	0.785060
H109	H	-0.158452	-1.402667	0.789338
