data_functionalizedCrystal
_audit_creation_method	'MofGen! by Chris Wilmer'
_symmetry_space_group_name_H-M	'P1'
_symmetry_Int_Tables_number	1
_symmetry_cell_setting	triclinic
loop_
_symmetry_equiv_pos_as_xyz
  x,y,z
_cell_length_a	16.992694
_cell_length_b	15.455341
_cell_length_c	16.992695
_cell_angle_alpha	92.817188
_cell_angle_beta	89.331777
_cell_angle_gamma	87.171364
loop_
_atom_site_label
_atom_site_type_symbol
_atom_site_fract_x
_atom_site_fract_y
_atom_site_fract_z
O1	O	-1.047581	-0.072023	0.163653
O2	O	-0.819180	-0.072048	0.161821
O3	O	-0.932465	-0.072029	0.048537
O4	O	-0.934296	-0.072042	0.276937
O5	O	-0.939003	0.072233	0.055070
O6	O	-0.825718	0.072213	0.168353
O7	O	-1.054119	0.072239	0.170185
Cu8	Cu	-0.940515	0.085398	0.169866
Cu9	Cu	-0.932784	-0.085208	0.162141
O10	O	-0.940834	0.072219	0.283469
C11	C	-0.793089	0.000079	0.162731
C12	C	-0.705604	0.000070	0.155702
C13	C	-0.933379	0.000102	0.022443
C14	C	-0.926350	0.000101	-0.065041
N15	N	-0.945959	0.205393	0.175299
C16	C	-1.080210	0.000109	0.169275
C17	C	-1.167695	0.000113	0.176304
C18	C	-0.659613	0.000066	0.223520
C19	C	-0.577412	0.000079	0.216911
C20	C	-0.541205	0.000088	0.142484
C21	C	-0.587202	0.000094	0.074661
C22	C	-0.669401	0.000088	0.081271
C23	C	-0.295891	0.000113	0.115091
C24	C	-0.213686	0.000116	0.108486
C25	C	-0.203903	0.000103	0.250737
C26	C	-0.286103	0.000091	0.257340
C27	C	-0.332093	0.000102	0.189517
N28	N	-0.457183	0.000098	0.135727
N29	N	-0.416114	0.000098	0.196275
N30	N	-0.927346	-0.205203	0.156701
C31	C	-0.976020	0.749399	0.205408
C32	C	-0.971907	0.658591	0.201293
C33	C	-0.919123	0.613184	0.148468
C34	C	-0.870443	0.658588	0.099760
C35	C	-0.874553	0.749394	0.103879
C36	C	-0.901389	0.341604	0.130710
C37	C	-0.897285	0.250791	0.126593
C38	C	-0.998748	0.250801	0.228128
C39	C	-1.002856	0.341609	0.232239
C40	C	-0.954174	0.387005	0.183533
N41	N	-0.914920	0.520364	0.144260
N42	N	-0.958374	0.479823	0.187746
C43	C	-0.994168	0.000109	-0.111032
C44	C	-0.987559	0.000100	-0.193233
C45	C	-0.913131	0.000089	-0.229442
C46	C	-0.845307	0.000078	-0.183445
C47	C	-0.851917	0.000081	-0.101246
C48	C	-0.885735	0.000074	-0.474757
C49	C	-0.879131	0.000074	-0.556962
C50	C	-1.021383	0.000094	-0.566744
C51	C	-1.027987	0.000102	-0.484543
C52	C	-0.960163	0.000087	-0.438554
N53	N	-0.906373	0.000082	-0.313464
N54	N	-0.966921	0.000087	-0.354533
C55	C	-0.939921	0.000087	0.309563
C56	C	-0.946949	0.000082	0.397047
H57	H	-0.689087	0.000058	0.284126
Br58	Br	-1.047665	0.811015	0.277096
Br59	Br	-0.514998	0.000071	0.308954
H60	H	-1.038381	0.213830	0.267782
Br61	Br	-0.825673	0.189166	0.054868
Br62	Br	-0.335236	0.000069	0.358351
Br63	Br	-1.128999	0.000090	-0.435409
Br64	Br	-0.141484	0.000089	0.342777
H65	H	-1.011544	0.621632	0.240954
H66	H	-0.184209	0.000123	0.047876
Br67	Br	-0.358297	0.000129	0.023045
H68	H	-1.045840	0.378574	0.275253
Br69	Br	-0.835318	0.403202	0.064610
H70	H	-0.557715	0.000114	0.014061
H71	H	-1.054776	0.000124	-0.081557
Br72	Br	-1.079602	0.000111	-0.255646
H73	H	-0.827462	0.621610	0.056752
Br74	Br	-0.744295	0.000048	-0.232586
Br75	Br	-0.778115	0.000067	-0.606102
H76	H	-0.796692	0.000073	-0.063801
H77	H	-0.834915	0.786356	0.064218
H78	H	-0.830508	0.000061	-0.437322
H79	H	-0.706846	0.000090	0.026046
H80	H	-1.076601	0.000106	-0.604197
