data_functionalizedCrystal
_audit_creation_method	'MofGen! by Chris Wilmer'
_symmetry_space_group_name_H-M	'P1'
_symmetry_Int_Tables_number	1
_symmetry_cell_setting	triclinic
loop_
_symmetry_equiv_pos_as_xyz
  x,y,z
_cell_length_a	10.654549
_cell_length_b	15.021413
_cell_length_c	10.654550
_cell_angle_alpha	89.993019
_cell_angle_beta	84.484853
_cell_angle_gamma	90.006372
loop_
_atom_site_label
_atom_site_type_symbol
_atom_site_fract_x
_atom_site_fract_y
_atom_site_fract_z
O1	O	1.667848	0.074005	0.176380
O2	O	1.302370	0.074011	0.193187
O3	O	1.493512	0.074009	0.002044
O4	O	1.476706	0.074008	0.367523
O5	O	1.493482	-0.074056	0.002071
O6	O	1.302339	-0.074053	0.193214
O7	O	1.667818	-0.074059	0.176407
Zn8	Zn	1.485074	-0.097565	0.184815
Zn9	Zn	1.485114	0.097516	0.184779
O10	O	1.476676	-0.074057	0.367550
C11	C	1.255557	-0.000020	0.191966
C12	C	1.116113	-0.000018	0.188275
N13	N	1.485056	-0.230702	0.184839
C14	C	0.905599	-0.000022	0.297338
C15	C	1.036619	-0.000017	0.300816
C16	C	1.064581	-0.000016	0.072247
C17	C	0.933563	-0.000015	0.068770
C18	C	1.198887	0.051858	0.442856
C19	C	1.250415	0.051843	0.558881
C20	C	1.195539	-0.000041	0.658663
C21	C	1.089136	-0.051931	0.642426
C22	C	1.037615	-0.051924	0.526399
C23	C	1.092489	-0.000020	0.426621
C24	C	0.771291	-0.051896	-0.073261
C25	C	0.719768	-0.051896	-0.189289
C26	C	0.774643	-0.000018	-0.289083
C27	C	0.881051	0.051859	-0.272858
C28	C	0.932574	0.051858	-0.156830
C29	C	0.877690	-0.000018	-0.057036
C30	C	1.396657	-0.470384	0.273181
C31	C	1.510355	-0.529721	0.298545
C32	C	1.485087	-0.412309	0.184808
C33	C	1.371421	-0.529714	0.159472
C34	C	1.485108	-0.587733	0.184780
C35	C	1.598843	-0.470339	0.210229
C36	C	1.459834	-0.470327	0.071105
C37	C	1.573613	-0.529637	0.096422
C38	C	1.485074	-0.311252	0.184827
C39	C	1.485135	-0.688788	0.184761
C40	C	1.714631	-0.000026	0.177628
C41	C	1.854074	-0.000022	0.181319
C42	C	1.492263	-0.000021	-0.044740
C43	C	1.488571	-0.000015	-0.184183
N44	N	1.485142	0.230654	0.184745
C45	C	1.483371	0.080688	-0.380739
C46	C	1.486853	0.080693	-0.249719
C47	C	1.486820	-0.080734	-0.249677
C48	C	1.483348	-0.080739	-0.380696
C49	C	1.565071	0.177665	-0.079672
C50	C	1.566803	0.258382	-0.014181
C51	C	1.492227	0.329644	-0.047738
C52	C	1.415889	0.320191	-0.146779
C53	C	1.414145	0.239473	-0.212262
C54	C	1.488750	0.168214	-0.178711
C55	C	1.405119	-0.177705	-0.550743
C56	C	1.403367	-0.258424	-0.616227
C57	C	1.477934	-0.329693	-0.582672
C58	C	1.554254	-0.320250	-0.483624
C59	C	1.556007	-0.239530	-0.418140
C60	C	1.481441	-0.168261	-0.451705
C61	C	1.477925	-0.000025	0.414334
C62	C	1.481617	-0.000025	0.553777
H63	H	0.950991	-0.094178	0.513175
H64	H	1.438420	-0.444219	-0.025008
O65	O	1.256634	-0.560720	0.134059
C66	C	1.033699	-0.565816	0.198593
C67	C	1.163615	-0.530632	0.227492
H68	H	0.958463	-0.541519	0.274131
H69	H	1.011337	-0.540339	0.102437
H70	H	1.035138	-0.641701	0.197859
H71	H	1.162274	-0.454750	0.228294
H72	H	1.185927	-0.556177	0.323629
O73	O	1.641076	0.267430	0.081950
C74	C	1.790542	0.197599	0.206594
C75	C	1.706520	0.187235	0.097679
H76	H	1.843455	0.132765	0.219362
H77	H	1.861116	0.253726	0.183865
H78	H	1.729177	0.213966	0.297253
H79	H	1.767783	0.170835	0.006975
H80	H	1.635938	0.131129	0.120516
O81	O	0.718181	-0.102346	0.023719
C82	C	0.746988	-0.221366	0.169864
C83	C	0.807306	-0.164281	0.060069
H84	H	0.819009	-0.271467	0.199268
H85	H	0.715191	-0.176534	0.253235
H86	H	0.662064	-0.258401	0.138309
H87	H	0.892271	-0.127237	0.091504
H88	H	0.839013	-0.209159	-0.023276
O89	O	1.329266	-0.267418	-0.712506
C90	C	1.179897	-0.197548	-0.837223
C91	C	1.263729	-0.187249	-0.728145
H92	H	1.126869	-0.132748	-0.849885
H93	H	1.241285	-0.213820	-0.927907
H94	H	1.109404	-0.253734	-0.814570
H95	H	1.334234	-0.131058	-0.750677
H96	H	1.202262	-0.171024	-0.637494
O97	O	1.535649	-0.560810	0.413326
C98	C	1.471098	-0.565849	0.636259
C99	C	1.442299	-0.530603	0.506343
H100	H	1.395657	-0.541425	0.711502
H101	H	1.471712	-0.641736	0.634943
H102	H	1.567312	-0.540425	0.658519
H103	H	1.346082	-0.555961	0.484003
H104	H	1.441768	-0.454717	0.507726
O105	O	0.828332	-0.000177	0.406630
C106	C	0.664114	-0.076849	0.535348
C107	C	0.751561	-0.076799	0.411539
H108	H	0.602005	-0.138781	0.539346
H109	H	0.723390	-0.076902	0.618915
H110	H	0.602147	-0.014855	0.539403
H111	H	0.813546	-0.138782	0.407362
H112	H	0.692211	-0.076699	0.328030
O113	O	1.339860	0.230202	-0.308336
C114	C	1.168759	0.150269	-0.389088
C115	C	1.252770	0.160673	-0.280172
H116	H	1.098344	0.094046	-0.366368
H117	H	1.115662	0.215033	-0.401816
H118	H	1.230147	0.133990	-0.479766
H119	H	1.191474	0.176924	-0.189432
H120	H	1.305876	0.095899	-0.267556
H121	H	1.481960	0.146410	-0.434087
O122	O	1.663094	-0.560447	0.007381
C123	C	1.883967	-0.564940	-0.066529
C124	C	1.782760	-0.530004	0.034401
H125	H	1.980737	-0.540326	-0.044734
H126	H	1.882879	-0.640831	-0.066449
H127	H	1.863188	-0.539477	-0.163187
H128	H	1.803469	-0.555401	0.131108
H129	H	1.783872	-0.454114	0.034210
H130	H	1.344398	-0.119673	-0.578077
H131	H	1.355153	0.378219	-0.174082
O132	O	1.035834	0.102310	-0.140857
C133	C	1.123292	0.221323	-0.025100
C134	C	1.006269	0.164240	-0.043038
H135	H	1.099423	0.271420	0.053966
H136	H	1.203386	0.176488	0.000321
H137	H	1.153682	0.258362	-0.116385
H138	H	0.975767	0.127193	0.048207
H139	H	0.926250	0.209121	-0.068518
H140	H	1.493639	0.395365	0.005595
O141	O	1.245673	-0.000205	0.771327
C142	C	1.339587	-0.087455	0.927475
C143	C	1.282864	-0.087398	0.799860
H144	H	1.369648	-0.157945	0.950597
H145	H	1.425119	-0.041515	0.921988
H146	H	1.265896	-0.062946	1.004367
H147	H	1.356462	-0.111925	0.722900
H148	H	1.197307	-0.133314	0.805454
H149	H	1.044472	-0.094186	0.723679
O150	O	1.488301	-0.159188	-0.186126
C151	C	1.380636	-0.297112	-0.132641
C152	C	1.378832	-0.208305	-0.204699
H153	H	1.292129	-0.336840	-0.147610
H154	H	1.467614	-0.336994	-0.169118
H155	H	1.383468	-0.283215	-0.027765
H156	H	1.375956	-0.222122	-0.309586
H157	H	1.291865	-0.168451	-0.168118
O158	O	1.626847	-0.389450	-0.451214
C159	C	1.794017	-0.491842	-0.518425
C160	C	1.711916	-0.413457	-0.555285
H161	H	1.862797	-0.511287	-0.602553
H162	H	1.848957	-0.471253	-0.436437
H163	H	1.731002	-0.551061	-0.489010
H164	H	1.774839	-0.354207	-0.584761
H165	H	1.656965	-0.434119	-0.637229
H166	H	0.633141	-0.094157	-0.202504
H167	H	1.337050	0.094097	0.572093
O168	O	0.724419	0.000073	-0.401704
C169	C	0.541928	0.030317	-0.511978
C170	C	0.598652	0.030273	-0.384363
H171	H	0.440230	0.054714	-0.497998
H172	H	0.599338	0.076346	-0.580538
H173	H	0.544205	-0.040145	-0.551867
H174	H	0.596384	0.100700	-0.344363
H175	H	0.541228	-0.015805	-0.315889
O176	O	1.630265	-0.230489	-0.321996
C177	C	1.779694	-0.300340	-0.197330
C178	C	1.695680	-0.310694	-0.306253
H179	H	1.832585	-0.365181	-0.184550
H180	H	1.850288	-0.244225	-0.220059
H181	H	1.718327	-0.283959	-0.106678
H182	H	1.756946	-0.327107	-0.396950
H183	H	1.625079	-0.366788	-0.283417
H184	H	1.243570	0.094118	0.361617
H185	H	1.694999	-0.444368	0.231761
H186	H	1.129316	-0.000011	-0.019386
H187	H	1.476487	-0.395423	-0.635991
O188	O	0.934174	0.102238	-0.369905
C189	C	0.926320	0.148185	-0.585705
C190	C	0.866018	0.091110	-0.475890
H191	H	0.871257	0.139194	-0.671429
H192	H	0.924253	0.221256	-0.556679
H193	H	1.028165	0.126309	-0.610327
H194	H	0.764152	0.112908	-0.451215
H195	H	0.868185	0.018051	-0.504974
H196	H	1.321952	-0.444368	0.347977
H197	H	1.625815	0.119647	-0.052352
