data_functionalizedCrystal
_audit_creation_method	'MofGen! by Chris Wilmer'
_symmetry_space_group_name_H-M	'P1'
_symmetry_Int_Tables_number	1
_symmetry_cell_setting	triclinic
loop_
_symmetry_equiv_pos_as_xyz
  x,y,z
_cell_length_a	19.288835
_cell_length_b	17.766277
_cell_length_c	19.288874
_cell_angle_alpha	89.993108
_cell_angle_beta	96.867907
_cell_angle_gamma	90.017838
loop_
_atom_site_label
_atom_site_type_symbol
_atom_site_fract_x
_atom_site_fract_y
_atom_site_fract_z
O1	O	-0.921369	-0.062743	0.086549
O2	O	-0.421369	0.437257	0.586549
O3	O	-0.719106	-0.062712	0.098259
O4	O	-0.219106	0.437288	0.598259
O5	O	-0.826079	-0.062722	-0.008726
O6	O	-0.326079	0.437278	0.491274
O7	O	-0.814397	-0.062732	0.193535
O8	O	-0.314397	0.437268	0.693535
O9	O	-0.826060	0.062466	-0.008732
O10	O	-0.326060	0.562466	0.491268
O11	O	-0.719088	0.062477	0.098254
O12	O	-0.219088	0.562477	0.598254
O13	O	-0.921351	0.062446	0.086543
O14	O	-0.421351	0.562446	0.586543
Cu15	Cu	-0.820217	0.073892	0.092398
Cu16	Cu	-0.320217	0.573892	0.592398
Cu17	Cu	-0.820240	-0.074158	0.092405
Cu18	Cu	-0.320240	0.425842	0.592405
O19	O	-0.814378	0.062456	0.193529
O20	O	-0.314378	0.562456	0.693529
C21	C	-0.693220	-0.000114	0.097883
C22	C	-0.193220	0.499886	0.597883
C23	C	-0.616115	-0.000102	0.096763
C24	C	-0.116115	0.499898	0.596763
C25	C	-0.579922	-0.068343	0.096227
C26	C	-0.079922	0.431657	0.596227
C27	C	-0.507475	-0.068350	0.095167
C28	C	-0.007475	0.431650	0.595167
C29	C	-0.471226	-0.000113	0.094627
C30	C	0.028774	0.499887	0.594627
C31	C	-0.507427	0.068138	0.095167
C32	C	-0.007427	0.568138	0.595167
C33	C	-0.579872	0.068143	0.096234
C34	C	-0.079872	0.568143	0.596234
C35	C	-0.361888	0.052161	0.052249
C36	C	0.138112	0.552161	0.552249
C37	C	-0.289446	0.052152	0.051177
C38	C	0.210554	0.552152	0.551177
C39	C	-0.247781	-0.000127	0.091337
C40	C	0.252219	0.499873	0.591337
C41	C	-0.278570	-0.052410	0.132560
C42	C	0.221430	0.447590	0.632560
C43	C	-0.351015	-0.052405	0.133628
C44	C	0.148985	0.447595	0.633628
C45	C	-0.392671	-0.000111	0.093470
C46	C	0.107329	0.499889	0.593470
C47	C	-0.133032	-0.068381	0.089653
C48	C	0.366968	0.431619	0.589653
C49	C	-0.060583	-0.068386	0.088596
C50	C	0.439417	0.431614	0.588596
C51	C	-0.060538	0.068104	0.088589
C52	C	0.439462	0.568104	0.588589
C53	C	-0.132985	0.068107	0.089653
C54	C	0.367015	0.568107	0.589653
C55	C	-0.169228	-0.000138	0.090181
C56	C	0.330772	0.499862	0.590181
C57	C	-0.825692	-0.000128	-0.034605
C58	C	-0.325692	0.499872	0.465395
C59	C	-0.824561	-0.000128	-0.111708
C60	C	-0.324561	0.499872	0.388292
N61	N	-0.820207	0.178022	0.092393
N62	N	-0.320207	0.678022	0.592393
C63	C	0.052764	-0.000148	0.086924
C64	C	0.552764	0.499852	0.586924
C65	C	-0.024339	-0.000147	0.088058
C66	C	0.475661	0.499853	0.588058
N67	N	-0.820256	-0.178288	0.092404
N68	N	-0.320256	0.321712	0.592404
C69	C	-0.867590	0.217405	0.045043
C70	C	-0.367590	0.717405	0.545043
C71	C	-0.867594	0.296206	0.045040
C72	C	-0.367594	0.796206	0.545040
C73	C	-0.820221	0.335623	0.092399
C74	C	-0.320221	0.835623	0.592399
C75	C	-0.772830	0.296231	0.139753
C76	C	-0.272830	0.796231	0.639753
C77	C	-0.772823	0.217431	0.139750
C78	C	-0.272823	0.717431	0.639750
C79	C	-0.810925	0.460459	0.155687
C80	C	-0.310925	0.960459	0.655687
C81	C	-0.810937	0.539257	0.155691
C82	C	-0.310937	1.039257	0.655691
C83	C	-0.820240	0.578669	0.092407
C84	C	-0.320240	1.078669	0.592407
C85	C	-0.829546	0.539272	0.029117
C86	C	-0.329546	1.039272	0.529117
C87	C	-0.829538	0.460472	0.029114
C88	C	-0.329538	0.960472	0.529114
C89	C	-0.820224	0.421069	0.092407
C90	C	-0.320224	0.921069	0.592407
C91	C	-0.867630	0.703497	0.045050
C92	C	-0.367630	1.203497	0.545050
C93	C	-0.867629	0.782301	0.045045
C94	C	-0.367629	1.282301	0.545045
C95	C	-0.772869	0.782324	0.139764
C96	C	-0.272869	1.282324	0.639764
C97	C	-0.772866	0.703522	0.139762
C98	C	-0.272866	1.203522	0.639762
C99	C	-0.820250	0.664114	0.092406
C100	C	-0.320250	1.164114	0.592406
C101	C	-0.816425	0.068095	-0.667280
C102	C	-0.316425	0.568095	-0.167280
C103	C	-0.817480	0.068099	-0.594832
C104	C	-0.317480	0.568099	-0.094832
C105	C	-0.818022	-0.000141	-0.558598
C106	C	-0.318022	0.499859	-0.058598
C107	C	-0.817489	-0.068389	-0.594815
C108	C	-0.317489	0.431611	-0.094815
C109	C	-0.816427	-0.068391	-0.667261
C110	C	-0.316427	0.431609	-0.167261
C111	C	-0.860396	-0.052426	-0.449269
C112	C	-0.360396	0.447574	0.050731
C113	C	-0.861463	-0.052421	-0.376826
C114	C	-0.361463	0.447579	0.123174
C115	C	-0.821297	-0.000137	-0.335152
C116	C	-0.321297	0.499863	0.164848
C117	C	-0.780073	0.052154	-0.365932
C118	C	-0.280073	0.552154	0.134068
C119	C	-0.779010	0.052152	-0.438378
C120	C	-0.279010	0.552152	0.061622
C121	C	-0.819174	-0.000146	-0.480043
C122	C	-0.319174	0.499854	0.019957
C123	C	-0.822969	0.068111	-0.220387
C124	C	-0.322969	0.568111	0.279613
C125	C	-0.824020	0.068112	-0.147938
C126	C	-0.324020	0.568112	0.352062
C127	C	-0.824036	-0.068378	-0.147923
C128	C	-0.324036	0.431622	0.352077
C129	C	-0.822978	-0.068377	-0.220370
C130	C	-0.322978	0.431623	0.279630
C131	C	-0.822448	-0.000130	-0.256598
C132	C	-0.322448	0.499870	0.243402
C133	C	-0.814765	-0.000140	0.219408
C134	C	-0.314765	0.499860	0.719408
C135	C	-0.815896	-0.000145	0.296511
C136	C	-0.315896	0.499855	0.796511
H137	H	-0.244648	-0.094979	0.165265
H138	H	0.255352	0.405021	0.665265
H139	H	-0.895033	-0.094996	-0.351771
H140	H	-0.395033	0.405004	0.148229
F141	F	-0.824590	-0.141004	-0.109362
F142	F	-0.324590	0.358996	0.390638
F143	F	-0.722438	0.661605	0.190162
F144	F	-0.222438	1.161605	0.690162
F145	F	-0.722411	0.338181	0.190153
F146	F	-0.222411	0.838181	0.690153
H147	H	-0.822552	-0.123945	-0.249853
H148	H	-0.322552	0.376055	0.250147
F149	F	-0.801038	0.581179	0.223049
F150	F	-0.301038	1.081179	0.723049
F151	F	-0.171607	-0.141012	0.090220
F152	F	0.328393	0.358988	0.590220
F153	F	-0.824572	0.140746	-0.109400
F154	F	-0.324572	0.640746	0.390600
H155	H	-0.815995	-0.123962	-0.696741
H156	H	-0.315995	0.376038	-0.196741
H157	H	-0.745444	0.094730	-0.463436
H158	H	-0.245444	0.594730	0.036564
H159	H	-0.395806	0.094736	0.019545
H160	H	0.104194	0.594736	0.519545
F161	F	-0.722390	0.175515	0.190149
F162	F	-0.222390	0.675515	0.690149
F163	F	-0.839436	0.418546	-0.038242
F164	F	-0.339436	0.918546	0.461758
H165	H	-0.803337	0.428376	0.207224
H166	H	-0.303337	0.928376	0.707224
H167	H	-0.031115	-0.123958	0.088165
H168	H	0.468885	0.376042	0.588165
H169	H	-0.837121	0.571360	-0.022415
H170	H	-0.337121	1.071360	0.477585
H171	H	-0.815992	0.123667	-0.696772
H172	H	-0.315992	0.623667	-0.196772
H173	H	-0.893100	-0.095009	-0.483194
H174	H	-0.393100	0.404991	0.016806
H175	H	-0.817898	0.123669	-0.565343
H176	H	-0.317898	0.623669	-0.065343
F177	F	-0.618490	-0.140976	0.096792
F178	F	-0.118490	0.359024	0.596792
F179	F	-0.918017	0.175465	-0.005360
F180	F	-0.418017	0.675465	0.494640
H181	H	-0.734295	0.814416	0.178322
H182	H	-0.234295	1.314416	0.678322
F183	F	-0.618393	0.140778	0.096804
F184	F	-0.118393	0.640778	0.596804
H185	H	-0.747368	0.094730	-0.332003
H186	H	-0.247368	0.594730	0.167997
H187	H	-0.031024	0.123665	0.088155
H188	H	0.468976	0.623665	0.588155
H189	H	-0.906211	0.671410	0.006487
H190	H	-0.406211	1.171410	0.506487
F191	F	-0.822401	0.140744	-0.258946
F192	F	-0.322401	0.640744	0.241054
F193	F	-0.468847	0.140761	0.094596
F194	F	0.031153	0.640761	0.594596
F195	F	-0.918027	0.338127	-0.005359
F196	F	-0.418027	0.838127	0.494641
H197	H	-0.906211	0.814366	0.006484
H198	H	-0.406211	1.314366	0.506484
H199	H	-0.478000	-0.123922	0.094732
H200	H	0.022000	0.376078	0.594732
F201	F	-0.383780	-0.108045	0.177501
F202	F	0.116220	0.391955	0.677501
H203	H	-0.817928	-0.123950	-0.565309
H204	H	-0.317928	0.376050	-0.065309
H205	H	-0.162455	0.123677	0.090084
H206	H	0.337545	0.623677	0.590084
H207	H	-0.264384	0.094721	0.017608
H208	H	0.235616	0.594721	0.517608
