data_functionalizedCrystal
_audit_creation_method	'MofGen! by Chris Wilmer'
_symmetry_space_group_name_H-M	'P1'
_symmetry_Int_Tables_number	1
_symmetry_cell_setting	triclinic
loop_
_symmetry_equiv_pos_as_xyz
  x,y,z
_cell_length_a	8.559649
_cell_length_b	8.559649
_cell_length_c	7.681481
_cell_angle_alpha	94.912990
_cell_angle_beta	94.930900
_cell_angle_gamma	110.221336
loop_
_atom_site_label
_atom_site_type_symbol
_atom_site_fract_x
_atom_site_fract_y
_atom_site_fract_z
O1	O	0.037796	2.109660	-0.146412
O2	O	-0.045986	1.634174	-0.146416
O3	O	0.233648	1.913808	-0.146412
O4	O	-0.241838	1.830026	-0.146416
O5	O	0.268135	1.948235	0.146446
O6	O	-0.011498	1.668601	0.146442
O7	O	0.072283	2.144087	0.146446
Zn8	Zn	0.035868	1.911810	0.192942
Zn9	Zn	-0.009571	1.866451	-0.192912
O10	O	-0.207350	1.864453	0.146442
C11	C	0.311200	1.937370	0.000014
C12	C	0.490898	1.956268	0.000004
C13	C	0.061388	2.187182	0.000014
C14	C	0.080286	2.366880	0.000004
C15	C	-0.035091	1.591079	0.000012
C16	C	-0.053991	1.411379	0.000010
C17	C	-0.284903	1.840890	0.000012
C18	C	-0.464603	1.821991	0.000010
N19	N	0.066881	1.942778	0.456276
N20	N	-0.040570	1.835497	-0.456247
H21	H	0.590288	2.085698	0.000020
H22	H	-0.183412	2.311999	-0.000004
H23	H	0.209714	2.466268	0.000001
H24	H	0.176555	2.052306	0.531484
O25	O	0.416628	1.667700	-0.000078
C26	C	0.257631	1.682544	-0.000045
H27	H	0.260416	1.802700	-0.055487
H28	H	0.159424	1.569972	-0.085078
H29	H	0.224484	1.686960	0.140450
O30	O	-0.171475	1.705035	0.453861
C31	C	-0.273276	1.767341	0.347238
H32	H	-0.196208	1.898946	0.319778
H33	H	-0.322450	1.681361	0.217535
H34	H	-0.383488	1.772097	0.418180
