data_functionalizedCrystal
_audit_creation_method	'MofGen! by Chris Wilmer'
_symmetry_space_group_name_H-M	'P1'
_symmetry_Int_Tables_number	1
_symmetry_cell_setting	triclinic
loop_
_symmetry_equiv_pos_as_xyz
  x,y,z
_cell_length_a	16.974800
_cell_length_b	14.044220
_cell_length_c	16.053802
_cell_angle_alpha	92.799619
_cell_angle_beta	91.074188
_cell_angle_gamma	88.279480
loop_
_atom_site_label
_atom_site_type_symbol
_atom_site_fract_x
_atom_site_fract_y
_atom_site_fract_z
O1	O	1.057574	0.120850	0.002053
O2	O	1.557574	0.620850	0.502053
O3	O	0.829132	0.135362	-0.013390
O4	O	1.329132	0.635362	0.486610
O5	O	0.939924	-0.009887	-0.005892
O6	O	1.439924	0.490113	0.494108
O7	O	0.946782	0.266099	-0.005445
O8	O	1.446782	0.766099	0.494555
O9	O	0.933823	-0.001925	0.132554
O10	O	1.433823	0.498075	0.632554
O11	O	0.823032	0.143324	0.125056
O12	O	1.323032	0.643324	0.625056
O13	O	1.051473	0.128812	0.140499
O14	O	1.551473	0.628812	0.640499
Zn15	Zn	0.936284	0.137332	0.154759
Zn16	Zn	1.436284	0.637332	0.654759
Zn17	Zn	0.944322	0.126842	-0.027650
Zn18	Zn	1.444322	0.626842	0.472350
O19	O	0.940682	0.274061	0.133001
O20	O	1.440682	0.774061	0.633001
C21	C	0.796670	0.138646	0.053845
C22	C	1.296670	0.638646	0.553845
C23	C	0.709030	0.136555	0.047921
C24	C	1.209030	0.636555	0.547921
C25	C	0.664536	0.139911	0.120606
C26	C	1.164536	0.639911	0.620606
C27	C	0.582190	0.137932	0.115042
C28	C	1.082190	0.637932	0.615042
C29	C	0.544339	0.132603	0.036791
C30	C	1.044339	0.632603	0.536791
C31	C	0.588839	0.129245	-0.035900
C32	C	1.088839	0.629245	0.464100
C33	C	0.671184	0.131217	-0.030335
C34	C	1.171184	0.631217	0.469665
C35	C	0.298421	0.126232	0.012055
C36	C	0.798421	0.626232	0.512055
C37	C	0.216069	0.124263	0.006496
C38	C	0.716069	0.624263	0.506496
C39	C	0.209426	0.132948	0.157438
C40	C	0.709426	0.632948	0.657438
C41	C	0.291772	0.134926	0.162996
C42	C	0.791772	0.634926	0.662996
C43	C	0.336266	0.131562	0.090305
C44	C	0.836266	0.631562	0.590305
N45	N	0.460168	0.130583	0.031102
N46	N	0.960168	0.630583	0.531102
N47	N	0.420436	0.133576	0.095995
N48	N	0.920436	0.633576	0.595995
C49	C	0.933871	-0.041228	0.063129
C50	C	1.433871	0.458772	0.563129
C51	C	0.924917	-0.146476	0.062524
C52	C	1.424917	0.353524	0.562524
C53	C	0.908548	-0.339179	0.061406
C54	C	1.408548	0.160821	0.561406
C55	C	0.972054	-0.396653	0.065696
C56	C	1.472054	0.103347	0.565696
C57	C	0.962946	-0.503879	0.065074
C58	C	1.462946	-0.003879	0.565074
C59	C	0.917655	-0.231942	0.062028
C60	C	1.417655	0.268058	0.562028
C61	C	1.083935	0.125528	0.073263
C62	C	1.583935	0.625528	0.573263
C63	C	1.171575	0.127619	0.079181
C64	C	1.671575	0.627619	0.579181
C65	C	0.946734	0.305402	0.063979
C66	C	1.446734	0.805402	0.563979
C67	C	0.955688	0.410650	0.064578
C68	C	1.455688	0.910650	0.564578
N69	N	0.930804	0.144491	0.279248
N70	N	1.430804	0.644491	0.779248
N71	N	0.949807	0.119676	-0.152139
N72	N	1.449807	0.619676	0.347861
C73	C	0.977966	0.082709	0.326134
C74	C	1.477966	0.582709	0.826134
C75	C	0.974141	0.087726	0.413282
C76	C	1.474141	0.587726	0.913282
C77	C	0.923157	0.154529	0.453543
C78	C	1.423157	0.654529	0.953543
C79	C	0.875989	0.216314	0.406651
C80	C	1.375989	0.716314	0.906651
C81	C	0.879811	0.211292	0.319504
C82	C	1.379811	0.711292	0.819504
C83	C	0.906461	0.176438	0.713823
C84	C	1.406461	0.676438	1.213823
C85	C	0.902645	0.181457	0.800976
C86	C	1.402645	0.681457	1.300976
C87	C	1.000796	0.052868	0.807601
C88	C	1.500796	0.552868	1.307601
C89	C	1.004616	0.047856	0.720453
C90	C	1.504616	0.547856	1.220453
C91	C	0.957446	0.109637	0.673568
C92	C	1.457446	0.609637	1.173568
N93	N	0.919248	0.159661	0.542622
N94	N	1.419248	0.659661	1.042622
N95	N	0.961352	0.104500	0.584490
N96	N	1.461352	0.604500	1.084490
H97	H	0.334637	0.123490	-0.047135
H98	H	0.834637	0.623490	0.452865
H99	H	1.019486	0.028315	0.293360
H100	H	1.519486	0.528315	0.793360
H101	H	0.707411	0.128486	-0.089523
H102	H	1.207411	0.628486	0.410477
H103	H	1.039199	0.002568	0.845782
H104	H	1.539199	0.502568	1.345782
Br105	Br	0.806532	-0.391387	0.054502
Br106	Br	1.306532	0.108613	0.554502
H107	H	1.033267	-0.365331	0.069778
H108	H	1.533267	0.134669	0.569778
H109	H	0.322585	0.139260	0.226716
H110	H	0.822585	0.639260	0.726716
H111	H	1.012543	0.037418	0.451456
H112	H	1.512543	0.537418	0.951456
Br113	Br	0.149039	0.137511	0.256085
Br114	Br	0.649039	0.637511	0.756085
H115	H	0.861126	0.235861	0.833751
H116	H	1.361126	0.735861	1.333751
H117	H	0.695348	0.144257	0.184326
H118	H	1.195348	0.644257	0.684326
Br119	Br	0.164700	0.117038	-0.099708
Br120	Br	0.664700	0.617038	0.400292
Br121	Br	1.073812	-0.042803	0.665812
Br122	Br	1.573812	0.457197	1.165812
Br123	Br	0.842448	0.260283	0.650198
Br124	Br	1.342448	0.760283	1.150198
Br125	Br	0.806789	0.306971	0.461287
Br126	Br	1.306789	0.806971	0.961287
Br127	Br	0.815797	0.295136	0.255873
Br128	Br	1.315797	0.795136	0.755873
H129	H	0.558015	0.124900	-0.099613
H130	H	1.058015	0.624900	0.400387
Br131	Br	0.521807	0.142502	0.213692
Br132	Br	1.021807	0.642502	0.713692
