data_functionalizedCrystal
_audit_creation_method	'MofGen! by Chris Wilmer'
_symmetry_space_group_name_H-M	'P1'
_symmetry_Int_Tables_number	1
_symmetry_cell_setting	triclinic
loop_
_symmetry_equiv_pos_as_xyz
  x,y,z
_cell_length_a	12.759401
_cell_length_b	16.625545
_cell_length_c	12.759393
_cell_angle_alpha	90.033904
_cell_angle_beta	90.018567
_cell_angle_gamma	90.024602
loop_
_atom_site_label
_atom_site_type_symbol
_atom_site_fract_x
_atom_site_fract_y
_atom_site_fract_z
Zn1	Zn	1.606176	-0.320975	0.593966
Zn2	Zn	1.606037	-0.455831	0.418279
Zn3	Zn	1.430478	-0.321014	0.418305
Zn4	Zn	1.430433	-0.455767	0.593920
O5	O	1.518281	-0.388397	0.506118
O6	O	1.753179	-0.338874	0.570669
O7	O	1.582709	-0.437991	0.271262
O8	O	1.453862	-0.208177	0.441637
O9	O	1.753077	-0.437953	0.441593
O10	O	1.582946	-0.208147	0.570695
O11	O	1.453727	-0.338942	0.271281
O12	O	1.283451	-0.338879	0.441593
O13	O	1.453786	-0.437843	0.740948
O14	O	1.283418	-0.437881	0.570617
O15	O	1.582903	-0.338811	0.740981
O16	O	1.582666	-0.568655	0.441548
O17	O	1.453651	-0.568608	0.570591
C18	C	1.245314	-0.388378	0.506103
C19	C	1.128537	-0.388389	0.506122
C20	C	1.073721	-0.336896	0.573436
C21	C	0.963997	-0.336912	0.573443
C22	C	0.963915	-0.439920	0.438818
C23	C	1.073637	-0.439900	0.438807
C24	C	1.128622	-0.285386	0.640751
C25	C	1.073806	-0.233889	0.708072
C26	C	0.964082	-0.233905	0.708078
C27	C	0.909174	-0.285416	0.640764
C28	C	1.518167	-0.597888	0.506085
C29	C	1.518214	-0.687509	0.506106
C30	C	1.518255	-0.760291	0.506127
C31	C	1.518316	-0.851600	0.506150
C32	C	1.518371	-0.924376	0.506163
C33	C	1.518431	-1.015690	0.506185
C34	C	1.792314	-0.388416	0.506133
C35	C	1.909091	-0.388425	0.506140
C36	C	1.518355	-0.388315	0.780151
C37	C	1.518386	-0.388281	0.896928
C38	C	1.518424	-0.178088	0.506174
C39	C	1.518485	-0.088467	0.506198
C40	C	1.518268	-0.388420	0.233150
C41	C	1.518441	-0.388227	0.116374
C42	C	1.585627	-0.336710	0.951809
C43	C	1.585652	-0.336681	1.061533
C44	C	1.451192	-0.439800	1.061485
C45	C	1.451163	-0.439824	0.951763
C46	C	1.652850	-0.285167	0.896974
C47	C	1.720097	-0.233593	0.951855
C48	C	1.720122	-0.233564	1.061580
C49	C	1.652900	-0.285108	1.116422
H50	H	1.217965	-0.285367	0.640753
H51	H	1.774870	-0.191564	1.106261
H52	H	1.774820	-0.191622	0.907195
C53	C	1.133938	-0.496548	0.364761
N54	N	1.179356	-0.539215	0.308987
H55	H	1.652839	-0.285186	0.807631
H56	H	1.118519	-0.191945	0.762870
C57	C	1.652926	-0.285069	1.237123
N58	N	1.652950	-0.285042	1.328033
H59	H	1.396463	-0.481765	1.106147
H60	H	0.819829	-0.285408	0.640753
C61	C	0.903787	-0.177256	0.782128
N62	N	0.858376	-0.134589	0.837909
C63	C	0.903511	-0.496584	0.364785
N64	N	0.858016	-0.539267	0.309025
C65	C	1.377200	-0.496559	0.891390
N66	N	1.321489	-0.539292	0.845917
