data_functionalizedCrystal
_audit_creation_method	'MofGen! by Chris Wilmer'
_symmetry_space_group_name_H-M	'P1'
_symmetry_Int_Tables_number	1
_symmetry_cell_setting	triclinic
loop_
_symmetry_equiv_pos_as_xyz
  x,y,z
_cell_length_a	6.817900
_cell_length_b	12.840946
_cell_length_c	10.773890
_cell_angle_alpha	81.798015
_cell_angle_beta	96.645716
_cell_angle_gamma	88.344365
loop_
_atom_site_label
_atom_site_type_symbol
_atom_site_fract_x
_atom_site_fract_y
_atom_site_fract_z
V1	V	-3.864003	0.323488	-0.175536
O2	O	-3.889373	0.319078	0.005393
O3	O	-3.783203	0.319594	-0.345132
O4	O	-3.759869	0.465339	-0.174171
O5	O	-3.912869	0.172324	-0.166752
V6	V	-4.359051	0.305612	-0.153737
O7	O	-4.099980	0.362701	-0.223353
O8	O	-4.573271	0.266399	-0.105919
O9	O	-4.216644	0.309506	0.015859
O10	O	-4.451077	0.310021	-0.334665
O11	O	-4.427581	0.456776	-0.162521
O12	O	-4.239978	0.163760	-0.155102
C13	C	-3.622125	0.314057	-0.386434
C14	C	-3.636978	0.311819	-0.525089
C15	C	-3.813525	0.315708	-0.592988
C16	C	-3.828879	0.313395	-0.736295
C17	C	-3.592373	0.499968	-0.168350
C18	C	-3.588224	0.618101	-0.168354
C19	C	-4.053834	0.011003	-0.160971
C20	C	-4.070840	0.129131	-0.160943
V21	V	-3.846966	0.809655	-0.175572
O22	O	-3.885225	0.960948	-0.166803
O23	O	-3.752969	0.662484	-0.174191
O24	O	-3.764630	0.849390	-0.345168
O25	O	-3.873483	0.772749	0.005357
V26	V	-4.340069	0.847315	-0.153783
O27	O	-4.084879	0.793658	-0.223390
O28	O	-4.551559	0.885999	-0.105973
O29	O	-4.211253	0.983238	-0.155160
O30	O	-4.419000	0.701938	-0.162554
O31	O	-4.430742	0.890137	-0.334715
O32	O	-4.199592	0.796333	0.015817
C33	C	-4.041063	0.315040	0.057155
C34	C	-4.005446	0.317285	0.195809
C35	C	-3.603105	0.856518	-0.386462
C36	C	-3.616624	0.892145	-0.525117
C37	C	-4.025053	0.772237	0.057123
C38	C	-3.990811	0.735573	0.195781
C39	C	-3.801785	0.914267	-0.596639
C40	C	-3.814514	0.947757	-0.726919
C41	C	-3.642081	0.959118	-0.785675
C42	C	-3.456905	0.936997	-0.714143
C43	C	-3.444178	0.903514	-0.583864
C44	C	-3.799423	0.705869	0.254513
C45	C	-3.767217	0.671432	0.384799
C46	C	-3.926403	0.666692	0.456349
C47	C	-4.117806	0.696402	0.397610
C48	C	-4.150007	0.730846	0.267328
H49	H	-4.145242	0.322331	-0.756234
O50	O	-3.643699	0.306718	-0.799815
H51	H	-3.554408	0.375944	-0.785784
H52	H	-3.900156	0.638642	0.562432
O53	O	-4.289497	0.691285	0.474785
H54	H	-4.301754	0.609000	0.520477
H55	H	-4.305860	0.755025	0.219518
O56	O	-3.244460	0.879641	-0.506728
H57	H	-3.126711	0.893158	-0.569485
O58	O	-3.560776	0.639385	0.448141
H59	H	-3.501485	0.572815	0.406114
H60	H	-3.953305	0.320756	-0.545024
H61	H	-3.497197	0.306783	-0.573055
H62	H	-3.942210	0.905017	-0.548819
O63	O	-4.014245	0.971596	-0.804062
H64	H	-4.131998	0.958046	-0.741314
O65	O	-3.627710	0.710990	0.177356
H66	H	-3.489224	0.684561	0.240105
H67	H	-3.316518	0.946253	-0.762002
O68	O	-3.655810	0.995368	-0.926164
H69	H	-3.813541	1.008881	-0.966008
