data_functionalizedCrystal
_audit_creation_method	'MofGen! by Chris Wilmer'
_symmetry_space_group_name_H-M	'P1'
_symmetry_Int_Tables_number	1
_symmetry_cell_setting	triclinic
loop_
_symmetry_equiv_pos_as_xyz
  x,y,z
_cell_length_a	29.839135
_cell_length_b	25.639239
_cell_length_c	25.639233
_cell_angle_alpha	89.975333
_cell_angle_beta	90.016634
_cell_angle_gamma	89.957589
loop_
_atom_site_label
_atom_site_type_symbol
_atom_site_fract_x
_atom_site_fract_y
_atom_site_fract_z
Zn1	Zn	0.686730	0.208179	0.295644
Zn2	Zn	1.020063	0.541512	0.628977
Zn3	Zn	1.353396	0.874846	0.962310
Zn4	Zn	0.686662	0.295598	0.208199
Zn5	Zn	1.019996	0.628931	0.541532
Zn6	Zn	1.353329	0.962265	0.874866
Zn7	Zn	0.611611	0.208182	0.208216
Zn8	Zn	0.944944	0.541516	0.541549
Zn9	Zn	1.278277	0.874849	0.874883
Zn10	Zn	0.611562	0.295589	0.295597
Zn11	Zn	0.944895	0.628923	0.628931
Zn12	Zn	1.278229	0.962256	0.962264
O13	O	0.649141	0.251887	0.251914
O14	O	0.982474	0.585220	0.585247
O15	O	1.315808	0.918554	0.918581
O16	O	0.749588	0.219778	0.284056
O17	O	1.082921	0.553111	0.617389
O18	O	1.416254	0.886444	0.950723
O19	O	0.676699	0.284007	0.135036
O20	O	1.010032	0.617340	0.468369
O21	O	1.343365	0.950674	0.801703
O22	O	0.621624	0.135017	0.219840
O23	O	0.954957	0.468350	0.553173
O24	O	1.288291	0.801683	0.886507
O25	O	0.749538	0.284004	0.219811
O26	O	1.082872	0.617337	0.553144
O27	O	1.416205	0.950671	0.886477
O28	O	0.676813	0.135014	0.284073
O29	O	1.010147	0.468348	0.617406
O30	O	1.343480	0.801681	0.950739
O31	O	0.621559	0.219783	0.135049
O32	O	0.954892	0.553116	0.468382
O33	O	1.288225	0.886450	0.801715
O34	O	0.548737	0.219775	0.219795
O35	O	0.882071	0.553108	0.553129
O36	O	1.215404	0.886441	0.886462
O37	O	0.621541	0.283989	0.368769
O38	O	0.954874	0.617323	0.702102
O39	O	1.288208	0.950656	1.035435
O40	O	0.548701	0.283992	0.283994
O41	O	0.882035	0.617325	0.617327
O42	O	1.215368	0.950659	0.950660
O43	O	0.676766	0.219769	0.368803
O44	O	1.010099	0.553103	0.702136
O45	O	1.343433	0.886436	1.035469
O46	O	0.676651	0.368762	0.219766
O47	O	1.009985	0.702095	0.553099
O48	O	1.343318	1.035429	0.886433
O49	O	0.621476	0.368756	0.283977
O50	O	0.954809	0.702089	0.617310
O51	O	1.288142	1.035422	0.950644
C52	C	0.532419	0.251883	0.251892
C53	C	0.865752	0.585216	0.585225
C54	C	1.199085	0.918550	0.918558
C55	C	0.482484	0.251894	0.251894
C56	C	0.815817	0.585227	0.585228
C57	C	1.149151	0.918561	0.918561
C58	C	0.172864	0.218495	0.285416
C59	C	0.506197	0.551829	0.618749
C60	C	0.839530	0.885162	0.952082
C61	C	-0.014810	0.218499	0.285431
C62	C	0.318524	0.551832	0.618764
C63	C	0.651857	0.885165	0.952097
O64	O	-0.039055	0.190090	0.313907
O65	O	0.294278	0.523423	0.647240
O66	O	0.627612	0.856757	0.980573
N67	N	-0.038301	0.251888	0.251933
N68	N	0.295032	0.585221	0.585266
N69	N	0.628366	0.918554	0.918600
C70	C	-0.014871	0.285276	0.218427
C71	C	0.318462	0.618609	0.551760
C72	C	0.651795	0.951942	0.885094
O73	O	-0.039158	0.313671	0.189932
O74	O	0.294175	0.647004	0.523265
O75	O	0.627508	0.980338	0.856599
C76	C	0.172801	0.285269	0.218410
C77	C	0.506134	0.618602	0.551743
C78	C	0.839468	0.951936	0.885077
C79	C	0.196290	0.251882	0.251913
C80	C	0.529623	0.585215	0.585247
C81	C	0.862957	0.918548	0.918580
C82	C	0.196353	0.185110	0.318916
C83	C	0.529686	0.518444	0.652249
C84	C	0.863019	0.851777	0.985583
C85	C	0.243268	0.185112	0.318914
C86	C	0.576601	0.518445	0.652247
C87	C	0.909935	0.851778	0.985581
C88	C	0.266694	0.218498	0.285412
C89	C	0.600028	0.551831	0.618745
C90	C	0.933361	0.885165	0.952078
C91	C	0.243205	0.251883	0.251911
C92	C	0.576539	0.585216	0.585245
C93	C	0.909872	0.918550	0.918578
C94	C	0.196230	0.318654	0.184902
C95	C	0.529563	0.651987	0.518235
C96	C	0.862896	0.985321	0.851568
C97	C	0.243151	0.318648	0.184900
C98	C	0.576484	0.651982	0.518233
C99	C	0.909818	0.985315	0.851566
C100	C	0.266640	0.285261	0.218403
C101	C	0.599973	0.618594	0.551736
C102	C	0.933307	0.951928	0.885070
C103	C	0.313547	0.285271	0.218407
C104	C	0.646881	0.618604	0.551740
C105	C	0.980214	0.951938	0.885074
N106	N	0.337039	0.251882	0.251904
N107	N	0.670372	0.585215	0.585238
N108	N	1.003705	0.918549	0.918571
C109	C	0.313612	0.218496	0.285407
C110	C	0.646946	0.551829	0.618740
C111	C	0.980279	0.885162	0.952073
C112	C	-0.113402	0.285277	0.218439
C113	C	0.219931	0.618611	0.551773
C114	C	0.553265	0.951944	0.885106
C115	C	-0.160320	0.285280	0.218444
C116	C	0.173014	0.618613	0.551777
C117	C	0.506347	0.951947	0.885111
C118	C	-0.160255	0.218502	0.285447
C119	C	0.173079	0.551836	0.618780
C120	C	0.506412	0.885169	0.952114
C121	C	-0.113336	0.218503	0.285444
C122	C	0.219997	0.551836	0.618778
C123	C	0.553331	0.885170	0.952111
C124	C	-0.089910	0.251889	0.251937
C125	C	0.243423	0.585222	0.585270
C126	C	0.576756	0.918555	0.918603
C127	C	0.412138	0.218502	0.285400
C128	C	0.745471	0.551835	0.618734
C129	C	1.078805	0.885168	0.952067
C130	C	0.459058	0.218508	0.285397
C131	C	0.792391	0.551841	0.618730
C132	C	1.125724	0.885174	0.952063
C133	C	0.458989	0.285283	0.218392
C134	C	0.792322	0.618616	0.551726
C135	C	1.125655	0.951950	0.885059
C136	C	0.412073	0.285279	0.218397
C137	C	0.745407	0.618613	0.551731
C138	C	1.078740	0.951946	0.885064
C139	C	0.388649	0.251884	0.251903
C140	C	0.721982	0.585218	0.585237
C141	C	1.055316	0.918551	0.918570
O142	O	0.337822	0.313661	0.189942
O143	O	0.671155	0.646994	0.523275
O144	O	1.004488	0.980327	0.856608
O145	O	0.337908	0.190096	0.313889
O146	O	0.671241	0.523430	0.647223
O147	O	1.004574	0.856763	0.980556
C148	C	0.125948	0.218494	0.285418
C149	C	0.459281	0.551827	0.618751
C150	C	0.792615	0.885160	0.952084
C151	C	0.102459	0.251879	0.251918
C152	C	0.435792	0.585212	0.585251
C153	C	0.769126	0.918545	0.918584
C154	C	0.125885	0.285265	0.218415
C155	C	0.459219	0.618599	0.551749
C156	C	0.792552	0.951932	0.885082
C157	C	0.055541	0.251881	0.251922
C158	C	0.388875	0.585214	0.585256
C159	C	0.722208	0.918548	0.918589
C160	C	0.032115	0.218495	0.285425
C161	C	0.365448	0.551828	0.618758
C162	C	0.698781	0.885161	0.952091
C163	C	0.055606	0.185106	0.318922
C164	C	0.388940	0.518439	0.652255
C165	C	0.722273	0.851773	0.985589
C166	C	0.102522	0.185107	0.318920
C167	C	0.435855	0.518441	0.652253
C168	C	0.769188	0.851774	0.985587
C169	C	0.102394	0.318654	0.184918
C170	C	0.435727	0.651987	0.518251
C171	C	0.769061	0.985321	0.851584
C172	C	0.055479	0.318650	0.184923
C173	C	0.388812	0.651984	0.518256
C174	C	0.722145	0.985317	0.851590
C175	C	0.032052	0.285264	0.218425
C176	C	0.365385	0.618597	0.551759
C177	C	0.698719	0.951931	0.885092
C178	C	0.649063	0.387730	0.251876
C179	C	0.982396	0.721063	0.585209
C180	C	1.315730	1.054396	0.918543
C181	C	0.649071	0.445844	0.251877
C182	C	0.982404	0.779177	0.585211
C183	C	1.315738	1.112510	0.918544
C184	C	0.677833	0.806167	0.285432
C185	C	1.011167	1.139501	0.618766
C186	C	1.344500	1.472834	0.952099
C187	C	0.677841	0.860771	0.285444
C188	C	1.011174	1.194105	0.618778
C189	C	1.344507	1.527438	0.952111
O190	O	0.702250	0.888975	0.313926
O191	O	1.035583	1.222308	0.647259
O192	O	1.368916	1.555641	0.980592
N193	N	0.649135	0.888126	0.251978
N194	N	0.982469	1.221460	0.585312
N195	N	1.315802	1.554793	0.918645
C196	C	0.620418	0.860874	0.218502
C197	C	0.953751	1.194207	0.551836
C198	C	1.287084	1.527540	0.885169
O199	O	0.596002	0.889155	0.190039
O200	O	0.929335	1.222488	0.523372
O201	O	1.262669	1.555822	0.856705
C202	C	0.620408	0.806270	0.218494
C203	C	0.953742	1.139604	0.551827
C204	C	1.287075	1.472937	0.885160
C205	C	0.649119	0.778919	0.251958
C206	C	0.982452	1.112252	0.585291
C207	C	1.315785	1.445585	0.918625
C208	C	0.706541	0.778815	0.318894
C209	C	1.039874	1.112149	0.652228
C210	C	1.373208	1.445482	0.985561
C211	C	0.706534	0.724215	0.318882
C212	C	1.039867	1.057548	0.652215
C213	C	1.373201	1.390881	0.985548
C214	C	0.677819	0.696966	0.285407
C215	C	1.011153	1.030299	0.618740
C216	C	1.344486	1.363633	0.952074
C217	C	0.649112	0.724318	0.251945
C218	C	0.982445	1.057651	0.585279
C219	C	1.315778	1.390985	0.918612
C220	C	0.591689	0.779019	0.185021
C221	C	0.925022	1.112352	0.518354
C222	C	1.258355	1.445686	0.851687
C223	C	0.591682	0.724412	0.185015
C224	C	0.925015	1.057745	0.518348
C225	C	1.258348	1.391079	0.851682
C226	C	0.620392	0.697060	0.218479
C227	C	0.953725	1.030393	0.551813
C228	C	1.287059	1.363727	0.885146
C229	C	0.620390	0.642469	0.218458
C230	C	0.953724	0.975802	0.551791
C231	C	1.287057	1.309136	0.885125
N232	N	0.649096	0.615114	0.251924
N233	N	0.982429	0.948448	0.585257
N234	N	1.315762	1.281781	0.918590
C235	C	0.677810	0.642363	0.285398
C236	C	1.011143	0.975696	0.618732
C237	C	1.344477	1.309029	0.952065
C238	C	0.620439	0.975544	0.218524
C239	C	0.953772	1.308878	0.551857
C240	C	1.287106	1.642211	0.885191
C241	C	0.620450	1.030147	0.218530
C242	C	0.953784	1.363480	0.551863
C243	C	1.287117	1.696813	0.885197
C244	C	0.677873	1.030041	0.285472
C245	C	1.011206	1.363374	0.618806
C246	C	1.344539	1.696707	0.952139
C247	C	0.677863	0.975437	0.285464
C248	C	1.011197	1.308771	0.618797
C249	C	1.344530	1.642104	0.952130
C250	C	0.649144	0.948190	0.251990
C251	C	0.982478	1.281523	0.585323
C252	C	1.315811	1.614856	0.918657
C253	C	0.677794	0.527698	0.285369
C254	C	1.011127	0.861031	0.618702
C255	C	1.344460	1.194364	0.952036
C256	C	0.677785	0.473092	0.285352
C257	C	1.011119	0.806426	0.618685
C258	C	1.344452	1.139759	0.952018
C259	C	0.620361	0.473203	0.218411
C260	C	0.953695	0.806537	0.551745
C261	C	1.287028	1.139870	0.885078
C262	C	0.620371	0.527804	0.218426
C263	C	0.953704	0.861137	0.551760
C264	C	1.287038	1.194470	0.885093
C265	C	0.649089	0.555050	0.251909
C266	C	0.982422	0.888383	0.585243
C267	C	1.315755	1.221716	0.918576
O268	O	0.595992	0.614231	0.189993
O269	O	0.929326	0.947565	0.523326
O270	O	1.262659	1.280898	0.856659
O271	O	0.702217	0.614075	0.313862
O272	O	1.035551	0.947408	0.647195
O273	O	1.368884	1.280742	0.980529
C274	C	0.766319	0.251892	0.251937
C275	C	1.099653	0.585225	0.585270
C276	C	1.432986	0.918558	0.918603
C277	C	0.816254	0.251893	0.251946
C278	C	1.149587	0.585227	0.585280
C279	C	1.482921	0.918560	0.918613
C280	C	0.649156	0.251878	0.388287
C281	C	0.982489	0.585211	0.721620
C282	C	1.315822	0.918545	1.054954
C283	C	0.649162	0.251874	0.446401
C284	C	0.982495	0.585207	0.779734
C285	C	1.315828	0.918541	1.113068
C286	C	0.649205	1.115514	0.251969
C287	C	0.982538	1.448847	0.585302
C288	C	1.315871	1.782181	0.918636
C289	C	0.649163	1.057400	0.252007
C290	C	0.982497	1.390733	0.585340
C291	C	1.315830	1.724067	0.918673
C292	C	0.649153	0.251859	0.116071
C293	C	0.982486	0.585192	0.449405
C294	C	1.315819	0.918525	0.782738
C295	C	0.649233	0.251715	0.057958
C296	C	0.982567	0.585048	0.391291
C297	C	1.315900	0.918382	0.724624
C298	C	0.677954	0.218335	0.806788
C299	C	1.011287	0.551669	1.140121
C300	C	1.344621	0.885002	1.473454
C301	C	0.677960	0.218321	0.861392
C302	C	1.011293	0.551654	1.194725
C303	C	1.344626	0.884988	1.528059
O304	O	0.702403	0.189867	0.889649
O305	O	1.035737	0.523200	1.222982
O306	O	1.369070	0.856534	1.556315
N307	N	0.649211	0.251751	0.888684
N308	N	0.982545	0.585085	1.222017
N309	N	1.315878	0.918418	1.555350
C310	C	0.620452	0.285195	0.861368
C311	C	0.953786	0.618528	1.194702
C312	C	1.287119	0.951862	1.528035
O313	O	0.596000	0.313628	0.889596
O314	O	0.929333	0.646962	1.222929
O315	O	1.262667	0.980295	1.556263
C316	C	0.620445	0.285206	0.806765
C317	C	0.953778	0.618540	1.140098
C318	C	1.287112	0.951873	1.473432
C319	C	0.649198	0.251777	0.779476
C320	C	0.982532	0.585111	1.112809
C321	C	1.315865	0.918444	1.446143
C322	C	0.706705	0.184909	0.779499
C323	C	1.040038	0.518242	1.112832
C324	C	1.373371	0.851575	1.446165
C325	C	0.706700	0.184924	0.724898
C326	C	1.040033	0.518257	1.058231
C327	C	1.373366	0.851591	1.391565
C328	C	0.677944	0.218366	0.697587
C329	C	1.011277	0.551699	1.030920
C330	C	1.344611	0.885033	1.364253
C331	C	0.649193	0.251793	0.724876
C332	C	0.982527	0.585126	1.058209
C333	C	1.315860	0.918459	1.391542
C334	C	0.591684	0.318647	0.779451
C335	C	0.925017	0.651980	1.112784
C336	C	1.258351	0.985313	1.446117
C337	C	0.591679	0.318655	0.724844
C338	C	0.925012	0.651988	1.058177
C339	C	1.258346	0.985322	1.391510
C340	C	0.620432	0.285226	0.697555
C341	C	0.953766	0.618559	1.030888
C342	C	1.287099	0.951893	1.364221
C343	C	0.620432	0.285250	0.642963
C344	C	0.953766	0.618583	0.976297
C345	C	1.287099	0.951916	1.309630
N346	N	0.649181	0.251819	0.615672
N347	N	0.982514	0.585153	0.949005
N348	N	1.315847	0.918486	1.282338
C349	C	0.677936	0.218377	0.642983
C350	C	1.011270	0.551711	0.976317
C351	C	1.344603	0.885044	1.309650
C352	C	0.620470	0.285168	0.976039
C353	C	0.953803	0.618501	1.309372
C354	C	1.287136	0.951834	1.642706
C355	C	0.620479	0.285159	1.030641
C356	C	0.953813	0.618493	1.363975
C357	C	1.287146	0.951826	1.697308
C358	C	0.677986	0.218285	1.030661
C359	C	1.011319	0.551618	1.363995
C360	C	1.344653	0.884951	1.697328
C361	C	0.677978	0.218296	0.976058
C362	C	1.011312	0.551629	1.309391
C363	C	1.344645	0.884963	1.642725
C364	C	0.649218	0.251737	0.948747
C365	C	0.982551	0.585070	1.282081
C366	C	1.315885	0.918404	1.615414
C367	C	0.677924	0.218412	0.528318
C368	C	1.011257	0.551746	0.861651
C369	C	1.344591	0.885079	1.194985
C370	C	0.677918	0.218432	0.473713
C371	C	1.011251	0.551765	0.807046
C372	C	1.344584	0.885099	1.140379
C373	C	0.620409	0.285305	0.473698
C374	C	0.953743	0.618638	0.807031
C375	C	1.287076	0.951971	1.140364
C376	C	0.620417	0.285287	0.528298
C377	C	0.953751	0.618620	0.861631
C378	C	1.287084	0.951954	1.194965
C379	C	0.649176	0.251837	0.555607
C380	C	0.982509	0.585170	0.888940
C381	C	1.315843	0.918503	1.222274
O382	O	0.596000	0.313688	0.614672
O383	O	0.929333	0.647021	0.948005
O384	O	1.262666	0.980355	1.281339
O385	O	0.702381	0.189944	0.614749
O386	O	1.035714	0.523277	0.948082
O387	O	1.369047	0.856610	1.281415
H388	H	0.036524	0.157923	0.346203
H389	H	0.369858	0.491256	0.679536
H390	H	0.703191	0.824590	1.012869
H391	H	0.597076	1.052412	0.191274
H392	H	0.930410	1.385745	0.524608
H393	H	1.263743	1.719079	0.857941
H394	H	0.597049	0.312402	0.953806
H395	H	0.930383	0.645736	1.287139
H396	H	1.263716	0.979069	1.620473
F397	F	0.708359	0.556687	0.321005
F398	F	1.041692	0.890021	0.654338
F399	F	1.375025	1.223354	0.987671
H400	H	0.177113	0.345841	0.157619
H401	H	0.510446	0.679174	0.490952
H402	H	0.843780	1.012508	0.824286
F403	F	0.737104	0.807807	0.354528
F404	F	1.070437	1.141140	0.687861
F405	F	1.403771	1.474474	1.021194
H406	H	0.568270	0.345868	0.801660
H407	H	0.901603	0.679201	1.134993
H408	H	1.234937	1.012535	1.468327
F409	F	0.589804	0.444194	0.182787
F410	F	0.923137	0.777527	0.516120
F411	F	1.256470	1.110860	0.849453
F412	F	0.708420	0.946332	0.321081
F413	F	1.041753	1.279666	0.654414
F414	F	1.375087	1.612999	0.987748
F415	F	0.708433	1.059050	0.321100
F416	F	1.041766	1.392384	0.654433
F417	F	1.375100	1.725717	0.987767
H418	H	0.121642	0.157920	0.346202
H419	H	0.454976	0.491253	0.679535
H420	H	0.788309	0.824586	1.012868
F421	F	0.708523	0.182852	0.444673
F422	F	1.041856	0.516185	0.778006
F423	F	1.375190	0.849519	1.111339
F424	F	0.589873	0.946550	0.182891
F425	F	0.923206	1.279883	0.516225
F426	F	1.256539	1.613217	0.849558
F427	F	0.737317	0.149317	0.808558
F428	F	1.070650	0.482650	1.141891
F429	F	1.403984	0.815983	1.475224
H430	H	0.036358	0.345843	0.157641
H431	H	0.369691	0.679177	0.490975
H432	H	0.703024	1.012510	0.824308
F433	F	0.561130	0.808117	0.149404
F434	F	0.894463	1.141451	0.482738
F435	F	1.227796	1.474784	0.816071
F436	F	0.127320	0.354186	0.149253
F437	F	0.460653	0.687519	0.482587
F438	F	0.793987	1.020853	0.815920
F439	F	0.708345	0.443985	0.320969
F440	F	1.041678	0.777319	0.654303
F441	F	1.375012	1.110652	0.987636
H442	H	0.730113	0.157702	0.702684
H443	H	1.063446	0.491035	1.036018
H444	H	1.396779	0.824368	1.369351
H445	H	0.729911	0.701948	0.346132
H446	H	1.063244	1.035281	0.679466
H447	H	1.396578	1.368615	1.012799
H448	H	0.568294	0.702230	0.157757
H449	H	0.901627	1.035563	0.491091
H450	H	1.234960	1.368896	0.824424
F451	F	0.589820	0.556915	0.182804
F452	F	0.923154	0.890248	0.516137
F453	F	1.256487	1.223581	0.849471
F454	F	0.708590	0.182691	1.059738
F455	F	1.041923	0.516025	1.393071
F456	F	1.375256	0.849358	1.726405
H457	H	0.701340	0.191172	0.550547
H458	H	1.034674	0.524505	0.883880
H459	H	1.368007	0.857839	1.217213
F460	F	0.561066	0.354248	0.695781
F461	F	0.894400	0.687581	1.029114
F462	F	1.227733	1.020914	1.362447
F463	F	0.589818	0.320869	0.557342
F464	F	0.923151	0.654202	0.890675
F465	F	1.256484	0.987536	1.224009
F466	F	0.589807	0.320894	0.444621
F467	F	0.923140	0.654227	0.777954
F468	F	1.256473	0.987560	1.111288
F469	F	0.708581	0.182716	0.947020
F470	F	1.041914	0.516049	1.280353
F471	F	1.375247	0.849383	1.613687
H472	H	0.597070	0.312386	1.052855
H473	H	0.930404	0.645719	1.386189
H474	H	1.263737	0.979053	1.719522
H475	H	0.478180	0.191319	0.312681
H476	H	0.811514	0.524652	0.646014
H477	H	1.144847	0.857986	0.979348
H478	H	0.393072	0.191307	0.312682
H479	H	0.726405	0.524640	0.646016
H480	H	1.059738	0.857973	0.979349
H481	H	0.177284	0.157920	0.346198
H482	H	0.510617	0.491253	0.679531
H483	H	0.843950	0.824587	1.012864
F484	F	-0.088341	0.182967	0.321102
F485	F	0.244992	0.516301	0.654435
F486	F	0.578325	0.849634	0.987769
F487	F	-0.185195	0.182969	0.321102
F488	F	0.148139	0.516302	0.654436
F489	F	0.481472	0.849636	0.987769
F490	F	-0.185313	0.320820	0.182790
F491	F	0.148020	0.654154	0.516124
F492	F	0.481353	0.987487	0.849457
F493	F	-0.088476	0.320810	0.182770
F494	F	0.244857	0.654143	0.516103
F495	F	0.578190	0.987476	0.849436
F496	F	0.268261	0.149575	0.354572
F497	F	0.601594	0.482908	0.687905
F498	F	0.934928	0.816241	1.021238
H499	H	0.262222	0.345835	0.157612
H500	H	0.595555	0.679168	0.490945
H501	H	0.928888	1.012501	0.824279
H502	H	0.478071	0.312466	0.191117
H503	H	0.811404	0.645800	0.524450
H504	H	1.144738	0.979133	0.857783
F505	F	0.387074	0.320827	0.182753
F506	F	0.720407	0.654160	0.516086
F507	F	1.053740	0.987493	0.849419
