data_functionalizedCrystal
_audit_creation_method	'MofGen! by Chris Wilmer'
_symmetry_space_group_name_H-M	'P1'
_symmetry_Int_Tables_number	1
_symmetry_cell_setting	triclinic
loop_
_symmetry_equiv_pos_as_xyz
  x,y,z
_cell_length_a	14.044191
_cell_length_b	13.101039
_cell_length_c	16.109301
_cell_angle_alpha	93.366104
_cell_angle_beta	91.673371
_cell_angle_gamma	93.669281
loop_
_atom_site_label
_atom_site_type_symbol
_atom_site_fract_x
_atom_site_fract_y
_atom_site_fract_z
O1	O	1.252419	-0.085172	-0.204657
O2	O	1.502419	0.164828	0.045343
O3	O	1.752419	0.414828	0.295343
O4	O	2.002419	0.664828	0.545343
O5	O	0.976450	-0.085185	-0.197419
O6	O	1.226450	0.164815	0.052581
O7	O	1.476450	0.414815	0.302581
O8	O	1.726450	0.664815	0.552581
O9	O	1.122016	-0.085168	-0.080571
O10	O	1.372016	0.164832	0.169429
O11	O	1.622016	0.414832	0.419429
O12	O	1.872016	0.664832	0.669429
O13	O	1.106853	-0.085189	-0.321505
O14	O	1.356853	0.164811	-0.071505
O15	O	1.606853	0.414811	0.178495
O16	O	1.856853	0.664811	0.428495
O17	O	1.132465	0.085264	-0.072176
O18	O	1.382465	0.335264	0.177824
O19	O	1.632465	0.585264	0.427824
O20	O	1.882465	0.835264	0.677824
O21	O	0.986899	0.085246	-0.189024
O22	O	1.236899	0.335246	0.060976
O23	O	1.486899	0.585246	0.310976
O24	O	1.736899	0.835246	0.560976
O25	O	1.262867	0.085259	-0.196263
O26	O	1.512867	0.335259	0.053737
O27	O	1.762867	0.585259	0.303737
O28	O	2.012867	0.835259	0.553737
Zn29	Zn	1.126542	0.112312	-0.191311
Zn30	Zn	1.376542	0.362312	0.058689
Zn31	Zn	1.626542	0.612312	0.308689
Zn32	Zn	1.876542	0.862312	0.558689
Zn33	Zn	1.112775	-0.112238	-0.202371
Zn34	Zn	1.362775	0.137762	0.047629
Zn35	Zn	1.612775	0.387762	0.297629
Zn36	Zn	1.862775	0.637762	0.547629
O37	O	1.117301	0.085242	-0.313111
O38	O	1.367301	0.335242	-0.063111
O39	O	1.617301	0.585242	0.186889
O40	O	1.867301	0.835242	0.436889
C41	C	0.946361	0.000029	-0.190055
C42	C	1.196361	0.250029	0.059945
C43	C	1.446361	0.500029	0.309945
C44	C	1.696361	0.750029	0.559945
C45	C	0.841138	0.000025	-0.180609
C46	C	1.091138	0.250025	0.069391
C47	C	1.341138	0.500025	0.319391
C48	C	1.591138	0.750025	0.569391
C49	C	0.590836	0.000031	-0.230333
C50	C	0.840836	0.250031	0.019667
C51	C	1.090836	0.500031	0.269667
C52	C	1.340836	0.750031	0.519667
C53	C	0.648486	0.000035	-0.163352
C54	C	0.898486	0.250035	0.086648
C55	C	1.148486	0.500035	0.336648
C56	C	1.398486	0.750035	0.586648
C57	C	0.755687	0.000029	-0.172956
C58	C	1.005687	0.250029	0.077044
C59	C	1.255687	0.500029	0.327044
C60	C	1.505687	0.750029	0.577044
C61	C	0.483625	0.000036	-0.220731
C62	C	0.733625	0.250036	0.029269
C63	C	0.983625	0.500036	0.279269
C64	C	1.233625	0.750036	0.529269
N65	N	1.103381	-0.265488	-0.209913
N66	N	1.353381	-0.015488	0.040087
N67	N	1.603381	0.234512	0.290087
N68	N	1.853381	0.484512	0.540087
C69	C	1.090590	-0.474532	-0.220174
C70	C	1.340590	-0.224532	0.029826
C71	C	1.590590	0.025468	0.279826
C72	C	1.840590	0.275468	0.529826
C73	C	1.148732	-0.525400	-0.173504
C74	C	1.398732	-0.275400	0.076496
C75	C	1.648732	-0.025400	0.326496
C76	C	1.898732	0.224600	0.576496
C77	C	1.141615	-0.641720	-0.179213
C78	C	1.391615	-0.391720	0.070787
C79	C	1.641615	-0.141720	0.320787
C80	C	1.891615	0.108280	0.570787
C81	C	1.097706	-0.358202	-0.214466
C82	C	1.347706	-0.108202	0.035534
C83	C	1.597706	0.141798	0.285534
C84	C	1.847706	0.391798	0.535534
C85	C	1.292956	0.000043	-0.203627
C86	C	1.542956	0.250043	0.046373
C87	C	1.792956	0.500043	0.296373
C88	C	2.042956	0.750043	0.546373
C89	C	1.398179	0.000041	-0.213073
C90	C	1.648179	0.250041	0.036927
C91	C	1.898179	0.500041	0.286927
C92	C	2.148179	0.750041	0.536927
C93	C	1.126626	0.000049	-0.045353
C94	C	1.376626	0.250049	0.204647
C95	C	1.626626	0.500049	0.454647
C96	C	1.876626	0.750049	0.704647
C97	C	1.124785	0.000050	0.047079
C98	C	1.374785	0.250050	0.297079
C99	C	1.624785	0.500050	0.547079
C100	C	1.874785	0.750050	0.797079
N101	N	1.135944	0.265562	-0.183762
N102	N	1.385944	0.515562	0.066238
N103	N	1.635944	0.765562	0.316238
N104	N	1.885944	1.015562	0.566238
C105	C	1.112691	0.000024	-0.348329
C106	C	1.362691	0.250024	-0.098329
C107	C	1.612691	0.500024	0.151671
C108	C	1.862691	0.750024	0.401671
C109	C	1.114532	0.000016	-0.440762
C110	C	1.364532	0.250016	-0.190762
C111	C	1.614532	0.500016	0.059238
C112	C	1.864532	0.750016	0.309238
C113	C	1.206878	0.000037	0.263242
C114	C	1.456878	0.250037	0.513242
C115	C	1.706878	0.500037	0.763242
C116	C	1.956878	0.750037	1.013242
C117	C	1.205140	0.000029	0.350091
C118	C	1.455140	0.250029	0.600091
C119	C	1.705140	0.500029	0.850091
C120	C	1.955140	0.750029	1.100091
C121	C	1.032432	0.000025	0.343070
C122	C	1.282432	0.250025	0.593070
C123	C	1.532432	0.500025	0.843070
C124	C	1.782432	0.750025	1.093070
C125	C	1.034171	0.000026	0.256222
C126	C	1.284171	0.250026	0.506222
C127	C	1.534171	0.500026	0.756222
C128	C	1.784171	0.750026	1.006222
C129	C	1.121397	0.000038	0.216310
C130	C	1.371397	0.250038	0.466310
C131	C	1.621397	0.500038	0.716310
C132	C	1.871397	0.750038	0.966310
C133	C	1.117920	0.000028	0.390008
C134	C	1.367920	0.250028	0.640008
C135	C	1.617920	0.500028	0.890008
C136	C	1.867920	0.750028	1.140008
C137	C	1.116035	0.000019	0.484173
C138	C	1.366035	0.250019	0.734173
C139	C	1.616035	0.500019	0.984173
C140	C	1.866035	0.750019	1.234173
C141	C	1.123282	0.000045	0.122138
C142	C	1.373282	0.250045	0.372138
C143	C	1.623282	0.500045	0.622138
C144	C	1.873282	0.750045	0.872138
H145	H	0.617327	-0.000031	-0.098799
H146	H	0.867327	0.249969	0.151201
H147	H	1.117327	0.499969	0.401201
H148	H	1.367327	0.749969	0.651201
O149	O	0.941964	0.000033	0.205602
O150	O	1.191964	0.250033	0.455602
O151	O	1.441964	0.500033	0.705602
O152	O	1.691964	0.750033	0.955602
H153	H	0.934359	-0.069436	0.162445
H154	H	1.184359	0.180564	0.412445
H155	H	1.434359	0.430564	0.662445
H156	H	1.684359	0.680564	0.912445
O157	O	1.221751	-0.467375	-0.114901
O158	O	1.471751	-0.217375	0.135099
O159	O	1.721751	0.032625	0.385099
O160	O	1.971751	0.282625	0.635099
H161	H	1.263252	-0.522586	-0.081598
H162	H	1.513252	-0.272586	0.168402
H163	H	1.763252	-0.022586	0.418402
H164	H	2.013252	0.227414	0.668402
O165	O	1.300951	0.000029	0.220189
O166	O	1.550951	0.250029	0.470189
O167	O	1.800951	0.500029	0.720189
O168	O	2.050951	0.750029	0.970189
H169	H	1.360098	0.000014	0.267417
H170	H	1.610098	0.250014	0.517417
H171	H	1.860098	0.500014	0.767417
H172	H	2.110098	0.750014	1.017417
O173	O	1.297337	0.000042	0.400714
O174	O	1.547337	0.250042	0.650714
O175	O	1.797337	0.500042	0.900714
O176	O	2.047337	0.750042	1.150714
H177	H	1.358279	0.000060	0.358367
H178	H	1.608279	0.250060	0.608367
H179	H	1.858279	0.500060	0.858367
H180	H	2.108279	0.750060	1.108367
H181	H	0.621989	0.000022	-0.294885
H182	H	0.871989	0.250022	-0.044885
H183	H	1.121989	0.500022	0.205115
H184	H	1.371989	0.750022	0.455115
H185	H	1.035472	-0.518335	-0.264414
H186	H	1.285472	-0.268335	-0.014414
H187	H	1.535472	-0.018335	0.235586
H188	H	1.785472	0.231665	0.485586
O189	O	0.938356	0.000035	0.386117
O190	O	1.188356	0.250035	0.636117
O191	O	1.438356	0.500035	0.886117
O192	O	1.688356	0.750035	1.136117
H193	H	0.951507	0.000049	0.454393
H194	H	1.201507	0.250049	0.704393
H195	H	1.451507	0.500049	0.954393
H196	H	1.701507	0.750049	1.204393
