data_functionalizedCrystal
_audit_creation_method	'MofGen! by Chris Wilmer'
_symmetry_space_group_name_H-M	'P1'
_symmetry_Int_Tables_number	1
_symmetry_cell_setting	triclinic
loop_
_symmetry_equiv_pos_as_xyz
  x,y,z
_cell_length_a	16.120530
_cell_length_b	15.297327
_cell_length_c	15.296720
_cell_angle_alpha	72.680778
_cell_angle_beta	97.285319
_cell_angle_gamma	82.677776
loop_
_atom_site_label
_atom_site_type_symbol
_atom_site_fract_x
_atom_site_fract_y
_atom_site_fract_z
Zn1	Zn	1.083362	0.533176	-0.661647
Zn2	Zn	1.583362	1.033176	-0.161647
Zn3	Zn	1.083269	0.661792	-0.533035
Zn4	Zn	1.583269	1.161792	-0.033035
Zn5	Zn	0.975419	0.499135	-0.499009
Zn6	Zn	1.475419	0.999135	0.000991
Zn7	Zn	0.918250	0.677674	-0.677540
Zn8	Zn	1.418250	1.177674	-0.177540
O9	O	1.015075	0.592944	-0.592808
O10	O	1.515075	1.092944	-0.092808
O11	O	1.197586	0.557837	-0.652175
O12	O	1.697586	1.057837	-0.152175
O13	O	1.092850	0.619322	-0.399981
O14	O	1.592850	1.119322	0.100019
O15	O	1.013702	0.375105	-0.499692
O16	O	1.513702	0.875105	0.000308
O17	O	1.197517	0.652330	-0.557684
O18	O	1.697517	1.152330	-0.057684
O19	O	1.093008	0.400115	-0.619181
O20	O	1.593008	0.900115	-0.119181
O21	O	1.013612	0.499819	-0.374982
O22	O	1.513612	0.999819	0.125018
O23	O	0.853600	0.515219	-0.515103
O24	O	1.353600	1.015219	-0.015103
O25	O	0.916266	0.679399	-0.803973
O26	O	1.416266	1.179399	-0.303973
O27	O	0.811598	0.646391	-0.646270
O28	O	1.311598	1.146391	-0.146270
O29	O	1.037573	0.573237	-0.792296
O30	O	1.537573	1.073237	-0.292296
O31	O	1.037415	0.792444	-0.573095
O32	O	1.537415	1.292444	-0.073095
O33	O	0.916176	0.804113	-0.679263
O34	O	1.416176	1.304113	-0.179263
C35	C	0.802979	0.578836	-0.578720
C36	C	1.302979	1.078836	-0.078720
C37	C	0.712235	0.572825	-0.572718
C38	C	1.212235	1.072825	-0.072718
C39	C	0.970553	0.631887	-0.832395
C40	C	1.470553	1.131887	-0.332395
C41	C	0.951580	0.648482	-0.934493
C42	C	1.451580	1.148482	-0.434493
C43	C	0.970600	0.831613	-0.631618
C44	C	1.470600	1.331613	-0.131618
C45	C	0.951643	0.933727	-0.648256
C46	C	1.451643	1.433727	-0.148256
C47	C	0.546085	0.561832	-0.561765
C48	C	1.046085	1.061832	-0.061765
C49	C	0.484881	0.624135	-0.623929
C50	C	0.984881	1.124135	-0.123929
C51	C	0.392429	0.618018	-0.617835
C52	C	0.892429	1.118018	-0.117835
C53	C	0.638546	0.567948	-0.567858
C54	C	1.138546	1.067948	-0.067858
C55	C	1.228000	0.607109	-0.606952
C56	C	1.728000	1.107109	-0.106952
C57	C	1.318735	0.613145	-0.612979
C58	C	1.818735	1.113145	-0.112979
C59	C	1.059742	0.353348	-0.553868
C60	C	1.559742	0.853348	-0.053868
C61	C	1.078777	0.251246	-0.537275
C62	C	1.578777	0.751246	-0.037275
C63	C	1.150846	1.197179	-0.474225
C64	C	1.650846	1.697179	0.025775
C65	C	1.168658	1.101237	-0.458587
C66	C	1.668658	1.601237	0.041413
C67	C	1.114406	1.059355	-0.506003
C68	C	1.614406	1.559355	-0.006003
C69	C	1.042339	1.113424	-0.569059
C70	C	1.542339	1.613424	-0.069059
C71	C	1.024521	1.209373	-0.584693
C72	C	1.524521	1.709373	-0.084693
C73	C	0.988081	1.071550	-0.616471
C74	C	1.488081	1.571550	-0.116471
C75	C	0.916013	1.125618	-0.679527
C76	C	1.416013	1.625618	-0.179527
C77	C	0.898200	1.221558	-0.695158
C78	C	1.398200	1.721558	-0.195158
C79	C	0.952452	1.263441	-0.647742
C80	C	1.452452	1.763441	-0.147742
C81	C	1.005899	0.975600	-0.600838
C82	C	1.505899	1.475600	-0.100838
C83	C	0.879573	0.987794	-0.711306
C84	C	1.379573	1.487794	-0.211306
C85	C	0.861761	1.083736	-0.726943
C86	C	1.361761	1.583736	-0.226943
C87	C	1.150737	0.474177	-1.197974
C88	C	1.650737	0.974177	-0.697974
C89	C	1.168568	0.458587	-1.102048
C90	C	1.668568	0.958587	-0.602048
C91	C	1.114322	0.506059	-1.060155
C92	C	1.614322	1.006059	-0.560155
C93	C	1.042243	0.569125	-1.114196
C94	C	1.542243	1.069125	-0.614196
C95	C	1.024414	0.584722	-1.210132
C96	C	1.524414	1.084722	-0.710132
C97	C	0.988000	0.616604	-1.072313
C98	C	1.488000	1.116604	-0.572313
C99	C	0.915921	0.679670	-1.126355
C100	C	1.415921	1.179670	-0.626355
C101	C	0.898095	0.695263	-1.222281
C102	C	1.398095	1.195263	-0.722281
C103	C	0.952340	0.647791	-1.264174
C104	C	1.452340	1.147791	-0.764174
C105	C	1.005829	0.601007	-0.976377
C106	C	1.505829	1.101007	-0.476377
C107	C	0.879506	0.711552	-0.988536
C108	C	1.379506	1.211552	-0.488536
C109	C	0.861675	0.727142	-1.084461
C110	C	1.361675	1.227142	-0.584461
C111	C	1.059484	0.554090	-0.354145
C112	C	1.559484	1.054090	0.145855
C113	C	1.078663	0.537246	-0.252016
C114	C	1.578663	1.037246	0.247984
H115	H	0.501917	0.682066	-0.681727
H116	H	1.001917	1.182066	-0.181727
Br117	Br	0.763856	0.812727	-1.157813
Br118	Br	1.263856	1.312727	-0.657813
H119	H	1.194900	0.435538	-1.232094
H120	H	1.694900	0.935538	-0.732094
H121	H	0.835336	0.750209	-0.954427
H122	H	1.335336	1.250209	-0.454427
H123	H	1.128845	0.493362	-0.982047
H124	H	1.628845	0.993362	-0.482047
H125	H	0.529050	0.503905	-0.503972
H126	H	1.029050	1.003905	-0.003972
H127	H	1.128913	0.981235	-0.493267
H128	H	1.628913	1.481235	0.006733
Br129	Br	0.800389	1.294935	-0.780727
Br130	Br	1.300389	1.794935	-0.280727
H131	H	1.227256	0.407241	-1.058055
H132	H	1.727256	0.907241	-0.558055
H133	H	1.195007	1.231288	-0.435620
H134	H	1.695007	1.731288	0.064380
Br135	Br	1.103700	0.902232	-0.515263
Br136	Br	1.603700	1.402232	-0.015263
Br137	Br	0.927991	1.393560	-0.668526
Br138	Br	1.427991	1.893560	-0.168526
Br139	Br	1.266465	1.027867	-0.373024
Br140	Br	1.766465	1.527867	0.126976
Br141	Br	0.763959	1.157125	-0.812518
Br142	Br	1.263959	1.657125	-0.312518
Br143	Br	0.805934	0.930960	-0.775651
Br144	Br	1.305934	1.430960	-0.275651
H145	H	1.064516	0.549657	-0.932385
H146	H	1.564516	1.049657	-0.432385
Br147	Br	0.928146	0.668951	-1.394365
Br148	Br	1.428146	1.168951	-0.894365
H149	H	0.839408	0.746623	-1.266281
H150	H	1.339408	1.246623	-0.766281
