data_functionalizedCrystal
_audit_creation_method	'MofGen! by Chris Wilmer'
_symmetry_space_group_name_H-M	'P1'
_symmetry_Int_Tables_number	1
_symmetry_cell_setting	triclinic
loop_
_symmetry_equiv_pos_as_xyz
  x,y,z
_cell_length_a	27.732048
_cell_length_b	16.974800
_cell_length_c	16.053789
_cell_angle_alpha	89.238068
_cell_angle_beta	92.912067
_cell_angle_gamma	83.017409
loop_
_atom_site_label
_atom_site_type_symbol
_atom_site_fract_x
_atom_site_fract_y
_atom_site_fract_z
O1	O	0.061535	1.048336	-0.001422
O2	O	0.561535	1.548336	0.498578
O3	O	0.069796	0.818693	0.014103
O4	O	0.569796	1.318693	0.514103
O5	O	-0.004716	0.940646	0.005843
O6	O	0.495284	1.440646	0.505843
O7	O	0.136048	0.926383	0.006839
O8	O	0.636048	1.426383	0.506839
O9	O	-0.008339	0.934749	-0.132619
O10	O	0.491661	1.434749	0.367381
O11	O	0.066173	0.812796	-0.124358
O12	O	0.566173	1.312796	0.375642
O13	O	0.057913	1.042439	-0.139884
O14	O	0.557913	1.542439	0.360116
Zn15	Zn	0.061468	0.926681	-0.154105
Zn16	Zn	0.561468	1.426681	0.345895
Zn17	Zn	0.066241	0.934450	0.028324
Zn18	Zn	0.566241	1.434450	0.528324
O19	O	0.132425	0.920486	-0.131623
O20	O	0.632425	1.420486	0.368377
C21	C	0.067739	0.786374	-0.053142
C22	C	0.567739	1.286374	0.446858
C23	C	0.067001	0.698860	-0.047226
C24	C	0.567001	1.198860	0.452774
C25	C	0.064679	0.654536	-0.119924
C26	C	0.564679	1.154536	0.380076
C27	C	0.063978	0.572308	-0.114368
C28	C	0.563978	1.072308	0.385632
C29	C	0.065603	0.534406	-0.036113
C30	C	0.565603	1.034406	0.463887
C31	C	0.067924	0.578736	0.036590
C32	C	0.567924	1.078736	0.536590
C33	C	0.068622	0.660963	0.031033
C34	C	0.568622	1.160963	0.531033
C35	C	0.063726	0.288829	-0.011400
C36	C	0.563726	0.788829	0.488600
C37	C	0.063030	0.206596	-0.005849
C38	C	0.563030	0.706596	0.494151
C39	C	0.059082	0.200175	-0.156808
C40	C	0.559082	0.700175	0.343192
C41	C	0.059783	0.282403	-0.162358
C42	C	0.559783	0.782403	0.337642
C43	C	0.062102	0.326726	-0.089655
C44	C	0.562102	0.826726	0.410345
N45	N	0.064888	0.450356	-0.030432
N46	N	0.564888	0.950356	0.469568
N47	N	0.062813	0.410776	-0.095337
N48	N	0.562813	0.910776	0.404663
C49	C	-0.024535	0.937398	-0.063370
C50	C	0.475465	1.437398	0.436630
C51	C	-0.078192	0.936496	-0.063316
C52	C	0.421808	1.436496	0.436684
C53	C	-0.416866	1.002888	-0.067762
C54	C	0.083134	1.502888	0.432238
C55	C	-0.618533	0.999543	-0.067524
C56	C	-0.118533	1.499543	0.432476
O57	O	-0.649659	1.060254	-0.071592
O58	O	-0.149659	1.560254	0.428408
N59	N	-0.637809	0.927230	-0.062636
N60	N	-0.137809	1.427230	0.437364
C61	C	-0.606665	0.855748	-0.057802
C62	C	-0.106665	1.355748	0.442198
O63	O	-0.627688	0.794164	-0.053630
O64	O	-0.127688	1.294164	0.446370
C65	C	-0.405000	0.859094	-0.058033
C66	C	0.095000	1.359094	0.441967
C67	C	-0.385726	0.931411	-0.062930
C68	C	0.114274	1.431411	0.437070
C69	C	-0.397592	1.075200	-0.072657
C70	C	0.102408	1.575200	0.427343
C71	C	-0.347179	1.076035	-0.072721
C72	C	0.152821	1.576035	0.427279
C73	C	-0.316039	1.004559	-0.067890
C74	C	0.183961	1.504559	0.432110
C75	C	-0.335313	0.932247	-0.062994
C76	C	0.164687	1.432247	0.437006
C77	C	-0.373857	0.787613	-0.053193
C78	C	0.126143	1.287613	0.446807
C79	C	-0.323438	0.788456	-0.053249
C80	C	0.176562	1.288456	0.446751
C81	C	-0.304164	0.860773	-0.058146
C82	C	0.195836	1.360773	0.441854
C83	C	-0.253760	0.861605	-0.058227
C84	C	0.246240	1.361605	0.441773
N85	N	-0.234483	0.933919	-0.063115
N86	N	0.265517	1.433919	0.436885
C87	C	-0.265623	1.005395	-0.067946
C88	C	0.234377	1.505395	0.432054
C89	C	-0.712543	0.853996	-0.057682
C90	C	-0.212543	1.353996	0.442318
C91	C	-0.762959	0.853159	-0.057625
C92	C	-0.262959	1.353159	0.442375
C93	C	-0.774823	0.996955	-0.067346
C94	C	-0.274823	1.496955	0.432654
C95	C	-0.724406	0.997791	-0.067409
C96	C	-0.224406	1.497791	0.432591
C97	C	-0.693267	0.926310	-0.062570
C98	C	-0.193267	1.426310	0.437430
C99	C	-0.159751	1.007144	-0.068081
C100	C	0.340249	1.507144	0.431919
C101	C	-0.109332	1.007973	-0.068148
C102	C	0.390668	1.507973	0.431852
C103	C	-0.097473	0.864177	-0.058422
C104	C	0.402527	1.364177	0.441578
C105	C	-0.147887	0.863348	-0.058360
C106	C	0.352113	1.363348	0.441640
C107	C	-0.179025	0.934838	-0.063187
C108	C	0.320975	1.434838	0.436813
O109	O	-0.222605	0.800927	-0.054151
O110	O	0.277395	1.300927	0.445849
O111	O	-0.244590	1.066971	-0.072099
O112	O	0.255410	1.566971	0.427901
C113	C	-0.467280	1.002053	-0.067698
C114	C	0.032720	1.502053	0.432302
C115	C	-0.486554	0.929741	-0.062802
C116	C	0.013446	1.429741	0.437198
C117	C	-0.455414	0.858264	-0.057971
C118	C	0.044586	1.358264	0.442029
C119	C	-0.536970	0.928904	-0.062746
C120	C	-0.036970	1.428904	0.437254
C121	C	-0.568109	1.000381	-0.067577
C122	C	-0.068109	1.500381	0.432423
C123	C	-0.548833	1.072694	-0.072466
C124	C	-0.048833	1.572694	0.427534
C125	C	-0.498419	1.073530	-0.072529
C126	C	0.001581	1.573530	0.427471
C127	C	-0.474690	0.785951	-0.053083
C128	C	0.025310	1.285951	0.446917
C129	C	-0.525104	0.785121	-0.053020
C130	C	-0.025104	1.285121	0.446980
C131	C	-0.556244	0.856598	-0.057852
C132	C	-0.056244	1.356598	0.442148
C133	C	0.152244	0.923734	-0.062408
C134	C	0.652244	1.423734	0.437592
C135	C	0.205901	0.924636	-0.062457
C136	C	0.705901	1.424636	0.437543
C137	C	0.059970	1.074758	-0.072636
C138	C	0.559970	1.574758	0.427364
C139	C	0.060707	1.162272	-0.078547
C140	C	0.560707	1.662272	0.421453
N141	N	0.058210	0.921385	-0.278608
N142	N	0.558210	1.421385	0.221392
C143	C	0.086288	0.966991	-0.325375
C144	C	0.586288	1.466991	0.174625
C145	C	0.084005	0.963297	-0.412533
C146	C	0.584005	1.463297	0.087467
C147	C	0.053648	0.913992	-0.452922
C148	C	0.553648	1.413992	0.047078
C149	C	0.025567	0.868384	-0.406149
C150	C	0.525567	1.368384	0.093851
C151	C	0.027846	0.872083	-0.318993
C152	C	0.527846	1.372083	0.181007
C153	C	0.043694	0.897844	-0.713243
C154	C	0.543694	1.397844	-0.213243
C155	C	0.041417	0.894147	-0.800406
C156	C	0.541417	1.394147	-0.300406
C157	C	0.099855	0.989062	-0.806784
C158	C	0.599855	1.489062	-0.306784
C159	C	0.102135	0.992753	-0.719626
C160	C	0.602135	1.492753	-0.219626
C161	C	0.074052	0.947148	-0.672860
C162	C	0.574052	1.447148	-0.172860
N163	N	0.051315	0.910213	-0.542011
N164	N	0.551315	1.410213	-0.042011
N165	N	0.076382	0.950932	-0.583773
N166	N	0.576382	1.450932	-0.083773
N167	N	0.069495	0.939753	0.152827
N168	N	0.569495	1.439753	0.652827
H169	H	0.062079	0.536225	-0.173567
H170	H	0.562079	1.036225	0.326433
C171	C	0.114913	1.013436	-0.463971
C172	C	0.614913	1.513436	0.036029
N173	N	0.138200	1.051193	-0.502713
N174	N	0.638200	1.551193	-0.002713
H175	H	0.004982	0.834945	-0.280916
H176	H	0.504982	1.334945	0.219084
H177	H	0.064355	0.175739	0.057879
H178	H	0.564355	0.675739	0.557879
H179	H	0.111011	1.007136	-0.292497
H180	H	0.611011	1.507136	0.207503
C181	C	0.062890	0.696221	-0.206012
C182	C	0.562890	1.196221	0.293988
N183	N	0.061541	0.727616	-0.270855
N184	N	0.561541	1.227616	0.229145
C185	C	-0.169088	0.783795	-0.052979
C186	C	0.330912	1.283795	0.447021
N187	N	-0.185053	0.723875	-0.048916
N188	N	0.314947	1.223875	0.451084
C189	C	0.057992	0.324090	-0.248445
C190	C	0.557992	0.824090	0.251555
N191	N	0.056644	0.355489	-0.313286
N192	N	0.556644	0.855489	0.186714
H193	H	0.122719	1.026191	-0.844870
H194	H	0.622719	1.526191	-0.344870
C195	C	0.056527	0.151413	-0.236776
C196	C	0.556527	0.651413	0.263224
N197	N	0.054600	0.114687	-0.297012
N198	N	0.554600	0.614687	0.202988
C199	C	0.066272	0.337576	0.068577
C200	C	0.566272	0.837576	0.568577
N201	N	0.068189	0.374295	0.128819
N202	N	0.568189	0.874295	0.628819
C203	C	0.069711	0.537040	0.122672
C204	C	0.569711	1.037040	0.622672
N205	N	0.071058	0.505635	0.187511
N206	N	0.571058	1.005635	0.687511
C207	C	0.071178	0.709718	0.111007
C208	C	0.571178	1.209718	0.611007
N209	N	0.073102	0.746441	0.171246
N210	N	0.573102	1.246441	0.671246
H211	H	0.126854	1.032904	-0.686748
H212	H	0.626854	1.532904	-0.186748
H213	H	0.016696	0.853992	-0.833287
H214	H	0.516696	1.353992	-0.333287
H215	H	-0.093643	1.066865	-0.072138
H216	H	0.406357	1.566865	0.427862
C217	C	-0.193996	1.085786	-0.073398
C218	C	0.306004	1.585786	0.426602
N219	N	-0.219789	1.145020	-0.077410
N220	N	0.280211	1.645020	0.422590
H221	H	-0.331492	1.134924	-0.076705
H222	H	0.168508	1.634924	0.423295
C223	C	0.012805	0.847670	-0.661812
C224	C	0.512805	1.347670	-0.161812
N225	N	-0.010460	0.809874	-0.623071
N226	N	0.489540	1.309874	-0.123071
H227	H	-0.708718	1.056679	-0.071395
H228	H	-0.208718	1.556679	0.428605
C229	C	-0.007826	0.814146	-0.450580
C230	C	0.492174	1.314146	0.049420
N231	N	-0.032977	0.773289	-0.484044
N232	N	0.467023	1.273289	0.015956
C233	C	-0.431839	1.153837	-0.077982
C234	C	0.068161	1.653837	0.422018
N235	N	-0.457632	1.213072	-0.082002
N236	N	0.042368	1.713072	0.417998
C237	C	-0.546298	0.705560	-0.047634
C238	C	-0.046298	1.205560	0.452366
N239	N	-0.562260	0.645637	-0.043569
N240	N	-0.062260	1.145637	0.456431
C241	C	-0.784154	0.773604	-0.052249
C242	C	-0.284154	1.273604	0.447751
N243	N	-0.800116	0.713680	-0.048194
N244	N	-0.300116	1.213680	0.451806
C245	C	-0.809086	1.075581	-0.072654
C246	C	-0.309086	1.575581	0.427346
N247	N	-0.834895	1.134798	-0.076645
N248	N	-0.334895	1.634798	0.423355
C249	C	-0.678295	0.775355	-0.052359
C250	C	-0.178295	1.275355	0.447641
N251	N	-0.652502	0.716122	-0.048352
N252	N	-0.152502	1.216122	0.451648
H253	H	-0.298086	0.730245	-0.049308
H254	H	0.201914	1.230245	0.450692
H255	H	-0.389540	0.728724	-0.049201
H256	H	0.110460	1.228724	0.450799
C257	C	-0.063210	0.785557	-0.053102
C258	C	0.436790	1.285557	0.446898
N259	N	-0.037401	0.726340	-0.049087
N260	N	0.462599	1.226340	0.450913
H261	H	-0.574196	1.130893	-0.076403
H262	H	-0.074196	1.630893	0.423597
C263	C	-0.440443	0.707316	-0.047766
C264	C	0.059557	1.207316	0.452234
N265	N	-0.414649	0.648083	-0.043764
N266	N	0.085351	1.148083	0.456236
H267	H	-0.482732	1.132418	-0.076517
H268	H	0.017268	1.632418	0.423483
