data_functionalizedCrystal
_audit_creation_method	'MofGen! by Chris Wilmer'
_symmetry_space_group_name_H-M	'P1'
_symmetry_Int_Tables_number	1
_symmetry_cell_setting	triclinic
loop_
_symmetry_equiv_pos_as_xyz
  x,y,z
_cell_length_a	16.109302
_cell_length_b	10.654551
_cell_length_c	15.186229
_cell_angle_alpha	89.999082
_cell_angle_beta	89.994701
_cell_angle_gamma	83.973571
loop_
_atom_site_label
_atom_site_type_symbol
_atom_site_fract_x
_atom_site_fract_y
_atom_site_fract_z
O1	O	1.104090	0.161423	-0.073263
O2	O	0.862148	0.181511	-0.073255
O3	O	0.988681	-0.011348	-0.073259
O4	O	0.977557	0.354281	-0.073258
O5	O	0.988673	-0.011350	0.073198
O6	O	0.862139	0.181508	0.073202
O7	O	1.104082	0.161420	0.073195
Zn8	Zn	0.983109	0.171464	0.096452
Zn9	Zn	0.983121	0.171467	-0.096512
O10	O	0.977548	0.354279	0.073199
C11	C	0.831164	0.180695	-0.000025
C12	C	0.738854	0.178255	-0.000023
C13	C	0.987860	-0.058136	-0.000033
C14	C	0.985416	-0.197546	-0.000039
C15	C	0.526475	0.172612	0.079802
C16	C	0.439741	0.170306	0.079799
C17	C	0.439761	0.170315	-0.079877
C18	C	0.526494	0.172612	-0.079873
C19	C	0.569848	0.173767	-0.000031
C20	C	0.396382	0.169164	-0.000038
C21	C	0.302341	0.166664	-0.000042
C22	C	0.663895	0.176265	-0.000026
C23	C	0.984274	-0.263041	-0.079871
C24	C	0.981970	-0.394030	-0.079867
C25	C	0.981954	-0.394018	0.079809
C26	C	0.984252	-0.263030	0.079804
C27	C	0.985438	-0.197556	-0.159713
C28	C	0.984297	-0.263052	-0.239552
C29	C	0.981993	-0.394041	-0.239548
C30	C	0.980830	-0.459535	-0.159705
C31	C	1.135066	0.162236	-0.000037
C32	C	1.227376	0.164676	-0.000045
C33	C	0.978370	0.401067	-0.000030
C34	C	0.980814	0.540477	-0.000029
N35	N	0.983108	0.171460	0.228144
N36	N	0.983129	0.171461	-0.228205
C37	C	1.039156	0.086092	0.453865
C38	C	1.039159	0.086089	0.546055
C39	C	0.927074	0.256834	0.546068
C40	C	0.927068	0.256830	0.453880
C41	C	0.983114	0.171460	0.407781
C42	C	0.983122	0.171461	0.592159
C43	C	0.983125	0.171458	0.692115
C44	C	0.983111	0.171461	0.307819
H45	H	0.404431	0.169366	0.144807
C46	C	0.659421	0.176135	0.150711
C47	C	0.574133	0.173869	0.167562
H48	H	0.688839	0.176916	0.204894
H49	H	0.679554	0.103331	0.117911
H50	H	0.667711	0.249710	0.117912
H51	H	0.565842	0.100289	0.200356
H52	H	0.553994	0.246680	0.200377
H53	H	0.404451	0.169377	-0.144881
H54	H	0.561810	0.173550	-0.144886
C55	C	1.052576	-0.448487	0.215910
C56	C	0.980683	-0.466007	0.167568
H57	H	1.051789	-0.492924	0.270091
H58	H	1.100590	-0.479554	0.183106
H59	H	1.054098	-0.361098	0.227328
H60	H	0.979164	-0.553396	0.156145
H61	H	0.932656	-0.434945	0.200379
C62	C	0.982244	-0.380889	-0.397379
C63	C	0.980736	-0.466035	-0.327304
H64	H	0.981475	-0.425338	-0.451557
H65	H	0.934747	-0.320204	-0.394062
H66	H	1.031542	-0.339398	-0.394051
H67	H	0.931434	-0.507520	-0.330629
H68	H	1.028237	-0.526743	-0.330622
H69	H	0.987316	-0.090899	-0.159726
C70	C	0.987814	-0.062258	-0.310460
C71	C	0.985555	-0.191062	-0.327312
H72	H	0.988590	-0.017819	-0.364642
H73	H	0.939800	-0.031206	-0.277652
H74	H	1.036595	-0.050396	-0.277669
H75	H	0.936771	-0.202925	-0.360098
H76	H	1.033574	-0.222123	-0.360134
C77	C	1.048854	-0.661349	-0.116247
C78	C	0.978286	-0.603519	-0.159711
H79	H	1.047278	-0.750236	-0.116252
H80	H	1.097767	-0.641324	-0.145736
H81	H	1.049365	-0.631720	-0.057272
H82	H	0.977778	-0.633141	-0.218688
H83	H	0.929360	-0.623554	-0.130224
C84	C	1.086694	-0.131304	0.425531
C85	C	1.100751	-0.007785	0.403214
H86	H	1.124717	-0.189270	0.394265
H87	H	1.094706	-0.143480	0.487027
H88	H	1.031126	-0.144937	0.410420
H89	H	1.156317	0.005851	0.418331
H90	H	1.092746	0.004395	0.341704
C91	C	0.913585	-0.208529	0.215883
C92	C	0.985494	-0.191015	0.167552
H93	H	0.914348	-0.164070	0.270056
H94	H	0.865581	-0.177484	0.183065
H95	H	0.912066	-0.295915	0.227318
H96	H	0.987009	-0.103629	0.156111
H97	H	1.033510	-0.222055	0.200377
H98	H	1.084792	0.016573	0.583574
C99	C	0.877294	0.332638	0.312565
C100	C	0.865465	0.350677	0.403216
H101	H	0.839259	0.390567	0.281289
H102	H	0.932851	0.346300	0.297454
H103	H	0.867779	0.248815	0.297473
H104	H	0.874985	0.434497	0.418309
H105	H	0.809895	0.337025	0.418333
C106	C	0.877322	0.332665	0.687392
C107	C	0.865479	0.350681	0.596743
H108	H	0.839299	0.390613	0.718674
H109	H	0.867807	0.248860	0.702503
H110	H	0.932890	0.346327	0.702478
H111	H	0.809912	0.337009	0.581656
H112	H	0.874988	0.434506	0.581627
