data_functionalizedCrystal
_audit_creation_method	'MofGen! by Chris Wilmer'
_symmetry_space_group_name_H-M	'P1'
_symmetry_Int_Tables_number	1
_symmetry_cell_setting	triclinic
loop_
_symmetry_equiv_pos_as_xyz
  x,y,z
_cell_length_a	10.686220
_cell_length_b	16.120531
_cell_length_c	10.686551
_cell_angle_alpha	91.295135
_cell_angle_beta	90.307919
_cell_angle_gamma	82.921837
loop_
_atom_site_label
_atom_site_type_symbol
_atom_site_fract_x
_atom_site_fract_y
_atom_site_fract_z
Zn1	Zn	1.957884	0.203135	-0.579036
Zn2	Zn	2.457884	0.703135	-0.079036
Zn3	Zn	1.930960	0.353949	-0.381633
Zn4	Zn	2.430960	0.853949	0.118367
Zn5	Zn	1.730491	0.224451	-0.387099
Zn6	Zn	2.230491	0.724451	0.112901
Zn7	Zn	1.737510	0.352261	-0.607272
Zn8	Zn	2.237510	0.852261	-0.107272
O9	O	1.839211	0.283449	-0.488760
O10	O	2.339211	0.783449	0.011240
O11	O	2.130437	0.214927	-0.538745
O12	O	2.630437	0.714927	-0.038745
O13	O	1.890162	0.346398	-0.207602
O14	O	2.390162	0.846398	0.292398
O15	O	1.768985	0.105019	-0.403030
O16	O	2.268985	0.605019	0.096970
O17	O	2.110656	0.325729	-0.393715
O18	O	2.610656	0.825729	0.106285
O19	O	1.936049	0.089358	-0.544045
O20	O	2.436049	0.589358	-0.044045
O21	O	1.742878	0.251256	-0.211617
O22	O	2.242878	0.751256	0.288383
O23	O	1.555298	0.249619	-0.430410
O24	O	2.055298	0.749619	0.069590
O25	O	1.780948	0.322852	-0.778283
O26	O	2.280948	0.822852	-0.278283
O27	O	1.560455	0.343520	-0.592170
O28	O	2.060455	0.843520	-0.092170
O29	O	1.942856	0.213290	-0.757538
O30	O	2.442856	0.713290	-0.257538
O31	O	1.896969	0.470329	-0.421095
O32	O	2.396969	0.970329	0.078905
O33	O	1.754842	0.469089	-0.586871
O34	O	2.254842	0.969089	-0.086871
C35	C	1.512209	0.298700	-0.514948
C36	C	2.012209	0.798700	-0.014948
C37	C	1.372317	0.305243	-0.526182
C38	C	1.872317	0.805243	-0.026182
C39	C	1.823782	0.499941	-0.506478
C40	C	2.323782	0.999941	-0.006478
C41	C	1.817300	0.592549	-0.514091
C42	C	2.317300	1.092549	-0.014091
C43	C	1.805474	0.762104	-0.528014
C44	C	2.305474	1.262104	-0.028014
C45	C	1.872990	0.803955	-0.449432
C46	C	2.372990	1.303955	0.050568
C47	C	1.866410	0.898301	-0.457179
C48	C	2.366410	1.398301	0.042821
C49	C	1.812052	0.667749	-0.520269
C50	C	2.312052	1.167749	-0.020269
C51	C	2.167490	0.268139	-0.462471
C52	C	2.667490	0.768139	0.037529
C53	C	2.307383	0.261614	-0.451268
C54	C	2.807383	0.761614	0.048732
C55	C	1.865688	0.265505	-0.814490
C56	C	2.365688	0.765505	-0.314490
C57	C	1.876971	0.257858	-0.953297
C58	C	2.376971	0.757858	-0.453297
C59	C	1.854691	1.066112	-0.470978
C60	C	2.354691	1.566112	0.029022
C61	C	1.861168	0.973505	-0.463351
C62	C	2.361168	1.473505	0.036649
C63	C	1.812914	0.301260	-0.164286
C64	C	2.312914	0.801260	0.335714
C65	C	1.801891	0.308660	-0.025442
C66	C	2.301891	0.808660	0.474558
H67	H	1.935732	0.768929	-0.376336
H68	H	2.435732	1.268929	0.123664
O69	O	1.304209	0.361350	-0.622538
O70	O	1.804209	0.861350	-0.122538
H71	H	1.201337	0.357851	-0.616548
H72	H	1.701337	0.857851	-0.116548
O73	O	1.375498	0.205499	-0.354914
O74	O	1.875498	0.705499	0.145086
H75	H	1.478372	0.208987	-0.360915
H76	H	1.978372	0.708987	0.139085
O77	O	1.722340	0.808492	-0.624814
O78	O	2.222340	1.308492	-0.124814
H79	H	1.730140	0.876390	-0.615763
H80	H	2.230140	1.376390	-0.115763
O81	O	1.705299	0.374022	-0.966611
O82	O	2.205299	0.874022	-0.466611
H83	H	1.711287	0.369968	-0.863163
H84	H	2.211287	0.869968	-0.363163
H85	H	1.949892	0.208515	-0.997728
H86	H	2.449892	0.708515	-0.497728
