data_functionalizedCrystal
_audit_creation_method	'MofGen! by Chris Wilmer'
_symmetry_space_group_name_H-M	'P1'
_symmetry_Int_Tables_number	1
_symmetry_cell_setting	triclinic
loop_
_symmetry_equiv_pos_as_xyz
  x,y,z
_cell_length_a	19.077409
_cell_length_b	13.897448
_cell_length_c	19.077276
_cell_angle_alpha	87.715128
_cell_angle_beta	85.511266
_cell_angle_gamma	92.319430
loop_
_atom_site_label
_atom_site_type_symbol
_atom_site_fract_x
_atom_site_fract_y
_atom_site_fract_z
Zn1	Zn	1.061623	-0.345205	0.355456
Zn2	Zn	1.561623	0.154795	0.855456
Zn3	Zn	1.066318	-0.499729	0.237577
Zn4	Zn	1.566318	0.000271	0.737577
Zn5	Zn	0.948504	-0.345204	0.242303
Zn6	Zn	1.448504	0.154796	0.742303
Zn7	Zn	0.943720	-0.513217	0.360140
Zn8	Zn	1.443720	-0.013217	0.860140
O9	O	1.005041	-0.425839	0.298869
O10	O	1.505041	0.074161	0.798869
O11	O	1.160894	-0.360059	0.335880
O12	O	1.660894	0.139941	0.835880
O13	O	1.054656	-0.473585	0.139556
O14	O	1.554656	0.026415	0.639556
O15	O	0.963546	-0.210221	0.257331
O16	O	1.463546	0.289779	0.757331
O17	O	1.164343	-0.473587	0.249275
O18	O	1.664343	0.026413	0.749275
O19	O	1.046655	-0.210222	0.340464
O20	O	1.546655	0.289778	0.840464
O21	O	0.968098	-0.360056	0.143029
O22	O	1.468098	0.139944	0.643029
O23	O	0.849221	-0.373135	0.261873
O24	O	1.349221	0.126865	0.761873
O25	O	0.955394	-0.496575	0.458166
O26	O	1.455394	0.003425	0.958166
O27	O	0.845706	-0.496573	0.348447
O28	O	1.345706	0.003427	0.848447
O29	O	1.042016	-0.373138	0.454725
O30	O	1.542016	0.126862	0.954725
O31	O	1.050017	-0.636501	0.253817
O32	O	1.550017	-0.136501	0.753817
O33	O	0.959946	-0.646410	0.343864
O34	O	1.459946	-0.146410	0.843864
C35	C	0.821885	-0.436318	0.306182
C36	C	1.321885	0.063682	0.806182
C37	C	0.743529	-0.440826	0.309327
C38	C	1.243529	0.059174	0.809327
C39	C	0.302274	-0.473079	0.331918
C40	C	0.802274	0.026921	0.831918
C41	C	0.375898	-0.468850	0.328950
C42	C	0.875898	0.031150	0.828950
C43	C	0.414514	-0.402373	0.282466
C44	C	0.914514	0.097627	0.782466
C45	C	0.379502	-0.340128	0.238943
C46	C	0.879502	0.159872	0.738943
C47	C	0.305879	-0.344361	0.241908
C48	C	0.805879	0.155639	0.741908
C49	C	0.634895	-0.382814	0.268769
C50	C	1.134895	0.117186	0.768769
C51	C	0.708523	-0.378582	0.265808
C52	C	1.208523	0.121418	0.765808
C53	C	0.704914	-0.507307	0.355815
C54	C	1.204914	-0.007307	0.855815
C55	C	0.631290	-0.511531	0.358779
C56	C	1.131290	-0.011531	0.858779
C57	C	0.596285	-0.449289	0.315253
C58	C	1.096285	0.050711	0.815253
N59	N	0.489769	-0.398047	0.279432
N60	N	0.989769	0.101953	0.779432
N61	N	0.521030	-0.453620	0.318284
N62	N	1.021030	0.046380	0.818284
C63	C	1.004990	-0.676455	0.298851
C64	C	1.504990	-0.176455	0.798851
C65	C	1.005032	-0.783667	0.298864
C66	C	1.505032	-0.283667	0.798864
C67	C	1.005105	-0.979960	0.298905
C68	C	1.505105	-0.479960	0.798905
C69	C	1.005062	-0.870729	0.298884
C70	C	1.505062	-0.370729	0.798884
C71	C	1.188912	-0.415319	0.291528
C72	C	1.688912	0.084681	0.791528
C73	C	1.267267	-0.410836	0.288400
C74	C	1.767267	0.089164	0.788400
C75	C	0.997648	-0.436361	0.482739
C76	C	1.497648	0.063639	0.982739
C77	C	0.994497	-0.440845	0.561094
C78	C	1.494497	0.059155	1.061094
C79	C	1.005110	-0.174244	0.298902
C80	C	1.505110	0.325756	0.798902
C81	C	1.005140	-0.067029	0.298916
C82	C	1.505140	0.432971	0.798916
C83	C	0.971927	-0.473039	1.002338
C84	C	1.471927	0.026961	1.502338
C85	C	0.974885	-0.468812	0.928716
C86	C	1.474885	0.031188	1.428716
C87	C	1.021467	-0.402436	0.890117
C88	C	1.521467	0.097564	1.390117
C89	C	1.065089	-0.340277	0.925143
C90	C	1.565089	0.159723	1.425143
C91	C	1.062127	-0.344501	0.998764
C92	C	1.562127	0.155499	1.498764
C93	C	1.035158	-0.382910	0.669741
C94	C	1.535158	0.117090	1.169741
C95	C	1.038118	-0.378693	0.596115
C96	C	1.538118	0.121307	1.096115
C97	C	0.947912	-0.507227	0.599693
C98	C	1.447912	-0.007227	1.099693
C99	C	0.944957	-0.511448	0.673315
C100	C	1.444957	-0.011448	1.173315
C101	C	0.988577	-0.449286	0.708336
C102	C	1.488577	0.050714	1.208336
N103	N	1.024493	-0.398116	0.814863
N104	N	1.524493	0.101884	1.314863
N105	N	0.985547	-0.453603	0.783588
N106	N	1.485547	0.046397	1.283588
C107	C	1.012399	-0.415377	1.115714
C108	C	1.512399	0.084623	1.615714
C109	C	1.015548	-0.410887	1.037360
C110	C	1.515548	0.089113	1.537360
H111	H	0.410949	-0.286005	0.201091
H112	H	0.910949	0.213995	0.701091
H113	H	0.739962	-0.324437	0.227961
H114	H	1.239962	0.175563	0.727961
H115	H	0.733423	-0.557982	0.391251
H116	H	1.233423	-0.057982	0.891251
H117	H	1.103014	-0.286229	0.893710
H118	H	1.603014	0.213771	1.393710
N119	N	1.079720	-0.319412	0.705496
N120	N	1.579720	0.180588	1.205496
N121	N	1.121310	-0.260159	0.671021
N122	N	1.621310	0.239841	1.171021
H123	H	1.152786	-0.215311	0.696275
H124	H	1.652786	0.284689	1.196275
N125	N	0.270130	-0.280778	0.197447
N126	N	0.770130	0.219222	0.697447
N127	N	0.304614	-0.221428	0.155945
N128	N	0.804614	0.278572	0.655945
H129	H	0.279367	-0.176523	0.124541
H130	H	0.779367	0.323477	0.624541
H131	H	0.270838	-0.527207	0.369774
H132	H	0.770838	-0.027207	0.869774
N133	N	0.924337	-0.540844	1.041753
N134	N	1.424337	-0.040844	1.541753
N135	N	0.885389	-0.596323	1.010471
N136	N	1.385389	-0.096323	1.510471
H137	H	0.851773	-0.644208	1.038306
H138	H	1.351773	-0.144208	1.538306
N139	N	1.085706	-0.310882	0.556696
N140	N	1.585706	0.189118	1.056696
N141	N	1.124647	-0.255384	0.587971
N142	N	1.624647	0.244616	1.087971
H143	H	1.158255	-0.207494	0.560132
H144	H	1.658255	0.292506	1.060132
N145	N	1.106684	-0.280999	1.034529
N146	N	1.606684	0.219001	1.534529
N147	N	1.148270	-0.221735	1.000060
N148	N	1.648270	0.278265	1.500060
H149	H	1.179736	-0.176880	1.025317
H150	H	1.679736	0.323120	1.525317
H151	H	0.606403	-0.332135	0.233324
H152	H	1.106403	0.167865	0.733324
N153	N	0.411660	-0.532419	0.373409
N154	N	0.911660	-0.032419	0.873409
N155	N	0.450959	-0.498792	0.416716
N156	N	0.950959	0.001208	0.916716
H157	H	0.476218	-0.543690	0.448114
H158	H	0.976218	-0.043690	0.948114
H159	H	0.939372	-0.519433	0.900205
H160	H	1.439372	-0.019433	1.400205
H161	H	0.907026	-0.565499	0.704738
H162	H	1.407026	-0.065499	1.204738
H163	H	0.912398	-0.557835	0.571172
H164	H	1.412398	-0.057835	1.071172
H165	H	0.599854	-0.565666	0.396630
H166	H	1.099854	-0.065666	0.896630
