data_functionalizedCrystal
_audit_creation_method	'MofGen! by Chris Wilmer'
_symmetry_space_group_name_H-M	'P1'
_symmetry_Int_Tables_number	1
_symmetry_cell_setting	triclinic
loop_
_symmetry_equiv_pos_as_xyz
  x,y,z
_cell_length_a	10.723024
_cell_length_b	17.666332
_cell_length_c	10.723023
_cell_angle_alpha	90.005418
_cell_angle_beta	84.467709
_cell_angle_gamma	90.009033
loop_
_atom_site_label
_atom_site_type_symbol
_atom_site_fract_x
_atom_site_fract_y
_atom_site_fract_z
O1	O	1.657197	0.062942	0.175030
O2	O	1.294044	0.062944	0.191783
O3	O	1.483998	0.062940	0.001830
O4	O	1.467243	0.062946	0.364982
O5	O	1.483964	-0.062957	0.001819
O6	O	1.294010	-0.062953	0.191772
O7	O	1.657163	-0.062955	0.175019
Cu8	Cu	1.475584	-0.074449	0.183395
Cu9	Cu	1.475623	0.074438	0.183407
O10	O	1.467209	-0.062951	0.364972
C11	C	1.247528	-0.000004	0.190558
C12	C	1.108973	-0.000003	0.186911
N13	N	1.475565	-0.179169	0.183385
C14	C	1.033991	-0.000001	0.293198
C15	C	0.890787	0.000000	0.289431
C16	C	1.559704	-0.218780	0.099316
C17	C	1.559711	-0.298028	0.099310
C18	C	1.475591	-0.337661	0.183395
C19	C	1.391436	-0.298040	0.267471
C20	C	1.391423	-0.218794	0.267466
N21	N	1.460651	-0.462077	0.293680
N22	N	1.460671	-0.537358	0.293681
C23	C	1.475624	-0.576425	0.183413
N24	N	1.490581	-0.537367	0.073140
N25	N	1.490567	-0.462080	0.073141
C26	C	1.475596	-0.423590	0.183409
C27	C	1.559776	-0.701966	0.099330
C28	C	1.559774	-0.781215	0.099322
C29	C	1.391505	-0.781225	0.267494
C30	C	1.391501	-0.701978	0.267491
C31	C	1.475643	-0.662353	0.183410
C32	C	1.703679	-0.000005	0.176243
C33	C	1.842234	-0.000001	0.179891
C34	C	1.482762	-0.000008	-0.044675
C35	C	1.479114	-0.000005	-0.183229
N36	N	1.475652	0.179158	0.183407
C37	C	1.477506	0.065214	-0.244990
C38	C	1.473736	0.065218	-0.388193
C39	C	1.468445	-0.000002	0.411477
C40	C	1.472093	0.000001	0.550031
H41	H	1.075812	-0.000003	0.386984
H42	H	1.323009	-0.813494	0.335953
H43	H	1.472359	0.121055	-0.441306
H44	H	1.067152	0.000015	0.093125
O45	O	1.473932	-0.073972	-0.379643
H46	H	1.390583	-0.077216	-0.309935
H47	H	0.826354	0.000005	0.380421
H48	H	0.906659	0.000001	0.088896
H49	H	1.628214	-0.186520	0.030850
O50	O	1.479366	0.139177	-0.174608
H51	H	1.563618	0.172110	-0.209915
H52	H	1.628230	-0.330286	0.030848
O53	O	1.477249	-0.073965	-0.253620
H54	H	1.392986	-0.106893	-0.218327
H55	H	1.322942	-0.330313	0.335932
H56	H	1.628286	-0.669702	0.030863
H57	H	1.322905	-0.186541	0.335926
H58	H	1.628287	-0.813467	0.030856
H59	H	1.322992	-0.669724	0.335953
