data_functionalizedCrystal
_audit_creation_method	'MofGen! by Chris Wilmer'
_symmetry_space_group_name_H-M	'P1'
_symmetry_Int_Tables_number	1
_symmetry_cell_setting	triclinic
loop_
_symmetry_equiv_pos_as_xyz
  x,y,z
_cell_length_a	16.109301
_cell_length_b	10.065875
_cell_length_c	16.109301
_cell_angle_alpha	81.213309
_cell_angle_beta	83.461532
_cell_angle_gamma	98.741855
loop_
_atom_site_label
_atom_site_type_symbol
_atom_site_fract_x
_atom_site_fract_y
_atom_site_fract_z
O1	O	1.115290	0.113406	0.094652
O2	O	0.873231	0.113428	0.107949
O3	O	1.000909	0.113407	-0.019729
O4	O	0.987612	0.113427	0.222331
O5	O	0.976563	-0.113578	0.004715
O6	O	0.848884	-0.113557	0.132394
O7	O	1.090944	-0.113579	0.119097
Zn8	Zn	0.966049	-0.149607	0.129626
Zn9	Zn	0.998126	0.149456	0.097420
O10	O	0.963266	-0.113558	0.246775
C11	C	0.830083	-0.000062	0.119632
C12	C	0.737789	-0.000054	0.118016
N13	N	0.944162	-0.353709	0.151606
C14	C	0.515515	-0.000064	0.190025
C15	C	0.428794	-0.000073	0.188502
C16	C	0.448667	-0.000079	0.037014
C17	C	0.535386	-0.000080	0.038539
C18	C	0.568808	-0.000066	0.115046
C19	C	0.395368	-0.000074	0.111998
C20	C	0.301341	-0.000083	0.110346
C21	C	0.662841	-0.000058	0.116699
C22	C	0.990506	-0.421495	0.105062
C23	C	0.973668	-0.578660	0.121984
C24	C	1.134092	-0.000086	0.107413
C25	C	1.226388	-0.000085	0.109028
C26	C	0.988197	-0.000084	-0.038482
C27	C	0.986582	-0.000083	-0.130777
N28	N	1.020019	0.353558	0.075434
C29	C	1.057067	-0.000065	-0.439778
C30	C	1.058592	-0.000073	-0.353056
C31	C	0.907102	-0.000078	-0.333183
C32	C	0.905578	-0.000080	-0.419901
C33	C	0.980563	-0.000066	-0.473198
C34	C	0.983613	-0.000073	-0.299758
C35	C	0.985265	-0.000081	-0.205731
C36	C	0.978911	-0.000060	-0.567230
C37	C	0.975978	-0.000064	0.265527
C38	C	0.977594	-0.000056	0.357822
H39	H	0.542723	-0.000062	0.252323
H40	H	1.042645	-0.363179	0.052683
H41	H	0.385405	-0.000074	0.249558
O42	O	1.132876	0.000117	-0.320515
C43	C	1.150904	0.117690	-0.283621
H44	H	1.089570	0.156875	-0.266218
H45	H	1.181201	0.091251	-0.224001
H46	H	1.196517	0.200013	-0.330808
H47	H	1.118125	-0.000054	-0.483169
O48	O	0.911407	-0.648367	0.184375
C49	C	0.851172	-0.731008	0.148839
H50	H	0.881867	-0.752268	0.085995
H51	H	0.827389	-0.831549	0.194329
H52	H	0.795552	-0.676038	0.137460
O53	O	0.416068	-0.000022	-0.037236
C54	C	0.328097	-0.000051	-0.022503
H55	H	0.312321	0.042923	0.037756
H56	H	0.308553	0.065850	-0.078551
H57	H	0.292280	-0.108946	-0.014803
H58	H	1.072161	-0.588130	0.023051
H59	H	0.892017	-0.412026	0.203979
O60	O	0.831262	0.000164	-0.452356
C61	C	0.798148	0.117703	-0.437762
H62	H	0.851693	0.199872	-0.428583
H63	H	0.767021	0.157159	-0.494535
H64	H	0.748953	0.091126	-0.378370
H65	H	0.846052	-0.000085	-0.289779
H66	H	0.578779	-0.000085	-0.022521
