data_functionalizedCrystal
_audit_creation_method	'MofGen! by Chris Wilmer'
_symmetry_space_group_name_H-M	'P1'
_symmetry_Int_Tables_number	1
_symmetry_cell_setting	triclinic
loop_
_symmetry_equiv_pos_as_xyz
  x,y,z
_cell_length_a	8.559649
_cell_length_b	13.596369
_cell_length_c	8.559649
_cell_angle_alpha	90.001014
_cell_angle_beta	110.221336
_cell_angle_gamma	90.005140
loop_
_atom_site_label
_atom_site_type_symbol
_atom_site_fract_x
_atom_site_fract_y
_atom_site_fract_z
O1	O	2.126887	0.081776	0.055046
O2	O	2.626887	0.581776	0.555046
O3	O	1.651402	0.081780	-0.028735
O4	O	2.151402	0.581780	0.471265
O5	O	1.931036	0.081777	0.250898
O6	O	2.431036	0.581777	0.750898
O7	O	1.847254	0.081779	-0.224587
O8	O	2.347254	0.581779	0.275413
O9	O	1.931003	-0.081806	0.250881
O10	O	2.431003	0.418194	0.750881
O11	O	1.651370	-0.081803	-0.028752
O12	O	2.151370	0.418197	0.471248
O13	O	2.126855	-0.081807	0.055029
O14	O	2.626855	0.418193	0.555029
Zn15	Zn	1.889107	-0.107777	0.013135
Zn16	Zn	2.389107	0.392223	0.513135
Zn17	Zn	1.889150	0.107750	0.013159
Zn18	Zn	2.389150	0.607750	0.513159
O19	O	1.847222	-0.081804	-0.224604
O20	O	2.347222	0.418196	0.275396
C21	C	1.591077	-0.000011	-0.035093
C22	C	2.091077	0.499989	0.464907
C23	C	1.411378	-0.000010	-0.053992
C24	C	1.911378	0.499990	0.446008
N25	N	1.889090	-0.254869	0.013122
N26	N	2.389090	0.245131	0.513122
C27	C	1.889098	-0.343867	0.013119
C28	C	2.389098	0.156133	0.513119
C29	C	1.889115	-0.455518	0.013133
C30	C	2.389115	0.044482	0.513133
C31	C	1.889139	-0.544509	0.013153
C32	C	2.389139	-0.044509	0.513153
C33	C	1.889158	-0.656167	0.013165
C34	C	2.389158	-0.156167	0.513165
C35	C	2.187180	-0.000014	0.061387
C36	C	2.687180	0.499986	0.561387
C37	C	2.366879	-0.000009	0.080286
C38	C	2.866879	0.499991	0.580286
C39	C	1.937369	-0.000013	0.311198
C40	C	2.437369	0.499987	0.811198
C41	C	1.956268	-0.000008	0.490898
C42	C	2.456268	0.499992	0.990898
N43	N	1.889182	0.254842	0.013186
N44	N	2.389182	0.754842	0.513186
C45	C	1.840889	-0.000012	-0.284904
C46	C	2.340889	0.499988	0.215096
C47	C	1.821990	-0.000011	-0.464604
C48	C	2.321990	0.499989	0.035396
H49	H	1.311990	-0.000004	-0.183420
H50	H	1.811990	0.499996	0.316580
C51	C	2.131119	-0.000015	0.625143
C52	C	2.631119	0.499985	1.125143
H53	H	2.212823	-0.000019	0.573129
H54	H	2.712823	0.499981	1.073129
H55	H	2.144221	0.057024	0.692571
H56	H	2.644221	0.557024	1.192571
H57	H	2.144191	-0.057073	0.692533
H58	H	2.644191	0.442927	1.192533
C59	C	1.647147	-0.000005	0.401160
C60	C	2.147147	0.499995	0.901160
H61	H	1.565441	-0.000015	0.453170
H62	H	2.065441	0.499985	0.953170
H63	H	1.634073	0.057041	0.333759
H64	H	2.134073	0.557041	0.833759
H65	H	1.634053	-0.057056	0.333743
H66	H	2.134053	0.442944	0.833743
H67	H	1.466258	-0.000005	0.209705
H68	H	1.966258	0.499995	0.709705
