data_functionalizedCrystal
_audit_creation_method	'MofGen! by Chris Wilmer'
_symmetry_space_group_name_H-M	'P1'
_symmetry_Int_Tables_number	1
_symmetry_cell_setting	triclinic
loop_
_symmetry_equiv_pos_as_xyz
  x,y,z
_cell_length_a	19.805407
_cell_length_b	16.120484
_cell_length_c	19.805399
_cell_angle_alpha	92.871043
_cell_angle_beta	89.980427
_cell_angle_gamma	92.925608
loop_
_atom_site_label
_atom_site_type_symbol
_atom_site_fract_x
_atom_site_fract_y
_atom_site_fract_z
Zn1	Zn	1.021075	-0.331927	-0.396377
Zn2	Zn	1.521075	0.168073	0.103623
Zn3	Zn	1.015252	-0.471346	-0.288925
Zn4	Zn	1.515252	0.028654	0.211075
Zn5	Zn	0.907889	-0.331950	-0.283203
Zn6	Zn	1.407889	0.168050	0.216797
Zn7	Zn	0.902117	-0.471302	-0.402070
Zn8	Zn	1.402117	0.028698	0.097930
O9	O	0.961584	-0.401631	-0.342644
O10	O	1.461584	0.098369	0.157356
O11	O	1.115019	-0.350431	-0.382136
O12	O	1.615019	0.149569	0.117864
O13	O	1.000989	-0.452883	-0.193451
O14	O	1.500989	0.047117	0.306549
O15	O	0.927756	-0.215281	-0.293438
O16	O	1.427756	0.284719	0.206562
O17	O	1.110741	-0.452861	-0.303191
O18	O	1.610741	0.047139	0.196809
O19	O	1.010913	-0.215264	-0.376587
O20	O	1.510913	0.284736	0.123413
O21	O	0.922109	-0.350470	-0.189246
O22	O	1.422109	0.149530	0.310754
O23	O	0.812407	-0.350427	-0.298958
O24	O	1.312407	0.149573	0.201042
O25	O	0.917919	-0.452785	-0.496030
O26	O	1.417919	0.047215	0.003970
O27	O	0.808167	-0.452807	-0.386290
O28	O	1.308167	0.047193	0.113710
O29	O	1.005317	-0.350388	-0.491848
O30	O	1.505317	0.149612	0.008152
O31	O	0.995392	-0.588006	-0.308712
O32	O	1.495392	-0.088006	0.191288
O33	O	0.912273	-0.587974	-0.391839
O34	O	1.412273	-0.087974	0.108161
C35	C	0.785728	-0.401615	-0.342621
C36	C	1.285728	0.098385	0.157379
C37	C	0.710496	-0.401629	-0.342628
C38	C	1.210496	0.098371	0.157372
C39	C	0.952593	-0.618240	-0.351529
C40	C	1.452593	-0.118240	0.148471
C41	C	0.948809	-0.710906	-0.355353
C42	C	1.448809	-0.210906	0.144647
C43	C	0.672958	-0.455019	-0.388035
C44	C	1.172958	0.044981	0.111965
C45	C	0.602269	-0.455020	-0.388045
C46	C	1.102269	0.044980	0.111955
C47	C	0.569120	-0.401635	-0.342644
C48	C	1.069120	0.098365	0.157356
C49	C	0.606663	-0.348239	-0.297235
C50	C	1.106663	0.151761	0.202765
C51	C	0.677350	-0.348234	-0.297229
C52	C	1.177350	0.151766	0.202771
C53	C	0.321589	-0.348258	-0.297258
C54	C	0.821589	0.151742	0.202742
C55	C	0.250896	-0.348269	-0.297266
C56	C	0.750896	0.151731	0.202734
C57	C	0.246508	-0.455043	-0.388074
C58	C	0.746508	0.044957	0.111926
C59	C	0.317195	-0.455038	-0.388068
C60	C	0.817195	0.044962	0.111932
C61	C	0.354732	-0.401640	-0.342662
C62	C	0.854732	0.098360	0.157338
C63	C	0.431381	-0.401638	-0.342653
C64	C	0.931381	0.098362	0.157347
C65	C	0.492472	-0.401641	-0.342649
C66	C	0.992472	0.098359	0.157351
C67	C	0.941903	-0.880568	-0.362347
C68	C	1.441903	-0.380568	0.137653
C69	C	0.981385	-0.921854	-0.322951
C70	C	1.481385	-0.421854	0.177049
C71	C	0.977543	-1.016260	-0.326843
C72	C	1.477543	-0.516260	0.173157
C73	C	0.945745	-0.786154	-0.358456
C74	C	1.445745	-0.286154	0.141544
C75	C	1.138126	-0.401648	-0.342667
C76	C	1.638126	0.098352	0.157333
C77	C	1.213357	-0.401655	-0.342677
C78	C	1.713357	0.098345	0.157323
C79	C	0.961624	-0.401579	-0.519184
C80	C	1.461624	0.098421	-0.019184
C81	C	0.961641	-0.401556	-0.594416
C82	C	1.461641	0.098444	-0.094416
C83	C	0.970628	-0.184177	-0.333739
C84	C	1.470628	0.315823	0.166261
C85	C	0.974482	-0.091511	-0.329944
C86	C	1.474482	0.408489	0.170056
C87	C	1.007150	-0.348235	-0.627583
C88	C	1.507150	0.151765	-0.127583
C89	C	1.007158	-0.348211	-0.698270
C90	C	1.507158	0.151789	-0.198270
C91	C	0.961659	-0.401513	-0.735789
C92	C	1.461659	0.098487	-0.235789
C93	C	0.916145	-0.454836	-0.702617
C94	C	1.416145	0.045164	-0.202617
C95	C	0.916135	-0.454856	-0.631931
C96	C	1.416135	0.045144	-0.131931
C97	C	0.916187	-0.454759	-0.987688
C98	C	1.416187	0.045241	-0.487688
C99	C	0.916202	-0.454737	-1.058379
C100	C	1.416202	0.045263	-0.558379
C101	C	1.007210	-0.348114	-1.054027
C102	C	1.507210	0.151886	-0.554027
C103	C	1.007199	-0.348133	-0.983340
C104	C	1.507199	0.151867	-0.483340
C105	C	0.961683	-0.401453	-0.950174
C106	C	1.461683	0.098547	-0.450174
C107	C	0.961674	-0.401478	-0.873527
C108	C	1.461674	0.098522	-0.373527
C109	C	0.961671	-0.401493	-0.812436
C110	C	1.461671	0.098507	-0.312436
C111	C	0.961585	-0.401623	-0.166787
C112	C	1.461585	0.098377	0.333213
C113	C	0.961709	-0.401411	-0.091547
C114	C	1.461709	0.098589	0.408453
H115	H	0.571709	-0.498496	-0.425019
H116	H	1.071709	0.001504	0.074981
C117	C	0.757299	-0.336502	-0.205716
C118	C	1.257299	0.163498	0.294284
C119	C	0.718618	-0.289551	-0.247316
C120	C	1.218618	0.210449	0.252684
H121	H	0.782778	-0.300269	-0.174906
H122	H	1.282778	0.199731	0.325094
H123	H	0.728207	-0.372776	-0.181267
H124	H	1.228207	0.127224	0.318733
H125	H	0.787152	-0.368293	-0.232764
H126	H	1.287152	0.131707	0.267236
H127	H	0.688761	-0.257765	-0.220269
H128	H	1.188761	0.242235	0.279731
H129	H	0.747712	-0.253262	-0.271767
H130	H	1.247712	0.246738	0.228233
C131	C	1.021233	-0.236029	-0.773153
C132	C	1.521233	0.263971	-0.273153
C133	C	1.057180	-0.289588	-0.734720
C134	C	1.557180	0.210412	-0.234720
H135	H	1.052116	-0.199829	-0.795650
H136	H	1.552116	0.300171	-0.295650
H137	H	0.994148	-0.267767	-0.805616
H138	H	1.494148	0.232233	-0.305616
H139	H	0.993064	-0.204158	-0.744254
H140	H	1.493064	0.295842	-0.244254
H141	H	1.085346	-0.321464	-0.763620
H142	H	1.585346	0.178536	-0.263620
H143	H	1.084277	-0.257847	-0.702254
H144	H	1.584277	0.242153	-0.202254
C145	C	0.826193	-0.560272	-0.643329
C146	C	1.326193	-0.060272	-0.143329
C147	C	0.866121	-0.513482	-0.595472
C148	C	1.366121	-0.013482	-0.095472
H149	H	0.795320	-0.596471	-0.620820
H150	H	1.295320	-0.096471	-0.120820
H151	H	0.801811	-0.523942	-0.669401
H152	H	1.301811	-0.023942	-0.169401
H153	H	0.854372	-0.592146	-0.672216
H154	H	1.354372	-0.092146	-0.172216
H155	H	0.837943	-0.481604	-0.566588
H156	H	1.337943	0.018396	-0.066588
H157	H	0.890505	-0.549817	-0.569388
H158	H	1.390505	-0.049817	-0.069388
H159	H	0.879097	-0.498232	-0.733171
H160	H	1.379097	0.001768	-0.233171
C161	C	1.047636	-0.300720	-1.160451
C162	C	1.547636	0.199280	-0.660451
C163	C	1.057236	-0.289492	-1.090485
C164	C	1.557236	0.210508	-0.590485
H165	H	1.078518	-0.264527	-1.182956
H166	H	1.578518	0.235473	-0.682956
H167	H	1.055216	-0.356726	-1.174330
H168	H	1.555216	0.143274	-0.674330
H169	H	1.002667	-0.288509	-1.171519
H170	H	1.502667	0.211491	-0.671519
H171	H	1.102204	-0.301709	-1.079417
H172	H	1.602204	0.198291	-0.579417
H173	H	1.049661	-0.233473	-1.076600
H174	H	1.549661	0.266527	-0.576600
H175	H	0.879149	-0.498143	-1.088925
H176	H	1.379149	0.001857	-0.588925
H177	H	1.018071	-0.886299	-0.286299
H178	H	1.518071	-0.386299	0.213701
C179	C	0.898106	-1.014146	-0.406137
C180	C	1.398106	-0.514146	0.093863
C181	C	0.892373	-0.928559	-0.411817
C182	C	1.392373	-0.428559	0.088183
H183	H	0.867523	-1.043779	-0.436673
H184	H	1.367523	-0.543779	0.063327
H185	H	0.943006	-1.028302	-0.416665
H186	H	1.443006	-0.528302	0.083335
H187	H	0.887665	-1.028402	-0.361222
H188	H	1.387665	-0.528402	0.138778
H189	H	0.902819	-0.914302	-0.456731
H190	H	1.402819	-0.414302	0.043269
H191	H	0.847463	-0.914398	-0.401294
H192	H	1.347463	-0.414398	0.098706
H193	H	1.044202	-0.304833	-0.597039
H194	H	1.544202	0.195167	-0.097039
H195	H	1.044251	-0.304733	-0.952796
H196	H	1.544251	0.195267	-0.452796
H197	H	0.879134	-0.498187	-0.960693
H198	H	1.379134	0.001813	-0.460693
C199	C	0.527618	-0.336509	-0.205731
C200	C	1.027618	0.163491	0.294269
C201	C	0.570225	-0.289555	-0.247331
C202	C	1.070225	0.210445	0.252669
H203	H	0.505127	-0.300278	-0.174919
H204	H	1.005127	0.199722	0.325081
H205	H	0.495148	-0.368301	-0.232774
H206	H	0.995148	0.131699	0.267226
H207	H	0.553685	-0.372784	-0.181278
H208	H	1.053685	0.127216	0.318722
H209	H	0.544157	-0.253285	-0.271788
H210	H	1.044157	0.246715	0.228212
H211	H	0.602699	-0.257749	-0.220284
H212	H	1.102699	0.242251	0.279716
H213	H	0.699943	-0.498494	-0.425004
H214	H	1.199943	0.001506	0.074996
C215	C	0.396244	-0.466755	-0.479568
C216	C	0.896244	0.033245	0.020432
C217	C	0.353634	-0.513717	-0.437976
C218	C	0.853634	-0.013717	0.062024
H219	H	0.418741	-0.502982	-0.510378
H220	H	0.918741	-0.002982	-0.010378
H221	H	0.370181	-0.430483	-0.504018
H222	H	0.870181	0.069517	-0.004018
H223	H	0.428714	-0.434962	-0.452516
H224	H	0.928714	0.065038	0.047484
H225	H	0.321160	-0.545506	-0.465028
H226	H	0.821160	-0.045506	0.034972
H227	H	0.379698	-0.550004	-0.413525
H228	H	0.879698	-0.050004	0.086475
H229	H	0.223908	-0.304791	-0.260295
H230	H	0.723908	0.195209	0.239705
C231	C	0.166573	-0.466781	-0.479602
C232	C	0.666573	0.033219	0.020398
C233	C	0.205245	-0.513732	-0.437994
C234	C	0.705245	-0.013732	0.062006
H235	H	0.141104	-0.503014	-0.510421
H236	H	0.641104	-0.003014	-0.010421
H237	H	0.136717	-0.434996	-0.452565
H238	H	0.636717	0.065004	0.047435
H239	H	0.195674	-0.430501	-0.504047
H240	H	0.695674	0.069499	-0.004047
H241	H	0.176143	-0.550008	-0.413545
H242	H	0.676143	-0.050008	0.086455
H243	H	0.235104	-0.545532	-0.465034
H244	H	0.735104	-0.045532	0.034966
C245	C	0.318816	-0.242713	-0.207499
C246	C	0.818816	0.257287	0.292501
C247	C	0.362843	-0.289564	-0.247347
C248	C	0.862843	0.210436	0.252653
H249	H	0.344288	-0.206480	-0.176683
H250	H	0.844288	0.293520	0.323317
H251	H	0.292577	-0.210881	-0.235729
H252	H	0.792577	0.289119	0.264271
H253	H	0.289731	-0.279008	-0.183050
H254	H	0.789731	0.220992	0.316950
H255	H	0.391925	-0.253270	-0.271800
H256	H	0.891925	0.246730	0.228200
H257	H	0.389093	-0.321399	-0.219113
H258	H	0.889093	0.178601	0.280887
