data_functionalizedCrystal
_audit_creation_method	'MofGen! by Chris Wilmer'
_symmetry_space_group_name_H-M	'P1'
_symmetry_Int_Tables_number	1
_symmetry_cell_setting	triclinic
loop_
_symmetry_equiv_pos_as_xyz
  x,y,z
_cell_length_a	10.723024
_cell_length_b	10.723024
_cell_length_c	9.198806
_cell_angle_alpha	90.002012
_cell_angle_beta	90.003648
_cell_angle_gamma	84.467869
loop_
_atom_site_label
_atom_site_type_symbol
_atom_site_fract_x
_atom_site_fract_y
_atom_site_fract_z
O1	O	-1.657188	-0.175024	-0.120879
O2	O	-1.157188	0.324976	0.379121
O3	O	-1.294035	-0.191778	-0.120884
O4	O	-0.794035	0.308222	0.379116
O5	O	-1.483988	-0.001825	-0.120876
O6	O	-0.983988	0.498175	0.379124
O7	O	-1.467235	-0.364977	-0.120887
O8	O	-0.967235	0.135023	0.379113
O9	O	-1.483973	-0.001824	0.120909
O10	O	-0.983973	0.498176	0.620909
O11	O	-1.294020	-0.191777	0.120901
O12	O	-0.794020	0.308223	0.620901
O13	O	-1.657173	-0.175024	0.120906
O14	O	-1.157173	0.324976	0.620906
Cu15	Cu	-1.475595	-0.183401	0.142981
Cu16	Cu	-0.975595	0.316599	0.642981
Cu17	Cu	-1.475613	-0.183401	-0.142958
Cu18	Cu	-0.975613	0.316599	0.357042
O19	O	-1.467220	-0.364977	0.120898
O20	O	-0.967220	0.135023	0.620898
C21	C	-1.247528	-0.190558	0.000008
C22	C	-0.747528	0.309442	0.500008
C23	C	-1.108974	-0.186911	0.000007
C24	C	-0.608974	0.313089	0.500007
C25	C	-1.703680	-0.176243	0.000011
C26	C	-1.203680	0.323757	0.500011
C27	C	-1.842234	-0.179891	0.000003
C28	C	-1.342234	0.320109	0.500003
C29	C	-1.033991	-0.293198	0.000002
C30	C	-0.533991	0.206802	0.500002
C31	C	-0.890788	-0.289431	0.000001
C32	C	-0.390788	0.210569	0.500001
C33	C	-1.482762	0.044675	0.000015
C34	C	-0.982762	0.544675	0.500015
C35	C	-1.479114	0.183229	0.000010
C36	C	-0.979114	0.683229	0.500010
C37	C	-1.468447	-0.411477	0.000004
C38	C	-0.968447	0.088523	0.500004
C39	C	-1.472094	-0.550031	-0.000000
C40	C	-0.972094	-0.050031	0.500000
N41	N	-1.475592	-0.183399	0.344095
N42	N	-0.975592	0.316601	0.844095
C43	C	-1.585401	0.258212	0.000009
C44	C	-1.085401	0.758212	0.500009
C45	C	-1.581634	0.401415	0.000004
C46	C	-1.081634	0.901415	0.500004
N47	N	-1.475626	-0.183393	-0.344072
N48	N	-0.975626	0.316607	0.155928
C49	C	-1.555347	-0.103292	0.416295
C50	C	-1.055347	0.396708	0.916295
C51	C	-1.555367	-0.103288	0.583707
C52	C	-1.055367	0.396712	1.083707
H53	H	-1.075814	-0.386984	0.000008
H54	H	-0.575814	0.113016	0.500008
Cl55	Cl	-1.044415	-0.042105	0.000021
Cl56	Cl	-0.544415	0.457895	0.500021
H57	H	-0.826355	-0.380421	-0.000009
H58	H	-0.326355	0.119579	0.499991
Cl59	Cl	-1.722124	0.500888	0.000014
Cl60	Cl	-1.222124	1.000888	0.500014
H61	H	-1.385328	0.225051	-0.000001
H62	H	-0.885328	0.725051	0.499999
H63	H	-1.623611	-0.034707	0.354171
H64	H	-1.123611	0.465293	0.854171
Cl65	Cl	-0.941699	-0.039396	-0.000003
Cl66	Cl	-0.441699	0.460604	0.499997
H67	H	-1.679187	0.216390	0.000019
H68	H	-1.179187	0.716390	0.500019
H69	H	-1.381099	0.385544	0.000010
H70	H	-0.881099	0.885544	0.500010
H71	H	-1.623653	-0.034709	0.645796
H72	H	-1.123653	0.465291	1.145796
H73	H	-1.407345	-0.251984	0.593848
H74	H	-0.907345	0.248016	1.093848
H75	H	-1.407319	-0.251975	0.406220
H76	H	-0.907319	0.248025	0.906220
