data_functionalizedCrystal
_audit_creation_method	'MofGen! by Chris Wilmer'
_symmetry_space_group_name_H-M	'P1'
_symmetry_Int_Tables_number	1
_symmetry_cell_setting	triclinic
loop_
_symmetry_equiv_pos_as_xyz
  x,y,z
_cell_length_a	17.917603
_cell_length_b	14.809374
_cell_length_c	14.809374
_cell_angle_alpha	91.387536
_cell_angle_beta	70.237205
_cell_angle_gamma	49.635532
loop_
_atom_site_label
_atom_site_type_symbol
_atom_site_fract_x
_atom_site_fract_y
_atom_site_fract_z
Zr1	Zr	1.021765	-0.301062	0.813421
O2	O	1.181028	-0.457878	0.674360
O3	O	0.862502	-0.245461	0.851267
O4	O	1.057246	-0.470683	0.838460
O5	O	0.958297	-0.063560	0.702711
O6	O	1.085234	-0.489348	0.973347
O7	O	0.986284	-0.232656	0.687167
O8	O	0.736873	-0.086466	0.996257
O9	O	1.306658	-0.466442	0.679802
O10	O	0.948896	-0.244772	0.973853
O11	O	0.907122	-0.104649	0.884788
O12	O	1.136408	-0.369819	0.869710
O13	O	1.094634	-0.229696	0.780646
Zr14	Zr	1.021765	-0.061141	1.053342
Zr15	Zr	1.066402	-0.330829	1.028551
Zr16	Zr	0.977128	-0.031374	0.838213
Zr17	Zr	1.222130	-0.314719	0.822101
Zr18	Zr	0.821401	-0.047484	1.044663
O19	O	1.181028	-0.116742	1.015496
O20	O	1.244497	-0.500204	0.980246
O21	O	1.117560	-0.074416	0.709610
O22	O	0.862502	0.095675	1.192404
O23	O	0.925971	-0.287787	1.157154
O24	O	0.799034	0.138001	0.886517
O25	O	1.085234	-0.298643	1.164053
O26	O	0.986284	0.108480	1.028303
O27	O	0.958297	0.127145	0.893416
O28	O	1.057246	-0.129547	1.179597
O29	O	1.342138	-0.490103	0.850801
O30	O	0.701392	0.127900	1.015962
O31	O	0.736873	0.104239	1.186962
O32	O	0.772353	-0.110128	1.167256
O33	O	1.271177	-0.252075	0.699508
O34	O	1.306658	-0.275736	0.870507
O35	O	0.907122	0.007616	0.997054
O36	O	0.948896	-0.132507	1.086118
O37	O	1.136408	-0.257554	0.981975
O38	O	1.094634	-0.117431	0.892911
C39	C	0.771140	-0.164018	0.922525
C40	C	0.686080	-0.158220	0.918841
C41	C	0.965931	-0.143867	0.664287
C42	C	0.946981	-0.131230	0.572959
C43	C	0.965931	0.156237	0.964392
C44	C	0.946981	0.270727	0.974916
C45	C	0.530353	-0.147632	0.912108
C46	C	0.513171	-0.214568	0.954653
C47	C	0.426520	-0.208677	0.950907
C48	C	0.617012	-0.153521	0.915853
C49	C	1.272391	-0.198185	0.944238
C50	C	1.357450	-0.203983	0.947923
C51	C	1.077600	-0.518440	0.902372
C52	C	1.096549	-0.632930	0.891847
C53	C	1.031551	0.259739	0.927947
C54	C	1.011968	0.378068	0.938823
C55	C	1.031551	-0.187627	0.480581
C56	C	1.011968	-0.174568	0.386187
C57	C	1.077600	-0.218336	1.202476
C58	C	1.096549	-0.230973	1.293804
C59	C	0.826974	-0.201253	1.191619
C60	C	0.760864	-0.208092	1.279263
C61	C	0.715305	0.173321	0.953535
C62	C	0.611296	0.293609	0.960375
C63	C	0.771140	0.136086	1.222630
C64	C	0.686080	0.243737	1.320798
C65	C	1.272391	-0.498289	0.644134
C66	C	1.357450	-0.605940	0.545966
C67	C	1.216556	-0.160950	0.675144
C68	C	1.282666	-0.154111	0.587500
C69	C	1.328225	-0.535524	0.913228
C70	C	1.432235	-0.655812	0.906388
C71	C	0.729820	-0.269916	1.261819
C72	C	0.667716	-0.276367	1.344159
C73	C	0.636650	-0.220985	1.443943
C74	C	0.667702	-0.159159	1.461386
C75	C	0.729811	-0.152716	1.379046
C76	C	0.562450	0.408710	1.022190
C77	C	0.464730	0.521743	1.028614
C78	C	0.415854	0.519672	0.973229
C79	C	0.464709	0.404559	0.911407
C80	C	0.562431	0.291529	0.904978
C81	C	0.667942	0.221147	1.413398
C82	C	0.588034	0.322284	1.505645
C83	C	0.526259	0.446010	1.505289
C84	C	0.544403	0.468599	1.412679
C85	C	0.624315	0.367463	1.320434
C86	C	1.375598	-0.583350	0.453366
C87	C	1.455531	-0.684489	0.361120
C88	C	1.517310	-0.808216	0.361476
C89	C	1.499161	-0.830804	0.454086
C90	C	1.419235	-0.729667	0.546330
C91	C	1.313721	-0.092299	0.604944
C92	C	1.375852	-0.085879	0.522602
C93	C	1.406921	-0.141265	0.422817
C94	C	1.375865	-0.203086	0.405375
C95	C	1.313741	-0.209512	0.487716
C96	C	1.481081	-0.653700	0.961786
C97	C	1.578801	-0.766715	0.955379
C98	C	1.627677	-0.881839	0.893569
C99	C	1.578822	-0.883948	0.838169
C100	C	1.481100	-0.770935	0.844582
H101	H	0.563540	-0.276299	0.993890
H102	H	0.642399	-0.114070	1.542641
C103	C	0.763940	-0.084687	1.398253
N104	N	0.789642	-0.033442	1.412727
H105	H	0.424965	0.615461	1.078959
H106	H	0.602233	0.410420	1.067293
H107	H	1.441339	-0.772671	0.799465
C108	C	1.410031	-0.263984	0.295605
N109	N	1.435756	-0.309839	0.212924
C110	C	1.567119	-0.966914	0.454460
N111	N	1.618300	-1.069435	0.454738
C112	C	1.399272	-0.754537	0.648186
N113	N	1.384239	-0.773278	0.724903
H114	H	1.582388	-0.890557	0.286357
H115	H	0.586076	-0.226239	1.510981
C116	C	0.462320	-0.064252	0.859094
N117	N	0.411074	-0.001456	0.819160
C118	C	0.763987	-0.330855	1.152062
N119	N	0.789725	-0.376766	1.069394
C120	C	1.213960	0.236016	0.826638
N121	N	1.302393	0.137305	0.777525
H122	H	0.461192	0.528351	1.580408
C123	C	0.829589	0.401774	1.040179
N124	N	0.741171	0.500476	1.089358
H125	H	0.642441	-0.326711	1.329937
C126	C	1.279563	-0.031371	0.714700
N127	N	1.253846	0.014516	0.797367
H128	H	1.457505	-0.136023	0.355779
H129	H	1.118454	-0.245586	0.471373
C130	C	1.213960	-0.309270	0.281351
N131	N	1.302392	-0.368241	0.271973
C132	C	1.632526	-0.764367	1.016322
N133	N	1.672991	-0.762594	1.062223
H134	H	1.441300	-0.559971	1.012119
H135	H	0.336283	0.611717	0.978473
H136	H	0.494095	0.569350	1.412405
H137	H	0.424899	0.402891	0.866315
H138	H	1.118452	0.162729	0.879678
C139	C	0.644252	0.392334	1.218577
N140	N	0.659265	0.411076	1.141860
H141	H	0.925061	-0.116620	0.395400
C142	C	0.616142	0.164920	0.836986
N143	N	0.656590	0.069561	0.785773
C144	C	0.829577	-0.052937	0.585403
N145	N	0.741146	0.006037	0.594779
C146	C	1.279573	-0.277497	0.468512
N147	N	1.253839	-0.328703	0.454039
H148	H	0.718231	0.120410	1.413707
C149	C	1.735176	-1.006147	0.886523
N150	N	1.816147	-1.099771	0.881219
C151	C	0.568083	0.297409	1.607505
N152	N	0.553056	0.278670	1.684222
H153	H	1.325298	-0.482613	0.453056
H154	H	0.925059	0.475080	0.987086
H155	H	1.470291	-0.666073	0.285723
H156	H	1.401126	-0.035534	0.536824
C157	C	1.632571	-1.010602	0.770220
N158	N	1.673050	-1.106002	0.719051
