data_functionalizedCrystal
_audit_creation_method	'MofGen! by Chris Wilmer'
_symmetry_space_group_name_H-M	'P1'
_symmetry_Int_Tables_number	1
_symmetry_cell_setting	triclinic
loop_
_symmetry_equiv_pos_as_xyz
  x,y,z
_cell_length_a	10.723023
_cell_length_b	10.723023
_cell_length_c	15.455313
_cell_angle_alpha	92.691554
_cell_angle_beta	87.293456
_cell_angle_gamma	84.467548
loop_
_atom_site_label
_atom_site_type_symbol
_atom_site_fract_x
_atom_site_fract_y
_atom_site_fract_z
O1	O	1.662611	0.169611	-0.072126
O2	O	2.162611	0.669611	0.427874
O3	O	1.299459	0.186365	-0.072129
O4	O	1.799459	0.686365	0.427871
O5	O	1.489412	-0.003588	-0.072124
O6	O	1.989412	0.496412	0.427876
O7	O	1.472658	0.359564	-0.072131
O8	O	1.972658	0.859564	0.427869
O9	O	1.478549	0.007230	0.072138
O10	O	1.978549	0.507230	0.572138
O11	O	1.288596	0.197183	0.072133
O12	O	1.788596	0.697183	0.572133
O13	O	1.651749	0.180429	0.072135
O14	O	2.151749	0.680429	0.572135
Cu15	Cu	1.469181	0.189793	0.085307
Cu16	Cu	1.969181	0.689793	0.585307
Cu17	Cu	1.482027	0.177001	-0.085300
Cu18	Cu	1.982027	0.677001	0.414700
O19	O	1.461795	0.370382	0.072131
O20	O	1.961795	0.870382	0.572131
C21	C	1.247528	0.190555	0.000002
C22	C	1.747528	0.690555	0.500002
C23	C	1.108974	0.186908	0.000001
C24	C	1.608974	0.686908	0.500001
C25	C	0.898379	0.187116	0.074730
C26	C	1.398379	0.687116	0.574730
C27	C	1.041582	0.190885	0.074733
C28	C	1.541582	0.690885	0.574733
C29	C	1.482762	-0.044679	0.000006
C30	C	1.982762	0.455321	0.500006
C31	C	1.479115	-0.183233	0.000003
C32	C	1.979115	0.316767	0.500003
C33	C	1.483116	-0.250603	-0.074730
C34	C	1.983116	0.249397	0.425270
C35	C	1.479347	-0.393806	-0.074734
C36	C	1.979347	0.106194	0.425266
C37	C	1.703680	0.176239	0.000003
C38	C	2.203680	0.676239	0.500003
C39	C	1.842234	0.179886	-0.000002
C40	C	2.342234	0.679886	0.499998
C41	C	1.468446	0.411473	-0.000001
C42	C	1.968446	0.911473	0.499999
C43	C	1.472093	0.550027	-0.000004
C44	C	1.972093	1.050027	0.499996
N45	N	1.460154	0.198790	0.205302
N46	N	1.960154	0.698790	0.705302
N47	N	1.491063	0.167994	-0.205295
N48	N	1.991063	0.667994	0.294705
C49	C	1.540881	0.118122	0.250698
C50	C	2.040881	0.618122	0.750698
C51	C	1.534067	0.124937	0.341506
C52	C	2.034067	0.624937	0.841506
C53	C	1.446530	0.212428	0.386916
C54	C	1.946530	0.712428	0.886916
C55	C	1.365794	0.293101	0.341513
C56	C	1.865794	0.793101	0.841513
C57	C	1.372604	0.286278	0.250707
C58	C	1.872604	0.786278	0.750707
C59	C	1.417137	0.241843	0.658496
C60	C	1.917137	0.741843	1.158496
C61	C	1.410336	0.248663	0.749309
C62	C	1.910336	0.748663	1.249309
C63	C	1.578608	0.080497	0.749295
C64	C	2.078608	0.580497	1.249295
C65	C	1.585415	0.073687	0.658487
C66	C	2.085415	0.573687	1.158487
C67	C	1.504675	0.154355	0.613093
C68	C	2.004675	0.654355	1.113093
N69	N	1.439565	0.219400	0.479736
N70	N	1.939565	0.719400	0.979736
N71	N	1.511635	0.147376	0.520274
N72	N	2.011635	0.647376	1.020274
H73	H	0.900183	0.176495	-0.063981
H74	H	1.400183	0.676495	0.436019
N75	N	1.483919	-0.470516	-0.159490
N76	N	1.983919	0.029484	0.340510
H77	H	1.489294	-0.413353	-0.209360
H78	H	1.989294	0.086647	0.290640
H79	H	1.559994	-0.534223	-0.162844
H80	H	2.059994	-0.034223	0.337156
N81	N	1.105544	0.199093	0.159492
N82	N	1.605544	0.699093	0.659492
H83	H	1.168758	0.123552	0.162954
H84	H	1.668758	0.623552	0.662954
H85	H	1.149775	0.278043	0.162898
H86	H	1.649775	0.778043	0.662898
N87	N	0.821347	0.190775	0.159319
N88	N	1.321347	0.690775	0.659319
H89	H	0.757273	0.266565	0.162987
H90	H	1.257273	0.766565	0.662987
H91	H	0.776991	0.112031	0.162135
H92	H	1.276991	0.612031	0.662135
H93	H	1.060678	0.180709	-0.063983
H94	H	1.560678	0.680709	0.436017
N95	N	1.315905	0.343033	0.798278
N96	N	1.815905	0.843033	1.298278
H97	H	1.257429	0.297669	0.835970
H98	H	1.757429	0.797669	1.335970
H99	H	1.361324	0.401537	0.835886
H100	H	1.861324	0.901537	1.335886
H101	H	1.306865	0.351965	0.213747
H102	H	1.806865	0.851965	0.713747
N103	N	1.679839	-0.020667	0.609510
N104	N	2.179839	0.479333	1.109510
H105	H	1.634521	-0.079188	0.571839
H106	H	2.134521	0.420812	1.071839
H107	H	1.738284	0.024813	0.571878
H108	H	2.238284	0.524813	1.071878
N109	N	1.467563	-0.373269	0.084752
N110	N	1.967563	0.126731	0.584752
H111	H	1.387156	-0.383830	0.119152
H112	H	1.887156	0.116170	0.619152
H113	H	1.541657	-0.402779	0.119083
H114	H	2.041657	0.097221	0.619083
H115	H	1.472890	-0.231572	0.063982
H116	H	1.972890	0.268428	0.563982
H117	H	1.489327	-0.202262	-0.138708
H118	H	1.989327	0.297738	0.361292
H119	H	1.612168	0.046883	0.213731
H120	H	2.112168	0.546883	0.713731
N121	N	1.621179	0.037974	0.390470
N122	N	2.121179	0.537974	0.890470
H123	H	1.677687	-0.018465	0.347924
H124	H	2.177687	0.481535	0.847924
H125	H	1.673904	0.089135	0.428116
H126	H	2.173904	0.589135	0.928116
H127	H	1.644341	0.014820	0.786264
H128	H	2.144341	0.514820	1.286264
N129	N	1.330050	0.328839	0.609542
N130	N	1.830050	0.828839	1.109542
H131	H	1.273567	0.385297	0.652090
H132	H	1.773567	0.885297	1.152090
H133	H	1.381106	0.381618	0.571847
H134	H	1.881106	0.881618	1.071847
N135	N	1.271369	0.387459	0.390486
N136	N	1.771369	0.887459	0.890486
H137	H	1.279305	0.379544	0.454900
H138	H	1.779305	0.879544	0.954900
H139	H	1.287723	0.474928	0.374601
H140	H	1.787723	0.974928	0.874601
