data_functionalizedCrystal
_audit_creation_method	'MofGen! by Chris Wilmer'
_symmetry_space_group_name_H-M	'P1'
_symmetry_Int_Tables_number	1
_symmetry_cell_setting	triclinic
loop_
_symmetry_equiv_pos_as_xyz
  x,y,z
_cell_length_a	14.853566
_cell_length_b	27.732048
_cell_length_c	13.930277
_cell_angle_alpha	89.990485
_cell_angle_beta	89.995631
_cell_angle_gamma	83.138535
loop_
_atom_site_label
_atom_site_type_symbol
_atom_site_fract_x
_atom_site_fract_y
_atom_site_fract_z
O1	O	1.195343	0.063104	-0.079778
O2	O	0.932761	0.070622	-0.079795
O3	O	1.072207	-0.003496	-0.079768
O4	O	1.055896	0.137221	-0.079806
O5	O	1.072188	-0.003497	0.079894
O6	O	0.932741	0.070620	0.079866
O7	O	1.195323	0.063102	0.079884
Zn8	Zn	1.064029	0.066861	0.105225
Zn9	Zn	1.064055	0.066863	-0.105137
O10	O	1.055877	0.137220	0.079856
C11	C	0.899168	0.070280	0.000034
C12	C	0.799101	0.069260	0.000028
C13	C	0.375996	0.064944	-0.086986
C14	C	0.375997	0.064943	0.087084
C15	C	0.470015	0.065901	0.087081
C16	C	0.517029	0.066382	0.000043
C17	C	0.470023	0.065904	-0.086992
C18	C	0.517026	0.066384	0.174113
C19	C	0.611051	0.067343	0.174114
C20	C	0.658066	0.067820	0.087075
C21	C	0.611055	0.067342	0.000037
C22	C	0.658069	0.067822	-0.087001
C23	C	0.611060	0.067341	-0.174040
C24	C	0.517039	0.066382	-0.174030
C25	C	0.752088	0.068779	0.087066
C26	C	0.752095	0.068782	-0.087007
C27	C	1.071855	-0.021505	0.000066
C28	C	1.070824	-0.075165	0.000073
C29	C	1.146737	-0.413625	0.000029
C30	C	1.142912	-0.615303	0.000015
O31	O	1.212329	-0.646234	-0.000022
N32	N	1.060226	-0.634813	0.000011
C33	C	0.978491	-0.603900	0.000004
O34	O	0.908074	-0.625122	-0.000010
C35	C	0.982317	-0.402224	0.000010
C36	C	1.065008	-0.382717	0.000025
C37	C	1.229422	-0.394117	0.000042
C38	C	1.230377	-0.343701	0.000051
C39	C	1.148648	-0.312792	0.000046
C40	C	1.065963	-0.332300	0.000033
C41	C	0.900582	-0.371312	-0.000004
C42	C	0.901546	-0.320890	-0.000005
C43	C	0.984237	-0.301383	0.000010
C44	C	0.985190	-0.250975	0.000037
N45	N	1.067876	-0.231465	0.000042
C46	C	1.149605	-0.262373	0.000046
C47	C	0.976488	-0.709784	0.000002
C48	C	0.975531	-0.760203	0.000002
C49	C	1.139953	-0.771602	0.000012
C50	C	1.140908	-0.721182	0.000019
C51	C	1.059174	-0.690274	0.000006
C52	C	1.151605	-0.156495	0.000065
C53	C	1.152553	-0.106074	0.000078
C54	C	0.988132	-0.094679	0.000063
C55	C	0.987183	-0.145096	0.000055
C56	C	1.068927	-0.176003	0.000053
O57	O	0.915810	-0.220015	0.000064
O58	O	1.220011	-0.241142	0.000039
C59	C	1.145782	-0.464042	0.000020
C60	C	1.063097	-0.483549	0.000007
C61	C	0.981368	-0.452641	0.000003
C62	C	1.062140	-0.533968	0.000007
C63	C	1.143869	-0.564877	0.000012
C64	C	1.226555	-0.545367	0.000016
C65	C	1.227511	-0.494950	0.000025
C66	C	0.898682	-0.472151	-0.000002
C67	C	0.897734	-0.522568	-0.000009
C68	C	0.979463	-0.553476	-0.000005
C69	C	1.228916	0.063443	0.000052
C70	C	1.328983	0.064464	0.000052
N71	N	1.064019	0.066859	0.248791
C72	C	1.056229	0.155229	0.000021
C73	C	1.057260	0.208889	0.000006
N74	N	1.064072	0.066861	-0.248703
C75	C	1.002306	0.099669	0.701048
C76	C	1.125828	0.034053	0.701042
C77	C	1.125818	0.034051	0.600546
C78	C	1.064051	0.066860	0.550297
C79	C	1.002295	0.099670	0.600543
C80	C	1.187579	0.001245	0.550292
C81	C	1.187571	0.001243	0.449790
C82	C	1.125799	0.034049	0.399539
C83	C	1.064040	0.066860	0.449792
C84	C	1.002273	0.099669	0.399542
C85	C	0.940509	0.132478	0.449793
C86	C	0.940523	0.132476	0.550292
C87	C	1.125786	0.034051	0.299040
C88	C	1.002263	0.099669	0.299037
H89	H	0.478741	0.065996	0.244975
C90	C	0.324287	0.064414	-0.182724
N91	N	0.285339	0.064015	-0.254835
H92	H	0.337712	0.064555	0.157946
H93	H	0.478757	0.065989	-0.244893
C94	C	1.193722	-0.002037	0.243769
N95	N	1.244894	-0.029221	0.202140
H96	H	0.890222	0.159193	0.408868
C97	C	0.662752	0.067868	0.269857
N98	N	0.701696	0.068260	0.341973
C99	C	0.803803	0.069309	-0.182757
N100	N	0.842748	0.069706	-0.254877
C101	C	1.321345	-0.322250	0.000056
N102	N	1.389866	-0.306097	0.000056
H103	H	0.921590	-0.069504	0.000062
C104	C	1.319338	-0.428110	0.000057
N105	N	1.387070	-0.453710	0.000079
C106	C	1.316458	-0.579376	0.000020
N107	N	1.384168	-0.604994	0.000016
C108	C	0.809614	-0.392758	-0.000026
N109	N	0.741091	-0.408910	-0.000046
C110	C	1.231874	-0.699729	0.000026
N111	N	1.300393	-0.683573	0.000028
C112	C	0.806760	-0.544019	-0.000024
N113	N	0.738241	-0.560175	-0.000044
C114	C	0.662787	0.067870	-0.269778
N115	N	0.701751	0.068267	-0.341886
C116	C	0.811629	-0.286894	-0.000015
N117	N	0.743903	-0.261289	-0.000019
H118	H	1.237872	-0.025464	0.591208
C119	C	1.229855	-0.805610	0.000009
N120	N	1.297566	-0.831228	-0.000001
H121	H	0.890238	0.159189	0.591212
H122	H	0.919849	-0.160979	0.000070
C123	C	1.243523	-0.084619	0.000091
N124	N	1.312041	-0.068462	0.000098
C125	C	0.803792	0.069310	0.182802
N126	N	0.842736	0.069707	0.254917
C127	C	1.241527	-0.190486	0.000072
N128	N	1.309257	-0.216088	0.000085
C129	C	1.255506	-0.034851	0.394524
N130	N	1.306671	-0.062040	0.352896
H131	H	0.908196	-0.776081	0.000007
H132	H	0.909925	-0.684622	-0.000008
C133	C	0.934362	0.135754	0.756324
N134	N	0.883185	0.162933	0.797959
H135	H	0.832127	-0.446989	-0.000008
C136	C	0.934335	0.135774	0.243771
N137	N	0.883181	0.162974	0.202145
H138	H	1.294846	-0.479073	0.000036
H139	H	1.176122	0.007343	0.741958
