data_functionalizedCrystal
_audit_creation_method	'MofGen! by Chris Wilmer'
_symmetry_space_group_name_H-M	'P1'
_symmetry_Int_Tables_number	1
_symmetry_cell_setting	triclinic
loop_
_symmetry_equiv_pos_as_xyz
  x,y,z
_cell_length_a	10.654562
_cell_length_b	8.559649
_cell_length_c	9.130313
_cell_angle_alpha	90.000859
_cell_angle_beta	89.996930
_cell_angle_gamma	77.134384
loop_
_atom_site_label
_atom_site_type_symbol
_atom_site_fract_x
_atom_site_fract_y
_atom_site_fract_z
O1	O	1.644658	0.224273	-0.121887
O2	O	1.276977	0.245610	-0.121868
O3	O	1.493211	0.002701	-0.121877
O4	O	1.428425	0.467183	-0.121877
O5	O	1.493208	0.002707	0.121721
O6	O	1.276974	0.245617	0.121731
O7	O	1.644655	0.224279	0.121712
Cu8	Cu	1.460814	0.234949	0.143964
Cu9	Cu	1.460818	0.234941	-0.144120
O10	O	1.428422	0.467189	0.121722
C11	C	1.230340	0.244043	-0.000066
C12	C	1.091383	0.239343	-0.000059
C13	C	1.026078	0.237154	0.132715
C14	C	0.895510	0.232750	0.132691
C15	C	0.895565	0.232731	-0.132894
C16	C	1.026132	0.237123	-0.132868
C17	C	1.026044	0.237172	0.286049
C18	C	0.895476	0.232768	0.286024
C19	C	1.498119	-0.056771	-0.000081
C20	C	1.512733	-0.233989	-0.000090
C21	C	1.691292	0.225847	-0.000093
C22	C	1.830249	0.230547	-0.000109
C23	C	1.423513	0.526661	-0.000078
C24	C	1.408899	0.703879	-0.000079
N25	N	1.460821	0.234953	0.346587
N26	N	1.460822	0.234924	-0.346742
C27	C	1.556587	0.127430	0.423234
C28	C	1.556586	0.127411	0.576571
C29	C	1.365047	0.342453	0.576599
C30	C	1.365044	0.342463	0.423265
C31	C	1.667174	0.003281	0.423220
C32	C	1.667173	0.003262	0.576556
H33	H	0.842421	0.230925	-0.241022
H34	H	1.083697	0.126868	0.344932
C35	C	1.049203	0.392454	0.349612
C36	C	0.931450	0.490855	0.391680
C37	C	0.952736	0.633905	0.450253
H38	H	1.088730	0.445953	0.277845
H39	H	1.103978	0.369238	0.432599
H40	H	0.876694	0.514073	0.308703
H41	H	0.891904	0.437405	0.463461
H42	H	1.007512	0.610689	0.533240
H43	H	0.992266	0.687389	0.378479
H44	H	0.872847	0.700681	0.478816
H45	H	0.877912	0.116364	0.333604
H46	H	1.658404	-0.119402	0.381601
H47	H	1.760858	0.030615	0.618168
C48	C	1.275483	-0.186207	-0.000382
C49	C	1.260905	-0.089622	-0.125733
C50	C	1.138012	0.011646	-0.126074
H51	H	1.265226	-0.120357	0.084462
H52	H	1.212260	-0.248891	-0.000454
H53	H	1.324110	-0.026943	-0.125648
H54	H	1.271137	-0.155429	-0.210598
H55	H	1.074789	-0.051038	-0.126146
H56	H	1.127766	0.077485	-0.041224
H57	H	1.128101	0.077181	-0.211129
C58	C	1.646220	-0.343756	0.000210
C59	C	1.712972	-0.314091	0.125545
C60	C	1.835934	-0.415192	0.125880
H61	H	1.691872	-0.323941	-0.084645
H62	H	1.638695	-0.452286	0.000298
H63	H	1.720503	-0.205586	0.125444
H64	H	1.667359	-0.333916	0.210420
H65	H	1.828409	-0.523722	0.125968
H66	H	1.881573	-0.395368	0.041020
H67	H	1.881236	-0.395089	0.210925
H68	H	1.287067	0.429983	0.639047
H69	H	1.079304	0.238881	-0.240986
C70	C	1.261178	0.459456	0.340130
C71	C	1.266394	0.616548	0.377415
C72	C	1.170739	0.724369	0.300848
H73	H	1.179069	0.441325	0.365205
H74	H	1.274881	0.444180	0.237812
H75	H	1.252682	0.631818	0.479710
H76	H	1.348482	0.634730	0.352337
H77	H	1.184441	0.709093	0.198530
H78	H	1.088636	0.706224	0.325929
H79	H	1.174272	0.830968	0.326125
H80	H	0.837795	0.343079	0.344889
H81	H	1.648636	-0.112674	0.624105
C82	C	1.783405	0.054904	0.359552
C83	C	1.854393	-0.068992	0.273249
C84	C	1.961445	-0.021458	0.214544
H85	H	1.835996	0.078282	0.436866
H86	H	1.755271	0.147810	0.300930
H87	H	1.882529	-0.161870	0.331868
H88	H	1.801840	-0.092386	0.195912
H89	H	1.933310	0.071447	0.155922
H90	H	2.014025	0.001920	0.291868
H91	H	2.009617	-0.105508	0.155971
