data_functionalizedCrystal
_audit_creation_method	'MofGen! by Chris Wilmer'
_symmetry_space_group_name_H-M	'P1'
_symmetry_Int_Tables_number	1
_symmetry_cell_setting	triclinic
loop_
_symmetry_equiv_pos_as_xyz
  x,y,z
_cell_length_a	14.971486
_cell_length_b	14.853576
_cell_length_c	13.330367
_cell_angle_alpha	89.997009
_cell_angle_beta	90.015481
_cell_angle_gamma	96.373694
loop_
_atom_site_label
_atom_site_type_symbol
_atom_site_fract_x
_atom_site_fract_y
_atom_site_fract_z
O1	O	-1.186951	0.117479	0.083306
O2	O	-0.926554	0.131548	0.083333
O3	O	-1.063704	-0.006717	0.083315
O4	O	-1.049801	0.255744	0.083324
O5	O	-1.063729	-0.006708	-0.083533
O6	O	-0.926579	0.131557	-0.083514
O7	O	-1.186977	0.117488	-0.083541
Cu8	Cu	-1.056780	0.124523	-0.098762
Cu9	Cu	-1.056750	0.124512	0.098554
O10	O	-1.049826	0.255753	-0.083523
C11	C	-1.063085	-0.040301	-0.000108
C12	C	-1.061193	-0.140384	-0.000104
C13	C	-0.893242	0.130923	-0.000087
C14	C	-0.793944	0.129038	-0.000077
C15	C	-1.220289	0.118112	-0.000119
C16	C	-1.319586	0.119998	-0.000123
C17	C	-1.060289	-0.187404	0.090849
C18	C	-1.060327	-0.187407	-0.091054
C19	C	-1.058555	-0.281441	-0.091054
C20	C	-1.057650	-0.328461	-0.000101
C21	C	-1.058519	-0.281447	0.090852
C22	C	-1.057695	-0.328464	-0.182006
C23	C	-1.055923	-0.422503	-0.182009
C24	C	-1.055012	-0.469524	-0.091055
C25	C	-1.055880	-0.422504	-0.000098
C26	C	-1.054976	-0.469523	0.090855
C27	C	-1.055837	-0.422504	0.181812
C28	C	-1.057608	-0.328467	0.181806
C29	C	-1.053241	-0.563561	-0.091049
C30	C	-1.053205	-0.563566	0.090857
C31	C	-0.736736	0.210265	-0.000076
C32	C	-0.643436	0.208488	-0.000091
C33	C	-0.607346	0.125483	-0.000100
C34	C	-0.664562	0.044249	-0.000104
C35	C	-0.757860	0.046027	-0.000097
C36	C	-0.470099	0.040549	-0.000118
C37	C	-0.376794	0.038771	-0.000124
C38	C	-0.355675	0.203009	-0.000112
C39	C	-0.448973	0.204787	-0.000105
C40	C	-0.506182	0.123554	-0.000107
C41	C	-1.050445	0.289337	-0.000099
C42	C	-1.052337	0.389420	-0.000096
N43	N	-1.056729	0.124498	0.237335
N44	N	-1.056808	0.124530	-0.237544
C45	C	-0.995953	0.185627	0.709966
C46	C	-1.117646	0.063426	0.709918
C47	C	-1.117633	0.063420	0.604900
C48	C	-1.056777	0.124517	0.552410
C49	C	-0.995936	0.185621	0.604938
C50	C	-1.178467	0.002311	0.552364
C51	C	-1.178455	0.002302	0.447339
C52	C	-1.117603	0.063404	0.394847
C53	C	-1.056760	0.124511	0.447382
C54	C	-0.995905	0.185608	0.394892
C55	C	-0.935065	0.246720	0.447425
C56	C	-0.935084	0.246723	0.552446
C57	C	-1.117584	0.063401	0.289825
C58	C	-0.995888	0.185602	0.289864
H59	H	-1.052462	-0.601842	0.164923
O60	O	-0.525637	-0.038384	0.000062
C61	C	-0.509221	-0.088784	0.086460
H62	H	-0.477371	-0.041225	0.146851
H63	H	-0.575360	-0.124861	0.115475
H64	H	-0.461661	-0.141022	0.066919
H65	H	-1.055106	-0.460801	0.255866
H66	H	-1.052543	-0.601840	-0.165105
H67	H	-1.058313	-0.290176	0.255859
O68	O	-0.629656	-0.036461	-0.000155
C69	C	-0.700159	-0.107773	-0.000128
H70	H	-0.763577	-0.082431	-0.031715
H71	H	-0.680602	-0.165719	-0.048569
H72	H	-0.713309	-0.132835	0.079917
H73	H	-0.309091	0.269153	-0.000115
H74	H	-0.946335	0.235358	0.247132
H75	H	-0.478354	0.272377	-0.000087
O76	O	-1.058429	-0.282858	-0.270406
C77	C	-0.980582	-0.295702	-0.325702
H78	H	-0.953511	-0.360624	-0.299853
H79	H	-0.997924	-0.301164	-0.408915
H80	H	-0.927363	-0.235707	-0.313054
H81	H	-1.167115	0.013641	0.247058
O82	O	-1.061013	-0.141620	0.179136
C83	C	-0.984620	-0.077121	0.184597
H84	H	-0.959091	-0.059658	0.105633
H85	H	-1.003266	-0.013270	0.223088
H86	H	-0.929730	-0.106278	0.229487
O87	O	-0.813471	-0.032853	-0.000271
C88	C	-0.868110	-0.036724	-0.086667
H89	H	-0.834018	0.009344	-0.147063
H90	H	-0.878518	-0.109330	-0.115676
H91	H	-0.935976	-0.013317	-0.067124
O92	O	-1.061069	-0.141809	-0.179459
C93	C	-0.983222	-0.154645	-0.234757
H94	H	-0.956137	-0.219558	-0.208900
H95	H	-1.000567	-0.160119	-0.317968
H96	H	-0.930012	-0.094640	-0.222120
H97	H	-1.055221	-0.460778	-0.256073
O98	O	-0.875826	0.305975	0.396475
C99	C	-0.787320	0.291020	0.422206
H100	H	-0.786935	0.218829	0.451103
H101	H	-0.742427	0.301215	0.353157
H102	H	-0.761029	0.340921	0.483161
O103	O	-0.771641	0.290976	-0.000110
C104	C	-0.701136	0.362286	-0.000088
H105	H	-0.637737	0.336945	-0.031683
H106	H	-0.720719	0.420236	-0.048524
H107	H	-0.687941	0.387342	0.079957
H108	H	-0.347413	-0.028819	-0.000133
H109	H	-0.885550	0.296477	0.595225
H110	H	-0.946420	0.235386	0.752741
H111	H	-0.596861	0.274631	-0.000088
O112	O	-1.176673	0.004118	0.761061
C113	C	-1.128900	-0.051707	0.821890
H114	H	-1.058866	-0.016114	0.837604
H115	H	-1.166245	-0.065710	0.895746
H116	H	-1.122959	-0.118435	0.781511
H117	H	-1.228009	-0.047437	0.595104
H118	H	-1.227995	-0.047457	0.404573
