data_functionalizedCrystal
_audit_creation_method	'MofGen! by Chris Wilmer'
_symmetry_space_group_name_H-M	'P1'
_symmetry_Int_Tables_number	1
_symmetry_cell_setting	triclinic
loop_
_symmetry_equiv_pos_as_xyz
  x,y,z
_cell_length_a	12.759401
_cell_length_b	25.639239
_cell_length_c	25.639233
_cell_angle_alpha	89.981253
_cell_angle_beta	89.988407
_cell_angle_gamma	90.040211
loop_
_atom_site_label
_atom_site_type_symbol
_atom_site_fract_x
_atom_site_fract_y
_atom_site_fract_z
Zn1	Zn	1.605994	-0.208193	-0.295595
Zn2	Zn	1.605841	-0.295612	-0.208159
Zn3	Zn	1.430322	-0.208195	-0.208175
Zn4	Zn	1.430211	-0.295602	-0.295565
O5	O	1.518092	-0.251900	-0.251874
O6	O	1.752995	-0.219793	-0.284002
O7	O	1.582539	-0.284021	-0.134996
O8	O	1.453736	-0.135029	-0.219790
O9	O	1.752882	-0.284019	-0.219763
O10	O	1.582801	-0.135028	-0.284017
O11	O	1.453586	-0.219796	-0.135008
O12	O	1.283286	-0.219786	-0.219762
O13	O	1.453548	-0.284002	-0.368734
O14	O	1.283205	-0.284003	-0.283967
O15	O	1.582694	-0.219783	-0.368756
O16	O	1.582432	-0.368776	-0.219735
O17	O	1.453398	-0.368768	-0.283952
C18	C	1.245125	-0.251894	-0.251863
C19	C	1.128348	-0.251904	-0.251871
C20	C	1.073471	-0.285393	-0.285250
C21	C	0.963747	-0.285395	-0.285260
C22	C	0.963786	-0.218417	-0.218508
C23	C	1.073508	-0.218413	-0.218501
C24	C	1.517915	-0.387743	-0.251850
C25	C	1.517936	-0.445857	-0.251857
C26	C	1.585455	-0.806211	-0.218493
C27	C	1.585496	-0.860816	-0.218500
O28	O	1.642720	-0.889045	-0.190106
N29	N	1.518277	-0.888139	-0.251908
C30	C	1.451020	-0.860856	-0.285315
O31	O	1.393849	-0.889111	-0.313733
C32	C	1.450985	-0.806253	-0.285311
C33	C	1.518201	-0.778932	-0.251896
C34	C	1.652667	-0.778890	-0.185082
C35	C	1.652624	-0.724290	-0.185074
C36	C	1.585370	-0.697010	-0.218478
C37	C	1.518159	-0.724331	-0.251889
C38	C	1.383734	-0.778970	-0.318720
C39	C	1.383706	-0.724363	-0.318713
C40	C	1.450922	-0.697042	-0.285299
C41	C	1.450863	-0.642451	-0.285285
N42	N	1.518082	-0.615127	-0.251877
C43	C	1.585336	-0.642407	-0.218473
C44	C	1.451099	-0.975527	-0.285324
C45	C	1.451127	-1.030129	-0.285326
C46	C	1.585605	-1.030085	-0.218511
C47	C	1.585571	-0.975482	-0.218506
C48	C	1.518318	-0.948203	-0.251915
C49	C	1.585241	-0.527742	-0.218459
C50	C	1.585190	-0.473137	-0.218453
C51	C	1.450716	-0.473185	-0.285270
C52	C	1.450763	-0.527786	-0.285274
C53	C	1.518034	-0.555063	-0.251867
O54	O	1.393671	-0.614187	-0.313666
O55	O	1.642507	-0.614145	-0.190065
C56	C	1.792125	-0.251907	-0.251884
C57	C	1.908902	-0.251910	-0.251889
C58	C	1.518126	-0.251891	-0.388247
C59	C	1.518140	-0.251887	-0.446361
C60	C	1.518298	-0.115527	-0.251909
C61	C	1.518386	-0.057413	-0.251924
C62	C	1.585472	-0.218349	-0.806741
C63	C	1.585485	-0.218335	-0.861345
O64	O	1.642649	-0.189881	-0.889596
N65	N	1.518256	-0.251765	-0.888643
C66	C	1.451002	-0.285208	-0.861334
O67	O	1.393819	-0.313641	-0.889567
C68	C	1.450985	-0.285219	-0.806731
C69	C	1.518226	-0.251791	-0.779436
C70	C	1.652707	-0.184923	-0.779445
C71	C	1.652695	-0.184939	-0.724845
C72	C	1.585449	-0.218380	-0.697540
C73	C	1.518214	-0.251806	-0.724835
C74	C	1.383726	-0.318659	-0.779423
C75	C	1.383714	-0.318667	-0.724816
C76	C	1.450955	-0.285239	-0.697521
C77	C	1.450955	-0.285262	-0.642929
N78	N	1.518184	-0.251833	-0.615631
C79	C	1.585431	-0.218391	-0.642936
C80	C	1.451043	-0.285180	-0.976005
C81	C	1.451065	-0.285172	-1.030607
C82	C	1.585547	-0.218298	-1.030614
C83	C	1.585529	-0.218310	-0.976011
C84	C	1.518272	-0.251750	-0.948707
C85	C	1.585402	-0.218426	-0.528271
C86	C	1.585387	-0.218446	-0.473666
C87	C	1.450901	-0.285317	-0.473663
C88	C	1.450920	-0.285300	-0.528264
C89	C	1.518173	-0.251850	-0.555567
O90	O	1.393818	-0.313700	-0.614643
O91	O	1.642595	-0.189958	-0.614696
C92	C	1.518119	-0.251872	-0.116031
C93	C	1.518308	-0.251728	-0.057917
H94	H	0.919072	-0.312664	-0.312442
H95	H	1.118119	-0.312662	-0.312424
H96	H	1.396034	-0.550032	-0.312485
H97	H	1.118190	-0.191139	-0.191320
H98	H	1.328932	-0.345893	-0.702588
Cl99	Cl	1.299240	-0.813303	-0.360736
H100	H	0.919122	-0.191151	-0.191339
Cl101	Cl	1.669810	-0.562024	-0.176460
Cl102	Cl	1.669697	-0.438794	-0.176444
Cl103	Cl	1.737227	-0.813175	-0.143083
Cl104	Cl	1.737146	-0.689952	-0.143073
Cl105	Cl	1.670075	-0.941141	-0.176499
Cl106	Cl	1.366178	-0.438881	-0.327264
Cl107	Cl	1.670152	-1.064389	-0.176516
H108	H	1.328942	-0.702156	-0.345920
Cl109	Cl	1.366611	-1.064469	-0.327328
Cl110	Cl	1.366545	-0.327206	-1.064915
Cl111	Cl	1.366535	-0.941239	-0.327323
Cl112	Cl	1.669927	-0.176419	-0.439355
Cl113	Cl	1.669946	-0.176372	-0.562586
H114	H	1.707448	-0.157717	-0.702626
Cl115	Cl	1.737271	-0.142884	-0.813762
Cl116	Cl	1.670062	-0.176283	-0.941703
Cl117	Cl	1.670084	-0.176256	-1.064951
Cl118	Cl	1.366490	-0.327229	-0.941685
H119	H	1.328971	-0.345880	-0.801637
H120	H	1.396176	-0.312525	-0.550489
H121	H	1.396154	-0.312546	-0.451422
