data_functionalizedCrystal
_audit_creation_method	'MofGen! by Chris Wilmer'
_symmetry_space_group_name_H-M	'P1'
_symmetry_Int_Tables_number	1
_symmetry_cell_setting	triclinic
loop_
_symmetry_equiv_pos_as_xyz
  x,y,z
_cell_length_a	18.050591
_cell_length_b	18.050590
_cell_length_c	18.050591
_cell_angle_alpha	90.007244
_cell_angle_beta	90.007198
_cell_angle_gamma	90.015000
loop_
_atom_site_label
_atom_site_type_symbol
_atom_site_fract_x
_atom_site_fract_y
_atom_site_fract_z
Zn1	Zn	1.135250	-0.295895	0.420004
Zn2	Zn	1.135209	-0.420043	0.295813
Zn3	Zn	1.011097	-0.295864	0.295818
Zn4	Zn	1.011038	-0.420040	0.419951
O5	O	1.073149	-0.357961	0.357896
O6	O	1.239169	-0.312378	0.403550
O7	O	1.118753	-0.403559	0.191889
O8	O	1.027608	-0.191944	0.312316
O9	O	1.239139	-0.403589	0.312307
O10	O	1.118823	-0.191966	0.403555
O11	O	1.027568	-0.312325	0.191893
O12	O	0.907164	-0.312322	0.312264
O13	O	1.027508	-0.403583	0.523882
O14	O	0.907122	-0.403553	0.403464
O15	O	1.118766	-0.312375	0.523922
O16	O	1.118696	-0.523967	0.312255
O17	O	1.027468	-0.523965	0.403459
C18	C	0.880197	-0.357934	0.357859
C19	C	0.797651	-0.357941	0.357861
C20	C	1.073092	-0.550913	0.357867
C21	C	1.073135	-0.633458	0.357879
C22	C	0.548827	-0.308278	0.308384
C23	C	0.598241	-0.290216	0.376160
C24	C	0.500530	-0.357979	0.357922
C25	C	0.598198	-0.375987	0.290119
C26	C	0.646515	-0.357959	0.357888
C27	C	0.548857	-0.339882	0.425734
C28	C	0.548810	-0.425685	0.339647
C29	C	0.598202	-0.407649	0.407471
C30	C	0.416432	-0.357989	0.357940
C31	C	0.730612	-0.357949	0.357878
C32	C	1.122848	-0.832884	0.308352
C33	C	1.140969	-0.882242	0.376133
C34	C	1.073177	-0.784589	0.357908
C35	C	1.055132	-0.882312	0.290157
C36	C	1.073219	-0.930574	0.357931
C37	C	1.091333	-0.832860	0.425726
C38	C	1.005465	-0.832925	0.339704
C39	C	1.023560	-0.882262	0.407533
C40	C	1.073155	-0.700491	0.357894
C41	C	1.073242	-1.014670	0.357953
C42	C	1.266854	-0.357987	0.357934
C43	C	1.349400	-0.357999	0.357950
C44	C	1.073135	-0.357982	0.551602
C45	C	1.073130	-0.357991	0.634148
C46	C	1.073226	-0.164255	0.357942
C47	C	1.073259	-0.081709	0.357962
C48	C	1.023491	-0.407583	0.882952
C49	C	1.005351	-0.339830	0.833563
C50	C	1.073123	-0.357969	0.931268
C51	C	1.091231	-0.425729	0.833575
C52	C	1.073124	-0.357984	0.785283
C53	C	1.054947	-0.290180	0.882967
C54	C	1.140859	-0.376125	0.882983
C55	C	1.122744	-0.308326	0.833616
C56	C	1.073120	-0.357962	1.015366
C57	C	1.073127	-0.357983	0.701186
C58	C	1.073146	-0.357959	1.164944
C59	C	1.073119	-0.357961	1.082398
H60	H	0.527149	-0.266225	0.266557
C61	C	0.966836	-0.911367	0.464226
N62	N	0.924113	-0.933290	0.506929
H63	H	1.106548	-0.483027	0.811880
C64	C	0.627577	-0.212853	0.397028
N65	N	0.649670	-0.154582	0.412740
C66	C	0.519448	-0.503024	0.318749
N67	N	0.497329	-0.561276	0.303000
C68	C	1.179613	-0.803583	0.251798
N69	N	1.222370	-0.781510	0.209207
C70	C	1.179444	-0.251588	0.804529
N71	N	1.222146	-0.208851	0.782617
H72	H	1.198250	-0.903907	0.391545
C73	C	1.034161	-0.212752	0.912152
N74	N	1.018502	-0.154436	0.934135
C75	C	0.519702	-0.319198	0.503200
N76	N	0.497740	-0.303616	0.561545
C77	C	0.928106	-0.803626	0.318852
N78	N	0.869841	-0.781554	0.303137
H79	H	0.619873	-0.391227	0.232794
C80	C	1.112071	-0.803642	0.503165
N81	N	1.127694	-0.781632	0.561490
C82	C	1.218221	-0.396899	0.912336
N83	N	1.276491	-0.412554	0.934447
C84	C	1.034486	-0.911653	0.212740
N85	N	1.018940	-0.933749	0.154427
C86	C	0.966747	-0.464182	0.912224
N87	N	0.924005	-0.506809	0.934273
C88	C	0.927966	-0.319082	0.804240
N89	N	0.869677	-0.303459	0.782157
H90	H	0.619744	-0.449671	0.449397
