data_functionalizedCrystal
_audit_creation_method	'MofGen! by Chris Wilmer'
_symmetry_space_group_name_H-M	'P1'
_symmetry_Int_Tables_number	1
_symmetry_cell_setting	triclinic
loop_
_symmetry_equiv_pos_as_xyz
  x,y,z
_cell_length_a	16.625548
_cell_length_b	12.645330
_cell_length_c	12.645323
_cell_angle_alpha	89.975130
_cell_angle_beta	89.977535
_cell_angle_gamma	90.018760
loop_
_atom_site_label
_atom_site_type_symbol
_atom_site_fract_x
_atom_site_fract_y
_atom_site_fract_z
Zn1	Zn	1.232722	-0.422001	-0.599440
Zn2	Zn	1.732722	0.077999	-0.099440
Zn3	Zn	1.232632	-0.599289	-0.422180
Zn4	Zn	1.732632	-0.099289	0.077820
Zn5	Zn	1.097880	-0.422043	-0.422185
Zn6	Zn	1.597880	0.077957	0.077815
Zn7	Zn	1.097866	-0.599226	-0.599396
Zn8	Zn	1.597866	-0.099226	-0.099396
O9	O	1.165275	-0.510640	-0.510801
O10	O	1.665275	-0.010640	-0.010801
O11	O	1.345543	-0.445527	-0.575943
O12	O	1.845543	0.054473	-0.075943
O13	O	1.214725	-0.575821	-0.273834
O14	O	1.714725	-0.075821	0.226166
O15	O	1.115810	-0.273690	-0.445719
O16	O	1.615810	0.226310	0.054281
O17	O	1.345477	-0.575780	-0.445711
O18	O	1.845477	-0.075780	0.054289
O19	O	1.214879	-0.273659	-0.575948
O20	O	1.714879	0.226341	-0.075948
O21	O	1.115723	-0.445599	-0.273837
O22	O	1.615723	0.054401	0.226163
O23	O	0.985045	-0.445538	-0.445677
O24	O	1.485045	0.054462	0.054323
O25	O	1.115787	-0.575673	-0.747750
O26	O	1.615787	-0.075673	-0.247750
O27	O	0.985035	-0.575714	-0.575873
O28	O	1.485035	-0.075714	-0.075873
O29	O	1.214865	-0.445466	-0.747782
O30	O	1.714865	0.054534	-0.247782
O31	O	1.214712	-0.747628	-0.445668
O32	O	1.714712	-0.247628	0.054332
O33	O	1.115699	-0.747582	-0.575868
O34	O	1.615699	-0.247582	-0.075868
C35	C	0.955784	-0.510624	-0.510771
C36	C	1.455784	-0.010624	-0.010771
C37	C	0.866163	-0.510644	-0.510783
C38	C	1.366163	-0.010644	-0.010783
C39	C	0.537987	-0.510650	-0.510829
C40	C	1.037987	-0.010650	-0.010829
C41	C	0.629296	-0.510646	-0.510813
C42	C	1.129296	-0.010646	-0.010813
C43	C	0.702072	-0.510648	-0.510805
C44	C	1.202072	-0.010648	-0.010805
C45	C	0.793387	-0.510642	-0.510791
C46	C	1.293387	-0.010642	-0.010791
C47	C	1.165216	-0.786069	-0.510786
C48	C	1.665216	-0.286069	-0.010786
C49	C	1.165265	-0.903899	-0.510815
C50	C	1.665265	-0.403899	-0.010815
C51	C	1.103233	-1.071478	-0.592976
C52	C	1.603233	-0.571478	-0.092976
C53	C	1.102916	-0.948919	-0.592712
C54	C	1.602916	-0.448919	-0.092712
C55	C	1.142260	-0.948494	-0.399093
C56	C	1.642260	-0.448494	0.100907
C57	C	1.141882	-1.071092	-0.399592
C58	C	1.641882	-0.571092	0.100408
C59	C	1.250681	-1.070987	-0.539469
C60	C	1.750681	-0.570987	-0.039469
C61	C	1.250157	-0.948380	-0.541912
C62	C	1.750157	-0.448380	-0.041912
C63	C	1.375584	-0.510656	-0.510831
C64	C	1.875584	-0.010656	-0.010831
C65	C	1.465205	-0.510662	-0.510844
C66	C	1.965205	-0.010662	-0.010844
C67	C	1.165334	-0.510558	-0.787306
C68	C	1.665334	-0.010558	-0.287306
C69	C	1.165360	-0.510523	-0.905136
C70	C	1.665360	-0.010523	-0.405136
C71	C	1.165356	-0.234134	-0.510839
C72	C	1.665356	0.265866	-0.010839
C73	C	1.165391	-0.116304	-0.510855
C74	C	1.665391	0.383696	-0.010855
C75	C	1.102837	-0.592050	-1.072680
C76	C	1.602837	-0.092050	-0.572680
C77	C	1.103001	-0.592453	-0.950120
C78	C	1.603001	-0.092453	-0.450120
C79	C	1.250318	-0.540839	-0.949656
C80	C	1.750318	-0.040839	-0.449656
C81	C	1.249975	-0.541350	-1.072254
C82	C	1.749975	-0.041350	-0.572254
C83	C	1.143727	-0.398223	-1.072334
C84	C	1.643727	0.101777	-0.572334
C85	C	1.141832	-0.398896	-0.949728
C86	C	1.641832	0.101104	-0.449728
C87	C	1.165262	-0.510645	-0.235371
C88	C	1.665262	-0.010645	0.264629
C89	C	1.165393	-0.510381	-0.117541
C90	C	1.665393	-0.010381	0.382459
H91	H	1.117309	-0.918765	-0.675553
H92	H	1.617309	-0.418765	-0.175553
Cl93	Cl	1.207047	-0.299984	-0.902469
Cl94	Cl	1.707047	0.200016	-0.402469
H95	H	1.082854	-0.370589	-1.103239
H96	H	1.582854	0.129411	-0.603239
Cl97	Cl	1.125129	-0.720813	-0.904853
Cl98	Cl	1.625129	-0.220813	-0.404853
Cl99	Cl	1.278326	-0.667935	-1.116432
Cl100	Cl	1.778326	-0.167935	-0.616432
H101	H	1.040398	-1.102381	-0.574261
H102	H	1.540398	-0.602381	-0.074261
H103	H	1.039686	-0.919686	-0.573755
H104	H	1.539686	-0.419686	-0.073755
Cl105	Cl	1.125244	-1.116891	-0.721300
Cl106	Cl	1.625244	-0.616891	-0.221300
Cl107	Cl	1.005735	-0.563159	-0.903641
Cl108	Cl	1.505735	-0.063159	-0.403641
Cl109	Cl	1.045622	-1.115397	-0.362169
Cl110	Cl	1.545622	-0.615397	0.137831
Cl111	Cl	1.324332	-0.453441	-1.118080
Cl112	Cl	1.824332	0.046559	-0.618080
Cl113	Cl	1.279160	-0.666098	-0.902279
Cl114	Cl	1.779160	-0.166098	-0.402279
Cl115	Cl	1.283080	-1.118603	-0.663112
Cl116	Cl	1.783080	-0.618603	-0.163112
Cl117	Cl	1.208735	-1.116885	-0.301895
Cl118	Cl	1.708735	-0.616885	0.198105
H119	H	1.298907	-0.917728	-0.486455
H120	H	1.798907	-0.417728	0.013545
Cl121	Cl	1.047001	-0.901245	-0.360990
Cl122	Cl	1.547001	-0.401245	0.139010
H123	H	1.186098	-0.919335	-0.336234
H124	H	1.686098	-0.419335	0.163766
Cl125	Cl	1.324212	-0.451908	-0.904677
Cl126	Cl	1.824212	0.048092	-0.404677
Cl127	Cl	1.276946	-0.903374	-0.668856
Cl128	Cl	1.776946	-0.403374	-0.168856
Cl129	Cl	1.322182	-1.115762	-0.447142
Cl130	Cl	1.822182	-0.615762	0.052858
Cl131	Cl	1.214071	-0.304281	-1.117127
Cl132	Cl	1.714071	0.195719	-0.617127
Cl133	Cl	1.005277	-0.563039	-1.118175
Cl134	Cl	1.505277	-0.063039	-0.618175
H135	H	1.117000	-0.674677	-1.103499
H136	H	1.617000	-0.174677	-0.603499
Cl137	Cl	1.045298	-0.363600	-0.904816
Cl138	Cl	1.545298	0.136400	-0.404816
