data_functionalizedCrystal
_audit_creation_method	'MofGen! by Chris Wilmer'
_symmetry_space_group_name_H-M	'P1'
_symmetry_Int_Tables_number	1
_symmetry_cell_setting	triclinic
loop_
_symmetry_equiv_pos_as_xyz
  x,y,z
_cell_length_a	19.288864
_cell_length_b	14.853567
_cell_length_c	17.766277
_cell_angle_alpha	89.997439
_cell_angle_beta	89.976791
_cell_angle_gamma	83.385589
loop_
_atom_site_label
_atom_site_type_symbol
_atom_site_fract_x
_atom_site_fract_y
_atom_site_fract_z
O1	O	0.921733	0.112464	-0.062829
O2	O	1.421733	0.612464	0.437171
O3	O	0.719523	0.127636	-0.062777
O4	O	1.219523	0.627636	0.437223
O5	O	0.826029	-0.011211	-0.062807
O6	O	1.326029	0.488789	0.437193
O7	O	0.815227	0.251310	-0.062800
O8	O	1.315227	0.751310	0.437200
O9	O	0.826011	-0.011218	0.062382
O10	O	1.326011	0.488782	0.562382
O11	O	0.719504	0.127629	0.062411
O12	O	1.219504	0.627629	0.562411
O13	O	0.921714	0.112457	0.062359
O14	O	1.421714	0.612457	0.562359
Cu15	Cu	0.820607	0.120042	0.073816
Cu16	Cu	1.320607	0.620042	0.573816
Cu17	Cu	0.820630	0.120051	-0.074234
Cu18	Cu	1.320630	0.620051	0.425766
O19	O	0.815208	0.251303	0.062389
O20	O	1.315208	0.751303	0.562389
C21	C	0.693636	0.127144	-0.000176
C22	C	1.193636	0.627144	0.499824
C23	C	0.616527	0.125679	-0.000157
C24	C	1.116527	0.625679	0.499843
C25	C	0.825530	-0.044800	-0.000215
C26	C	1.325530	0.455200	0.499785
C27	C	0.824064	-0.144875	-0.000221
C28	C	1.324064	0.355125	0.499779
C29	C	0.572106	0.207147	-0.000166
C30	C	1.072106	0.707147	0.499834
C31	C	0.499654	0.205770	-0.000175
C32	C	0.999654	0.705770	0.499825
C33	C	0.471627	0.122920	-0.000188
C34	C	0.971627	0.622920	0.499812
C35	C	0.516058	0.041441	-0.000175
C36	C	1.016058	0.541441	0.499825
C37	C	0.588508	0.042820	-0.000159
C38	C	1.088508	0.542820	0.499841
C39	C	0.363152	0.057794	-0.044075
C40	C	0.863152	0.557794	0.455925
C41	C	0.290703	0.056418	-0.044095
C42	C	0.790703	0.556418	0.455905
C43	C	0.248167	0.118664	-0.000234
C44	C	0.748167	0.618664	0.499766
C45	C	0.278088	0.182300	0.043638
C46	C	0.778088	0.682300	0.543638
C47	C	0.350538	0.183679	0.043654
C48	C	0.850538	0.683679	0.543654
C49	C	0.393068	0.121416	-0.000205
C50	C	0.893068	0.621416	0.499795
C51	C	0.125185	0.198645	-0.000252
C52	C	0.625185	0.698645	0.499748
C53	C	0.052732	0.197265	-0.000255
C54	C	0.552732	0.697265	0.499745
C55	C	0.069138	0.032933	-0.000263
C56	C	0.569138	0.532933	0.499737
C57	C	0.141589	0.034316	-0.000252
C58	C	0.641589	0.534316	0.499748
C59	C	0.169608	0.117174	-0.000250
C60	C	0.669608	0.617174	0.499750
C61	C	0.754596	-0.557014	-0.000189
C62	C	1.254596	-0.057014	0.499811
C63	C	0.881128	-0.579015	-0.000221
C64	C	1.381128	-0.079015	0.499779
C65	C	0.882507	-0.484989	-0.000226
C66	C	1.382507	0.015011	0.499774
C67	C	0.819930	-0.426971	-0.000211
C68	C	1.319930	0.073029	0.499789
C69	C	0.755974	-0.462979	-0.000191
C70	C	1.255974	0.037021	0.499809
C71	C	0.946462	-0.448973	-0.000239
C72	C	1.446462	0.051027	0.499761
C73	C	0.947844	-0.354942	-0.000242
C74	C	1.447844	0.145058	0.499758
C75	C	0.885266	-0.296923	-0.000233
C76	C	1.385266	0.203077	0.499767
C77	C	0.821307	-0.332936	-0.000214
C78	C	1.321307	0.167064	0.499786
C79	C	0.758730	-0.274918	-0.000199
C80	C	1.258730	0.225082	0.499801
C81	C	0.694770	-0.310930	-0.000185
C82	C	1.194770	0.189070	0.499815
C83	C	0.693396	-0.404960	-0.000181
C84	C	1.193396	0.095040	0.499819
C85	C	0.886641	-0.202893	-0.000236
C86	C	1.386641	0.297107	0.499764
C87	C	0.760107	-0.180883	-0.000201
C88	C	1.260107	0.319117	0.499799
C89	C	0.947601	0.112949	-0.000243
C90	C	1.447601	0.612949	0.499757
C91	C	1.024710	0.114414	-0.000268
C92	C	1.524710	0.614414	0.499732
C93	C	0.815707	0.284893	-0.000205
C94	C	1.315707	0.784893	0.499795
C95	C	0.817174	0.384968	-0.000204
C96	C	1.317174	0.884968	0.499796
N97	N	0.820597	0.120036	0.177946
N98	N	1.320597	0.620036	0.677946
N99	N	0.820646	0.120050	-0.178364
N100	N	1.320646	0.620050	0.321636
C101	C	0.867773	0.058585	0.217320
C102	C	1.367773	0.558585	0.717320
C103	C	0.867777	0.058581	0.296122
C104	C	1.367777	0.558581	0.796122
C105	C	0.820612	0.120043	0.335547
C106	C	1.320612	0.620043	0.835547
C107	C	0.773427	0.181499	0.296164
C108	C	1.273427	0.681499	0.796164
C109	C	0.773419	0.181495	0.217363
C110	C	1.273419	0.681495	0.717363
C111	C	0.811590	0.202186	0.460389
C112	C	1.311590	0.702186	0.960389
C113	C	0.811602	0.202191	0.539187
C114	C	1.311602	0.702191	1.039187
C115	C	0.820630	0.120054	0.578593
C116	C	1.320630	0.620054	1.078593
C117	C	0.829661	0.037908	0.539190
C118	C	1.329661	0.537908	1.039190
C119	C	0.829653	0.037905	0.460390
C120	C	1.329653	0.537905	0.960390
C121	C	0.820614	0.120053	0.420992
C122	C	1.320614	0.620053	0.920992
C123	C	0.867813	0.058593	0.703413
C124	C	1.367813	0.558593	1.203413
C125	C	0.867813	0.058588	0.782216
C126	C	1.367813	0.558588	1.282216
C127	C	0.773465	0.181514	0.782256
C128	C	1.273465	0.681514	1.282256
C129	C	0.773463	0.181511	0.703455
C130	C	1.273463	0.681511	1.203455
C131	C	0.820640	0.120052	0.664038
C132	C	1.320640	0.620052	1.164038
H133	H	0.463479	0.272114	-0.000180
H134	H	0.963479	0.772114	0.499820
C135	C	0.839597	-0.052450	0.582522
C136	C	1.339597	0.447550	1.082522
H137	H	0.844980	-0.101369	0.547770
H138	H	1.344980	0.398631	1.047770
H139	H	0.799911	-0.057327	0.613285
H140	H	1.299911	0.442673	1.113285
H141	H	0.880045	-0.054401	0.613239
H142	H	1.380045	0.445599	1.113239
H143	H	0.932075	-0.626258	-0.000228
H144	H	1.432075	-0.126258	0.499772
C145	C	0.003868	0.286885	-0.000266
C146	C	0.503868	0.786885	0.499734
H147	H	0.030935	0.336426	-0.000270
H148	H	0.530935	0.836426	0.499730
H149	H	-0.024760	0.289767	0.043384
H150	H	0.475240	0.789767	0.543384
H151	H	-0.024712	0.289758	-0.043933
H152	H	0.475288	0.789758	0.456067
H153	H	0.999924	-0.325630	-0.000255
H154	H	1.499924	0.174370	0.499745
H155	H	0.906227	0.008542	0.814275
H156	H	1.406227	0.508542	1.314275
H157	H	0.938716	-0.173576	-0.000242
H158	H	1.438716	0.326424	0.499758
C159	C	0.801664	0.292543	0.417050
C160	C	1.301664	0.792543	0.917050
H161	H	0.796299	0.341464	0.451800
H162	H	1.296299	0.841464	0.951800
H163	H	0.761222	0.294506	0.386329
H164	H	1.261222	0.794506	0.886329
H165	H	0.841359	0.297406	0.386291
H166	H	1.341359	0.797406	0.886291
C167	C	0.919695	-0.009017	0.660047
C168	C	1.419695	0.490983	1.160047
H169	H	0.912940	-0.000212	0.607477
H170	H	1.412940	0.499788	1.107477
H171	H	0.912094	-0.069160	0.672969
H172	H	1.412094	0.430840	1.172969
H173	H	0.966062	0.000621	0.672936
H174	H	1.466062	0.500621	1.172936
H175	H	0.735059	0.231554	0.814356
H176	H	1.235059	0.731554	1.314356
H177	H	0.177758	-0.032025	-0.000248
H178	H	0.677758	0.467975	0.499752
H179	H	0.266347	0.004605	-0.079821
H180	H	0.766347	0.504605	0.420179
H181	H	0.702522	-0.586339	-0.000180
H182	H	1.202522	-0.086339	0.499820
C183	C	0.721576	0.249118	0.660141
C184	C	1.221576	0.749118	1.160141
H185	H	0.693489	0.285728	0.694905
H186	H	1.193489	0.785728	1.194905
H187	H	0.692631	0.216784	0.629418
H188	H	1.192631	0.716784	1.129418
H189	H	0.746599	0.286566	0.629388
H190	H	1.246599	0.786566	1.129388
C191	C	0.919659	-0.009027	0.173965
C192	C	1.419659	0.490973	0.673965
H193	H	0.947752	-0.045632	0.208706
H194	H	1.447752	0.454368	0.708706
H195	H	0.948598	0.023303	0.143203
H196	H	1.448598	0.523303	0.643203
H197	H	0.894631	-0.046480	0.143246
H198	H	1.394631	0.453520	0.643246
C199	C	0.038316	-0.058200	-0.000283
C200	C	0.538316	0.441800	0.499717
H201	H	-0.011195	-0.047355	-0.000299
H202	H	0.488805	0.452645	0.499701
H203	H	0.053536	-0.091741	0.043372
H204	H	0.553536	0.408259	0.543372
H205	H	0.053584	-0.091724	-0.043946
H206	H	0.553584	0.408276	0.456054
C207	C	0.839575	-0.052445	0.417047
C208	C	1.339575	0.447555	0.917047
H209	H	0.845049	-0.101365	0.451795
H210	H	1.345049	0.398635	0.951795
H211	H	0.879955	-0.054350	0.386200
H212	H	1.379955	0.445650	0.886200
H213	H	0.799830	-0.057366	0.386415
H214	H	1.299830	0.442634	0.886415
C215	C	0.409934	-0.010674	-0.092332
C216	C	0.909934	0.489326	0.407668
H217	H	0.381738	-0.048758	-0.118472
H218	H	0.881738	0.451242	0.381528
H219	H	0.441817	-0.046544	-0.060715
H220	H	0.941817	0.453456	0.439285
H221	H	0.435099	0.021048	-0.127593
H222	H	0.935099	0.521048	0.372407
C223	C	0.383450	0.253665	0.091915
C224	C	0.883450	0.753665	0.591915
H225	H	0.347746	0.290538	0.118041
H226	H	0.847746	0.790538	0.618041
H227	H	0.408100	0.290606	0.060306
H228	H	0.908100	0.790606	0.560306
H229	H	0.414803	0.223021	0.127189
H230	H	0.914803	0.723021	0.627189
H231	H	0.243457	0.232986	0.079354
H232	H	0.743457	0.732986	0.579354
C233	C	1.015290	-0.512791	-0.000250
C234	C	1.515290	-0.012791	0.499750
H235	H	1.005308	-0.573948	-0.000254
H236	H	1.505308	-0.073948	0.499746
H237	H	1.041502	-0.501904	0.043401
H238	H	1.541502	-0.001904	0.543401
H239	H	1.041520	-0.501903	-0.043916
H240	H	1.541520	-0.001903	0.456084
H241	H	0.709148	-0.133651	-0.000192
H242	H	1.209148	0.366349	0.499808
C243	C	0.801670	0.292543	0.582527
C244	C	1.301670	0.792543	1.082527
H245	H	0.802976	0.280783	0.635100
H246	H	1.302976	0.780783	1.135100
H247	H	0.757892	0.324831	0.569636
H248	H	1.257892	0.824831	1.069636
H249	H	0.838027	0.327753	0.569588
H250	H	1.338027	0.827753	1.069588
H251	H	0.594914	0.274617	-0.000166
H252	H	1.094914	0.774617	0.499834
C253	C	0.721548	0.249108	0.339528
C254	C	1.221548	0.749108	0.839528
H255	H	0.728314	0.240316	0.392098
H256	H	1.228314	0.740316	0.892098
H257	H	0.675183	0.239471	0.326642
H258	H	1.175183	0.739471	0.826642
H259	H	0.729150	0.309254	0.326602
H260	H	1.229150	0.809254	0.826602
H261	H	0.735002	0.231537	0.185305
H262	H	1.235002	0.731537	0.685305
C263	C	0.485231	-0.049691	-0.000194
C264	C	0.985231	0.450309	0.499806
H265	H	0.435720	-0.038845	-0.000214
H266	H	0.935720	0.461155	0.499786
H267	H	0.500448	-0.083230	0.043462
H268	H	1.000448	0.416770	0.543462
H269	H	0.500501	-0.083218	-0.043855
H270	H	1.000501	0.416782	0.456145
H271	H	0.643820	-0.263680	-0.000167
H272	H	1.143820	0.236320	0.499833
H273	H	0.906195	0.008538	0.328186
H274	H	1.406195	0.508538	0.828186
C275	C	0.637374	-0.046799	-0.000157
C276	C	1.137374	0.453201	0.499843
H277	H	0.610308	-0.096341	-0.000171
H278	H	1.110308	0.403659	0.499829
H279	H	0.665958	-0.049681	0.043501
H280	H	1.165958	0.450319	0.543501
H281	H	0.665996	-0.049670	-0.043816
H282	H	1.165996	0.450330	0.456184
H283	H	0.147999	0.266113	-0.000239
H284	H	0.647999	0.766113	0.499761
C285	C	0.623049	-0.444575	-0.000156
C286	C	1.123049	0.055425	0.499844
H287	H	0.631192	-0.508884	-0.000146
H288	H	1.131192	-0.008884	0.499854
H289	H	0.597281	-0.424650	-0.043803
H290	H	1.097281	0.075350	0.456197
H291	H	0.597278	-0.424642	0.043514
H292	H	1.097278	0.075358	0.543514
