data_functionalizedCrystal
_audit_creation_method	'MofGen! by Chris Wilmer'
_symmetry_space_group_name_H-M	'P1'
_symmetry_Int_Tables_number	1
_symmetry_cell_setting	triclinic
loop_
_symmetry_equiv_pos_as_xyz
  x,y,z
_cell_length_a	15.297475
_cell_length_b	18.101397
_cell_length_c	15.298159
_cell_angle_alpha	80.340268
_cell_angle_beta	88.367350
_cell_angle_gamma	80.322482
loop_
_atom_site_label
_atom_site_type_symbol
_atom_site_fract_x
_atom_site_fract_y
_atom_site_fract_z
Zn1	Zn	1.253268	-0.576538	0.726523
Zn2	Zn	1.278569	-0.683139	0.580035
Zn3	Zn	1.132182	-0.534893	0.554774
Zn4	Zn	1.106768	-0.675889	0.701160
O5	O	1.192697	-0.617615	0.640623
O6	O	1.379199	-0.611142	0.728277
O7	O	1.280375	-0.649079	0.454116
O8	O	1.148292	-0.436797	0.577599
O9	O	1.397787	-0.689461	0.620654
O10	O	1.237253	-0.467393	0.703782
O11	O	1.172825	-0.540164	0.435556
O12	O	1.006237	-0.533134	0.553005
O13	O	1.104977	-0.677104	0.827093
O14	O	0.987565	-0.636723	0.660555
O15	O	1.212610	-0.604111	0.845727
O16	O	1.255732	-0.785797	0.596060
O17	O	1.129510	-0.780471	0.685050
C18	C	0.965119	-0.579623	0.601287
C19	C	0.867756	-0.563390	0.584480
C20	C	1.192629	-0.810008	0.640567
C21	C	1.192675	-0.892331	0.640587
C22	C	0.554579	-0.733638	0.760749
C23	C	0.646057	-0.748895	0.776538
C24	C	0.701486	-0.702520	0.728525
C25	C	0.665429	-0.640886	0.664720
C26	C	0.573943	-0.625631	0.648925
C27	C	0.720850	-0.594513	0.616701
C28	C	0.684793	-0.532879	0.552896
C29	C	0.593316	-0.517627	0.537104
C30	C	0.537887	-0.564002	0.585117
C31	C	0.812335	-0.609768	0.632496
C32	C	0.831699	-0.501761	0.520672
C33	C	0.740222	-0.486504	0.504883
C34	C	1.192773	-1.191450	0.640686
C35	C	1.272031	-1.163393	0.584482
C36	C	1.272235	-1.077834	0.584699
C37	C	1.192725	-1.043054	0.640636
C38	C	1.201740	-1.089096	0.737279
C39	C	1.202327	-1.174784	0.736999
C40	C	1.104181	-1.141709	0.601015
C41	C	1.104997	-1.055893	0.599033
C42	C	1.192695	-0.959187	0.640613
C43	C	1.192804	-1.275318	0.640716
C44	C	1.421164	-0.655755	0.680113
C45	C	1.518523	-0.672009	0.696941
C46	C	1.153136	-0.644444	0.869079
C47	C	1.136278	-0.655878	0.966433
C48	C	1.192785	-0.424477	0.640702
C49	C	1.192823	-0.342173	0.640735
C50	C	1.072315	-0.699251	1.002465
C51	C	1.056477	-0.709998	1.093935
C52	C	1.104595	-0.677367	1.149381
C53	C	1.168555	-0.633988	1.113348
C54	C	1.184399	-0.623245	1.021870
C55	C	1.216679	-0.601361	1.168785
C56	C	1.280639	-0.557983	1.132753
C57	C	1.296480	-0.547241	1.041284
C58	C	1.248362	-0.579872	0.985838
C59	C	1.200834	-0.612104	1.260263
C60	C	1.312919	-0.536098	1.279668
C61	C	1.328757	-0.525352	1.188198
C62	C	1.232097	-0.590905	1.413054
C63	C	1.248956	-0.579472	1.315700
H64	H	0.841684	-0.659950	0.684447
H65	H	1.338183	-1.070589	0.612213
N66	N	0.794926	-0.718114	0.744660
N67	N	0.827108	-0.773145	0.801630
H68	H	0.893103	-0.784160	0.813030
H69	H	1.337636	-1.198075	0.611752
N70	N	1.362060	-0.502749	1.336292
N71	N	1.358050	-0.432252	1.325100
H72	H	1.392754	-0.408701	1.365096
H73	H	1.145083	-1.066892	0.780969
H74	H	1.033149	-0.725819	0.957315
N75	N	0.444443	-0.548401	0.568984
N76	N	0.412257	-0.493369	0.512018
H77	H	0.346260	-0.482348	0.500629
H78	H	0.675408	-0.799079	0.828486
N79	N	1.282967	-1.216907	0.776825
N80	N	1.338423	-1.182937	0.804630
H81	H	1.395379	-1.212683	0.832757
H82	H	1.091695	-0.686119	1.223859
H83	H	1.146253	-1.193820	0.781185
H84	H	0.509442	-0.771394	0.799829
H85	H	0.563963	-0.467447	0.485141
H86	H	0.710851	-0.436321	0.452932
N87	N	1.281353	-1.079140	0.777358
N88	N	1.331569	-1.038188	0.734932
H89	H	1.387798	-1.031155	0.763234
N90	N	1.090021	-1.154359	0.513095
N91	N	1.145059	-1.200196	0.478604
H92	H	1.135069	-1.209133	0.416509
N93	N	1.267474	-1.038137	0.495441
N94	N	1.328172	-1.002827	0.465010
H95	H	1.324802	-0.974787	0.401972
N96	N	0.888323	-0.454396	0.471626
N97	N	0.969999	-0.468024	0.485735
H98	H	1.009996	-0.434578	0.451098
N99	N	1.361828	-0.502943	1.004493
N100	N	1.404788	-0.473815	1.054002
H101	H	1.450943	-0.442530	1.028021
N102	N	1.267567	-1.175918	0.494997
N103	N	1.201363	-1.145286	0.448326
H104	H	1.198208	-1.154136	0.385124
N105	N	1.096115	-1.016507	0.509713
N106	N	1.154140	-0.979103	0.476761
H107	H	1.147871	-0.951284	0.413677
N108	N	0.991147	-0.754311	1.130715
N109	N	0.912093	-0.734718	1.106525
H110	H	0.865952	-0.766020	1.132497
H111	H	1.044063	-1.031054	0.635688
N112	N	1.030353	-1.163904	0.652129
N113	N	1.042805	-1.216111	0.717493
H114	H	0.990670	-1.231791	0.753597
N115	N	1.135487	-0.656396	1.297050
N116	N	1.056437	-0.636781	1.272855
H117	H	1.010278	-0.668061	1.298835
H118	H	1.261249	-0.571119	0.911354
H119	H	1.380833	-0.490033	1.158847
