data_functionalizedCrystal
_audit_creation_method	'MofGen! by Chris Wilmer'
_symmetry_space_group_name_H-M	'P1'
_symmetry_Int_Tables_number	1
_symmetry_cell_setting	triclinic
loop_
_symmetry_equiv_pos_as_xyz
  x,y,z
_cell_length_a	14.044220
_cell_length_b	14.044190
_cell_length_c	13.101018
_cell_angle_alpha	86.339369
_cell_angle_beta	93.664297
_cell_angle_gamma	93.190328
loop_
_atom_site_label
_atom_site_type_symbol
_atom_site_fract_x
_atom_site_fract_y
_atom_site_fract_z
O1	O	1.281981	0.225353	0.085126
O2	O	1.005311	0.217046	0.085151
O3	O	1.139489	0.082864	0.085119
O4	O	1.147804	0.359534	0.085158
O5	O	1.129850	0.092500	-0.085309
O6	O	0.995673	0.226681	-0.085277
O7	O	1.272343	0.234988	-0.085302
Zn8	Zn	1.132478	0.232365	-0.112349
Zn9	Zn	1.145177	0.219669	0.112197
O10	O	1.138165	0.369170	-0.085270
C11	C	0.964870	0.218228	-0.000060
C12	C	0.858728	0.207382	-0.000051
C13	C	0.664388	0.187557	-0.000075
C14	C	0.613261	0.264472	-0.000068
C15	C	0.505123	0.253441	-0.000081
C16	C	0.772535	0.198587	-0.000062
C17	C	1.131033	0.052060	-0.000098
C18	C	1.120185	-0.054083	-0.000106
C19	C	1.177288	-0.299543	-0.000071
C20	C	1.100371	-0.248418	-0.000071
C21	C	1.111398	-0.140280	-0.000091
C22	C	1.166262	-0.407691	-0.000052
C23	C	1.312784	0.233806	-0.000089
C24	C	1.418927	0.244651	-0.000091
C25	C	1.146621	0.399974	-0.000051
C26	C	1.157470	0.506116	-0.000036
N27	N	1.123818	0.241029	-0.265596
C28	C	1.165620	0.199206	-0.525515
C29	C	1.112044	0.252818	-0.474630
C30	C	1.118597	0.246257	-0.358312
C31	C	1.159069	0.205766	-0.641843
N32	N	1.153843	0.210998	0.265444
H33	H	0.626948	0.113431	-0.000091
O34	O	1.011873	-0.292966	-0.000199
C35	C	0.856785	-0.311917	-0.088524
C36	C	0.956961	-0.261376	-0.088490
H37	H	0.812367	-0.286411	-0.159910
H38	H	0.820296	-0.294382	-0.017253
H39	H	0.863559	-0.392435	-0.088465
H40	H	0.950272	-0.180847	-0.088586
H41	H	0.993414	-0.278989	-0.159755
H42	H	0.650703	0.338605	-0.000052
H43	H	1.251413	-0.262101	-0.000088
O44	O	1.051535	0.313440	-0.527024
C45	C	0.989689	0.375269	-0.692414
C46	C	1.058264	0.306592	-0.633201
H47	H	0.995091	0.369740	-0.778269
H48	H	1.009812	0.451643	-0.671460
H49	H	0.913338	0.355215	-0.671340
H50	H	1.134636	0.326558	-0.654244
H51	H	1.038059	0.230235	-0.654161
O52	O	1.226213	0.138677	-0.473123
C53	C	1.288026	0.076834	-0.307724
C54	C	1.219369	0.145422	-0.366947
H55	H	1.282502	0.082250	-0.221871
H56	H	1.364405	0.096931	-0.328676
H57	H	1.267950	0.000485	-0.328794
H58	H	1.239358	0.221794	-0.345909
H59	H	1.143008	0.125243	-0.345990
