data_functionalizedCrystal
_audit_creation_method	'MofGen! by Chris Wilmer'
_symmetry_space_group_name_H-M	'P1'
_symmetry_Int_Tables_number	1
_symmetry_cell_setting	triclinic
loop_
_symmetry_equiv_pos_as_xyz
  x,y,z
_cell_length_a	16.109301
_cell_length_b	14.044190
_cell_length_c	14.586319
_cell_angle_alpha	89.991348
_cell_angle_beta	89.999213
_cell_angle_gamma	88.326629
loop_
_atom_site_label
_atom_site_type_symbol
_atom_site_fract_x
_atom_site_fract_y
_atom_site_fract_z
O1	O	1.112198	0.121835	-0.076192
O2	O	1.362198	0.371835	0.173808
O3	O	1.612198	0.621835	0.423808
O4	O	1.862198	0.871835	0.673808
O5	O	0.871264	0.136997	-0.076208
O6	O	1.121264	0.386997	0.173792
O7	O	1.371264	0.636997	0.423792
O8	O	1.621264	0.886997	0.673792
O9	O	0.988112	-0.008568	-0.076183
O10	O	1.238112	0.241432	0.173817
O11	O	1.488112	0.491432	0.423817
O12	O	1.738112	0.741432	0.673817
O13	O	0.995351	0.267399	-0.076218
O14	O	1.245351	0.517399	0.173782
O15	O	1.495351	0.767399	0.423782
O16	O	1.745351	1.017399	0.673782
O17	O	0.988103	-0.008570	0.076298
O18	O	1.238103	0.241430	0.326298
O19	O	1.488103	0.491430	0.576298
O20	O	1.738103	0.741430	0.826298
O21	O	0.871255	0.136995	0.076273
O22	O	1.121255	0.386995	0.326273
O23	O	1.371255	0.636995	0.576273
O24	O	1.621255	0.886995	0.826273
O25	O	1.112189	0.121833	0.076288
O26	O	1.362189	0.371833	0.326288
O27	O	1.612189	0.621833	0.576288
O28	O	1.862189	0.871833	0.826288
Cu29	Cu	0.991721	0.129413	0.090203
Cu30	Cu	1.241721	0.379413	0.340203
Cu31	Cu	1.491721	0.629413	0.590203
Cu32	Cu	1.741721	0.879413	0.840203
Cu33	Cu	0.991732	0.129416	-0.090123
Cu34	Cu	1.241732	0.379416	0.159877
Cu35	Cu	1.491732	0.629416	0.409877
Cu36	Cu	1.741732	0.879416	0.659877
O37	O	0.995342	0.267397	0.076263
O38	O	1.245342	0.517397	0.326263
O39	O	1.495342	0.767397	0.576263
O40	O	1.745342	1.017397	0.826263
C41	C	0.840239	0.136382	0.000030
C42	C	1.090239	0.386382	0.250030
C43	C	1.340239	0.636382	0.500030
C44	C	1.590239	0.886382	0.750030
C45	C	0.747807	0.134540	0.000025
C46	C	0.997807	0.384540	0.250025
C47	C	1.247807	0.634540	0.500025
C48	C	1.497807	0.884540	0.750025
C49	C	0.984940	-0.043882	0.000060
C50	C	1.234940	0.206118	0.250060
C51	C	1.484940	0.456118	0.500060
C52	C	1.734940	0.706118	0.750060
C53	C	0.975494	-0.149105	0.000068
C54	C	1.225494	0.100895	0.250068
C55	C	1.475494	0.350895	0.500068
C56	C	1.725494	0.600895	0.750068
C57	C	0.531644	0.216634	0.000025
C58	C	0.781644	0.466634	0.250025
C59	C	1.031644	0.716634	0.500025
C60	C	1.281644	0.966634	0.750025
C61	C	0.444795	0.214896	0.000031
C62	C	0.694795	0.464896	0.250031
C63	C	0.944795	0.714896	0.500031
C64	C	1.194795	0.964896	0.750031
C65	C	0.451816	0.042189	0.000050
C66	C	0.701816	0.292189	0.250050
C67	C	0.951816	0.542189	0.500050
C68	C	1.201816	0.792189	0.750050
C69	C	0.538664	0.043927	0.000050
C70	C	0.788664	0.293927	0.250050
C71	C	1.038664	0.543927	0.500050
C72	C	1.288664	0.793927	0.750050
C73	C	0.578576	0.131153	0.000033
C74	C	0.828576	0.381153	0.250033
C75	C	1.078576	0.631153	0.500033
C76	C	1.328576	0.881153	0.750033
C77	C	0.404878	0.127677	0.000039
C78	C	0.654878	0.377677	0.250039
C79	C	0.904878	0.627677	0.500039
C80	C	1.154878	0.877677	0.750039
C81	C	0.310712	0.125792	0.000045
C82	C	0.560712	0.375792	0.250045
C83	C	0.810712	0.625792	0.500045
C84	C	1.060712	0.875792	0.750045
C85	C	0.672748	0.133038	0.000028
C86	C	0.922748	0.383038	0.250028
C87	C	1.172748	0.633038	0.500028
C88	C	1.422748	0.883038	0.750028
C89	C	1.025219	-0.399407	0.000035
C90	C	1.275219	-0.149407	0.250035
C91	C	1.525219	0.100593	0.500035
C92	C	1.775219	0.350593	0.750035
C93	C	0.958238	-0.341758	0.000037
C94	C	1.208238	-0.091758	0.250037
C95	C	1.458238	0.158242	0.500037
C96	C	1.708238	0.408242	0.750037
C97	C	0.967842	-0.234556	0.000054
C98	C	1.217842	0.015444	0.250054
C99	C	1.467842	0.265444	0.500054
C100	C	1.717842	0.515444	0.750054
C101	C	1.015617	-0.506619	0.000018
C102	C	1.265617	-0.256619	0.250018
C103	C	1.515617	-0.006619	0.500018
C104	C	1.765617	0.243381	0.750018
C105	C	1.143214	0.122448	0.000048
C106	C	1.393214	0.372448	0.250048
C107	C	1.643214	0.622448	0.500048
C108	C	1.893214	0.872448	0.750048
C109	C	1.235646	0.124289	0.000047
C110	C	1.485646	0.374289	0.250047
C111	C	1.735646	0.624289	0.500047
C112	C	1.985646	0.874289	0.750047
C113	C	0.998513	0.302712	0.000018
C114	C	1.248513	0.552712	0.250018
C115	C	1.498513	0.802712	0.500018
C116	C	1.748513	1.052712	0.750018
C117	C	1.007959	0.407935	0.000004
C118	C	1.257959	0.657935	0.250004
C119	C	1.507959	0.907935	0.500004
C120	C	1.757959	1.157935	0.750004
N121	N	0.991720	0.129411	0.217035
N122	N	1.241720	0.379411	0.467035
N123	N	1.491720	0.629411	0.717035
N124	N	1.741720	0.879411	0.967035
N125	N	0.991740	0.129411	-0.216955
N126	N	1.241740	0.379411	0.033045
N127	N	1.491740	0.629411	0.283045
N128	N	1.741740	0.879411	0.533045
C129	C	1.043480	0.064977	0.452053
C130	C	1.293480	0.314977	0.702053
C131	C	1.543480	0.564977	0.952053
C132	C	1.793480	0.814977	1.202053
C133	C	1.043482	0.064974	0.548034
C134	C	1.293482	0.314974	0.798034
C135	C	1.543482	0.564974	1.048034
C136	C	1.793482	0.814974	1.298034
C137	C	0.939974	0.193848	0.548021
C138	C	1.189974	0.443848	0.798021
C139	C	1.439974	0.693848	1.048021
C140	C	1.689974	0.943848	1.298021
C141	C	0.939968	0.193845	0.452041
C142	C	1.189968	0.443845	0.702041
C143	C	1.439968	0.693845	0.952041
C144	C	1.689968	0.943845	1.202041
C145	C	0.991726	0.129411	0.404060
C146	C	1.241726	0.379411	0.654060
C147	C	1.491726	0.629411	0.904060
C148	C	1.741726	0.879411	1.154060
C149	C	0.991734	0.129411	0.596020
C150	C	1.241734	0.379411	0.846020
C151	C	1.491734	0.629411	1.096020
C152	C	1.741734	0.879411	1.346020
C153	C	0.991736	0.129409	0.700088
C154	C	1.241736	0.379409	0.950088
C155	C	1.491736	0.629409	1.200088
C156	C	1.741736	0.879409	1.450088
C157	C	0.991723	0.129411	0.299986
C158	C	1.241723	0.379411	0.549986
C159	C	1.491723	0.629411	0.799986
C160	C	1.741723	0.879411	1.049986
H161	H	0.564138	0.287658	0.000018
H162	H	0.814138	0.537658	0.250018
H163	H	1.064138	0.787658	0.500018
H164	H	1.314138	1.037658	0.750018
H165	H	0.576877	-0.025686	0.000059
H166	H	0.826877	0.224314	0.250059
H167	H	1.076877	0.474314	0.500059
H168	H	1.326877	0.724314	0.750059
H169	H	0.897819	0.246316	0.412963
H170	H	1.147819	0.496316	0.662963
H171	H	1.397819	0.746316	0.912963
H172	H	1.647819	0.996316	1.162963
H173	H	0.406587	0.284504	0.000027
H174	H	0.656587	0.534504	0.250027
H175	H	0.906587	0.784504	0.500027
H176	H	1.156587	1.034504	0.750027
H177	H	0.419309	-0.028827	0.000069
H178	H	0.669309	0.221173	0.250069
H179	H	0.919309	0.471173	0.500069
H180	H	1.169309	0.721173	0.750069
H181	H	1.085625	0.012505	0.587107
H182	H	1.335625	0.262505	0.837107
H183	H	1.585625	0.512505	1.087107
H184	H	1.835625	0.762505	1.337107
H185	H	1.089771	-0.368254	0.000049
H186	H	1.339771	-0.118254	0.250049
H187	H	1.589771	0.131746	0.500049
H188	H	1.839771	0.381746	0.750049
H189	H	0.893681	-0.372913	0.000028
H190	H	1.143681	-0.122913	0.250028
H191	H	1.393681	0.127087	0.500028
H192	H	1.643681	0.377087	0.750028
Br193	Br	0.869735	0.281294	0.613141
Br194	Br	1.119735	0.531294	0.863141
Br195	Br	1.369735	0.781294	1.113141
Br196	Br	1.619735	1.031294	1.363141
H197	H	1.085624	0.012509	0.412988
H198	H	1.335624	0.262509	0.662988
H199	H	1.585624	0.512509	0.912988
H200	H	1.835624	0.762509	1.162988
