data_functionalizedCrystal
_audit_creation_method	'MofGen! by Chris Wilmer'
_symmetry_space_group_name_H-M	'P1'
_symmetry_Int_Tables_number	1
_symmetry_cell_setting	triclinic
loop_
_symmetry_equiv_pos_as_xyz
  x,y,z
_cell_length_a	21.295417
_cell_length_b	19.077105
_cell_length_c	19.076919
_cell_angle_alpha	89.923776
_cell_angle_beta	92.267699
_cell_angle_gamma	92.274090
loop_
_atom_site_label
_atom_site_type_symbol
_atom_site_fract_x
_atom_site_fract_y
_atom_site_fract_z
Zn1	Zn	-0.304535	-1.058240	-0.440394
Zn2	Zn	0.195465	-0.558240	0.059606
Zn3	Zn	-0.405748	-1.062870	-0.322879
Zn4	Zn	0.094252	-0.562870	0.177121
Zn5	Zn	-0.296102	-0.945459	-0.318188
Zn6	Zn	0.203898	-0.445459	0.181812
Zn7	Zn	-0.405368	-0.940692	-0.435631
Zn8	Zn	0.094632	-0.440692	0.064369
O9	O	-0.352938	-1.001815	-0.379273
O10	O	0.147062	-0.501815	0.120727
O11	O	-0.321649	-1.157186	-0.428761
O12	O	0.178351	-0.657186	0.071239
O13	O	-0.387833	-1.051228	-0.223925
O14	O	0.112167	-0.551228	0.276075
O15	O	-0.209135	-0.960477	-0.334428
O16	O	0.290865	-0.460477	0.165572
O17	O	-0.396010	-1.160587	-0.342424
O18	O	0.103990	-0.660587	0.157576
O19	O	-0.215330	-1.043337	-0.424212
O20	O	0.284670	-0.543337	0.075788
O21	O	-0.307277	-0.964966	-0.220479
O22	O	0.192723	-0.464966	0.279521
O23	O	-0.306909	-0.846495	-0.329811
O24	O	0.193091	-0.346495	0.170189
O25	O	-0.395363	-0.952352	-0.534594
O26	O	0.104637	-0.452352	-0.034594
O27	O	-0.387186	-0.842993	-0.416096
O28	O	0.112814	-0.342993	0.083904
O29	O	-0.321281	-1.038714	-0.538093
O30	O	0.178719	-0.538714	-0.038093
O31	O	-0.493784	-1.046605	-0.337806
O32	O	0.006216	-0.546605	0.162194
O33	O	-0.493505	-0.956842	-0.420645
O34	O	0.006495	-0.456842	0.079355
C35	C	-0.346091	-0.819248	-0.371928
C36	C	0.153909	-0.319248	0.128072
C37	C	-0.343178	-0.741144	-0.368802
C38	C	0.156822	-0.241144	0.131198
C39	C	-0.516485	-1.001727	-0.379234
C40	C	-0.016485	-0.501727	0.120766
C41	C	-0.586455	-1.001753	-0.379243
C42	C	-0.086455	-0.501753	0.120757
C43	C	-0.359220	-0.994485	-0.562552
C44	C	0.140780	-0.494485	-0.062552
C45	C	-0.361897	-0.991361	-0.640655
C46	C	0.138103	-0.491361	-0.140655
C47	C	-0.622490	-1.044871	-0.426025
C48	C	-0.122490	-0.544871	0.073975
C49	C	-0.688234	-1.044895	-0.426043
C50	C	-0.188234	-0.544895	0.073957
C51	C	-0.717940	-1.001809	-0.379267
C52	C	-0.217940	-0.501809	0.120733
C53	C	-0.681896	-0.958682	-0.332482
C54	C	-0.181896	-0.458682	0.167518
C55	C	-0.616153	-0.958654	-0.332470
C56	C	-0.116153	-0.458654	0.167530
N57	N	-0.818882	-0.998975	-0.317559
N58	N	-0.318882	-0.498975	0.182441
N59	N	-0.881335	-0.999006	-0.317573
N60	N	-0.381335	-0.499006	0.182427
C61	C	-0.916019	-1.001890	-0.379302
C62	C	-0.416019	-0.501890	0.120698
N63	N	-0.885891	-1.004755	-0.441020
N64	N	-0.385891	-0.504755	0.058980
N65	N	-0.823432	-1.004728	-0.441005
N66	N	-0.323432	-0.504728	0.058995
C67	C	-0.789227	-1.001834	-0.379276
C68	C	-0.289227	-0.501834	0.120724
C69	C	-1.023342	-1.045036	-0.426108
C70	C	-0.523342	-0.545036	0.073892
C71	C	-1.089087	-1.045055	-0.426127
C72	C	-0.589087	-0.545055	0.073873
C73	C	-1.082748	-0.958846	-0.332560
C74	C	-0.582748	-0.458846	0.167440
C75	C	-1.017004	-0.958823	-0.332547
C76	C	-0.517004	-0.458823	0.167453
C77	C	-0.987305	-1.001922	-0.379320
C78	C	-0.487305	-0.501922	0.120680
C79	C	-0.188754	-1.001922	-0.379328
C80	C	0.311246	-0.501922	0.120672
C81	C	-0.118788	-1.001968	-0.379352
C82	C	0.381212	-0.501968	0.120648
C83	C	-0.359812	-1.185096	-0.386647
C84	C	0.140188	-0.685096	0.113353
C85	C	-0.362742	-1.263199	-0.389789
C86	C	0.137258	-0.763199	0.110211
C87	C	-0.383664	-0.702648	-0.412187
C88	C	0.116336	-0.202648	0.087813
C89	C	-0.380918	-0.629261	-0.409254
C90	C	0.119082	-0.129261	0.090746
C91	C	-0.337690	-0.594371	-0.362931
C92	C	0.162310	-0.094371	0.137069
C93	C	-0.297200	-0.632872	-0.319544
C94	C	0.202800	-0.132872	0.180456
C95	C	-0.299943	-0.706257	-0.322482
C96	C	0.200057	-0.206257	0.177518
C97	C	-0.324995	-0.375085	-0.349340
C98	C	0.175005	0.124915	0.150660
C99	C	-0.322256	-0.301694	-0.346404
C100	C	0.177744	0.198306	0.153596
C101	C	-0.405974	-0.298089	-0.436115
C102	C	0.094026	0.201911	0.063885
C103	C	-0.408716	-0.371476	-0.439045
C104	C	0.091284	0.128524	0.060955
C105	C	-0.368224	-0.409970	-0.395661
C106	C	0.131776	0.090030	0.104339
N107	N	-0.334883	-0.519358	-0.359930
N108	N	0.165117	-0.019358	0.140070
N109	N	-0.371027	-0.484982	-0.398666
N110	N	0.128973	0.015018	0.101334
C111	C	-0.324586	-1.034856	-0.679171
C112	C	0.175414	-0.534856	-0.179171
C113	C	-0.327098	-1.031912	-0.752557
C114	C	0.172902	-0.531912	-0.252557
C115	C	-0.366926	-0.985477	-0.787425
C116	C	0.133074	-0.485477	-0.287425
C117	C	-0.404238	-0.941978	-0.748904
C118	C	0.095762	-0.441978	-0.248904
C119	C	-0.401722	-0.944919	-0.675520
C120	C	0.098278	-0.444919	-0.175520
C121	C	-0.378584	-0.971858	-1.006706
C122	C	0.121416	-0.471858	-0.506706
C123	C	-0.381099	-0.968923	-1.080095
C124	C	0.118901	-0.468923	-0.580095
C125	C	-0.303958	-1.058856	-1.083742
C126	C	0.196042	-0.558856	-0.583742
C127	C	-0.301448	-1.061795	-1.010356
C128	C	0.198552	-0.561795	-0.510356
C129	C	-0.338758	-1.018294	-0.971842
C130	C	0.161242	-0.518294	-0.471842
N131	N	-0.369496	-0.982469	-0.862437
N132	N	0.130504	-0.482469	-0.362437
N133	N	-0.336184	-1.021299	-0.896831
N134	N	0.163816	-0.521299	-0.396831
C135	C	-0.346637	-1.009157	-0.196708
C136	C	0.153363	-0.509157	0.303292
C137	C	-0.343788	-1.012417	-0.118611
C138	C	0.156212	-0.512417	0.381389
H139	H	-0.717580	-1.080001	-0.464146
H140	H	-0.217580	-0.580001	0.035854
H141	H	-1.106933	-0.923760	-0.294479
H142	H	-0.606933	-0.423760	0.205521
C143	C	-0.589825	-1.092277	-0.477473
C144	C	-0.089825	-0.592277	0.022527
H145	H	-0.620706	-1.117958	-0.505340
H146	H	-0.120706	-0.617958	-0.005340
H147	H	-0.564391	-1.123976	-0.451843
H148	H	-0.064391	-0.623976	0.048157
H149	H	-0.564231	-1.064138	-0.506987
H150	H	-0.064231	-0.564138	-0.006987
H151	H	-0.432098	-0.909494	-0.644161
H152	H	0.067902	-0.409494	-0.144161
C153	C	-0.419627	-0.924015	-0.964346
C154	C	0.080373	-0.424015	-0.464346
H155	H	-0.412422	-0.932408	-0.915646
H156	H	0.087578	-0.432408	-0.415646
H157	H	-0.462718	-0.933790	-0.976772
H158	H	0.037282	-0.433790	-0.476772
H159	H	-0.409052	-0.876324	-0.974476
H160	H	0.090948	-0.376324	-0.474476
H161	H	-0.436664	-0.904167	-0.777300
H162	H	0.063336	-0.404167	-0.277300
H163	H	-0.706087	-0.923599	-0.294399
H164	H	-0.206087	-0.423599	0.205601
C165	C	-0.286074	-1.079772	-0.794925
C166	C	0.213926	-0.579772	-0.294925
H167	H	-0.293274	-1.071371	-0.843624
H168	H	0.206726	-0.571371	-0.343624
H169	H	-0.296660	-1.127455	-0.784791
H170	H	0.203340	-0.627455	-0.284791
H171	H	-0.242976	-1.070011	-0.782505
H172	H	0.257024	-0.570011	-0.282505
H173	H	-0.586812	-0.923541	-0.294374
H174	H	-0.086812	-0.423541	0.205626
C175	C	-1.128729	-1.092487	-0.477588
C176	C	-0.628729	-0.592487	0.022412
H177	H	-1.172137	-1.086327	-0.470902
H178	H	-0.672137	-0.586327	0.029098
H179	H	-1.119339	-1.140113	-0.469235
H180	H	-0.619339	-0.640113	0.030765
H181	H	-1.119176	-1.080274	-0.524378
H182	H	-0.619176	-0.580274	-0.024378
C183	C	-0.424909	-0.917840	-1.118450
C184	C	0.075091	-0.417840	-0.618450
H185	H	-0.446766	-0.892348	-1.085002
H186	H	0.053234	-0.392348	-0.585002
H187	H	-0.454326	-0.943555	-1.148149
H188	H	0.045674	-0.443555	-0.648149
H189	H	-0.400657	-0.886094	-1.145853
H190	H	0.099343	-0.386094	-0.645853
H191	H	-0.273581	-1.094272	-1.115109
H192	H	0.226419	-0.594272	-0.615109
C193	C	-0.977363	-0.911401	-0.281078
C194	C	-0.477363	-0.411401	0.218922
H195	H	-1.004468	-0.885748	-0.253218
H196	H	-0.504468	-0.385748	0.246782
H197	H	-0.951502	-0.879678	-0.306692
H198	H	-0.451502	-0.379678	0.193308
H199	H	-0.951668	-0.939526	-0.251560
H200	H	-0.451668	-0.439526	0.248440
C201	C	-0.280466	-0.417420	-0.301607
C202	C	0.219534	0.082580	0.198393
H203	H	-0.254336	-0.386129	-0.273592
H204	H	0.245664	0.113871	0.226408
H205	H	-0.255065	-0.444994	-0.329680
H206	H	0.244935	0.055006	0.170320
H207	H	-0.304530	-0.447251	-0.272085
H208	H	0.195470	0.052749	0.227915
C209	C	-0.257635	-1.112868	-0.972002
C210	C	0.242365	-0.612868	-0.472002
H211	H	-0.261484	-1.108393	-0.922781
H212	H	0.238516	-0.608393	-0.422781
H213	H	-0.215368	-1.102130	-0.983629
H214	H	0.284632	-0.602130	-0.483629
H215	H	-0.269033	-1.159596	-0.985927
H216	H	0.230967	-0.659596	-0.485927
C217	C	-0.990670	-1.092419	-0.477575
C218	C	-0.490670	-0.592419	0.022425
H219	H	-1.021551	-1.118091	-0.505452
H220	H	-0.521551	-0.618091	-0.005452
H221	H	-0.965231	-1.124127	-0.451964
H222	H	-0.465231	-0.624127	0.048036
H223	H	-0.965081	-1.064261	-0.507078
H224	H	-0.465081	-0.564261	-0.007078
C225	C	-0.249651	-0.594495	-0.268588
C226	C	0.250349	-0.094495	0.231412
H227	H	-0.253820	-0.545276	-0.273046
H228	H	0.246180	-0.045276	0.226954
H229	H	-0.208175	-0.606129	-0.279438
H230	H	0.291825	-0.106129	0.220562
H231	H	-0.257634	-0.608399	-0.221837
H232	H	0.242366	-0.108399	0.278163
C233	C	-0.456264	-0.409849	-0.490005
C234	C	0.043736	0.090151	0.009995
H235	H	-0.479979	-0.376411	-0.515428
H236	H	0.020021	0.123589	-0.015428
H237	H	-0.483800	-0.439536	-0.464216
H238	H	0.016200	0.060464	0.035784
H239	H	-0.434342	-0.437267	-0.521819
H240	H	0.065658	0.062733	-0.021819
H241	H	-0.418867	-0.731050	-0.449906
H242	H	0.081133	-0.231050	0.050094
H243	H	-0.413886	-0.597921	-0.444582
H244	H	0.086114	-0.097921	0.055418
C245	C	-0.450506	-0.255744	-0.483840
C246	C	0.049494	0.244256	0.016160
H247	H	-0.442679	-0.207041	-0.475462
H248	H	0.057321	0.292959	0.024538
H249	H	-0.492880	-0.268161	-0.473954
H250	H	0.007120	0.231839	0.026046
H251	H	-0.443420	-0.265898	-0.531554
H252	H	0.056580	0.234102	-0.031554
C253	C	-0.274699	-0.263316	-0.295452
C254	C	0.225301	0.236684	0.204548
H255	H	-0.250971	-0.296752	-0.270039
H256	H	0.249029	0.203248	0.229961
H257	H	-0.296612	-0.235897	-0.263638
H258	H	0.203388	0.264103	0.236362
H259	H	-0.247165	-0.233631	-0.321252
H260	H	0.252835	0.266369	0.178748
H261	H	-0.292156	-1.072670	-0.650786
H262	H	0.207844	-0.572670	-0.150786
C263	C	-0.255407	-0.748603	-0.274760
C264	C	0.244593	-0.248603	0.225240
H265	H	-0.229272	-0.717314	-0.246747
H266	H	0.270728	-0.217314	0.253253
H267	H	-0.230013	-0.776171	-0.302845
H268	H	0.269987	-0.276171	0.197155
H269	H	-0.279464	-0.778439	-0.245235
H270	H	0.220536	-0.278439	0.254765
