data_functionalizedCrystal
_audit_creation_method	'MofGen! by Chris Wilmer'
_symmetry_space_group_name_H-M	'P1'
_symmetry_Int_Tables_number	1
_symmetry_cell_setting	triclinic
loop_
_symmetry_equiv_pos_as_xyz
  x,y,z
_cell_length_a	29.839131
_cell_length_b	13.032831
_cell_length_c	13.033109
_cell_angle_alpha	103.334486
_cell_angle_beta	97.151620
_cell_angle_gamma	97.154634
loop_
_atom_site_label
_atom_site_type_symbol
_atom_site_fract_x
_atom_site_fract_y
_atom_site_fract_z
Zn1	Zn	-0.315802	-1.699796	-0.806302
Zn2	Zn	-0.379995	-1.677064	-0.628664
Zn3	Zn	-0.293953	-1.499642	-0.606203
Zn4	Zn	-0.379955	-1.522079	-0.783708
O5	O	-0.342426	-1.599645	-0.706219
O6	O	-0.333478	-1.845408	-0.801594
O7	O	-0.359454	-1.634625	-0.477056
O8	O	-0.233994	-1.526317	-0.632802
O9	O	-0.380640	-1.828706	-0.671084
O10	O	-0.250047	-1.673369	-0.779815
O11	O	-0.296239	-1.504274	-0.460554
O12	O	-0.296200	-1.353992	-0.610893
O13	O	-0.380573	-1.564557	-0.935334
O14	O	-0.359386	-1.370476	-0.741306
O15	O	-0.333440	-1.695125	-0.951934
O16	O	-0.442847	-1.656381	-0.649175
O17	O	-0.442818	-1.542514	-0.763085
C18	C	-0.459134	-1.599447	-0.706142
C19	C	-0.509070	-1.599464	-0.706157
C20	C	-0.325418	-1.323696	-0.671211
C21	C	-0.318155	-1.205647	-0.656260
C22	C	-0.359439	-1.634879	-0.983249
C23	C	-0.366689	-1.649894	-1.101303
C24	C	-0.818743	-1.659072	-0.647021
C25	C	-1.006427	-1.659208	-0.647079
O26	O	-1.030705	-1.709732	-0.596740
N27	N	-1.029887	-1.599876	-0.706327
C28	C	-1.006424	-1.540510	-0.765571
O29	O	-1.030686	-1.490056	-0.815975
C30	C	-0.818742	-1.540381	-0.765518
C31	C	-0.795283	-1.599709	-0.706258
C32	C	-0.795284	-1.718396	-0.587766
C33	C	-0.748366	-1.718357	-0.587748
C34	C	-0.724906	-1.658993	-0.646984
C35	C	-0.748364	-1.599669	-0.706239
C36	C	-0.795280	-1.481022	-0.824767
C37	C	-0.748357	-1.480997	-0.824751
C38	C	-0.724898	-1.540325	-0.765490
C39	C	-0.677986	-1.540267	-0.765457
N40	N	-0.654526	-1.599599	-0.706209
C41	C	-0.677985	-1.658963	-0.646972
C42	C	-1.104960	-1.540581	-0.765593
C43	C	-1.151880	-1.540612	-0.765604
C44	C	-1.151879	-1.659311	-0.647114
C45	C	-1.104958	-1.659274	-0.647097
C46	C	-1.081499	-1.599913	-0.706344
C47	C	-0.579453	-1.658875	-0.646937
C48	C	-0.532530	-1.658827	-0.646921
C49	C	-0.532535	-1.540132	-0.765415
C50	C	-0.579453	-1.540175	-0.765428
C51	C	-0.602912	-1.599555	-0.706187
O52	O	-0.653680	-1.489779	-0.815780
O53	O	-0.653718	-1.709428	-0.596594
C54	C	-0.865661	-1.659111	-0.647040
C55	C	-0.889120	-1.599787	-0.706295
C56	C	-0.865660	-1.540424	-0.765531
C57	C	-0.936040	-1.599818	-0.706306
C58	C	-0.959500	-1.659181	-0.647070
C59	C	-0.936040	-1.718514	-0.587822
C60	C	-0.889121	-1.718474	-0.587803
C61	C	-0.889121	-1.481091	-0.824779
C62	C	-0.936039	-1.481135	-0.824792
C63	C	-0.959499	-1.540498	-0.765556
C64	C	-0.225266	-1.599876	-0.706323
C65	C	-0.175340	-1.599975	-0.706368
C66	C	-0.359501	-1.876672	-0.741365
C67	C	-0.366777	-1.994724	-0.756342
C68	C	-0.346217	-1.161189	-0.714022
C69	C	-0.338711	-1.039179	-0.698571
C70	C	-0.338644	-1.592093	-1.145770
C71	C	-0.346136	-1.607610	-1.267784
C72	C	-0.325451	-1.564610	-0.430275
C73	C	-0.318087	-1.549801	-0.312248
H74	H	-0.513431	-1.707138	-0.598660
F75	F	-0.723406	-1.781516	-0.524687
F76	F	-0.723394	-1.417818	-0.887815
F77	F	-0.405326	-1.729587	-1.169606
F78	F	-1.079999	-1.477396	-0.828655
F79	F	-0.820245	-1.781586	-0.524715
F80	F	-0.384775	-1.687307	-1.336084
F81	F	-1.079995	-1.722419	-0.584025
F82	F	-0.604412	-1.722073	-0.583886
F83	F	-0.279458	-1.470076	-1.243947
H84	H	-0.396360	-1.046984	-0.817245
H85	H	-0.288570	-1.153384	-0.595372
F86	F	-0.300005	-1.512405	-1.077468
F87	F	-1.176855	-1.722488	-0.584067
F88	F	-0.820238	-1.417887	-0.887852
F89	F	-1.176840	-1.477453	-0.828664
H90	H	-0.513426	-1.491795	-0.813641
F91	F	-0.604419	-1.477011	-0.828477
H92	H	-0.955149	-1.766846	-0.539586
F93	F	-0.864161	-1.781623	-0.524733
H94	H	-0.955135	-1.432813	-0.873047
H95	H	-0.870023	-1.432752	-0.873018
F96	F	-0.384886	-1.229496	-0.793612
H97	H	-0.309124	-0.986919	-0.637679
