data_functionalizedCrystal
_audit_creation_method	'MofGen! by Chris Wilmer'
_symmetry_space_group_name_H-M	'P1'
_symmetry_Int_Tables_number	1
_symmetry_cell_setting	triclinic
loop_
_symmetry_equiv_pos_as_xyz
  x,y,z
_cell_length_a	10.540539
_cell_length_b	10.654550
_cell_length_c	9.730223
_cell_angle_alpha	90.003749
_cell_angle_beta	90.000775
_cell_angle_gamma	95.494803
loop_
_atom_site_label
_atom_site_type_symbol
_atom_site_fract_x
_atom_site_fract_y
_atom_site_fract_z
O1	O	0.178295	-1.667897	-0.114396
O2	O	0.195282	-1.302424	-0.114373
O3	O	0.002079	-1.493499	-0.114383
O4	O	0.371498	-1.476822	-0.114386
O5	O	0.002084	-1.493496	0.114197
O6	O	0.195287	-1.302422	0.114207
O7	O	0.178300	-1.667895	0.114184
Zn8	Zn	0.186794	-1.485158	0.150487
Zn9	Zn	0.186788	-1.485161	-0.150677
O10	O	0.371503	-1.476820	0.114194
C11	C	-0.045221	-1.492247	-0.000096
C12	C	-0.186168	-1.488505	-0.000103
C13	C	0.194038	-1.255625	-0.000080
C14	C	0.190306	-1.116180	-0.000072
C15	C	0.179545	-1.714694	-0.000112
C16	C	0.183276	-1.854139	-0.000129
C17	C	-0.369543	-1.345134	-0.000607
C18	C	-0.222926	-1.348927	-0.000093
C19	C	-0.247847	-1.555675	0.130423
C20	C	-0.394389	-1.550912	0.130533
C21	C	-0.394914	-1.553753	-0.129405
C22	C	-0.247933	-1.555039	-0.131131
C23	C	0.418803	-1.478072	-0.000096
C24	C	0.559750	-1.481813	-0.000098
N25	N	0.186798	-1.485165	0.356024
C26	C	0.304061	-1.036734	-0.000093
C27	C	0.300547	-0.905712	-0.000116
C28	C	0.069513	-0.933595	-0.000104
C29	C	0.073028	-1.064614	-0.000071
C30	C	0.421338	-1.088301	-0.000094
C31	C	0.535103	-1.008854	-0.000116
C32	C	0.531589	-0.877832	-0.000140
C33	C	0.414310	-0.826256	-0.000141
N34	N	0.186774	-1.485164	-0.356213
C35	C	0.101277	-1.569795	0.427945
C36	C	0.101261	-1.569791	0.571828
C37	C	0.272299	-1.400525	0.571855
C38	C	0.272308	-1.400523	0.427975
C39	C	0.015767	-1.654437	0.355994
C40	C	-0.069760	-1.739074	0.427916
C41	C	-0.069775	-1.739071	0.571799
C42	C	0.015736	-1.654430	0.643760
H43	H	-0.180306	-1.296074	-0.093659
H44	H	-0.398125	-1.289998	-0.094209
H45	H	0.411458	-0.719568	-0.000139
C46	C	-0.059480	-0.876864	-0.000126
H47	H	-0.045281	-0.787455	-0.000163
H48	H	-0.106373	-0.904037	0.079588
H49	H	-0.106362	-0.904087	-0.079844
H50	H	-0.205228	-1.509014	0.227563
C51	C	0.366385	-1.307439	0.348856
H52	H	0.417323	-1.257043	0.412312
H53	H	0.320230	-1.254757	0.292726
H54	H	0.419661	-1.353097	0.292732
H55	H	-0.223748	-1.656802	-0.139019
H56	H	-0.426453	-1.508579	-0.228336
H57	H	-0.181149	-1.295701	0.093636
C58	C	-0.410302	-1.270950	0.125146
H59	H	-0.470220	-1.322913	0.177961
H60	H	-0.448153	-1.198321	0.095142
H61	H	-0.337673	-1.245870	0.179938
C62	C	-0.458758	-1.689945	-0.130614
H63	H	-0.430985	-1.732941	-0.208975
H64	H	-0.548693	-1.688664	-0.133966
H65	H	-0.435963	-1.732256	-0.049641
H66	H	-0.019601	-1.129301	-0.000058
H67	H	-0.422569	-1.501268	0.228111
C68	C	-0.192609	-1.488745	-0.261582
H69	H	-0.132115	-1.420807	-0.236315
H70	H	-0.259440	-1.457301	-0.312833
H71	H	-0.152109	-1.547231	-0.316066
C72	C	0.015718	-1.654418	0.802028
H73	H	0.078890	-1.591888	0.834580
H74	H	0.033841	-1.734837	0.834581
H75	H	-0.065590	-1.636497	0.834562
C76	C	-0.459246	-1.686512	0.138551
H77	H	-0.395999	-1.744263	0.141738
H78	H	-0.511429	-1.703371	0.059844
H79	H	-0.510304	-1.695560	0.219049
C80	C	-0.217694	-1.694143	0.136987
H81	H	-0.167095	-1.712261	0.060001
H82	H	-0.294972	-1.747903	0.135775
H83	H	-0.172385	-1.707683	0.219231
H84	H	0.424213	-1.194984	-0.000081
C85	C	0.015788	-1.654442	0.197728
H86	H	0.078975	-1.591922	0.165199
H87	H	-0.065508	-1.636543	0.165160
H88	H	0.033939	-1.734867	0.165187
C89	C	0.664097	-1.065581	-0.000113
H90	H	0.649901	-1.154991	-0.000109
H91	H	0.710992	-1.038365	0.079590
H92	H	0.710975	-1.038398	-0.079842
C93	C	-0.163853	-1.832156	0.650916
H94	H	-0.151625	-1.820028	0.746911
H95	H	-0.149276	-1.916094	0.627335
H96	H	-0.248709	-1.817756	0.627323
H97	H	-0.139388	-1.807979	0.369317
H98	H	0.624221	-0.813149	-0.000144
C99	C	0.366338	-1.307410	0.651003
H100	H	0.417260	-1.256992	0.587561
H101	H	0.419614	-1.353034	0.707146
H102	H	0.320143	-1.254733	0.707115
