data_functionalizedCrystal
_audit_creation_method	'MofGen! by Chris Wilmer'
_symmetry_space_group_name_H-M	'P1'
_symmetry_Int_Tables_number	1
_symmetry_cell_setting	triclinic
loop_
_symmetry_equiv_pos_as_xyz
  x,y,z
_cell_length_a	27.732064
_cell_length_b	27.731996
_cell_length_c	16.053802
_cell_angle_alpha	92.537600
_cell_angle_beta	87.447638
_cell_angle_gamma	82.635407
loop_
_atom_site_label
_atom_site_type_symbol
_atom_site_fract_x
_atom_site_fract_y
_atom_site_fract_z
O1	O	0.642962	0.055510	-0.069290
O2	O	0.502169	0.064247	-0.069326
O3	O	0.576951	-0.010519	-0.069289
O4	O	0.568180	0.130276	-0.069327
O5	O	0.572835	-0.006421	0.069568
O6	O	0.498053	0.068345	0.069531
O7	O	0.638846	0.059609	0.069567
Zn8	Zn	0.567796	0.064628	0.091595
Zn9	Zn	0.573219	0.059228	-0.091355
O10	O	0.564064	0.134375	0.069530
C11	C	0.482104	0.066111	0.000098
C12	C	0.428450	0.065555	0.000085
C13	C	0.051385	0.017588	0.000146
C14	C	0.253045	0.019634	0.000124
O15	O	0.284304	-0.017587	0.000165
N16	N	0.272165	0.063969	0.000108
C17	C	0.240866	0.107796	0.000103
O18	O	0.261755	0.145552	0.000098
C19	C	0.039206	0.105750	0.000131
C20	C	0.020090	0.061412	0.000139
C21	C	0.032268	-0.026746	0.000154
C22	C	-0.018144	-0.027257	0.000155
C23	C	-0.049439	0.016566	0.000148
C24	C	-0.030322	0.060900	0.000140
C25	C	0.007908	0.149576	0.000133
C26	C	-0.042510	0.149061	0.000142
C27	C	-0.061626	0.104723	0.000149
C28	C	-0.112029	0.104213	0.000133
N29	N	-0.131149	0.059878	0.000149
C30	C	-0.099854	0.016054	0.000156
C31	C	0.346741	0.108867	0.000087
C32	C	0.397155	0.109378	0.000078
C33	C	0.409331	0.021216	0.000100
C34	C	0.358916	0.020705	0.000103
C35	C	0.327621	0.064532	0.000102
C36	C	-0.205723	0.014984	0.000158
C37	C	-0.256140	0.014477	0.000155
C38	C	-0.268312	0.102639	0.000138
C39	C	-0.217899	0.103146	0.000136
C40	C	-0.186606	0.059315	0.000149
O41	O	-0.143316	0.141414	0.000102
O42	O	-0.120753	-0.021696	0.000180
C43	C	0.101797	0.018099	0.000145
C44	C	0.120914	0.062434	0.000137
C45	C	0.089619	0.106257	0.000129
C46	C	0.171329	0.062945	0.000128
C47	C	0.202624	0.019122	0.000135
C48	C	0.183504	-0.025213	0.000151
C49	C	0.133092	-0.025724	0.000152
C50	C	0.108738	0.150592	0.000114
C51	C	0.159151	0.151099	0.000112
C52	C	0.190446	0.107276	0.000119
C53	C	0.574712	-0.026477	0.000142
C54	C	0.574169	-0.080133	0.000151
C55	C	0.573000	-0.415085	-0.075582
C56	C	0.570939	-0.616744	-0.075597
O57	O	0.572560	-0.644715	-0.139970
N58	N	0.568439	-0.639727	0.000093
C59	C	0.566452	-0.612292	0.075792
O60	O	0.564273	-0.636467	0.140171
C61	C	0.568509	-0.410633	0.075807
C62	C	0.571013	-0.387654	0.000112
C63	C	0.575504	-0.392105	-0.151271
C64	C	0.576021	-0.341694	-0.151266
C65	C	0.574035	-0.314262	-0.075573
C66	C	0.571531	-0.337242	0.000116
C67	C	0.566517	-0.383199	0.151505
C68	C	0.567031	-0.332781	0.151502
C69	C	0.569535	-0.309801	0.075807
C70	C	0.570063	-0.259400	0.075814
N71	N	0.572562	-0.236417	0.000124
C72	C	0.574548	-0.263848	-0.075569
C73	C	0.565373	-0.718166	0.075780
C74	C	0.564859	-0.768580	0.075776
C75	C	0.569346	-0.773029	-0.075614
C76	C	0.569863	-0.722614	-0.075609
C77	C	0.567872	-0.695182	0.000089
C78	C	0.575636	-0.157980	-0.075554
C79	C	0.576156	-0.107565	-0.075543
C80	C	0.571666	-0.103120	0.075846
C81	C	0.571149	-0.153532	0.075836
C82	C	0.573133	-0.180961	0.000129
O83	O	0.568438	-0.231398	0.140153
O84	O	0.576716	-0.239663	-0.139938
C85	C	0.572482	-0.465496	-0.075586
C86	C	0.569978	-0.488476	0.000103
C87	C	0.567992	-0.461045	0.075796
C88	C	0.569465	-0.538891	0.000099
C89	C	0.571451	-0.566322	-0.075594
C90	C	0.573950	-0.543339	-0.151284
C91	C	0.574468	-0.492928	-0.151280
C92	C	0.565492	-0.484028	0.151486
C93	C	0.564975	-0.534440	0.151475
C94	C	0.566961	-0.561871	0.075782
C95	C	0.658910	0.057744	0.000141
C96	C	0.712565	0.058301	0.000148
C97	C	0.566302	0.150333	0.000097
C98	C	0.566846	0.203989	0.000083
N99	N	0.564098	0.068313	0.216454
N100	N	0.576920	0.055539	-0.216213
C101	C	0.595929	0.036511	0.260164
C102	C	0.593347	0.039093	0.347569
C103	C	0.558936	0.073480	0.391263
C104	C	0.527102	0.105283	0.347547
C105	C	0.529682	0.102698	0.260143
C106	C	0.547666	0.084757	0.652667
C107	C	0.545089	0.087341	0.740077
C108	C	0.611335	0.021150	0.740093
C109	C	0.613914	0.018570	0.652687
C110	C	0.582077	0.050371	0.608979
N111	N	0.556297	0.076121	0.480606
N112	N	0.584715	0.047728	0.519638
H113	H	0.057744	-0.062435	0.000163
Br114	Br	0.451813	-0.038258	0.000107
H115	H	0.619266	0.013197	0.383157
H116	H	0.577249	-0.180307	-0.137202
Br117	Br	0.572040	-0.810266	-0.178340
Br118	Br	0.486477	0.145857	0.200823
Br119	Br	0.480396	0.151949	0.406843
Br120	Br	0.564328	-0.295555	0.254242
H121	H	0.517066	0.115345	0.775649
Br122	Br	0.561579	-0.565620	0.254215
H123	H	0.343355	-0.015399	0.000109
H124	H	0.641934	-0.009430	0.617113
Br125	Br	0.561472	-0.799762	0.178509
Br126	Br	-0.310793	0.162110	0.000122
H127	H	-0.202334	0.139250	0.000129
Br128	Br	0.107157	-0.085901	0.000155
Br129	Br	0.066274	0.210073	0.000101
Br130	Br	0.504462	0.127916	0.593354
H131	H	-0.180250	-0.020707	0.000168
Br132	Br	0.225986	-0.084687	0.000156
H133	H	0.623953	0.008512	0.224593
H134	H	-0.033704	-0.063362	0.000165
H135	H	0.412715	0.145482	0.000060
H136	H	0.023463	0.185681	0.000123
Br137	Br	-0.282080	-0.045700	0.000156
Br138	Br	0.304276	0.168352	0.000081
Br139	Br	0.568972	-0.065883	0.178568
H140	H	-0.067989	0.184751	0.000145
H141	H	0.578196	-0.088857	-0.137185
Br142	Br	0.185088	0.211278	0.000093
Br143	Br	0.579417	-0.310515	-0.254001
Br144	Br	0.562667	-0.680944	0.178524
H145	H	0.577119	-0.414435	-0.212913
H146	H	0.571902	-0.703907	-0.137247
H147	H	0.564479	-0.401900	0.213144
H148	H	0.637254	-0.004742	0.775688
Br149	Br	0.567762	-0.184721	0.178565
H150	H	0.575570	-0.565683	-0.212917
Br151	Br	0.562791	-0.446807	0.254224
Br152	Br	0.577868	-0.461749	-0.254015
