data_functionalizedCrystal
_audit_creation_method	'MofGen! by Chris Wilmer'
_symmetry_space_group_name_H-M	'P1'
_symmetry_Int_Tables_number	1
_symmetry_cell_setting	triclinic
loop_
_symmetry_equiv_pos_as_xyz
  x,y,z
_cell_length_a	18.050591
_cell_length_b	18.050589
_cell_length_c	18.050582
_cell_angle_alpha	90.018205
_cell_angle_beta	90.020922
_cell_angle_gamma	90.024227
loop_
_atom_site_label
_atom_site_type_symbol
_atom_site_fract_x
_atom_site_fract_y
_atom_site_fract_z
Zn1	Zn	1.135293	-0.295786	0.420054
Zn2	Zn	1.385293	-0.045786	0.670054
Zn3	Zn	1.635293	0.204214	0.920054
Zn4	Zn	1.885293	0.454214	1.170054
Zn5	Zn	1.135203	-0.419969	0.295873
Zn6	Zn	1.385203	-0.169969	0.545873
Zn7	Zn	1.635203	0.080031	0.795873
Zn8	Zn	1.885203	0.330031	1.045873
Zn9	Zn	1.011112	-0.295789	0.295865
Zn10	Zn	1.261112	-0.045789	0.545865
Zn11	Zn	1.511112	0.204211	0.795865
Zn12	Zn	1.761112	0.454211	1.045865
Zn13	Zn	1.011060	-0.419930	0.420009
Zn14	Zn	1.261060	-0.169930	0.670009
Zn15	Zn	1.511060	0.080070	0.920009
Zn16	Zn	1.761060	0.330070	1.170009
O17	O	1.073167	-0.357868	0.357950
O18	O	1.323167	-0.107868	0.607950
O19	O	1.573167	0.142132	0.857950
O20	O	1.823167	0.392132	1.107950
O21	O	1.239205	-0.312274	0.403603
O22	O	1.489205	-0.062274	0.653603
O23	O	1.739205	0.187726	0.903603
O24	O	1.989205	0.437726	1.153603
O25	O	1.118727	-0.403514	0.191948
O26	O	1.368727	-0.153514	0.441948
O27	O	1.618727	0.096486	0.691948
O28	O	1.868727	0.346486	0.941948
O29	O	1.027644	-0.191864	0.312354
O30	O	1.277644	0.058136	0.562354
O31	O	1.527644	0.308136	0.812354
O32	O	1.777644	0.558136	1.062354
O33	O	1.239140	-0.403511	0.312369
O34	O	1.489140	-0.153511	0.562369
O35	O	1.739140	0.096489	0.812369
O36	O	1.989140	0.346489	1.062369
O37	O	1.118879	-0.191862	0.403595
O38	O	1.368879	0.058138	0.653595
O39	O	1.618879	0.308138	0.903595
O40	O	1.868879	0.558138	1.153595
O41	O	1.027557	-0.312279	0.191942
O42	O	1.277557	-0.062279	0.441942
O43	O	1.527557	0.187721	0.691942
O44	O	1.777557	0.437721	0.941942
O45	O	0.907180	-0.312241	0.312311
O46	O	1.157180	-0.062241	0.562311
O47	O	1.407180	0.187759	0.812311
O48	O	1.657180	0.437759	1.062311
O49	O	1.027555	-0.403444	0.523940
O50	O	1.277555	-0.153444	0.773940
O51	O	1.527555	0.096556	1.023940
O52	O	1.777555	0.346556	1.273940
O53	O	0.907142	-0.403447	0.403519
O54	O	1.157142	-0.153447	0.653519
O55	O	1.407142	0.096553	0.903519
O56	O	1.657142	0.346553	1.153519
O57	O	1.118828	-0.312236	0.523973
O58	O	1.368828	-0.062236	0.773973
O59	O	1.618828	0.187764	1.023973
O60	O	1.868828	0.437764	1.273973
O61	O	1.118676	-0.523888	0.312325
O62	O	1.368676	-0.273888	0.562325
O63	O	1.618676	-0.023888	0.812325
O64	O	1.868676	0.226112	1.062325
O65	O	1.027468	-0.523860	0.403527
O66	O	1.277468	-0.273860	0.653527
O67	O	1.527468	-0.023860	0.903527
O68	O	1.777468	0.226140	1.153527
C69	C	0.880215	-0.357841	0.357909
C70	C	1.130215	-0.107841	0.607909
C71	C	1.380215	0.142159	0.857909
C72	C	1.630215	0.392159	1.107909
C73	C	0.797669	-0.357847	0.357909
C74	C	1.047669	-0.107847	0.607909
C75	C	1.297669	0.142153	0.857909
C76	C	1.547669	0.392153	1.107909
C77	C	0.598217	-0.308191	0.308425
C78	C	0.848217	-0.058191	0.558425
C79	C	1.098217	0.191809	0.808425
C80	C	1.348217	0.441809	1.058425
C81	C	0.548798	-0.375927	0.290154
C82	C	0.798798	-0.125927	0.540154
C83	C	1.048798	0.124073	0.790154
C84	C	1.298798	0.374073	1.040154
C85	C	0.646539	-0.357869	0.357943
C86	C	0.896539	-0.107869	0.607943
C87	C	1.146539	0.142131	0.857943
C88	C	1.396539	0.392131	1.107943
C89	C	0.548877	-0.290157	0.376212
C90	C	0.798877	-0.040157	0.626212
C91	C	1.048877	0.209843	0.876212
C92	C	1.298877	0.459843	1.126212
C93	C	0.500553	-0.357885	0.357974
C94	C	0.750553	-0.107885	0.607974
C95	C	1.000553	0.142115	0.857974
C96	C	1.250553	0.392115	1.107974
C97	C	0.598206	-0.425641	0.339637
C98	C	0.848206	-0.175641	0.589637
C99	C	1.098206	0.074359	0.839637
C100	C	1.348206	0.324359	1.089637
C101	C	0.598289	-0.339825	0.425726
C102	C	0.848289	-0.089825	0.675726
C103	C	1.098289	0.160175	0.925726
C104	C	1.348289	0.410175	1.175726
C105	C	0.548892	-0.407607	0.407481
C106	C	0.798892	-0.157607	0.657481
C107	C	1.048892	0.092393	0.907481
C108	C	1.298892	0.342393	1.157481
C109	C	0.730637	-0.357859	0.357923
C110	C	0.980637	-0.107859	0.607923
C111	C	1.230637	0.142141	0.857923
C112	C	1.480637	0.392141	1.107923
C113	C	0.416457	-0.357903	0.357994
C114	C	0.666457	-0.107903	0.607994
C115	C	0.916457	0.142097	0.857994
C116	C	1.166457	0.392097	1.107994
C117	C	1.073077	-0.550820	0.357938
C118	C	1.323077	-0.300820	0.607938
C119	C	1.573077	-0.050820	0.857938
C120	C	1.823077	0.199180	1.107938
C121	C	1.073107	-0.633366	0.357958
C122	C	1.323107	-0.383366	0.607958
C123	C	1.573107	-0.133366	0.857958
C124	C	1.823107	0.116634	1.107958
C125	C	1.023557	-0.832828	0.407536
C126	C	1.273557	-0.582828	0.657536
C127	C	1.523557	-0.332828	0.907536
C128	C	1.773557	-0.082828	1.157536
C129	C	1.005459	-0.882261	0.339767
C130	C	1.255459	-0.632261	0.589767
C131	C	1.505459	-0.382261	0.839767
C132	C	1.755459	-0.132261	1.089767
C133	C	1.073180	-0.784497	0.357967
C134	C	1.323180	-0.534497	0.607967
C135	C	1.573180	-0.284497	0.857967
C136	C	1.823180	-0.034497	1.107967
C137	C	1.091314	-0.882146	0.425744
C138	C	1.341314	-0.632146	0.675744
C139	C	1.591314	-0.382146	0.925744
C140	C	1.841314	-0.132146	1.175744
C141	C	1.073249	-0.930482	0.357983
C142	C	1.323249	-0.680482	0.607983
C143	C	1.573249	-0.430482	0.857983
C144	C	1.823249	-0.180482	1.107983
C145	C	1.055046	-0.832842	0.290162
C146	C	1.305046	-0.582842	0.540162
C147	C	1.555046	-0.332842	0.790162
C148	C	1.805046	-0.082842	1.040162
C149	C	1.140933	-0.832722	0.376186
C150	C	1.390933	-0.582722	0.626186
C151	C	1.640933	-0.332722	0.876186
C152	C	1.890933	-0.082722	1.126186
C153	C	1.122861	-0.882133	0.308370
C154	C	1.372861	-0.632133	0.558370
C155	C	1.622861	-0.382133	0.808370
C156	C	1.872861	-0.132133	1.058370
C157	C	1.073138	-0.700398	0.357959
C158	C	1.323138	-0.450398	0.607959
C159	C	1.573138	-0.200398	0.857959
C160	C	1.823138	0.049602	1.107959
C161	C	1.073291	-1.014578	0.357983
C162	C	1.323291	-0.764578	0.607983
C163	C	1.573291	-0.514578	0.857983
C164	C	1.823291	-0.264578	1.107983
C165	C	1.266872	-0.357897	0.357992
C166	C	1.516872	-0.107897	0.607992
C167	C	1.766872	0.142103	0.857992
C168	C	2.016872	0.392103	1.107992
C169	C	1.349418	-0.357909	0.358010
C170	C	1.599418	-0.107909	0.608010
C171	C	1.849418	0.142091	0.858010
C172	C	2.099418	0.392091	1.108010
C173	C	1.073196	-0.357835	0.551656
C174	C	1.323196	-0.107835	0.801656
C175	C	1.573196	0.142165	1.051656
C176	C	1.823196	0.392165	1.301656
C177	C	1.073208	-0.357821	0.634202
C178	C	1.323208	-0.107821	0.884202
C179	C	1.573208	0.142179	1.134202
C180	C	1.823208	0.392179	1.384202
C181	C	1.073277	-0.164163	0.357979
C182	C	1.323277	0.085837	0.607979
C183	C	1.573277	0.335837	0.857979
C184	C	1.823277	0.585837	1.107979
C185	C	1.073324	-0.081617	0.357991
C186	C	1.323324	0.168383	0.607991
C187	C	1.573324	0.418383	0.857991
C188	C	1.823324	0.668383	1.107991
C189	C	1.073181	-0.357848	0.164998
C190	C	1.323181	-0.107848	0.414998
C191	C	1.573181	0.142152	0.664998
C192	C	1.823181	0.392152	0.914998
C193	C	1.073312	-0.357652	0.082453
C194	C	1.323312	-0.107652	0.332453
C195	C	1.573312	0.142348	0.582453
C196	C	1.823312	0.392348	0.832453
C197	C	1.023612	-0.407353	0.833635
C198	C	1.273612	-0.157353	1.083635
C199	C	1.523612	0.092647	1.333635
C200	C	1.773612	0.342647	1.583635
C201	C	1.091367	-0.425511	0.883034
C202	C	1.341367	-0.175511	1.133034
C203	C	1.591367	0.074489	1.383034
C204	C	1.841367	0.324489	1.633034
C205	C	1.073245	-0.357765	0.785332
C206	C	1.323245	-0.107765	1.035332
C207	C	1.573245	0.142235	1.285332
C208	C	1.823245	0.392235	1.535332
C209	C	1.005527	-0.339586	0.883014
C210	C	1.255527	-0.089586	1.133014
C211	C	1.505527	0.160414	1.383014
C212	C	1.755527	0.410414	1.633014
C213	C	1.073274	-0.357711	0.931317
C214	C	1.323274	-0.107711	1.181317
C215	C	1.573274	0.142289	1.431317
C216	C	1.823274	0.392289	1.681317
C217	C	1.141036	-0.375958	0.833645
C218	C	1.391036	-0.125958	1.083645
C219	C	1.641036	0.124042	1.333645
C220	C	1.891036	0.374042	1.583645
C221	C	1.055150	-0.290002	0.833620
C222	C	1.305150	-0.040002	1.083620
C223	C	1.555150	0.209998	1.333620
C224	C	1.805150	0.459998	1.583620
C225	C	1.122952	-0.308134	0.882998
C226	C	1.372952	-0.058134	1.132998
C227	C	1.622952	0.191866	1.382998
C228	C	1.872952	0.441866	1.632998
C229	C	1.073227	-0.357797	0.701234
C230	C	1.323227	-0.107797	0.951234
C231	C	1.573227	0.142203	1.201234
C232	C	1.823227	0.392203	1.451234
C233	C	1.073300	-0.357679	1.015414
C234	C	1.323300	-0.107679	1.265414
C235	C	1.573300	0.142321	1.515414
C236	C	1.823300	0.392321	1.765414
H237	H	0.527169	-0.232894	0.391625
H238	H	0.777169	0.017106	0.641625
H239	H	1.027169	0.267106	0.891625
H240	H	1.277169	0.517106	1.141625
H241	H	0.619875	-0.266226	0.266503
H242	H	0.869875	-0.016226	0.516503
H243	H	1.119875	0.233774	0.766503
H244	H	1.369875	0.483774	1.016503
H245	H	0.948246	-0.324232	0.904701
H246	H	1.198246	-0.074232	1.154701
H247	H	1.448246	0.175768	1.404701
H248	H	1.698246	0.425768	1.654701
C249	C	0.519809	-0.464436	0.464068
C250	C	0.769809	-0.214436	0.714068
C251	C	1.019809	0.035564	0.964068
C252	C	1.269809	0.285564	1.214068
N253	N	0.497900	-0.507242	0.506685
N254	N	0.747900	-0.257242	0.756685
N255	N	0.997900	-0.007242	1.006685
N256	N	1.247900	0.242758	1.256685
H257	H	0.981531	-0.811178	0.449395
H258	H	1.231531	-0.561178	0.699395
H259	H	1.481531	-0.311178	0.949395
H260	H	1.731531	-0.061178	1.199395
C261	C	1.179736	-0.251451	0.912097
C262	C	1.429736	-0.001451	1.162097
C263	C	1.679736	0.248549	1.412097
C264	C	1.929736	0.498549	1.662097
N265	N	1.222508	-0.208760	0.934015
N266	N	1.472508	0.041240	1.184015
N267	N	1.722508	0.291240	1.434015
N268	N	1.972508	0.541240	1.684015
H269	H	0.620045	-0.324530	0.483019
H270	H	0.870045	-0.074530	0.733019
H271	H	1.120045	0.175470	0.983019
H272	H	1.370045	0.425470	1.233019
H273	H	1.039669	-0.811275	0.232834
H274	H	1.289669	-0.561275	0.482834
H275	H	1.539669	-0.311275	0.732834
H276	H	1.789669	-0.061275	0.982834
C277	C	1.218271	-0.803291	0.397035
C278	C	1.468271	-0.553291	0.647035
C279	C	1.718271	-0.303291	0.897035
C280	C	1.968271	-0.053291	1.147035
N281	N	1.276520	-0.781117	0.412748
N282	N	1.526520	-0.531117	0.662748
N283	N	1.776520	-0.281117	0.912748
N284	N	2.026520	-0.031117	1.162748
H285	H	0.527060	-0.391202	0.232844
H286	H	0.777060	-0.141202	0.482844
H287	H	1.027060	0.108798	0.732844
H288	H	1.277060	0.358798	0.982844
H289	H	0.948195	-0.904037	0.324371
H290	H	1.198195	-0.654037	0.574371
H291	H	1.448195	-0.404037	0.824371
H292	H	1.698195	-0.154037	1.074371
H293	H	0.619785	-0.482928	0.324134
H294	H	0.869785	-0.232928	0.574134
H295	H	1.119785	0.017072	0.824134
H296	H	1.369785	0.267072	1.074134
H297	H	1.106690	-0.482794	0.904739
H298	H	1.356690	-0.232794	1.154739
H299	H	1.606690	0.017206	1.404739
H300	H	1.856690	0.267206	1.654739
C301	C	1.179591	-0.911202	0.251684
C302	C	1.429591	-0.661202	0.501684
C303	C	1.679591	-0.411202	0.751684
C304	C	1.929591	-0.161202	1.001684
N305	N	1.222316	-0.933099	0.208986
N306	N	1.472316	-0.683099	0.458986
N307	N	1.722316	-0.433099	0.708986
N308	N	1.972316	-0.183099	0.958986
C309	C	1.111999	-0.911403	0.503170
C310	C	1.361999	-0.661403	0.753170
C311	C	1.611999	-0.411403	1.003170
C312	C	1.861999	-0.161403	1.253170
N313	N	1.127574	-0.933436	0.561489
N314	N	1.377574	-0.683436	0.811489
N315	N	1.627574	-0.433436	1.061489
N316	N	1.877574	-0.183436	1.311489
H317	H	0.981678	-0.449342	0.811961
H318	H	1.231678	-0.199342	1.061961
H319	H	1.481678	0.050658	1.311961
H320	H	1.731678	0.300658	1.561961
H321	H	1.198333	-0.391377	0.812050
H322	H	1.448333	-0.141377	1.062050
H323	H	1.698333	0.108623	1.312050
H324	H	1.948333	0.358623	1.562050
H325	H	1.039807	-0.232736	0.811899
H326	H	1.289807	0.017264	1.061899
H327	H	1.539807	0.267264	1.311899
H328	H	1.789807	0.517264	1.561899
