data_functionalizedCrystal
_audit_creation_method	'MofGen! by Chris Wilmer'
_symmetry_space_group_name_H-M	'P1'
_symmetry_Int_Tables_number	1
_symmetry_cell_setting	triclinic
loop_
_symmetry_equiv_pos_as_xyz
  x,y,z
_cell_length_a	42.784946
_cell_length_b	42.784822
_cell_length_c	42.784893
_cell_angle_alpha	59.997561
_cell_angle_beta	90.002308
_cell_angle_gamma	120.000065
loop_
_atom_site_label
_atom_site_type_symbol
_atom_site_fract_x
_atom_site_fract_y
_atom_site_fract_z
O1	O	-0.214412	0.275694	-0.009300
O2	O	-0.168961	0.211692	0.009252
O3	O	-0.168961	0.275692	-0.054750
O4	O	-0.214412	0.211694	0.054703
O5	O	-0.220945	0.223708	-0.054749
O6	O	-0.220945	0.159707	0.009253
O7	O	-0.266396	0.223710	-0.009299
Cu8	Cu	-0.248417	0.186962	-0.000023
Cu9	Cu	-0.186940	0.248440	-0.000024
O10	O	-0.266396	0.159709	0.054703
C11	C	-0.356211	0.440758	-0.028194
C12	C	-0.393826	0.422040	-0.028459
C13	C	-0.356212	0.384157	-0.028190
C14	C	-0.393828	0.365525	-0.028455
C15	C	-0.412810	0.384159	-0.028193
C16	C	-0.337315	0.422038	-0.028456
C17	C	-0.264531	0.567001	-0.017951
C18	C	-0.246590	0.602756	-0.015055
C19	C	-0.265929	0.620693	-0.013602
C20	C	-0.246481	0.659456	-0.010456
C21	C	-0.303209	0.602874	-0.015049
C22	C	-0.321145	0.567125	-0.017950
C23	C	-0.301804	0.549188	-0.019401
C24	C	-0.549295	0.339354	-0.017950
C25	C	-0.587946	0.318642	-0.015053
C26	C	-0.607338	0.279912	-0.013596
C27	C	-0.649247	0.257449	-0.010450
C28	C	-0.588073	0.261896	-0.015040
C29	C	-0.549422	0.282610	-0.017943
C30	C	-0.530035	0.321341	-0.019396
C31	C	-0.264536	0.339344	-0.017937
C32	C	-0.246598	0.318628	-0.015032
C33	C	-0.265939	0.279897	-0.013577
C34	C	-0.246492	0.257432	-0.010426
C35	C	-0.303217	0.261883	-0.015022
C36	C	-0.321153	0.282600	-0.017924
C37	C	-0.301808	0.321333	-0.019385
C38	C	-0.321257	0.510421	-0.022543
C39	C	-0.336761	0.479522	-0.025049
C40	C	-0.336764	0.361695	-0.025041
C41	C	-0.321261	0.343792	-0.022532
C42	C	-0.454719	0.361699	-0.025047
C43	C	-0.488124	0.343797	-0.022540
O44	O	-0.708518	0.275711	-0.054775
O45	O	-0.727064	0.211711	0.054679
O46	O	-0.663066	0.275709	-0.009321
O47	O	-0.772517	0.211712	0.009224
O48	O	-0.663068	0.223722	-0.009318
O49	O	-0.727066	0.159724	0.054682
O50	O	-0.708521	0.223724	-0.054772
Cu51	Cu	-0.717794	0.186977	-0.000045
Cu52	Cu	-0.717791	0.248458	-0.000049
O53	O	-0.772519	0.159726	0.009228
C54	C	-0.079140	0.384391	-0.361608
C55	C	-0.041525	0.422271	-0.380505
C56	C	-0.079140	0.384391	-0.305009
C57	C	-0.041525	0.422271	-0.323992
C58	C	-0.022542	0.440990	-0.361608
C59	C	-0.098037	0.365759	-0.323992
C60	C	-0.170819	0.282465	-0.396169
C61	C	-0.188759	0.261627	-0.413983
C62	C	-0.169419	0.279513	-0.451258
C63	C	-0.188866	0.256917	-0.470573
C64	C	-0.132139	0.318239	-0.470718
C65	C	-0.114204	0.339077	-0.452906
C66	C	-0.133545	0.321188	-0.415629
C67	C	0.113944	0.567230	-0.453286
C68	C	0.152595	0.602985	-0.471226
C69	C	0.171987	0.620920	-0.451887
C70	C	0.213896	0.659683	-0.471333
C71	C	0.152721	0.603101	-0.414607
C72	C	0.114070	0.567353	-0.396671
C73	C	0.094683	0.549417	-0.416014
C74	C	-0.170819	0.282465	-0.168522
C75	C	-0.188757	0.261624	-0.129869
C76	C	-0.169417	0.279510	-0.110479
C77	C	-0.188864	0.256914	-0.068568
C78	C	-0.132139	0.318233	-0.129743
C79	C	-0.114202	0.339070	-0.168395
C80	C	-0.133547	0.321185	-0.187783
C81	C	-0.114093	0.343784	-0.396316
C82	C	-0.098589	0.361795	-0.380921
C83	C	-0.098589	0.361795	-0.263100
C84	C	-0.114093	0.343784	-0.229694
C85	C	0.019367	0.479752	-0.381057
C86	C	0.052773	0.510651	-0.396560
C87	C	-0.022778	0.051021	0.028112
C88	C	-0.041761	0.013141	0.028376
C89	C	-0.079378	0.051018	0.028116
C90	C	-0.098275	0.013139	0.028379
C91	C	-0.079377	-0.005578	0.028113
C92	C	-0.041762	0.069652	0.028379
C93	C	0.113709	0.152949	0.017862
C94	C	0.152361	0.173788	0.014963
C95	C	0.171751	0.155904	0.013507
C96	C	0.213662	0.178501	0.010357
C97	C	0.152486	0.117178	0.014952
C98	C	0.113836	0.096340	0.017856
C99	C	0.094447	0.114227	0.019311
C100	C	-0.113937	-0.131814	0.017861
C101	C	-0.131751	-0.167568	0.014962
C102	C	-0.169025	-0.185504	0.013508
C103	C	-0.188341	-0.224266	0.010360
C104	C	-0.188486	-0.167687	0.014956
C105	C	-0.170675	-0.131939	0.017861
C106	C	-0.133396	-0.114003	0.019311
C107	C	-0.113943	0.152939	0.017877
C108	C	-0.131757	0.173778	0.014977
C109	C	-0.169032	0.155891	0.013524
C110	C	-0.188348	0.178486	0.010377
C111	C	-0.188491	0.117169	0.014967
C112	C	-0.170675	0.096333	0.017865
C113	C	-0.133401	0.114220	0.019323
C114	C	0.052537	0.091630	0.022456
C115	C	0.019131	0.073618	0.024964
C116	C	-0.098693	0.073612	0.024971
C117	C	-0.114088	0.091622	0.022466
C118	C	-0.098690	-0.044340	0.024965
C119	C	-0.114085	-0.075238	0.022457
O120	O	-0.220937	0.763042	0.009232
O121	O	-0.266387	0.672144	-0.009323
O122	O	-0.266384	0.672135	0.054681
O123	O	-0.220940	0.763051	-0.054771
O124	O	-0.214398	0.672140	0.054675
O125	O	-0.214401	0.672149	-0.009329
O126	O	-0.168951	0.763047	0.009226
Cu127	Cu	-0.186929	0.717598	-0.000052
Cu128	Cu	-0.248409	0.717593	-0.000045
O129	O	-0.168953	0.763056	-0.054777
O130	O	0.337166	0.763277	-0.496877
O131	O	0.227715	0.672372	-0.451427
O132	O	0.291713	0.672370	-0.451423
O133	O	0.273168	0.763279	-0.496881
O134	O	0.291714	0.672371	-0.503408
O135	O	0.227716	0.672373	-0.503412
O136	O	0.337167	0.763278	-0.548861
Cu137	Cu	0.282442	0.717825	-0.530883
Cu138	Cu	0.282440	0.717824	-0.469405
O139	O	0.273169	0.763280	-0.548866
O140	O	-0.214416	0.211689	-0.548617
O141	O	-0.168962	0.275691	-0.503168
O142	O	-0.168963	0.211689	-0.503163
O143	O	-0.214415	0.275691	-0.548622
O144	O	-0.220947	0.159705	-0.451179
O145	O	-0.220945	0.223708	-0.451183
O146	O	-0.266400	0.159705	-0.496633
Cu147	Cu	-0.248419	0.186960	-0.469161
Cu148	Cu	-0.186942	0.248437	-0.530639
O149	O	-0.266398	0.223708	-0.496637
C150	C	-0.412572	-0.005346	0.361561
C151	C	-0.393590	0.013372	0.380458
C152	C	-0.355974	0.051253	0.304962
C153	C	-0.337077	0.069885	0.323946
C154	C	-0.355975	0.051252	0.361561
C155	C	-0.393589	0.013373	0.323945
C156	C	-0.549058	-0.131586	0.396120
C157	C	-0.587710	-0.167341	0.413934
C158	C	-0.607099	-0.185276	0.451209
C159	C	-0.649010	-0.224039	0.470523
C160	C	-0.587834	-0.167457	0.470670
C161	C	-0.549184	-0.131709	0.452857
C162	C	-0.529796	-0.113774	0.415581
C163	C	-0.321414	0.096060	0.453240
C164	C	-0.303600	0.116771	0.471180
C165	C	-0.266327	0.155501	0.451842
C166	C	-0.247010	0.177964	0.471288
C167	C	-0.246866	0.173516	0.414562
C168	C	-0.264677	0.152801	0.396626
C169	C	-0.301955	0.114071	0.415969
C170	C	-0.321412	0.096062	0.168475
C171	C	-0.303599	0.116778	0.129821
C172	C	-0.266324	0.155507	0.110432
C173	C	-0.247008	0.177971	0.068521
C174	C	-0.246865	0.173522	0.129696
C175	C	-0.264680	0.152806	0.168348
C176	C	-0.301953	0.114073	0.187736
C177	C	-0.487887	-0.075008	0.396268
C178	C	-0.454481	-0.044109	0.380873
C179	C	-0.336660	0.073713	0.263053
C180	C	-0.321265	0.091616	0.229647
C181	C	-0.336661	0.073712	0.381010
C182	C	-0.321267	0.091614	0.396514
C183	C	-0.745907	0.051048	0.361533
C184	C	-0.746168	0.013169	0.380431
C185	C	-0.745913	0.051043	0.304937
C186	C	-0.746174	0.013164	0.323921
C187	C	-0.745905	-0.005551	0.361536
C188	C	-0.746176	0.069678	0.323918
C189	C	-0.735658	0.152979	0.396087
C190	C	-0.732759	0.173818	0.413900
C191	C	-0.731300	0.155935	0.451174
C192	C	-0.728150	0.178533	0.470487
C193	C	-0.732743	0.117210	0.470636
C194	C	-0.735647	0.096371	0.452825
C195	C	-0.737104	0.114257	0.415549
C196	C	-0.735646	-0.131785	0.453216
C197	C	-0.732746	-0.167539	0.471157
C198	C	-0.731291	-0.185476	0.451821
C199	C	-0.728142	-0.224237	0.471267
C200	C	-0.732742	-0.167659	0.414541
C201	C	-0.735649	-0.131912	0.396604
C202	C	-0.737098	-0.113975	0.415945
C203	C	-0.735683	0.152961	0.168450
C204	C	-0.732785	0.173799	0.129797
C205	C	-0.731333	0.155911	0.110409
C206	C	-0.728189	0.178504	0.068498
C207	C	-0.732774	0.117189	0.129674
C208	C	-0.735670	0.096355	0.168326
C209	C	-0.737128	0.114242	0.187712
C210	C	-0.740249	0.091659	0.396238
C211	C	-0.742758	0.073646	0.380845
C212	C	-0.742771	0.073636	0.263028
C213	C	-0.740268	0.091645	0.229622
C214	C	-0.742756	-0.044313	0.380986
C215	C	-0.740246	-0.075211	0.396491
C216	C	-0.689677	0.440744	-0.361630
C217	C	-0.689417	0.422022	-0.380525
C218	C	-0.689672	0.384147	-0.305030
C219	C	-0.689411	0.365511	-0.324011
C220	C	-0.689680	0.384141	-0.361626
C221	C	-0.689408	0.422028	-0.324015
C222	C	-0.699922	0.566988	-0.396197
C223	C	-0.702819	0.602743	-0.414013
C224	C	-0.704278	0.620676	-0.451287
C225	C	-0.707427	0.659439	-0.470604
C226	C	-0.702836	0.602853	-0.470746
C227	C	-0.699933	0.567105	-0.452932
C228	C	-0.698476	0.549172	-0.415656
C229	C	-0.699943	0.339321	-0.453296
C230	C	-0.702845	0.318607	-0.471234
C231	C	-0.704300	0.279877	-0.451894
C232	C	-0.707451	0.257410	-0.471337
C233	C	-0.702849	0.261865	-0.414615
C234	C	-0.699942	0.282583	-0.396680
C235	C	-0.698491	0.321313	-0.416025
C236	C	-0.699901	0.339349	-0.168547
C237	C	-0.702798	0.318637	-0.129894
C238	C	-0.704252	0.279907	-0.110502
C239	C	-0.707396	0.257446	-0.068592
C240	C	-0.702812	0.261889	-0.129764
C241	C	-0.699916	0.282602	-0.168416
C242	C	-0.698457	0.321335	-0.187805
C243	C	-0.695332	0.510406	-0.396341
C244	C	-0.692824	0.479507	-0.380945
C245	C	-0.692814	0.361689	-0.263121
C246	C	-0.695317	0.343790	-0.229716
C247	C	-0.692831	0.361678	-0.381072
C248	C	-0.695342	0.343773	-0.396574
C249	C	-0.356186	0.384132	0.361532
C250	C	-0.393802	0.365496	0.380431
C251	C	-0.356191	0.440733	0.304936
C252	C	-0.393806	0.422011	0.323921
C253	C	-0.412787	0.384128	0.361537
C254	C	-0.337292	0.422015	0.323916
C255	C	-0.264502	0.339329	0.396082
C256	C	-0.246560	0.318618	0.413893
C257	C	-0.265898	0.279885	0.451168
C258	C	-0.246448	0.257422	0.470480
C259	C	-0.303177	0.261867	0.470631
C260	C	-0.321114	0.282581	0.452821
C261	C	-0.301775	0.321314	0.415545
C262	C	-0.549270	0.282190	0.453221
C263	C	-0.587922	0.261349	0.471163
C264	C	-0.607315	0.279231	0.451828
C265	C	-0.649224	0.256636	0.471276
C266	C	-0.588052	0.317961	0.414548
C267	C	-0.549400	0.338805	0.396609
C268	C	-0.530012	0.320913	0.415950
C269	C	-0.264519	0.566988	0.168447
C270	C	-0.246582	0.602742	0.129794
C271	C	-0.265924	0.620677	0.110407
C272	C	-0.246479	0.659444	0.068496
C273	C	-0.303202	0.602854	0.129673
C274	C	-0.321137	0.567100	0.168325
C275	C	-0.301790	0.549171	0.187710
C276	C	-0.321230	0.343771	0.396234
C277	C	-0.336735	0.361672	0.380842
C278	C	-0.336744	0.479500	0.263027
C279	C	-0.321242	0.510402	0.229621
C280	C	-0.454696	0.361529	0.380988
C281	C	-0.488101	0.343515	0.396494
O282	O	-0.708464	0.223764	0.548529
O283	O	-0.727015	0.159760	0.503081
O284	O	-0.663014	0.223765	0.503074
O285	O	-0.772465	0.159759	0.548536
O286	O	-0.663021	0.275747	0.451090
O287	O	-0.727022	0.211742	0.451097
O288	O	-0.708471	0.275745	0.496546
Cu289	Cu	-0.717747	0.248490	0.469075
Cu290	Cu	-0.717739	0.187016	0.530552
O291	O	-0.772471	0.211741	0.496552
C292	C	-0.022798	1.051063	-0.361633
C293	C	-0.041783	1.069695	-0.380527
C294	C	-0.079394	0.994457	-0.305033
C295	C	-0.098293	1.013176	-0.324013
C296	C	-0.079398	1.051059	-0.361628
C297	C	-0.041778	1.013180	-0.324018
C298	C	0.113690	1.095882	-0.396205
C299	C	0.152342	1.116597	-0.414022
C300	C	0.171729	1.155330	-0.451296
C301	C	0.213640	1.177797	-0.470614
C302	C	0.152461	1.173344	-0.470754
C303	C	0.113811	1.152625	-0.452939
C304	C	0.094426	1.113893	-0.415663
C305	C	-0.113969	1.152985	-0.453297
C306	C	-0.131786	1.173822	-0.471233
C307	C	-0.169059	1.155936	-0.451892
C308	C	-0.188378	1.178527	-0.471335
C309	C	-0.188517	1.117206	-0.414613
C310	C	-0.170704	1.096367	-0.396679
C311	C	-0.133425	1.114263	-0.416025
C312	C	-0.113945	0.868207	-0.168549
C313	C	-0.131756	0.832453	-0.129896
C314	C	-0.169031	0.814514	-0.110503
C315	C	-0.188343	0.775747	-0.068593
C316	C	-0.188492	0.832333	-0.129765
C317	C	-0.170680	0.868087	-0.168416
C318	C	-0.133407	0.886020	-0.187807
C319	C	0.052517	1.091432	-0.396346
C320	C	0.019111	1.073527	-0.380949
C321	C	-0.098704	0.955691	-0.263123
C322	C	-0.114097	0.924789	-0.229717
C323	C	-0.098714	1.073654	-0.381073
C324	C	-0.114111	1.091664	-0.396575
H325	H	-0.533739	0.267940	-0.019120
Br326	Br	-0.419202	0.448138	0.298534
H327	H	-0.026284	0.437932	-0.308748
H328	H	-0.603603	0.229816	0.501515
Br329	Br	-0.285564	0.120686	0.298547
Br330	Br	-0.239347	0.209072	-0.103727
H331	H	0.168278	0.617489	-0.501577
Br332	Br	-0.371743	0.258152	-0.019886
Br333	Br	-0.419200	0.314691	0.431944
H334	H	-0.306395	0.437662	0.308665
Br335	Br	0.087926	0.543174	-0.346082
Br336	Br	0.178502	0.226340	0.013001
Br337	Br	0.179032	0.627445	-0.388363
H338	H	-0.248829	0.167469	0.366274
Br339	Br	-0.523041	-0.107531	0.479268
H340	H	-0.731607	0.205330	0.114112
Br341	Br	-0.329468	0.209318	-0.013044
H342	H	-0.248783	0.370881	-0.019122
H343	H	-0.216233	0.617245	0.114107
H344	H	-0.351496	0.552621	-0.019129
Br345	Br	0.178800	0.092907	0.012980
Br346	Br	-0.418991	-0.012732	0.298540
Br347	Br	-0.704815	0.209309	-0.388368
H348	H	-0.688989	0.335028	-0.308767
H349	H	-0.746600	-0.002501	0.308680
Br350	Br	-0.016361	-0.012971	0.029086
Br351	Br	0.087692	0.043786	0.019820
Br352	Br	-0.149784	-0.012969	0.029081
Br353	Br	-0.371999	0.043501	0.194785
H354	H	-0.115906	0.817948	-0.114215
H355	H	-0.698760	0.267916	-0.366329
Br356	Br	-0.688702	0.448136	-0.298612
Br357	Br	-0.730806	0.092909	0.103365
H358	H	0.098126	1.167294	-0.468784
Br359	Br	0.178771	1.225904	-0.521340
Br360	Br	-0.238281	0.542661	-0.019920
H361	H	-0.248833	0.167476	0.184031
H362	H	-0.306409	0.437703	-0.028879
Br363	Br	-0.522958	0.257913	0.479469
H364	H	-0.698734	0.552392	-0.365846
Br365	Br	-0.196277	0.226084	0.103385
Br366	Br	-0.372002	0.043499	0.479491
H367	H	-0.216238	0.617260	-0.013875
H368	H	-0.115910	0.205307	0.013800
H369	H	-0.083592	0.167506	0.019063
H370	H	-0.704000	0.617246	-0.398165
H371	H	-0.026286	0.437937	-0.411412
H372	H	-0.603841	0.332525	0.398806
H373	H	-0.736868	0.167529	0.184232
H374	H	-0.688991	0.437690	-0.411432
Br375	Br	-0.239078	0.092895	0.012990
H376	H	0.097926	0.167517	0.019048
Br377	Br	-0.418994	-0.012731	0.431967
H378	H	-0.083618	1.167557	-0.469052
Br379	Br	-0.737649	0.177245	0.345505
Br380	Br	-0.196278	0.226072	0.388318
H381	H	-0.248764	0.552391	0.184229
Br382	Br	-0.105378	1.226380	-0.521822
Br383	Br	-0.063345	-0.107470	0.019823
H384	H	-0.319447	0.102101	0.501533
H385	H	-0.603624	-0.182065	0.501020
H386	H	-0.703974	0.333309	-0.114212
H387	H	-0.115903	-0.182072	0.013782
H388	H	-0.318951	0.617482	-0.013869
Br389	Br	-0.697923	0.391915	-0.194861
H390	H	0.097910	1.064344	-0.365854
H391	H	-0.533276	-0.116987	0.365769
H392	H	-0.319446	0.102108	0.114139
H393	H	-0.698745	0.267928	-0.184096
Br394	Br	-0.239075	-0.192032	0.012991
Br395	Br	-0.746878	-0.012944	0.431945
H396	H	-0.116390	0.332794	-0.113953
H397	H	-0.026541	1.100182	-0.411432
H398	H	-0.186523	-0.117437	0.019042
Br399	Br	-0.197084	0.043783	0.019824
Br400	Br	-0.746883	0.120483	0.298512
Br401	Br	-0.730798	0.226371	0.387487
Br402	Br	-0.613852	-0.191519	0.387522
H403	H	-0.216247	0.333296	-0.013853
H404	H	-0.704022	0.617459	-0.501095
H405	H	-0.128940	0.335269	-0.308749
H406	H	-0.248751	0.370866	0.365730
H407	H	0.098162	0.552632	-0.469039
Br408	Br	-0.730767	0.092940	0.521222
Br409	Br	-0.197071	0.258191	-0.194834
H410	H	-0.736824	0.064840	0.468674
H411	H	-0.351467	0.267909	0.468670
Br412	Br	-0.522984	0.391917	-0.019927
Br413	Br	-0.195971	0.343069	0.387479
H414	H	-0.736827	-0.117184	0.468967
Br415	Br	-0.730776	-0.191713	0.521746
H416	H	-0.186572	0.267896	-0.365817
H417	H	-0.318918	0.230332	0.500980
H418	H	-0.698758	0.552598	-0.468777
Br419	Br	-0.239348	0.209074	-0.387572
Br420	Br	-0.730777	-0.192005	0.388299
H421	H	-0.603629	0.333312	-0.013876
H422	H	-0.698760	0.370857	-0.469051
H423	H	-0.703997	0.230351	-0.113973
H424	H	-0.351489	0.552591	0.184009
H425	H	-0.736831	-0.117410	0.366252
H426	H	-0.083849	0.370600	-0.184077
Br427	Br	-0.737628	0.043803	0.194469
H428	H	-0.704026	0.333274	-0.501586
Br429	Br	-0.016362	0.120456	0.029086
Br430	Br	-0.523259	0.391363	0.346021
Br431	Br	-0.329452	0.627197	0.103366
Br432	Br	-0.149804	0.987064	-0.298608
H433	H	-0.026534	0.997516	-0.308781
H434	H	-0.083599	0.882799	-0.184338
Br435	Br	0.178487	1.092150	-0.387615
H436	H	-0.603862	0.230362	-0.013856
Br437	Br	-0.239104	1.092925	-0.388364
Br438	Br	-0.105896	0.342513	-0.521305
Br439	Br	-0.197111	1.043808	-0.346091
H440	H	-0.186528	0.882593	-0.184096
H441	H	-0.409068	0.335042	-0.028878
Br442	Br	-0.419225	0.448156	-0.029178
H443	H	-0.083852	0.370608	-0.468753
Br444	Br	-0.239079	0.807991	-0.103448
