data_functionalizedCrystal
_audit_creation_method	'MofGen! by Chris Wilmer'
_symmetry_space_group_name_H-M	'P1'
_symmetry_Int_Tables_number	1
_symmetry_cell_setting	triclinic
loop_
_symmetry_equiv_pos_as_xyz
  x,y,z
_cell_length_a	19.077409
_cell_length_b	19.077068
_cell_length_c	12.759393
_cell_angle_alpha	92.261232
_cell_angle_beta	92.270415
_cell_angle_gamma	94.533134
loop_
_atom_site_label
_atom_site_type_symbol
_atom_site_fract_x
_atom_site_fract_y
_atom_site_fract_z
Zn1	Zn	1.066438	-0.237283	-0.544523
Zn2	Zn	1.061604	-0.355193	-0.376182
Zn3	Zn	0.948546	-0.242060	-0.376184
Zn4	Zn	0.943779	-0.359876	-0.559136
O5	O	1.005092	-0.298603	-0.464007
O6	O	1.164445	-0.248966	-0.516076
O7	O	1.046579	-0.340225	-0.229166
O8	O	0.968202	-0.142774	-0.392400
O9	O	1.160894	-0.335594	-0.392397
O10	O	1.054817	-0.139265	-0.516078
O11	O	0.963515	-0.257106	-0.229167
O12	O	0.849265	-0.261647	-0.406569
O13	O	0.960078	-0.343574	-0.704215
O14	O	0.845763	-0.348206	-0.540983
O15	O	1.050195	-0.253506	-0.693479
O16	O	1.041956	-0.454466	-0.406566
O17	O	0.955391	-0.457907	-0.540981
C18	C	0.821935	-0.305953	-0.475363
C19	C	0.743579	-0.309115	-0.480247
C20	C	0.302326	-0.331733	-0.515324
C21	C	0.375949	-0.328768	-0.510715
C22	C	0.414564	-0.282146	-0.438536
C23	C	0.379552	-0.238492	-0.370954
C24	C	0.305930	-0.241461	-0.375558
C25	C	0.634945	-0.268429	-0.417269
C26	C	0.708572	-0.265462	-0.412672
C27	C	0.704964	-0.355739	-0.552433
C28	C	0.631341	-0.358701	-0.557035
C29	C	0.596335	-0.315050	-0.489449
N30	N	0.489819	-0.279113	-0.433826
N31	N	0.521081	-0.318087	-0.494154
C32	C	0.997651	-0.481765	-0.475381
C33	C	0.994532	-0.560120	-0.480278
C34	C	1.038172	-0.595116	-0.412649
C35	C	1.035243	-0.668738	-0.417261
C36	C	0.988670	-0.707365	-0.489497
C37	C	0.945028	-0.672364	-0.557133
C38	C	0.947961	-0.598742	-0.552525
C39	C	0.975064	-0.927744	-0.510781
C40	C	0.972132	-1.001371	-0.515381
C41	C	1.062348	-0.997740	-0.375510
C42	C	1.065275	-0.924118	-0.370905
C43	C	1.021635	-0.889123	-0.438544
N44	N	0.985673	-0.782619	-0.494211
N45	N	1.024636	-0.813870	-0.433835
C46	C	1.188963	-0.291224	-0.452607
C47	C	1.267319	-0.288080	-0.447749
C48	C	1.005144	-0.298530	-0.738032
C49	C	1.005166	-0.298499	-0.854806
C50	C	1.012581	-0.114725	-0.452610
C51	C	1.015772	-0.036367	-0.447753
C52	C	1.052097	-0.251596	-0.904079
C53	C	1.052114	-0.251569	-1.013801
C54	C	0.958269	-0.345356	-1.024967
C55	C	0.958248	-0.345378	-0.915247
C56	C	1.106280	-0.197451	-0.897633
C57	C	1.106297	-0.197425	-1.007355
C58	C	1.005082	-0.298623	-0.191041
C59	C	1.005205	-0.298450	-0.074247
H60	H	0.410998	-0.200534	-0.312179
C61	C	0.694002	-0.445269	-0.691043
C62	C	0.743443	-0.403723	-0.626717
H63	H	0.717759	-0.474891	-0.736906
H64	H	0.664179	-0.473355	-0.648667
H65	H	0.666545	-0.415737	-0.731193
H66	H	0.770897	-0.433256	-0.586560
H67	H	0.773279	-0.375635	-0.669097
C68	C	0.645917	-0.178889	-0.278673
C69	C	0.596473	-0.220440	-0.342989
H70	H	0.622162	-0.149258	-0.232821
H71	H	0.673370	-0.208413	-0.238520
H72	H	0.675743	-0.150807	-0.321064
H73	H	0.566649	-0.248526	-0.300598
H74	H	0.569008	-0.190912	-0.383146
C75	C	0.316886	-0.151922	-0.236957
C76	C	0.267447	-0.193474	-0.301281
H77	H	0.293128	-0.122296	-0.191103
H78	H	0.344340	-0.181447	-0.196805
H79	H	0.346713	-0.123836	-0.279342
H80	H	0.237624	-0.221564	-0.258896
H81	H	0.239981	-0.163946	-0.341436
C82	C	0.791725	-0.252229	-0.265599
C83	C	0.751027	-0.214218	-0.333325
H84	H	0.817939	-0.220593	-0.216624
H85	H	0.761745	-0.284062	-0.229036
H86	H	0.823102	-0.277801	-0.305210
H87	H	0.719647	-0.188650	-0.293714
H88	H	0.781010	-0.182372	-0.369892
H89	H	0.939530	-0.899258	-0.565854
H90	H	1.088858	-0.146336	-1.039388
H91	H	1.103198	-0.892669	-0.312085
C92	C	0.458398	-0.335328	-0.647449
C93	C	0.414428	-0.376747	-0.585005
H94	H	0.482155	-0.364951	-0.693310
H95	H	0.430937	-0.305805	-0.687592
H96	H	0.491931	-0.307145	-0.603789
H97	H	0.380892	-0.404926	-0.628665
H98	H	0.441891	-0.406282	-0.544859
H99	H	1.076094	-0.563671	-0.353823
C100	C	1.124701	-0.657755	-0.278531
C101	C	1.083209	-0.707205	-0.342916
H102	H	1.154311	-0.681504	-0.232628
H103	H	1.152796	-0.627910	-0.320864
H104	H	1.095132	-0.630321	-0.238423
H105	H	1.112778	-0.734636	-0.383029
H106	H	1.055111	-0.737062	-0.300578
C107	C	0.944631	-0.440553	-1.154825
C108	C	0.906703	-0.396889	-1.091404
H109	H	0.912795	-0.472371	-1.195833
H110	H	0.972575	-0.412615	-1.199873
H111	H	0.974238	-0.466292	-1.111776
H112	H	0.877100	-0.371145	-1.134454
H113	H	0.878747	-0.424831	-1.046352
H114	H	1.157337	-0.214939	-0.861596
H115	H	1.097878	-1.026241	-0.320444
C116	C	0.914468	-0.577391	-0.731096
C117	C	0.899992	-0.560272	-0.626866
H118	H	0.884852	-0.553643	-0.776993
H119	H	0.962306	-0.563374	-0.742821
H120	H	0.906051	-0.626766	-0.744164
H121	H	0.908414	-0.510897	-0.613796
H122	H	0.852144	-0.574284	-0.615136
H123	H	0.934215	-1.032818	-0.574223
C124	C	0.544699	-0.456872	-0.582440
C125	C	0.588889	-0.409951	-0.636366
H126	H	0.518487	-0.488506	-0.631419
H127	H	0.572311	-0.482644	-0.536489
H128	H	0.513322	-0.431286	-0.542852
H129	H	0.620270	-0.435537	-0.675948
H130	H	0.561275	-0.384177	-0.682335
H131	H	1.160305	-0.209852	-1.034653
H132	H	1.093878	-0.143443	-0.865388
H133	H	0.907110	-0.703819	-0.615954
C134	C	0.863002	-0.358980	-0.798346
C135	C	0.906655	-0.396926	-0.861080
H136	H	0.831146	-0.390805	-0.764911
H137	H	0.890941	-0.331072	-0.746655
H138	H	0.837303	-0.329338	-0.840935
H139	H	0.932358	-0.426565	-0.818490
H140	H	0.878712	-0.424846	-0.912779
H141	H	0.270891	-0.369694	-0.574106
