data_functionalizedCrystal
_audit_creation_method	'MofGen! by Chris Wilmer'
_symmetry_space_group_name_H-M	'P1'
_symmetry_Int_Tables_number	1
_symmetry_cell_setting	triclinic
loop_
_symmetry_equiv_pos_as_xyz
  x,y,z
_cell_length_a	15.944551
_cell_length_b	15.944551
_cell_length_c	13.330367
_cell_angle_alpha	90.005596
_cell_angle_beta	90.003063
_cell_angle_gamma	83.498738
loop_
_atom_site_label
_atom_site_type_symbol
_atom_site_fract_x
_atom_site_fract_y
_atom_site_fract_z
O1	O	1.114528	0.108331	0.083321
O2	O	0.869978	0.121688	0.083346
O3	O	0.998931	-0.007265	0.083324
O4	O	0.985575	0.237284	0.083343
O5	O	0.998913	-0.007268	-0.083523
O6	O	0.869960	0.121685	-0.083501
O7	O	1.114509	0.108329	-0.083526
Cu8	Cu	0.992233	0.115006	-0.098748
Cu9	Cu	0.992255	0.115010	0.098568
O10	O	0.985556	0.237282	-0.083504
C11	C	0.838675	0.121132	-0.000074
C12	C	0.745429	0.119470	-0.000065
C13	C	0.530572	0.035565	-0.000091
C14	C	0.469561	0.074529	0.082177
C15	C	0.574703	0.116462	-0.000077
C16	C	0.469565	0.074545	-0.082322
C17	C	0.409790	0.113551	-0.000093
C18	C	0.514920	0.155448	0.082259
C19	C	0.514931	0.155453	-0.082314
C20	C	0.453937	0.194476	-0.000026
C21	C	0.669705	0.118137	-0.000067
C22	C	0.314789	0.111883	-0.000096
C23	C	0.998367	-0.038561	-0.000100
C24	C	0.996705	-0.131807	-0.000100
C25	C	0.912801	-0.346663	-0.000078
C26	C	0.951754	-0.407682	-0.082347
C27	C	0.993698	-0.302533	-0.000092
C28	C	0.951791	-0.407663	0.082151
C29	C	0.990787	-0.467445	-0.000080
C30	C	1.032673	-0.362323	-0.082430
C31	C	1.032699	-0.362297	0.082142
C32	C	1.071711	-0.423298	-0.000148
C33	C	0.995372	-0.207530	-0.000100
C34	C	0.989119	-0.562446	-0.000079
C35	C	1.145813	0.108885	-0.000103
C36	C	1.239059	0.110547	-0.000106
C37	C	0.986120	0.268577	-0.000078
C38	C	0.987782	0.361823	-0.000071
N39	N	0.992223	0.115004	-0.237529
C40	C	0.935152	0.172088	-0.710142
C41	C	1.049380	0.057925	-0.710130
C42	C	1.049371	0.057923	-0.605112
C43	C	0.992252	0.115004	-0.552604
C44	C	0.935142	0.172089	-0.605114
C45	C	1.106485	0.000845	-0.552594
C46	C	1.106478	0.000841	-0.447569
C47	C	1.049355	0.057919	-0.395059
C48	C	0.992242	0.115005	-0.447576
C49	C	0.935123	0.172087	-0.395068
C50	C	0.878006	0.229170	-0.447583
C51	C	0.878019	0.229167	-0.552605
C52	C	1.049342	0.057922	-0.290037
C53	C	0.935114	0.172088	-0.290040
N54	N	0.992271	0.115006	0.237350
H55	H	0.535054	0.189640	-0.151863
H56	H	0.449471	0.040313	-0.151870
H57	H	1.066853	-0.342334	-0.152059
N58	N	0.823857	-0.302542	-0.000164
H59	H	0.793401	-0.318922	-0.062362
H60	H	0.825673	-0.239434	0.000511
N61	N	1.077995	-0.335630	0.174268
H62	H	1.038535	-0.294706	0.214767
H63	H	1.128831	-0.307454	0.153229
N64	N	0.906466	-0.434278	0.174275
H65	H	0.846449	-0.406113	0.174203
H66	H	0.936484	-0.416964	0.236357
N67	N	0.541408	0.200727	0.174494
H68	H	0.524524	0.170401	0.236547
H69	H	0.512786	0.260567	0.174697
N70	N	0.873554	0.233652	-0.766783
H71	H	0.883225	0.293275	-0.748499
H72	H	0.813969	0.223865	-0.748493
N73	N	0.873498	0.233653	-0.233417
H74	H	0.883169	0.293276	-0.251688
H75	H	0.882185	0.224924	-0.158934
H76	H	1.152994	-0.045625	-0.595349
N77	N	0.906432	-0.434314	-0.174478
H78	H	0.846415	-0.406151	-0.174415
H79	H	0.906188	-0.497627	-0.174083
N80	N	1.110984	-0.003631	-0.766768
H81	H	1.078889	-0.040838	-0.810356
H82	H	1.147149	-0.039738	-0.717508
H83	H	0.420779	0.261683	0.000025
N84	N	1.160732	-0.467226	-0.000208
H85	H	1.191162	-0.450754	-0.062374
H86	H	1.159060	-0.530354	0.000420
N87	N	0.816405	0.290739	-0.390946
H88	H	0.825073	0.282077	-0.316448
H89	H	0.756820	0.280996	-0.409306
N90	N	0.574705	-0.053373	-0.000004
H91	H	0.557521	-0.084258	-0.061503
H92	H	0.558320	-0.083757	0.062233
H93	H	1.095850	0.011450	-0.247284
H94	H	1.152985	-0.045639	-0.404818
N95	N	0.442929	0.029216	0.174300
H96	H	0.471089	-0.030803	0.174237
H97	H	0.379615	0.028975	0.173892
N98	N	0.816418	0.290730	-0.609243
H99	H	0.825096	0.282068	-0.683741
H100	H	0.826118	0.350325	-0.590876
