data_functionalizedCrystal
_audit_creation_method	'MofGen! by Chris Wilmer'
_symmetry_space_group_name_H-M	'P1'
_symmetry_Int_Tables_number	1
_symmetry_cell_setting	triclinic
loop_
_symmetry_equiv_pos_as_xyz
  x,y,z
_cell_length_a	14.044191
_cell_length_b	16.109301
_cell_length_c	15.186229
_cell_angle_alpha	89.994299
_cell_angle_beta	90.001526
_cell_angle_gamma	91.673371
loop_
_atom_site_label
_atom_site_type_symbol
_atom_site_fract_x
_atom_site_fract_y
_atom_site_fract_z
O1	O	1.257646	-0.200464	0.073191
O2	O	0.981678	-0.193225	0.073202
O3	O	1.127243	-0.076378	0.073187
O4	O	1.112081	-0.317311	0.073206
O5	O	1.127232	-0.076374	-0.073270
O6	O	0.981667	-0.193221	-0.073255
O7	O	1.257635	-0.200460	-0.073266
Zn8	Zn	1.119649	-0.196840	-0.096514
Zn9	Zn	1.119664	-0.196845	0.096450
O10	O	1.112070	-0.317308	-0.073251
C11	C	0.946359	-0.190056	-0.000025
C12	C	0.841136	-0.180610	-0.000021
C13	C	0.590834	-0.230335	-0.000026
C14	C	0.648484	-0.163354	-0.000030
C15	C	0.755686	-0.172958	-0.000025
C16	C	0.483623	-0.220733	-0.000031
C17	C	1.126623	-0.045355	-0.000042
C18	C	1.124782	0.047077	-0.000043
C19	C	1.292954	-0.203629	-0.000037
C20	C	1.398177	-0.213075	-0.000035
C21	C	1.112690	-0.348330	-0.000020
C22	C	1.114531	-0.440762	-0.000013
C23	C	1.206876	0.263240	-0.000032
C24	C	1.205138	0.350089	-0.000025
C25	C	1.032431	0.343068	-0.000021
C26	C	1.034169	0.256220	-0.000022
C27	C	1.121395	0.216308	-0.000032
C28	C	1.117918	0.390006	-0.000024
C29	C	1.116034	0.484173	-0.000016
C30	C	1.123280	0.122136	-0.000039
N31	N	1.119646	-0.196837	-0.228207
C32	C	1.184128	-0.145118	-0.546131
C33	C	1.184126	-0.145118	-0.453942
C34	C	1.055189	-0.248568	-0.453939
C35	C	1.055197	-0.248571	-0.546127
C36	C	1.119666	-0.196841	-0.592221
C37	C	1.119655	-0.196838	-0.407843
C38	C	1.119652	-0.196838	-0.307887
C39	C	1.119670	-0.196842	-0.692183
N40	N	1.119675	-0.196843	0.228143
H41	H	1.277900	0.230746	-0.000038
N42	N	0.607229	-0.077838	-0.000026
H43	H	0.629326	-0.046600	-0.054317
H44	H	0.535392	-0.083075	0.000007
H45	H	1.002704	-0.290695	-0.583655
N46	N	0.938360	0.386124	-0.000024
H47	H	0.900911	0.369478	-0.054315
H48	H	0.900986	0.369458	0.054304
H49	H	0.621988	-0.294886	-0.000019
N50	N	1.297334	0.400712	-0.000036
H51	H	1.300470	0.436894	0.054257
H52	H	1.352798	0.362193	-0.000077
H53	H	0.964556	0.218007	-0.000020
H54	H	1.236623	-0.102997	-0.583659
H55	H	1.236618	-0.103001	-0.416418
H56	H	1.002699	-0.290684	-0.416400
