data_functionalizedCrystal
_audit_creation_method	'MofGen! by Chris Wilmer'
_symmetry_space_group_name_H-M	'P1'
_symmetry_Int_Tables_number	1
_symmetry_cell_setting	triclinic
loop_
_symmetry_equiv_pos_as_xyz
  x,y,z
_cell_length_a	9.065215
_cell_length_b	15.944551
_cell_length_c	7.540329
_cell_angle_alpha	89.995457
_cell_angle_beta	89.997574
_cell_angle_gamma	84.256718
loop_
_atom_site_label
_atom_site_type_symbol
_atom_site_fract_x
_atom_site_fract_y
_atom_site_fract_z
O1	O	1.957522	0.123149	-0.147466
O2	O	1.528001	0.133254	-0.147475
O3	O	1.754491	0.006015	-0.147454
O4	O	1.731032	0.250388	-0.147487
O5	O	1.754477	0.006014	0.147511
O6	O	1.527987	0.133252	0.147490
O7	O	1.957509	0.123147	0.147499
Cu8	Cu	1.742747	0.128200	0.174427
Cu9	Cu	1.742763	0.128202	-0.174403
O10	O	1.731019	0.250386	0.147478
C11	C	1.473030	0.132282	0.000007
C12	C	1.309255	0.129380	0.000004
C13	C	1.753510	-0.025287	0.000028
C14	C	1.750591	-0.118555	0.000029
C15	C	1.603223	-0.334527	0.000002
C16	C	1.671649	-0.395027	0.145439
C17	C	1.745309	-0.289321	0.000016
C18	C	1.671696	-0.395009	-0.145373
C19	C	1.740196	-0.454272	-0.000005
C20	C	1.813774	-0.348592	0.145573
C21	C	1.813801	-0.348568	-0.145370
C22	C	1.882330	-0.409049	0.000102
C23	C	1.748250	-0.194296	0.000029
C24	C	1.737266	-0.549295	-0.000006
C25	C	2.012480	0.124119	0.000013
C26	C	2.176255	0.127021	0.000004
C27	C	1.731999	0.281688	-0.000008
C28	C	1.734919	0.374956	-0.000021
N29	N	1.742746	0.128198	0.419776
N30	N	1.742775	0.128197	-0.419752
H31	H	1.485285	-0.302112	0.000145
Br32	Br	1.913894	-0.314255	-0.350312
Br33	Br	1.913855	-0.314525	0.350729
H34	H	1.611547	-0.415591	0.268392
Br35	Br	2.079070	-0.462830	0.000230
H36	H	1.611586	-0.415540	-0.268338
