data_functionalizedCrystal
_audit_creation_method	'MofGen! by Chris Wilmer'
_symmetry_space_group_name_H-M	'P1'
_symmetry_Int_Tables_number	1
_symmetry_cell_setting	triclinic
loop_
_symmetry_equiv_pos_as_xyz
  x,y,z
_cell_length_a	15.944493
_cell_length_b	14.421503
_cell_length_c	14.971486
_cell_angle_alpha	90.004087
_cell_angle_beta	96.455414
_cell_angle_gamma	90.007064
loop_
_atom_site_label
_atom_site_type_symbol
_atom_site_fract_x
_atom_site_fract_y
_atom_site_fract_z
O1	O	1.114669	0.077100	-0.115101
O2	O	0.870126	0.077104	-0.129377
O3	O	0.998952	0.077095	0.007970
O4	O	0.985843	0.077109	-0.252448
O5	O	0.998931	-0.077128	0.007949
O6	O	0.870105	-0.077119	-0.129398
O7	O	1.114648	-0.077124	-0.115121
Cu8	Cu	0.992374	-0.091203	-0.122261
Cu9	Cu	0.992400	0.091184	-0.122237
O10	O	0.985822	-0.077115	-0.252468
C11	C	0.838820	-0.000007	-0.128804
C12	C	0.745570	-0.000005	-0.127055
C13	C	0.509887	-0.000000	-0.207900
C14	C	0.459277	-0.076047	-0.164313
C15	C	0.574846	-0.000007	-0.123813
C16	C	0.459302	0.076005	-0.164273
C17	C	0.409933	-0.000005	-0.120688
C18	C	0.525464	-0.076116	-0.080249
C19	C	0.525493	0.076004	-0.080221
C20	C	0.474915	-0.000061	-0.036573
C21	C	0.669848	-0.000009	-0.125616
C22	C	0.314935	-0.000010	-0.118879
N23	N	0.992363	-0.219484	-0.122278
C24	C	0.932783	-0.469134	-0.185758
C25	C	1.008702	-0.530937	-0.203107
C26	C	0.992383	-0.408646	-0.122256
C27	C	0.916484	-0.530937	-0.104929
C28	C	0.992396	-0.591367	-0.122238
C29	C	1.068340	-0.469088	-0.139645
C30	C	0.976073	-0.469082	-0.041432
C31	C	1.052046	-0.530858	-0.058746
C32	C	0.992375	-0.303385	-0.122269
C33	C	0.992414	-0.696626	-0.122224
C34	C	1.145954	-0.000010	-0.115694
C35	C	1.239204	-0.000006	-0.117444
C36	C	0.998355	-0.000016	0.041283
C37	C	0.996598	-0.000015	0.140578
N38	N	0.992418	0.219465	-0.122214
C39	C	0.986419	-0.000001	-0.285782
C40	C	0.988176	0.000004	-0.385077
C41	C	1.072280	-0.000017	0.197902
C42	C	1.070624	-0.000008	0.291199
C43	C	0.993286	-0.000003	0.327171
C44	C	0.917599	0.000002	0.269840
C45	C	0.919255	-0.000001	0.176544
C46	C	0.914151	0.000005	0.464298
C47	C	0.912494	0.000006	0.557600
C48	C	1.065520	-0.000002	0.578953
C49	C	1.067177	-0.000004	0.485657
C50	C	0.991489	-0.000001	0.428333
H51	H	0.525580	-0.000068	-0.280332
C52	C	1.148775	0.000012	0.642005
H53	H	1.136715	0.000028	0.702721
H54	H	1.180481	-0.053769	0.631107
H55	H	1.180485	0.053800	0.631098
H56	H	0.459381	-0.000108	0.035914
C57	C	0.420212	-0.162888	-0.212294
H58	H	0.431915	-0.162793	-0.273129
H59	H	0.443747	-0.216887	-0.183030
H60	H	0.360865	-0.162546	-0.210341
C61	C	1.157353	-0.000022	0.158341
H62	H	1.202189	-0.000014	0.205847
H63	H	1.161176	-0.053804	0.122387
H64	H	1.161187	0.053765	0.122395
H65	H	0.554414	0.140294	-0.044728
H66	H	1.102508	-0.557789	-0.005033
H67	H	0.430407	0.140288	-0.199793
H68	H	1.132252	-0.000012	0.337869
C69	C	0.827427	0.000015	0.597172
H70	H	0.837283	0.000005	0.660946
H71	H	0.796270	0.053799	0.577504
H72	H	0.796251	-0.053770	0.577491
H73	H	0.554249	-0.140471	-0.044768
H74	H	0.852518	0.000010	0.417626
H75	H	0.852292	-0.558106	-0.090282
H76	H	0.882433	-0.442033	-0.239503
C77	C	1.027351	-0.567655	-0.295426
H78	H	0.984948	-0.546529	-0.340488
H79	H	1.080863	-0.545573	-0.308171
H80	H	1.027725	-0.633522	-0.294578
H81	H	1.132546	-0.442035	-0.154374
H82	H	0.962241	-0.441892	0.026890
H83	H	1.130152	-0.000015	0.456373
H84	H	0.854628	0.000012	0.299135
C85	C	0.836006	-0.000001	0.113488
H86	H	0.789708	-0.000006	0.148272
H87	H	0.833480	0.053779	0.076653
H88	H	0.833463	-0.053789	0.076647
