data_functionalizedCrystal
_audit_creation_method	'MofGen! by Chris Wilmer'
_symmetry_space_group_name_H-M	'P1'
_symmetry_Int_Tables_number	1
_symmetry_cell_setting	triclinic
loop_
_symmetry_equiv_pos_as_xyz
  x,y,z
_cell_length_a	14.519709
_cell_length_b	10.489741
_cell_length_c	13.596369
_cell_angle_alpha	89.994306
_cell_angle_beta	90.000291
_cell_angle_gamma	84.109659
loop_
_atom_site_label
_atom_site_type_symbol
_atom_site_fract_x
_atom_site_fract_y
_atom_site_fract_z
O1	O	1.224779	0.167203	-0.081663
O2	O	1.474779	0.417203	0.168337
O3	O	1.724779	0.667203	0.418337
O4	O	1.974779	0.917203	0.668337
O5	O	0.956410	0.186894	-0.081693
O6	O	1.206410	0.436894	0.168307
O7	O	1.456410	0.686894	0.418307
O8	O	1.706410	0.936894	0.668307
O9	O	1.096701	-0.008613	-0.081671
O10	O	1.346701	0.241387	0.168329
O11	O	1.596701	0.491387	0.418329
O12	O	1.846701	0.741387	0.668329
O13	O	1.084488	0.362710	-0.081684
O14	O	1.334488	0.612710	0.168316
O15	O	1.584488	0.862710	0.418316
O16	O	1.834488	1.112710	0.668316
O17	O	1.096687	-0.008623	0.081912
O18	O	1.346687	0.241377	0.331912
O19	O	1.596687	0.491377	0.581912
O20	O	1.846687	0.741377	0.831912
O21	O	0.956396	0.186883	0.081890
O22	O	1.206396	0.436883	0.331890
O23	O	1.456396	0.686883	0.581890
O24	O	1.706396	0.936883	0.831890
O25	O	1.224765	0.167193	0.081920
O26	O	1.474765	0.417193	0.331920
O27	O	1.724765	0.667193	0.581920
O28	O	1.974765	0.917193	0.831920
Zn29	Zn	1.090578	0.177037	0.107878
Zn30	Zn	1.340578	0.427037	0.357878
Zn31	Zn	1.590578	0.677037	0.607878
Zn32	Zn	1.840578	0.927037	0.857878
Zn33	Zn	1.090597	0.177050	-0.107650
Zn34	Zn	1.340597	0.427050	0.142350
Zn35	Zn	1.590597	0.677050	0.392350
Zn36	Zn	1.840597	0.927050	0.642350
O37	O	1.084474	0.362700	0.081899
O38	O	1.334474	0.612700	0.331899
O39	O	1.584474	0.862700	0.581899
O40	O	1.834474	1.112700	0.831899
C41	C	0.922038	0.185971	0.000095
C42	C	1.172038	0.435971	0.250095
C43	C	1.422038	0.685971	0.500095
C44	C	1.672038	0.935971	0.750095
C45	C	0.819642	0.183221	0.000084
C46	C	1.069642	0.433221	0.250084
C47	C	1.319642	0.683221	0.500084
C48	C	1.569642	0.933221	0.750084
C49	C	0.444691	0.173098	0.000129
C50	C	0.694691	0.423098	0.250129
C51	C	0.944691	0.673098	0.500129
C52	C	1.194691	0.923098	0.750129
C53	C	0.549014	0.175909	0.000116
C54	C	0.799014	0.425909	0.250116
C55	C	1.049014	0.675909	0.500116
C56	C	1.299014	0.925909	0.750116
C57	C	0.632163	0.178159	0.000105
C58	C	0.882163	0.428159	0.250105
C59	C	1.132163	0.678159	0.500105
C60	C	1.382163	0.928159	0.750105
C61	C	0.736493	0.180971	0.000094
C62	C	0.986493	0.430971	0.250094
C63	C	1.236493	0.680971	0.500094
C64	C	1.486493	0.930971	0.750094
C65	C	1.095772	-0.056140	0.000120
C66	C	1.345772	0.193860	0.250120
C67	C	1.595772	0.443860	0.500120
C68	C	1.845772	0.693860	0.750120
C69	C	1.093012	-0.197741	0.000118
C70	C	1.343012	0.052259	0.250118
C71	C	1.593012	0.302259	0.500118
C72	C	1.843012	0.552259	0.750118
C73	C	1.003749	-0.264951	0.000100
C74	C	1.253749	-0.014951	0.250100
C75	C	1.503749	0.235049	0.500100
C76	C	1.753749	0.485049	0.750100
C77	C	1.045909	-0.357518	0.080760
C78	C	1.295909	-0.107518	0.330760
C79	C	1.545909	0.142482	0.580760
C80	C	1.795909	0.392482	0.830760
C81	C	1.045944	-0.357482	-0.080520
C82	C	1.295944	-0.107482	0.169480
C83	C	1.545944	0.142518	0.419480
C84	C	1.795944	0.392518	0.669480
C85	C	1.135209	-0.288443	0.080844
C86	C	1.385209	-0.038443	0.330844
C87	C	1.635209	0.211557	0.580844
C88	C	1.885209	0.461557	0.830844
C89	C	1.135232	-0.288398	-0.080509
C90	C	1.385232	-0.038398	0.169491
C91	C	1.635232	0.211602	0.419491
C92	C	1.885232	0.461602	0.669491
C93	C	1.177457	-0.380938	0.000171
C94	C	1.427457	-0.130938	0.250171
C95	C	1.677457	0.119062	0.500171
C96	C	1.927457	0.369062	0.750171
C97	C	1.259137	0.168116	0.000130
C98	C	1.509137	0.418116	0.250130
C99	C	1.759137	0.668116	0.500130
C100	C	2.009137	0.918116	0.750130
C101	C	1.361533	0.170866	0.000135
C102	C	1.611533	0.420866	0.250135
C103	C	1.861533	0.670866	0.500135
C104	C	2.111533	0.920866	0.750135
C105	C	1.085403	0.410227	0.000106
C106	C	1.335403	0.660227	0.250106
C107	C	1.585403	0.910227	0.500106
C108	C	1.835403	1.160227	0.750106
C109	C	1.088163	0.551828	0.000101
C110	C	1.338163	0.801828	0.250101
C111	C	1.588163	1.051828	0.500101
C112	C	1.838163	1.301828	0.750101
N113	N	1.090572	0.177026	0.254969
N114	N	1.340572	0.427026	0.504969
N115	N	1.590572	0.677026	0.754969
N116	N	1.840572	0.927026	1.004969
N117	N	1.090610	0.177050	-0.254742
N118	N	1.340610	0.427050	-0.004742
N119	N	1.590610	0.677050	0.245258
N120	N	1.840610	0.927050	0.495258
C121	C	1.090596	0.177052	0.656260
C122	C	1.340596	0.427052	0.906260
C123	C	1.590596	0.677052	1.156260
C124	C	1.840596	0.927052	1.406260
C125	C	1.090586	0.177049	0.544609
C126	C	1.340586	0.427049	0.794609
C127	C	1.590586	0.677049	1.044609
C128	C	1.840586	0.927049	1.294609
C129	C	1.090584	0.177040	0.455618
C130	C	1.340584	0.427040	0.705618
C131	C	1.590584	0.677040	0.955618
C132	C	1.840584	0.927040	1.205618
C133	C	1.090574	0.177035	0.343960
C134	C	1.340574	0.427035	0.593960
C135	C	1.590574	0.677035	0.843960
C136	C	1.840574	0.927035	1.093960
H137	H	0.930357	-0.214534	0.000173
H138	H	1.180357	0.035466	0.250173
H139	H	1.430357	0.285466	0.500173
H140	H	1.680357	0.535466	0.750173
H141	H	1.008134	-0.388140	0.148944
H142	H	1.258134	-0.138140	0.398944
H143	H	1.508134	0.111860	0.648944
H144	H	1.758134	0.361860	0.898944
Br145	Br	1.198102	-0.237728	0.194627
Br146	Br	1.448102	0.012272	0.444627
Br147	Br	1.698102	0.262272	0.694627
Br148	Br	1.948102	0.512272	0.944627
Br149	Br	1.198143	-0.237300	-0.194159
Br150	Br	1.448143	0.012700	0.055841
Br151	Br	1.698143	0.262700	0.305841
Br152	Br	1.948143	0.512700	0.555841
H153	H	1.250914	-0.431128	0.000224
H154	H	1.500914	-0.181128	0.250224
H155	H	1.750914	0.068872	0.500224
H156	H	2.000914	0.318872	0.750224
H157	H	1.008169	-0.388048	-0.148718
H158	H	1.258169	-0.138048	0.101282
H159	H	1.508169	0.111952	0.351282
H160	H	1.758169	0.361952	0.601282
