data_functionalizedCrystal
_audit_creation_method	'MofGen! by Chris Wilmer'
_symmetry_space_group_name_H-M	'P1'
_symmetry_Int_Tables_number	1
_symmetry_cell_setting	triclinic
loop_
_symmetry_equiv_pos_as_xyz
  x,y,z
_cell_length_a	23.532407
_cell_length_b	23.532407
_cell_length_c	22.610064
_cell_angle_alpha	90.000603
_cell_angle_beta	89.997161
_cell_angle_gamma	97.151322
loop_
_atom_site_label
_atom_site_type_symbol
_atom_site_fract_x
_atom_site_fract_y
_atom_site_fract_z
O1	O	0.755263	-0.069127	-0.049117
O2	O	0.589400	-0.079130	-0.049135
O3	O	0.677333	0.008803	-0.049114
O4	O	0.667330	-0.157060	-0.049137
O5	O	0.677318	0.008790	0.049255
O6	O	0.589385	-0.079143	0.049234
O7	O	0.755248	-0.069140	0.049252
Zn8	Zn	0.672314	-0.074144	0.064862
Zn9	Zn	0.672334	-0.074127	-0.064744
O10	O	0.667315	-0.157073	0.049232
C11	C	0.568176	-0.078882	0.000048
C12	C	0.504959	-0.078116	0.000041
C13	C	0.105856	-0.125350	0.000061
C14	C	0.046456	-0.124638	0.000065
O15	O	0.009711	-0.168424	0.000081
N16	N	0.023830	-0.072362	0.000071
C17	C	0.060607	-0.020794	0.000080
O18	O	0.035908	0.023737	0.000086
C19	C	0.120006	-0.021506	0.000080
C20	C	0.142629	-0.073785	0.000068
C21	C	0.128479	-0.177625	0.000050
C22	C	0.187876	-0.178336	0.000045
C23	C	0.224649	-0.126772	0.000052
C24	C	0.202025	-0.074497	0.000063
C25	C	0.156783	0.030062	0.000093
C26	C	0.216185	0.029345	0.000094
C27	C	0.238808	-0.022934	0.000082
C28	C	0.298194	-0.023643	0.000065
N29	N	0.320820	-0.075920	0.000059
C30	C	0.284048	-0.127484	0.000052
C31	C	-0.064135	-0.019302	0.000080
C32	C	-0.123533	-0.018589	0.000075
C33	C	-0.137680	-0.122434	0.000061
C34	C	-0.078281	-0.123146	0.000062
C35	C	-0.041509	-0.071578	0.000074
C36	C	0.408784	-0.128974	0.000042
C37	C	0.468186	-0.129680	0.000034
C38	C	0.482329	-0.025836	0.000051
C39	C	0.422932	-0.025129	0.000055
C40	C	0.386160	-0.076702	0.000052
O41	O	0.334974	0.020119	0.000052
O42	O	0.308755	-0.172007	0.000054
C43	C	0.677071	0.030013	0.000072
C44	C	0.676305	0.093230	0.000076
C45	C	0.776472	-0.069388	0.000069
C46	C	0.839689	-0.070154	0.000071
C47	C	0.667577	-0.178283	0.000045
C48	C	0.668343	-0.241500	0.000036
N49	N	0.672304	-0.074155	0.153314
C50	C	0.723539	0.492333	0.000049
C51	C	0.722827	0.551733	0.000044
O52	O	0.766613	0.588478	0.000027
N53	N	0.670551	0.574359	0.000039
C54	C	0.618983	0.537582	0.000032
O55	O	0.574452	0.562281	0.000027
C56	C	0.619695	0.478182	0.000033
C57	C	0.671974	0.455560	0.000044
C58	C	0.775814	0.469710	0.000060
C59	C	0.776525	0.410313	0.000065
C60	C	0.724961	0.373540	0.000060
C61	C	0.672685	0.396164	0.000050
C62	C	0.568127	0.441406	0.000022
C63	C	0.568844	0.382004	0.000021
C64	C	0.621123	0.359381	0.000033
C65	C	0.621832	0.299995	0.000050
N66	N	0.674109	0.277368	0.000056
C67	C	0.725673	0.314141	0.000061
C68	C	0.617491	0.662324	0.000031
C69	C	0.616778	0.721722	0.000034
C70	C	0.720623	0.735869	0.000045
C71	C	0.721335	0.676470	0.000046
C72	C	0.669767	0.639698	0.000036
C73	C	0.727163	0.189405	0.000073
C74	C	0.727869	0.130003	0.000081
C75	C	0.624025	0.115860	0.000067
C76	C	0.623318	0.175257	0.000062
C77	C	0.674891	0.212029	0.000063
O78	O	0.578070	0.263215	0.000065
O79	O	0.770196	0.289433	0.000058
N80	N	0.672349	-0.074111	-0.153196
C81	C	0.711273	-0.035196	0.561965
C82	C	0.711276	-0.035192	0.623884
O83	O	0.744384	-0.002076	0.655911
N84	N	0.672334	-0.074115	0.654851
C85	C	0.633383	-0.113041	0.623895
O86	O	0.600259	-0.146147	0.655920
C87	C	0.633377	-0.113042	0.561976
C88	C	0.672326	-0.074120	0.531013
C89	C	0.750218	0.003724	0.531001
C90	C	0.750215	0.003719	0.469085
C91	C	0.711268	-0.035206	0.438133
C92	C	0.672323	-0.074125	0.469097
C93	C	0.594424	-0.151965	0.531021
C94	C	0.594422	-0.151962	0.469098
C95	C	0.633370	-0.113040	0.438134
C96	C	0.633374	-0.113054	0.376229
N97	N	0.672316	-0.074131	0.345262
C98	C	0.711263	-0.035207	0.376214
C99	C	0.633396	-0.113035	0.753928
C100	C	0.633403	-0.113037	0.815846
C101	C	0.711296	-0.035187	0.815831
C102	C	0.711291	-0.035188	0.753913
C103	C	0.672338	-0.074112	0.722962
C104	C	0.711255	-0.035220	0.246187
C105	C	0.711251	-0.035230	0.184266
C106	C	0.633357	-0.113078	0.184286
C107	C	0.633363	-0.113071	0.246202
C108	C	0.672314	-0.074137	0.277151
O109	O	0.600281	-0.146152	0.344163
O110	O	0.744376	-0.002101	0.344182
H111	H	0.138375	0.072634	0.000103
O112	O	0.567357	0.626663	-0.000049
C113	C	0.535610	0.636867	-0.051005
H114	H	0.549865	0.682004	-0.067991
H115	H	0.488086	0.632434	-0.039550
H116	H	0.543207	0.604414	-0.086678
O117	O	0.749108	0.002637	0.154280
C118	C	0.783491	0.036983	0.194882
H119	H	0.760145	0.037509	0.239021
H120	H	0.792438	0.082510	0.176991
H121	H	0.825690	0.018706	0.201466
H122	H	0.601653	-0.144770	0.271413
O123	O	0.517292	0.463277	-0.000018
C124	C	0.471940	0.418073	-0.000012
H125	H	0.487683	0.377808	-0.018628
H126	H	0.435425	0.430277	-0.028581
H127	H	0.456040	0.409579	0.047178
H128	H	-0.141947	0.023982	0.000076
H129	H	0.562700	-0.183658	0.443901
H130	H	0.743008	-0.003492	0.841044
H131	H	0.601694	-0.144737	0.841052
H132	H	0.762610	0.765821	0.000047
O133	O	0.825870	0.505484	0.000144
C134	C	0.828568	0.540255	0.051099
H135	H	0.783379	0.543019	0.068076
H136	H	0.850053	0.585016	0.039646
H137	H	0.854452	0.520847	0.086778
H138	H	0.378851	-0.170970	0.000041
O139	O	0.827275	0.388276	-0.000011
C140	C	0.830811	0.354355	-0.050965
H141	H	0.785840	0.339303	-0.067950
H142	H	0.853295	0.315585	-0.039507
H143	H	0.856155	0.380744	-0.086639
H144	H	-0.059867	-0.165717	0.000055
H145	H	0.246123	0.071339	0.000104
H146	H	0.601677	-0.144736	0.728731
H147	H	0.580748	0.193677	0.000069
H148	H	0.770443	0.111587	0.000092
O149	O	0.566044	0.743789	0.000055
C150	C	0.576464	0.804102	0.000035
H151	H	0.620985	0.818302	0.018664
H152	H	0.543026	0.822156	0.028587
H153	H	0.573808	0.820618	-0.047160
O154	O	0.517974	0.024304	0.000031
C155	C	0.485275	0.070602	0.000057
H156	H	0.440858	0.055898	-0.018568
H157	H	0.507391	0.106713	-0.028496
H158	H	0.481134	0.086634	0.047253
H159	H	0.781929	0.035414	0.443878
O160	O	0.772169	0.654592	0.000024
C161	C	0.817524	0.699793	0.000045
H162	H	0.801793	0.740059	-0.018577
H163	H	0.854049	0.687586	-0.028512
H164	H	0.833407	0.708284	0.047240
O165	O	0.518764	0.346260	-0.000091
C166	C	0.516083	0.311465	-0.051028
H167	H	0.545341	0.333376	-0.086633
H168	H	0.470173	0.304535	-0.068136
H169	H	0.530566	0.268347	-0.039503
H170	H	0.582043	0.085909	0.000065
O171	O	0.556533	-0.189795	0.560997
C172	C	0.522169	-0.224152	0.520389
H173	H	0.521666	-0.200800	0.476253
H174	H	0.476638	-0.233069	0.538276
H175	H	0.540415	-0.266369	0.513800
H176	H	0.206289	-0.220908	0.000035
H177	H	0.781933	0.035423	0.556197
H178	H	0.601648	-0.144772	0.159075
H179	H	0.404512	0.017441	0.000056
H180	H	0.486602	-0.172255	0.000024
O181	O	0.092844	-0.227771	0.000015
C182	C	0.125562	-0.274056	0.000021
H183	H	0.169979	-0.259328	-0.018596
H184	H	0.103463	-0.310161	-0.028548
H185	H	0.129701	-0.290106	0.047210
O186	O	0.749117	0.002520	0.276309
C187	C	0.784092	-0.027797	0.312111
H188	H	0.761155	-0.072475	0.321402
H189	H	0.793247	-0.003970	0.355646
H190	H	0.826153	-0.031460	0.288238
H191	H	0.769159	0.219337	0.000071
O192	O	-0.173489	-0.172473	0.000084
C193	C	-0.230765	-0.160628	0.000072
H194	H	-0.232791	-0.115910	0.018702
H195	H	-0.257863	-0.193518	0.028628
H196	H	-0.247955	-0.162880	-0.047120
O197	O	-0.028497	0.030847	0.000055
C198	C	-0.061211	0.077135	0.000074
H199	H	-0.105625	0.062415	-0.018548
H200	H	-0.039105	0.113247	-0.028483
H201	H	-0.065356	0.093171	0.047268
H202	H	0.743005	-0.003494	0.728706
