data_functionalizedCrystal
_audit_creation_method	'MofGen! by Chris Wilmer'
_symmetry_space_group_name_H-M	'P1'
_symmetry_Int_Tables_number	1
_symmetry_cell_setting	triclinic
loop_
_symmetry_equiv_pos_as_xyz
  x,y,z
_cell_length_a	12.759401
_cell_length_b	21.295417
_cell_length_c	12.759393
_cell_angle_alpha	89.960633
_cell_angle_beta	90.018567
_cell_angle_gamma	89.965378
loop_
_atom_site_label
_atom_site_type_symbol
_atom_site_fract_x
_atom_site_fract_y
_atom_site_fract_z
Zn1	Zn	1.606103	0.250588	0.593926
Zn2	Zn	2.106103	0.750588	1.093926
Zn3	Zn	1.605933	0.355872	0.418222
Zn4	Zn	2.105933	0.855872	0.918222
Zn5	Zn	1.430405	0.250619	0.418265
Zn6	Zn	1.930405	0.750619	0.918265
Zn7	Zn	1.430330	0.355822	0.593864
Zn8	Zn	1.930330	0.855822	1.093864
O9	O	1.518193	0.303225	0.506070
O10	O	2.018193	0.803225	1.006070
O11	O	1.753101	0.264563	0.570627
O12	O	2.253101	0.764563	1.070627
O13	O	1.582610	0.341944	0.271207
O14	O	2.082610	0.841944	0.771207
O15	O	1.453814	0.162526	0.441611
O16	O	1.953814	0.662526	0.941611
O17	O	1.752977	0.341914	0.441538
O18	O	2.252977	0.841914	0.941538
O19	O	1.582899	0.162503	0.570669
O20	O	2.082899	0.662503	1.070669
O21	O	1.453650	0.264615	0.271239
O22	O	1.953650	0.764615	0.771239
O23	O	1.283374	0.264566	0.441551
O24	O	1.783374	0.764566	0.941551
O25	O	1.453686	0.341828	0.740893
O26	O	1.953686	0.841828	1.240893
O27	O	1.283319	0.341858	0.570562
O28	O	1.783319	0.841858	1.070562
O29	O	1.582826	0.264514	0.740939
O30	O	2.082826	0.764514	1.240939
O31	O	1.582537	0.443955	0.441478
O32	O	2.082537	0.943955	0.941478
O33	O	1.453521	0.443918	0.570520
O34	O	1.953521	0.943918	1.070520
C35	C	1.245225	0.303211	0.506055
C36	C	1.745225	0.803211	1.006055
C37	C	1.128449	0.303219	0.506074
C38	C	1.628449	0.803219	1.006074
C39	C	1.073645	0.263018	0.573394
C40	C	1.573645	0.763018	1.073394
C41	C	0.963921	0.263030	0.573401
C42	C	1.463921	0.763030	1.073401
C43	C	0.963814	0.343450	0.438763
C44	C	1.463814	0.843450	0.938763
C45	C	1.073536	0.343434	0.438752
C46	C	1.573536	0.843434	0.938752
C47	C	1.073705	0.216591	0.651130
C48	C	1.573705	0.716591	1.151130
C49	C	0.963981	0.216603	0.651136
C50	C	1.463981	0.716603	1.151136
C51	C	1.518031	0.466777	0.506010
C52	C	2.018031	0.966777	1.006010
C53	C	1.518058	0.536745	0.506020
C54	C	2.018058	1.036745	1.006020
C55	C	1.585228	0.569543	0.573267
C56	C	2.085228	1.069543	1.073267
C57	C	1.585254	0.635285	0.573291
C58	C	2.085254	1.135285	1.073291
C59	C	1.518120	0.668228	0.506049
C60	C	2.018120	1.168228	1.006049
C61	C	1.450937	0.635422	0.438797
C62	C	1.950937	1.135422	0.938797
C63	C	1.450906	0.569681	0.438783
C64	C	1.950906	1.069681	0.938783
N65	N	1.510164	0.771497	0.414098
N66	N	2.010164	1.271497	0.914098
N67	N	1.510200	0.833948	0.414115
N68	N	2.010200	1.333948	0.914115
C69	C	1.518209	0.866302	0.506089
C70	C	2.018209	1.366302	1.006089
N71	N	1.526202	0.833846	0.598048
N72	N	2.026202	1.333846	1.098048
N73	N	1.526171	0.771388	0.598030
N74	N	2.026171	1.271388	1.098030
C75	C	1.518146	0.739513	0.506057
C76	C	2.018146	1.239513	1.006057
C77	C	1.585411	0.970385	0.573367
C78	C	2.085411	1.470385	1.073367
C79	C	1.585429	1.036129	0.573392
C80	C	2.085429	1.536129	1.073392
C81	C	1.451118	1.036265	0.438889
C82	C	1.951118	1.536265	0.938889
C83	C	1.451094	0.970522	0.438873
C84	C	1.951094	1.470522	0.938873
C85	C	1.518246	0.937586	0.506111
C86	C	2.018246	1.437586	1.006111
C87	C	1.792226	0.303241	0.506085
C88	C	2.292226	0.803241	1.006085
C89	C	1.909003	0.303247	0.506091
C90	C	2.409003	0.803247	1.006091
C91	C	1.518266	0.303162	0.780103
C92	C	2.018266	0.803162	1.280103
C93	C	1.518298	0.303135	0.896880
C94	C	2.018298	0.803135	1.396880
C95	C	1.518341	1.139035	0.506143
C96	C	2.018341	1.639035	1.006143
C97	C	1.518294	1.069067	0.506151
C98	C	2.018294	1.569067	1.006151
C99	C	1.518180	0.303243	0.233102
C100	C	2.018180	0.803243	0.733102
C101	C	1.518352	0.303093	0.116326
C102	C	2.018352	0.803093	0.616326
C103	C	1.585550	0.262873	0.951767
C104	C	2.085550	0.762873	1.451767
C105	C	1.585575	0.262850	1.061492
C106	C	2.085575	0.762850	1.561492
C107	C	1.451092	0.343356	1.061431
C108	C	1.951092	0.843356	1.561431
C109	C	1.451063	0.343375	0.951709
C110	C	1.951063	0.843375	1.451709
C111	C	1.663196	0.216396	0.951803
C112	C	2.163196	0.716396	1.451803
C113	C	1.663221	0.216373	1.061528
C114	C	2.163221	0.716373	1.561528
H115	H	1.107760	0.234106	0.728364
H116	H	1.607760	0.734106	1.228364
H117	H	1.640127	1.062832	0.628158
H118	H	2.140127	1.562832	1.128158
O119	O	1.113176	0.151987	0.622452
O120	O	1.613176	0.651987	1.122452
H121	H	1.161523	0.133134	0.687616
H122	H	1.661523	0.633134	1.187616
O123	O	1.378539	0.670947	0.366256
O124	O	1.878539	1.170947	0.866256
H125	H	1.389857	0.722172	0.377550
H126	H	1.889857	1.222172	0.877550
H127	H	0.919091	0.376192	0.383953
H128	H	1.419091	0.876192	0.883953
H129	H	1.639904	0.542728	0.628018
H130	H	2.139904	1.042728	1.128018
O131	O	0.924563	0.233982	0.758866
O132	O	1.424563	0.733982	1.258866
H133	H	0.837573	0.233973	0.758805
H134	H	1.337573	0.733973	1.258805
H135	H	1.396206	0.542976	0.384021
H136	H	1.896206	1.042976	0.884021
O137	O	1.657825	0.934854	0.645890
O138	O	2.157825	1.434854	1.145890
H139	H	1.704527	0.968708	0.692669
H140	H	2.204527	1.468708	1.192669
H141	H	1.639943	0.661994	0.628063
H142	H	2.139943	1.161994	1.128063
O143	O	1.378654	0.935141	0.366335
O144	O	1.878654	1.435141	0.866335
H145	H	1.425697	0.905187	0.312926
H146	H	1.925697	1.405187	0.812926
O147	O	1.378711	1.071784	0.366355
O148	O	1.878711	1.571784	0.866355
H149	H	1.390022	1.123009	0.377655
H150	H	1.890022	1.623009	0.877655
H151	H	1.396296	0.376158	0.907023
H152	H	1.896296	0.876158	1.407023
H153	H	1.396350	0.376117	1.106086
H154	H	1.896350	0.876117	1.606086
O155	O	1.634403	0.151824	0.912387
O156	O	2.134403	0.651824	1.412387
H157	H	1.620318	0.120197	0.980107
H158	H	2.120318	0.620197	1.480107
O159	O	1.765538	0.239534	0.906698
O160	O	2.265538	0.739534	1.406698
H161	H	1.819822	0.251784	0.971518
H162	H	2.319822	0.751784	1.471518
O163	O	1.624717	0.155013	1.106650
O164	O	2.124717	0.655013	1.606650
H165	H	1.543296	0.146266	1.079739
H166	H	2.043296	0.646266	1.579739
H167	H	1.744584	0.229431	1.091303
H168	H	2.244584	0.729431	1.591303
O169	O	1.132643	0.386788	0.366128
O170	O	1.632643	0.886788	0.866128
H171	H	1.218166	0.380018	0.377419
H172	H	1.718166	0.880018	0.877419
O173	O	0.918910	0.155236	0.612738
O174	O	1.418910	0.655236	1.112738
H175	H	0.983748	0.122688	0.592381
H176	H	1.483748	0.622688	1.092381
