data_functionalizedCrystal
_audit_creation_method	'MofGen! by Chris Wilmer'
_symmetry_space_group_name_H-M	'P1'
_symmetry_Int_Tables_number	1
_symmetry_cell_setting	triclinic
loop_
_symmetry_equiv_pos_as_xyz
  x,y,z
_cell_length_a	6.817900
_cell_length_b	11.102183
_cell_length_c	10.992410
_cell_angle_alpha	91.891880
_cell_angle_beta	108.764651
_cell_angle_gamma	108.603876
loop_
_atom_site_label
_atom_site_type_symbol
_atom_site_fract_x
_atom_site_fract_y
_atom_site_fract_z
V1	V	-4.113408	-0.175839	-0.400591
O2	O	-4.072416	0.008450	-0.392968
O3	O	-4.090162	-0.348658	-0.397849
O4	O	-4.091013	-0.173134	-0.575303
O5	O	-4.071559	-0.168290	-0.214285
V6	V	-4.590407	-0.153796	-0.378307
O7	O	-4.388978	-0.224192	-0.449471
O8	O	-4.765035	-0.105442	-0.329427
O9	O	-4.390447	0.019024	-0.381049
O10	O	-4.748796	-0.338084	-0.385931
O11	O	-4.749654	-0.161344	-0.564614
O12	O	-4.389596	-0.156500	-0.203595
C13	C	-3.940440	-0.390788	-0.391529
C14	C	-4.002894	-0.532070	-0.390452
C15	C	-3.941525	-0.166887	-0.617888
C16	C	-4.004665	-0.165820	-0.760716
C17	C	-3.881428	-0.495793	-0.155125
C18	C	-3.850033	-0.544028	-0.036960
C19	C	-3.908721	-0.676776	-0.035955
C20	C	-3.998819	-0.761294	-0.153127
C21	C	-4.030214	-0.713059	-0.271292
C22	C	-3.971512	-0.580306	-0.272285
C23	C	-4.151693	-0.749336	-0.506616
C24	C	-4.092991	-0.616588	-0.507624
C25	C	-4.241790	-0.833854	-0.623789
C26	C	-4.273172	-0.785619	-0.741956
C27	C	-4.214475	-0.652862	-0.742956
C28	C	-4.124386	-0.568353	-0.625789
C29	C	-3.871834	-0.156089	-0.955840
C30	C	-3.806276	-0.157727	-0.807357
C31	C	-4.202082	-0.291130	-0.837819
C32	C	-4.266401	-0.290022	-0.986385
C33	C	-4.145326	-0.047376	-0.948357
C34	C	-4.074620	-0.046781	-0.799344
C35	C	-4.203511	0.061147	-0.387366
C36	C	-4.120298	0.202428	-0.388452
C37	C	-4.202426	-0.162751	-0.161004
C38	C	-4.118523	-0.163812	-0.018174
H39	H	-3.833575	-0.387699	-0.155930
N40	N	-3.730000	-0.270088	-0.774505
H41	H	-3.827765	-0.329273	-0.733007
H42	H	-3.572202	-0.237446	-0.712010
N43	N	-4.248338	-0.600854	-0.870415
H44	H	-4.101539	-0.542193	-0.871727
H45	H	-4.351922	-0.551044	-0.880362
N46	N	-4.062132	-0.904473	-0.152054
H47	H	-4.225273	-0.947962	-0.202367
H48	H	-4.028447	-0.922100	-0.059386
H49	H	-4.076555	-0.460259	-0.626591
N50	N	-3.610195	-0.038382	-0.736690
H51	H	-3.565665	0.015767	-0.801937
H52	H	-3.482647	-0.063922	-0.683445
H53	H	-3.883162	-0.716048	0.060265
N54	N	-3.752872	-0.452873	0.089414
H55	H	-3.720449	-0.361457	0.070853
H56	H	-3.611449	-0.463759	0.145323
H57	H	-4.155898	-0.379510	-0.812212
H58	H	-4.289587	-0.941944	-0.622962
N59	N	-3.717138	-0.035924	-0.980784
H60	H	-3.805456	0.014677	-1.032736
H61	H	-3.631590	-0.060505	-1.031119
N62	N	-3.838247	-0.266908	-1.019388
H63	H	-3.874184	-0.262976	-1.115437
H64	H	-3.938707	-0.350714	-1.006431
N65	N	-3.885447	0.076017	-0.730023
H66	H	-3.754970	0.054643	-0.673824
H67	H	-3.932847	0.126347	-0.673769
H68	H	-4.346542	-0.854443	-0.837348
N69	N	-4.507403	-0.304446	-1.042867
H70	H	-4.571430	-0.311500	-0.971236
H71	H	-4.590149	-0.384554	-1.109784
H72	H	-4.216740	-0.045310	-0.766832
H73	H	-4.250418	-0.378186	-1.032655
H74	H	-4.352408	-0.301577	-0.809015
H75	H	-4.042866	0.047782	-0.968716
N76	N	-4.382371	-0.053395	-1.002449
H77	H	-4.472026	-0.131123	-1.071835
H78	H	-4.388456	0.027060	-1.041364
