data_functionalizedCrystal
_audit_creation_method	'MofGen! by Chris Wilmer'
_symmetry_space_group_name_H-M	'P1'
_symmetry_Int_Tables_number	1
_symmetry_cell_setting	triclinic
loop_
_symmetry_equiv_pos_as_xyz
  x,y,z
_cell_length_a	14.519709
_cell_length_b	10.654562
_cell_length_c	9.130313
_cell_angle_alpha	89.996930
_cell_angle_beta	89.995060
_cell_angle_gamma	95.914876
loop_
_atom_site_label
_atom_site_type_symbol
_atom_site_fract_x
_atom_site_fract_y
_atom_site_fract_z
O1	O	-0.129584	1.666579	-0.121873
O2	O	-0.141913	1.300984	-0.121853
O3	O	-0.001560	1.493475	-0.121877
O4	O	-0.269936	1.474088	-0.121849
O5	O	-0.001564	1.493472	0.121722
O6	O	-0.141916	1.300981	0.121746
O7	O	-0.129588	1.666576	0.121725
Cu8	Cu	-0.135752	1.483779	0.143978
Cu9	Cu	-0.135748	1.483782	-0.144106
O10	O	-0.269940	1.474086	0.121749
C11	C	-0.141007	1.254194	-0.000051
C12	C	-0.138291	1.114777	-0.000045
C13	C	-0.137027	1.049257	0.132729
C14	C	-0.134482	0.918260	0.132705
C15	C	-0.134471	0.918312	-0.132880
C16	C	-0.137009	1.049309	-0.132854
C17	C	-0.138309	1.114726	0.265538
C18	C	-0.137045	1.049206	0.398323
C19	C	-0.134501	0.918208	0.398299
C20	C	-0.133220	0.852730	0.265489
C21	C	-0.304302	1.474990	-0.000047
C22	C	-0.406698	1.477698	-0.000037
C23	C	-0.781646	1.487665	-0.000096
C24	C	-0.677323	1.484897	-0.000079
C25	C	-0.594175	1.482682	-0.000065
C26	C	-0.489846	1.479913	-0.000051
C27	C	0.032802	1.492570	-0.000084
C28	C	0.135198	1.489862	-0.000104
C29	C	-0.130493	1.713367	-0.000080
C30	C	-0.133209	1.852783	-0.000096
N31	N	-0.135755	1.483786	0.346601
N32	N	-0.135738	1.483784	-0.346728
C33	C	-0.073628	1.569042	0.423242
C34	C	-0.073617	1.569039	0.576579
C35	C	-0.197868	1.398519	0.576619
C36	C	-0.197874	1.398517	0.423285
C37	C	-0.011510	1.654312	0.346557
C38	C	0.050621	1.739576	0.423199
C39	C	0.050632	1.739573	0.576535
C40	C	-0.011488	1.654305	0.653231
H41	H	-0.133431	0.864990	-0.241007
H42	H	-0.011467	1.654301	0.778088
F43	F	-0.263977	1.307779	0.658248
F44	F	-0.263995	1.307773	0.341717
H45	H	-0.140383	1.221390	0.265574
F46	F	-0.133149	0.848481	0.539617
F47	F	-0.138353	1.119044	-0.274167
F48	F	0.116737	1.830309	0.341574
H49	H	-0.138081	1.102527	0.506452
F50	F	0.116763	1.830306	0.658101
F51	F	-0.130490	0.713313	0.265470
F52	F	-0.011520	1.654325	0.183363
