data_functionalizedCrystal
_audit_creation_method	'MofGen! by Chris Wilmer'
_symmetry_space_group_name_H-M	'P1'
_symmetry_Int_Tables_number	1
_symmetry_cell_setting	triclinic
loop_
_symmetry_equiv_pos_as_xyz
  x,y,z
_cell_length_a	19.288867
_cell_length_b	15.995350
_cell_length_c	17.766277
_cell_angle_alpha	89.995869
_cell_angle_beta	89.992126
_cell_angle_gamma	83.314722
loop_
_atom_site_label
_atom_site_type_symbol
_atom_site_fract_x
_atom_site_fract_y
_atom_site_fract_z
O1	O	0.921623	0.104460	-0.062564
O2	O	0.719399	0.118548	-0.062571
O3	O	0.826039	-0.010405	-0.062567
O4	O	0.814983	0.233412	-0.062568
O5	O	0.826020	-0.010411	0.062622
O6	O	0.719381	0.118542	0.062618
O7	O	0.921605	0.104453	0.062624
Cu8	Cu	0.820491	0.111497	0.074052
Cu9	Cu	0.820513	0.111504	-0.073998
O10	O	0.814965	0.233406	0.062620
C11	C	0.693512	0.118091	0.000022
C12	C	0.616405	0.116730	0.000020
C13	C	0.060825	0.106925	-0.068212
C14	C	0.133276	0.108200	-0.068215
C15	C	0.169496	0.108837	0.000025
C16	C	0.133261	0.108179	0.068273
C17	C	0.060813	0.106896	0.068274
C18	C	0.278948	0.159907	0.052306
C19	C	0.351394	0.161195	0.052302
C20	C	0.392952	0.112790	0.000026
C21	C	0.362052	0.063108	-0.052260
C22	C	0.289603	0.061825	-0.052259
C23	C	0.248054	0.110228	0.000032
C24	C	0.507737	0.114824	-0.068221
C25	C	0.580190	0.116093	-0.068221
C26	C	0.580173	0.116081	0.068269
C27	C	0.507723	0.114803	0.068267
C28	C	0.471509	0.114179	0.000020
C29	C	0.825573	-0.041601	0.000026
C30	C	0.824203	-0.134546	0.000022
C31	C	0.819281	-0.472275	0.000024
C32	C	0.743335	-0.424555	-0.000259
C33	C	0.744705	-0.327870	0.000023
C34	C	0.821722	-0.304724	0.000023
C35	C	0.859171	-0.345946	0.071511
C36	C	0.857264	-0.442575	0.071571
C37	C	0.858854	-0.442931	-0.070792
C38	C	0.858836	-0.345986	-0.071736
C39	C	0.823106	-0.210032	0.000024
C40	C	0.817900	-0.566968	0.000028
C41	C	0.947491	0.104910	0.000029
C42	C	1.024599	0.106272	0.000027
C43	C	0.815431	0.264602	0.000026
C44	C	0.816801	0.357547	0.000025
N45	N	0.820480	0.111491	0.178182
N46	N	0.820529	0.111504	-0.178129
C47	C	0.867716	0.054418	0.217571
C48	C	0.867720	0.054414	0.296373
C49	C	0.820495	0.111497	0.335783
C50	C	0.773251	0.168574	0.296384
C51	C	0.773243	0.168571	0.217584
C52	C	0.811394	0.187788	0.460620
C53	C	0.811406	0.187792	0.539419
C54	C	0.820514	0.111507	0.578829
C55	C	0.829623	0.035215	0.539431
C56	C	0.829616	0.035211	0.460630
C57	C	0.820497	0.111507	0.421228
C58	C	0.867756	0.054426	0.703664
C59	C	0.867755	0.054421	0.782467
C60	C	0.773289	0.168588	0.782477
C61	C	0.773287	0.168586	0.703675
C62	C	0.820524	0.111506	0.664273
H63	H	0.609663	0.116597	0.123831
Cl64	Cl	0.462177	0.113995	0.154058
Cl65	Cl	0.841078	-0.060693	0.588966
Cl66	Cl	0.015303	0.106133	-0.154008
H67	H	0.609685	0.116619	-0.123792
H68	H	0.376545	0.201669	0.094860
H69	H	0.829940	-0.460776	0.125010
H70	H	0.833146	-0.317469	0.124711
Cl71	Cl	0.927135	-0.017335	0.654128
Cl72	Cl	0.462209	0.114033	-0.154015
H73	H	0.913022	-0.475033	0.074814
H74	H	0.734835	0.215063	0.814564
Cl75	Cl	0.226712	0.220755	0.118039
H76	H	0.906218	0.007942	0.814538
Cl77	Cl	0.178794	0.108977	0.154061
H78	H	0.803993	0.249914	0.571491
Cl79	Cl	0.699254	-0.283810	-0.079096
H80	H	0.734826	0.215063	0.671603
H81	H	0.713106	-0.444038	0.050719
Cl82	Cl	0.800009	0.283701	0.411084
H83	H	0.715054	-0.299897	0.051354
Cl84	Cl	0.820523	-0.474481	-0.154449
H85	H	0.734798	0.215051	0.328476
H86	H	0.831456	-0.318631	-0.124622
Cl87	Cl	0.178827	0.109024	-0.154007
Cl88	Cl	0.015268	0.106078	0.154068
Cl89	Cl	0.696476	-0.452984	-0.079411
Cl90	Cl	0.713858	0.240326	0.168063
Cl91	Cl	0.945551	-0.322591	-0.078407
Cl92	Cl	0.945305	-0.492294	-0.071537
Cl93	Cl	0.250761	-0.000633	-0.117983
Cl94	Cl	0.927094	-0.017342	0.168037
H95	H	0.395886	0.023695	-0.094831
H96	H	0.837032	-0.026909	0.428555
Cl97	Cl	0.946531	-0.324468	0.075620
Cl98	Cl	0.927108	-0.017339	0.345898
