data_functionalizedCrystal
_audit_creation_method	'MofGen! by Chris Wilmer'
_symmetry_space_group_name_H-M	'P1'
_symmetry_Int_Tables_number	1
_symmetry_cell_setting	triclinic
loop_
_symmetry_equiv_pos_as_xyz
  x,y,z
_cell_length_a	12.811438
_cell_length_b	15.944493
_cell_length_c	14.421503
_cell_angle_alpha	89.997092
_cell_angle_beta	95.427519
_cell_angle_gamma	83.761275
loop_
_atom_site_label
_atom_site_type_symbol
_atom_site_fract_x
_atom_site_fract_y
_atom_site_fract_z
O1	O	1.392637	0.113152	0.040030
O2	O	1.725970	0.446485	0.373364
O3	O	2.059304	0.779818	0.706697
O4	O	1.087054	0.125452	0.014328
O5	O	1.420387	0.458786	0.347662
O6	O	1.753721	0.792119	0.680995
O7	O	1.248222	-0.002947	0.027876
O8	O	1.581555	0.330386	0.361209
O9	O	1.914889	0.663720	0.694543
O10	O	1.231469	0.241551	0.026482
O11	O	1.564802	0.574885	0.359816
O12	O	1.898136	0.908218	0.693149
O13	O	1.248207	-0.002961	0.182098
O14	O	1.581541	0.330372	0.515432
O15	O	1.914874	0.663706	0.848765
O16	O	1.087039	0.125439	0.168551
O17	O	1.420373	0.458772	0.501884
O18	O	1.753706	0.792105	0.835217
O19	O	1.392622	0.113138	0.194252
O20	O	1.725956	0.446471	0.527586
O21	O	2.059289	0.779805	0.860919
Cu22	Cu	1.239830	0.119287	0.195483
Cu23	Cu	1.573163	0.452620	0.528817
Cu24	Cu	1.906496	0.785954	0.862150
Cu25	Cu	1.239847	0.119303	0.013098
Cu26	Cu	1.573180	0.452637	0.346431
Cu27	Cu	1.906514	0.785970	0.679764
O28	O	1.231454	0.241538	0.180705
O29	O	1.564788	0.574871	0.514038
O30	O	1.898121	0.908204	0.847371
C31	C	1.047943	0.124756	0.088150
C32	C	1.381277	0.458089	0.421484
C33	C	1.714610	0.791423	0.754817
C34	C	0.931427	0.122691	0.078350
C35	C	1.264760	0.456024	0.411683
C36	C	1.598094	0.789358	0.745017
C37	C	0.767208	0.119788	-0.019520
C38	C	1.100541	0.453121	0.313814
C39	C	1.433875	0.786455	0.647147
C40	C	0.876685	0.121728	-0.010319
C41	C	1.210019	0.455061	0.323014
C42	C	1.543352	0.788394	0.656348
C43	C	0.876684	0.121712	0.157824
C44	C	1.210018	0.455046	0.491157
C45	C	1.543351	0.788379	0.824491
C46	C	0.767207	0.119773	0.148623
C47	C	1.100540	0.453106	0.481957
C48	C	1.433874	0.786439	0.815290
C49	C	0.712472	0.118812	0.059949
C50	C	1.045806	0.452145	0.393282
C51	C	1.379139	0.785478	0.726615
C52	C	0.602992	0.116878	0.050749
C53	C	0.936325	0.450212	0.384082
C54	C	1.269659	0.783545	0.717415
C55	C	0.602994	0.116857	0.218891
C56	C	0.936327	0.450190	0.552224
C57	C	1.269661	0.783524	0.885557
C58	C	0.712471	0.118797	0.228091
C59	C	1.045805	0.452130	0.561425
C60	C	1.379138	0.785463	0.894758
C61	C	1.247530	-0.034251	0.104926
C62	C	1.580863	0.299082	0.438259
C63	C	1.914197	0.632416	0.771592
C64	C	1.245477	-0.127507	0.104741
C65	C	1.578810	0.205827	0.438075
C66	C	1.912144	0.539160	0.771408
C67	C	1.340344	-0.362939	0.112738
C68	C	1.673678	-0.029606	0.446071
C69	C	2.007011	0.303728	0.779404
C70	C	1.289193	-0.413677	0.032396
C71	C	1.622527	-0.080344	0.365729
C72	C	1.955860	0.252990	0.699063
C73	C	1.241673	-0.298241	0.104433
C74	C	1.575007	0.035092	0.437766
C75	C	1.908340	0.368426	0.771099
C76	C	1.289156	-0.413667	0.184445
C77	C	1.622489	-0.080333	0.517778
C78	C	1.955823	0.253000	0.851112
C79	C	1.238007	-0.463163	0.104139
C80	C	1.571340	-0.129830	0.437473
C81	C	1.904673	0.203503	0.770806
C82	C	1.190549	-0.347751	0.024030
C83	C	1.523882	-0.014417	0.357364
C84	C	1.857216	0.318916	0.690697
C85	C	1.190526	-0.347737	0.176149
C86	C	1.523859	-0.014404	0.509482
C87	C	1.857193	0.318930	0.842815
C88	C	1.139302	-0.398442	0.095782
C89	C	1.472636	-0.065109	0.429116
C90	C	1.805969	0.268224	0.762449
C91	C	1.243789	-0.203234	0.104601
C92	C	1.577122	0.130100	0.437934
C93	C	1.910455	0.463433	0.771268
C94	C	1.235884	-0.558168	0.103964
C95	C	1.569217	-0.224834	0.437297
C96	C	1.902550	0.108499	0.770630
C97	C	1.431733	0.113834	0.120428
C98	C	1.765067	0.447168	0.453762
C99	C	2.098400	0.780501	0.787095
C100	C	1.548249	0.115899	0.130223
C101	C	1.881583	0.449233	0.463556
C102	C	2.214916	0.782566	0.796889
C103	C	1.232146	0.272842	0.103653
C104	C	1.565480	0.606175	0.436986
C105	C	1.898813	0.939508	0.770320
C106	C	1.234199	0.366097	0.103831
C107	C	1.567533	0.699431	0.437165
C108	C	1.900866	1.032764	0.770498
N109	N	1.239825	0.119275	0.323764
N110	N	1.573158	0.452608	0.657097
N111	N	1.906492	0.785942	0.990431
C112	C	1.313791	0.059427	0.641410
C113	C	1.647124	0.392760	0.974744
C114	C	1.980457	0.726093	1.308077
C115	C	1.334997	0.135172	0.581362
C116	C	1.668331	0.468506	0.914696
C117	C	2.001664	0.801839	1.248029
C118	C	1.239849	0.119299	0.695655
C119	C	1.573182	0.452633	1.028988
C120	C	1.906516	0.785966	1.362322
C121	C	1.218680	0.043544	0.571612
C122	C	1.552013	0.376877	0.904946
C123	C	1.885347	0.710210	1.238279
C124	C	1.239840	0.119283	0.512933
C125	C	1.573173	0.452617	0.846266
C126	C	1.906507	0.785950	1.179600
C127	C	1.261103	0.195084	0.636972
C128	C	1.594437	0.528417	0.970305
C129	C	1.927770	0.861750	1.303639
C130	C	1.144744	0.103405	0.627224
C131	C	1.478078	0.436738	0.960557
C132	C	1.811411	0.770072	1.293890
C133	C	1.165911	0.179206	0.567200
C134	C	1.499245	0.512539	0.900534
C135	C	1.832578	0.845872	1.233867
C136	C	1.239857	0.119307	0.800917
C137	C	1.573190	0.452641	1.134250
C138	C	1.906524	0.785974	1.467584
C139	C	1.239832	0.119284	0.407673
C140	C	1.573165	0.452617	0.741007
C141	C	1.906498	0.785951	1.074340
N142	N	1.239861	0.119309	0.884818
N143	N	1.573194	0.452642	1.218151
N144	N	1.906527	0.785976	1.551484
H145	H	0.558428	0.116100	-0.021455
H146	H	0.891762	0.449433	0.311879
H147	H	1.225095	0.782766	0.645212
H148	H	1.376366	0.008858	0.673795
H149	H	1.709700	0.342191	1.007128
H150	H	2.043033	0.675525	1.340462
H151	H	1.054244	-0.414202	0.088587
H152	H	1.387577	-0.080869	0.421920
H153	H	1.720911	0.252464	0.755253
Br154	Br	0.692917	0.118501	-0.139859
Br155	Br	1.026251	0.451834	0.193474
Br156	Br	1.359584	0.785168	0.526807
H157	H	1.330869	-0.442473	-0.028386
H158	H	1.664203	-0.109140	0.304948
H159	H	1.997536	0.224194	0.638281
Br160	Br	0.950968	0.123046	-0.118173
Br161	Br	1.284302	0.456380	0.215160
Br162	Br	1.617635	0.789713	0.548494
Br163	Br	1.291101	0.301876	0.684538
Br164	Br	1.624435	0.635209	1.017871
Br165	Br	1.957768	0.968543	1.351205
Br166	Br	1.188835	-0.063224	0.523866
Br167	Br	1.522168	0.270109	0.857199
Br168	Br	1.855501	0.603443	1.190533
Br169	Br	1.121144	-0.299692	0.277468
Br170	Br	1.454478	0.033641	0.610801
Br171	Br	1.787811	0.366975	0.944135
Br172	Br	0.528703	0.115542	0.326747
Br173	Br	0.862037	0.448876	0.660081
Br174	Br	1.195370	0.782209	0.993414
Br175	Br	0.786763	0.120100	0.348429
Br176	Br	1.120097	0.453433	0.681763
Br177	Br	1.453430	0.786766	1.015096
H178	H	1.064345	0.089938	0.647655
H179	H	1.397678	0.423271	0.980988
H180	H	1.731012	0.756605	1.314322
Br181	Br	1.469035	0.157566	0.547318
Br182	Br	1.802368	0.490899	0.880651
Br183	Br	2.135702	0.824233	1.213985
H184	H	1.148909	-0.319069	-0.043826
H185	H	1.482242	0.014264	0.289507
H186	H	1.815575	0.347598	0.622840
Br187	Br	1.358629	-0.461657	0.297429
Br188	Br	1.691963	-0.128324	0.630762
Br189	Br	2.025296	0.205009	0.964095
Br190	Br	1.061678	0.263672	0.513505
Br191	Br	1.395011	0.597005	0.846838
Br192	Br	1.728345	0.930339	1.180171
H193	H	0.921270	0.122485	0.230019
H194	H	1.254603	0.455818	0.563352
H195	H	1.587936	0.789152	0.896685
H196	H	1.425337	-0.347017	0.119810
H197	H	1.758670	-0.013683	0.453143
H198	H	2.092003	0.319650	0.786476
