data_functionalizedCrystal
_audit_creation_method	'MofGen! by Chris Wilmer'
_symmetry_space_group_name_H-M	'P1'
_symmetry_Int_Tables_number	1
_symmetry_cell_setting	triclinic
loop_
_symmetry_equiv_pos_as_xyz
  x,y,z
_cell_length_a	20.875641
_cell_length_b	20.875641
_cell_length_c	20.875641
_cell_angle_alpha	90.154292
_cell_angle_beta	60.089808
_cell_angle_gamma	60.088404
loop_
_atom_site_label
_atom_site_type_symbol
_atom_site_fract_x
_atom_site_fract_y
_atom_site_fract_z
Zr1	Zr	0.647095	0.669192	-0.080423
O2	O	0.780198	0.572011	-0.187368
O3	O	0.513993	0.695347	-0.044500
O4	O	0.637327	0.705113	-0.177603
O5	O	0.664569	0.558678	0.047158
O6	O	0.629621	0.814243	-0.173469
O7	O	0.656864	0.562245	-0.054266
O8	O	0.409000	0.796773	0.064627
O9	O	0.885191	0.576147	-0.190937
O10	O	0.562989	0.792337	-0.029886
O11	O	0.574490	0.708233	0.042721
O12	O	0.719700	0.719731	-0.113990
O13	O	0.731201	0.635627	-0.041383
Zr14	Zr	0.647095	0.837552	0.087930
Zr15	Zr	0.634806	0.843241	-0.073830
Zr16	Zr	0.659384	0.663503	0.081337
Zr17	Zr	0.814547	0.675789	-0.086115
Zr18	Zr	0.479643	0.830955	0.093622
O19	O	0.780197	0.811396	0.052007
O20	O	0.762723	0.819486	-0.177994
O21	O	0.797671	0.563921	0.042633
O22	O	0.513993	0.934733	0.194875
O23	O	0.496519	0.942822	-0.035126
O24	O	0.531467	0.687257	0.185501
O25	O	0.629621	0.948066	-0.039651
O26	O	0.656863	0.801630	0.185110
O27	O	0.664569	0.692501	0.180976
O28	O	0.637326	0.944499	0.061773
O29	O	0.875422	0.714493	-0.185697
O30	O	0.418768	0.792251	0.193204
O31	O	0.408999	0.930596	0.198444
O32	O	0.399231	0.935119	0.069867
O33	O	0.894959	0.571625	-0.062360
O34	O	0.885190	0.709970	-0.057120
O35	O	0.574490	0.787013	0.121497
O36	O	0.562989	0.871117	0.048890
O37	O	0.719700	0.798511	-0.035214
O38	O	0.731201	0.714406	0.037393
C39	C	0.437638	0.745120	0.010874
C40	C	0.366551	0.742320	0.013291
C41	C	0.662467	0.535663	-0.004493
C42	C	0.667685	0.461775	-0.007292
C43	C	0.327150	0.784904	-0.023474
C44	C	0.260351	0.782274	-0.021196
C45	C	0.232959	0.737056	0.017843
C46	C	0.272362	0.694471	0.054612
C47	C	0.339155	0.697105	0.052338
C48	C	0.033836	0.724473	0.028712
C49	C	-0.032960	0.721840	0.030981
C50	C	-0.044968	0.809645	-0.044826
C51	C	0.021831	0.812272	-0.047101
C52	C	0.061225	0.769690	-0.010328
N53	N	0.164682	0.734365	0.020170
N54	N	0.129496	0.772386	-0.012651
C55	C	0.588336	0.464960	0.035291
C56	C	0.593244	0.395531	0.032659
C57	C	0.677500	0.322919	-0.012560
C58	C	0.756855	0.319736	-0.055144
C59	C	0.751947	0.389163	-0.052507
C60	C	0.700952	0.111213	-0.025149
C61	C	0.705854	0.041784	-0.027784
C62	C	0.542242	0.117584	0.060021
C63	C	0.537341	0.187010	0.062649
C64	C	0.616696	0.183821	0.020069
N65	N	0.682519	0.251951	-0.015253
N66	N	0.611677	0.254788	0.022767
C67	C	0.856552	0.761623	-0.003367
C68	C	0.927640	0.764424	-0.005784
C69	C	0.631723	0.760489	-0.198583
C70	C	0.626506	0.762904	-0.267254
C71	C	0.631723	0.971081	0.012000
C72	C	0.626505	1.044969	0.014799
C73	C	0.705854	0.726140	-0.343417
C74	C	0.700947	0.728420	-0.407938
C75	C	0.616690	0.767459	-0.396294
C76	C	0.537336	0.804228	-0.320123
C77	C	0.542244	0.801952	-0.255604
C78	C	0.593238	0.778333	-0.584548
C79	C	0.588336	0.780603	-0.649076
C80	C	0.751947	0.704797	-0.736886
C81	C	0.756848	0.702521	-0.672362
C82	C	0.677494	0.739293	-0.596197
N83	N	0.611671	0.769788	-0.462244
N84	N	0.682513	0.736968	-0.530249
C85	C	0.662467	0.746255	0.206090
C86	C	0.667684	0.743840	0.274761
C87	C	0.422266	0.962829	0.019121
C88	C	0.345961	1.033917	0.024336
C89	C	0.453010	0.738004	0.213211
C90	C	0.387139	0.732788	0.284299
C91	C	0.437638	0.955712	0.221457
C92	C	0.366550	1.024385	0.295344
C93	C	0.856552	0.551031	-0.213950
C94	C	0.927640	0.482359	-0.287837
C95	C	0.871924	0.543915	-0.011614
C96	C	0.948229	0.472827	-0.016829
C97	C	0.841180	0.768740	-0.205704
C98	C	0.907051	0.773956	-0.276792
C99	C	0.310127	1.026179	-0.014342
C100	C	0.238439	1.092967	-0.009457
C101	C	0.202582	1.167494	0.034111
C102	C	0.238423	1.175231	0.072790
C103	C	0.310114	1.108443	0.067900
C104	C	0.356206	0.771460	0.358810
C105	C	0.294324	0.766557	0.425610
C106	C	0.263371	0.722984	0.417898
C107	C	0.294310	0.684307	0.343379
C108	C	0.356196	0.689207	0.276580
C109	C	0.327162	1.100543	0.292142
C110	C	0.260376	1.165075	0.361560
C111	C	0.232974	1.153448	0.434179
C112	C	0.272368	1.077281	0.437379
C113	C	0.339158	1.012751	0.367962
C114	C	0.967036	0.406201	-0.284635
C115	C	1.033843	0.341669	-0.354054
C116	C	1.061249	0.353297	-0.426674
C117	C	1.021850	0.429463	-0.429873
C118	C	0.955049	0.493993	-0.360455
C119	C	0.984070	0.480566	0.021842
C120	C	1.055775	0.413778	0.016939
C121	C	1.091634	0.339252	-0.026631
C122	C	1.055790	0.331515	-0.065307
C123	C	0.984091	0.398302	-0.060408
C124	C	0.937984	0.817535	-0.269054
C125	C	0.999867	0.822451	-0.335842
C126	C	1.030820	0.783783	-0.410366
C127	C	0.999881	0.740203	-0.418102
C128	C	0.937994	0.735292	-0.351315
H129	H	0.349452	0.821721	-0.055267
H130	H	1.084947	0.420093	0.048437
O131	O	1.090970	0.788608	-0.475161
C132	C	1.111612	0.835382	-0.452340
H133	H	1.097501	0.835748	-0.392035
H134	H	1.186085	0.810361	-0.496778
H135	H	1.067945	0.897856	-0.449755
H136	H	0.250048	1.067825	0.496515
H137	H	0.468732	0.836019	-0.310647
H138	H	-0.055258	0.685014	0.062770
H139	H	0.349462	1.110026	0.233019
H140	H	0.519720	0.812393	-0.639586
H141	H	0.209217	1.235919	0.108262
O142	O	0.203280	0.718123	0.482708
C143	C	0.182566	0.671392	0.459933
H144	H	0.239788	0.630831	0.396683
H145	H	0.174226	0.634817	0.499870
H146	H	0.116937	0.710739	0.464830
H147	H	0.371237	0.662427	0.082274
O148	O	0.132911	1.232284	0.038808
C149	C	0.108992	1.209464	-0.004690
H150	H	0.131706	1.146209	-0.010707
H151	H	0.032481	1.249379	0.026890
H152	H	0.143445	1.214352	-0.065425
O153	O	0.222204	0.823655	-0.056984
C154	C	0.260694	0.864141	-0.091917
H155	H	0.330155	0.833739	-0.103303
H156	H	0.268007	0.864317	-0.149791
H157	H	0.215045	0.927101	-0.050907
O158	O	0.344902	1.115863	0.105539
C159	C	0.335409	1.075684	0.160146
H160	H	0.329195	1.028615	0.142021
H161	H	0.397259	1.047045	0.161772
H162	H	0.272100	1.118901	0.220801
H163	H	0.044132	0.849092	-0.078889
H164	H	0.519726	0.524080	0.072116
O165	O	0.386205	0.651765	0.204167
C166	C	0.362980	0.707101	0.167117
H167	H	0.352602	0.761858	0.194146
H168	H	0.419754	0.680782	0.101832
H169	H	0.297807	0.723410	0.175412
O170	O	0.907982	0.855178	-0.196723
C171	C	0.948579	0.894678	-0.204233
H172	H	0.971132	0.906202	-0.262428
H173	H	0.897625	0.952833	-0.153915
H174	H	1.009806	0.856942	-0.202426
O175	O	-0.083362	0.850992	-0.080469
C176	C	-0.148174	0.838958	-0.070110
H177	H	-0.172223	0.820272	-0.016348
H178	H	-0.208203	0.895758	-0.061429
H179	H	-0.116506	0.791115	-0.124175
H180	H	0.269099	0.648831	0.337111
H181	H	0.178588	1.205999	0.490698
O182	O	0.516219	0.813913	-0.510541
C183	C	0.518199	0.757724	-0.472784
H184	H	0.591309	0.705449	-0.501952
H185	H	0.486092	0.785006	-0.408335
H186	H	0.478796	0.737283	-0.477535
O187	O	0.940294	0.395033	-0.214033
C188	C	0.872902	0.468313	-0.153438
H189	H	0.838521	0.514063	-0.175843
H190	H	0.820551	0.463575	-0.101801
H191	H	0.905135	0.486555	-0.133673
O192	O	0.465234	0.837544	-0.181583
C193	C	0.467199	0.781372	-0.143806
H194	H	0.540304	0.729080	-0.172983
H195	H	0.435121	0.808661	-0.079367
H196	H	0.427762	0.760954	-0.148520
H197	H	0.371220	0.950741	0.370579
O198	O	0.222175	1.239003	0.358303
C199	C	0.260695	1.235420	0.279319
H200	H	0.289972	1.175757	0.241643
H201	H	0.206393	1.283548	0.273909
H202	H	0.316866	1.244058	0.258539
O203	O	0.838625	0.664596	-0.683538
C204	C	0.825941	0.670481	-0.610259
H205	H	0.757774	0.681876	-0.564504
H206	H	0.882301	0.613383	-0.614991
H207	H	0.827491	0.720942	-0.592026
O208	O	0.465107	0.120775	0.101503
C209	C	0.418191	0.158908	0.181945
H210	H	0.439236	0.197916	0.189072
H211	H	0.342280	0.196374	0.210262
H212	H	0.435120	0.113269	0.211549
H213	H	1.065911	0.279658	-0.351434
H214	H	0.339320	0.965502	-0.049829
O215	O	1.126025	0.290578	-0.494077
C216	C	1.096677	0.242768	-0.494586
H217	H	1.019666	0.279222	-0.453949
H218	H	1.120335	0.217773	-0.556732
H219	H	1.126296	0.192650	-0.473492
H220	H	1.025052	0.857937	-0.329528
H221	H	1.044172	0.438922	-0.489008
H222	H	0.922972	0.556003	-0.363071
H223	H	1.150016	0.284876	-0.030614
O224	O	0.949376	0.552899	0.064175
C225	C	0.996384	0.545390	0.097265
H226	H	1.066106	0.487196	0.061621
H227	H	1.004214	0.595712	0.096634
H228	H	0.956844	0.547192	0.160295
O229	O	0.778116	0.692633	-0.481872
C230	C	0.853534	0.657699	-0.478313
H231	H	0.834520	0.646311	-0.420240
H232	H	0.911586	0.599825	-0.528875
H233	H	0.875481	0.698711	-0.482949
H234	H	0.209266	1.086652	-0.040955
H235	H	0.381402	0.806941	0.365104
O236	O	1.090469	0.259152	-0.107560
C237	C	1.022037	0.246409	-0.076402
H238	H	0.953001	0.305252	-0.042843
H239	H	1.031047	0.211958	-0.126207
H240	H	1.026724	0.211713	-0.034961
O241	O	1.029933	0.702759	-0.490533
C242	C	1.006727	0.758094	-0.527589
H243	H	0.996309	0.812862	-0.500530
H244	H	1.063529	0.731784	-0.592865
H245	H	0.941581	0.774381	-0.519339
O246	O	0.516075	0.398767	0.074039
C247	C	0.440657	0.477743	0.114525
H248	H	0.459671	0.516804	0.084126
H249	H	0.382605	0.485236	0.114702
H250	H	0.418710	0.495052	0.177485
O251	O	0.908011	0.692867	-0.358758
C252	C	0.931256	0.632593	-0.326650
H253	H	0.941610	0.649264	-0.282260
H254	H	0.874506	0.624053	-0.296211
H255	H	0.996448	0.575725	-0.375514
O256	O	0.455551	0.257585	0.106636
C257	C	0.451841	0.298133	0.163891
H258	H	0.523475	0.275009	0.143865
H259	H	0.412857	0.363415	0.172389
H260	H	0.416192	0.288764	0.221713
H261	H	0.774469	-0.017342	-0.064610
H262	H	0.065900	0.689803	0.058658
H263	H	0.250050	0.657657	0.086403
H264	H	0.269140	0.798056	0.486280
O265	O	0.778105	0.108005	-0.066468
C266	C	0.833092	0.066124	-0.040720
H267	H	0.814729	0.025875	-0.012446
H268	H	0.907188	0.029492	-0.092915
H269	H	0.821825	0.109138	0.004020
O270	O	0.838627	0.249137	-0.099057
C271	C	0.825948	0.188540	-0.092241
H272	H	0.754840	0.212311	-0.074278
H273	H	0.877796	0.139000	-0.151042
H274	H	0.834954	0.165308	-0.045893
H275	H	0.816561	0.386565	-0.087173
H276	H	0.954912	0.391990	-0.091897
H277	H	0.774466	0.694345	-0.352908
H278	H	0.816553	0.674860	-0.798905
