data_functionalizedCrystal
_audit_creation_method	'MofGen! by Chris Wilmer'
_symmetry_space_group_name_H-M	'P1'
_symmetry_Int_Tables_number	1
_symmetry_cell_setting	triclinic
loop_
_symmetry_equiv_pos_as_xyz
  x,y,z
_cell_length_a	19.077105
_cell_length_b	19.077068
_cell_length_c	19.805399
_cell_angle_alpha	92.269429
_cell_angle_beta	87.684312
_cell_angle_gamma	90.115316
loop_
_atom_site_label
_atom_site_type_symbol
_atom_site_fract_x
_atom_site_fract_y
_atom_site_fract_z
Zn1	Zn	1.062984	-0.322994	-0.436187
Zn2	Zn	1.058172	-0.440500	-0.327347
Zn3	Zn	0.945478	-0.318285	-0.318297
Zn4	Zn	0.940719	-0.435736	-0.435780
O5	O	1.001838	-0.379379	-0.379403
O6	O	1.160677	-0.342546	-0.425707
O7	O	1.043201	-0.424310	-0.231430
O8	O	0.965071	-0.220580	-0.330318
O9	O	1.157142	-0.428877	-0.345743
O10	O	1.051402	-0.224039	-0.416931
O11	O	0.960405	-0.334520	-0.224781
O12	O	0.846515	-0.329900	-0.329923
O13	O	0.956960	-0.420757	-0.530550
O14	O	0.843019	-0.416191	-0.416238
O15	O	1.046787	-0.337927	-0.530849
O16	O	1.038587	-0.538198	-0.345349
O17	O	0.952294	-0.534698	-0.425014
C18	C	0.819271	-0.372018	-0.372055
C19	C	0.741167	-0.368886	-0.368928
C20	C	0.702669	-0.412410	-0.412333
C21	C	0.629282	-0.409458	-0.409398
C22	C	0.594395	-0.362986	-0.363054
C23	C	0.632899	-0.319458	-0.319647
C24	C	0.706284	-0.322406	-0.322586
C25	C	0.375110	-0.349338	-0.349456
C26	C	0.301720	-0.346394	-0.346519
C27	C	0.298109	-0.436393	-0.436270
C28	C	0.371496	-0.439341	-0.439202
C29	C	0.409993	-0.395811	-0.395798
N30	N	0.519382	-0.359969	-0.360051
N31	N	0.485004	-0.398824	-0.398804
C32	C	0.994421	-0.561944	-0.386135
C33	C	0.991312	-0.640049	-0.389040
C34	C	1.034814	-0.678543	-0.348965
C35	C	1.031894	-0.751931	-0.351702
C36	C	0.985468	-0.786824	-0.394510
C37	C	0.941964	-0.748324	-0.434590
C38	C	0.944888	-0.674938	-0.431856
C39	C	0.971905	-1.006113	-0.407133
C40	C	0.968983	-1.079504	-0.409862
C41	C	1.058914	-1.083107	-0.326974
C42	C	1.061831	-1.009718	-0.324241
C43	C	1.018330	-0.971225	-0.364323
N44	N	0.982481	-0.861838	-0.397307
N45	N	1.021321	-0.896213	-0.361530
C46	C	1.185119	-0.386768	-0.386780
C47	C	1.263222	-0.389917	-0.389923
C48	C	1.001879	-0.379336	-0.555945
C49	C	1.001897	-0.379318	-0.631177
C50	C	1.009304	-0.196101	-0.372660
C51	C	1.012485	-0.117999	-0.369787
C52	C	1.048671	-0.336186	-0.666678
C53	C	1.048679	-0.336165	-0.737366
C54	C	1.001916	-0.379282	-0.772552
C55	C	0.955137	-0.422416	-0.737047
C56	C	0.955126	-0.422432	-0.666360
C57	C	0.955179	-0.422352	-1.022119
C58	C	0.955195	-0.422334	-1.092811
C59	C	1.048733	-0.336086	-1.093126
C60	C	1.048722	-0.336102	-1.022439
C61	C	1.001940	-0.379232	-0.986939
C62	C	1.001931	-0.379253	-0.910291
C63	C	1.001928	-0.379266	-0.849199
C64	C	1.001840	-0.379372	-0.203547
C65	C	1.001966	-0.379198	-0.128313
H66	H	0.597940	-0.444900	-0.444742
Br67	Br	0.427347	-0.290256	-0.290553
Br68	Br	0.891667	-0.480927	-0.784798
H69	H	0.604488	-0.281616	-0.281916
Br70	Br	0.758532	-0.263333	-0.263681
H71	H	0.917111	-0.457446	-1.121458
H72	H	0.917030	-0.457547	-0.637455
Br73	Br	1.097818	-0.631197	-0.290858
Br74	Br	1.117952	-1.135350	-0.272584
Br75	Br	1.112193	-0.277660	-0.785546
H76	H	0.731069	-0.450255	-0.450068
H77	H	0.399896	-0.477185	-0.476938
H78	H	1.099635	-0.981311	-0.289383
Br79	Br	1.112145	-0.277673	-0.618933
H80	H	0.266757	-0.471833	-0.471608
Br81	Br	0.254373	-0.283328	-0.283613
Br82	Br	1.090940	-0.804171	-0.297316
H83	H	0.931186	-1.107912	-0.444734
Br84	Br	0.912868	-0.953881	-0.461530
H85	H	1.086804	-0.300994	-0.993794
H86	H	0.904166	-0.776739	-0.469448
H87	H	1.086822	-0.300964	-1.122038
Br88	Br	0.885852	-0.622695	-0.486250
Br89	Br	0.891688	-0.480885	-0.973950
