data_functionalizedCrystal
_audit_creation_method	'MofGen! by Chris Wilmer'
_symmetry_space_group_name_H-M	'P1'
_symmetry_Int_Tables_number	1
_symmetry_cell_setting	triclinic
loop_
_symmetry_equiv_pos_as_xyz
  x,y,z
_cell_length_a	16.109301
_cell_length_b	7.088929
_cell_length_c	16.109301
_cell_angle_alpha	96.223316
_cell_angle_beta	83.461481
_cell_angle_gamma	83.795408
loop_
_atom_site_label
_atom_site_type_symbol
_atom_site_fract_x
_atom_site_fract_y
_atom_site_fract_z
O1	O	1.094601	0.158875	0.115410
O2	O	0.852537	0.158906	0.128711
O3	O	0.980220	0.158870	0.001028
O4	O	0.966918	0.158911	0.243093
O5	O	0.997283	-0.159110	-0.016074
O6	O	0.869601	-0.159074	0.111609
O7	O	1.111664	-0.159105	0.098308
Cu8	Cu	0.992190	-0.188123	0.103397
Cu9	Cu	0.972011	0.187925	0.123622
O10	O	0.983982	-0.159069	0.225991
C11	C	0.830094	-0.000080	0.119621
C12	C	0.737798	-0.000069	0.118007
N13	N	1.006390	-0.452615	0.089171
C14	C	0.515526	-0.000079	0.190014
C15	C	0.428806	-0.000091	0.188489
C16	C	0.448682	-0.000109	0.037000
C17	C	0.535400	-0.000110	0.038525
C18	C	0.568820	-0.000085	0.115035
C19	C	0.395381	-0.000097	0.111985
C20	C	0.301356	-0.000110	0.110331
C21	C	0.662851	-0.000075	0.116689
C22	C	1.134107	-0.000114	0.107398
C23	C	1.226403	-0.000113	0.109013
C24	C	0.988213	-0.000121	-0.038498
C25	C	0.986598	-0.000123	-0.130793
N26	N	0.957818	0.452417	0.137841
C27	C	1.058604	-0.000102	-0.353064
C28	C	1.057079	-0.000086	-0.439784
C29	C	0.905590	-0.000074	-0.419909
C30	C	0.907115	-0.000076	-0.333190
C31	C	0.983625	-0.000100	-0.299771
C32	C	0.980575	-0.000082	-0.473209
C33	C	0.978921	-0.000065	-0.567234
C34	C	0.985279	-0.000114	-0.205740
C35	C	0.975988	-0.000074	0.265517
C36	C	0.977603	-0.000059	0.357813
H37	H	0.385418	-0.000090	0.249545
O38	O	0.416073	-0.000032	-0.037240
C39	C	0.328106	-0.000073	-0.022513
H40	H	0.304490	0.060133	0.045613
H41	H	0.312156	-0.152623	-0.034744
C42	C	0.314469	0.050680	-0.165603
C43	C	0.285463	0.124641	-0.081932
H44	H	0.288164	0.127601	-0.202258
H45	H	0.373734	0.050700	-0.175527
H46	H	0.301176	-0.076443	-0.175784
H47	H	0.298766	0.251752	-0.071750
H48	H	0.226199	0.124645	-0.072007
H49	H	0.843298	-0.000059	-0.447130
H50	H	0.578795	-0.000121	-0.022537
O51	O	0.834203	-0.000160	-0.281538
C52	C	0.766345	-0.000107	-0.329626
H53	H	0.790690	-0.060312	-0.397596
H54	H	0.734706	0.152446	-0.327584
C55	C	0.672172	-0.050853	-0.209617
C56	C	0.702072	-0.124813	-0.293097
H57	H	0.632524	-0.127769	-0.187083
H58	H	0.717889	-0.050882	-0.177218
H59	H	0.645812	0.076274	-0.207926
H60	H	0.728441	-0.251928	-0.294786
H61	H	0.656359	-0.124809	-0.325496
H62	H	0.907479	-0.465923	0.188278
H63	H	1.120904	-0.000117	-0.325857
O64	O	0.547858	-0.000156	0.264400
C65	C	0.482217	-0.000108	0.330253
H66	H	0.426547	-0.060309	0.303720
H67	H	0.461748	0.152444	0.361589
C68	C	0.581741	-0.050867	0.428287
C69	C	0.513369	-0.124822	0.395700
H70	H	0.600957	-0.127789	0.468661
H71	H	0.625965	-0.050892	0.383922
H72	H	0.564674	0.076258	0.454395
H73	H	0.530439	-0.251935	0.369584
H74	H	0.469148	-0.124821	0.440063
O75	O	1.129956	0.000161	-0.491454
C76	C	1.167559	0.164860	-0.467453
H77	H	1.144181	0.219759	-0.398709
H78	H	1.150015	0.280186	-0.508674
C79	C	1.292630	0.047392	-0.562848
C80	C	1.263921	0.114811	-0.478414
H81	H	1.352070	0.016525	-0.569612
H82	H	1.267295	-0.063566	-0.579021
H83	H	1.278002	0.143509	-0.597189
H84	H	1.278540	0.018687	-0.444076
H85	H	1.289260	0.225753	-0.462236
H86	H	1.056738	-0.534285	0.038737
