data_functionalizedCrystal
_audit_creation_method	'MofGen! by Chris Wilmer'
_symmetry_space_group_name_H-M	'P1'
_symmetry_Int_Tables_number	1
_symmetry_cell_setting	triclinic
loop_
_symmetry_equiv_pos_as_xyz
  x,y,z
_cell_length_a	14.971486
_cell_length_b	14.048226
_cell_length_c	14.971496
_cell_angle_alpha	89.992659
_cell_angle_beta	96.383873
_cell_angle_gamma	90.001501
loop_
_atom_site_label
_atom_site_type_symbol
_atom_site_fract_x
_atom_site_fract_y
_atom_site_fract_z
O1	O	-1.186951	-0.079053	0.116564
O2	O	-0.926551	-0.079079	0.130523
O3	O	-1.063726	-0.079057	-0.006656
O4	O	-1.049776	-0.079075	0.253743
O5	O	-1.063710	0.079264	-0.006664
O6	O	-0.926535	0.079242	0.130515
O7	O	-1.186935	0.079268	0.116556
Zn8	Zn	-1.056732	0.104392	0.123534
Zn9	Zn	-1.056754	-0.104203	0.123545
O10	O	-1.049760	0.079246	0.253735
C11	C	-1.063092	0.000104	-0.039985
C12	C	-1.061218	0.000104	-0.139281
C13	C	-0.893218	0.000078	0.129895
C14	C	-0.793921	0.000068	0.128024
N15	N	-1.056724	0.246753	0.123526
C16	C	-1.220268	0.000109	0.117184
C17	C	-1.319565	0.000112	0.119055
C18	C	-0.736699	0.000064	0.208613
C19	C	-0.643399	0.000078	0.206850
C20	C	-0.607324	0.000090	0.124497
C21	C	-0.664554	0.000097	0.043902
C22	C	-0.757852	0.000090	0.045666
C23	C	-0.470091	0.000111	0.040231
C24	C	-0.376787	0.000117	0.038466
C25	C	-0.355639	0.000099	0.201414
C26	C	-0.448937	0.000092	0.203179
C27	C	-0.506160	0.000097	0.122583
N28	N	-1.056769	-0.246564	0.123545
C29	C	-1.117484	0.296581	0.062809
C30	C	-1.117490	0.396238	0.062808
C31	C	-1.056739	0.446066	0.123530
C32	C	-0.995973	0.396231	0.184251
C33	C	-0.995963	0.296575	0.184246
C34	C	-0.995999	0.603946	0.184257
C35	C	-0.996009	0.703608	0.184263
C36	C	-1.117525	0.703608	0.062819
C37	C	-1.117516	0.603953	0.062815
C38	C	-1.056750	0.554125	0.123536
C39	C	-1.053159	-0.086223	-0.566981
C40	C	-1.054925	-0.086218	-0.473682
C41	C	-1.055793	0.000086	-0.427043
C42	C	-1.054904	0.086392	-0.473709
C43	C	-1.053145	0.086387	-0.567007
C44	C	-1.058569	0.086397	-0.279245
C45	C	-1.060327	0.086403	-0.185940
C46	C	-1.060349	-0.086208	-0.185920
C47	C	-1.058590	-0.086213	-0.279218
C48	C	-1.057700	0.000093	-0.325878
C49	C	-1.050394	0.000083	0.287063
C50	C	-1.052268	0.000077	0.386360
H51	H	-0.766063	0.000054	0.275674
H52	H	-1.061067	-0.156481	-0.147925
Cl53	Cl	-1.056000	0.194891	-0.415077
H54	H	-0.347418	0.000127	-0.028593
Cl55	Cl	-1.193865	0.233950	-0.013529
H56	H	-0.516681	0.000117	-0.025399
H57	H	-1.166987	0.563383	0.013374
H58	H	-1.052418	0.156661	-0.604995
H59	H	-1.057845	0.156677	-0.317233
Cl60	Cl	-0.571466	0.000067	0.308166
H61	H	-0.635174	0.000121	-0.023152
Cl62	Cl	-1.193916	0.766252	-0.013514
H63	H	-1.166965	0.436808	0.013367
Cl64	Cl	-0.919631	0.766242	0.260601
Cl65	Cl	-1.057493	-0.194712	-0.337849
Cl66	Cl	-0.919603	0.541309	0.260594
Cl67	Cl	-0.919595	0.458870	0.260585
Cl68	Cl	-1.052062	-0.194727	-0.625603
H69	H	-0.478306	0.000073	0.270237
H70	H	-0.309043	0.000099	0.267038
Cl71	Cl	-0.919572	0.233936	0.260578
Cl72	Cl	-1.056048	-0.194714	-0.415029
H73	H	-0.804442	0.000093	-0.019958
H74	H	-1.061005	0.156680	-0.147966
