data_functionalizedCrystal
_audit_creation_method	'MofGen! by Chris Wilmer'
_symmetry_space_group_name_H-M	'P1'
_symmetry_Int_Tables_number	1
_symmetry_cell_setting	triclinic
loop_
_symmetry_equiv_pos_as_xyz
  x,y,z
_cell_length_a	14.044191
_cell_length_b	14.044190
_cell_length_c	10.268362
_cell_angle_alpha	89.989939
_cell_angle_beta	89.997935
_cell_angle_gamma	93.191777
loop_
_atom_site_label
_atom_site_type_symbol
_atom_site_fract_x
_atom_site_fract_y
_atom_site_fract_z
O1	O	1.277178	0.230201	-0.108264
O2	O	1.527178	0.480201	0.141736
O3	O	1.777178	0.730201	0.391736
O4	O	2.027178	0.980201	0.641736
O5	O	1.000506	0.221889	-0.108280
O6	O	1.250506	0.471889	0.141720
O7	O	1.500506	0.721889	0.391720
O8	O	1.750506	0.971889	0.641720
O9	O	1.134686	0.087709	-0.108247
O10	O	1.384686	0.337709	0.141753
O11	O	1.634686	0.587709	0.391753
O12	O	1.884686	0.837709	0.641753
O13	O	1.142998	0.364381	-0.108297
O14	O	1.392998	0.614381	0.141703
O15	O	1.642998	0.864381	0.391703
O16	O	1.892998	1.114381	0.641703
O17	O	1.134672	0.087702	0.108354
O18	O	1.384672	0.337702	0.358354
O19	O	1.634672	0.587702	0.608354
O20	O	1.884672	0.837702	0.858354
O21	O	1.000493	0.221882	0.108321
O22	O	1.250493	0.471882	0.358321
O23	O	1.500493	0.721882	0.608321
O24	O	1.750493	0.971882	0.858321
O25	O	1.277165	0.230194	0.108336
O26	O	1.527165	0.480194	0.358336
O27	O	1.777165	0.730194	0.608336
O28	O	2.027165	0.980194	0.858336
Cu29	Cu	1.138828	0.226037	0.128106
Cu30	Cu	1.388828	0.476037	0.378106
Cu31	Cu	1.638828	0.726037	0.628106
Cu32	Cu	1.888828	0.976037	0.878106
Cu33	Cu	1.138843	0.226046	-0.128049
Cu34	Cu	1.388843	0.476046	0.121951
Cu35	Cu	1.638843	0.726046	0.371951
Cu36	Cu	1.888843	0.976046	0.621951
O37	O	1.142985	0.364374	0.108303
O38	O	1.392985	0.614374	0.358303
O39	O	1.642985	0.864374	0.608303
O40	O	1.892985	1.114374	0.858303
C41	C	0.964877	0.218249	0.000019
C42	C	1.214877	0.468249	0.250019
C43	C	1.464877	0.718249	0.500019
C44	C	1.714877	0.968249	0.750019
C45	C	0.858734	0.207401	0.000014
C46	C	1.108734	0.457401	0.250014
C47	C	1.358734	0.707401	0.500014
C48	C	1.608734	0.957401	0.750014
C49	C	0.613277	0.264502	0.000017
C50	C	0.863277	0.514502	0.250017
C51	C	1.113277	0.764502	0.500017
C52	C	1.363277	1.014502	0.750017
C53	C	0.664400	0.187585	0.000028
C54	C	0.914400	0.437585	0.250028
C55	C	1.164400	0.687585	0.500028
C56	C	1.414400	0.937585	0.750028
C57	C	0.772537	0.198614	0.000020
C58	C	1.022537	0.448614	0.250020
C59	C	1.272537	0.698614	0.500020
C60	C	1.522537	0.948614	0.750020
C61	C	0.505130	0.253475	0.000025
C62	C	0.755130	0.503475	0.250025
C63	C	1.005130	0.753475	0.500025
C64	C	1.255130	1.003475	0.750025
C65	C	1.131043	0.052083	0.000057
C66	C	1.381043	0.302083	0.250057
C67	C	1.631043	0.552083	0.500057
C68	C	1.881043	0.802083	0.750057
C69	C	1.120195	-0.054060	0.000068
C70	C	1.370195	0.195940	0.250068
C71	C	1.620195	0.445940	0.500068
C72	C	1.870195	0.695940	0.750068
C73	C	1.177296	-0.299517	0.000020
C74	C	1.427296	-0.049517	0.250020
C75	C	1.677296	0.200483	0.500020
C76	C	1.927296	0.450483	0.750020
C77	C	1.100379	-0.248394	0.000025
C78	C	1.350379	0.001606	0.250025
C79	C	1.600379	0.251606	0.500025
C80	C	1.850379	0.501606	0.750025
C81	C	1.111408	-0.140257	0.000049
C82	C	1.361408	0.109743	0.250049
C83	C	1.611408	0.359743	0.500049
C84	C	1.861408	0.609743	0.750049
C85	C	1.166269	-0.407664	-0.000004
C86	C	1.416269	-0.157664	0.249996
C87	C	1.666269	0.092336	0.499996
C88	C	1.916269	0.342336	0.749996
C89	C	1.312794	0.233834	0.000035
C90	C	1.562794	0.483834	0.250035
C91	C	1.812794	0.733834	0.500035
C92	C	2.062794	0.983834	0.750035
C93	C	1.418937	0.244682	0.000031
C94	C	1.668937	0.494682	0.250031
C95	C	1.918937	0.744682	0.500031
C96	C	2.168937	0.994682	0.750031
C97	C	1.146628	0.400000	-0.000004
C98	C	1.396628	0.650000	0.249996
C99	C	1.646628	0.900000	0.499996
C100	C	1.896628	1.150000	0.749996
C101	C	1.157476	0.506143	-0.000023
C102	C	1.407476	0.756143	0.249977
C103	C	1.657476	1.006143	0.499977
C104	C	1.907476	1.256143	0.749977
N105	N	1.138824	0.226031	0.308272
N106	N	1.388824	0.476031	0.558272
N107	N	1.638824	0.726031	0.808272
N108	N	1.888824	0.976031	1.058272
N109	N	1.138854	0.226045	-0.308215
N110	N	1.388854	0.476045	-0.058215
N111	N	1.638854	0.726045	0.191785
N112	N	1.888854	0.976045	0.441785
C113	C	1.138838	0.226043	0.573942
C114	C	1.388838	0.476043	0.823942
C115	C	1.638838	0.726043	1.073942
C116	C	1.888838	0.976043	1.323942
C117	C	1.138827	0.226039	0.426104
C118	C	1.388827	0.476039	0.676104
C119	C	1.638827	0.726039	0.926104
C120	C	1.888827	0.976039	1.176104
H121	H	1.026247	-0.285839	0.000013
H122	H	1.276247	-0.035839	0.250013
H123	H	1.526247	0.214161	0.500013
H124	H	1.776247	0.464161	0.750013
H125	H	0.626955	0.113453	-0.000050
H126	H	0.876955	0.363453	0.249950
H127	H	1.126955	0.613453	0.499950
H128	H	1.376955	0.863453	0.749950
O129	O	1.265662	-0.254703	0.000105
O130	O	1.515662	-0.004703	0.250105
O131	O	1.765662	0.245297	0.500105
O132	O	2.015662	0.495297	0.750105
C133	C	1.257137	-0.155146	0.000096
C134	C	1.507137	0.094854	0.250096
C135	C	1.757137	0.344854	0.500096
C136	C	2.007137	0.594854	0.750096
H137	H	1.184567	-0.138204	0.041089
H138	H	1.434567	0.111796	0.291089
H139	H	1.684567	0.361796	0.541089
H140	H	1.934567	0.611796	0.791089
H141	H	1.315876	-0.119732	0.063005
H142	H	1.565876	0.130268	0.313005
H143	H	1.815876	0.380268	0.563005
H144	H	2.065876	0.630268	0.813005
H145	H	1.264077	-0.126997	-0.103810
H146	H	1.514077	0.123003	0.146190
H147	H	1.764077	0.373003	0.396190
H148	H	2.014077	0.623003	0.646190
O149	O	0.658091	0.352868	-0.000069
O150	O	0.908091	0.602868	0.249931
O151	O	1.158091	0.852868	0.499931
O152	O	1.408091	1.102868	0.749931
C153	C	0.757648	0.344343	-0.000042
C154	C	1.007648	0.594343	0.249958
C155	C	1.257648	0.844343	0.499958
C156	C	1.507648	1.094343	0.749958
H157	H	0.774600	0.271778	-0.041026
H158	H	1.024600	0.521778	0.208974
H159	H	1.274600	0.771778	0.458974
H160	H	1.524600	1.021778	0.708974
H161	H	0.793078	0.403090	-0.062949
H162	H	1.043078	0.653090	0.187051
H163	H	1.293078	0.903090	0.437051
H164	H	1.543078	1.153090	0.687051
H165	H	0.785770	0.351270	0.103868
H166	H	1.035770	0.601270	0.353868
H167	H	1.285770	0.851270	0.603868
H168	H	1.535770	1.101270	0.853868
