data_functionalizedCrystal
_audit_creation_method	'MofGen! by Chris Wilmer'
_symmetry_space_group_name_H-M	'P1'
_symmetry_Int_Tables_number	1
_symmetry_cell_setting	triclinic
loop_
_symmetry_equiv_pos_as_xyz
  x,y,z
_cell_length_a	10.540491
_cell_length_b	9.065218
_cell_length_c	7.540329
_cell_angle_alpha	89.997902
_cell_angle_beta	90.002525
_cell_angle_gamma	95.239223
loop_
_atom_site_label
_atom_site_type_symbol
_atom_site_fract_x
_atom_site_fract_y
_atom_site_fract_z
O1	O	-1.686688	0.207589	-0.147459
O2	O	-1.186688	0.707589	0.352541
O3	O	-1.317340	0.227255	-0.147466
O4	O	-0.817340	0.727255	0.352534
O5	O	-1.509648	0.002740	-0.147457
O6	O	-1.009648	0.502740	0.352543
O7	O	-1.494380	0.432104	-0.147468
O8	O	-0.994380	0.932104	0.352532
O9	O	-1.509637	0.002737	0.147508
O10	O	-1.009637	0.502737	0.647508
O11	O	-1.317328	0.227252	0.147499
O12	O	-0.817328	0.727252	0.647499
O13	O	-1.686676	0.207587	0.147506
O14	O	-1.186676	0.707587	0.647506
Cu15	Cu	-1.502001	0.217419	0.174435
Cu16	Cu	-1.002001	0.717419	0.674435
Cu17	Cu	-1.502015	0.217423	-0.174395
Cu18	Cu	-1.002015	0.717423	0.325605
O19	O	-1.494368	0.432102	0.147497
O20	O	-0.994368	0.932102	0.647497
C21	C	-1.270025	0.225794	0.000016
C22	C	-0.770025	0.725794	0.500016
C23	C	-1.129057	0.221427	0.000013
C24	C	-0.629057	0.721427	0.500013
N25	N	-1.502001	0.217416	0.419784
N26	N	-1.002001	0.717416	0.919784
C27	C	-0.912177	0.377403	-0.000672
C28	C	-0.412177	0.877403	0.499328
C29	C	-1.058791	0.382062	0.000006
C30	C	-0.558791	0.882062	0.500006
C31	C	-1.083987	0.139202	0.168450
C32	C	-0.583987	0.639202	0.668450
C33	C	-0.937211	0.135681	0.168578
C34	C	-0.437211	0.635681	0.668578
C35	C	-0.937406	0.132339	-0.166853
C36	C	-0.437406	0.632339	0.333147
C37	C	-1.083777	0.139947	-0.169066
C38	C	-0.583777	0.639947	0.330934
C39	C	-0.733990	0.209067	0.000016
C40	C	-0.233990	0.709067	0.500016
C41	C	-0.874951	0.213493	-0.000005
C42	C	-0.374951	0.713493	0.499995
C43	C	-1.495841	0.487082	0.000013
C44	C	-0.995841	0.987082	0.500013
C45	C	-1.500229	0.650902	0.000009
C46	C	-1.000229	1.150902	0.500009
C47	C	-1.508175	-0.052240	0.000023
C48	C	-1.008175	0.447760	0.500023
C49	C	-1.503787	-0.216060	0.000015
C50	C	-1.003787	0.283940	0.500015
N51	N	-1.502025	0.217414	-0.419744
N52	N	-1.002025	0.717414	0.080256
H53	H	-1.088380	0.446388	-0.120741
H54	H	-0.588380	0.946388	0.379259
H55	H	-1.112621	0.199773	-0.293674
H56	H	-0.612621	0.699773	0.206326
F57	F	-1.147338	-0.013346	-0.182354
F58	F	-0.647338	0.486654	0.317646
H59	H	-1.115047	0.196303	0.293799
H60	H	-0.615047	0.696303	0.793799
H61	H	-0.895050	0.182999	-0.294521
H62	H	-0.395050	0.682999	0.205479
H63	H	-0.914806	0.011741	-0.167989
H64	H	-0.414806	0.511741	0.332011
F65	F	-1.145345	-0.015373	0.176640
F66	F	-0.645345	0.484627	0.676640
F67	F	-0.906569	-0.021342	0.178662
F68	F	-0.406569	0.478658	0.678662
H69	H	-0.870459	0.439987	-0.121469
H70	H	-0.370459	0.939987	0.378531
H71	H	-0.868895	0.439625	0.119436
H72	H	-0.368895	0.939625	0.619436
F73	F	-0.884906	0.209138	0.333142
F74	F	-0.384906	0.709138	0.833142
F75	F	-1.096230	0.466640	0.158094
F76	F	-0.596230	0.966640	0.658094
