data_functionalizedCrystal
_audit_creation_method	'MofGen! by Chris Wilmer'
_symmetry_space_group_name_H-M	'P1'
_symmetry_Int_Tables_number	1
_symmetry_cell_setting	triclinic
loop_
_symmetry_equiv_pos_as_xyz
  x,y,z
_cell_length_a	14.908571
_cell_length_b	15.297327
_cell_length_c	15.299447
_cell_angle_alpha	88.407023
_cell_angle_beta	103.494345
_cell_angle_gamma	96.991395
loop_
_atom_site_label
_atom_site_type_symbol
_atom_site_fract_x
_atom_site_fract_y
_atom_site_fract_z
Zn1	Zn	1.434649	-0.329596	0.649770
Zn2	Zn	1.383646	-0.499074	0.525279
Zn3	Zn	1.253428	-0.346567	0.491415
Zn4	Zn	1.262200	-0.468033	0.663733
O5	O	1.333481	-0.410818	0.582550
O6	O	1.554551	-0.357967	0.641585
O7	O	1.341356	-0.498937	0.396571
O8	O	1.295141	-0.222555	0.492406
O9	O	1.517080	-0.482481	0.550122
O10	O	1.428284	-0.210087	0.608749
O11	O	1.245685	-0.386891	0.371692
O12	O	1.127924	-0.356791	0.505945
O13	O	1.310092	-0.429575	0.786097
O14	O	1.134369	-0.446031	0.632546
O15	O	1.436790	-0.327867	0.775838
O16	O	1.349862	-0.616717	0.563661
O17	O	1.260637	-0.593911	0.665383
C18	C	1.098303	-0.399885	0.567087
C19	C	0.997694	-0.395226	0.560496
C20	C	0.815343	-0.479593	0.679818
C21	C	0.720812	-0.475217	0.673629
C22	C	0.714101	-0.382094	0.541934
C23	C	0.808632	-0.386470	0.548123
C24	C	0.859249	-0.435222	0.617066
C25	C	0.953780	-0.439602	0.623251
C26	C	0.947069	-0.346474	0.491560
C27	C	0.852538	-0.342098	0.485372
C28	C	1.300695	-0.636883	0.619733
C29	C	1.286758	-0.733594	0.635675
C30	C	1.433525	-1.053561	0.468936
C31	C	1.446618	-0.962697	0.453953
C32	C	1.406654	-0.905417	0.499382
C33	C	1.353595	-0.939010	0.559797
C34	C	1.340495	-1.029883	0.574776
C35	C	1.313624	-0.881739	0.605222
C36	C	1.260565	-0.915332	0.665637
C37	C	1.247467	-1.006196	0.680614
C38	C	1.287431	-1.063477	0.635185
C39	C	1.326725	-0.790866	0.590243
C40	C	1.233695	-0.767188	0.696083
C41	C	1.220602	-0.858052	0.711066
C42	C	1.569577	-0.421793	0.598073
C43	C	1.670187	-0.426471	0.604689
C44	C	1.380109	-0.373365	0.814076
C45	C	1.399979	-0.357406	0.912739
C46	C	1.366423	-0.183867	0.545242
C47	C	1.380461	-0.087154	0.529344
C48	C	1.287095	-0.448064	0.351917
C49	C	1.267436	-0.463787	0.253226
C50	C	1.192132	-0.524237	1.212217
C51	C	1.173455	-0.539227	1.119517
C52	C	1.230084	-0.493773	1.067818
C53	C	1.305394	-0.433326	1.108828
C54	C	1.324069	-0.418329	1.201536
C55	C	1.362021	-0.387866	1.057137
C56	C	1.437331	-0.327419	1.098146
C57	C	1.456002	-0.312425	1.190845
C58	C	1.399373	-0.357879	1.242544
C59	C	1.343346	-0.402863	0.964429
C60	C	1.475283	-0.296955	0.953747
C61	C	1.493960	-0.281965	1.046447
H62	H	0.811314	-0.302403	0.429242
H63	H	1.276776	-1.137466	0.647383
H64	H	1.146030	-0.561236	1.254318
H65	H	1.177400	-0.885416	0.760257
H66	H	1.214874	-0.505983	0.992338
H67	H	1.555278	-0.232748	1.079850
H68	H	0.994991	-0.479301	0.679387
Cl69	Cl	1.423412	-0.791159	0.480805
Cl70	Cl	1.483755	-1.125572	0.411830
Cl71	Cl	1.180759	-1.048426	0.756560
Cl72	Cl	0.878976	-0.540890	0.766479
Cl73	Cl	1.546483	-0.239814	0.888762
H74	H	1.112144	-0.588450	1.086136
Cl75	Cl	0.665619	-0.530999	0.752521
H76	H	0.672874	-0.342396	0.485809
Cl77	Cl	1.422854	-0.339042	1.359088
H78	H	1.369926	-0.763523	0.541053
Cl79	Cl	1.002268	-0.290699	0.412662
Cl80	Cl	1.513328	-0.920471	0.378016
Cl81	Cl	1.248676	-0.478852	0.912886
Cl82	Cl	1.183445	-0.695185	0.753192
H83	H	1.517320	-0.263199	1.224231
