data_functionalizedCrystal
_audit_creation_method	'MofGen! by Chris Wilmer'
_symmetry_space_group_name_H-M	'P1'
_symmetry_Int_Tables_number	1
_symmetry_cell_setting	triclinic
loop_
_symmetry_equiv_pos_as_xyz
  x,y,z
_cell_length_a	14.908571
_cell_length_b	21.295417
_cell_length_c	14.908308
_cell_angle_alpha	86.739365
_cell_angle_beta	89.824947
_cell_angle_gamma	86.726349
loop_
_atom_site_label
_atom_site_type_symbol
_atom_site_fract_x
_atom_site_fract_y
_atom_site_fract_z
Zn1	Zn	1.345216	-0.328502	0.587528
Zn2	Zn	1.845216	0.171498	1.087528
Zn3	Zn	1.353772	-0.428068	0.437153
Zn4	Zn	1.853772	0.071932	0.937153
Zn5	Zn	1.203534	-0.316411	0.428528
Zn6	Zn	1.703534	0.183589	0.928528
Zn7	Zn	1.194800	-0.427320	0.578804
Zn8	Zn	1.694800	0.072680	1.078804
O9	O	1.274330	-0.375075	0.508003
O10	O	1.774330	0.124925	1.008003
O11	O	1.472175	-0.347082	0.574841
O12	O	1.972175	0.152918	1.074841
O13	O	1.341079	-0.408509	0.310185
O14	O	1.841079	0.091491	0.810185
O15	O	1.222403	-0.229930	0.449662
O16	O	1.722403	0.270070	0.949662
O17	O	1.478462	-0.420233	0.464361
O18	O	1.978462	0.079767	0.964361
O19	O	1.326496	-0.238813	0.566479
O20	O	1.826496	0.261187	1.066479
O21	O	1.230699	-0.326476	0.303848
O22	O	1.730699	0.173524	0.803848
O23	O	1.076551	-0.325750	0.441202
O24	O	1.576551	0.174250	0.941202
O25	O	1.207517	-0.418959	0.705785
O26	O	1.707517	0.081041	1.205785
O27	O	1.070134	-0.407235	0.551609
O28	O	1.570134	0.092765	1.051609
O29	O	1.318027	-0.346357	0.712195
O30	O	1.818027	0.153643	1.212195
O31	O	1.332609	-0.516054	0.455901
O32	O	1.832609	-0.016054	0.955901
O33	O	1.215813	-0.515504	0.559972
O34	O	1.715813	-0.015504	1.059972
C35	C	1.040717	-0.365100	0.494524
C36	C	1.540717	0.134900	0.994524
C37	C	0.940775	-0.360848	0.488779
C38	C	1.440775	0.139152	0.988779
C39	C	0.746349	-0.437828	0.592795
C40	C	1.246349	0.062172	1.092795
C41	C	0.652444	-0.433836	0.587400
C42	C	1.152444	0.066164	1.087400
C43	C	0.659060	-0.348868	0.472599
C44	C	1.159060	0.151132	0.972599
C45	C	0.752964	-0.352861	0.477994
C46	C	1.252964	0.147139	0.977994
C47	C	0.796605	-0.397343	0.538093
C48	C	1.296605	0.102657	1.038093
C49	C	0.890512	-0.401338	0.543483
C50	C	1.390512	0.098662	1.043483
C51	C	0.897125	-0.316368	0.428687
C52	C	1.397125	0.183632	0.928687
C53	C	0.803221	-0.312375	0.423292
C54	C	1.303221	0.187625	0.923292
C55	C	1.274215	-0.538620	0.507947
C56	C	1.774215	-0.038620	1.007947
C57	C	1.274247	-0.608590	0.507957
C58	C	1.774247	-0.108590	1.007957
C59	C	1.335110	-0.641726	0.453830
C60	C	1.835110	-0.141726	0.953830
C61	C	1.335151	-0.707471	0.453852
C62	C	1.835151	-0.207471	0.953852
C63	C	1.274313	-0.740076	0.507992
C64	C	1.774313	-0.240076	1.007992
C65	C	1.213445	-0.706932	0.562131
C66	C	1.713445	-0.206932	1.062131
C67	C	1.213412	-0.641189	0.562114
C68	C	1.713412	-0.141189	1.062114
N69	N	1.195260	-0.840247	0.510308
N70	N	1.695260	-0.340247	1.010308
N71	N	1.195295	-0.902701	0.510320
N72	N	1.695295	-0.402701	1.010320
C73	C	1.274411	-0.938157	0.508050
C74	C	1.774411	-0.438157	1.008050
N75	N	1.353494	-0.908801	0.505750
N76	N	1.853494	-0.408801	1.005750
N77	N	1.353459	-0.846341	0.505734
N78	N	1.853459	-0.346341	1.005734
C79	C	1.274343	-0.811364	0.508018
C80	C	1.774343	-0.311364	1.008018
C81	C	1.335324	-1.042582	0.453944
C82	C	1.835324	-0.542582	0.953944
C83	C	1.335366	-1.108328	0.453973
C84	C	1.835366	-0.608328	0.953973
C85	C	1.213652	-1.107788	0.562246
C86	C	1.713652	-0.607788	1.062246
C87	C	1.213618	-1.042043	0.562223
C88	C	1.713618	-0.542043	1.062223
C89	C	1.274453	-1.009444	0.508066
C90	C	1.774453	-0.509444	1.008066
C91	C	1.508856	-0.385090	0.521536
C92	C	2.008856	0.114910	1.021536
C93	C	1.608796	-0.389358	0.527303
C94	C	2.108796	0.110642	1.027303
C95	C	1.260843	-0.383923	0.742527
C96	C	1.760843	0.116077	1.242527
C97	C	1.255096	-0.387694	0.842467
C98	C	1.755096	0.112306	1.342467
C99	C	1.274469	-0.210894	0.508081
C100	C	1.774469	0.289106	1.008081
C101	C	1.274528	-0.140929	0.508114
C102	C	1.774528	0.359071	1.008114
C103	C	1.287817	-0.366218	0.274395
C104	C	1.787817	0.133782	0.774395
C105	C	1.293739	-0.362278	0.174465
C106	C	1.793739	0.137722	0.674465
C107	C	1.359367	-0.319164	1.036941
C108	C	1.859367	0.180836	1.536941
C109	C	1.353969	-0.322705	1.130844
C110	C	1.853969	0.177295	1.630844
C111	C	1.238899	-0.398312	1.124177
C112	C	1.738899	0.101688	1.624177
C113	C	1.244297	-0.394771	1.030274
C114	C	1.744297	0.105229	1.530274
C115	C	1.304533	-0.355197	0.986660
C116	C	1.804533	0.144803	1.486660
C117	C	1.309935	-0.351660	0.892756
C118	C	1.809935	0.148340	1.392756
C119	C	1.194861	-0.427263	0.886090
C120	C	1.694861	0.072737	1.386090
C121	C	1.189463	-0.430804	0.979993
C122	C	1.689463	0.069196	1.479993
H123	H	0.781883	-0.474051	0.641725
H124	H	1.281883	0.025949	1.141725
C125	C	0.655342	-0.518223	0.701416
C126	C	1.155342	-0.018223	1.201416
C127	C	0.597202	-0.478339	0.647529
C128	C	1.097202	0.021661	1.147529
H129	H	0.621236	-0.545700	0.738535
H130	H	1.121236	-0.045700	1.238535
H131	H	0.690007	-0.493690	0.737981
H132	H	1.190007	0.006310	1.237981
H133	H	0.694205	-0.542336	0.664273
H134	H	1.194205	-0.042336	1.164273
H135	H	0.558343	-0.454222	0.684672
H136	H	1.058343	0.045778	1.184672
H137	H	0.562521	-0.502875	0.610960
H138	H	1.062521	-0.002875	1.110960
C139	C	1.130096	-0.469804	1.120980
C140	C	1.630096	0.030196	1.620980
C141	C	1.123256	-0.474304	1.027940
C142	C	1.623256	0.025696	1.527940
H143	H	1.089226	-0.496664	1.150577
H144	H	1.589226	0.003336	1.650577
H145	H	1.116079	-0.427534	1.135621
H146	H	1.616079	0.072466	1.635621
H147	H	1.189622	-0.482172	1.139842
H148	H	1.689622	0.017828	1.639842
H149	H	1.063732	-0.461931	1.009077
H150	H	1.563732	0.038069	1.509077
H151	H	1.137267	-0.516583	1.013292
H152	H	1.637267	-0.016583	1.513292
H153	H	0.623510	-0.312649	0.423674
H154	H	1.123510	0.187351	0.923674
C155	C	1.188366	-0.507423	0.779738
C156	C	1.688366	-0.007423	1.279738
C157	C	1.134579	-0.466874	0.830821
C158	C	1.634579	0.033126	1.330821
H159	H	1.151152	-0.531874	0.745615
H160	H	1.651152	-0.031874	1.245615
H161	H	1.225409	-0.534550	0.818622
H162	H	1.725409	-0.034550	1.318622
H163	H	1.225006	-0.483343	0.740322
H164	H	1.725006	0.016657	1.240322
H165	H	1.097944	-0.490954	0.870242
H166	H	1.597944	0.009046	1.370242
H167	H	1.097521	-0.439744	0.791933
H168	H	1.597521	0.060256	1.291933
C169	C	0.910698	-0.439123	0.697322
C170	C	1.410698	0.060877	1.197322
C171	C	0.938488	-0.450228	0.609546
C172	C	1.438488	0.049772	1.109546
H173	H	0.940319	-0.469304	0.738108
H174	H	1.440319	0.030696	1.238108
H175	H	0.847587	-0.442542	0.701931
H176	H	1.347587	0.057458	1.201931
H177	H	0.925355	-0.397995	0.711458
H178	H	1.425355	0.102005	1.211458
H179	H	0.923824	-0.491355	0.595407
H180	H	1.423824	0.008645	1.095407
H181	H	1.001613	-0.446815	0.604933
H182	H	1.501613	0.053185	1.104933
C183	C	0.662208	-0.268524	0.364050
C184	C	1.162208	0.231476	0.864050
C185	C	0.755244	-0.263482	0.357234
C186	C	1.255244	0.236518	0.857234
H187	H	0.632593	-0.238341	0.323264
H188	H	1.132593	0.261659	0.823264
H189	H	0.643371	-0.261000	0.423598
H190	H	1.143371	0.239000	0.923598
H191	H	0.647562	-0.309651	0.349897
H192	H	1.147562	0.190349	0.849897
H193	H	0.769890	-0.222356	0.371394
H194	H	1.269890	0.277644	0.871394
H195	H	0.774088	-0.271002	0.297673
H196	H	1.274088	0.228998	0.797673
H197	H	0.938054	-0.283403	0.384142
H198	H	1.438054	0.216597	0.884142
C199	C	1.455427	-0.648869	0.346814
C200	C	1.955427	-0.148869	0.846814
C201	C	1.401991	-0.605895	0.394315
C202	C	1.901991	-0.105895	0.894315
H203	H	1.496721	-0.626747	0.310080
H204	H	1.996721	-0.126747	0.810080
H205	H	1.418271	-0.671574	0.310135
H206	H	1.918271	-0.171574	0.810135
H207	H	1.487538	-0.677426	0.388018
H208	H	1.987538	-0.177426	0.888018
H209	H	1.369874	-0.577341	0.353112
H210	H	1.869874	-0.077341	0.853112
H211	H	1.439151	-0.583180	0.430998
H212	H	1.939151	-0.083180	0.930998
H213	H	1.358984	-0.319437	0.857246
H214	H	1.858984	0.180563	1.357246
H215	H	1.384862	-1.016039	0.409849
H216	H	1.884862	-0.516039	0.909849
H217	H	1.189857	-0.430531	1.159704
H218	H	1.689857	0.069469	1.659704
C219	C	1.456837	-0.786045	0.448411
C220	C	1.956837	-0.286045	0.948411
C221	C	1.402032	-0.743911	0.394333
C222	C	1.902032	-0.243911	0.894333
H223	H	1.498122	-0.808539	0.411661
H224	H	1.998122	-0.308539	0.911661
H225	H	1.420610	-0.814860	0.480666
H226	H	1.920610	-0.314860	0.980666
H227	H	1.488959	-0.763309	0.489573
H228	H	1.988959	-0.263309	0.989573
H229	H	1.369906	-0.766648	0.353176
H230	H	1.869906	-0.266648	0.853176
H231	H	1.438264	-0.715093	0.362063
H232	H	1.938264	-0.215093	0.862063
H233	H	1.163912	-0.733484	0.606214
H234	H	1.663912	-0.233484	1.106214
C235	C	1.418743	-0.280176	0.895953
C236	C	1.918743	0.219824	1.395953
C237	C	1.425584	-0.275672	0.988993
C238	C	1.925584	0.224328	1.488993
H239	H	1.459629	-0.253328	0.866355
H240	H	1.959629	0.246672	1.366355
H241	H	1.359230	-0.267799	0.877089
H242	H	1.859230	0.232201	1.377089
H243	H	1.432747	-0.322454	0.881317
H244	H	1.932747	0.177546	1.381317
H245	H	1.411573	-0.233394	1.003630
H246	H	1.911573	0.266606	1.503630
H247	H	1.485110	-0.288045	1.007864
H248	H	1.985110	0.211955	1.507864
H249	H	1.163849	-0.614209	0.606192
H250	H	1.663849	-0.114209	1.106192
H251	H	1.384934	-1.135307	0.409897
H252	H	1.884934	-0.635307	0.909897
H253	H	1.164120	-1.134335	0.606333
H254	H	1.664120	-0.634335	1.106333
H255	H	1.164053	-1.015062	0.606295
H256	H	1.664053	-0.515062	1.106295
C257	C	1.468257	-0.247620	1.127998
C258	C	1.968257	0.252380	1.627998
C259	C	1.414248	-0.283100	1.186114
C260	C	1.914248	0.216900	1.686114
H261	H	1.505475	-0.223171	1.162122
H262	H	2.005475	0.276829	1.662122
H263	H	1.431205	-0.220490	1.089127
H264	H	1.931205	0.279510	1.589127
H265	H	1.504732	-0.275138	1.093341
H266	H	2.004732	0.224862	1.593341
H267	H	1.377768	-0.255581	1.220767
H268	H	1.877768	0.244419	1.720767
H269	H	1.451304	-0.310232	1.225001
H270	H	1.951304	0.189768	1.725001
