data_functionalizedCrystal
_audit_creation_method	'MofGen! by Chris Wilmer'
_symmetry_space_group_name_H-M	'P1'
_symmetry_Int_Tables_number	1
_symmetry_cell_setting	triclinic
loop_
_symmetry_equiv_pos_as_xyz
  x,y,z
_cell_length_a	9.616153
_cell_length_b	14.971486
_cell_length_c	14.971486
_cell_angle_alpha	96.385871
_cell_angle_beta	90.002466
_cell_angle_gamma	89.998089
loop_
_atom_site_label
_atom_site_type_symbol
_atom_site_fract_x
_atom_site_fract_y
_atom_site_fract_z
O1	O	0.115486	-1.186948	0.116559
O2	O	0.115524	-0.926548	0.130518
O3	O	0.115494	-1.063727	-0.006662
O4	O	0.115516	-1.049769	0.253739
O5	O	-0.115797	-1.063709	-0.006659
O6	O	-0.115767	-0.926529	0.130521
O7	O	-0.115805	-1.186929	0.116562
Zn8	Zn	-0.152509	-1.056726	0.123542
Zn9	Zn	0.152228	-1.056751	0.123538
O10	O	-0.115775	-1.049750	0.253742
C11	C	-0.000117	-0.893214	0.129895
C12	C	-0.000102	-0.793917	0.128024
N13	N	-0.360483	-1.056716	0.123544
C14	C	-0.000151	-1.063094	-0.039985
C15	C	-0.000149	-1.061223	-0.139282
C16	C	-0.580837	-0.983114	0.196683
C17	C	-0.419669	-0.983272	0.196954
C18	C	-0.418944	-1.150069	0.144030
C19	C	-0.580162	-1.149667	0.144547
C20	C	-0.580399	-1.037898	0.029674
C21	C	-0.419172	-1.035747	0.030300
N22	N	0.360202	-1.056769	0.123529
C23	C	-0.000161	-1.220263	0.117185
C24	C	-0.000166	-1.319561	0.119056
C25	C	-0.000098	-0.736691	0.208614
C26	C	-0.000118	-0.643392	0.206850
C27	C	-0.000134	-0.607320	0.124497
C28	C	-0.000143	-0.664552	0.043902
C29	C	-0.000132	-0.757850	0.045666
C30	C	-0.000163	-0.470090	0.040231
C31	C	-0.000171	-0.376786	0.038466
C32	C	-0.000149	-0.355632	0.201415
C33	C	-0.000138	-0.448930	0.203179
C34	C	-0.000144	-0.506156	0.122584
C35	C	-0.000162	-1.141812	-0.196507
C36	C	-0.000148	-1.140049	-0.289807
C37	C	-0.000131	-1.057696	-0.325879
C38	C	-0.000114	-0.977101	-0.268646
C39	C	-0.000118	-0.978865	-0.175349
C40	C	-0.000108	-0.973430	-0.463109
C41	C	-0.000107	-0.971665	-0.556413
C42	C	-0.000138	-1.134614	-0.577567
C43	C	-0.000142	-1.136378	-0.484269
C44	C	-0.000128	-1.055782	-0.427043
C45	C	-0.000127	-1.050384	0.287065
C46	C	-0.000119	-1.052254	0.386362
H47	H	-0.380146	-0.913885	0.184734
Br48	Br	-0.648298	-1.002946	0.312118
Br49	Br	-0.355348	-1.003322	0.313051
H50	H	-0.618527	-1.091610	-0.024767
Br51	Br	-0.642815	-1.177357	0.258635
H52	H	-0.000112	-0.478296	0.270239
H53	H	-0.000176	-0.635175	-0.023152
H54	H	-0.000135	-0.804443	-0.019958
H55	H	-0.000084	-0.766054	0.275675
Br56	Br	-0.645175	-1.243678	0.059028
H57	H	-0.000184	-1.208874	-0.167145
H58	H	-0.000113	-0.596802	0.272474
Br59	Br	-0.352052	-1.119340	-0.064699
Br60	Br	-0.000138	-0.277969	0.310796
H61	H	-0.000161	-1.205673	-0.336396
Br62	Br	-0.000162	-1.248144	-0.435314
Br63	Br	-0.000239	-0.327830	-0.073300
H64	H	-0.000170	-0.516682	-0.025399
Br65	Br	-0.000067	-0.865334	-0.317600
Br66	Br	-0.000090	-0.859899	-0.605368
Br67	Br	-0.355055	-1.243605	0.057594
H68	H	-0.000145	-1.200238	-0.624165
Br69	Br	-0.000090	-0.869489	-0.097684
H70	H	-0.619639	-0.913507	0.184661
H71	H	-0.000093	-0.907800	-0.416517
H72	H	-0.380963	-0.967075	0.014756
H73	H	-0.378551	-1.167071	0.211703
Br74	Br	-0.648233	-0.926884	-0.003103
