data_functionalizedCrystal
_audit_creation_method	'MofGen! by Chris Wilmer'
_symmetry_space_group_name_H-M	'P1'
_symmetry_Int_Tables_number	1
_symmetry_cell_setting	triclinic
loop_
_symmetry_equiv_pos_as_xyz
  x,y,z
_cell_length_a	6.817900
_cell_length_b	9.514063
_cell_length_c	9.108908
_cell_angle_alpha	93.165670
_cell_angle_beta	111.764889
_cell_angle_gamma	118.843314
loop_
_atom_site_label
_atom_site_type_symbol
_atom_site_fract_x
_atom_site_fract_y
_atom_site_fract_z
V1	V	-4.263605	-0.292445	-0.509562
O2	O	-4.159044	-0.058042	-0.498538
O3	O	-4.297719	-0.510532	-0.507351
O4	O	-4.280077	-0.319581	-0.731219
O5	O	-4.176808	-0.250314	-0.273120
V6	V	-4.728135	-0.260670	-0.481127
O7	O	-4.566526	-0.362147	-0.571937
O8	O	-4.875411	-0.190969	-0.418752
O9	O	-4.470814	-0.042584	-0.483338
O10	O	-4.950092	-0.495074	-0.492152
O11	O	-4.932328	-0.302801	-0.717569
O12	O	-4.488456	-0.233534	-0.259471
C13	C	-4.160695	-0.562708	-0.499641
C14	C	-4.270306	-0.741200	-0.499311
C15	C	-4.138188	-0.319129	-0.785205
C16	C	-4.233485	-0.342759	-0.966419
C17	C	-4.271182	0.009584	-0.491044
C18	C	-4.140812	0.188073	-0.491385
C19	C	-4.293687	-0.233990	-0.205476
C20	C	-4.177624	-0.210352	-0.024261
H21	H	-4.465016	-0.817193	-0.505823
H22	H	-4.354211	-0.474198	-1.055539
H23	H	-3.946074	-0.735918	-0.484848
H24	H	-4.056879	-0.078921	-0.935148
