data_functionalizedCrystal
_audit_creation_method	'MofGen! by Chris Wilmer'
_symmetry_space_group_name_H-M	'P1'
_symmetry_Int_Tables_number	1
_symmetry_cell_setting	triclinic
loop_
_symmetry_equiv_pos_as_xyz
  x,y,z
_cell_length_a	10.654551
_cell_length_b	27.731996
_cell_length_c	9.730223
_cell_angle_alpha	89.992740
_cell_angle_beta	90.000351
_cell_angle_gamma	83.553329
loop_
_atom_site_label
_atom_site_type_symbol
_atom_site_fract_x
_atom_site_fract_y
_atom_site_fract_z
O1	O	1.664947	0.067887	-0.114292
O2	O	1.299193	0.074355	-0.114301
O3	O	1.493463	0.000793	-0.114267
O4	O	1.470676	0.141449	-0.114327
O5	O	1.493461	0.000795	0.114313
O6	O	1.299191	0.074357	0.114279
O7	O	1.664944	0.067889	0.114288
Zn8	Zn	1.482067	0.071123	0.150575
Zn9	Zn	1.482070	0.071121	-0.150589
O10	O	1.470674	0.141451	0.114253
C11	C	1.252414	0.073881	-0.000012
C12	C	1.113032	0.072460	-0.000014
C13	C	0.916584	0.070453	0.124588
C14	C	1.047547	0.071792	0.124588
C15	C	1.047544	0.071793	-0.124623
C16	C	0.916582	0.070457	-0.124621
C17	C	0.851108	0.069780	0.249197
C18	C	0.916586	0.070448	0.373807
C19	C	1.047550	0.071788	0.373807
C20	C	1.113035	0.072459	0.249197
C21	C	1.492994	-0.017216	0.000028
C22	C	1.491584	-0.070881	0.000042
C23	C	1.482715	-0.403653	-0.124624
C24	C	1.477361	-0.605345	-0.124649
O25	O	1.476616	-0.631421	-0.230616
N26	N	1.476695	-0.630565	-0.000051
C27	C	1.477359	-0.605359	0.124562
O28	O	1.476656	-0.631438	0.230539
C29	C	1.482704	-0.403668	0.124585
C30	C	1.483383	-0.378451	-0.000021
C31	C	1.483392	-0.378436	-0.249220
C32	C	1.484738	-0.328017	-0.249213
C33	C	1.485405	-0.302814	-0.124610
C34	C	1.484728	-0.328032	-0.000014
C35	C	1.483359	-0.378463	0.249196
C36	C	1.484692	-0.328036	0.249191
C37	C	1.485371	-0.302819	0.124585
C38	C	1.486741	-0.252410	0.124596
N39	N	1.487407	-0.227189	-0.000001
C40	C	1.486739	-0.252392	-0.124604
C41	C	1.474555	-0.711250	0.124541
C42	C	1.473221	-0.761673	0.124536
C43	C	1.473221	-0.761655	-0.124675
C44	C	1.474564	-0.711232	-0.124669
C45	C	1.475221	-0.686030	-0.000057
C46	C	1.489566	-0.146507	-0.124580
C47	C	1.490916	-0.096083	-0.124561
C48	C	1.490910	-0.096105	0.124649
C49	C	1.489566	-0.146525	0.124631
C50	C	1.488890	-0.171724	0.000006
O51	O	1.487473	-0.226302	0.230508
O52	O	1.487414	-0.226303	-0.230566
C53	C	1.481369	-0.454073	-0.124632
C54	C	1.480692	-0.479290	-0.000036
C55	C	1.481360	-0.454088	0.124567
C56	C	1.479358	-0.529713	-0.000041
C57	C	1.478690	-0.554915	-0.124644
C58	C	1.479356	-0.529695	-0.249242
C59	C	1.480702	-0.479275	-0.249235
C60	C	1.480694	-0.479308	0.249165
C61	C	1.479350	-0.529728	0.249147
C62	C	1.478682	-0.554930	0.124544
C63	C	1.711723	0.068363	-0.000005
C64	C	1.851106	0.069784	-0.000012
C65	C	1.471143	0.159460	-0.000044
C66	C	1.472553	0.213125	-0.000067
N67	N	1.482074	0.071125	0.356112
N68	N	1.482073	0.071116	-0.356125
C69	C	1.568119	0.038563	0.428053
C70	C	1.568116	0.038557	0.571936
C71	C	1.396020	0.103679	0.571924
C72	C	1.396018	0.103682	0.428043
C73	C	1.654175	0.006005	0.356121
C74	C	1.740228	-0.026559	0.428062
C75	C	1.740225	-0.026565	0.571945
C76	C	1.654169	0.005994	0.643887
H77	H	1.491472	-0.075554	-0.226035
O78	O	1.303218	0.138797	0.350417
H79	H	1.318455	0.176537	0.377995
H80	H	1.489009	-0.167018	-0.226061
H81	H	0.863268	0.069914	-0.226081
H82	H	1.485286	-0.307489	-0.350680
H83	H	1.489025	-0.167058	0.226096
H84	H	1.100857	0.072336	0.475270
H85	H	0.744472	0.068689	0.249211
H86	H	0.863258	0.069905	0.475259
O87	O	1.482644	-0.405609	-0.383633
H88	H	1.568519	-0.399949	-0.443380
O89	O	1.254290	0.073904	0.249188
H90	H	1.288824	0.074255	0.356766
O91	O	1.118181	0.072505	-0.259011
H92	H	1.166017	0.105995	-0.264989
O93	O	1.475271	-0.684035	-0.259066
H94	H	1.560629	-0.697735	-0.318821
O95	O	1.472484	-0.788840	-0.259075
H96	H	1.471430	-0.828137	-0.238132
O97	O	1.833024	-0.061687	0.649548
H98	H	1.893629	-0.041120	0.715108
O99	O	1.654161	0.005990	0.799077
H100	H	1.728455	-0.022121	0.837020
O101	O	1.472519	-0.788871	0.258931
H102	H	1.386298	-0.807825	0.264892
O103	O	1.475292	-0.684075	0.258957
H104	H	1.389427	-0.689739	0.318716
O105	O	1.482614	-0.405654	0.383593
H106	H	1.483284	-0.379649	0.470224
H107	H	1.491459	-0.075577	0.226098
O108	O	1.303219	0.138799	0.649508
H109	H	1.317687	0.133330	0.761643
H110	H	1.481254	-0.458748	-0.350702
H111	H	1.481239	-0.458793	0.350634
H112	H	1.485208	-0.307519	0.350667
O113	O	1.478625	-0.556881	-0.383641
H114	H	1.477565	-0.596178	-0.362696
H115	H	1.478807	-0.550256	0.350624
O116	O	1.654164	0.006009	0.200934
H117	H	1.728449	-0.022104	0.162998
H118	H	1.810284	-0.053069	0.369480
