data_functionalizedCrystal
_audit_creation_method	'MofGen! by Chris Wilmer'
_symmetry_space_group_name_H-M	'P1'
_symmetry_Int_Tables_number	1
_symmetry_cell_setting	triclinic
loop_
_symmetry_equiv_pos_as_xyz
  x,y,z
_cell_length_a	10.967926
_cell_length_b	10.908878
_cell_length_c	10.065875
_cell_angle_alpha	83.393046
_cell_angle_beta	86.879521
_cell_angle_gamma	72.684821
loop_
_atom_site_label
_atom_site_type_symbol
_atom_site_fract_x
_atom_site_fract_y
_atom_site_fract_z
O1	O	1.568541	0.221803	-0.255422
O2	O	1.217771	0.225435	-0.172920
O3	O	1.439654	0.038916	-0.225113
O4	O	1.346658	0.408322	-0.203230
O5	O	1.397314	0.074632	-0.442142
O6	O	1.175431	0.261151	-0.389950
O7	O	1.526201	0.257519	-0.472451
Zn8	Zn	1.344094	0.265006	-0.465659
Zn9	Zn	1.399879	0.217949	-0.179713
O10	O	1.304318	0.444038	-0.420259
C11	C	1.152400	0.240330	-0.271039
C12	C	1.020698	0.231486	-0.240062
C13	C	0.940048	0.246045	-0.338680
C14	C	0.803926	0.236905	-0.306666
C15	C	1.427176	0.009349	-0.335670
C16	C	1.453059	-0.131964	-0.341753
C17	C	1.591573	0.242624	-0.374330
C18	C	1.723277	0.251466	-0.405298
C19	C	1.358619	-0.185499	-0.319538
C20	C	1.385369	-0.331553	-0.325825
C21	C	1.316797	0.473605	-0.309699
C22	C	1.290916	0.614917	-0.303607
N23	N	1.306031	0.297121	-0.660811
C24	C	1.386630	0.229114	-0.747548
C25	C	1.357343	0.253841	-0.897827
N26	N	1.437953	0.185824	0.015437
H27	H	0.772207	0.217669	-0.198529
O28	O	1.197798	0.388269	-0.705074
C29	C	0.999721	0.433188	-0.819957
C30	C	1.122255	0.329838	-0.769934
H31	H	0.938598	0.385982	-0.872382
H32	H	1.026163	0.509520	-0.893157
H33	H	0.943644	0.480572	-0.731266
H34	H	1.178390	0.282356	-0.858540
H35	H	1.095726	0.253589	-0.696692
O36	O	0.761305	0.274234	-0.534270
C37	C	0.909877	0.196672	-0.712675
C38	C	0.866964	0.170744	-0.566593
H39	H	0.995290	0.113005	-0.738862
H40	H	0.938095	0.289905	-0.725436
H41	H	0.827941	0.206268	-0.781910
H42	H	0.948843	0.161085	-0.497267
H43	H	0.838703	0.077536	-0.553941
O44	O	1.573170	-0.206362	-0.369758
C45	C	1.751819	-0.386537	-0.294215
C46	C	1.615805	-0.302370	-0.262318
H47	H	1.786320	-0.464196	-0.207382
H48	H	1.818841	-0.323590	-0.309892
H49	H	1.750953	-0.434191	-0.389047
H50	H	1.616547	-0.254701	-0.167473
H51	H	1.548841	-0.365379	-0.246726
H52	H	1.477312	0.152579	-0.710555
O53	O	1.545933	0.094220	-0.940390
C54	C	1.635101	-0.103953	-0.800385
C55	C	1.512777	-0.000150	-0.850200
H56	H	1.608337	-0.180291	-0.727479
H57	H	1.696492	-0.057253	-0.747675
H58	H	1.691040	-0.151207	-0.889210
H59	H	1.456737	0.047141	-0.761450
H60	H	1.451481	-0.046921	-0.902953
O61	O	0.982637	0.208606	-0.111130
C62	C	0.812308	0.178505	0.038325
C63	C	0.855231	0.204451	-0.107751
H64	H	0.709306	0.175110	0.041102
H65	H	0.819180	0.258976	0.097782
H66	H	0.876708	0.082119	0.084230
H67	H	0.790867	0.300797	-0.153775
H68	H	0.848391	0.123905	-0.167113
O69	O	1.238515	-0.111352	-0.291107
C70	C	1.062412	-0.071889	-0.132042
C71	C	1.198421	-0.155976	-0.164087
H72	H	1.029965	-0.107919	-0.029335
H73	H	0.994361	-0.078089	-0.210962
H74	H	1.062256	0.032665	-0.132075
H75	H	1.198701	-0.260564	-0.164035
H76	H	1.266414	-0.149666	-0.085161
O77	O	1.170801	-0.310946	-0.275176
C78	C	0.994693	-0.271497	-0.116117
C79	C	1.130708	-0.355574	-0.148158
H80	H	0.962247	-0.307530	-0.013412
H81	H	0.926648	-0.277704	-0.195040
H82	H	0.994528	-0.166940	-0.116149
H83	H	1.130997	-0.460165	-0.148107
H84	H	1.198695	-0.349257	-0.069230
H85	H	0.971777	0.265269	-0.446810
H86	H	1.266648	0.330371	-0.934814
H87	H	1.486031	-0.393843	-0.349505
