data_functionalizedCrystal
_audit_creation_method	'MofGen! by Chris Wilmer'
_symmetry_space_group_name_H-M	'P1'
_symmetry_Int_Tables_number	1
_symmetry_cell_setting	triclinic
loop_
_symmetry_equiv_pos_as_xyz
  x,y,z
_cell_length_a	17.699083
_cell_length_b	17.699083
_cell_length_c	16.776229
_cell_angle_alpha	90.007545
_cell_angle_beta	89.994534
_cell_angle_gamma	96.716985
loop_
_atom_site_label
_atom_site_type_symbol
_atom_site_fract_x
_atom_site_fract_y
_atom_site_fract_z
O1	O	1.004078	-0.095713	-0.066258
O2	O	0.783700	-0.108165	-0.066267
O3	O	0.900116	0.008250	-0.066256
O4	O	0.887663	-0.212128	-0.066270
O5	O	0.900100	0.008257	0.066321
O6	O	0.783685	-0.108158	0.066309
O7	O	1.004063	-0.095706	0.066318
Zn8	Zn	0.893871	-0.101931	0.087363
Zn9	Zn	0.893892	-0.101940	-0.087312
O10	O	0.887648	-0.212121	0.066306
C11	C	0.899662	0.036451	0.000033
C12	C	0.898323	0.120469	0.000033
C13	C	0.755495	-0.107716	0.000020
C14	C	0.671477	-0.106377	0.000017
C15	C	1.032268	-0.096156	0.000029
C16	C	1.116286	-0.097494	0.000027
C17	C	1.164907	-0.029161	0.000029
C18	C	1.243850	-0.030423	0.000031
C19	C	1.274171	-0.100020	0.000026
C20	C	1.225544	-0.168358	0.000027
C21	C	1.146602	-0.167095	0.000030
C22	C	1.543907	-0.173453	0.000015
C23	C	1.622855	-0.174711	0.000010
C24	C	1.641155	-0.036781	0.000016
C25	C	1.562213	-0.035518	0.000019
C26	C	1.513593	-0.103857	0.000024
C27	C	1.427994	-0.102487	0.000023
C28	C	1.359769	-0.101390	0.000022
C29	C	0.888102	-0.240322	0.000016
C30	C	0.889440	-0.324340	0.000011
N31	N	0.893863	-0.101924	0.206574
C32	C	0.966656	0.169090	0.000037
C33	C	0.965394	0.248033	0.000030
C34	C	0.895798	0.278354	0.000025
C35	C	0.827459	0.229727	0.000018
C36	C	0.828722	0.150785	0.000020
C37	C	0.822364	0.548090	0.000012
C38	C	0.821106	0.627038	0.000013
C39	C	0.959036	0.645338	0.000022
C40	C	0.960299	0.566396	0.000023
C41	C	0.891961	0.517776	0.000013
C42	C	0.893330	0.432177	0.000019
C43	C	0.894427	0.363951	0.000024
N44	N	0.893906	-0.101941	-0.206523
C45	C	0.945428	-0.050396	0.248297
C46	C	0.945432	-0.050396	0.331749
C47	C	0.893875	-0.101927	0.373477
C48	C	0.842305	-0.153457	0.331749
C49	C	0.842297	-0.153454	0.248298
C50	C	0.842332	-0.153472	0.668296
C51	C	0.842345	-0.153473	0.751753
C52	C	0.945466	-0.050414	0.751747
C53	C	0.945459	-0.050411	0.668296
C54	C	0.893887	-0.101938	0.626575
C55	C	0.893882	-0.101937	0.536087
C56	C	0.893882	-0.101932	0.463964
H57	H	1.140226	0.027513	0.000028
H58	H	0.987457	-0.008456	0.785725
F59	F	0.755992	0.099039	0.000013
F60	F	0.787467	-0.208322	0.796162
F61	F	1.000311	0.004446	0.376153
F62	F	0.753389	0.261998	0.000004
H63	H	0.800342	-0.195428	0.634334
F64	F	1.040732	0.136828	0.000050
F65	F	1.000335	0.004433	0.623889
F66	F	0.747028	0.659305	0.000006
H67	H	1.647538	-0.231388	0.000009
H68	H	0.800322	-0.195412	0.365729
H69	H	0.800308	-0.195412	0.214329
F70	F	1.031768	0.697089	0.000030
F71	F	1.295593	0.042307	0.000037
H72	H	0.987414	-0.008437	0.214327
H73	H	1.021038	0.287618	0.000035
H74	H	1.537531	0.021154	0.000019
F75	F	1.692907	0.035951	0.000016
H76	H	0.766718	0.508512	0.000003
H77	H	1.504329	-0.229099	0.000015
H78	H	1.250237	-0.225025	0.000028
F79	F	1.094856	-0.239825	0.000033
H80	H	1.016971	0.541714	0.000031
