data_functionalizedCrystal
_audit_creation_method	'MofGen! by Chris Wilmer'
_symmetry_space_group_name_H-M	'P1'
_symmetry_Int_Tables_number	1
_symmetry_cell_setting	triclinic
loop_
_symmetry_equiv_pos_as_xyz
  x,y,z
_cell_length_a	16.120484
_cell_length_b	19.077142
_cell_length_c	19.076919
_cell_angle_alpha	89.925643
_cell_angle_beta	95.046610
_cell_angle_gamma	89.262225
loop_
_atom_site_label
_atom_site_type_symbol
_atom_site_fract_x
_atom_site_fract_y
_atom_site_fract_z
Zn1	Zn	-0.403281	-1.040335	-0.456977
Zn2	Zn	-0.537307	-1.039014	-0.344962
Zn3	Zn	-0.392113	-0.928049	-0.334309
Zn4	Zn	-0.536802	-0.916859	-0.457690
O5	O	-0.467376	-0.981064	-0.398485
O6	O	-0.425946	-1.138274	-0.446278
O7	O	-0.513584	-1.028425	-0.245035
O8	O	-0.276952	-0.948180	-0.345825
O9	O	-0.524413	-1.137304	-0.363981
O10	O	-0.285157	-1.030676	-0.435949
O11	O	-0.406910	-0.946900	-0.237208
O12	O	-0.406421	-0.828450	-0.346516
O13	O	-0.523553	-0.929107	-0.556110
O14	O	-0.512723	-0.820229	-0.437163
O15	O	-0.425456	-1.019824	-0.555586
O16	O	-0.653882	-1.017574	-0.364673
O17	O	-0.653511	-0.927827	-0.447493
C18	C	-0.683943	-0.971361	-0.407332
C19	C	-0.776595	-0.967274	-0.411144
C20	C	-0.458306	-0.798900	-0.390762
C21	C	-0.454446	-0.720967	-0.387475
C22	C	-0.475694	-0.973365	-0.582106
C23	C	-0.479238	-0.970084	-0.660354
C24	C	-0.946233	-0.959814	-0.418117
C25	C	-0.987684	-1.002440	-0.378870
C26	C	-1.082077	-0.998289	-0.382749
C27	C	-0.851832	-0.963963	-0.414238
C28	C	-0.249965	-0.990823	-0.389619
C29	C	-0.157317	-0.994982	-0.385841
C30	C	-0.508056	-0.680091	-0.433059
C31	C	-0.504419	-0.606866	-0.429974
C32	C	-0.447176	-0.574518	-0.381301
C33	C	-0.393560	-0.615399	-0.335715
C34	C	-0.397194	-0.688623	-0.338804
C35	C	-0.430361	-0.355978	-0.367012
C36	C	-0.426733	-0.282749	-0.363925
C37	C	-0.537592	-0.274221	-0.458185
C38	C	-0.541224	-0.347447	-0.461267
C39	C	-0.487605	-0.388322	-0.415684
N40	N	-0.443458	-0.499669	-0.378145
N41	N	-0.491319	-0.463168	-0.418844
C42	C	-0.476477	-0.163941	-0.406230
C43	C	-0.480343	-0.241873	-0.409509
C44	C	-0.429832	-1.015772	-0.696843
C45	C	-0.433159	-1.012680	-0.770365
C46	C	-0.485897	-0.963904	-0.807397
C47	C	-0.535305	-0.918212	-0.770902
C48	C	-0.531973	-0.921300	-0.697381
C49	C	-0.501335	-0.949600	-1.027310
C50	C	-0.504665	-0.946516	-1.100836
C51	C	-0.402517	-1.040984	-1.100295
C52	C	-0.399194	-1.044071	-1.026773
C53	C	-0.448598	-0.998376	-0.990284
N54	N	-0.489301	-0.960745	-0.882548
N55	N	-0.445190	-1.001533	-0.915133
C56	C	-0.459032	-0.988777	-0.215578
C57	C	-0.455259	-0.992204	-0.137326
H58	H	-0.952280	-1.042049	-0.342355
C59	C	-0.561893	-0.893619	-1.141172
C60	C	-0.554249	-0.900709	-1.213369
C61	C	-0.606956	-0.852000	-1.250548
H62	H	-0.546846	-0.847532	-1.126711
H63	H	-0.617887	-0.901865	-1.131886
H64	H	-0.498267	-0.892458	-1.222650
H65	H	-0.569302	-0.946786	-1.227850
H66	H	-0.662950	-0.860247	-1.241263
H67	H	-0.591905	-0.805917	-1.236081
H68	H	-0.601783	-0.856809	-1.299538
H69	H	-0.981635	-0.920206	-0.454628
C70	C	-0.372061	-0.400391	-0.317635
C71	C	-0.322586	-0.443137	-0.357162
C72	C	-0.268862	-0.484057	-0.311697
H73	H	-0.403821	-0.428875	-0.289408
H74	H	-0.337403	-0.370663	-0.288213
H75	H	-0.357239	-0.472862	-0.386571
H76	H	-0.290808	-0.414671	-0.385386
H77	H	-0.234204	-0.454329	-0.282276
H78	H	-0.300629	-0.512537	-0.283473
H79	H	-0.235282	-0.513060	-0.338509
H80	H	-0.572196	-0.884089	-0.667671
H81	H	-0.554673	-0.706424	-0.472691
H82	H	-0.548075	-0.573588	-0.467092
H83	H	-0.541576	-0.912401	-0.997611
C84	C	-0.603403	-0.382435	-0.514186
C85	C	-0.649562	-0.330964	-0.553459
C86	C	-0.706846	-0.363169	-0.602218
H87	H	-0.639943	-0.410497	-0.489971
H88	H	-0.574404	-0.411127	-0.544847
H89	H	-0.678559	-0.302284	-0.522802
H90	H	-0.613045	-0.302900	-0.577688
H91	H	-0.677847	-0.391861	-0.632879
H92	H	-0.743379	-0.391230	-0.577997
H93	H	-0.738166	-0.328251	-0.628875
H94	H	-0.581244	-0.240933	-0.495297
C95	C	-0.364491	-0.247758	-0.311054
C96	C	-0.318295	-0.299226	-0.271807
C97	C	-0.260948	-0.267018	-0.223105
H98	H	-0.393416	-0.219056	-0.280364
H99	H	-0.327987	-0.219706	-0.335334
H100	H	-0.354794	-0.327265	-0.247529
H101	H	-0.289353	-0.327931	-0.302478
H102	H	-0.224445	-0.238966	-0.247384
H103	H	-0.289880	-0.238317	-0.192420
H104	H	-0.229593	-0.301934	-0.196474
C105	C	-0.338952	-0.732883	-0.289225
C106	C	-0.288059	-0.688883	-0.245923
C107	C	-0.234402	-0.729630	-0.200235
H108	H	-0.305244	-0.761956	-0.315845
H109	H	-0.370789	-0.761290	-0.260974
H110	H	-0.256225	-0.660488	-0.274170
H111	H	-0.321744	-0.659810	-0.219288
H112	H	-0.266239	-0.758037	-0.171984
H113	H	-0.200700	-0.758701	-0.226861
H114	H	-0.199870	-0.699782	-0.170845
C115	C	-0.592541	-0.865325	-0.811234
C116	C	-0.584903	-0.872410	-0.883432
C117	C	-0.637626	-0.823709	-0.920607
H118	H	-0.577504	-0.819235	-0.796773
H119	H	-0.648531	-0.873581	-0.801944
H120	H	-0.528925	-0.864149	-0.892717
H121	H	-0.599947	-0.918489	-0.897914
H122	H	-0.693617	-0.831966	-0.911317
H123	H	-0.622585	-0.777623	-0.906140
H124	H	-0.632457	-0.828515	-0.969597
C125	C	-0.372488	-1.068755	-0.656766
C126	C	-0.329916	-1.108091	-0.704461
C127	C	-0.277072	-1.156900	-0.667568
H128	H	-0.404503	-1.099146	-0.630678
H129	H	-0.333491	-1.044786	-0.625480
H130	H	-0.368908	-1.132059	-0.735734
H131	H	-0.297885	-1.077720	-0.730549
H132	H	-0.238075	-1.132930	-0.636282
H133	H	-0.309094	-1.187285	-0.641483
H134	H	-0.248175	-1.183590	-0.699923
C135	C	-0.379655	-1.062308	-0.810086
C136	C	-0.430995	-1.103339	-0.856148
C137	C	-0.381730	-1.149054	-0.892758
H138	H	-0.347755	-1.091867	-0.777589
H139	H	-0.343319	-1.035922	-0.836183
H140	H	-0.467316	-1.129723	-0.830053
H141	H	-0.462895	-1.073799	-0.888658
H142	H	-0.345394	-1.122668	-0.918856
H143	H	-0.349832	-1.178609	-0.860257
H144	H	-0.416556	-1.176895	-0.924021
C145	C	-0.348907	-1.090505	-1.140036
C146	C	-0.363093	-1.077351	-1.212348
C147	C	-0.313709	-1.122949	-1.248978
H148	H	-0.362855	-1.137600	-1.130569
H149	H	-0.291830	-1.083253	-1.125306
H150	H	-0.420158	-1.084609	-1.227073
H151	H	-0.349140	-1.030265	-1.221836
H152	H	-0.256631	-1.115698	-1.234247
H153	H	-0.327661	-1.170042	-1.239505
H154	H	-0.323321	-1.114027	-1.298044
H155	H	-0.346948	-0.589055	-0.296088
H156	H	-0.356251	-1.083792	-0.996627
