data_functionalizedCrystal
_audit_creation_method	'MofGen! by Chris Wilmer'
_symmetry_space_group_name_H-M	'P1'
_symmetry_Int_Tables_number	1
_symmetry_cell_setting	triclinic
loop_
_symmetry_equiv_pos_as_xyz
  x,y,z
_cell_length_a	29.839131
_cell_length_b	19.077142
_cell_length_c	19.076919
_cell_angle_alpha	89.925643
_cell_angle_beta	92.267459
_cell_angle_gamma	92.263213
loop_
_atom_site_label
_atom_site_type_symbol
_atom_site_fract_x
_atom_site_fract_y
_atom_site_fract_z
Zn1	Zn	-0.217348	-1.058169	-0.440427
Zn2	Zn	0.282652	-0.558169	0.059573
Zn3	Zn	-0.289580	-1.062776	-0.322912
Zn4	Zn	0.210420	-0.562776	0.177088
Zn5	Zn	-0.211328	-0.945390	-0.318218
Zn6	Zn	0.288672	-0.445390	0.181782
Zn7	Zn	-0.289308	-0.940598	-0.435661
Zn8	Zn	0.210692	-0.440598	0.064339
O9	O	-0.251891	-1.001733	-0.379304
O10	O	0.248109	-0.501733	0.120696
O11	O	-0.229563	-1.157111	-0.428798
O12	O	0.270437	-0.657111	0.071202
O13	O	-0.276795	-1.051138	-0.223958
O14	O	0.223205	-0.551138	0.276042
O15	O	-0.149263	-0.960428	-0.334459
O16	O	0.350737	-0.460428	0.165541
O17	O	-0.282631	-1.160495	-0.342460
O18	O	0.217369	-0.660495	0.157540
O19	O	-0.153685	-1.043286	-0.424246
O20	O	0.346315	-0.543286	0.075754
O21	O	-0.219303	-0.964895	-0.220509
O22	O	0.280697	-0.464895	0.279491
O23	O	-0.219040	-0.846424	-0.329837
O24	O	0.280960	-0.346424	0.170163
O25	O	-0.282168	-0.952261	-0.534624
O26	O	0.217832	-0.452261	-0.034624
O27	O	-0.276331	-0.842903	-0.416122
O28	O	0.223669	-0.342903	0.083878
O29	O	-0.229299	-1.038640	-0.538126
O30	O	0.270701	-0.538640	-0.038126
O31	O	-0.352409	-1.046491	-0.337838
O32	O	0.147591	-0.546491	0.162162
O33	O	-0.352209	-0.956728	-0.420674
O34	O	0.147791	-0.456728	0.079326
C35	C	-0.247003	-0.819167	-0.371953
C36	C	0.252997	-0.319167	0.128047
C37	C	-0.244923	-0.741064	-0.368825
C38	C	0.255077	-0.241064	0.131175
C39	C	-0.273816	-0.702560	-0.412209
C40	C	0.226184	-0.202560	0.087791
C41	C	-0.271856	-0.629173	-0.409273
C42	C	0.228144	-0.129173	0.090727
C43	C	-0.241004	-0.594293	-0.362950
C44	C	0.258996	-0.094293	0.137050
C45	C	-0.212108	-0.632803	-0.319564
C46	C	0.287892	-0.132803	0.180436
C47	C	-0.214067	-0.706188	-0.322504
C48	C	0.285933	-0.206188	0.177496
C49	C	-0.231942	-0.375010	-0.349351
C50	C	0.268058	0.124990	0.150649
C51	C	-0.229987	-0.301620	-0.346413
C52	C	0.270013	0.198380	0.153587
C53	C	-0.289734	-0.297995	-0.436123
C54	C	0.210266	0.202005	0.063877
C55	C	-0.291691	-0.371382	-0.439056
C56	C	0.208309	0.128618	0.060944
C57	C	-0.262794	-0.409885	-0.395673
C58	C	0.237206	0.090115	0.104327
N59	N	-0.239001	-0.519281	-0.359946
N60	N	0.260999	-0.019281	0.140054
N61	N	-0.264795	-0.484896	-0.398681
N62	N	0.235205	0.015104	0.101319
C63	C	-0.368609	-1.001608	-0.379264
C64	C	0.131391	-0.501608	0.120736
C65	C	-0.418544	-1.001617	-0.379273
C66	C	0.081456	-0.501617	0.120727
C67	C	-0.728287	-1.048552	-0.336241
C68	C	-0.228287	-0.548552	0.163759
C69	C	-0.915963	-1.048638	-0.336271
C70	C	-0.415963	-0.548638	0.163729
O71	O	-0.940308	-1.088444	-0.299653
O72	O	-0.440308	-0.588444	0.200347
N73	N	-0.939338	-1.001877	-0.379363
N74	N	-0.439338	-0.501877	0.120637
C75	C	-0.915792	-0.955094	-0.422454
C76	C	-0.415792	-0.455094	0.077546
O77	O	-0.939981	-0.915328	-0.459112
O78	O	-0.439981	-0.415328	0.040888
C79	C	-0.728117	-0.955012	-0.422426
C80	C	-0.228117	-0.455012	0.077574
C81	C	-0.704744	-1.001772	-0.379326
C82	C	-0.204744	-0.501772	0.120674
C83	C	-0.704913	-1.095308	-0.293145
C84	C	-0.204913	-0.595308	0.206855
C85	C	-0.657997	-1.095284	-0.293135
C86	C	-0.157997	-0.595284	0.206865
C87	C	-0.634454	-1.048503	-0.336221
C88	C	-0.134454	-0.548503	0.163779
C89	C	-0.657827	-1.001747	-0.379316
C90	C	-0.157827	-0.501747	0.120684
C91	C	-0.704572	-0.908234	-0.465520
C92	C	-0.204572	-0.408234	0.034480
C93	C	-0.657650	-0.908219	-0.465511
C94	C	-0.157650	-0.408219	0.034489
C95	C	-0.634277	-0.954978	-0.422411
C96	C	-0.134277	-0.454978	0.077589
C97	C	-0.587368	-0.954942	-0.422392
C98	C	-0.087368	-0.454942	0.077608
N99	N	-0.563993	-1.001703	-0.379300
N100	N	-0.063993	-0.501703	0.120700
C101	C	-0.587536	-1.048484	-0.336214
C102	C	-0.087536	-0.548484	0.163786
C103	C	-1.014324	-0.955139	-0.422464
C104	C	-0.514324	-0.455139	0.077536
C105	C	-1.061243	-0.955159	-0.422470
C106	C	-0.561243	-0.455159	0.077530
C107	C	-1.061410	-1.048704	-0.336289
C108	C	-0.561410	-0.548704	0.163711
C109	C	-1.014491	-1.048680	-0.336279
C110	C	-0.514491	-0.548680	0.163721
C111	C	-0.990949	-1.001900	-0.379372
C112	C	-0.490949	-0.501900	0.120628
C113	C	-0.489008	-1.048428	-0.336196
C114	C	0.010992	-0.548428	0.163804
C115	C	-0.442087	-1.048398	-0.336188
C116	C	0.057913	-0.548398	0.163812
C117	C	-0.441924	-0.954856	-0.422372
C118	C	0.058076	-0.454856	0.077628
C119	C	-0.488840	-0.954884	-0.422378
C120	C	0.011160	-0.454884	0.077622
C121	C	-0.512381	-1.001676	-0.379288
C122	C	-0.012381	-0.501676	0.120712
O123	O	-0.562994	-0.915162	-0.458997
O124	O	-0.062994	-0.415162	0.041003
O125	O	-0.563339	-1.088255	-0.299573
O126	O	-0.063339	-0.588255	0.200427
C127	C	-0.775203	-1.048577	-0.336251
C128	C	-0.275203	-0.548577	0.163749
C129	C	-0.798576	-1.001821	-0.379347
C130	C	-0.298576	-0.501821	0.120653
C131	C	-0.775034	-0.955040	-0.422432
C132	C	-0.275034	-0.455040	0.077568
C133	C	-0.845495	-1.001840	-0.379353
C134	C	-0.345495	-0.501840	0.120647
C135	C	-0.869038	-1.048621	-0.336267
C136	C	-0.369038	-0.548621	0.163733
C137	C	-0.845662	-1.095382	-0.293175
C138	C	-0.345662	-0.595382	0.206825
C139	C	-0.798746	-1.095357	-0.293165
C140	C	-0.298746	-0.595357	0.206835
C141	C	-0.798409	-0.908279	-0.465524
C142	C	-0.298409	-0.408279	0.034476
C143	C	-0.845325	-0.908307	-0.465530
C144	C	-0.345325	-0.408307	0.034470
C145	C	-0.868868	-0.955087	-0.422444
C146	C	-0.368868	-0.455087	0.077556
C147	C	-0.134718	-1.001878	-0.379361
C148	C	0.365282	-0.501878	0.120639
C149	C	-0.084786	-1.001939	-0.379385
C150	C	0.415214	-0.501939	0.120615
C151	C	-0.256374	-0.994402	-0.562584
C152	C	0.243626	-0.494402	-0.062584
C153	C	-0.258285	-0.991277	-0.640687
C154	C	0.241715	-0.491277	-0.140687
C155	C	-0.256796	-0.185012	-0.386676
C156	C	0.243204	0.314988	0.113324
C157	C	-0.258880	-0.263116	-0.389796
C158	C	0.241120	0.236884	0.110204
C159	C	-0.231657	-1.034780	-0.679204
C160	C	0.268343	-0.534780	-0.179204
C161	C	-0.233450	-1.031836	-0.752589
C162	C	0.266550	-0.531836	-0.252589
C163	C	-0.261873	-0.985392	-0.787456
C164	C	0.238127	-0.485392	-0.287456
C165	C	-0.288502	-0.941885	-0.748934
C166	C	0.211498	-0.441885	-0.248934
C167	C	-0.286706	-0.944826	-0.675550
C168	C	0.213294	-0.444826	-0.175550
C169	C	-0.270193	-0.971770	-1.006736
C170	C	0.229807	-0.471770	-0.506736
C171	C	-0.271988	-0.968834	-1.080126
C172	C	0.228012	-0.468834	-0.580126
C173	C	-0.216936	-1.058785	-1.083776
C174	C	0.283064	-0.558785	-0.583776
C175	C	-0.215145	-1.061725	-1.010390
C176	C	0.284855	-0.561725	-0.510390
C177	C	-0.241771	-1.018215	-0.971874
C178	C	0.258229	-0.518215	-0.471874
N179	N	-0.263708	-0.982383	-0.862468
N180	N	0.236292	-0.482383	-0.362468
N181	N	-0.239934	-1.021221	-0.896863
N182	N	0.260066	-0.521221	-0.396863
C183	C	-0.247394	-1.009077	-0.196740
C184	C	0.252606	-0.509077	0.303260
C185	C	-0.245361	-1.012337	-0.118643
C186	C	0.254639	-0.512337	0.381357
H187	H	-0.190537	-0.737538	-0.287180
H188	H	0.309463	-0.237538	0.212820
O189	O	-0.201001	-1.084874	-0.641598
O190	O	0.298999	-0.584874	-0.141598
H191	H	-0.182784	-1.114624	-0.680713
H192	H	0.317216	-0.614624	-0.180713
O193	O	-0.200789	-0.416537	-0.302540
O194	O	0.299211	0.083463	0.197460
H195	H	-0.179016	-0.379952	-0.269824
H196	H	0.320984	0.120048	0.230176
O197	O	-0.196716	-0.263982	-0.296448
O198	O	0.303284	0.236018	0.203552
H199	H	-0.162138	-0.277598	-0.309165
H200	H	0.337862	0.222402	0.190835
H201	H	-0.311643	-0.904066	-0.777328
H202	H	0.188357	-0.404066	-0.277328
H203	H	-0.308384	-0.909394	-0.644189
H204	H	0.191616	-0.409394	-0.144189
O205	O	-0.988934	-0.904665	-0.468928
O206	O	-0.488934	-0.404665	0.031072
H207	H	-1.013074	-0.872148	-0.498879
H208	H	-0.513074	-0.372148	0.001121
O209	O	-0.324966	-0.408994	-0.489027
O210	O	0.175034	0.091006	0.010973
H211	H	-0.359538	-0.395347	-0.476311
H212	H	0.140462	0.104653	0.023689
O213	O	-0.514400	-1.098892	-0.289725
O214	O	-0.014400	-0.598892	0.210275
H215	H	-0.503749	-1.089082	-0.234081
H216	H	-0.003749	-0.589082	0.265919
O217	O	-0.320907	-0.256442	-0.482877
O218	O	0.179093	0.243558	0.017123
H219	H	-0.356227	-0.270975	-0.471255
H220	H	0.143773	0.229025	0.028745
H221	H	-0.638485	-0.870125	-0.500604
H222	H	-0.138485	-0.370125	-0.000604
H223	H	-0.186987	-0.604398	-0.281849
H224	H	0.313013	-0.104398	0.218151
O225	O	-0.307090	-0.740179	-0.462175
O226	O	0.192910	-0.240179	0.037825
H227	H	-0.326847	-0.701072	-0.491855
H228	H	0.173153	-0.201072	0.008145
O229	O	-0.204734	-1.078761	-0.794136
O230	O	0.295266	-0.578761	-0.294136
H231	H	-0.184673	-1.111557	-0.757562
H232	H	0.315327	-0.611557	-0.257562
H233	H	-0.192001	-1.099547	-0.982007
H234	H	0.307999	-0.599547	-0.482007
H235	H	-0.423058	-1.086475	-0.301088
H236	H	0.076942	-0.586475	0.198912
H237	H	-0.295384	-0.597826	-0.444600
H238	H	0.204616	-0.097826	0.055400
H239	H	-0.638969	-1.133361	-0.258042
H240	H	-0.138969	-0.633361	0.241958
H241	H	-0.724077	-1.133406	-0.258059
H242	H	-0.224077	-0.633406	0.241941
H243	H	-0.195258	-1.094208	-1.115144
H244	H	0.304742	-0.594208	-0.615144
H245	H	-0.723594	-0.870154	-0.500613
H246	H	-0.223594	-0.370154	-0.000613
O247	O	-0.302642	-0.918734	-1.117737
O248	O	0.197358	-0.418734	-0.617737
H249	H	-0.320853	-0.888967	-1.078626
H250	H	0.179147	-0.388967	-0.578626
O251	O	-0.298898	-0.924806	-0.965218
O252	O	0.201102	-0.424806	-0.465218
H253	H	-0.334827	-0.936225	-0.979760
H254	H	0.165173	-0.436225	-0.479760
O255	O	-0.989281	-1.099119	-0.289802
O256	O	-0.489281	-0.599119	0.210198
H257	H	-1.013540	-1.131652	-0.259849
H258	H	-0.513540	-0.631652	0.240151
H259	H	-1.080587	-1.086794	-0.301207
H260	H	-0.580587	-0.586794	0.198793
O261	O	-1.086451	-0.904722	-0.468951
O262	O	-0.586451	-0.404722	0.031049
H263	H	-1.062193	-0.872197	-0.498913
H264	H	-0.562193	-0.372197	0.001087
H265	H	-0.507872	-0.916811	-0.457475
H266	H	-0.007872	-0.416811	0.042525
O267	O	-0.416528	-0.904404	-0.468846
O268	O	0.083472	-0.404404	0.031154
H269	H	-0.379977	-0.912253	-0.461601
H270	H	0.120023	-0.412253	0.038399
H271	H	-0.779719	-1.133433	-0.258069
H272	H	-0.279719	-0.633433	0.241931
H273	H	-0.864839	-1.133470	-0.258091
H274	H	-0.364839	-0.633470	0.241909
H275	H	-0.864352	-0.870224	-0.500626
H276	H	-0.364352	-0.370224	-0.000626
O277	O	-0.773018	-0.857806	-0.511981
O278	O	-0.273018	-0.357806	-0.011981
H279	H	-0.797159	-0.825291	-0.541935
H280	H	-0.297159	-0.325291	-0.041935
