data_functionalizedCrystal
_audit_creation_method	'MofGen! by Chris Wilmer'
_symmetry_space_group_name_H-M	'P1'
_symmetry_Int_Tables_number	1
_symmetry_cell_setting	triclinic
loop_
_symmetry_equiv_pos_as_xyz
  x,y,z
_cell_length_a	10.723024
_cell_length_b	14.519709
_cell_length_c	9.798715
_cell_angle_alpha	89.995905
_cell_angle_beta	89.996609
_cell_angle_gamma	84.074007
loop_
_atom_site_label
_atom_site_type_symbol
_atom_site_fract_x
_atom_site_fract_y
_atom_site_fract_z
O1	O	1.655978	0.129347	-0.113485
O2	O	1.292710	0.141728	-0.113490
O3	O	1.483975	0.001349	-0.113475
O4	O	1.464712	0.269727	-0.113500
O5	O	1.483961	0.001348	0.113507
O6	O	1.292695	0.141728	0.113492
O7	O	1.655963	0.129347	0.113497
Zn8	Zn	1.474327	0.135537	0.149533
Zn9	Zn	1.474346	0.135538	-0.149526
O10	O	1.464698	0.269727	0.113482
C11	C	1.246211	0.140827	0.000000
C12	C	1.107682	0.138132	-0.000001
C13	C	1.031965	0.216681	-0.000009
C14	C	0.888788	0.213896	-0.000011
C15	C	1.483070	-0.033016	0.000016
C16	C	1.480380	-0.135411	0.000017
C17	C	1.470476	-0.510357	-0.000019
C18	C	1.473227	-0.406035	-0.000009
C19	C	1.475428	-0.322887	0.000000
C20	C	1.478179	-0.218559	0.000008
C21	C	1.702462	0.130248	0.000003
C22	C	1.840991	0.132944	-0.000004
C23	C	1.465603	0.304091	-0.000012
C24	C	1.468293	0.406486	-0.000022
N25	N	1.474323	0.135537	0.353632
N26	N	1.474359	0.135532	-0.353626
C27	C	1.554633	0.076335	0.421415
C28	C	1.554653	0.076332	0.578578
H29	H	0.906045	0.065696	-0.000006
H30	H	1.405604	0.186222	0.588092
O31	O	0.811358	0.294210	-0.000080
C32	C	0.883609	0.370019	-0.000050
H33	H	0.980728	0.347310	-0.043016
H34	H	0.892880	0.396104	0.108843
C35	C	0.699534	0.476159	-0.036301
C36	C	0.818813	0.448270	-0.089084
H37	H	0.659563	0.524430	-0.091215
H38	H	0.650855	0.425086	-0.036316
H39	H	0.707276	0.497890	0.054443
H40	H	0.811068	0.426528	-0.179818
H41	H	0.867489	0.499341	-0.089085
H42	H	1.066508	0.068822	-0.000030
H43	H	1.623414	0.025651	0.636869
H44	H	1.405577	0.186216	0.411951
H45	H	1.623371	0.025649	0.363098
O46	O	1.081279	0.299293	-0.000071
C47	C	1.213257	0.283681	-0.000027
H48	H	1.243537	0.211886	-0.042997
H49	H	1.249499	0.288339	0.108870
C50	C	1.230369	0.445501	-0.036263
C51	C	1.267560	0.357324	-0.089050
H52	H	1.263868	0.490929	-0.091170
H53	H	1.141453	0.456020	-0.036287
H54	H	1.260573	0.449369	0.054484
H55	H	1.237343	0.353453	-0.179788
H56	H	1.356472	0.346806	-0.089043
