data_functionalizedCrystal
_audit_creation_method	'MofGen! by Chris Wilmer'
_symmetry_space_group_name_H-M	'P1'
_symmetry_Int_Tables_number	1
_symmetry_cell_setting	triclinic
loop_
_symmetry_equiv_pos_as_xyz
  x,y,z
_cell_length_a	16.120484
_cell_length_b	17.639874
_cell_length_c	17.639407
_cell_angle_alpha	109.609491
_cell_angle_beta	76.566450
_cell_angle_gamma	76.502643
loop_
_atom_site_label
_atom_site_type_symbol
_atom_site_fract_x
_atom_site_fract_y
_atom_site_fract_z
Zn1	Zn	-0.131769	-1.157512	0.219638
Zn2	Zn	-0.238588	-1.178878	0.088288
Zn3	Zn	-0.131772	-1.047609	0.109662
Zn4	Zn	-0.311101	-1.008867	0.258203
O5	O	-0.203308	-1.098217	0.168948
O6	O	-0.115591	-1.277491	0.177130
O7	O	-0.194072	-1.186621	-0.026011
O8	O	-0.012017	-1.069460	0.117056
O9	O	-0.194070	-1.293189	0.080628
O10	O	-0.012016	-1.150205	0.197855
O11	O	-0.115595	-1.090179	-0.010308
O12	O	-0.185908	-0.925325	0.154452
O13	O	-0.317658	-1.003429	0.370223
O14	O	-0.317661	-0.896862	0.263584
O15	O	-0.185904	-1.112638	0.341889
O16	O	-0.367961	-1.149054	0.118023
O17	O	-0.421236	-1.024148	0.242858
C18	C	-0.259654	-0.880719	0.215522
C19	C	-0.283785	-0.787667	0.235468
C20	C	-0.019909	-0.555548	0.017382
C21	C	-0.042604	-0.468109	0.036136
C22	C	-0.179901	-0.438554	0.149601
C23	C	-0.157215	-0.525993	0.130858
C24	C	-0.077218	-0.584484	0.064747
C25	C	-0.214524	-0.554928	0.178224
C26	C	-0.191843	-0.642360	0.159480
C27	C	-0.111851	-0.700856	0.093370
C28	C	-0.054537	-0.671915	0.046004
C29	C	-0.294524	-0.496436	0.244330
C30	C	-0.351833	-0.525371	0.291696
C31	C	-0.329149	-0.612804	0.272956
C32	C	-0.249157	-0.671300	0.206847
C33	C	-0.386463	-0.641744	0.320323
C34	C	-0.363781	-0.729176	0.301579
C35	C	-0.226475	-0.758732	0.188103
C36	C	-0.425648	-1.084734	0.182319
C37	C	-0.520754	-1.079037	0.188051
C38	C	-0.694873	-1.068637	0.198532
C39	C	-0.710866	-1.127944	0.139346
C40	C	-0.807752	-1.122157	0.145177
C41	C	-0.597979	-1.074422	0.192702
C42	C	0.019902	-1.111770	0.155538
C43	C	0.115021	-1.117546	0.149824
C44	C	-0.259870	-1.051328	0.387277
C45	C	-0.283973	-1.031347	0.480316
C46	C	-0.146729	-0.316566	0.122183
C47	C	-0.122585	-0.409620	0.102231
C48	C	-0.020282	-1.249923	0.712552
C49	C	-0.042953	-1.231137	0.799979
C50	C	-0.180137	-1.117428	0.829470
C51	C	-0.157480	-1.136207	0.742043
C52	C	-0.077551	-1.202455	0.683590
C53	C	-0.214749	-1.088739	0.713081
C54	C	-0.192091	-1.107514	0.625663
C55	C	-0.112164	-1.173757	0.567205
C56	C	-0.054893	-1.221230	0.596171
C57	C	-0.294674	-1.022487	0.771536
C58	C	-0.351943	-0.975019	0.742575
C59	C	-0.329289	-0.993798	0.655154
C60	C	-0.249362	-1.060041	0.596696
C61	C	-0.386560	-0.946325	0.626188
C62	C	-0.363902	-0.965100	0.538769
C63	C	-0.226704	-1.078815	0.509277
C64	C	-0.146981	-1.144917	0.951470
C65	C	-0.122863	-1.164901	0.858430
H66	H	-0.451600	-0.594110	0.374145
F67	F	-0.633658	-1.199989	0.067387
H68	H	0.003692	-1.269792	0.823554
F69	F	-0.424778	-0.759973	0.351989
H70	H	-0.313113	-1.007196	0.842719
F71	F	-0.772078	-0.996594	0.270483
H72	H	-0.161621	-1.132765	0.461680
H73	H	-0.093718	-1.189042	0.496023
F74	F	0.030170	-1.291746	0.533955
H75	H	0.044801	-1.303872	0.664955
H76	H	-0.451633	-0.892381	0.673793
H77	H	-0.245214	-1.063488	0.877074
F78	F	0.065237	-0.617804	-0.052976
H79	H	-0.161325	-0.806357	0.134280
H80	H	0.010614	-0.719541	-0.007819
H81	H	-0.417020	-0.921079	0.790179
H82	H	-0.093387	-0.772048	0.078109
F83	F	0.018396	-0.437319	-0.014286
F84	F	-0.436975	-0.463115	0.362045
H85	H	-0.410526	-0.926434	0.515191
H86	H	-0.245035	-0.390920	0.203426
F87	F	-0.318669	-0.403384	0.264270
