data_functionalizedCrystal
_audit_creation_method	'MofGen! by Chris Wilmer'
_symmetry_space_group_name_H-M	'P1'
_symmetry_Int_Tables_number	1
_symmetry_cell_setting	triclinic
loop_
_symmetry_equiv_pos_as_xyz
  x,y,z
_cell_length_a	18.050591
_cell_length_b	18.050589
_cell_length_c	18.050582
_cell_angle_alpha	89.981795
_cell_angle_beta	90.020922
_cell_angle_gamma	89.975773
loop_
_atom_site_label
_atom_site_type_symbol
_atom_site_fract_x
_atom_site_fract_y
_atom_site_fract_z
Zn1	Zn	1.135293	0.295786	0.420054
Zn2	Zn	1.135203	0.419969	0.295873
Zn3	Zn	1.011112	0.295789	0.295865
Zn4	Zn	1.011060	0.419930	0.420009
O5	O	1.073167	0.357868	0.357950
O6	O	1.239205	0.312274	0.403603
O7	O	1.118727	0.403514	0.191948
O8	O	1.027644	0.191864	0.312354
O9	O	1.239140	0.403511	0.312369
O10	O	1.118879	0.191862	0.403595
O11	O	1.027557	0.312279	0.191942
O12	O	0.907180	0.312241	0.312311
O13	O	1.027555	0.403444	0.523940
O14	O	0.907142	0.403447	0.403519
O15	O	1.118828	0.312236	0.523973
O16	O	1.118676	0.523888	0.312325
O17	O	1.027468	0.523860	0.403527
C18	C	0.880215	0.357841	0.357909
C19	C	0.797669	0.357847	0.357909
C20	C	1.073077	0.550820	0.357938
C21	C	1.073107	0.633366	0.357958
C22	C	0.598217	0.308191	0.308425
C23	C	0.548798	0.375927	0.290154
C24	C	0.646539	0.357869	0.357943
C25	C	0.548877	0.290157	0.376212
C26	C	0.500553	0.357885	0.357974
C27	C	0.598206	0.425641	0.339637
C28	C	0.598289	0.339825	0.425726
C29	C	0.548892	0.407607	0.407481
C30	C	0.730637	0.357859	0.357923
C31	C	0.416457	0.357903	0.357994
C32	C	1.073196	0.357835	0.551656
C33	C	1.073208	0.357821	0.634202
C34	C	1.266872	0.357897	0.357992
C35	C	1.349418	0.357909	0.358010
C36	C	1.073277	0.164163	0.357979
C37	C	1.073324	0.081617	0.357991
C38	C	1.023557	0.832828	0.407536
C39	C	1.005459	0.882261	0.339767
C40	C	1.073180	0.784497	0.357967
C41	C	1.091314	0.882146	0.425744
C42	C	1.073249	0.930482	0.357983
C43	C	1.055046	0.832842	0.290162
C44	C	1.140933	0.832722	0.376186
C45	C	1.122861	0.882133	0.308370
C46	C	1.073138	0.700398	0.357959
C47	C	1.073291	1.014578	0.357983
C48	C	1.073181	0.357848	0.164998
C49	C	1.073312	0.357652	0.082453
C50	C	1.023612	0.407353	0.833635
C51	C	1.091367	0.425511	0.883034
C52	C	1.073245	0.357765	0.785332
C53	C	1.005527	0.339586	0.883014
C54	C	1.073274	0.357711	0.931317
C55	C	1.141036	0.375958	0.833645
C56	C	1.055150	0.290002	0.833620
C57	C	1.122952	0.308134	0.882998
C58	C	1.073227	0.357797	0.701234
C59	C	1.073300	0.357679	1.015414
H60	H	0.619875	0.266226	0.266503
H61	H	0.527169	0.232894	0.391625
H62	H	0.619785	0.482928	0.324134
C63	C	0.519812	0.464430	0.464073
C64	C	0.539466	0.547004	0.455563
C65	C	0.510387	0.603828	0.512153
C66	C	0.461653	0.578078	0.577251
C67	C	0.441997	0.495501	0.585764
C68	C	0.471077	0.438677	0.529175
H69	H	0.575544	0.566069	0.407371
H70	H	0.524938	0.664957	0.505851
H71	H	0.440127	0.620143	0.619142
H72	H	0.405919	0.476436	0.633956
H73	H	0.456525	0.377547	0.535476
C74	C	0.627686	0.319165	0.503124
C75	C	0.608280	0.243462	0.537335
C76	C	0.637679	0.222792	0.614733
C77	C	0.686485	0.277827	0.657920
C78	C	0.705894	0.353535	0.623709
C79	C	0.676495	0.374205	0.546311
H80	H	0.572149	0.202718	0.505366
H81	H	0.623311	0.166748	0.640058
H82	H	0.708248	0.262526	0.715215
H83	H	0.742025	0.394280	0.655679
H84	H	0.690863	0.430249	0.520987
H85	H	0.948246	0.324232	0.904701
H86	H	0.527060	0.391202	0.232844
C87	C	1.179728	0.251451	0.912108
C88	C	1.189860	0.240468	0.996109
C89	C	1.246636	0.183789	1.025223
C90	C	1.293281	0.138093	0.970336
C91	C	1.283152	0.149075	0.886330
C92	C	1.226375	0.205754	0.857216
H93	H	1.155329	0.274296	1.036744
H94	H	1.254134	0.175659	1.087410
H95	H	1.335311	0.096135	0.991888
H96	H	1.317682	0.115246	0.845695
H97	H	1.218877	0.213883	0.795029
C98	C	1.034424	0.212641	0.804268
C99	C	1.016829	0.149569	0.858958
C100	C	0.996093	0.072207	0.829604
C101	C	0.992953	0.057918	0.745559
C102	C	1.010549	0.120991	0.690864
C103	C	1.031284	0.198353	0.720218
H104	H	1.019153	0.160145	0.921178
H105	H	0.983067	0.025516	0.870094
H106	H	0.977603	0.000650	0.723830
H107	H	1.008224	0.110415	0.628645
H108	H	1.044310	0.245044	0.679728
C109	C	0.966787	0.803571	0.464084
C110	C	0.920005	0.858341	0.509788
C111	C	0.863234	0.829083	0.566331
C112	C	0.853244	0.745055	0.577169
C113	C	0.900027	0.690280	0.531463
C114	C	0.956799	0.719538	0.474920
H115	H	0.927399	0.920548	0.501767
H116	H	0.828602	0.869631	0.600166
H117	H	0.811219	0.723396	0.619025
H118	H	0.892634	0.628073	0.539484
H119	H	0.991430	0.678990	0.441085
C120	C	0.928098	0.911662	0.318950
C121	C	0.860650	0.892230	0.367411
C122	C	0.783288	0.921628	0.346601
C123	C	0.773373	0.970459	0.277330
C124	C	0.840823	0.989894	0.228865
C125	C	0.918185	0.960496	0.249675
H126	H	0.867987	0.856080	0.418693
H127	H	0.733357	0.907241	0.382478
H128	H	0.716105	0.992222	0.261925
H129	H	0.833485	1.026044	0.177583
H130	H	0.968116	0.974883	0.213798
H131	H	1.039669	0.811275	0.232834
C132	C	1.179585	0.911214	0.251687
C133	C	1.171259	0.891582	0.169088
C134	C	1.227976	0.920669	0.112403
C135	C	1.293019	0.969389	0.138318
C136	C	1.301348	0.989024	0.220922
C137	C	1.244631	0.959936	0.277606
H138	H	1.123107	0.855514	0.149900
H139	H	1.221809	0.906134	0.051254
H140	H	1.335005	0.990922	0.096356
H141	H	1.349500	1.025092	0.240109
H142	H	1.250798	0.974472	0.338755
C143	C	1.218274	0.803298	0.397025
C144	C	1.252311	0.822685	0.472815
C145	C	1.329652	0.793259	0.493665
C146	C	1.372956	0.744445	0.438725
C147	C	1.338919	0.725055	0.362930
C148	C	1.261578	0.754481	0.342080
H149	H	1.220255	0.858823	0.513490
H150	H	1.354848	0.807613	0.549774
H151	H	1.430209	0.722662	0.454159
H152	H	1.370976	0.688918	0.322255
H153	H	1.236382	0.740127	0.285971
H154	H	1.106625	0.903802	0.483056
H155	H	0.981678	0.449342	0.811961
C156	C	1.112071	0.502891	0.912365
C157	C	1.116538	0.516853	0.996405
C158	C	1.137237	0.594235	1.025733
C159	C	1.153468	0.657654	0.971021
C160	C	1.149001	0.643694	0.886976
C161	C	1.128302	0.566312	0.857648
H162	H	1.104523	0.469905	1.036911
H163	H	1.140544	0.604569	1.087949
H164	H	1.168790	0.714936	0.992732
H165	H	1.161016	0.690642	0.846470
H166	H	1.124995	0.555978	0.795432
H167	H	1.198333	0.391377	0.812050
