data_functionalizedCrystal
_audit_creation_method	'MofGen! by Chris Wilmer'
_symmetry_space_group_name_H-M	'P1'
_symmetry_Int_Tables_number	1
_symmetry_cell_setting	triclinic
loop_
_symmetry_equiv_pos_as_xyz
  x,y,z
_cell_length_a	13.033748
_cell_length_b	12.759400
_cell_length_c	12.759393
_cell_angle_alpha	90.029805
_cell_angle_beta	82.846923
_cell_angle_gamma	97.208992
loop_
_atom_site_label
_atom_site_type_symbol
_atom_site_fract_x
_atom_site_fract_y
_atom_site_fract_z
Zn1	Zn	1.597606	-0.213939	0.390332
Zn2	Zn	1.597498	-0.389669	0.214668
Zn3	Zn	1.422852	-0.236335	0.236948
Zn4	Zn	1.422844	-0.411923	0.412573
O5	O	1.510200	-0.312967	0.313630
O6	O	1.743820	-0.218564	0.348397
O7	O	1.574289	-0.369388	0.070608
O8	O	1.446082	-0.086337	0.257311
O9	O	1.743741	-0.347672	0.219338
O10	O	1.574473	-0.069883	0.370001
O11	O	1.445977	-0.256735	0.086977
O12	O	1.276623	-0.278313	0.278877
O13	O	1.446069	-0.385600	0.556639
O14	O	1.276617	-0.407317	0.407909
O15	O	1.574466	-0.240143	0.540298
O16	O	1.574281	-0.539648	0.240904
O17	O	1.445964	-0.555998	0.386305
C18	C	1.238705	-0.347661	0.348225
C19	C	1.122558	-0.362529	0.363049
C20	C	1.070751	-0.305233	0.305919
C21	C	0.950707	-0.320598	0.321240
C22	C	1.510138	-0.585942	0.313619
C23	C	1.510208	-0.702710	0.313638
C24	C	1.577032	-0.748918	0.372377
C25	C	1.577090	-0.858634	0.372398
C26	C	1.443498	-0.875925	0.254932
C27	C	1.443435	-0.766211	0.254918
C28	C	1.782756	-0.278137	0.278901
C29	C	1.898903	-0.263295	0.264102
C30	C	1.510278	-0.312856	0.587654
C31	C	1.510312	-0.312808	0.704426
C32	C	1.510291	-0.038922	0.313660
C33	C	1.510329	0.077860	0.313673
C34	C	1.510182	-0.312993	0.040665
C35	C	1.510352	-0.312719	-0.076133
C36	C	1.577173	-0.237057	0.750781
C37	C	1.577191	-0.237010	0.860503
C38	C	1.443483	-0.388474	0.877506
C39	C	1.443461	-0.388516	0.767787
H40	H	0.943416	-0.202866	0.203840
C41	C	1.130888	-0.223588	0.224525
N42	N	1.176182	-0.162087	0.163222
H43	H	0.906192	-0.381033	0.381494
H44	H	1.631503	-0.896251	0.420231
H45	H	1.631634	-0.175324	0.898239
C46	C	1.062420	-0.444166	0.444451
N47	N	1.017126	-0.505656	0.505767
C48	C	1.650477	-0.679070	0.436977
N49	N	1.705796	-0.626464	0.485640
C50	C	1.370123	-0.945778	0.190263
N51	N	1.314882	-0.998386	0.141523
C52	C	1.369909	-0.715381	0.190309
N53	N	1.314525	-0.677097	0.141655
C54	C	1.650701	-0.153769	0.681089
N55	N	1.706082	-0.091030	0.628600
H56	H	1.389058	-0.450114	0.929107
H57	H	1.389007	-0.450202	0.730046
