data_functionalizedCrystal
_audit_creation_method	'MofGen! by Chris Wilmer'
_symmetry_space_group_name_H-M	'P1'
_symmetry_Int_Tables_number	1
_symmetry_cell_setting	triclinic
loop_
_symmetry_equiv_pos_as_xyz
  x,y,z
_cell_length_a	14.044220
_cell_length_b	14.044220
_cell_length_c	13.101039
_cell_angle_alpha	93.659868
_cell_angle_beta	93.667477
_cell_angle_gamma	86.811122
loop_
_atom_site_label
_atom_site_type_symbol
_atom_site_fract_x
_atom_site_fract_y
_atom_site_fract_z
O1	O	0.225348	-1.281968	-0.085109
O2	O	0.725348	-0.781968	0.414891
O3	O	0.217041	-1.005298	-0.085135
O4	O	0.717041	-0.505298	0.414865
O5	O	0.082860	-1.139480	-0.085112
O6	O	0.582860	-0.639480	0.414888
O7	O	0.359530	-1.147787	-0.085132
O8	O	0.859530	-0.647787	0.414868
O9	O	0.092504	-1.129854	0.085316
O10	O	0.592504	-0.629854	0.585316
O11	O	0.226686	-0.995673	0.085293
O12	O	0.726686	-0.495673	0.585293
O13	O	0.234993	-1.272343	0.085319
O14	O	0.734993	-0.772343	0.585319
Zn15	Zn	0.232371	-1.132479	0.112365
Zn16	Zn	0.732371	-0.632479	0.612365
Zn17	Zn	0.219663	-1.145162	-0.112181
Zn18	Zn	0.719663	-0.645162	0.387819
O19	O	0.369175	-1.138161	0.085296
O20	O	0.869175	-0.638161	0.585296
C21	C	0.218228	-0.964864	0.000076
C22	C	0.718228	-0.464864	0.500076
C23	C	0.207383	-0.858722	0.000066
C24	C	0.707383	-0.358722	0.500066
C25	C	0.052060	-1.131031	0.000102
C26	C	0.552060	-0.631031	0.500102
C27	C	-0.054083	-1.120187	0.000102
C28	C	0.445917	-0.620187	0.500102
N29	N	0.241043	-1.123831	0.265612
N30	N	0.741043	-0.623831	0.765612
C31	C	-0.248421	-1.100362	0.000086
C32	C	0.251579	-0.600362	0.500086
C33	C	-0.299551	-1.177276	0.000090
C34	C	0.200449	-0.677276	0.500090
C35	C	-0.407688	-1.166245	0.000080
C36	C	0.092312	-0.666245	0.500080
C37	C	-0.140275	-1.111391	0.000095
C38	C	0.359725	-0.611391	0.500095
C39	C	0.399974	-1.146610	0.000080
C40	C	0.899974	-0.646610	0.500080
C41	C	0.506116	-1.157455	0.000073
C42	C	1.006116	-0.657455	0.500073
C43	C	0.233806	-1.312777	0.000106
C44	C	0.733806	-0.812777	0.500106
C45	C	0.244651	-1.418920	0.000109
C46	C	0.744651	-0.918920	0.500109
C47	C	0.187558	-0.664383	0.000088
C48	C	0.687558	-0.164383	0.500088
C49	C	0.264472	-0.613253	0.000087
C50	C	0.764472	-0.113253	0.500087
C51	C	0.253441	-0.505116	0.000099
C52	C	0.753441	-0.005116	0.500099
C53	C	0.198587	-0.772529	0.000076
C54	C	0.698587	-0.272529	0.500076
N55	N	0.210984	-1.153817	-0.265428
N56	N	0.710984	-0.653817	0.234572
C57	C	0.252851	-1.112065	0.474653
C58	C	0.752851	-0.612065	0.974653
C59	C	0.199179	-1.165580	0.525538
C60	C	0.699179	-0.665580	1.025538
C61	C	0.205749	-1.159034	0.641855
C62	C	0.705749	-0.659034	1.141855
C63	C	0.246282	-1.118610	0.358325
C64	C	0.746282	-0.618610	0.858325
H65	H	-0.262115	-1.251413	0.000028
H66	H	0.237885	-0.751413	0.500028
N67	N	0.320262	-1.044879	0.532655
N68	N	0.820262	-0.544879	1.032655
H69	H	0.355173	-1.010075	0.482492
H70	H	0.855173	-0.510075	0.982492
H71	H	0.282672	-0.997053	0.577178
H72	H	0.782672	-0.497053	1.077178
H73	H	0.148295	-1.216314	0.481744
H74	H	0.648295	-0.716314	0.981744
N75	N	0.089364	-0.614800	0.000107
N76	N	0.589364	-0.114800	0.500107
H77	H	0.095305	-0.543459	0.000114
H78	H	0.595305	-0.043459	0.500114
H79	H	0.049975	-0.637486	-0.063073
H80	H	0.549975	-0.137486	0.436927
H81	H	-0.285859	-1.026235	0.000076
H82	H	0.214141	-0.526235	0.500076
N83	N	0.362672	-0.662836	0.000073
N84	N	0.862672	-0.162836	0.500073
H85	H	0.356738	-0.734177	0.000064
H86	H	0.856738	-0.234177	0.500064
H87	H	0.394901	-0.647259	-0.063111
H88	H	0.894901	-0.147259	0.436889
