data_functionalizedCrystal
_audit_creation_method	'MofGen! by Chris Wilmer'
_symmetry_space_group_name_H-M	'P1'
_symmetry_Int_Tables_number	1
_symmetry_cell_setting	triclinic
loop_
_symmetry_equiv_pos_as_xyz
  x,y,z
_cell_length_a	17.699083
_cell_length_b	15.021413
_cell_length_c	17.699083
_cell_angle_alpha	89.996989
_cell_angle_beta	96.716984
_cell_angle_gamma	90.001270
loop_
_atom_site_label
_atom_site_type_symbol
_atom_site_fract_x
_atom_site_fract_y
_atom_site_fract_z
O1	O	1.004080	0.073921	-0.095701
O2	O	1.254080	0.323921	0.154299
O3	O	1.504080	0.573921	0.404299
O4	O	1.754080	0.823921	0.654299
O5	O	0.783702	0.073952	-0.108154
O6	O	1.033702	0.323952	0.141846
O7	O	1.283702	0.573952	0.391846
O8	O	1.533702	0.823952	0.641846
O9	O	0.900117	0.073914	0.008262
O10	O	1.150117	0.323914	0.258262
O11	O	1.400117	0.573914	0.508262
O12	O	1.650117	0.823914	0.758262
O13	O	0.887665	0.073959	-0.212117
O14	O	1.137665	0.323959	0.037883
O15	O	1.387665	0.573959	0.287883
O16	O	1.637665	0.823959	0.537883
O17	O	0.900099	-0.074150	0.008245
O18	O	1.150099	0.175850	0.258245
O19	O	1.400099	0.425850	0.508245
O20	O	1.650099	0.675850	0.758245
O21	O	0.783683	-0.074112	-0.108170
O22	O	1.033683	0.175888	0.141830
O23	O	1.283683	0.425888	0.391830
O24	O	1.533683	0.675888	0.641830
O25	O	1.004062	-0.074143	-0.095718
O26	O	1.254062	0.175857	0.154282
O27	O	1.504062	0.425857	0.404282
O28	O	1.754062	0.675857	0.654282
Zn29	Zn	0.893869	-0.097636	-0.101947
Zn30	Zn	1.143869	0.152364	0.148053
Zn31	Zn	1.393869	0.402364	0.398053
Zn32	Zn	1.643869	0.652364	0.648053
Zn33	Zn	0.893894	0.097445	-0.101925
Zn34	Zn	1.143894	0.347445	0.148075
Zn35	Zn	1.393894	0.597445	0.398075
Zn36	Zn	1.643894	0.847445	0.648075
O37	O	0.887646	-0.074105	-0.212133
O38	O	1.137646	0.175895	0.037867
O39	O	1.387646	0.425895	0.287867
O40	O	1.637646	0.675895	0.537867
C41	C	0.755495	-0.000076	-0.107716
C42	C	1.005495	0.249924	0.142284
C43	C	1.255495	0.499924	0.392284
C44	C	1.505495	0.749924	0.642284
C45	C	0.671477	-0.000066	-0.106377
C46	C	0.921477	0.249934	0.143623
C47	C	1.171477	0.499934	0.393623
C48	C	1.421477	0.749934	0.643623
N49	N	0.893858	-0.230774	-0.101961
N50	N	1.143858	0.019226	0.148039
N51	N	1.393858	0.269226	0.398039
N52	N	1.643858	0.519226	0.648039
C53	C	0.622856	-0.000052	-0.174711
C54	C	0.872856	0.249948	0.075289
C55	C	1.122856	0.499948	0.325289
C56	C	1.372856	0.749948	0.575289
C57	C	0.543913	-0.000064	-0.173448
C58	C	0.793913	0.249936	0.076552
C59	C	1.043913	0.499936	0.326552
C60	C	1.293913	0.749936	0.576552
C61	C	0.513592	-0.000083	-0.103852
C62	C	0.763592	0.249917	0.146148
C63	C	1.013592	0.499917	0.396148
C64	C	1.263592	0.749917	0.646148
C65	C	0.562219	-0.000099	-0.035513
C66	C	0.812219	0.249901	0.214487
C67	C	1.062219	0.499901	0.464487
C68	C	1.312219	0.749901	0.714487
C69	C	0.641161	-0.000094	-0.036776
C70	C	0.891161	0.249906	0.213224
C71	C	1.141161	0.499906	0.463224
C72	C	1.391161	0.749906	0.713224
C73	C	0.243856	-0.000122	-0.030418
C74	C	0.493856	0.249878	0.219582
C75	C	0.743856	0.499878	0.469582
C76	C	0.993856	0.749878	0.719582
C77	C	0.164908	-0.000125	-0.029160
C78	C	0.414908	0.249875	0.220840
C79	C	0.664908	0.499875	0.470840
C80	C	0.914908	0.749875	0.720840
C81	C	0.146608	-0.000092	-0.167090
C82	C	0.396608	0.249908	0.082910
C83	C	0.646608	0.499908	0.332910
C84	C	0.896608	0.749908	0.582910
C85	C	0.225550	-0.000087	-0.168353
C86	C	0.475550	0.249913	0.081647
C87	C	0.725550	0.499913	0.331647
C88	C	0.975550	0.749913	0.581647
C89	C	0.274170	-0.000108	-0.100015
C90	C	0.524170	0.249892	0.149985
C91	C	0.774170	0.499892	0.399985
C92	C	1.024170	0.749892	0.649985
C93	C	0.359769	-0.000097	-0.101384
C94	C	0.609769	0.249903	0.148616
C95	C	0.859769	0.499903	0.398616
C96	C	1.109769	0.749903	0.648616
C97	C	0.427995	-0.000088	-0.102481
C98	C	0.677995	0.249912	0.147519
C99	C	0.927995	0.499912	0.397519
C100	C	1.177995	0.749912	0.647519
C101	C	0.840020	-0.470439	-0.155766
C102	C	1.090020	-0.220439	0.094234
C103	C	1.340020	0.029561	0.344234
C104	C	1.590020	0.279561	0.594234
C105	C	0.908383	-0.529780	-0.170330
C106	C	1.158383	-0.279780	0.079670
C107	C	1.408383	-0.029780	0.329670
C108	C	1.658383	0.220220	0.579670
C109	C	0.893878	-0.412381	-0.101942
C110	C	1.143878	-0.162381	0.148058
C111	C	1.393878	0.087619	0.398058
C112	C	1.643878	0.337619	0.648058
C113	C	0.825533	-0.529782	-0.087395
C114	C	1.075533	-0.279782	0.162605
C115	C	1.325533	-0.029782	0.412605
C116	C	1.575533	0.220218	0.662605
C117	C	0.893890	-0.587805	-0.101926
C118	C	1.143890	-0.337805	0.148074
C119	C	1.393890	-0.087805	0.398074
C120	C	1.643890	0.162195	0.648074
C121	C	0.962276	-0.470415	-0.116540
C122	C	1.212276	-0.220415	0.133460
C123	C	1.462276	0.029585	0.383460
C124	C	1.712276	0.279585	0.633460
C125	C	0.879380	-0.470411	-0.033575
C126	C	1.129380	-0.220411	0.216425
C127	C	1.379380	0.029589	0.466425
C128	C	1.629380	0.279589	0.716425
C129	C	0.947793	-0.529725	-0.048110
C130	C	1.197793	-0.279725	0.201890
C131	C	1.447793	-0.029725	0.451890
C132	C	1.697793	0.220275	0.701890
C133	C	0.893869	-0.311323	-0.101954
C134	C	1.143869	-0.061323	0.148046
C135	C	1.393869	0.188677	0.398046
C136	C	1.643869	0.438677	0.648046
C137	C	0.893906	-0.688860	-0.101913
C138	C	1.143906	-0.438860	0.148087
C139	C	1.393906	-0.188860	0.398087
C140	C	1.643906	0.061140	0.648087
C141	C	1.032268	-0.000113	-0.096156
C142	C	1.282268	0.249887	0.153844
C143	C	1.532268	0.499887	0.403844
C144	C	1.782268	0.749887	0.653844
C145	C	1.116286	-0.000118	-0.097494
C146	C	1.366286	0.249882	0.152506
C147	C	1.616286	0.499882	0.402506
C148	C	1.866286	0.749882	0.652506
C149	C	0.899662	-0.000122	0.036451
C150	C	1.149662	0.249878	0.286451
C151	C	1.399662	0.499878	0.536451
C152	C	1.649662	0.749878	0.786451
C153	C	0.898323	-0.000133	0.120469
C154	C	1.148323	0.249867	0.370469
C155	C	1.398323	0.499867	0.620469
C156	C	1.648323	0.749867	0.870469
N157	N	0.893911	0.230583	-0.101904
N158	N	1.143911	0.480583	0.148096
N159	N	1.393911	0.730583	0.398096
N160	N	1.643911	0.980583	0.648096
C161	C	0.966656	-0.000149	0.169090
C162	C	1.216656	0.249851	0.419090
C163	C	1.466656	0.499851	0.669090
C164	C	1.716656	0.749851	0.919090
C165	C	0.965394	-0.000151	0.248033
C166	C	1.215394	0.249849	0.498033
C167	C	1.465394	0.499849	0.748033
C168	C	1.715394	0.749849	0.998033
C169	C	0.895798	-0.000143	0.278354
C170	C	1.145798	0.249857	0.528354
C171	C	1.395798	0.499857	0.778354
C172	C	1.645798	0.749857	1.028354
C173	C	0.827459	-0.000124	0.229727
C174	C	1.077459	0.249876	0.479727
C175	C	1.327459	0.499876	0.729727
C176	C	1.577459	0.749876	0.979727
C177	C	0.828722	-0.000115	0.150785
C178	C	1.078722	0.249885	0.400785
C179	C	1.328722	0.499885	0.650785
C180	C	1.578722	0.749885	0.900785
C181	C	0.822364	-0.000156	0.548090
C182	C	1.072364	0.249844	0.798090
C183	C	1.322364	0.499844	1.048090
C184	C	1.572364	0.749844	1.298090
C185	C	0.821106	-0.000167	0.627038
C186	C	1.071106	0.249833	0.877038
C187	C	1.321106	0.499833	1.127038
C188	C	1.571106	0.749833	1.377038
C189	C	0.959036	-0.000191	0.645338
C190	C	1.209036	0.249809	0.895338
C191	C	1.459036	0.499809	1.145338
C192	C	1.709036	0.749809	1.395338
C193	C	0.960299	-0.000183	0.566396
C194	C	1.210299	0.249817	0.816396
C195	C	1.460299	0.499817	1.066396
C196	C	1.710299	0.749817	1.316396
C197	C	0.891961	-0.000159	0.517776
C198	C	1.141961	0.249841	0.767776
C199	C	1.391961	0.499841	1.017776
C200	C	1.641961	0.749841	1.267776
C201	C	0.893330	-0.000156	0.432177
C202	C	1.143330	0.249844	0.682177
C203	C	1.393330	0.499844	0.932177
C204	C	1.643330	0.749844	1.182177
C205	C	0.894427	-0.000153	0.363951
C206	C	1.144427	0.249847	0.613951
C207	C	1.394427	0.499847	0.863951
C208	C	1.644427	0.749847	1.113951
C209	C	0.888102	-0.000099	0.759678
C210	C	1.138102	0.249901	1.009678
C211	C	1.388102	0.499901	1.259678
C212	C	1.638102	0.749901	1.509678
C213	C	0.889440	-0.000177	0.675660
C214	C	1.139440	0.249823	0.925660
C215	C	1.389440	0.499823	1.175660
C216	C	1.639440	0.749823	1.425660
H217	H	0.647537	-0.000036	-0.231384
H218	H	0.897537	0.249964	0.018616
H219	H	1.147537	0.499964	0.268616
H220	H	1.397537	0.749964	0.518616
Br221	Br	0.735980	-0.000086	0.084797
Br222	Br	0.985980	0.249914	0.334797
Br223	Br	1.235980	0.499914	0.584797
Br224	Br	1.485980	0.749914	0.834797
H225	H	0.920656	-0.555857	-0.228140
H226	H	1.170656	-0.305857	0.021860
H227	H	1.420656	-0.055857	0.271860
H228	H	1.670656	0.194143	0.521860
H229	H	0.867085	-0.444313	0.024216
H230	H	1.117085	-0.194313	0.274216
H231	H	1.367085	0.055687	0.524216
H232	H	1.617085	0.305687	0.774216
Br233	Br	1.058642	-0.427140	-0.137147
Br234	Br	1.308642	-0.177140	0.112853
Br235	Br	1.558642	0.072860	0.362853
Br236	Br	1.808642	0.322860	0.612853
H237	H	0.767729	-0.555862	-0.075098
H238	H	1.017729	-0.305862	0.174902
H239	H	1.267729	-0.055862	0.424902
H240	H	1.517729	0.194138	0.674902
Br241	Br	0.080619	-0.000065	-0.259837
Br242	Br	0.330619	0.249935	-0.009837
Br243	Br	0.580619	0.499935	0.240163
Br244	Br	0.830619	0.749935	0.490163
Br245	Br	1.054754	-0.000194	0.525250
Br246	Br	1.304754	0.249806	0.775250
Br247	Br	1.554754	0.499806	1.025250
Br248	Br	1.804754	0.749806	1.275250
Br249	Br	0.726647	-0.000157	0.668186
Br250	Br	0.976647	0.249843	0.918186
Br251	Br	1.226647	0.499843	1.168186
Br252	Br	1.476647	0.749843	1.418186
Br253	Br	1.023794	-0.572846	0.027772
Br254	Br	1.273794	-0.322846	0.277772
Br255	Br	1.523794	-0.072846	0.527772
Br256	Br	1.773794	0.177154	0.777772
H257	H	0.140225	-0.000142	0.027517
H258	H	0.390225	0.249858	0.277517
H259	H	0.640225	0.499858	0.527517
H260	H	0.890225	0.749858	0.777517
H261	H	0.283434	-0.000140	0.025228
H262	H	0.533434	0.249860	0.275228
H263	H	0.783434	0.499860	0.525228
H264	H	1.033434	0.749860	0.775228
Br265	Br	1.058137	-0.000173	0.314016
Br266	Br	1.308137	0.249827	0.564016
Br267	Br	1.558137	0.499827	0.814016
Br268	Br	1.808137	0.749827	1.064016
H269	H	1.023330	-0.000161	0.144409
H270	H	1.273330	0.249839	0.394409
H271	H	1.523330	0.499839	0.644409
H272	H	1.773330	0.749839	0.894409
H273	H	1.014680	-0.000206	0.684934
H274	H	1.264680	0.249794	0.934934
H275	H	1.514680	0.499794	1.184934
H276	H	1.764680	0.749794	1.434934
H277	H	0.504328	-0.000051	-0.229092
H278	H	0.754328	0.249949	0.020908
H279	H	1.004328	0.499949	0.270908
H280	H	1.254328	0.749949	0.520908
Br281	Br	0.729619	-0.000118	0.482115
Br282	Br	0.979619	0.249882	0.732115
Br283	Br	1.229619	0.499882	0.982115
Br284	Br	1.479619	0.749882	1.232115
H285	H	0.770792	-0.000111	0.254420
H286	H	1.020792	0.249889	0.504420
H287	H	1.270792	0.499889	0.754420
H288	H	1.520792	0.749889	1.004420
H289	H	0.537526	-0.000128	0.021154
H290	H	0.787526	0.249872	0.271154
H291	H	1.037526	0.499872	0.521154
H292	H	1.287526	0.749872	0.771154
Br293	Br	0.764182	-0.427048	-0.231688
Br294	Br	1.014182	-0.177048	0.018312
Br295	Br	1.264182	0.072952	0.268312
Br296	Br	1.514182	0.322952	0.518312
H297	H	0.250232	-0.000067	-0.225025
H298	H	0.500232	0.249933	0.024975
H299	H	0.750232	0.499933	0.274975
H300	H	1.000232	0.749933	0.524975
H301	H	0.680748	-0.000104	0.018868
H302	H	0.930748	0.249896	0.268868
H303	H	1.180748	0.499896	0.518868
H304	H	1.430748	0.749896	0.768868
