data_functionalizedCrystal
_audit_creation_method	'MofGen! by Chris Wilmer'
_symmetry_space_group_name_H-M	'P1'
_symmetry_Int_Tables_number	1
_symmetry_cell_setting	triclinic
loop_
_symmetry_equiv_pos_as_xyz
  x,y,z
_cell_length_a	11.792254
_cell_length_b	14.971486
_cell_length_c	13.448316
_cell_angle_alpha	90.001801
_cell_angle_beta	89.993237
_cell_angle_gamma	96.093637
loop_
_atom_site_label
_atom_site_type_symbol
_atom_site_fract_x
_atom_site_fract_y
_atom_site_fract_z
O1	O	0.147909	-1.187545	-0.082578
O2	O	0.165621	-0.927217	-0.082605
O3	O	-0.008446	-1.063693	-0.082584
O4	O	0.321975	-1.051069	-0.082599
O5	O	-0.008456	-1.063675	0.082800
O6	O	0.165610	-0.927199	0.082779
O7	O	0.147898	-1.187528	0.082806
Cu8	Cu	0.156753	-1.057362	0.097893
Cu9	Cu	0.156766	-1.057383	-0.097692
O10	O	0.321964	-1.051052	0.082785
C11	C	0.164823	-0.893880	0.000083
C12	C	0.162450	-0.794574	0.000073
C13	C	-0.050737	-1.062889	0.000108
C14	C	-0.176734	-1.060509	0.000107
C15	C	0.148695	-1.220865	0.000115
C16	C	0.151069	-1.320171	0.000119
C17	C	-0.279058	-1.058575	0.000103
C18	C	-0.407429	-1.056157	0.000093
C19	C	0.364255	-1.051856	0.000091
C20	C	0.490253	-1.054236	0.000086
N21	N	0.156743	-1.057354	0.235458
C22	C	0.264709	-0.737762	0.000070
C23	C	0.262472	-0.644453	0.000085
C24	C	0.157974	-0.607958	0.000096
C25	C	0.055707	-0.664778	0.000102
C26	C	0.057945	-0.758084	0.000095
C27	C	0.051049	-0.470296	0.000116
C28	C	0.048810	-0.376983	0.000122
C29	C	0.255575	-0.356665	0.000107
C30	C	0.257814	-0.449972	0.000099
C31	C	0.155546	-0.506785	0.000103
N32	N	0.156766	-1.057398	-0.235257
C33	C	0.079698	-1.117805	0.287507
C34	C	0.079697	-1.117810	0.391611
C35	C	0.156748	-1.057369	0.443662
C36	C	0.233796	-0.996912	0.391605
C37	C	0.233791	-0.996903	0.287504
C38	C	0.233804	-0.996937	0.608585
C39	C	0.233811	-0.996947	0.712694
C40	C	0.079711	-1.117844	0.712692
C41	C	0.079705	-1.117835	0.608591
C42	C	0.156755	-1.057379	0.556541
H43	H	0.345742	-0.598200	0.000081
C44	C	-0.003988	-1.183555	0.447942
C45	C	-0.071435	-1.236509	0.380076
C46	C	-0.148527	-1.297097	0.431932
H47	H	-0.051419	-1.151273	0.488571
H48	H	0.036908	-1.221031	0.488515
H49	H	-0.112327	-1.199038	0.339521
H50	H	-0.024035	-1.268811	0.339445
H51	H	-0.107631	-1.334573	0.472504
H52	H	-0.195950	-1.264807	0.472559
H53	H	-0.194292	-1.333039	0.385893
C54	C	0.371180	-0.489728	0.000222
C55	C	0.378493	-0.542733	0.085283
C56	C	0.482901	-0.579385	0.085418
H57	H	0.431872	-0.442630	0.000268
H58	H	0.376340	-0.525750	-0.057430
H59	H	0.373344	-0.506713	0.142920
H60	H	0.317825	-0.589846	0.085255
H61	H	0.488061	-0.615407	0.027766
H62	H	0.543585	-0.532281	0.085462
H63	H	0.487872	-0.615359	0.143126
H64	H	0.296552	-0.947728	0.755069
H65	H	-0.025325	-0.804340	0.000097
C66	C	-0.004129	-1.183441	0.769067
C67	C	-0.115695	-1.168420	0.743739
C68	C	-0.192948	-1.228840	0.795645
H69	H	0.006741	-1.174857	0.838537
H70	H	0.008264	-1.243207	0.751972
H71	H	-0.128083	-1.108668	0.760841
H72	H	-0.126601	-1.177011	0.674279
H73	H	-0.180555	-1.288607	0.778549
H74	H	-0.182068	-1.220251	0.865112
H75	H	-0.268654	-1.218662	0.778460
C76	C	0.317589	-0.931263	0.552251
C77	C	0.385092	-0.878351	0.620114
C78	C	0.462300	-0.817856	0.568256
H79	H	0.276817	-0.893743	0.511647
H80	H	0.364962	-0.963644	0.511653
H81	H	0.337726	-0.845971	0.660696
H82	H	0.425889	-0.915846	0.660720
H83	H	0.509672	-0.850238	0.527658
H84	H	0.421518	-0.780343	0.527654
H85	H	0.508117	-0.781954	0.614293
H86	H	0.016971	-1.167055	0.566210
H87	H	0.296528	-0.947695	0.433991
C88	C	0.317626	-0.931376	0.231041
C89	C	0.429192	-0.946437	0.256322
C90	C	0.506449	-0.886095	0.204319
H91	H	0.305328	-0.871587	0.248070
H92	H	0.306664	-0.940030	0.161578
H93	H	0.440150	-0.937776	0.325769
H94	H	0.441526	-1.006215	0.239290
H95	H	0.495486	-0.894749	0.134857
H96	H	0.494141	-0.826310	0.221353
H97	H	0.582154	-0.896311	0.221458
C98	C	0.378250	-0.777256	-0.000098
C99	C	0.440092	-0.748403	-0.085172
C100	C	0.544701	-0.784753	-0.085351
H101	H	0.365105	-0.840961	-0.000155
H102	H	0.420416	-0.757765	0.057545
H103	H	0.397935	-0.767899	-0.142800
H104	H	0.453268	-0.684703	-0.085133
H105	H	0.586867	-0.765262	-0.027708
H106	H	0.531544	-0.848457	-0.085406
H107	H	0.586678	-0.765175	-0.143068
H108	H	-0.036281	-0.347273	0.000133
H109	H	0.338845	-0.310403	0.000107
H110	H	-0.029377	-0.635056	0.000126
C111	C	-0.060107	-0.531831	0.000063
C112	C	-0.152103	-0.479903	0.000042
C113	C	-0.254513	-0.536557	-0.000028
H114	H	-0.063705	-0.568678	0.057715
H115	H	-0.063583	-0.568633	-0.057638
H116	H	-0.148629	-0.443116	0.057738
H117	H	-0.148543	-0.443057	-0.057605
H118	H	-0.257989	-0.573359	-0.057730
H119	H	-0.258098	-0.573401	0.057625
H120	H	-0.316943	-0.501332	-0.000052
H121	H	0.016960	-1.167027	0.245134
