data_functionalizedCrystal
_audit_creation_method	'MofGen! by Chris Wilmer'
_symmetry_space_group_name_H-M	'P1'
_symmetry_Int_Tables_number	1
_symmetry_cell_setting	triclinic
loop_
_symmetry_equiv_pos_as_xyz
  x,y,z
_cell_length_a	23.096457
_cell_length_b	20.919309
_cell_length_c	20.919309
_cell_angle_alpha	60.101124
_cell_angle_beta	89.999751
_cell_angle_gamma	62.591463
loop_
_atom_site_label
_atom_site_type_symbol
_atom_site_fract_x
_atom_site_fract_y
_atom_site_fract_z
Zr1	Zr	0.585938	0.692446	-0.106857
O2	O	0.501546	0.817971	-0.209953
O3	O	0.608431	0.561618	-0.071789
O4	O	0.617465	0.684800	-0.204963
O5	O	0.489229	0.702670	0.024331
O6	O	0.712745	0.684802	-0.204966
O7	O	0.492513	0.694789	-0.076779
O8	O	0.696587	0.464451	0.033257
O9	O	0.505388	0.923021	-0.213893
O10	O	0.693212	0.617395	-0.061021
O11	O	0.619655	0.623275	0.014439
O12	O	0.630290	0.768307	-0.142355
O13	O	0.556733	0.774187	-0.066896
Zr14	Zr	0.732663	0.705018	0.054395
Zr15	Zr	0.737900	0.692449	-0.106863
Zr16	Zr	0.580701	0.705015	0.054401
Zr17	Zr	0.592066	0.859988	-0.113141
Zr18	Zr	0.726535	0.537476	0.060679
O19	O	0.710169	0.835846	0.019327
O20	O	0.717616	0.817975	-0.209961
O21	O	0.494100	0.835843	0.019336
O22	O	0.817055	0.579493	0.157491
O23	O	0.824501	0.561621	-0.071798
O24	O	0.600985	0.579489	0.157499
O25	O	0.829372	0.694794	-0.076792
O26	O	0.701136	0.712664	0.152501
O27	O	0.605856	0.712663	0.152505
O28	O	0.826088	0.702675	0.024317
O29	O	0.626177	0.923023	-0.213897
O30	O	0.692424	0.474441	0.161435
O31	O	0.813213	0.474443	0.161431
O32	O	0.817376	0.464453	0.033252
O33	O	0.501225	0.933012	-0.085714
O34	O	0.622014	0.933013	-0.085719
O35	O	0.688311	0.629158	0.089893
O36	O	0.761868	0.623277	0.014434
O37	O	0.698946	0.774189	-0.066901
O38	O	0.625389	0.780069	0.008559
C39	C	0.651636	0.489163	-0.018371
C40	C	0.649035	0.418037	-0.015703
C41	C	0.686207	0.381553	-0.053839
C42	C	0.683764	0.314718	-0.051326
C43	C	0.644145	0.284374	-0.010680
C44	C	0.606972	0.320862	0.027461
C45	C	0.609419	0.387691	0.024951
C46	C	0.634840	0.082743	-0.001127
C47	C	0.632394	0.015911	0.001378
C48	C	0.709188	0.009772	-0.077408
C49	C	0.711628	0.076606	-0.079918
C50	C	0.674457	0.113084	-0.041774
C51	C	0.641646	0.216060	-0.008111
C52	C	0.676961	0.181393	-0.044338
C53	C	0.469220	0.698729	-0.026223
C54	C	0.404708	0.698728	-0.026221
C55	C	0.407247	0.619956	0.016228
C56	C	0.346632	0.619955	0.016231
C57	C	0.283478	0.698730	-0.026229
C58	C	0.280942	0.777513	-0.068680
C59	C	0.341557	0.777512	-0.068676
N60	N	0.164992	0.754655	-0.092620
N61	N	0.107413	0.754650	-0.092622
C62	C	0.100846	0.698737	-0.026243
N63	N	0.154040	0.642814	0.040139
N64	N	0.211626	0.642816	0.040140
C65	C	0.217747	0.698739	-0.026238
C66	C	0.037661	0.619958	0.016213
C67	C	-0.022957	0.619960	0.016219
C68	C	-0.088647	0.777520	-0.068700
C69	C	-0.028029	0.777516	-0.068698
C70	C	0.035122	0.698732	-0.026243
C71	C	0.849381	0.698735	-0.026238
C72	C	0.913893	0.698736	-0.026241
C73	C	0.665851	0.683010	-0.227940
C74	C	0.668074	0.677674	-0.296399
C75	C	0.666965	0.908301	-0.034091
C76	C	0.669566	0.979427	-0.036759
C77	C	0.636275	0.753940	-0.371016
C78	C	0.638373	0.748921	-0.435338
C79	C	0.672266	0.667636	-0.425039
C80	C	0.704069	0.591364	-0.350414
C81	C	0.701975	0.596384	-0.286094
C82	C	0.680236	0.648538	-0.617118
C83	C	0.682326	0.643525	-0.681445
C84	C	0.616630	0.801082	-0.766365
C85	C	0.614536	0.806094	-0.702040
C86	C	0.646342	0.729823	-0.627421
C87	C	0.674409	0.662504	-0.490785
C88	C	0.644202	0.734956	-0.561677
C89	C	0.652750	0.714454	0.175478
C90	C	0.650527	0.719790	0.243937
C91	C	0.841717	0.489166	-0.018378
C92	C	0.903627	0.418041	-0.015713
C93	C	0.645085	0.504885	0.183338
C94	C	0.640261	0.439095	0.254464
C95	C	0.835166	0.504888	0.183331
C96	C	0.894853	0.439099	0.254454
C97	C	0.483435	0.892576	-0.235793
C98	C	0.423748	0.958365	-0.306916
C99	C	0.476884	0.908298	-0.034083
C100	C	0.414974	0.979423	-0.036748
C101	C	0.673515	0.892579	-0.235800
C102	C	0.678340	0.958369	-0.306926
C103	C	0.896863	0.381569	-0.053855
C104	C	0.955030	0.314748	-0.051366
C105	C	1.019959	0.284396	-0.010731
C106	C	1.026722	0.320875	0.027411
C107	C	0.968556	0.387699	0.024918
C108	C	0.673833	0.411271	0.327259
C109	C	0.669297	0.349464	0.394095
C110	C	0.631193	0.315478	0.388135
C111	C	0.597617	0.343309	0.315333
C112	C	0.602149	0.405119	0.248498
C113	C	0.961286	0.405135	0.248465
C114	C	1.017374	0.343328	0.315287
C115	C	1.007029	0.315482	0.388097
C116	C	0.940590	0.349453	0.394084
C117	C	0.884503	0.411264	0.327263
C118	C	0.357316	0.992338	-0.300928
C119	C	0.301228	1.054165	-0.367750
C120	C	0.311573	1.082014	-0.440560
C121	C	0.378012	1.048039	-0.446547
C122	C	0.434099	0.986217	-0.379726
C123	C	0.421738	1.015901	0.001386
C124	C	0.363573	1.082740	-0.001121
C125	C	0.298644	1.113094	-0.041759
C126	C	0.291881	1.076612	-0.079898
C127	C	0.350046	1.009779	-0.077395
C128	C	0.716450	0.992335	-0.300942
C129	C	0.720996	1.054143	-0.367765
C130	C	0.687428	1.081989	-0.440573
C131	C	0.649317	1.048016	-0.446557
C132	C	0.644775	0.986204	-0.379733
H133	H	0.714033	0.285012	-0.082378
O134	O	0.929442	0.319408	0.472620
H135	H	0.873825	0.353409	0.465568
O136	O	-0.020215	0.534991	0.062009
H137	H	-0.072974	0.548225	0.054884
H138	H	0.458664	0.555803	0.050793
H139	H	0.251288	1.167514	-0.043791
H140	H	0.613739	0.958555	-0.384617
O141	O	0.229575	1.090794	-0.361277
H142	H	0.192307	1.138471	-0.419970
O143	O	0.972454	0.435163	0.169940
H144	H	0.950313	0.506454	0.135987
H145	H	0.348699	0.555807	0.050798
H146	H	0.739451	-0.019936	-0.108462
H147	H	0.743785	0.969674	-0.241664
H148	H	0.612480	0.811024	-0.496093
H149	H	0.830412	0.438910	0.332150
O150	O	1.067528	0.248802	0.460164
H151	H	1.067339	0.277088	0.493174
O152	O	0.826836	0.414307	-0.097694
H153	H	0.831917	0.377720	-0.123803
O154	O	0.589670	-0.016832	0.045230
H155	H	0.564241	0.019752	0.071342
H156	H	0.743889	0.101311	-0.113015
H157	H	0.704861	0.438936	0.332126
O158	O	0.346150	0.962312	-0.222401
H159	H	0.290529	0.996339	-0.229476
O160	O	0.762099	1.090782	-0.361299
H161	H	0.803558	1.075805	-0.388221
H162	H	0.386427	1.070722	-0.505837
H163	H	0.949510	0.285055	-0.082427
O164	O	1.082693	0.212314	-0.008037
H165	H	1.067074	0.192050	-0.041382
H166	H	0.574812	0.427765	0.189228
H167	H	0.604576	0.112434	0.029935
O168	O	0.705518	0.319449	0.472612
H169	H	0.742827	0.248158	0.506570
O170	O	1.089029	0.306684	0.308822
H171	H	1.086793	0.336421	0.246966
H172	H	0.229518	0.841652	-0.103251
O173	O	-0.156755	0.862489	-0.114502
H174	H	-0.198479	0.849257	-0.107378
O175	O	0.251073	1.148704	-0.512626
H176	H	0.218124	1.123059	-0.511619
O177	O	0.505751	0.949564	-0.386188
H178	H	0.503514	0.979312	-0.448045
H179	H	0.474601	0.991193	0.034483
O180	O	0.370873	1.122071	0.040028
H181	H	0.425795	1.089718	0.068718
H182	H	0.239008	1.101337	-0.112984
O183	O	0.626320	0.248796	0.460225
H184	H	0.656078	0.235152	0.511842
O185	O	0.342746	0.970428	-0.118520
H186	H	0.287823	1.002763	-0.147188
O187	O	0.692320	1.148669	-0.512646
H188	H	0.724453	1.167614	-0.496245
H189	H	0.621988	1.070697	-0.505846
H190	H	0.574717	0.296146	0.060560
O191	O	0.728939	0.414281	-0.097679
H192	H	0.754382	0.377674	-0.123768
H193	H	0.579147	0.417398	0.056004
O194	O	0.577982	0.893767	-0.713149
H195	H	0.536205	0.899818	-0.685880
O196	O	0.719685	0.214127	-0.088184
H197	H	0.758948	0.204411	-0.047945
O198	O	0.718886	0.555845	-0.670333
H199	H	0.714989	0.565172	-0.727596
H200	H	0.339484	0.841660	-0.103241
O201	O	0.598904	0.183341	0.035716
H202	H	0.632264	0.113013	0.082011
H203	H	-0.030100	0.841661	-0.103269
O204	O	0.105778	0.534991	0.062011
H205	H	0.097358	0.480214	0.091541
O206	O	0.599715	0.841612	-0.382124
H207	H	0.623619	0.878422	-0.414823
O208	O	0.582340	0.883343	-0.846844
H209	H	0.589497	0.866201	-0.889842
O210	O	0.714530	0.566279	-0.536641
H211	H	0.738440	0.508916	-0.540290
H212	H	0.731670	0.525180	-0.342033
H213	H	0.616610	0.801138	-0.570059
O214	O	0.736268	0.514128	-0.205609
H215	H	0.760182	0.456761	-0.209252
O216	O	0.710965	0.574832	-0.479678
H217	H	0.687068	0.538016	-0.446970
O218	O	1.096754	0.288128	0.071246
H219	H	1.136057	0.235526	0.066576
H220	H	0.566593	0.315629	0.310492
O221	O	0.975854	0.427023	0.066072
H222	H	1.030776	0.394677	0.094752
