data_functionalizedCrystal
_audit_creation_method	'MofGen! by Chris Wilmer'
_symmetry_space_group_name_H-M	'P1'
_symmetry_Int_Tables_number	1
_symmetry_cell_setting	triclinic
loop_
_symmetry_equiv_pos_as_xyz
  x,y,z
_cell_length_a	23.532407
_cell_length_b	23.532355
_cell_length_c	22.610064
_cell_angle_alpha	89.997644
_cell_angle_beta	89.988412
_cell_angle_gamma	97.161913
loop_
_atom_site_label
_atom_site_type_symbol
_atom_site_fract_x
_atom_site_fract_y
_atom_site_fract_z
O1	O	-0.068986	0.755283	-0.049095
O2	O	0.264347	1.088616	0.284239
O3	O	0.597680	1.421949	0.617572
O4	O	-0.079020	0.589415	-0.049112
O5	O	0.254313	0.922748	0.284221
O6	O	0.587646	1.256082	0.617554
O7	O	0.008929	0.677351	-0.049110
O8	O	0.342263	1.010684	0.284223
O9	O	0.675596	1.344017	0.617556
O10	O	-0.156936	0.667347	-0.049097
O11	O	0.176397	1.000680	0.284237
O12	O	0.509731	1.334014	0.617570
O13	O	0.008916	0.677335	0.049259
O14	O	0.342250	1.010668	0.382592
O15	O	0.675583	1.344002	0.715925
O16	O	-0.079033	0.589400	0.049257
O17	O	0.254300	0.922733	0.382590
O18	O	0.587633	1.256066	0.715924
O19	O	-0.068999	0.755267	0.049274
O20	O	0.264334	1.088600	0.382608
O21	O	0.597667	1.421934	0.715941
Zn22	Zn	-0.074018	0.672331	0.064884
Zn23	Zn	0.259315	1.005664	0.398217
Zn24	Zn	0.592648	1.338998	0.731551
Zn25	Zn	-0.074001	0.672351	-0.064722
Zn26	Zn	0.259332	1.005685	0.268612
Zn27	Zn	0.592665	1.339018	0.601945
O28	O	-0.156949	0.667332	0.049273
O29	O	0.176384	1.000665	0.382606
O30	O	0.509718	1.333998	0.715939
C31	C	-0.078776	0.568191	0.000070
C32	C	0.254557	0.901524	0.333403
C33	C	0.587891	1.234857	0.666737
C34	C	-0.078022	0.504972	0.000063
C35	C	0.255311	0.838305	0.333396
C36	C	0.588645	1.171639	0.666729
C37	C	-0.073291	0.112950	0.053708
C38	C	0.260042	0.446283	0.387041
C39	C	0.593376	0.779616	0.720375
C40	C	-0.072573	0.053550	0.053710
C41	C	0.260760	0.386884	0.387044
C42	C	0.594093	0.720217	0.720377
O43	O	-0.072189	0.022825	0.099312
O44	O	0.261144	0.356158	0.432646
O45	O	0.594478	0.689491	0.765979
N46	N	-0.072211	0.023850	0.000090
N47	N	0.261123	0.357184	0.333423
N48	N	0.594456	0.690517	0.666756
C49	C	-0.072560	0.053554	-0.053537
C50	C	0.260774	0.386887	0.279796
C51	C	0.594107	0.720220	0.613130
O52	O	-0.072185	0.022837	-0.099146
O53	O	0.261149	0.356171	0.234188
O54	O	0.594482	0.689504	0.567521
C55	C	-0.073273	0.112953	-0.053539
C56	C	0.260060	0.446286	0.279795
C57	C	0.593394	0.779619	0.613128
C58	C	-0.073641	0.142649	0.000086
C59	C	0.259692	0.475982	0.333419
C60	C	0.593025	0.809315	0.666752
C61	C	-0.073659	0.142646	0.107328
C62	C	0.259675	0.475979	0.440662
C63	C	0.593008	0.809313	0.773995
C64	C	-0.074377	0.202041	0.107326
C65	C	0.258956	0.535375	0.440659
C66	C	0.592289	0.868708	0.773992
C67	C	-0.074728	0.231740	0.053703
C68	C	0.258605	0.565073	0.387037
C69	C	0.591939	0.898407	0.720370
C70	C	-0.074360	0.202044	0.000083
C71	C	0.258973	0.535377	0.333417
C72	C	0.592307	0.868711	0.666750
C73	C	-0.073618	0.142655	-0.107165
C74	C	0.259716	0.475989	0.226169
C75	C	0.593049	0.809322	0.559502
C76	C	-0.074331	0.202058	-0.107162
C77	C	0.259003	0.535392	0.226172
C78	C	0.592336	0.868725	0.559505
C79	C	-0.074699	0.231754	-0.053537
C80	C	0.258634	0.565088	0.279796
C81	C	0.591967	0.898421	0.613129
C82	C	-0.075429	0.291138	-0.053542
C83	C	0.257904	0.624471	0.279792
C84	C	0.591238	0.957805	0.613125
N85	N	-0.075792	0.320838	0.000079
N86	N	0.257542	0.654171	0.333413
N87	N	0.590875	0.987505	0.666746
C88	C	-0.075441	0.291139	0.053702
C89	C	0.257892	0.624472	0.387035
C90	C	0.591225	0.957806	0.720368
C91	C	-0.071061	-0.071188	-0.053530
C92	C	0.262273	0.262145	0.279804
C93	C	0.595606	0.595479	0.613137
C94	C	-0.070351	-0.130586	-0.053529
C95	C	0.262982	0.202747	0.279805
C96	C	0.596315	0.536080	0.613138
C97	C	-0.070364	-0.130585	0.053719
C98	C	0.262969	0.202748	0.387052
C99	C	0.596303	0.536081	0.720386
C100	C	-0.071077	-0.071186	0.053717
C101	C	0.262256	0.262147	0.387051
C102	C	0.595589	0.595480	0.720384
C103	C	-0.071423	-0.041488	0.000091
C104	C	0.261910	0.291845	0.333425
C105	C	0.595243	0.625179	0.666758
C106	C	-0.076951	0.415873	0.053692
C107	C	0.256383	0.749206	0.387026
C108	C	0.589716	1.082540	0.720359
C109	C	-0.077671	0.475273	0.053685
C110	C	0.255662	0.808607	0.387019
C111	C	0.588995	1.141940	0.720352
C112	C	-0.077656	0.475267	-0.053562
C113	C	0.255678	0.808601	0.279771
C114	C	0.589011	1.141934	0.613105
C115	C	-0.076938	0.415872	-0.053555
C116	C	0.256396	0.749205	0.279778
C117	C	0.589729	1.082539	0.613111
C118	C	-0.076583	0.386177	0.000077
C119	C	0.256750	0.719510	0.333410
C120	C	0.590083	1.052843	0.666743
O121	O	-0.075812	0.321902	-0.099120
O122	O	0.257522	0.655235	0.234213
O123	O	0.590855	0.988568	0.567546
O124	O	-0.075809	0.321864	0.099303
O125	O	0.257525	0.655197	0.432636
O126	O	0.590858	0.988530	0.765969
C127	C	-0.178158	0.667594	0.000090
C128	C	0.155175	1.000927	0.333423
C129	C	0.488508	1.334261	0.666757
C130	C	-0.241375	0.668360	0.000096
C131	C	0.091958	1.001693	0.333429
C132	C	0.425291	1.335027	0.666762
C133	C	-0.640487	0.621125	0.000060
C134	C	-0.307154	0.954459	0.333394
C135	C	0.026179	1.287792	0.666727
C136	C	-0.699887	0.621837	0.000056
C137	C	-0.366554	0.955170	0.333390
C138	C	-0.033221	1.288504	0.666723
O139	O	-0.736640	0.578050	0.000030
O140	O	-0.403307	0.911383	0.333363
O141	O	-0.069973	1.244716	0.666697
N142	N	-0.722504	0.674114	0.000063
N143	N	-0.389170	1.007448	0.333396
N144	N	-0.055837	1.340781	0.666729
C145	C	-0.685717	0.725684	0.000067
C146	C	-0.352383	1.059017	0.333400
C147	C	-0.019050	1.392351	0.666734
O148	O	-0.710408	0.770216	0.000071
O149	O	-0.377075	1.103549	0.333405
O150	O	-0.043741	1.436882	0.666738
C151	C	-0.626318	0.724972	0.000067
C152	C	-0.292984	1.058305	0.333400
C153	C	0.040349	1.391639	0.666733
C154	C	-0.603705	0.672691	0.000066
C155	C	-0.270371	1.006024	0.333400
C156	C	0.062962	1.339358	0.666733
C157	C	-0.617874	0.568849	0.000059
C158	C	-0.284540	0.902182	0.333393
C159	C	0.048793	1.235515	0.666726
C160	C	-0.558478	0.568137	0.000065
C161	C	-0.225144	0.901471	0.333398
C162	C	0.108189	1.234804	0.666731
C163	C	-0.521695	0.619703	0.000071
C164	C	-0.188362	0.953036	0.333404
C165	C	0.144971	1.286370	0.666737
C166	C	-0.544309	0.671980	0.000072
C167	C	-0.210975	1.005313	0.333405
C168	C	0.122358	1.338646	0.666738
C169	C	-0.589532	0.776541	0.000067
C170	C	-0.256198	1.109874	0.333400
C171	C	0.077135	1.443208	0.666733
C172	C	-0.530129	0.775824	0.000066
C173	C	-0.196796	1.109158	0.333400
C174	C	0.136537	1.442491	0.666733
C175	C	-0.507516	0.723543	0.000066
C176	C	-0.174183	1.056877	0.333399
C177	C	0.159150	1.390210	0.666733
C178	C	-0.448130	0.722834	0.000083
C179	C	-0.114797	1.056167	0.333416
C180	C	0.218537	1.389501	0.666750
N181	N	-0.425514	0.670556	0.000077
N182	N	-0.092180	1.003890	0.333410
N183	N	0.241153	1.337223	0.666743
C184	C	-0.462296	0.618991	0.000071
C185	C	-0.128963	0.952324	0.333404
C186	C	0.204370	1.285657	0.666737
C187	C	-0.810459	0.727175	0.000066
C188	C	-0.477125	1.060509	0.333400
C189	C	-0.143792	1.393842	0.666733
C190	C	-0.869857	0.727888	0.000071
C191	C	-0.536523	1.061221	0.333404
C192	C	-0.203190	1.394555	0.666737
C193	C	-0.884023	0.624041	0.000059
C194	C	-0.550690	0.957374	0.333392
C195	C	-0.217357	1.290707	0.666726
C196	C	-0.824624	0.623329	0.000059
C197	C	-0.491291	0.956662	0.333392
C198	C	-0.157958	1.289995	0.666725
C199	C	-0.787842	0.674898	0.000060
C200	C	-0.454509	1.008231	0.333393
C201	C	-0.121176	1.341564	0.666727
C202	C	-0.337560	0.617501	0.000082
C203	C	-0.004226	0.950834	0.333415
C204	C	0.329107	1.284168	0.666749
C205	C	-0.278158	0.616794	0.000090
C206	C	0.055175	0.950128	0.333423
C207	C	0.388509	1.283461	0.666756
C208	C	-0.263996	0.720642	0.000098
C209	C	0.069337	1.053975	0.333431
C210	C	0.402670	1.387308	0.666765
C211	C	-0.323393	0.721349	0.000094
C212	C	0.009940	1.054682	0.333427
C213	C	0.343274	1.388015	0.666760
C214	C	-0.360174	0.669774	0.000083
C215	C	-0.026841	1.003107	0.333417
C216	C	0.306493	1.336440	0.666750
O217	O	-0.411343	0.766598	0.000107
O218	O	-0.078009	1.099931	0.333440
O219	O	0.255324	1.433265	0.666773
O220	O	-0.437597	0.574467	0.000058
O221	O	-0.104263	0.907800	0.333392
O222	O	0.229070	1.241133	0.666725
C223	C	0.030139	0.677088	0.000071
C224	C	0.363472	1.010421	0.333404
C225	C	0.696805	1.343755	0.666738
C226	C	0.093356	0.676322	0.000061
C227	C	0.426689	1.009656	0.333395
C228	C	0.760022	1.342989	0.666728
C229	C	-0.069244	0.776491	0.000091
C230	C	0.264090	1.109825	0.333424
C231	C	0.597423	1.443158	0.666758
C232	C	-0.069998	0.839710	0.000094
C233	C	0.263336	1.173043	0.333428
C234	C	0.596669	1.506377	0.666761
N235	N	-0.074029	0.672321	0.153336
N236	N	0.259304	1.005654	0.486670
N237	N	0.592637	1.338988	0.820003
N238	N	-0.073986	0.672366	-0.153174
N239	N	0.259348	1.005699	0.180159
N240	N	0.592681	1.339032	0.513493
C241	C	-0.035063	0.711291	0.561979
C242	C	0.298270	1.044624	0.895312
C243	C	0.631603	1.377958	1.228645
C244	C	-0.035059	0.711294	0.623898
C245	C	0.298274	1.044627	0.957232
C246	C	0.631608	1.377961	1.290565
O247	O	-0.001937	0.744403	0.655918
O248	O	0.331396	1.077736	0.989251
O249	O	0.664730	1.411070	1.322585
N250	N	-0.073990	0.672351	0.654874
N251	N	0.259344	1.005684	0.988207
N252	N	0.592677	1.339018	1.321540
C253	C	-0.112923	0.633399	0.623925
C254	C	0.220410	0.966732	0.957259
C255	C	0.553744	1.300065	1.290592
O256	O	-0.146036	0.600275	0.655958
O257	O	0.187298	0.933608	0.989291
O258	O	0.520631	1.266941	1.322625
C259	C	-0.112924	0.633394	0.562007
C260	C	0.220409	0.966727	0.895340
C261	C	0.553743	1.300060	1.228673
C262	C	-0.073995	0.672343	0.531035
C263	C	0.259339	1.005676	0.864368
C264	C	0.592672	1.339010	1.197701
C265	C	0.003863	0.750237	0.531007
C266	C	0.337197	1.083570	0.864340
C267	C	0.670530	1.416903	1.197673
C268	C	0.003858	0.750234	0.469091
C269	C	0.337192	1.083568	0.802424
C270	C	0.670525	1.416901	1.135758
C271	C	-0.035073	0.711286	0.438147
C272	C	0.298260	1.044620	0.771481
C273	C	0.631593	1.377953	1.104814
C274	C	-0.074000	0.672340	0.469119
C275	C	0.259334	1.005674	0.802453
C276	C	0.592667	1.339007	1.135786
C277	C	-0.151854	0.594439	0.531060
C278	C	0.181479	0.927772	0.864393
C279	C	0.514813	1.261106	1.197726
C280	C	-0.151851	0.594437	0.469137
C281	C	0.181482	0.927770	0.802470
C282	C	0.514815	1.261104	1.135803
C283	C	-0.112922	0.633386	0.438165
C284	C	0.220411	0.966720	0.771498
C285	C	0.553744	1.300053	1.104832
C286	C	-0.112936	0.633390	0.376260
C287	C	0.220397	0.966723	0.709593
C288	C	0.553730	1.300057	1.042926
N289	N	-0.074006	0.672333	0.345285
N290	N	0.259328	1.005666	0.678618
N291	N	0.592661	1.339000	1.011951
C292	C	-0.035074	0.711281	0.376228
C293	C	0.298259	1.044614	0.709562
C294	C	0.631593	1.377948	1.042895
C295	C	-0.112917	0.633412	0.753959
C296	C	0.220416	0.966745	1.087292
C297	C	0.553749	1.300079	1.420626
C298	C	-0.112919	0.633419	0.815877
C299	C	0.220414	0.966753	1.149210
C300	C	0.553747	1.300086	1.482543
C301	C	-0.035055	0.711314	0.815845
C302	C	0.298279	1.044647	1.149179
C303	C	0.631612	1.377981	1.482512
C304	C	-0.035056	0.711309	0.753927
C305	C	0.298278	1.044642	1.087260
C306	C	0.631611	1.377975	1.420593
C307	C	-0.073987	0.672355	0.722984
C308	C	0.259347	1.005688	1.056317
C309	C	0.592680	1.339021	1.389651
C310	C	-0.035088	0.711273	0.246201
C311	C	0.298245	1.044607	0.579534
C312	C	0.631579	1.377940	0.912868
C313	C	-0.035098	0.711269	0.184280
C314	C	0.298235	1.044602	0.517613
C315	C	0.631569	1.377936	0.850947
C316	C	-0.112960	0.633373	0.184317
C317	C	0.220373	0.966706	0.517650
C318	C	0.553706	1.300040	0.850983
C319	C	-0.112953	0.633379	0.246232
C320	C	0.220381	0.966712	0.579566
C321	C	0.553714	1.300046	0.912899
C322	C	-0.074012	0.672331	0.277173
C323	C	0.259322	1.005665	0.610506
C324	C	0.592655	1.338998	0.943840
O325	O	-0.146040	0.600296	0.344201
O326	O	0.187294	0.933629	0.677534
O327	O	0.520627	1.266963	1.010868
O328	O	-0.001962	0.744395	0.344189
O329	O	0.331371	1.077728	0.677522
O330	O	0.664705	1.411061	1.010855
H331	H	-0.076667	0.391701	0.097365
H332	H	0.256666	0.725035	0.430698
H333	H	0.590000	1.058368	0.764031
H334	H	-0.003354	0.743027	0.841051
H335	H	0.329980	1.076360	1.174384
H336	H	0.663313	1.409694	1.507718
H337	H	-0.074674	0.226215	0.150992
H338	H	0.258660	0.559548	0.484326
H339	H	0.591993	0.892882	0.817659
C340	C	-0.078075	0.507939	0.112673
C341	C	0.255258	0.841272	0.446006
C342	C	0.588591	1.174605	0.779339
H343	H	-0.078558	0.547568	0.104995
H344	H	0.254775	0.880901	0.438329
H345	H	0.588108	1.214234	0.771662
H346	H	-0.044745	0.502739	0.134703
H347	H	0.288588	0.836072	0.468037
H348	H	0.621922	1.169405	0.801370
H349	H	-0.111181	0.493665	0.134706
H350	H	0.222153	0.826999	0.468039
H351	H	0.555486	1.160332	0.801373
C352	C	-0.253284	0.559285	0.000087
C353	C	0.080049	0.892618	0.333420
C354	C	0.413382	1.225951	0.666753
H355	H	-0.212640	0.566243	0.000095
H356	H	0.120693	0.899576	0.333429
H357	H	0.454027	1.232909	0.666762
H358	H	-0.265921	0.538073	-0.034220
H359	H	0.067412	0.871406	0.299114
H360	H	0.400745	1.204740	0.632447
H361	H	-0.265941	0.538063	0.034392
H362	H	0.067392	0.871397	0.367725
H363	H	0.400725	1.204730	0.701058
C364	C	-0.924492	0.567319	0.000042
C365	C	-0.591158	0.900652	0.333376
C366	C	-0.257825	1.233986	0.666709
H367	H	-0.963105	0.575235	0.000035
H368	H	-0.629771	0.908568	0.333368
H369	H	-0.296438	1.241902	0.666701
H370	H	-0.917683	0.545856	0.034341
H371	H	-0.584350	0.879189	0.367674
H372	H	-0.251017	1.212522	0.701008
H373	H	-0.917659	0.545879	-0.034270
H374	H	-0.584326	0.879212	0.299063
H375	H	-0.250993	1.212545	0.632396
H376	H	-0.070060	-0.154761	-0.097195
H377	H	0.263273	0.178572	0.236138
H378	H	0.596606	0.511906	0.569472
C379	C	-0.155778	0.590529	0.150271
C380	C	0.177556	0.923863	0.483604
C381	C	0.510889	1.257196	0.816937
H382	H	-0.150196	0.596104	0.108959
H383	H	0.183137	0.929438	0.442293
H384	H	0.516470	1.262771	0.775626
H385	H	-0.193759	0.596489	0.160422
H386	H	0.139575	0.929822	0.493755
H387	H	0.472908	1.263155	0.827088
H388	H	-0.149782	0.552557	0.160420
H389	H	0.183552	0.885890	0.493753
H390	H	0.516885	1.219223	0.827087
C391	C	-0.155742	0.590576	0.849939
C392	C	0.177591	0.923909	1.183272
C393	C	0.510925	1.257242	1.516606
H394	H	-0.178923	0.567378	0.822637
H395	H	0.154410	0.900711	1.155970
H396	H	0.487744	1.234045	1.489303
H397	H	-0.179344	0.610921	0.874102
H398	H	0.153989	0.944254	1.207435
H399	H	0.487323	1.277587	1.540768
H400	H	-0.135372	0.566984	0.874086
H401	H	0.197962	0.900317	1.207419
H402	H	0.531295	1.233651	1.540752
H403	H	-0.073317	0.118487	-0.150832
H404	H	0.260016	0.451820	0.182502
H405	H	0.593350	0.785154	0.515835
H406	H	-0.183553	0.562714	0.443946
H407	H	0.149780	0.896048	0.777279
H408	H	0.483113	1.229381	1.110613
C409	C	-0.155752	0.590568	0.719927
C410	C	0.177581	0.923901	1.053261
C411	C	0.510915	1.257234	1.386594
H412	H	-0.178938	0.567382	0.747247
H413	H	0.154395	0.900715	1.080580
H414	H	0.487729	1.234049	1.413914
H415	H	-0.135396	0.566972	0.695769
H416	H	0.197937	0.900305	1.029102
H417	H	0.531271	1.233639	1.362436
H418	H	-0.179356	0.610921	0.695779
H419	H	0.153977	0.944254	1.029112
H420	H	0.487311	1.277588	1.362445
H421	H	-0.074613	0.226236	-0.150832
H422	H	0.258721	0.559569	0.182502
H423	H	0.592054	0.892902	0.515835
C424	C	-0.076551	0.383203	-0.112540
C425	C	0.256782	0.716536	0.220793
C426	C	0.590116	1.049869	0.554127
H427	H	-0.076865	0.409399	-0.144475
H428	H	0.256468	0.742733	0.188858
H429	H	0.589802	1.076066	0.522191
H430	H	-0.109488	0.355497	-0.114759
H431	H	0.223846	0.688830	0.218575
H432	H	0.557179	1.022163	0.551908
H433	H	-0.043052	0.364567	-0.114780
H434	H	0.290281	0.697900	0.218554
H435	H	0.623615	1.031234	0.551887
H436	H	-0.003378	0.742991	0.271386
H437	H	0.329955	1.076325	0.604719
H438	H	0.663289	1.409658	0.938053
C439	C	-0.078036	0.507944	-0.112542
C440	C	0.255297	0.841278	0.220791
C441	C	0.588630	1.174611	0.554125
H442	H	-0.078509	0.547573	-0.104859
H443	H	0.254824	0.880907	0.228475
H444	H	0.588157	1.214240	0.561808
H445	H	-0.111128	0.493681	-0.134580
H446	H	0.222205	0.827015	0.198753
H447	H	0.555538	1.160348	0.532086
H448	H	-0.044692	0.502747	-0.134571
H449	H	0.288641	0.836081	0.198762
H450	H	0.621974	1.169414	0.532096
H451	H	-0.341805	0.763920	0.000102
H452	H	-0.008472	1.097253	0.333436
H453	H	0.324862	1.430587	0.666769
H454	H	0.035569	0.781953	0.556196
H455	H	0.368902	1.115286	0.889529
H456	H	0.702235	1.448619	1.222862
H457	H	-0.073372	0.118472	0.150996
H458	H	0.259961	0.451805	0.484330
H459	H	0.593295	0.785138	0.817663
C460	C	0.007717	0.754121	0.150212
C461	C	0.341051	1.087454	0.483545
C462	C	0.674384	1.420788	0.816878
H463	H	0.002136	0.748550	0.108902
H464	H	0.335469	1.081883	0.442236
H465	H	0.668802	1.415217	0.775569
H466	H	0.045699	0.748163	0.160345
H467	H	0.379033	1.081496	0.493678
H468	H	0.712366	1.414830	0.827012
H469	H	0.001719	0.792092	0.160365
H470	H	0.335053	1.125426	0.493698
H471	H	0.668386	1.458759	0.827031
C472	C	-0.378010	0.560770	0.000075
C473	C	-0.044677	0.894104	0.333409
C474	C	0.288656	1.227437	0.666742
H475	H	-0.356028	0.529538	0.000081
H476	H	-0.022695	0.862872	0.333414
H477	H	0.310639	1.196205	0.666748
H478	H	-0.401469	0.558887	-0.034228
H479	H	-0.068136	0.892220	0.299105
H480	H	0.265198	1.225554	0.632438
H481	H	-0.401483	0.558883	0.034383
H482	H	-0.068150	0.892217	0.367716
H483	H	0.265183	1.225550	0.701050
C484	C	-0.155752	0.590515	0.280303
C485	C	0.177581	0.923848	0.613636
C486	C	0.510915	1.257181	0.946969
H487	H	-0.178930	0.567310	0.253003
H488	H	0.154404	0.900643	0.586336
H489	H	0.487737	1.233977	0.919670
H490	H	-0.179360	0.610838	0.304481
H491	H	0.153973	0.944171	0.637814
H492	H	0.487306	1.277505	0.971147
H493	H	-0.135357	0.566933	0.304434
H494	H	0.197977	0.900266	0.637768
H495	H	0.531310	1.233599	0.971101
H496	H	-0.071378	-0.047012	0.097383
H497	H	0.261955	0.286322	0.430717
H498	H	0.595289	0.619655	0.764050
C499	C	-0.533611	0.510628	0.000056
C500	C	-0.200278	0.843961	0.333389
C501	C	0.133056	1.177295	0.666723
H502	H	-0.564031	0.480024	0.000046
H503	H	-0.230698	0.813357	0.333379
H504	H	0.102636	1.146690	0.666712
H505	H	-0.510742	0.508178	0.034358
H506	H	-0.177408	0.841512	0.367691
H507	H	0.155925	1.174845	0.701025
H508	H	-0.510729	0.508197	-0.034253
H509	H	-0.177395	0.841530	0.299080
H510	H	0.155938	1.174863	0.632413
H511	H	0.035559	0.781948	0.443877
H512	H	0.368893	1.115282	0.777211
H513	H	0.702226	1.448615	1.110544
H514	H	-0.806218	0.580757	0.000061
H515	H	-0.472884	0.914090	0.333394
H516	H	-0.139551	1.247423	0.666728
C517	C	0.007770	0.754148	0.719863
C518	C	0.341103	1.087481	1.053196
C519	C	0.674437	1.420815	1.386530
H520	H	0.030956	0.777341	0.747166
H521	H	0.364290	1.110674	1.080499
H522	H	0.697623	1.444007	1.413832
H523	H	-0.012589	0.777737	0.695707
H524	H	0.320744	1.111071	1.029041
H525	H	0.654078	1.444404	1.362374
H526	H	0.031375	0.733792	0.695710
H527	H	0.364708	1.067125	1.029043
H528	H	0.698041	1.400459	1.362376
C529	C	-0.658326	0.512121	0.000057
C530	C	-0.324993	0.845455	0.333391
C531	C	0.008340	1.178788	0.666724
H532	H	-0.636342	0.480890	0.000061
H533	H	-0.303009	0.814224	0.333395
H534	H	0.030324	1.147557	0.666728
H535	H	-0.681789	0.510236	-0.034244
H536	H	-0.348456	0.843569	0.299090
H537	H	-0.015122	1.176902	0.632423
H538	H	-0.681796	0.510235	0.034368
H539	H	-0.348462	0.843568	0.367701
H540	H	-0.015129	1.176901	0.701034
H541	H	-0.183553	0.562723	0.556268
H542	H	0.149780	0.896056	0.889602
H543	H	0.483113	1.229390	1.222935
C544	C	-0.070141	-0.163284	0.112703
C545	C	0.263192	0.170050	0.446037
C546	C	0.596526	0.503383	0.779370
H547	H	-0.069708	-0.202918	0.105020
H548	H	0.263625	0.130415	0.438353
H549	H	0.596958	0.463749	0.771686
H550	H	-0.103527	-0.158033	0.134631
H551	H	0.229806	0.175301	0.467964
H552	H	0.563140	0.508634	0.801297
H553	H	-0.037090	-0.149085	0.134843
H554	H	0.296243	0.184248	0.468176
H555	H	0.629576	0.517581	0.801509
H556	H	-0.888262	0.770461	0.000080
H557	H	-0.554929	1.103794	0.333413
H558	H	-0.221596	1.437127	0.666747
C559	C	-0.614393	0.834051	0.000059
C560	C	-0.281059	1.167384	0.333392
C561	C	0.052274	1.500717	0.666725
H562	H	-0.583972	0.864654	0.000053
H563	H	-0.250639	1.197987	0.333387
H564	H	0.082695	1.531321	0.666720
H565	H	-0.637280	0.836495	0.034358
H566	H	-0.303946	1.169828	0.367692
H567	H	0.029387	1.503161	0.701025
H568	H	-0.637257	0.836489	-0.034253
H569	H	-0.303924	1.169823	0.299080
H570	H	0.029410	1.503156	0.632414
C571	C	-0.770003	0.783905	0.000079
C572	C	-0.436670	1.117239	0.333412
C573	C	-0.103336	1.450572	0.666746
H574	H	-0.791984	0.815138	0.000088
H575	H	-0.458651	1.148472	0.333422
H576	H	-0.125318	1.481805	0.666755
H577	H	-0.746527	0.785799	-0.034223
H578	H	-0.413193	1.119132	0.299111
H579	H	-0.079860	1.452465	0.632444
H580	H	-0.746547	0.785781	0.034389
H581	H	-0.413214	1.119114	0.367722
H582	H	-0.079881	1.452447	0.701055
C583	C	-0.071453	-0.038526	-0.112522
C584	C	0.261881	0.294807	0.220811
C585	C	0.595214	0.628141	0.554144
H586	H	-0.071140	-0.064726	-0.144453
H587	H	0.262193	0.268607	0.188881
H588	H	0.595527	0.601940	0.522214
H589	H	-0.038517	-0.010819	-0.114763
H590	H	0.294816	0.322514	0.218571
H591	H	0.628150	0.655847	0.551904
H592	H	-0.104953	-0.019892	-0.114749
H593	H	0.228381	0.313441	0.218584
H594	H	0.561714	0.646775	0.551918
C595	C	-0.489672	0.832552	0.000070
C596	C	-0.156339	1.165885	0.333404
C597	C	0.176995	1.499219	0.666737
H598	H	-0.511651	0.863787	0.000075
H599	H	-0.178318	1.197120	0.333408
H600	H	0.155016	1.530453	0.666741
H601	H	-0.466195	0.834439	-0.034231
H602	H	-0.132862	1.167773	0.299103
H603	H	0.200471	1.501106	0.632436
H604	H	-0.466217	0.834430	0.034381
H605	H	-0.132884	1.167763	0.367714
H606	H	0.200450	1.501097	0.701047
H607	H	-0.234038	0.762625	0.000106
H608	H	0.099296	1.095958	0.333439
H609	H	0.432629	1.429291	0.666773
