data_functionalizedCrystal
_audit_creation_method	'MofGen! by Chris Wilmer'
_symmetry_space_group_name_H-M	'P1'
_symmetry_Int_Tables_number	1
_symmetry_cell_setting	triclinic
loop_
_symmetry_equiv_pos_as_xyz
  x,y,z
_cell_length_a	10.654550
_cell_length_b	19.188930
_cell_length_c	9.130313
_cell_angle_alpha	89.990369
_cell_angle_beta	89.999724
_cell_angle_gamma	83.814856
loop_
_atom_site_label
_atom_site_type_symbol
_atom_site_fract_x
_atom_site_fract_y
_atom_site_fract_z
O1	O	1.665764	0.098062	-0.121709
O2	O	1.300088	0.107405	-0.121737
O3	O	1.493479	0.001147	-0.121693
O4	O	1.472374	0.204320	-0.121752
O5	O	1.493466	0.001143	0.121905
O6	O	1.300075	0.107401	0.121862
O7	O	1.665751	0.098059	0.121890
Cu8	Cu	1.482912	0.102730	0.144118
Cu9	Cu	1.482928	0.102734	-0.143965
O10	O	1.472361	0.204317	0.121847
C11	C	1.253298	0.106717	0.000059
C12	C	1.113898	0.104665	0.000049
C13	C	1.033089	0.167228	0.000035
C14	C	0.902109	0.165295	0.000061
C15	C	0.932761	0.038231	0.000109
C16	C	1.063738	0.040164	0.000094
C17	C	1.492789	-0.024870	0.000110
C18	C	1.490737	-0.102388	0.000123
C19	C	1.604213	-0.146570	0.000138
C20	C	1.602285	-0.219407	0.000115
C21	C	1.486876	-0.248058	0.000105
C22	C	1.373386	-0.203866	0.000081
C23	C	1.375316	-0.131032	0.000090
N24	N	1.398655	-0.356641	0.082999
N25	N	1.396828	-0.425831	0.082994
C26	C	1.481052	-0.467505	0.000075
N27	N	1.567190	-0.437375	-0.082821
N28	N	1.569020	-0.368178	-0.082809
C29	C	1.484770	-0.327034	0.000094
C30	C	1.592445	-0.590665	0.000063
C31	C	1.590513	-0.663502	0.000030
C32	C	1.361610	-0.647960	0.000011
C33	C	1.363545	-0.575124	0.000029
C34	C	1.478966	-0.546481	0.000062
C35	C	1.712541	0.098746	0.000091
C36	C	1.851941	0.100799	0.000091
C37	C	1.473051	0.230334	0.000040
C38	C	1.475102	0.307852	0.000018
N39	N	1.482910	0.102727	0.346741
N40	N	1.482939	0.102731	-0.346588
C41	C	1.568572	0.055696	0.423412
C42	C	1.568584	0.055696	0.576749
C43	C	1.397268	0.149764	0.576730
C44	C	1.397251	0.149760	0.423396
H45	H	0.891904	-0.014283	0.000154
H46	H	1.327528	0.188059	0.639158
N47	N	1.248907	-0.234764	0.000062
H48	H	1.264901	-0.287609	0.000063
H49	H	1.199259	-0.218647	0.090361
H50	H	1.129537	-0.010785	0.000109
N51	N	1.660955	0.004969	0.340731
H52	H	1.715220	-0.024826	0.412576
H53	H	1.613048	-0.026148	0.277133
H54	H	1.698197	-0.123254	0.000160
N55	N	1.304844	0.200483	0.340687
H56	H	1.250587	0.230282	0.412512
H57	H	1.352731	0.231597	0.277038
N58	N	1.712907	-0.711162	0.000048
H59	H	1.763295	-0.701872	-0.090238
H60	H	1.763161	-0.701872	0.090427
N61	N	1.724680	-0.267072	0.000129
H62	H	1.798090	-0.237874	0.000149
H63	H	1.728847	-0.297638	0.090433
H64	H	1.638336	0.017398	0.639171
N65	N	1.252927	-0.083368	0.000083
H66	H	1.202558	-0.092632	-0.090226
H67	H	1.202649	-0.092677	0.090438
N68	N	1.087194	0.236792	-0.000014
H69	H	1.016122	0.276132	-0.000017
H70	H	1.140880	0.240364	0.090281
H71	H	1.686428	-0.567342	0.000083
N72	N	0.814949	0.232773	0.000128
H73	H	0.866605	0.273924	0.000124
H74	H	0.759894	0.234764	-0.090143
H75	H	1.267641	-0.671287	-0.000005
H76	H	1.271141	-0.539150	0.000024
