data_functionalizedCrystal
_audit_creation_method	'MofGen! by Chris Wilmer'
_symmetry_space_group_name_H-M	'P1'
_symmetry_Int_Tables_number	1
_symmetry_cell_setting	triclinic
loop_
_symmetry_equiv_pos_as_xyz
  x,y,z
_cell_length_a	10.967961
_cell_length_b	11.026607
_cell_length_c	10.065875
_cell_angle_alpha	100.717864
_cell_angle_beta	69.208006
_cell_angle_gamma	96.380989
loop_
_atom_site_label
_atom_site_type_symbol
_atom_site_fract_x
_atom_site_fract_y
_atom_site_fract_z
O1	O	1.731038	0.124775	-0.293636
O2	O	1.360408	0.154677	-0.206466
O3	O	1.515005	-0.036050	-0.242828
O4	O	1.576440	0.315502	-0.257274
O5	O	1.544536	-0.072499	-0.476763
O6	O	1.389938	0.118229	-0.440400
O7	O	1.760568	0.088326	-0.527571
Zn8	Zn	1.579942	0.097490	-0.521128
Zn9	Zn	1.541034	0.145513	-0.212909
O10	O	1.605970	0.279053	-0.491208
C11	C	1.518437	-0.099161	-0.357127
C12	C	1.484650	-0.232909	-0.349174
C13	C	1.326986	0.137031	-0.312100
C14	C	1.183403	0.138738	-0.278329
N15	N	1.514479	0.178278	-0.002557
C16	C	1.793989	0.105973	-0.421934
C17	C	1.937571	0.104267	-0.455695
C18	C	2.134685	0.120620	-0.384456
C19	C	1.986284	0.122388	-0.349553
C20	C	1.602539	0.342165	-0.376906
C21	C	1.636325	0.475914	-0.384851
C22	C	1.543036	0.552385	-0.362908
C23	C	1.577953	0.690622	-0.371119
N24	N	1.606504	0.064715	-0.731481
C25	C	1.570712	0.108898	0.051995
C26	C	1.550263	0.134106	0.213972
H27	H	1.918133	0.139207	-0.232845
H28	H	2.202839	0.103792	-0.501156
O29	O	2.102251	0.158983	-0.139051
C30	C	2.135078	0.275454	-0.071469
H31	H	2.240891	0.303581	-0.131405
H32	H	2.122631	0.270022	0.044662
H33	H	2.068258	0.346938	-0.073012
H34	H	1.742036	0.512794	-0.409664
O35	O	1.416861	0.508505	-0.332988
C36	C	1.339893	0.568816	-0.197343
H37	H	1.404618	0.606281	-0.130401
H38	H	1.262263	0.500464	-0.139620
H39	H	1.290558	0.648468	-0.212319
O40	O	1.439152	0.271478	0.084881
C41	C	1.514851	0.357097	0.149721
H42	H	1.601701	0.309624	0.150549
H43	H	1.452521	0.393731	0.264926
H44	H	1.551542	0.437171	0.086123
O45	O	1.704026	0.734785	-0.400829
C46	C	1.710820	0.862979	-0.402387
H47	H	1.622704	0.888356	-0.424636
H48	H	1.804234	0.888944	-0.490256
H49	H	1.711018	0.915299	-0.293533
H50	H	2.005720	0.087441	-0.572403
O51	O	1.682095	-0.028433	0.181387
C52	C	1.730381	-0.088066	0.263569
H53	H	1.730196	-0.022430	0.365521
H54	H	1.834338	-0.115970	0.197726
H55	H	1.665657	-0.174019	0.293914
H56	H	1.378923	0.730228	-0.324302
H57	H	1.634001	0.030840	-0.021215
O58	O	1.474932	0.227311	0.301406
C59	C	1.550631	0.312930	0.366246
H60	H	1.637481	0.265457	0.367074
H61	H	1.488300	0.349563	0.481451
H62	H	1.587322	0.393003	0.302648
