data_functionalizedCrystal
_audit_creation_method	'MofGen! by Chris Wilmer'
_symmetry_space_group_name_H-M	'P1'
_symmetry_Int_Tables_number	1
_symmetry_cell_setting	triclinic
loop_
_symmetry_equiv_pos_as_xyz
  x,y,z
_cell_length_a	19.077105
_cell_length_b	18.101397
_cell_length_c	19.076919
_cell_angle_alpha	92.268541
_cell_angle_beta	90.076224
_cell_angle_gamma	87.716700
loop_
_atom_site_label
_atom_site_type_symbol
_atom_site_fract_x
_atom_site_fract_y
_atom_site_fract_z
Zn1	Zn	1.058295	-0.358273	-0.440399
Zn2	Zn	1.062943	-0.477346	-0.322885
Zn3	Zn	0.945512	-0.348352	-0.318192
Zn4	Zn	0.940765	-0.476900	-0.435638
O5	O	1.001879	-0.415218	-0.379279
O6	O	1.157243	-0.378407	-0.428767
O7	O	1.051297	-0.456270	-0.223932
O8	O	0.960514	-0.246038	-0.334432
O9	O	1.160658	-0.465890	-0.342430
O10	O	1.043375	-0.253327	-0.424216
O11	O	0.965021	-0.361499	-0.220484
O12	O	0.846550	-0.361066	-0.329816
O13	O	0.952423	-0.465128	-0.534601
O14	O	0.843062	-0.455509	-0.416102
O15	O	1.038772	-0.377974	-0.538098
O16	O	1.046694	-0.580917	-0.337814
O17	O	0.956930	-0.580589	-0.420653
C18	C	0.819310	-0.407163	-0.371934
C19	C	0.741205	-0.403735	-0.368808
C20	C	1.001820	-0.607624	-0.379242
C21	C	1.001858	-0.689940	-0.379253
C22	C	0.702717	-0.451365	-0.412194
C23	C	0.629329	-0.448135	-0.409260
C24	C	0.594432	-0.397278	-0.362937
C25	C	0.632925	-0.349643	-0.319549
C26	C	0.706311	-0.352870	-0.322487
C27	C	0.375144	-0.382343	-0.349345
C28	C	0.301752	-0.379121	-0.346409
C29	C	0.298161	-0.477612	-0.436122
C30	C	0.371549	-0.480838	-0.439052
C31	C	0.410036	-0.433200	-0.395667
N32	N	0.519418	-0.393977	-0.359936
N33	N	0.485048	-0.436499	-0.398672
C34	C	1.001945	-0.989038	-0.379320
C35	C	1.058277	-0.957876	-0.327049
C36	C	1.058458	-0.872271	-0.327197
C37	C	1.001902	-0.840652	-0.379286
C38	C	1.018998	-0.875550	-0.454158
C39	C	1.019429	-0.961201	-0.453878
C40	C	0.928348	-0.953502	-0.357355
C41	C	0.928782	-0.867801	-0.355717
C42	C	1.001876	-0.756791	-0.379271
C43	C	1.001972	-1.072899	-0.379340
C44	C	1.185160	-0.423305	-0.386653
C45	C	1.263264	-0.426751	-0.389795
C46	C	0.994550	-0.422608	-0.562558
C47	C	0.991426	-0.425757	-0.640661
C48	C	1.001956	-0.222061	-0.379331
C49	C	1.001989	-0.139750	-0.379354
C50	C	1.034914	-0.381862	-0.679176
C51	C	1.031971	-0.384818	-0.752562
C52	C	0.985543	-0.431674	-0.787431
C53	C	0.942051	-0.475570	-0.748911
C54	C	0.944991	-0.472610	-0.675527
C55	C	0.971926	-0.445389	-1.006712
C56	C	0.968991	-0.448348	-1.080102
C57	C	1.058911	-0.357594	-1.083747
C58	C	1.061850	-0.354641	-1.010361
C59	C	1.018355	-0.398535	-0.971847
N60	N	0.982535	-0.434698	-0.862443
N61	N	1.021359	-0.395507	-0.896837
C62	C	1.009219	-0.407805	-0.196713
C63	C	1.012479	-0.404453	-0.118616
H64	H	0.731125	-0.492781	-0.449913
Br65	Br	0.952483	-0.841643	-0.521033
Br66	Br	1.107481	-0.844757	-0.485008
Br67	Br	0.879036	-0.539156	-0.796233
H68	H	0.936520	-0.481142	-0.975363
Br69	Br	0.905975	-0.511939	-1.127424
Br70	Br	0.577098	-0.512777	-0.468146
Br71	Br	0.885965	-0.532179	-0.623255
H72	H	0.604506	-0.308232	-0.281835
H73	H	1.048084	-0.975737	-0.271467
H74	H	0.915837	-0.844664	-0.300602
H75	H	0.406471	-0.343559	-0.314013
H76	H	0.737648	-0.314081	-0.287161
H77	H	0.399958	-0.522253	-0.476772
Br78	Br	0.245926	-0.542262	-0.494995
H79	H	1.048108	-0.848527	-0.271774
H80	H	0.886413	-0.973600	-0.395390
Br81	Br	1.148753	-0.998514	-0.351401
Br82	Br	1.117935	-0.298026	-1.136019
Br83	Br	0.855461	-0.831525	-0.414126
Br84	Br	0.254392	-0.310104	-0.283530
H85	H	1.113036	-0.854663	-0.341966
H86	H	1.073136	-0.984166	-0.472138
H87	H	1.067385	-0.349076	-0.783918
H88	H	0.980034	-0.981971	-0.494328
Br89	Br	0.901464	-0.984674	-0.267677
Br90	Br	1.097932	-0.318276	-0.631861
H91	H	1.099658	-0.316489	-0.981976
