data_functionalizedCrystal
_audit_creation_method	'MofGen! by Chris Wilmer'
_symmetry_space_group_name_H-M	'P1'
_symmetry_Int_Tables_number	1
_symmetry_cell_setting	triclinic
loop_
_symmetry_equiv_pos_as_xyz
  x,y,z
_cell_length_a	10.686220
_cell_length_b	12.645330
_cell_length_c	10.685880
_cell_angle_alpha	94.340937
_cell_angle_beta	89.641569
_cell_angle_gamma	94.399208
loop_
_atom_site_label
_atom_site_type_symbol
_atom_site_fract_x
_atom_site_fract_y
_atom_site_fract_z
Zn1	Zn	1.972238	-0.330920	-0.562382
Zn2	Zn	1.956011	-0.495766	-0.352635
Zn3	Zn	1.746367	-0.333080	-0.368705
Zn4	Zn	1.762427	-0.522712	-0.578407
O5	O	1.859261	-0.420620	-0.465532
O6	O	2.145629	-0.340606	-0.521127
O7	O	1.914690	-0.463813	-0.179225
O8	O	1.776399	-0.184443	-0.394416
O9	O	2.133707	-0.461718	-0.367026
O10	O	1.942345	-0.182856	-0.536710
O11	O	1.760665	-0.344288	-0.191032
O12	O	1.572954	-0.370416	-0.409954
O13	O	1.803771	-0.507643	-0.751823
O14	O	1.584754	-0.509738	-0.564022
O15	O	1.957918	-0.366734	-0.740050
O16	O	1.930263	-0.647691	-0.382565
O17	O	1.788037	-0.667488	-0.548439
C18	C	1.533338	-0.443236	-0.490472
C19	C	1.393908	-0.452939	-0.501171
C20	C	1.859168	-0.696055	-0.465522
C21	C	1.859246	-0.813881	-0.465550
C22	C	1.770195	-0.993934	-0.570170
C23	C	1.769677	-0.871390	-0.569895
C24	C	1.813318	-0.853114	-0.336088
C25	C	1.812774	-0.975788	-0.336723
C26	C	1.994734	-0.973753	-0.489276
C27	C	1.994142	-0.851374	-0.492229
C28	C	2.186457	-0.397915	-0.440496
C29	C	2.325888	-0.388240	-0.429828
C30	C	1.884446	-0.439953	-0.792725
C31	C	1.895178	-0.448192	-0.932155
C32	C	1.859390	-0.144108	-0.465568
C33	C	1.859446	-0.026275	-0.465583
C34	C	1.834246	-0.401280	-0.139607
C35	C	1.823757	-0.392725	-0.000159
H36	H	1.799587	-0.845499	-0.666208
H37	H	1.715090	-0.827437	-0.314241
H38	H	1.345469	-0.515763	-0.570433
H39	H	1.964546	-0.501988	-0.980607
H40	H	1.799924	-1.027642	-0.666821
H41	H	1.754389	-0.338938	-0.951714
H42	H	1.669585	-0.847657	-0.555000
H43	H	1.374321	-0.325427	-0.360562
H44	H	1.670739	-1.030310	-0.555515
H45	H	1.713575	-1.009515	-0.315472
H46	H	1.874410	-0.996321	-0.256687
H47	H	1.875814	-0.814803	-0.256479
H48	H	2.061353	-0.993535	-0.412977
H49	H	2.034649	-1.007954	-0.581539
H50	H	2.064952	-0.811560	-0.420793
H51	H	2.028594	-0.826124	-0.587456
