data_functionalizedCrystal
_audit_creation_method	'MofGen! by Chris Wilmer'
_symmetry_space_group_name_H-M	'P1'
_symmetry_Int_Tables_number	1
_symmetry_cell_setting	triclinic
loop_
_symmetry_equiv_pos_as_xyz
  x,y,z
_cell_length_a	21.295417
_cell_length_b	16.120530
_cell_length_c	16.120297
_cell_angle_alpha	89.871860
_cell_angle_beta	92.867002
_cell_angle_gamma	92.874222
loop_
_atom_site_label
_atom_site_type_symbol
_atom_site_fract_x
_atom_site_fract_y
_atom_site_fract_z
Zn1	Zn	-0.318915	-1.247391	-0.534523
Zn2	Zn	-0.419125	-1.254326	-0.395453
Zn3	Zn	-0.308278	-1.115383	-0.388443
Zn4	Zn	-0.418545	-1.108282	-0.527422
O5	O	-0.366216	-1.181345	-0.461460
O6	O	-0.336903	-1.364676	-0.521981
O7	O	-0.400212	-1.241769	-0.278158
O8	O	-0.221604	-1.132963	-0.407859
O9	O	-0.410526	-1.369771	-0.419806
O10	O	-0.229419	-1.229949	-0.515184
O11	O	-0.318773	-1.139688	-0.273008
O12	O	-0.318211	-0.998075	-0.400973
O13	O	-0.409538	-1.120862	-0.644729
O14	O	-0.399224	-0.992859	-0.503081
O15	O	-0.336340	-1.223064	-0.649946
O16	O	-0.507133	-1.234884	-0.412921
O17	O	-0.506707	-1.127586	-0.509878
C18	C	-0.357501	-0.965295	-0.450496
C19	C	-0.353788	-0.872866	-0.445825
C20	C	-0.529761	-1.181239	-0.461409
C21	C	-0.599731	-1.181268	-0.461418
C22	C	-0.374061	-1.170397	-0.678353
C23	C	-0.377404	-1.165731	-0.770780
C24	C	-0.632802	-1.237182	-0.410990
C25	C	-0.698547	-1.237220	-0.411010
C26	C	-0.731217	-1.181329	-0.461450
C27	C	-0.698138	-1.125411	-0.511889
C28	C	-0.632395	-1.125380	-0.511873
N29	N	-0.831783	-1.108264	-0.464098
N30	N	-0.894236	-1.108296	-0.464108
C31	C	-0.929297	-1.181420	-0.461503
N32	N	-0.899546	-1.254514	-0.458870
N33	N	-0.837087	-1.254481	-0.458855
C34	C	-0.802504	-1.181357	-0.461473
C35	C	-1.033657	-1.237380	-0.411094
C36	C	-1.099403	-1.237419	-0.411120
C37	C	-1.098992	-1.125603	-0.511994
C38	C	-1.033248	-1.125571	-0.511973
C39	C	-1.000584	-1.181459	-0.461518
C40	C	-0.202033	-1.181474	-0.461531
C41	C	-0.132068	-1.181529	-0.461562
C42	C	-0.374966	-1.398240	-0.472468
C43	C	-0.378694	-1.490667	-0.477159
C44	C	-0.346996	-0.703638	-0.437305
C45	C	-0.385485	-0.659891	-0.485677
C46	C	-0.381705	-0.565726	-0.480936
C47	C	-0.350774	-0.797811	-0.442045
C48	C	-0.383493	-1.157183	-0.940004
C49	C	-0.348757	-1.205672	-0.983777
C50	C	-0.352144	-1.200915	-1.077938
C51	C	-0.380106	-1.161938	-0.845834
C52	C	-0.358358	-1.192299	-0.245413
C53	C	-0.354844	-1.197126	-0.152995
H54	H	-0.725479	-1.282755	-0.369945
H55	H	-0.724742	-1.079906	-0.552959
C56	C	-1.135783	-1.298932	-0.355645
C57	C	-1.177219	-1.266269	-0.288521
C58	C	-1.213598	-1.327783	-0.233044
C59	C	-1.208542	-1.421959	-0.244691
C60	C	-1.167104	-1.454627	-0.311818
C61	C	-1.130724	-1.393113	-0.367295
H62	H	-1.180964	-1.196550	-0.279896
H63	H	-1.244274	-1.303600	-0.183352
H64	H	-1.235472	-1.467495	-0.203624
H65	H	-1.163359	-1.524346	-0.320443
H66	H	-1.100049	-1.417296	-0.416987
C67	C	-0.305148	-1.266587	-0.938873
C68	C	-0.314524	-1.360527	-0.955529
C69	C	-0.270921	-1.421441	-0.910621
C70	C	-0.217941	-1.388416	-0.849056
C71	C	-0.208563	-1.294471	-0.832396
C72	C	-0.252167	-1.233556	-0.877305
H73	H	-0.353745	-1.384978	-1.001106
H74	H	-0.277863	-1.490985	-0.922954
H75	H	-0.185663	-1.433508	-0.815812
H76	H	-0.169342	-1.270019	-0.786820
H77	H	-0.245224	-1.164012	-0.864972
C78	C	-1.134921	-1.064119	-0.567478
C79	C	-1.207235	-1.064148	-0.567498
C80	C	-1.243167	-1.002664	-0.622985
C81	C	-1.206784	-0.941151	-0.678452
C82	C	-1.134466	-0.941120	-0.678434
C83	C	-1.098534	-1.002604	-0.622947
H84	H	-1.234171	-1.109686	-0.526436
H85	H	-1.296702	-1.002687	-0.622997
H86	H	-1.233383	-0.895636	-0.719526
H87	H	-1.107529	-0.895582	-0.719496
H88	H	-1.044999	-1.002581	-0.622934
H89	H	-0.415774	-1.112102	-0.973246
H90	H	-0.606210	-1.282691	-0.369908
H91	H	-0.605468	-1.079847	-0.552939
C92	C	-0.433841	-0.704823	-0.546429
C93	C	-0.504673	-0.693279	-0.538872
C94	C	-0.553029	-0.738215	-0.599619
C95	C	-0.530553	-0.794695	-0.667923
C96	C	-0.459718	-0.806242	-0.675483
C97	C	-0.411361	-0.761306	-0.614736
H98	H	-0.521315	-0.651466	-0.488307
H99	H	-0.605467	-0.729666	-0.594022
H100	H	-0.566350	-0.827960	-0.712892
H101	H	-0.443076	-0.848055	-0.726048
H102	H	-0.358924	-0.769855	-0.620332
H103	H	-1.007061	-1.282890	-0.370013
C104	C	-0.996866	-1.064055	-0.567439
C105	C	-0.947792	-1.000599	-0.528030
C106	C	-0.911411	-0.939082	-0.583502
C107	C	-0.924104	-0.941020	-0.678382
C108	C	-0.973180	-1.004478	-0.717795
C109	C	-1.009561	-1.065996	-0.662323
H110	H	-0.938394	-0.999162	-0.457790
H111	H	-0.875082	-0.892106	-0.554325
H112	H	-0.897173	-0.895481	-0.719445
H113	H	-0.982578	-1.005915	-0.788035
H114	H	-1.045890	-1.112972	-0.691500
C115	C	-0.298652	-0.658704	-0.376545
C116	C	-0.294899	-0.563173	-0.371829
C117	C	-0.246559	-0.518228	-0.311068
C118	C	-0.201971	-0.568814	-0.255023
C119	C	-0.205722	-0.664351	-0.259737
C120	C	-0.254062	-0.709296	-0.320498
H121	H	-0.327907	-0.525721	-0.413319
H122	H	-0.243782	-0.447505	-0.307579
H123	H	-0.166186	-0.535543	-0.210044
H124	H	-0.172714	-0.701802	-0.218247
H125	H	-0.256839	-0.780019	-0.323987
