data_functionalizedCrystal
_audit_creation_method	'MofGen! by Chris Wilmer'
_symmetry_space_group_name_H-M	'P1'
_symmetry_Int_Tables_number	1
_symmetry_cell_setting	triclinic
loop_
_symmetry_equiv_pos_as_xyz
  x,y,z
_cell_length_a	19.805407
_cell_length_b	12.827892
_cell_length_c	19.805399
_cell_angle_alpha	90.022529
_cell_angle_beta	90.017803
_cell_angle_gamma	90.012708
loop_
_atom_site_label
_atom_site_type_symbol
_atom_site_fract_x
_atom_site_fract_y
_atom_site_fract_z
Zn1	Zn	1.034787	-0.416132	0.382711
Zn2	Zn	1.534787	0.083868	0.882711
Zn3	Zn	1.034724	-0.590887	0.269533
Zn4	Zn	1.534724	-0.090887	0.769533
Zn5	Zn	0.921602	-0.416153	0.269540
Zn6	Zn	1.421602	0.083847	0.769540
Zn7	Zn	0.921587	-0.590824	0.382683
Zn8	Zn	1.421587	-0.090824	0.882683
O9	O	0.978175	-0.503499	0.326117
O10	O	1.478175	-0.003499	0.826117
O11	O	1.129496	-0.439332	0.367707
O12	O	1.629496	0.060668	0.867707
O13	O	1.019698	-0.567744	0.174817
O14	O	1.519698	-0.067744	0.674817
O15	O	0.936649	-0.269914	0.284566
O16	O	1.436649	0.230086	0.784566
O17	O	1.129449	-0.567724	0.284556
O18	O	1.629449	-0.067724	0.784556
O19	O	1.019806	-0.269899	0.367713
O20	O	1.519806	0.230101	0.867713
O21	O	0.936588	-0.439367	0.174822
O22	O	1.436588	0.060633	0.674822
O23	O	0.826884	-0.439305	0.284539
O24	O	1.326884	0.060695	0.784539
O25	O	0.936624	-0.567615	0.477404
O26	O	1.436624	-0.067615	0.977404
O27	O	0.826873	-0.567635	0.367666
O28	O	1.326873	-0.067635	0.867666
O29	O	1.019792	-0.439270	0.477424
O30	O	1.519792	0.060730	0.977424
O31	O	1.019684	-0.737115	0.284528
O32	O	1.519684	-0.237115	0.784528
O33	O	0.936563	-0.737068	0.367659
O34	O	1.436563	-0.237068	0.867659
C35	C	0.802319	-0.503466	0.326100
C36	C	1.302319	-0.003466	0.826100
C37	C	0.727087	-0.503477	0.326109
C38	C	1.227087	-0.003477	0.826109
C39	C	0.691768	-0.436742	0.369472
C40	C	1.191768	0.063258	0.869472
C41	C	0.621080	-0.436747	0.369475
C42	C	1.121080	0.063253	0.869475
C43	C	0.585712	-0.503494	0.326118
C44	C	1.085712	-0.003494	0.826118
C45	C	0.621036	-0.570233	0.282750
C46	C	1.121036	-0.070233	0.782750
C47	C	0.691723	-0.570221	0.282744
C48	C	1.191723	-0.070221	0.782744
C49	C	0.335963	-0.570280	0.282771
C50	C	0.835963	-0.070280	0.782771
C51	C	0.265271	-0.570288	0.282781
C52	C	0.765271	-0.070288	0.782781
C53	C	0.265319	-0.436806	0.369501
C54	C	0.765319	0.063194	0.869501
C55	C	0.336006	-0.436794	0.369496
C56	C	0.836006	0.063206	0.869496
C57	C	0.371324	-0.503528	0.326126
C58	C	0.871324	-0.003528	0.826126
C59	C	0.447973	-0.503520	0.326123
C60	C	0.947973	-0.003520	0.826123
C61	C	0.509065	-0.503509	0.326124
C62	C	1.009065	-0.003509	0.826124
C63	C	0.978133	-0.775009	0.326105
C64	C	1.478133	-0.275009	0.826105
C65	C	0.978177	-0.891162	0.326122
C66	C	1.478177	-0.391162	0.826122
C67	C	1.019356	-0.942935	0.285032
C68	C	1.519356	-0.442935	0.785032
C69	C	1.019403	-1.062986	0.285049
C70	C	1.519403	-0.562986	0.785049
C71	C	1.154718	-0.503533	0.326134
C72	C	1.654718	-0.003533	0.826134
C73	C	1.229950	-0.503547	0.326141
C74	C	1.729950	-0.003547	0.826141
C75	C	0.978213	-0.503433	0.502660
C76	C	1.478213	-0.003433	1.002660
C77	C	0.978229	-0.503405	0.577892
C78	C	1.478229	-0.003405	1.077892
C79	C	0.978236	-0.230929	0.326144
C80	C	1.478236	0.269071	0.826144
C81	C	0.978262	-0.114776	0.326155
C82	C	1.478262	0.385224	0.826155
C83	C	0.978176	-0.503489	0.150261
C84	C	1.478176	-0.003489	0.650261
C85	C	0.978291	-0.503223	0.075029
C86	C	1.478291	-0.003223	0.575029
C87	C	1.021536	-0.436572	0.613248
C88	C	1.521536	0.063428	1.113248
C89	C	1.021543	-0.436542	0.683936
C90	C	1.521543	0.063458	1.183936
C91	C	0.978246	-0.503350	0.719267
C92	C	1.478246	-0.003350	1.219267
C93	C	0.934935	-0.570186	0.683906
C94	C	1.434935	-0.070186	1.183906
C95	C	0.934925	-0.570210	0.613219
C96	C	1.434925	-0.070210	1.113219
C97	C	0.934973	-0.570089	0.968980
C98	C	1.434973	-0.070089	1.468980
C99	C	0.934988	-0.570061	1.039672
C100	C	1.434988	-0.070061	1.539672
C101	C	1.021591	-0.436420	1.039697
C102	C	1.521591	0.063580	1.539697
C103	C	1.021581	-0.436445	0.969010
C104	C	1.521581	0.063555	1.469010
C105	C	0.978268	-0.503276	0.933655
C106	C	1.478268	-0.003276	1.433655
C107	C	0.978260	-0.503307	0.857006
C108	C	1.478260	-0.003307	1.357006
C109	C	0.978257	-0.503326	0.795915
C110	C	1.478257	-0.003326	1.295915
H111	H	0.720479	-0.624563	0.247433
H112	H	1.220479	-0.124563	0.747433
F113	F	1.065399	-0.884708	0.239037
F114	F	1.565399	-0.384708	0.739037
F115	F	1.067622	-0.365470	0.575652
F116	F	1.567622	0.134530	1.075652
H117	H	0.364799	-0.382446	0.404804
H118	H	0.864799	0.117554	0.904804
H119	H	1.054656	-1.107509	0.249869
H120	H	1.554656	-0.607509	0.749869
H121	H	0.364710	-0.624620	0.247457
H122	H	0.864710	-0.124620	0.747457
F123	F	0.227631	-0.641331	0.236631
F124	F	0.727631	-0.141331	0.736631
F125	F	0.888903	-0.641171	1.077273
F126	F	1.388903	-0.141171	1.577273
H127	H	0.899680	-0.624579	0.712679
H128	H	1.399680	-0.124579	1.212679
H129	H	0.943002	-1.070260	0.361333
H130	H	1.443002	-0.570260	0.861333
H131	H	0.899715	-0.624522	0.940203
H132	H	1.399715	-0.124522	1.440203
H133	H	0.236555	-0.382464	0.404813
H134	H	0.736555	0.117536	0.904813
H135	H	0.592234	-0.624574	0.247444
H136	H	1.092234	-0.124574	0.747444
F137	F	0.932142	-0.949389	0.372125
F138	F	1.432142	-0.449389	0.872125
H139	H	1.056809	-0.382123	0.712720
H140	H	1.556809	0.117877	1.212720
H141	H	1.056840	-0.382046	0.940246
H142	H	1.556840	0.117954	1.440246
F143	F	1.067687	-0.365289	1.077329
F144	F	1.567687	0.134711	1.577329
H145	H	0.720560	-0.382391	0.404781
H146	H	1.220560	0.117609	0.904781
F147	F	0.583493	-0.365720	0.415629
F148	F	1.083493	0.134280	0.915629
H149	H	0.899654	-0.624622	0.584433
H150	H	1.399654	-0.124622	1.084433
