data_functionalizedCrystal
_audit_creation_method	'MofGen! by Chris Wilmer'
_symmetry_space_group_name_H-M	'P1'
_symmetry_Int_Tables_number	1
_symmetry_cell_setting	triclinic
loop_
_symmetry_equiv_pos_as_xyz
  x,y,z
_cell_length_a	10.654543
_cell_length_b	6.394989
_cell_length_c	9.730223
_cell_angle_alpha	89.998669
_cell_angle_beta	90.003136
_cell_angle_gamma	94.510135
loop_
_atom_site_label
_atom_site_type_symbol
_atom_site_fract_x
_atom_site_fract_y
_atom_site_fract_z
O1	O	-1.670951	0.293371	-0.114276
O2	O	-1.305768	0.321343	-0.114279
O3	O	-1.493543	0.003367	-0.114278
O4	O	-1.483176	0.611346	-0.114276
O5	O	-1.493531	0.003359	0.114301
O6	O	-1.305756	0.321334	0.114301
O7	O	-1.670939	0.293362	0.114304
Zn8	Zn	-1.488345	0.307347	0.150595
Zn9	Zn	-1.488362	0.307358	-0.150569
O10	O	-1.483164	0.611337	0.114304
C11	C	-1.258942	0.319288	0.000011
C12	C	-1.119433	0.313152	0.000010
C13	C	-0.910840	0.494589	0.000019
C14	C	-1.041922	0.500370	0.000009
C15	C	-1.065857	0.120141	0.000007
C16	C	-0.934777	0.114362	0.000007
C17	C	-0.717764	0.295427	0.000016
C18	C	-0.857271	0.301593	0.000021
C19	C	-1.485220	0.689193	0.000008
C20	C	-1.491484	0.925518	0.000004
N21	N	-1.488343	0.307338	0.356131
N22	N	-1.488373	0.307351	-0.356106
C23	C	-1.571520	0.166598	0.428057
C24	C	-1.571532	0.166599	0.571940
C25	C	-1.405188	0.448097	0.571958
C26	C	-1.405170	0.448085	0.428078
H27	H	-0.891162	-0.042808	0.000004
H28	H	-1.639243	0.051990	0.369481
H29	H	-1.085530	0.657527	0.000007
H30	H	-1.337432	0.562693	0.369512
H31	H	-1.639261	0.051993	0.630498
H32	H	-0.847738	0.647045	0.000029
C33	C	-1.151124	-0.085801	0.000016
N34	N	-1.215347	-0.240921	0.000032
H35	H	-1.337472	0.562693	0.630552
