data_functionalizedCrystal
_audit_creation_method	'MofGen! by Chris Wilmer'
_symmetry_space_group_name_H-M	'P1'
_symmetry_Int_Tables_number	1
_symmetry_cell_setting	triclinic
loop_
_symmetry_equiv_pos_as_xyz
  x,y,z
_cell_length_a	23.532407
_cell_length_b	23.532407
_cell_length_c	22.610064
_cell_angle_alpha	90.000603
_cell_angle_beta	89.997161
_cell_angle_gamma	97.151322
loop_
_atom_site_label
_atom_site_type_symbol
_atom_site_fract_x
_atom_site_fract_y
_atom_site_fract_z
O1	O	0.755263	-0.069127	-0.049117
O2	O	0.589400	-0.079130	-0.049135
O3	O	0.677333	0.008803	-0.049114
O4	O	0.667330	-0.157060	-0.049137
O5	O	0.677318	0.008790	0.049255
O6	O	0.589385	-0.079143	0.049234
O7	O	0.755248	-0.069140	0.049252
Zn8	Zn	0.672314	-0.074144	0.064862
Zn9	Zn	0.672334	-0.074127	-0.064744
O10	O	0.667315	-0.157073	0.049232
C11	C	0.568176	-0.078882	0.000048
C12	C	0.504959	-0.078116	0.000041
C13	C	0.677071	0.030013	0.000072
C14	C	0.676305	0.093230	0.000076
C15	C	0.105856	-0.125350	0.000061
C16	C	0.046456	-0.124638	0.000065
O17	O	0.009711	-0.168424	0.000081
N18	N	0.023830	-0.072362	0.000071
C19	C	0.060607	-0.020794	0.000080
O20	O	0.035908	0.023737	0.000086
C21	C	0.120006	-0.021506	0.000080
C22	C	0.142629	-0.073785	0.000068
C23	C	0.128479	-0.177625	0.000050
C24	C	0.187876	-0.178336	0.000045
C25	C	0.224649	-0.126772	0.000052
C26	C	0.202025	-0.074497	0.000063
C27	C	0.156783	0.030062	0.000093
C28	C	0.216185	0.029345	0.000094
C29	C	0.238808	-0.022934	0.000082
C30	C	0.298194	-0.023643	0.000065
N31	N	0.320820	-0.075920	0.000059
C32	C	0.284048	-0.127484	0.000052
C33	C	-0.064135	-0.019302	0.000080
C34	C	-0.123533	-0.018589	0.000075
C35	C	-0.137680	-0.122434	0.000061
C36	C	-0.078281	-0.123146	0.000062
C37	C	-0.041509	-0.071578	0.000074
C38	C	0.408784	-0.128974	0.000042
C39	C	0.468186	-0.129680	0.000034
C40	C	0.482329	-0.025836	0.000051
C41	C	0.422932	-0.025129	0.000055
C42	C	0.386160	-0.076702	0.000052
O43	O	0.334974	0.020119	0.000052
O44	O	0.308755	-0.172007	0.000054
C45	C	0.776472	-0.069388	0.000069
C46	C	0.839689	-0.070154	0.000071
C47	C	0.667577	-0.178283	0.000045
C48	C	0.668343	-0.241500	0.000036
N49	N	0.672304	-0.074155	0.153314
C50	C	0.723539	0.492333	0.000049
C51	C	0.722827	0.551733	0.000044
O52	O	0.766613	0.588478	0.000027
N53	N	0.670551	0.574359	0.000039
C54	C	0.618983	0.537582	0.000032
O55	O	0.574452	0.562281	0.000027
C56	C	0.619695	0.478182	0.000033
C57	C	0.671974	0.455560	0.000044
C58	C	0.775814	0.469710	0.000060
C59	C	0.776525	0.410313	0.000065
C60	C	0.724961	0.373540	0.000060
C61	C	0.672685	0.396164	0.000050
C62	C	0.568127	0.441406	0.000022
C63	C	0.568844	0.382004	0.000021
C64	C	0.621123	0.359381	0.000033
C65	C	0.621832	0.299995	0.000050
N66	N	0.674109	0.277368	0.000056
C67	C	0.725673	0.314141	0.000061
C68	C	0.617491	0.662324	0.000031
C69	C	0.616778	0.721722	0.000034
C70	C	0.720623	0.735869	0.000045
C71	C	0.721335	0.676470	0.000046
C72	C	0.669767	0.639698	0.000036
C73	C	0.727163	0.189405	0.000073
C74	C	0.727869	0.130003	0.000081
C75	C	0.624025	0.115860	0.000067
C76	C	0.623318	0.175257	0.000062
C77	C	0.674891	0.212029	0.000063
O78	O	0.578070	0.263215	0.000065
O79	O	0.770196	0.289433	0.000058
N80	N	0.672349	-0.074111	-0.153196
C81	C	0.711273	-0.035196	0.561965
C82	C	0.711276	-0.035192	0.623884
O83	O	0.744384	-0.002076	0.655911
N84	N	0.672334	-0.074115	0.654851
C85	C	0.633383	-0.113041	0.623895
O86	O	0.600259	-0.146147	0.655920
C87	C	0.633377	-0.113042	0.561976
C88	C	0.672326	-0.074120	0.531013
C89	C	0.750218	0.003724	0.531001
C90	C	0.750215	0.003719	0.469085
C91	C	0.711268	-0.035206	0.438133
C92	C	0.672323	-0.074125	0.469097
C93	C	0.594424	-0.151965	0.531021
C94	C	0.594422	-0.151962	0.469098
C95	C	0.633370	-0.113040	0.438134
C96	C	0.633374	-0.113054	0.376229
N97	N	0.672316	-0.074131	0.345262
C98	C	0.711263	-0.035207	0.376214
C99	C	0.633396	-0.113035	0.753928
C100	C	0.633403	-0.113037	0.815846
C101	C	0.711296	-0.035187	0.815831
C102	C	0.711291	-0.035188	0.753913
C103	C	0.672338	-0.074112	0.722962
C104	C	0.711255	-0.035220	0.246187
C105	C	0.711251	-0.035230	0.184266
C106	C	0.633357	-0.113078	0.184286
C107	C	0.633363	-0.113071	0.246202
C108	C	0.672314	-0.074137	0.277151
O109	O	0.600281	-0.146152	0.344163
O110	O	0.744376	-0.002101	0.344182
H111	H	0.486602	-0.172255	0.000024
H112	H	0.378851	-0.170970	0.000041
H113	H	0.582043	0.085909	0.000065
O114	O	0.560389	0.746115	0.000030
H115	H	0.557570	0.772836	0.040125
O116	O	0.552412	-0.193946	0.564404
H117	H	0.558952	-0.187416	0.612662
O118	O	0.552411	-0.193948	0.435714
H119	H	0.525335	-0.221013	0.467651
O120	O	0.753273	0.006769	0.279558
H121	H	0.729470	0.034340	0.307766
H122	H	0.781933	0.035423	0.556197
H123	H	0.743008	-0.003492	0.841044
H124	H	0.742969	-0.003535	0.159057
H125	H	0.206289	-0.220908	0.000035
O126	O	0.792216	0.045708	0.435695
H127	H	0.836571	0.038684	0.447580
H128	H	0.601677	-0.144736	0.728731
O129	O	-0.024476	0.036322	0.000088
H130	H	0.002932	0.038489	-0.040002
H131	H	0.575496	0.632386	0.000028
O132	O	0.088821	-0.233245	0.000040
H133	H	0.114541	-0.269709	0.000028
O134	O	0.591357	-0.155050	0.279604
H135	H	0.564273	-0.182115	0.247676
H136	H	-0.059867	-0.165717	0.000055
H137	H	0.526850	0.352066	0.000013
O138	O	-0.147926	0.037800	0.000085
H139	H	-0.174645	0.040622	-0.040008
H140	H	0.743005	-0.003494	0.728706
O141	O	0.522000	0.029776	0.000059
H142	H	0.496294	0.066251	0.000064
H143	H	0.601694	-0.144737	0.841052
H144	H	0.817806	0.499645	0.000061
O145	O	0.511737	0.465794	0.000010
H146	H	0.508935	0.492519	-0.040084
H147	H	0.404512	0.017441	0.000056
H148	H	0.601648	-0.144772	0.159075
H149	H	0.770443	0.111587	0.000092
O150	O	-0.177350	-0.178052	0.000066
H151	H	-0.204756	-0.180206	-0.040023
O152	O	0.782786	0.229061	0.000083
H153	H	0.819252	0.203342	0.000098
H154	H	0.138375	0.072634	0.000103
O155	O	0.255849	0.084966	0.000104
H156	H	0.230134	0.121435	0.000108
O157	O	0.566933	0.199664	0.000052
H158	H	0.531197	0.164111	0.000047
O159	O	0.832912	0.385916	0.000060
H160	H	0.868644	0.421473	0.000053
H161	H	0.763906	0.658056	0.000054
H162	H	0.762610	0.765821	0.000047
