data_functionalizedCrystal
_audit_creation_method	'MofGen! by Chris Wilmer'
_symmetry_space_group_name_H-M	'P1'
_symmetry_Int_Tables_number	1
_symmetry_cell_setting	triclinic
loop_
_symmetry_equiv_pos_as_xyz
  x,y,z
_cell_length_a	14.908571
_cell_length_b	18.050590
_cell_length_c	14.908308
_cell_angle_alpha	86.735264
_cell_angle_beta	89.824947
_cell_angle_gamma	86.714611
loop_
_atom_site_label
_atom_site_type_symbol
_atom_site_fract_x
_atom_site_fract_y
_atom_site_fract_z
Zn1	Zn	1.345312	-0.387560	0.587562
Zn2	Zn	1.353897	-0.505027	0.437196
Zn3	Zn	1.203627	-0.373296	0.428561
Zn4	Zn	1.194925	-0.504144	0.578848
O5	O	1.274440	-0.442507	0.508042
O6	O	1.472277	-0.409481	0.574877
O7	O	1.341198	-0.481952	0.310226
O8	O	1.222470	-0.271267	0.449685
O9	O	1.478585	-0.495784	0.464404
O10	O	1.326566	-0.281747	0.566503
O11	O	1.230795	-0.385170	0.303882
O12	O	1.076646	-0.384314	0.441236
O13	O	1.207640	-0.494280	0.705828
O14	O	1.070253	-0.480448	0.551651
O15	O	1.318128	-0.408626	0.712231
O16	O	1.332761	-0.608830	0.455954
O17	O	1.215964	-0.608182	0.560025
C18	C	1.040824	-0.430738	0.494561
C19	C	0.940881	-0.425722	0.488816
C20	C	0.746477	-0.516542	0.592840
C21	C	0.652572	-0.511831	0.587444
C22	C	0.659162	-0.411588	0.472634
C23	C	0.753068	-0.416298	0.478030
C24	C	0.796722	-0.468778	0.538134
C25	C	0.890630	-0.473491	0.543524
C26	C	0.897218	-0.373245	0.428719
C27	C	0.803312	-0.368535	0.423324
C28	C	1.274373	-0.635454	0.508002
C29	C	1.274425	-0.718003	0.508020
C30	C	1.338059	-0.917789	0.451517
C31	C	1.355286	-0.971896	0.534844
C32	C	1.274474	-0.869138	0.508059
C33	C	1.257337	-0.962119	0.424773
C34	C	1.274523	-1.015126	0.508089
C35	C	1.291740	-0.922161	0.591431
C36	C	1.193756	-0.912375	0.481303
C37	C	1.210949	-0.966460	0.564685
C38	C	1.274448	-0.785037	0.508040
C39	C	1.274549	-1.099225	0.508117
C40	C	1.508969	-0.454322	0.521575
C41	C	1.608911	-0.459357	0.527343
C42	C	1.260956	-0.452946	0.742567
C43	C	1.255209	-0.457394	0.842507
C44	C	1.274531	-0.248808	0.508103
C45	C	1.274570	-0.166266	0.508129
C46	C	1.287924	-0.432058	0.274432
C47	C	1.293845	-0.427409	0.174503
C48	C	1.359460	-0.376544	1.036974
C49	C	1.354064	-0.380721	1.130877
C50	C	1.239016	-0.469921	1.124218
C51	C	1.244412	-0.465744	1.030315
C52	C	1.304638	-0.419055	0.986696
C53	C	1.310038	-0.414882	0.892792
C54	C	1.194986	-0.504077	0.886134
C55	C	1.189590	-0.508254	0.980037
H56	H	0.938137	-0.334354	0.384171
F57	F	1.310828	-0.899143	0.683540
H58	H	1.242821	-0.979829	0.354328
F59	F	1.140688	-0.994234	0.627274
F60	F	0.937089	-0.529345	0.607489
F61	F	1.104531	-0.878401	0.451673
H62	H	0.782022	-0.559276	0.641774
F63	F	1.374136	-0.365194	0.846371
H64	H	1.189983	-0.507933	1.159749
F65	F	1.423564	-0.326862	0.990550
F66	F	0.612686	-0.355732	0.408685
F67	F	1.125496	-0.557940	1.026469
F68	F	1.412413	-0.335475	1.184383
F69	F	0.599100	-0.562667	0.645672
H70	H	0.767756	-0.325806	0.374391
F71	F	1.136644	-0.549330	0.832619
H72	H	1.423568	-0.997875	0.557493
F73	F	1.408358	-0.889847	0.389087
