data_functionalizedCrystal
_audit_creation_method	'MofGen! by Chris Wilmer'
_symmetry_space_group_name_H-M	'P1'
_symmetry_Int_Tables_number	1
_symmetry_cell_setting	triclinic
loop_
_symmetry_equiv_pos_as_xyz
  x,y,z
_cell_length_a	33.428889
_cell_length_b	33.428139
_cell_length_c	33.424847
_cell_angle_alpha	60.004234
_cell_angle_beta	60.008465
_cell_angle_gamma	59.994972
loop_
_atom_site_label
_atom_site_type_symbol
_atom_site_fract_x
_atom_site_fract_y
_atom_site_fract_z
O1	O	0.055565	-0.584504	0.488714
O2	O	0.020982	-0.455083	0.393778
O3	O	0.102943	-0.536959	0.393689
O4	O	-0.026396	-0.502628	0.488803
O5	O	0.130140	-0.509767	0.420792
O6	O	0.048179	-0.427891	0.420881
O7	O	0.082762	-0.557312	0.515817
Cu8	Cu	0.067954	-0.490119	0.470823
Cu9	Cu	0.035790	-0.522276	0.438771
O10	O	0.000801	-0.475436	0.515906
N11	N	0.090577	-0.467504	0.493370
N12	N	0.013171	-0.544895	0.416225
C13	C	0.143377	-0.280390	0.546067
C14	C	0.143515	-0.414755	0.680369
C15	C	0.143392	-0.414735	0.546069
C16	C	0.277766	-0.414702	0.545966
C17	C	0.158177	-0.324719	0.560828
C18	C	0.158255	-0.399967	0.636038
C19	C	0.233434	-0.399936	0.560773
C20	C	0.158186	-0.399955	0.560829
C21	C	0.124540	-0.223964	0.527278
C22	C	0.124565	-0.433545	0.527281
C23	C	0.177014	-0.381145	0.579617
C24	C	0.359814	-0.400540	0.502735
C25	C	0.411105	-0.417624	0.485606
C26	C	0.411136	-0.500620	0.517255
C27	C	0.359845	-0.483534	0.534385
C28	C	0.136887	-0.198305	0.476855
C29	C	0.119761	-0.147011	0.459777
C30	C	0.077945	-0.147038	0.543547
C31	C	0.095072	-0.198332	0.560625
C32	C	0.074134	-0.421169	0.539710
C33	C	0.057023	-0.438269	0.522625
C34	C	0.140770	-0.480120	0.480694
C35	C	0.157883	-0.463020	0.497773
C36	C	0.074339	-0.421208	0.762475
C37	C	0.057288	-0.438323	0.813768
C38	C	0.141075	-0.480183	0.813699
C39	C	0.158125	-0.463069	0.762404
C40	C	0.124756	-0.433580	0.736794
C41	C	0.334186	-0.433494	0.527123
C42	C	-0.173769	-0.597444	0.363037
C43	C	-0.039302	-0.597595	0.228856
C44	C	-0.039496	-0.597587	0.363300
C45	C	-0.039512	-0.731889	0.363237
C46	C	-0.129442	-0.612265	0.348329
C47	C	-0.054138	-0.612351	0.273187
C48	C	-0.054257	-0.687554	0.348440
C49	C	-0.054247	-0.612346	0.348477
C50	C	-0.230191	-0.578579	0.381758
C51	C	-0.020722	-0.578803	0.382168
C52	C	-0.073020	-0.631130	0.329609
C53	C	-0.053713	-0.813916	0.406386
C54	C	-0.036654	-0.865210	0.423504
C55	C	0.046338	-0.865293	0.391984
C56	C	0.029278	-0.813999	0.374865
C57	C	-0.255900	-0.590938	0.432169
C58	C	-0.307191	-0.573786	0.449185
C59	C	-0.307060	-0.531922	0.365377
C60	C	-0.255769	-0.549074	0.348360
C61	C	-0.033081	-0.528377	0.369764
C62	C	-0.016014	-0.511306	0.386922
C63	C	0.025770	-0.595083	0.428877
C64	C	0.008703	-0.612156	0.411725
C65	C	-0.032755	-0.528393	0.146761
C66	C	-0.015585	-0.511324	0.095468
C67	C	0.026262	-0.595106	0.095516
C68	C	0.009094	-0.612174	0.146811
C69	C	-0.020417	-0.578816	0.172432
C70	C	-0.020748	-0.788312	0.382068
N71	N	0.436037	-0.467415	0.493101
O72	O	0.592642	-0.471896	0.376066
O73	O	0.592838	-0.567146	0.505347
O74	O	0.592754	-0.566928	0.423360
O75	O	0.592727	-0.472113	0.458053
O76	O	0.511269	-0.539835	0.450606
O77	O	0.511353	-0.540052	0.532594
O78	O	0.511157	-0.444802	0.403312
Cu79	Cu	0.503815	-0.489954	0.470441
Cu80	Cu	0.600180	-0.521995	0.438219
O81	O	0.511242	-0.445020	0.485300
N82	N	0.667959	-0.544533	0.415554
N83	N	0.090544	-0.122107	0.493359
O84	O	-0.026406	0.034587	0.488773
O85	O	0.102877	0.034627	0.393499
O86	O	0.020848	0.034591	0.393771
O87	O	0.055623	0.034623	0.488500
O88	O	0.048051	-0.046899	0.420925
O89	O	0.130080	-0.046864	0.420653
O90	O	0.000796	-0.046903	0.515927
Cu91	Cu	0.067922	-0.054324	0.470769
Cu92	Cu	0.035752	0.042048	0.438656
O93	O	0.082825	-0.046867	0.515655
N94	N	0.013123	0.109830	0.416068
N95	N	0.090892	-0.467554	0.838649
O96	O	0.086330	-0.584488	0.995334
O97	O	-0.008902	-0.455160	0.995379
O98	O	-0.008679	-0.537172	0.995355
O99	O	0.086107	-0.502475	0.995358
O100	O	0.018452	-0.509990	0.913868
O101	O	0.018230	-0.427978	0.913891
O102	O	0.113461	-0.557306	0.913847
Cu103	Cu	0.068323	-0.490160	0.906429
Cu104	Cu	0.036237	-0.522306	1.002797
O105	O	0.113239	-0.475293	0.913870
N106	N	0.013667	-0.544916	1.070577
C107	C	0.031339	-0.425179	0.394250
C108	C	0.132837	-0.526572	0.394139
C109	C	0.072405	-0.587216	0.515344
C110	C	-0.029093	-0.485823	0.515455
C111	C	0.552119	-0.566716	0.535258
C112	C	0.552016	-0.566447	0.433726
C113	C	0.551873	-0.445232	0.373402
C114	C	0.551980	-0.445502	0.474933
C115	C	0.132731	-0.006013	0.393923
C116	C	0.031182	-0.006158	0.394293
C117	C	-0.029092	-0.006163	0.515469
C118	C	0.072491	-0.006119	0.515133
C119	C	-0.008451	-0.425276	0.954641
C120	C	-0.008170	-0.526833	0.954596
C121	C	0.113010	-0.587190	0.954585
C122	C	0.112735	-0.485627	0.954611
H123	H	0.047163	-0.397193	0.741627
H124	H	0.551811	-0.415327	0.336274
O125	O	0.002908	-0.424970	0.841464
H126	H	-0.006862	-0.404651	0.864837
O127	O	0.021551	-0.375933	0.354752
H128	H	0.047997	-0.358764	0.344332
H129	H	0.087072	-0.886205	0.386121
O130	O	0.551964	-0.406043	0.484760
H131	H	0.552009	-0.420063	0.522660
H132	H	0.079939	-0.006110	0.544893
O133	O	0.552038	-0.605905	0.423893
H134	H	0.552099	-0.639220	0.456983
H135	H	0.079796	-0.624394	0.545162
O136	O	-0.048062	-0.376082	0.954669
H137	H	-0.058457	-0.358972	0.921461
H138	H	0.142514	-0.478200	0.954606
O139	O	0.182042	-0.536254	0.354574
H140	H	0.206046	-0.574146	0.368479
H141	H	0.168250	-0.504186	0.834549
H142	H	-0.037935	-0.534246	0.954563
O143	O	-0.078296	-0.476139	0.555022
H144	H	-0.102297	-0.438244	0.541120
O145	O	0.152614	-0.636390	0.954577
H146	H	0.138761	-0.660424	0.954578
H147	H	0.169783	-0.005775	0.363939
O148	O	0.552189	-0.606329	0.584440
H149	H	0.552206	-0.592473	0.608465
H150	H	0.199181	-0.473148	0.741498
O151	O	0.021322	-0.006164	0.354865
H152	H	-0.016586	-0.006180	0.368903
H153	H	0.047002	-0.397168	0.563734
O154	O	-0.078275	-0.006167	0.555085
H155	H	-0.085229	-0.039385	0.564078
O156	O	0.002631	-0.424927	0.536019
H157	H	-0.014140	-0.438744	0.576461
O158	O	0.176707	-0.511913	0.448868
H159	H	0.214649	-0.517643	0.443095
H160	H	0.198948	-0.473094	0.487648
O161	O	0.332209	-0.519082	0.560683
H162	H	0.342091	-0.546517	0.593964
O163	O	0.438814	-0.554592	0.525091
H164	H	0.412376	-0.574639	0.544934
H165	H	0.338923	-0.359792	0.496821
O166	O	0.438753	-0.382083	0.459301
H167	H	0.428880	-0.354656	0.426013
O168	O	0.168672	-0.225952	0.440889
H169	H	0.148284	-0.216115	0.417552
O170	O	0.133077	-0.119329	0.405390
H171	H	0.156451	-0.145770	0.385072
H172	H	0.085016	-0.219221	0.601683
O173	O	0.046165	-0.119387	0.579512
H174	H	0.040459	-0.145849	0.617444
H175	H	-0.025639	-0.470264	0.074572
H176	H	0.050281	-0.622271	0.074658
O177	O	-0.064578	-0.492414	0.174395
H178	H	-0.070268	-0.454484	0.147926
H179	H	-0.057039	-0.501216	0.345698
O180	O	0.022404	-0.666562	0.174499
H181	H	0.008622	-0.683344	0.164616
O182	O	-0.029255	-0.456918	0.373463
H183	H	-0.052546	-0.436593	0.349991
O184	O	0.022033	-0.666545	0.425097
H185	H	0.045366	-0.686869	0.448528
H186	H	0.056124	-0.793157	0.355062
O187	O	0.057507	-0.631061	0.460758
H188	H	0.091394	-0.654458	0.440440
O189	O	-0.072207	-0.892832	0.449737
H190	H	-0.109861	-0.866354	0.451875
H191	H	-0.094449	-0.793002	0.412253
H192	H	-0.235077	-0.614964	0.459366
O193	O	-0.334926	-0.587115	0.503559
H194	H	-0.308522	-0.610518	0.523922
H195	H	-0.327887	-0.507903	0.338181
H196	H	-0.234840	-0.539009	0.307312
