data_functionalizedCrystal
_audit_creation_method	'MofGen! by Chris Wilmer'
_symmetry_space_group_name_H-M	'P1'
_symmetry_Int_Tables_number	1
_symmetry_cell_setting	triclinic
loop_
_symmetry_equiv_pos_as_xyz
  x,y,z
_cell_length_a	21.295418
_cell_length_b	25.639239
_cell_length_c	21.295411
_cell_angle_alpha	89.980474
_cell_angle_beta	89.956262
_cell_angle_gamma	90.054499
loop_
_atom_site_label
_atom_site_type_symbol
_atom_site_fract_x
_atom_site_fract_y
_atom_site_fract_z
Zn1	Zn	0.962320	-0.207990	-0.356243
Zn2	Zn	1.295653	0.125344	-0.022910
Zn3	Zn	1.628987	0.458677	0.310424
Zn4	Zn	0.962207	-0.295410	-0.250972
Zn5	Zn	1.295541	0.037924	0.082361
Zn6	Zn	1.628874	0.371257	0.415695
Zn7	Zn	0.857043	-0.208014	-0.250953
Zn8	Zn	1.190377	0.125319	0.082381
Zn9	Zn	1.523710	0.458652	0.415714
Zn10	Zn	0.856998	-0.295420	-0.356169
Zn11	Zn	1.190331	0.037913	-0.022835
Zn12	Zn	1.523664	0.371247	0.310498
O13	O	0.909642	-0.251708	-0.303584
O14	O	1.242975	0.081625	0.029749
O15	O	1.576309	0.414958	0.363083
O16	O	1.050395	-0.219572	-0.342318
O17	O	1.383728	0.113762	-0.008984
O18	O	1.717061	0.447095	0.324349
O19	O	0.948229	-0.283822	-0.162880
O20	O	1.281562	0.049511	0.170453
O21	O	1.614896	0.382844	0.503787
O22	O	0.871075	-0.134846	-0.264943
O23	O	1.204408	0.198488	0.068391
O24	O	1.537741	0.531821	0.401724
O25	O	1.050312	-0.283799	-0.264976
O26	O	1.383645	0.049535	0.068358
O27	O	1.716978	0.382868	0.401691
O28	O	0.948421	-0.134828	-0.342299
O29	O	1.281754	0.198506	-0.008965
O30	O	1.615088	0.531839	0.324368
O31	O	0.870965	-0.219613	-0.162866
O32	O	1.204299	0.113720	0.170468
O33	O	1.537632	0.447053	0.503801
O34	O	0.768948	-0.219623	-0.264871
O35	O	1.102281	0.113710	0.068463
O36	O	1.435614	0.447043	0.401796
O37	O	0.870997	-0.283816	-0.444268
O38	O	1.204330	0.049517	-0.110935
O39	O	1.537664	0.382850	0.222399
O40	O	0.768914	-0.283840	-0.342172
O41	O	1.102248	0.049493	-0.008839
O42	O	1.435581	0.382827	0.324494
O43	O	0.948377	-0.219582	-0.444322
O44	O	1.281710	0.113752	-0.110989
O45	O	1.615043	0.447085	0.222344
O46	O	0.948185	-0.368576	-0.264904
O47	O	1.281518	-0.035243	0.068430
O48	O	1.614852	0.298090	0.401763
O49	O	0.870888	-0.368584	-0.342191
O50	O	1.204221	-0.035251	-0.008858
O51	O	1.537554	0.298083	0.324476
C52	C	0.746090	-0.251736	-0.303512
C53	C	1.079424	0.081597	0.029822
C54	C	1.412757	0.414931	0.363155
C55	C	0.676122	-0.251760	-0.303496
C56	C	1.009456	0.081573	0.029838
C57	C	1.342789	0.414906	0.363171
C58	C	0.909536	-0.387551	-0.303555
C59	C	1.242870	-0.054218	0.029778
C60	C	1.576203	0.279116	0.363111
C61	C	0.909548	-0.445665	-0.303564
C62	C	1.242882	-0.112332	0.029769
C63	C	1.576215	0.221002	0.363103
C64	C	0.643255	-0.285242	-0.343686
C65	C	0.976588	0.048091	-0.010353
C66	C	1.309921	0.381424	0.322980
C67	C	0.577512	-0.285229	-0.343715
C68	C	0.910845	0.048104	-0.010381
C69	C	1.244179	0.381437	0.322952
C70	C	0.544640	-0.251740	-0.303541
C71	C	0.877973	0.081593	0.029793
C72	C	1.211306	0.414927	0.363126
C73	C	0.577515	-0.218252	-0.263347
C74	C	0.910849	0.115082	0.069986
C75	C	1.244182	0.448415	0.403320
C76	C	0.643257	-0.218262	-0.263325
C77	C	0.976590	0.115072	0.070009
C78	C	1.309923	0.448405	0.403342
N79	N	0.441365	-0.247648	-0.248483
N80	N	0.774698	0.085686	0.084850
N81	N	1.108031	0.419019	0.418184
N82	N	0.378913	-0.247641	-0.248506
N83	N	0.712246	0.085692	0.084827
N84	N	1.045580	0.419026	0.418160
C85	C	0.346565	-0.251707	-0.303608
C86	C	0.679898	0.081627	0.029726
C87	C	1.013232	0.414960	0.363059
N88	N	0.379028	-0.255789	-0.358686
N89	N	0.712361	0.077544	-0.025353
N90	N	1.045695	0.410877	0.307981
N91	N	0.441485	-0.255799	-0.358662
N92	N	0.774818	0.077535	-0.025328
N93	N	1.108152	0.410868	0.308005
C94	C	0.473354	-0.251725	-0.303561
C95	C	0.806688	0.081608	0.029772
C96	C	1.140021	0.414942	0.363106
C97	C	0.242412	-0.285176	-0.343832
C98	C	0.575745	0.048157	-0.010499
C99	C	0.909079	0.381490	0.322834
C100	C	0.176668	-0.285160	-0.343862
C101	C	0.510002	0.048173	-0.010528
C102	C	0.843335	0.381507	0.322805
C103	C	0.176673	-0.218185	-0.263489
C104	C	0.510006	0.115148	0.069845
C105	C	0.843339	0.448482	0.403178
C106	C	0.242415	-0.218199	-0.263465
C107	C	0.575749	0.115135	0.069868
C108	C	0.909082	0.448468	0.403202
C109	C	0.275281	-0.251697	-0.303636
C110	C	0.608614	0.081636	0.029697
C111	C	0.941948	0.414969	0.363031
C112	C	0.949996	-0.806011	-0.263409
C113	C	1.283329	-0.472678	0.069924
C114	C	1.616662	-0.139345	0.403258
C115	C	0.950020	-0.860616	-0.263418
C116	C	1.283353	-0.527282	0.069916
C117	C	1.616687	-0.193949	0.403249
O118	O	0.984300	-0.888838	-0.229245
O119	O	1.317633	-0.555505	0.104088
O120	O	1.650967	-0.222172	0.437422
N121	N	0.909753	-0.887947	-0.303626
N122	N	1.243086	-0.554614	0.029708
N123	N	1.576419	-0.221281	0.363041
C124	C	0.869463	-0.860672	-0.343833
C125	C	1.202796	-0.527339	-0.010499
C126	C	1.536129	-0.194005	0.322834
O127	O	0.835215	-0.888934	-0.378034
O128	O	1.168548	-0.555600	-0.044701
O129	O	1.501881	-0.222267	0.288632
C130	C	0.869442	-0.806069	-0.343827
C131	C	1.202775	-0.472735	-0.010494
C132	C	1.536109	-0.139402	0.322840
C133	C	0.909708	-0.778740	-0.303612
C134	C	1.243041	-0.445406	0.029722
C135	C	1.576374	-0.112073	0.363055
C136	C	0.990259	-0.778683	-0.223198
C137	C	1.323592	-0.445349	0.110136
C138	C	1.656925	-0.112016	0.443469
C139	C	0.990233	-0.724082	-0.223188
C140	C	1.323567	-0.390749	0.110145
C141	C	1.656900	-0.057415	0.443478
C142	C	0.949945	-0.696810	-0.263391
C143	C	1.283278	-0.363477	0.069942
C144	C	1.616612	-0.030144	0.403276
C145	C	0.909682	-0.724139	-0.303603
C146	C	1.243016	-0.390806	0.029731
C147	C	1.576349	-0.057473	0.363064
C148	C	0.829156	-0.778794	-0.384037
C149	C	1.162489	-0.445461	-0.050703
C150	C	1.495822	-0.112127	0.282630
C151	C	0.829139	-0.724187	-0.384028
C152	C	1.162472	-0.390854	-0.050695
C153	C	1.495805	-0.057520	0.282639
C154	C	0.869404	-0.696858	-0.343812
C155	C	1.202738	-0.363525	-0.010479
C156	C	1.536071	-0.030192	0.322854
C157	C	0.869369	-0.642267	-0.343796
C158	C	1.202702	-0.308934	-0.010463
C159	C	1.536035	0.024400	0.322871
N160	N	0.909636	-0.614935	-0.303588
N161	N	1.242969	-0.281602	0.029746
N162	N	1.576303	0.051731	0.363079
C163	C	0.949924	-0.642207	-0.263385
C164	C	1.283258	-0.308874	0.069948
C165	C	1.616591	0.024460	0.403281
C166	C	0.869510	-0.975343	-0.343842
C167	C	1.202844	-0.642009	-0.010509
C168	C	1.536177	-0.308676	0.322824
C169	C	0.869527	-1.029945	-0.343845
C170	C	1.202861	-0.696611	-0.010512
C171	C	1.536194	-0.363278	0.322821
C172	C	0.950086	-1.029885	-0.263431
C173	C	1.283419	-0.696552	0.069902
C174	C	1.616752	-0.363218	0.403236
C175	C	0.950065	-0.975282	-0.263425
C176	C	1.283398	-0.641948	0.069908
C177	C	1.616732	-0.308615	0.403241
C178	C	0.909778	-0.948011	-0.303634
C179	C	1.243111	-0.614678	0.029699
C180	C	1.576444	-0.281344	0.363032
C181	C	0.949868	-0.527542	-0.263369
C182	C	1.283201	-0.194209	0.069965
C183	C	1.616534	0.139125	0.403298
C184	C	0.949837	-0.472937	-0.263361
C185	C	1.283170	-0.139603	0.069972
C186	C	1.616503	0.193730	0.403305
C187	C	0.869281	-0.473001	-0.343778
C188	C	1.202614	-0.139668	-0.010445
C189	C	1.535948	0.193665	0.322889
C190	C	0.869309	-0.527602	-0.343783
C191	C	1.202642	-0.194269	-0.010450
C192	C	1.535976	0.139065	0.322883
C193	C	0.909607	-0.554871	-0.303577
C194	C	1.242941	-0.221538	0.029757
C195	C	1.576274	0.111796	0.363090
O196	O	0.835108	-0.614010	-0.377953
O197	O	1.168441	-0.280676	-0.044620
O198	O	1.501775	0.052657	0.288714
O199	O	0.984172	-0.613939	-0.229195
O200	O	1.317506	-0.280605	0.104138
O201	O	1.650839	0.052728	0.437471
C202	C	1.073832	-0.251681	-0.303657
C203	C	1.407166	0.081652	0.029676
C204	C	1.740499	0.414985	0.363010
C205	C	1.143801	-0.251670	-0.303688
C206	C	1.477134	0.081664	0.029645
C207	C	1.810467	0.414997	0.362978
C208	C	0.909694	-0.251697	-0.467774
C209	C	1.243028	0.081636	-0.134441
C210	C	1.576361	0.414969	0.198892
C211	C	0.909717	-0.251693	-0.537743
C212	C	1.243050	0.081641	-0.204409
C213	C	1.576383	0.414974	0.128924
C214	C	0.909766	-0.115335	-0.303627
C215	C	1.243099	0.217998	0.029707
C216	C	1.576432	0.551331	0.363040
C217	C	0.909818	-0.057221	-0.303645
C218	C	1.243151	0.276112	0.029688
C219	C	1.576485	0.609445	0.363022
C220	C	0.950007	-0.218244	-0.570639
C221	C	1.283340	0.115089	-0.237305
C222	C	1.616673	0.448423	0.096028
C223	C	0.950006	-0.218221	-0.636381
C224	C	1.283339	0.115112	-0.303048
C225	C	1.616672	0.448445	0.030286
C226	C	0.909721	-0.251657	-0.669225
C227	C	1.243055	0.081677	-0.335892
C228	C	1.576388	0.415010	-0.002558
C229	C	0.869424	-0.285108	-0.636321
C230	C	1.202757	0.048226	-0.302988
C231	C	1.536090	0.381559	0.030346
C232	C	0.869421	-0.285126	-0.570580
C233	C	1.202755	0.048208	-0.237246
C234	C	1.536088	0.381541	0.096087
N235	N	0.904857	-0.297396	-0.772441
N236	N	1.238190	0.035937	-0.439108
N237	N	1.571524	0.369271	-0.105774
N238	N	0.904863	-0.297377	-0.834892
N239	N	1.238196	0.035956	-0.501559
N240	N	1.571530	0.369289	-0.168226
C241	C	0.909725	-0.251604	-0.867300
C242	C	1.243059	0.081730	-0.533967
C243	C	1.576392	0.415063	-0.200633
N244	N	0.914594	-0.205848	-0.834897
N245	N	1.247927	0.127485	-0.501563
N246	N	1.581261	0.460818	-0.168230
N247	N	0.914591	-0.205867	-0.772440
N248	N	1.247925	0.127466	-0.439106
N249	N	1.581258	0.460799	-0.105773
C250	C	0.909719	-0.251641	-0.740511
C251	C	1.243053	0.081693	-0.407177
C252	C	1.576386	0.415026	-0.073844
C253	C	0.950017	-0.218128	-0.971482
C254	C	1.283350	0.115206	-0.638148
C255	C	1.616683	0.448539	-0.304815
C256	C	0.950011	-0.218104	-1.037225
C257	C	1.283345	0.115229	-0.703892
C258	C	1.616678	0.448562	-0.370559
C259	C	0.869433	-0.284995	-1.037164
C260	C	1.202766	0.048338	-0.703831
C261	C	1.536099	0.381672	-0.370497
C262	C	0.869435	-0.285014	-0.971422
C263	C	1.202768	0.048320	-0.638088
C264	C	1.536101	0.381653	-0.304755
C265	C	0.909730	-0.251581	-0.938584
C266	C	1.243063	0.081752	-0.605251
C267	C	1.576397	0.415086	-0.271918
C268	C	0.909626	-0.251682	-0.140032
C269	C	1.242960	0.081652	0.193301
C270	C	1.576293	0.414985	0.526634
C271	C	0.909726	-0.251539	-0.070065
C272	C	1.243059	0.081794	0.263269
C273	C	1.576393	0.415128	0.596602
H274	H	0.670010	-0.312519	-0.376398
H275	H	1.003343	0.020815	-0.043064
H276	H	1.336676	0.354148	0.290269
H277	H	0.149909	-0.190915	-0.230781
H278	H	0.483242	0.142419	0.102552
H279	H	0.816575	0.475752	0.435885
N280	N	0.676843	-0.184069	-0.222265
N281	N	1.010176	0.149264	0.111069
N282	N	1.343510	0.482598	0.444402
N283	N	0.735540	-0.184086	-0.222247
N284	N	1.068873	0.149247	0.111087
N285	N	1.402207	0.482580	0.444420
H286	H	0.759263	-0.159938	-0.193247
H287	H	1.092596	0.173395	0.140087
H288	H	1.425930	0.506728	0.473420
N289	N	0.543939	-0.319441	-0.384766
N290	N	0.877272	0.013892	-0.051433
N291	N	1.210605	0.347225	0.281900
N292	N	0.551211	-0.367682	-0.380475
N293	N	0.884545	-0.034349	-0.047142
N294	N	1.217878	0.298985	0.286192
H295	H	0.527502	-0.391846	-0.409467
H296	H	0.860835	-0.058512	-0.076133
H297	H	1.194169	0.274821	0.257200
H298	H	0.836733	-1.052191	-0.376587
H299	H	1.170066	-0.718858	-0.043254
H300	H	1.503400	-0.385525	0.290080
H301	H	0.836630	-0.312254	-0.944637
H302	H	1.169963	0.021079	-0.611304
H303	H	1.503296	0.354412	-0.277971
N304	N	0.991169	-0.183941	-1.070840
N305	N	1.324502	0.149392	-0.737507
N306	N	1.657835	0.482725	-0.404173
N307	N	0.991164	-0.183928	-1.129537
N308	N	1.324497	0.149405	-0.796203
N309	N	1.657831	0.482739	-0.462870
H310	H	1.020232	-0.159800	-1.153279
H311	H	1.353566	0.173533	-0.819946
H312	H	1.686899	0.506866	-0.486612
H313	H	0.982813	-0.190981	-0.663170
H314	H	1.316147	0.142353	-0.329837
H315	H	1.649480	0.475686	0.003496
H316	H	0.982684	-0.549738	-0.230630
H317	H	1.316017	-0.216405	0.102703
H318	H	1.649350	0.116929	0.436037
H319	H	0.269173	-0.312450	-0.376545
H320	H	0.602506	0.020883	-0.043212
H321	H	0.935839	0.354216	0.290121
N322	N	0.828275	-0.319303	-0.536973
N323	N	1.161608	0.014031	-0.203640
N324	N	1.494942	0.347364	0.129693
N325	N	0.850393	-0.352628	-0.500307
N326	N	1.183727	-0.019294	-0.166974
N327	N	1.517060	0.314039	0.166359
H328	H	0.821334	-0.376767	-0.476571
H329	H	1.154668	-0.043433	-0.143238
H330	H	1.488001	0.289900	0.190096
N331	N	0.828272	-0.319142	-1.070703
N332	N	1.161605	0.014192	-0.737369
N333	N	1.494939	0.347525	-0.404036
N334	N	0.788174	-0.300742	-1.107354
N335	N	1.121507	0.032592	-0.774021
N336	N	1.454840	0.365925	-0.440687
H337	H	0.759100	-0.324857	-1.131043
H338	H	1.092433	0.008476	-0.797709
H339	H	1.425767	0.341809	-0.464376
N340	N	0.543931	-0.184043	-0.222319
N341	N	0.877264	0.149291	0.111015
N342	N	1.210597	0.482624	0.444348
N343	N	0.485234	-0.184038	-0.222344
N344	N	0.818567	0.149295	0.110989
N345	N	1.151900	0.482629	0.444323
H346	H	0.461514	-0.159875	-0.193369
H347	H	0.794847	0.173458	0.139965
H348	H	1.128181	0.506792	0.473298
H349	H	0.149909	-0.312424	-0.376594
H350	H	0.483242	0.020909	-0.043261
H351	H	0.816575	0.354243	0.290073
H352	H	0.269176	-0.190937	-0.230734
H353	H	0.602510	0.142397	0.102599
H354	H	0.935843	0.475730	0.435933
H355	H	0.982626	-0.450687	-0.230611
H356	H	1.315959	-0.117354	0.102722
H357	H	1.649292	0.215979	0.436056
H358	H	0.982824	-0.190902	-0.944744
H359	H	1.316157	0.142432	-0.611411
H360	H	1.649491	0.475765	-0.278077
H361	H	1.023023	-0.701834	-0.190444
H362	H	1.356356	-0.368501	0.142890
H363	H	1.689689	-0.035167	0.476223
H364	H	1.023070	-0.800881	-0.190460
H365	H	1.356403	-0.467548	0.142874
H366	H	1.689736	-0.134215	0.476207
H367	H	0.982853	-0.953034	-0.230679
H368	H	1.316186	-0.619700	0.102654
H369	H	1.649520	-0.286367	0.435988
H370	H	0.982893	-1.052099	-0.230698
H371	H	1.316226	-0.718766	0.102635
H372	H	1.649559	-0.385433	0.435969
H373	H	0.796364	-0.801036	-0.416781
H374	H	1.129697	-0.467703	-0.083448
H375	H	1.463031	-0.134369	0.249885
N376	N	0.828349	-0.947496	-0.384920
N377	N	1.161682	-0.614163	-0.051587
N378	N	1.495015	-0.280830	0.281747
N379	N	0.792402	-0.971911	-0.420815
N380	N	1.125735	-0.638578	-0.087481
N381	N	1.459068	-0.305244	0.245852
H382	H	0.763332	-0.952248	-0.449827
H383	H	1.096665	-0.618914	-0.116494
H384	H	1.429999	-0.285581	0.216840
N385	N	0.787985	-0.696340	-0.425110
N386	N	1.121318	-0.363006	-0.091776
N387	N	1.454651	-0.029673	0.241557
N388	N	0.752041	-0.720751	-0.461011
N389	N	1.085375	-0.387418	-0.127678
N390	N	1.418708	-0.054085	0.205656
H391	H	0.722976	-0.701086	-0.490025
H392	H	1.056309	-0.367752	-0.156692
H393	H	1.389642	-0.034419	0.176642
H394	H	0.836524	-0.549854	-0.376532
H395	H	1.169857	-0.216521	-0.043199
H396	H	1.503190	0.116812	0.290135
N397	N	0.828141	-0.445137	-0.384852
N398	N	1.161474	-0.111803	-0.051519
N399	N	1.494808	0.221530	0.281814
N400	N	0.832299	-0.451204	-0.442944
N401	N	1.165632	-0.117870	-0.109611
N402	N	1.498965	0.215463	0.223722
H403	H	0.803247	-0.431523	-0.471957
H404	H	1.136581	-0.098189	-0.138624
H405	H	1.469914	0.235144	0.194709
N406	N	0.991162	-0.184083	-0.537109
N407	N	1.324495	0.149250	-0.203776
N408	N	1.657829	0.482584	0.129557
N409	N	0.987031	-0.135837	-0.544456
N410	N	1.320365	0.197496	-0.211123
N411	N	1.653698	0.530829	0.122210
H412	H	1.016097	-0.111709	-0.520776
H413	H	1.349431	0.221624	-0.187443
H414	H	1.682764	0.554958	0.145890
N415	N	0.828274	-0.319254	-0.669877
N416	N	1.161607	0.014079	-0.336543
N417	N	1.494941	0.347412	-0.003210
N418	N	0.828281	-0.319234	-0.728574
N419	N	1.161615	0.014099	-0.395240
N420	N	1.494948	0.347433	-0.061907
H421	H	0.799216	-0.343349	-0.752273
H422	H	1.132549	-0.010016	-0.418940
H423	H	1.465883	0.323317	-0.085607
