data_functionalizedCrystal
_audit_creation_method	'MofGen! by Chris Wilmer'
_symmetry_space_group_name_H-M	'P1'
_symmetry_Int_Tables_number	1
_symmetry_cell_setting	triclinic
loop_
_symmetry_equiv_pos_as_xyz
  x,y,z
_cell_length_a	21.395364
_cell_length_b	12.759400
_cell_length_c	21.395355
_cell_angle_alpha	89.986153
_cell_angle_beta	89.975448
_cell_angle_gamma	90.029636
loop_
_atom_site_label
_atom_site_type_symbol
_atom_site_fract_x
_atom_site_fract_y
_atom_site_fract_z
Zn1	Zn	0.957929	-0.417969	-0.354282
Zn2	Zn	0.957861	-0.593633	-0.249513
Zn3	Zn	0.853144	-0.418015	-0.249519
Zn4	Zn	0.853142	-0.593652	-0.354253
O5	O	0.905519	-0.505817	-0.301892
O6	O	1.045598	-0.441244	-0.340394
O7	O	0.943942	-0.570349	-0.161836
O8	O	0.867073	-0.270988	-0.263430
O9	O	1.045548	-0.570304	-0.263420
O10	O	0.944058	-0.270954	-0.340399
O11	O	0.867007	-0.441322	-0.161840
O12	O	0.765466	-0.441341	-0.263402
O13	O	0.867070	-0.570336	-0.441935
O14	O	0.765465	-0.570381	-0.340350
O15	O	0.944057	-0.441262	-0.441956
O16	O	0.943940	-0.740657	-0.263393
O17	O	0.867004	-0.740671	-0.340345
C18	C	0.742731	-0.505868	-0.301874
C19	C	0.673090	-0.505916	-0.301881
C20	C	0.640425	-0.438824	-0.342023
C21	C	0.574990	-0.438796	-0.342026
C22	C	0.542222	-0.505878	-0.301893
C23	C	0.574894	-0.572975	-0.261743
C24	C	0.640328	-0.572993	-0.261737
C25	C	0.438513	-0.600493	-0.296860
C26	C	0.373080	-0.600476	-0.296870
C27	C	0.340401	-0.505821	-0.301907
C28	C	0.373163	-0.411179	-0.306947
C29	C	0.438597	-0.411197	-0.306941
C30	C	0.471269	-0.505865	-0.301894
C31	C	0.236784	-0.438693	-0.342053
C32	C	0.171347	-0.438663	-0.342051
C33	C	0.171253	-0.572851	-0.261772
C34	C	0.236688	-0.572872	-0.261771
C35	C	0.269450	-0.505794	-0.301915
C36	C	0.905482	-0.778785	-0.301879
C37	C	0.905523	-0.895561	-0.301894
C38	C	0.945628	-0.950381	-0.261869
C39	C	0.945667	-1.060105	-0.261889
C40	C	0.865490	-1.060180	-0.341959
C41	C	0.865455	-0.950458	-0.341942
C42	C	0.985697	-0.895485	-0.221821
C43	C	1.025805	-0.950305	-0.181792
C44	C	1.025843	-1.060029	-0.181812
C45	C	0.985774	-1.114933	-0.221859
C46	C	1.068942	-0.505767	-0.301910
C47	C	1.138584	-0.505745	-0.301917
C48	C	0.905571	-0.505796	-0.465315
C49	C	0.905593	-0.505787	-0.534956
C50	C	0.905573	-0.231784	-0.301918
C51	C	0.905597	-0.115007	-0.301930
C52	C	0.945678	-0.438575	-0.567681
C53	C	0.945677	-0.438530	-0.633117
C54	C	0.905598	-0.505715	-0.665825
C55	C	0.865505	-0.572932	-0.633092
C56	C	0.865503	-0.572967	-0.567657
C57	C	0.900638	-0.600317	-0.769495
C58	C	0.900645	-0.600282	-0.834928
C59	C	0.905602	-0.505604	-0.867645
C60	C	0.910565	-0.410957	-0.834922
C61	C	0.910563	-0.410993	-0.769488
C62	C	0.905596	-0.505684	-0.736777
C63	C	0.945688	-0.438338	-0.971323
C64	C	0.945683	-0.438291	-1.036760
C65	C	0.865514	-0.572702	-1.036733
C66	C	0.865516	-0.572740	-0.971298
C67	C	0.905606	-0.505559	-0.938597
C68	C	0.905503	-0.505763	-0.139104
C69	C	0.905602	-0.505476	-0.069463
H70	H	0.465269	-0.334137	-0.311042
H71	H	0.832874	-0.627395	-1.063363
F72	F	0.822837	-0.644506	-0.532828
H73	H	0.144753	-0.384023	-0.374739
H74	H	0.346557	-0.334101	-0.311048
F75	F	0.985614	-1.231711	-0.221675
F76	F	0.675289	-0.367432	-0.384747
F77	F	0.540219	-0.367384	-0.384751
F78	F	0.822847	-1.118616	-0.384576
F79	F	0.822848	-0.644432	-0.667902
H80	H	0.832798	-0.905823	-0.374535
H81	H	0.263460	-0.384068	-0.374737
H82	H	0.832878	-0.627477	-0.944653
H83	H	0.144574	-0.627471	-0.229095
H84	H	0.263284	-0.627509	-0.229085
F85	F	0.988356	-0.366763	-1.071588
F86	F	0.338219	-0.701202	-0.291515
F87	F	0.895368	-0.701014	-0.869748
H88	H	0.548210	-0.627593	-0.229066
F89	F	0.473287	-0.701245	-0.291491
F90	F	0.988344	-0.367071	-0.532882
H91	H	0.985668	-0.806142	-0.221799
H92	H	0.666924	-0.627629	-0.229048
H93	H	0.978318	-0.383793	-0.659767
H94	H	0.896434	-0.677395	-0.742862
H95	H	1.058431	-0.905596	-0.149190
H96	H	0.914603	-0.333928	-0.742847
H97	H	0.914603	-0.333861	-0.861559
F98	F	1.068534	-1.118370	-0.139216
H99	H	0.978329	-0.383630	-0.944696
