data_functionalizedCrystal
_audit_creation_method	'MofGen! by Chris Wilmer'
_symmetry_space_group_name_H-M	'P1'
_symmetry_Int_Tables_number	1
_symmetry_cell_setting	triclinic
loop_
_symmetry_equiv_pos_as_xyz
  x,y,z
_cell_length_a	18.050590
_cell_length_b	19.805405
_cell_length_c	19.805399
_cell_angle_alpha	89.970699
_cell_angle_beta	89.997050
_cell_angle_gamma	90.015577
loop_
_atom_site_label
_atom_site_type_symbol
_atom_site_fract_x
_atom_site_fract_y
_atom_site_fract_z
Zn1	Zn	1.135329	-0.269675	-0.382411
Zn2	Zn	1.635329	0.230325	0.117589
Zn3	Zn	1.135236	-0.382863	-0.269220
Zn4	Zn	1.635236	0.117137	0.230780
Zn5	Zn	1.011140	-0.269672	-0.269269
Zn6	Zn	1.511140	0.230328	0.230731
Zn7	Zn	1.011100	-0.382806	-0.382399
Zn8	Zn	1.511100	0.117194	0.117601
O9	O	1.073201	-0.326254	-0.325825
O10	O	1.573201	0.173746	0.174175
O11	O	1.239241	-0.284714	-0.367381
O12	O	1.739241	0.215286	0.132619
O13	O	1.118752	-0.367871	-0.174510
O14	O	1.618752	0.132129	0.325490
O15	O	1.027670	-0.174956	-0.284303
O16	O	1.527670	0.325044	0.215697
O17	O	1.239173	-0.367873	-0.284219
O18	O	1.739173	0.132127	0.215781
O19	O	1.118911	-0.174958	-0.367428
O20	O	1.618911	0.325042	0.132572
O21	O	1.027579	-0.284710	-0.174546
O22	O	1.527579	0.215290	0.325454
O23	O	0.907210	-0.284654	-0.284291
O24	O	1.407210	0.215346	0.215709
O25	O	1.027602	-0.367776	-0.477117
O26	O	1.527602	0.132224	0.022883
O27	O	0.907181	-0.367773	-0.367408
O28	O	1.407181	0.132227	0.132592
O29	O	1.118872	-0.284659	-0.477126
O30	O	1.618872	0.215341	0.022874
O31	O	1.118713	-0.477572	-0.284208
O32	O	1.618713	0.022428	0.215792
O33	O	1.027511	-0.477530	-0.367360
O34	O	1.527511	0.022470	0.132640
C35	C	1.073118	-0.502110	-0.325792
C36	C	1.573118	-0.002110	0.174208
C37	C	1.073150	-0.577342	-0.325801
C38	C	1.573150	-0.077342	0.174199
C39	C	0.880249	-0.326208	-0.325854
C40	C	1.380249	0.173792	0.174146
C41	C	0.797703	-0.326204	-0.325882
C42	C	1.297703	0.173796	0.174118
C43	C	1.120685	-0.612685	-0.282548
C44	C	1.620685	-0.112685	0.217452
C45	C	1.120716	-0.683374	-0.282563
C46	C	1.620716	-0.183374	0.217437
C47	C	1.073209	-0.718717	-0.325828
C48	C	1.573209	-0.218717	0.174172
C49	C	1.025672	-0.683369	-0.369085
C50	C	1.525672	-0.183369	0.130915
C51	C	1.025644	-0.612682	-0.369073
C52	C	1.525644	-0.112682	0.130927
C53	C	1.025781	-0.968442	-0.369135
C54	C	1.525781	-0.468442	0.130865
C55	C	1.025811	-1.039134	-0.369142
C56	C	1.525811	-0.539134	0.130858
C57	C	1.120853	-1.039134	-0.282625
C58	C	1.620853	-0.539134	0.217375
C59	C	1.120826	-0.968447	-0.282613
C60	C	1.620826	-0.468447	0.217387
C61	C	1.073292	-0.933105	-0.325873
C62	C	1.573292	-0.433105	0.174127
C63	C	1.073259	-0.856456	-0.325857
C64	C	1.573259	-0.356456	0.174143
C65	C	1.073237	-0.795365	-0.325840
C66	C	1.573237	-0.295365	0.174160
C67	C	0.598258	-0.371534	-0.370974
C68	C	1.098258	0.128466	0.129026
C69	C	0.548864	-0.309817	-0.387633
C70	C	1.048864	0.190183	0.112367
C71	C	0.646573	-0.326242	-0.325849
C72	C	1.146573	0.173758	0.174151
C73	C	0.548885	-0.387994	-0.309190
C74	C	1.048885	0.112006	0.190810
C75	C	0.500588	-0.326284	-0.325819
C76	C	1.000588	0.173716	0.174181
C77	C	0.598266	-0.264493	-0.342540
C78	C	1.098266	0.235507	0.157460
C79	C	0.598292	-0.342711	-0.264069
C80	C	1.098292	0.157289	0.235931
C81	C	0.548920	-0.280952	-0.280704
C82	C	1.048920	0.219048	0.219296
C83	C	0.730671	-0.326219	-0.325869
C84	C	1.230671	0.173781	0.174131
C85	C	0.416491	-0.326300	-0.325799
C86	C	0.916491	0.173700	0.174201
C87	C	1.266907	-0.326301	-0.325796
C88	C	1.766907	0.173699	0.174204
C89	C	1.349453	-0.326321	-0.325784
C90	C	1.849453	0.173679	0.174216
C91	C	1.073243	-0.326211	-0.502367
C92	C	1.573243	0.173789	-0.002367
C93	C	1.073261	-0.326193	-0.577599
C94	C	1.573261	0.173807	-0.077599
C95	C	1.073305	-0.149711	-0.325872
C96	C	1.573305	0.350289	0.174128
C97	C	1.073350	-0.074479	-0.325893
C98	C	1.573350	0.425521	0.174107
C99	C	1.120786	-0.282912	-0.612949
C100	C	1.620786	0.217088	-0.112949
C101	C	1.120794	-0.282892	-0.683638
C102	C	1.620794	0.217108	-0.183638
C103	C	1.073279	-0.326158	-0.718975
C104	C	1.573279	0.173842	-0.218975
C105	C	1.025748	-0.369441	-0.683620
C106	C	1.525748	0.130559	-0.183620
C107	C	1.025737	-0.369456	-0.612933
C108	C	1.525737	0.130544	-0.112933
C109	C	1.025790	-0.369378	-0.968694
C110	C	1.525790	0.130622	-0.468694
C111	C	1.025806	-0.369360	-1.039386
C112	C	1.525806	0.130640	-0.539386
C113	C	1.120847	-0.282813	-1.039398
C114	C	1.620847	0.217187	-0.539398
C115	C	1.120836	-0.282829	-0.968711
C116	C	1.620836	0.217171	-0.468711
C117	C	1.073303	-0.326109	-0.933363
C118	C	1.573303	0.173891	-0.433363
C119	C	1.073294	-0.326129	-0.856714
C120	C	1.573294	0.173871	-0.356714
C121	C	1.073291	-0.326142	-0.795622
C122	C	1.573291	0.173858	-0.295622
C123	C	1.073202	-0.326247	-0.149969
C124	C	1.573202	0.173753	0.350031
C125	C	1.073329	-0.326075	-0.074737
C126	C	1.573329	0.173925	0.425263
H127	H	1.159368	-0.583913	-0.247315
H128	H	1.659368	-0.083913	0.252685
F129	F	0.626671	-0.360914	-0.195805
F130	F	1.126671	0.139086	0.304195
H131	H	1.159508	-0.939673	-0.247381
H132	H	1.659508	-0.439673	0.252619
F133	F	0.520532	-0.456229	-0.290788
F134	F	1.020532	0.043771	0.209212
F135	F	0.975053	-0.575067	-0.415109
F136	F	1.475053	-0.075067	0.084891
F137	F	0.975201	-0.415440	-0.931082
F138	F	1.475201	0.084560	-0.431082
H139	H	0.619924	-0.409768	-0.409177
H140	H	1.119924	0.090232	0.090823
H141	H	0.986993	-0.712151	-0.404314
H142	H	1.486993	-0.212151	0.095686
F143	F	0.626496	-0.196236	-0.361019
F144	F	1.126496	0.303764	0.138981
F145	F	0.520486	-0.291627	-0.455904
F146	F	1.020486	0.208373	0.044096
F147	F	0.520780	-0.230856	-0.230809
F148	F	1.020780	0.269144	0.269191
H149	H	1.159481	-0.247682	-0.584183
H150	H	1.659481	0.252318	-0.084183
H151	H	1.159496	-0.247650	-0.712417
H152	H	1.659496	0.252350	-0.212417
H153	H	0.987076	-0.939672	-0.404357
H154	H	1.487076	-0.439672	0.095643
F155	F	1.171410	-0.236783	-0.931106
F156	F	1.671410	0.263217	-0.431106
F157	F	1.171434	-0.236748	-1.077025
F158	F	1.671434	0.263252	-0.577025
H159	H	1.159560	-1.067919	-0.247404
H160	H	1.659560	-0.567919	0.252596
H161	H	0.987111	-0.404593	-1.068156
H162	H	1.487111	0.095407	-0.568156
F163	F	0.975152	-0.415520	-0.575312
F164	F	1.475152	0.084480	-0.075312
F165	F	1.171312	-0.720986	-0.236530
F166	F	1.671312	-0.220986	0.263470
F167	F	0.975245	-1.076748	-0.415193
F168	F	1.475245	-0.576748	0.084807
H169	H	0.987058	-0.404666	-0.712398
H170	H	1.487058	0.095334	-0.212398
