data_functionalizedCrystal
_audit_creation_method	'MofGen! by Chris Wilmer'
_symmetry_space_group_name_H-M	'P1'
_symmetry_Int_Tables_number	1
_symmetry_cell_setting	triclinic
loop_
_symmetry_equiv_pos_as_xyz
  x,y,z
_cell_length_a	25.639239
_cell_length_b	25.639242
_cell_length_c	25.639233
_cell_angle_alpha	90.022166
_cell_angle_beta	90.018747
_cell_angle_gamma	90.034213
loop_
_atom_site_label
_atom_site_type_symbol
_atom_site_fract_x
_atom_site_fract_y
_atom_site_fract_z
Zn1	Zn	-0.208277	0.799225	0.295742
Zn2	Zn	0.041723	1.049225	0.545742
Zn3	Zn	0.291723	1.299225	0.795742
Zn4	Zn	0.541723	1.549225	1.045742
Zn5	Zn	-0.295696	0.799149	0.208307
Zn6	Zn	-0.045696	1.049149	0.458307
Zn7	Zn	0.204304	1.299149	0.708307
Zn8	Zn	0.454304	1.549149	0.958307
Zn9	Zn	-0.208269	0.711801	0.208306
Zn10	Zn	0.041731	0.961801	0.458306
Zn11	Zn	0.291731	1.211801	0.708306
Zn12	Zn	0.541731	1.461801	0.958306
Zn13	Zn	-0.295676	0.711746	0.295696
Zn14	Zn	-0.045676	0.961746	0.545696
Zn15	Zn	0.204324	1.211746	0.795696
Zn16	Zn	0.454324	1.461746	1.045696
O17	O	-0.251979	0.755480	0.252013
O18	O	-0.001979	1.005480	0.502013
O19	O	0.248021	1.255480	0.752013
O20	O	0.498021	1.505480	1.002013
O21	O	-0.219884	0.872380	0.284163
O22	O	0.030116	1.122380	0.534163
O23	O	0.280116	1.372380	0.784163
O24	O	0.530116	1.622380	1.034163
O25	O	-0.284103	0.787553	0.135141
O26	O	-0.034103	1.037553	0.385141
O27	O	0.215897	1.287553	0.635141
O28	O	0.465897	1.537553	0.885141
O29	O	-0.135105	0.723453	0.219924
O30	O	0.114895	0.973453	0.469924
O31	O	0.364895	1.223453	0.719924
O32	O	0.614895	1.473453	0.969924
O33	O	-0.284111	0.872324	0.219924
O34	O	-0.034111	1.122324	0.469924
O35	O	0.215889	1.372324	0.719924
O36	O	0.465889	1.622324	0.969924
O37	O	-0.135111	0.787683	0.284163
O38	O	0.114889	1.037683	0.534163
O39	O	0.364889	1.287683	0.784163
O40	O	0.614889	1.537683	1.034163
O41	O	-0.219871	0.723379	0.135141
O42	O	0.030129	0.973379	0.385141
O43	O	0.280129	1.223379	0.635141
O44	O	0.530129	1.473379	0.885141
O45	O	-0.219853	0.638629	0.219880
O46	O	0.030147	0.888629	0.469880
O47	O	0.280147	1.138629	0.719880
O48	O	0.530147	1.388629	0.969880
O49	O	-0.284078	0.723360	0.368868
O50	O	-0.034078	0.973360	0.618868
O51	O	0.215922	1.223360	0.868868
O52	O	0.465922	1.473360	1.118868
O53	O	-0.284070	0.638589	0.284085
O54	O	-0.034070	0.888589	0.534085
O55	O	0.215930	1.138589	0.784085
O56	O	0.465930	1.388589	1.034085
O57	O	-0.219866	0.787630	0.368901
O58	O	0.030134	1.037630	0.618901
O59	O	0.280134	1.287630	0.868901
O60	O	0.530134	1.537630	1.118901
O61	O	-0.368858	0.787499	0.219880
O62	O	-0.118858	1.037499	0.469880
O63	O	0.131142	1.287499	0.719880
O64	O	0.381142	1.537499	0.969880
O65	O	-0.368844	0.723286	0.284085
O66	O	-0.118844	0.973286	0.534085
O67	O	0.131156	1.223286	0.784085
O68	O	0.381156	1.473286	1.034085
C69	C	-0.251959	0.619638	0.251977
C70	C	-0.001959	0.869638	0.501977
C71	C	0.248041	1.119638	0.751977
C72	C	0.498041	1.369638	1.001977
C73	C	-0.251963	0.561524	0.251975
C74	C	-0.001963	0.811524	0.501975
C75	C	0.248037	1.061524	0.751975
C76	C	0.498037	1.311524	1.001975
C77	C	-0.285473	0.201149	0.285413
C78	C	-0.035473	0.451149	0.535413
C79	C	0.214527	0.701149	0.785413
C80	C	0.464527	0.951149	1.035413
C81	C	-0.285477	0.146544	0.285421
C82	C	-0.035477	0.396544	0.535421
C83	C	0.214523	0.646544	0.785421
C84	C	0.464523	0.896544	1.035421
O85	O	-0.313943	0.118297	0.313821
O86	O	-0.063943	0.368297	0.563821
O87	O	0.186057	0.618297	0.813821
O88	O	0.436057	0.868297	1.063821
N89	N	-0.251994	0.119241	0.252047
N90	N	-0.001994	0.369241	0.502047
N91	N	0.248006	0.619241	0.752047
N92	N	0.498006	0.869241	1.002047
C93	C	-0.218502	0.146545	0.218666
C94	C	0.031498	0.396545	0.468666
C95	C	0.281498	0.646545	0.718666
C96	C	0.531498	0.896545	0.968666
O97	O	-0.190022	0.118308	0.190280
O98	O	0.059978	0.368308	0.440280
O99	O	0.309978	0.618308	0.690280
O100	O	0.559978	0.868308	0.940280
C101	C	-0.218496	0.201149	0.218661
C102	C	0.031504	0.451149	0.468661
C103	C	0.281504	0.701149	0.718661
C104	C	0.531504	0.951149	0.968661
C105	C	-0.251985	0.228449	0.252034
C106	C	-0.001985	0.478449	0.502034
C107	C	0.248015	0.728449	0.752034
C108	C	0.498015	0.978449	1.002034
C109	C	-0.318959	0.228449	0.318783
C110	C	-0.068959	0.478449	0.568783
C111	C	0.181041	0.728449	0.818783
C112	C	0.431041	0.978449	1.068783
C113	C	-0.318956	0.283049	0.318774
C114	C	-0.068956	0.533049	0.568774
C115	C	0.181044	0.783049	0.818774
C116	C	0.431044	1.033049	1.068774
C117	C	-0.285468	0.310350	0.285395
C118	C	-0.035468	0.560350	0.535395
C119	C	0.214532	0.810350	0.785395
C120	C	0.464532	1.060350	1.035395
C121	C	-0.251983	0.283049	0.252024
C122	C	-0.001983	0.533049	0.502024
C123	C	0.248017	0.783049	0.752024
C124	C	0.498017	1.033049	1.002024
C125	C	-0.185002	0.228452	0.185283
C126	C	0.064998	0.478452	0.435283
C127	C	0.314998	0.728452	0.685283
C128	C	0.564998	0.978452	0.935283
C129	C	-0.185000	0.283059	0.185281
C130	C	0.065000	0.533059	0.435281
C131	C	0.315000	0.783059	0.685281
C132	C	0.565000	1.033059	0.935281
C133	C	-0.218488	0.310359	0.218654
C134	C	0.031512	0.560359	0.468654
C135	C	0.281512	0.810359	0.718654
C136	C	0.531512	1.060359	0.968654
C137	C	-0.218492	0.364950	0.218636
C138	C	0.031508	0.614950	0.468636
C139	C	0.281508	0.864950	0.718636
C140	C	0.531508	1.114950	0.968636
N141	N	-0.251974	0.392253	0.252010
N142	N	-0.001974	0.642253	0.502010
N143	N	0.248026	0.892253	0.752010
N144	N	0.498026	1.142253	1.002010
C145	C	-0.285463	0.364953	0.285389
C146	C	-0.035463	0.614953	0.535389
C147	C	0.214537	0.864953	0.785389
C148	C	0.464537	1.114953	1.035389
C149	C	-0.218515	0.031875	0.218680
C150	C	0.031485	0.281875	0.468680
C151	C	0.281485	0.531875	0.718680
C152	C	0.531485	0.781875	0.968680
C153	C	-0.218523	-0.022728	0.218683
C154	C	0.031477	0.227272	0.468683
C155	C	0.281477	0.477272	0.718683
C156	C	0.531477	0.727272	0.968683
C157	C	-0.285497	-0.022725	0.285438
C158	C	-0.035497	0.227275	0.535438
C159	C	0.214503	0.477275	0.785438
C160	C	0.464503	0.727275	1.035438
C161	C	-0.285492	0.031878	0.285433
C162	C	-0.035492	0.281878	0.535433
C163	C	0.214508	0.531878	0.785433
C164	C	0.464508	0.781878	1.035433
C165	C	-0.251998	0.059178	0.252054
C166	C	-0.001998	0.309178	0.502054
C167	C	0.248002	0.559178	0.752054
C168	C	0.498002	0.809178	1.002054
C169	C	-0.285455	0.479618	0.285368
C170	C	-0.035455	0.729618	0.535368
C171	C	0.214545	0.979618	0.785368
C172	C	0.464545	1.229618	1.035368
C173	C	-0.285451	0.534223	0.285354
C174	C	-0.035451	0.784223	0.535354
C175	C	0.214549	1.034223	0.785354
C176	C	0.464549	1.284223	1.035354
C177	C	-0.218475	0.534216	0.218601
C178	C	0.031525	0.784216	0.468601
C179	C	0.281525	1.034216	0.718601
C180	C	0.531525	1.284216	0.968601
C181	C	-0.218481	0.479615	0.218612
C182	C	0.031519	0.729615	0.468612
C183	C	0.281519	0.979615	0.718612
C184	C	0.531519	1.229615	0.968612
C185	C	-0.251972	0.452318	0.252000
C186	C	-0.001972	0.702318	0.502000
C187	C	0.248028	0.952318	0.752000
C188	C	0.498028	1.202318	1.002000
O189	O	-0.190038	0.393232	0.190252
O190	O	0.059962	0.643232	0.440252
O191	O	0.309962	0.893232	0.690252
O192	O	0.559962	1.143232	0.940252
O193	O	-0.313933	0.393197	0.313776
O194	O	-0.063933	0.643197	0.563776
O195	O	0.186067	0.893197	0.813776
O196	O	0.436067	1.143197	1.063776
C197	C	-0.387822	0.755392	0.251989
C198	C	-0.137822	1.005392	0.501989
C199	C	0.112178	1.255392	0.751989
C200	C	0.362178	1.505392	1.001989
C201	C	-0.445936	0.755403	0.251996
C202	C	-0.195936	1.005403	0.501996
C203	C	0.054064	1.255403	0.751996
C204	C	0.304064	1.505403	1.001996
C205	C	-0.806294	0.789004	0.218638
C206	C	-0.556294	1.039004	0.468638
C207	C	-0.306294	1.289004	0.718638
C208	C	-0.056294	1.539004	0.968638
C209	C	-0.860898	0.789024	0.218645
C210	C	-0.610898	1.039024	0.468645
C211	C	-0.360898	1.289024	0.718645
C212	C	-0.110898	1.539024	0.968645
O213	O	-0.889131	0.817502	0.190257
O214	O	-0.639131	1.067502	0.440257
O215	O	-0.389131	1.317502	0.690257
O216	O	-0.139131	1.567502	0.940257
N217	N	-0.888218	0.755572	0.252048
N218	N	-0.638218	1.005572	0.502048
N219	N	-0.388218	1.255572	0.752048
N220	N	-0.138218	1.505572	1.002048
C221	C	-0.860932	0.722102	0.285449
C222	C	-0.610932	0.972102	0.535449
C223	C	-0.360932	1.222102	0.785449
C224	C	-0.110932	1.472102	1.035449
O225	O	-0.889184	0.693651	0.313861
O226	O	-0.639184	0.943651	0.563861
O227	O	-0.389184	1.193651	0.813861
O228	O	-0.139184	1.443651	1.063861
C229	C	-0.806328	0.722085	0.285444
C230	C	-0.556328	0.972085	0.535444
C231	C	-0.306328	1.222085	0.785444
C232	C	-0.056328	1.472085	1.035444
C233	C	-0.779011	0.755535	0.252036
C234	C	-0.529011	1.005535	0.502036
C235	C	-0.279011	1.255535	0.752036
C236	C	-0.029011	1.505535	1.002036
C237	C	-0.778976	0.822452	0.185233
C238	C	-0.528976	1.072452	0.435233
C239	C	-0.278976	1.322452	0.685233
C240	C	-0.028976	1.572452	0.935233
C241	C	-0.724376	0.822431	0.185226
C242	C	-0.474376	1.072431	0.435226
C243	C	-0.224376	1.322431	0.685226
C244	C	0.025624	1.572431	0.935226
C245	C	-0.697093	0.788962	0.218623
C246	C	-0.447093	1.038962	0.468623
C247	C	-0.197093	1.288962	0.718623
C248	C	0.052907	1.538962	0.968623
C249	C	-0.724410	0.755514	0.252028
C250	C	-0.474410	1.005514	0.502028
C251	C	-0.224410	1.255514	0.752028
C252	C	0.025590	1.505514	1.002028
C253	C	-0.779042	0.688617	0.318847
C254	C	-0.529042	0.938617	0.568847
C255	C	-0.279042	1.188617	0.818847
C256	C	-0.029042	1.438617	1.068847
C257	C	-0.724435	0.688603	0.318840
C258	C	-0.474435	0.938603	0.568840
C259	C	-0.224435	1.188603	0.818840
C260	C	0.025565	1.438603	1.068840
C261	C	-0.697118	0.722053	0.285432
C262	C	-0.447118	0.972053	0.535432
C263	C	-0.197118	1.222053	0.785432
C264	C	0.052882	1.472053	1.035432
C265	C	-0.642527	0.722024	0.285418
C266	C	-0.392527	0.972024	0.535418
C267	C	-0.142527	1.222024	0.785418
C268	C	0.107473	1.472024	1.035418
N269	N	-0.615206	0.755475	0.252016
N270	N	-0.365206	1.005475	0.502016
N271	N	-0.115206	1.255475	0.752016
N272	N	0.134794	1.505475	1.002016
C273	C	-0.642490	0.788944	0.218618
C274	C	-0.392490	1.038944	0.468618
C275	C	-0.142490	1.288944	0.718618
C276	C	0.107510	1.538944	0.968618
C277	C	-0.975602	0.722141	0.285457
C278	C	-0.725602	0.972141	0.535457
C279	C	-0.475602	1.222141	0.785457
C280	C	-0.225602	1.472141	1.035457
C281	C	-1.030204	0.722155	0.285459
C282	C	-0.780204	0.972155	0.535459
C283	C	-0.530204	1.222155	0.785459
C284	C	-0.280204	1.472155	1.035459
C285	C	-1.030167	0.789078	0.218656
C286	C	-0.780167	1.039078	0.468656
C287	C	-0.530167	1.289078	0.718656
C288	C	-0.280167	1.539078	0.968656
C289	C	-0.975564	0.789061	0.218652
C290	C	-0.725564	1.039061	0.468652
C291	C	-0.475564	1.289061	0.718652
C292	C	-0.225564	1.539061	0.968652
C293	C	-0.948282	0.755593	0.252055
C294	C	-0.698282	1.005593	0.502055
C295	C	-0.448282	1.255593	0.752055
C296	C	-0.198282	1.505593	1.002055
C297	C	-0.527824	0.788897	0.218605
C298	C	-0.277824	1.038897	0.468605
C299	C	-0.027824	1.288897	0.718605
C300	C	0.222176	1.538897	0.968605
C301	C	-0.473219	0.788872	0.218599
C302	C	-0.223219	1.038872	0.468599
C303	C	0.026781	1.288872	0.718599
C304	C	0.276781	1.538872	0.968599
C305	C	-0.473261	0.721951	0.285403
C306	C	-0.223261	0.971951	0.535403
C307	C	0.026739	1.221951	0.785403
C308	C	0.276739	1.471951	1.035403
C309	C	-0.527862	0.721974	0.285408
C310	C	-0.277862	0.971974	0.535408
C311	C	-0.027862	1.221974	0.785408
C312	C	0.222138	1.471974	1.035408
C313	C	-0.555142	0.755452	0.252007
C314	C	-0.305142	1.005452	0.502007
C315	C	-0.055142	1.255452	0.752007
C316	C	0.194858	1.505452	1.002007
O317	O	-0.614260	0.693562	0.313793
O318	O	-0.364260	0.943562	0.563793
O319	O	-0.114260	1.193562	0.813793
O320	O	0.135740	1.443562	1.063793
O321	O	-0.614231	0.817396	0.190216
O322	O	-0.364231	1.067396	0.440216
O323	O	-0.114231	1.317396	0.690216
O324	O	0.135769	1.567396	0.940216
C325	C	-0.115606	0.755583	0.252048
C326	C	0.134394	1.005583	0.502048
C327	C	0.384394	1.255583	0.752048
C328	C	0.634394	1.505583	1.002048
C329	C	-0.057492	0.755627	0.252064
C330	C	0.192508	1.005627	0.502064
C331	C	0.442508	1.255627	0.752064
C332	C	0.692508	1.505627	1.002064
C333	C	-0.251970	0.755497	0.388386
C334	C	-0.001970	1.005497	0.638386
C335	C	0.248030	1.255497	0.888386
C336	C	0.498030	1.505497	1.138386
C337	C	-0.251966	0.755504	0.446500
C338	C	-0.001966	1.005504	0.696500
C339	C	0.248034	1.255504	0.946500
C340	C	0.498034	1.505504	1.196500
C341	C	-0.252000	0.891853	0.252049
C342	C	-0.002000	1.141853	0.502049
C343	C	0.248000	1.391853	0.752049
C344	C	0.498000	1.641853	1.002049
C345	C	-0.252009	0.949967	0.252064
C346	C	-0.002009	1.199967	0.502064
C347	C	0.247991	1.449967	0.752064
C348	C	0.497991	1.699967	1.002064
C349	C	-0.251951	0.755494	0.116170
C350	C	-0.001951	1.005494	0.366170
C351	C	0.248049	1.255494	0.616170
C352	C	0.498049	1.505494	0.866170
C353	C	-0.251807	0.755588	0.058057
C354	C	-0.001807	1.005588	0.308057
C355	C	0.248193	1.255588	0.558057
C356	C	0.498193	1.505588	0.808057
C357	C	-0.218432	0.789012	0.806886
C358	C	0.031568	1.039012	1.056886
C359	C	0.281568	1.289012	1.306886
C360	C	0.531568	1.539012	1.556886
C361	C	-0.218417	0.789019	0.861491
C362	C	0.031583	1.039019	1.111491
C363	C	0.281583	1.289019	1.361491
C364	C	0.531583	1.539019	1.611491
O365	O	-0.189967	0.817466	0.889747
O366	O	0.060033	1.067466	1.139747
O367	O	0.310033	1.317466	1.389747
O368	O	0.560033	1.567466	1.639747
N369	N	-0.251844	0.755562	0.888783
N370	N	-0.001844	1.005562	1.138783
N371	N	0.248156	1.255562	1.388783
N372	N	0.498156	1.505562	1.638783
C373	C	-0.285283	0.722093	0.861468
C374	C	-0.035283	0.972093	1.111468
C375	C	0.214717	1.222093	1.361468
C376	C	0.464717	1.472093	1.611468
O377	O	-0.313713	0.693636	0.889695
O378	O	-0.063713	0.943636	1.139695
O379	O	0.186287	1.193636	1.389695
O380	O	0.436287	1.443636	1.639695
C381	C	-0.285294	0.722084	0.806864
C382	C	-0.035294	0.972084	1.056864
C383	C	0.214706	1.222084	1.306864
C384	C	0.464706	1.472084	1.556864
C385	C	-0.251870	0.755547	0.779575
C386	C	-0.001870	1.005547	1.029575
C387	C	0.248130	1.255547	1.279575
C388	C	0.498130	1.505547	1.529575
C389	C	-0.185009	0.822472	0.779597
C390	C	0.064991	1.072472	1.029597
C391	C	0.314991	1.322472	1.279597
C392	C	0.564991	1.572472	1.529597
C393	C	-0.185025	0.822466	0.724997
C394	C	0.064975	1.072466	0.974997
C395	C	0.314975	1.322466	1.224997
C396	C	0.564975	1.572466	1.474997
C397	C	-0.218462	0.789000	0.697685
C398	C	0.031538	1.039000	0.947685
C399	C	0.281538	1.289000	1.197685
C400	C	0.531538	1.539000	1.447685
C401	C	-0.251885	0.755541	0.724974
C402	C	-0.001885	1.005541	0.974974
C403	C	0.248115	1.255541	1.224974
C404	C	0.498115	1.505541	1.474974
C405	C	-0.318731	0.688613	0.779550
C406	C	-0.068731	0.938613	1.029550
C407	C	0.181269	1.188613	1.279550
C408	C	0.431269	1.438613	1.529550
C409	C	-0.318739	0.688607	0.724943
C410	C	-0.068739	0.938607	0.974943
C411	C	0.181261	1.188607	1.224943
C412	C	0.431261	1.438607	1.474943
C413	C	-0.285314	0.722069	0.697654
C414	C	-0.035314	0.972069	0.947654
C415	C	0.214686	1.222069	1.197654
C416	C	0.464686	1.472069	1.447654
C417	C	-0.285338	0.722070	0.643063
C418	C	-0.035338	0.972070	0.893063
C419	C	0.214662	1.222070	1.143063
C420	C	0.464662	1.472070	1.393063
N421	N	-0.251912	0.755526	0.615771
N422	N	-0.001912	1.005526	0.865771
N423	N	0.248088	1.255526	1.115771
N424	N	0.498088	1.505526	1.365771
C425	C	-0.218474	0.788992	0.643082
C426	C	0.031526	1.038992	0.893082
C427	C	0.281526	1.288992	1.143082
C428	C	0.531526	1.538992	1.393082
C429	C	-0.285256	0.722113	0.976138
C430	C	-0.035256	0.972113	1.226138
C431	C	0.214744	1.222113	1.476138
C432	C	0.464744	1.472113	1.726138
C433	C	-0.285247	0.722124	1.030741
C434	C	-0.035247	0.972124	1.280741
C435	C	0.214753	1.222124	1.530741
C436	C	0.464753	1.472124	1.780741
C437	C	-0.218381	0.789049	1.030760
C438	C	0.031619	1.039049	1.280760
C439	C	0.281619	1.289049	1.530760
C440	C	0.531619	1.539049	1.780760
C441	C	-0.218392	0.789041	0.976157
C442	C	0.031608	1.039041	1.226157
C443	C	0.281608	1.289041	1.476157
C444	C	0.531608	1.539041	1.726157
C445	C	-0.251829	0.755570	0.948846
C446	C	-0.001829	1.005570	1.198846
C447	C	0.248171	1.255570	1.448846
C448	C	0.498171	1.505570	1.698846
C449	C	-0.218509	0.788977	0.528417
C450	C	0.031491	1.038977	0.778417
C451	C	0.281491	1.288977	1.028417
C452	C	0.531491	1.538977	1.278417
C453	C	-0.218529	0.788970	0.473811
C454	C	0.031471	1.038970	0.723811
C455	C	0.281471	1.288970	0.973811
C456	C	0.531471	1.538970	1.223811
C457	C	-0.285393	0.722043	0.473797
C458	C	-0.035393	0.972043	0.723797
C459	C	0.214607	1.222043	0.973797
C460	C	0.464607	1.472043	1.223797
C461	C	-0.285375	0.722052	0.528397
C462	C	-0.035375	0.972052	0.778397
C463	C	0.214625	1.222052	1.028397
C464	C	0.464625	1.472052	1.278397
C465	C	-0.251929	0.755521	0.555706
C466	C	-0.001929	1.005521	0.805706
C467	C	0.248071	1.255521	1.055706
C468	C	0.498071	1.505521	1.305706
O469	O	-0.313773	0.693635	0.614771
O470	O	-0.063773	0.943635	0.864771
O471	O	0.186227	1.193635	1.114771
O472	O	0.436227	1.443635	1.364771
O473	O	-0.190044	0.817439	0.614847
O474	O	0.059956	1.067439	0.864847
O475	O	0.309956	1.317439	1.114847
O476	O	0.559956	1.567439	1.364847
H477	H	-0.312760	0.054103	0.312609
H478	H	-0.062760	0.304103	0.562609
H479	H	0.187240	0.554103	0.812609
H480	H	0.437240	0.804103	1.062609
H481	H	-0.953325	0.816300	0.191448
H482	H	-0.703325	1.066300	0.441448
H483	H	-0.453325	1.316300	0.691448
H484	H	-0.203325	1.566300	0.941448
H485	H	-0.191310	0.816221	0.451595
H486	H	0.058690	1.066221	0.701595
H487	H	0.308690	1.316221	0.951595
H488	H	0.558690	1.566221	1.201595
N489	N	-0.321327	0.686020	0.946678
N490	N	-0.071327	0.936020	1.196678
N491	N	0.178673	1.186020	1.446678
N492	N	0.428673	1.436020	1.696678
H493	H	-0.300082	0.661801	0.924020
H494	H	-0.050082	0.911801	1.174020
H495	H	0.199918	1.161801	1.424020
H496	H	0.449918	1.411801	1.674020
H497	H	-0.342494	0.664862	0.972285
H498	H	-0.092494	0.914862	1.222285
H499	H	0.157506	1.164862	1.472285
H500	H	0.407506	1.414862	1.722285
H501	H	-0.191241	0.054099	0.191496
H502	H	0.058759	0.304099	0.441496
H503	H	0.308759	0.554099	0.691496
H504	H	0.558759	0.804099	0.941496
N505	N	-0.321618	-0.052176	0.321442
N506	N	-0.071618	0.197824	0.571442
N507	N	0.178382	0.447824	0.821442
N508	N	0.428382	0.697824	1.071442
H509	H	-0.316536	-0.090908	0.316380
H510	H	-0.066536	0.159092	0.566380
H511	H	0.183464	0.409092	0.816380
H512	H	0.433464	0.659092	1.066380
H513	H	-0.313534	-0.042610	0.358797
H514	H	-0.063534	0.207390	0.608797
H515	H	0.186466	0.457390	0.858797
H516	H	0.436466	0.707390	1.108797
H517	H	-0.191272	0.816229	0.550645
H518	H	0.058728	1.066229	0.800645
H519	H	0.308728	1.316229	1.050645
H520	H	0.558728	1.566229	1.300645
N521	N	-0.808401	0.858550	0.149208
N522	N	-0.558401	1.108550	0.399208
N523	N	-0.308401	1.358550	0.649208
N524	N	-0.058401	1.608550	0.899208
H525	H	-0.798858	0.895899	0.157365
H526	H	-0.548858	1.145899	0.407365
H527	H	-0.298858	1.395899	0.657365
H528	H	-0.048858	1.645899	0.907365
H529	H	-0.798904	0.850403	0.111858
H530	H	-0.548904	1.100403	0.361858
H531	H	-0.298904	1.350403	0.611858
H532	H	-0.048904	1.600403	0.861858
N533	N	-0.182411	-0.052170	0.182680
N534	N	0.067589	0.197830	0.432680
N535	N	0.317589	0.447830	0.682680
N536	N	0.567589	0.697830	0.932680
H537	H	-0.161199	-0.026585	0.161535
H538	H	0.088801	0.223415	0.411535
H539	H	0.338801	0.473415	0.661535
H540	H	0.588801	0.723415	0.911535
H541	H	-0.158245	-0.074801	0.204007
H542	H	0.091755	0.175199	0.454007
H543	H	0.341755	0.425199	0.704007
H544	H	0.591755	0.675199	0.954007
H545	H	-0.345949	0.661364	0.801759
H546	H	-0.095949	0.911364	1.051759
H547	H	0.154051	1.161364	1.301759
H548	H	0.404051	1.411364	1.551759
N549	N	-0.354808	0.652504	0.695493
N550	N	-0.104808	0.902504	0.945493
N551	N	0.145192	1.152504	1.195493
N552	N	0.395192	1.402504	1.445493
H553	H	-0.379050	0.673728	0.672842
H554	H	-0.129050	0.923728	0.922842
H555	H	0.120950	1.173728	1.172842
H556	H	0.370950	1.423728	1.422842
H557	H	-0.333527	0.628293	0.672864
H558	H	-0.083527	0.878293	0.922864
H559	H	0.166473	1.128293	1.172864
H560	H	0.416473	1.378293	1.422864
H561	H	-0.953392	0.694883	0.312656
H562	H	-0.703392	0.944883	0.562656
H563	H	-0.453392	1.194883	0.812656
H564	H	-0.203392	1.444883	1.062656
H565	H	-0.312619	0.694798	0.451550
H566	H	-0.062619	0.944798	0.701550
H567	H	0.187381	1.194798	0.951550
H568	H	0.437381	1.444798	1.201550
N569	N	-0.321574	0.563669	0.321348
N570	N	-0.071574	0.813669	0.571348
N571	N	0.178426	1.063669	0.821348
N572	N	0.428426	1.313669	1.071348
H573	H	-0.342788	0.538085	0.342495
H574	H	-0.092788	0.788085	0.592495
H575	H	0.157212	1.038085	0.842495
H576	H	0.407212	1.288085	1.092495
H577	H	-0.300329	0.586350	0.345580
H578	H	-0.050329	0.836350	0.595580
H579	H	0.199671	1.086350	0.845580
H580	H	0.449671	1.336350	1.095580
N581	N	-0.321578	0.450180	0.321376
N582	N	-0.071578	0.700180	0.571376
N583	N	0.178422	0.950180	0.821376
N584	N	0.428422	1.200180	1.071376
H585	H	-0.342789	0.475767	0.342511
H586	H	-0.092789	0.725767	0.592511
H587	H	0.157211	0.975767	0.842511
H588	H	0.407211	1.225767	1.092511
H589	H	-0.345745	0.427502	0.300053
H590	H	-0.095745	0.677502	0.550053
H591	H	0.154255	0.927502	0.800053
H592	H	0.404255	1.177502	1.050053
H593	H	-0.801275	0.661376	0.346049
H594	H	-0.551275	0.911376	0.596049
H595	H	-0.301275	1.161376	0.846049
H596	H	-0.051275	1.411376	1.096049
H597	H	-0.157734	0.206233	0.158106
H598	H	0.092266	0.456233	0.408106
H599	H	0.342266	0.706233	0.658106
H600	H	0.592266	0.956233	0.908106
H601	H	-0.157721	0.305283	0.158103
H602	H	0.092279	0.555283	0.408103
H603	H	0.342279	0.805283	0.658103
H604	H	0.592279	1.055283	0.908103
H605	H	-0.312597	0.694809	0.550617
H606	H	-0.062597	0.944809	0.800617
H607	H	0.187403	1.194809	1.050617
H608	H	0.437403	1.444809	1.300617
H609	H	-1.052391	0.816333	0.191464
H610	H	-0.802391	1.066333	0.441464
H611	H	-0.552391	1.316333	0.691464
H612	H	-0.302391	1.566333	0.941464
N613	N	-0.148972	0.858556	0.695567
N614	N	0.101028	1.108556	0.945567
N615	N	0.351028	1.358556	1.195567
N616	N	0.601028	1.608556	1.445567
H617	H	-0.127789	0.879753	0.721161
H618	H	0.122211	1.129753	0.971161
H619	H	0.372211	1.379753	1.221161
H620	H	0.622211	1.629753	1.471161
H621	H	-0.124776	0.837290	0.672910
H622	H	0.125224	1.087290	0.922910
H623	H	0.375224	1.337290	1.172910
H624	H	0.625224	1.587290	1.422910
N625	N	-0.182369	0.450166	0.182612
N626	N	0.067631	0.700166	0.432612
N627	N	0.317631	0.950166	0.682612
N628	N	0.567631	1.200166	0.932612
H629	H	-0.161156	0.475749	0.161464
H630	H	0.088844	0.725749	0.411464
H631	H	0.338844	0.975749	0.661464
H632	H	0.588844	1.225749	0.911464
H633	H	-0.158203	0.427538	0.203943
H634	H	0.091797	0.677538	0.453943
H635	H	0.341797	0.927538	0.703943
H636	H	0.591797	1.177538	0.953943
N637	N	-0.182358	0.563667	0.182599
N638	N	0.067642	0.813667	0.432599
N639	N	0.317642	1.063667	0.682599
N640	N	0.567642	1.313667	0.932599
H641	H	-0.187439	0.602399	0.187662
H642	H	0.062561	0.852399	0.437662
H643	H	0.312561	1.102399	0.687662
H644	H	0.562561	1.352399	0.937662
H645	H	-0.145030	0.554148	0.190809
H646	H	0.104970	0.804148	0.440809
H647	H	0.354970	1.054148	0.690809
H648	H	0.604970	1.304148	0.940809
H649	H	-0.346225	0.305272	0.345950
H650	H	-0.096225	0.555272	0.595950
H651	H	0.153775	0.805272	0.845950
H652	H	0.403775	1.055272	1.095950
N653	N	-0.148936	0.858564	0.809049
N654	N	0.101064	1.108564	1.059049
N655	N	0.351064	1.358564	1.309049
N656	N	0.601064	1.608564	1.559049
H657	H	-0.127766	0.879754	0.783468
H658	H	0.122234	1.129754	1.033468
H659	H	0.372234	1.379754	1.283468
H660	H	0.622234	1.629754	1.533468
H661	H	-0.170212	0.882752	0.831708
H662	H	0.079788	1.132752	1.081708
H663	H	0.329788	1.382752	1.331708
H664	H	0.579788	1.632752	1.581708
H665	H	-0.450979	0.816111	0.191392
H666	H	-0.200979	1.066111	0.441392
H667	H	0.049021	1.316111	0.691392
H668	H	0.299021	1.566111	0.941392
H669	H	-1.052442	0.694912	0.312659
H670	H	-0.802442	0.944912	0.562659
H671	H	-0.552442	1.194912	0.812659
H672	H	-0.302442	1.444912	1.062659
H673	H	-0.191174	0.816288	0.953941
H674	H	0.058826	1.066288	1.203941
H675	H	0.308826	1.316288	1.453941
H676	H	0.558826	1.566288	1.703941
H677	H	-0.550105	0.694738	0.312613
H678	H	-0.300105	0.944738	0.562613
H679	H	-0.050105	1.194738	0.812613
H680	H	0.199895	1.444738	1.062613
H681	H	-0.550030	0.816159	0.191408
H682	H	-0.300030	1.066159	0.441408
H683	H	-0.050030	1.316159	0.691408
H684	H	0.199970	1.566159	0.941408
H685	H	-0.702137	0.849670	0.158024
H686	H	-0.452137	1.099670	0.408024
H687	H	-0.202137	1.349670	0.658024
H688	H	0.047863	1.599670	0.908024
H689	H	-0.346229	0.206227	0.345967
H690	H	-0.096229	0.456227	0.595967
H691	H	0.153771	0.706227	0.845967
H692	H	0.403771	0.956227	1.095967
H693	H	-0.702225	0.661350	0.346042
H694	H	-0.452225	0.911350	0.596042
H695	H	-0.202225	1.161350	0.846042
H696	H	0.047775	1.411350	1.096042
N697	N	-0.443829	0.685850	0.321420
N698	N	-0.193829	0.935850	0.571420
N699	N	0.056171	1.185850	0.821420
N700	N	0.306171	1.435850	1.071420
H701	H	-0.405094	0.690917	0.316344
H702	H	-0.155094	0.940917	0.566344
H703	H	0.094906	1.190917	0.816344
H704	H	0.344906	1.440917	1.066344
H705	H	-0.453346	0.693966	0.358772
H706	H	-0.203346	0.943966	0.608772
H707	H	0.046654	1.193966	0.858772
H708	H	0.296654	1.443966	1.108772
N709	N	-0.182314	0.825145	1.060222
N710	N	0.067686	1.075145	1.310222
N711	N	0.317686	1.325145	1.560222
N712	N	0.567686	1.575145	1.810222
H713	H	-0.187380	0.820069	1.098954
H714	H	0.062620	1.070069	1.348954
H715	H	0.312620	1.320069	1.598954
H716	H	0.562620	1.570069	1.848954
H717	H	-0.144974	0.817034	1.050681
H718	H	0.105026	1.067034	1.300681
H719	H	0.355026	1.317034	1.550681
H720	H	0.605026	1.567034	1.800681
N721	N	-0.321306	0.686040	1.060171
N722	N	-0.071306	0.936040	1.310171
N723	N	0.178694	1.186040	1.560171
N724	N	0.428694	1.436040	1.810171
H725	H	-0.342489	0.664841	1.034579
H726	H	-0.092489	0.914841	1.284579
H727	H	0.157511	1.164841	1.534579
H728	H	0.407511	1.414841	1.784579
H729	H	-0.300016	0.661860	1.082821
H730	H	-0.050016	0.911860	1.332821
H731	H	0.199984	1.161860	1.582821
H732	H	0.449984	1.411860	1.832821
