data_functionalizedCrystal
_audit_creation_method	'MofGen! by Chris Wilmer'
_symmetry_space_group_name_H-M	'P1'
_symmetry_Int_Tables_number	1
_symmetry_cell_setting	triclinic
loop_
_symmetry_equiv_pos_as_xyz
  x,y,z
_cell_length_a	14.044220
_cell_length_b	17.666332
_cell_length_c	14.044220
_cell_angle_alpha	90.006987
_cell_angle_beta	93.188878
_cell_angle_gamma	90.004261
loop_
_atom_site_label
_atom_site_type_symbol
_atom_site_fract_x
_atom_site_fract_y
_atom_site_fract_z
O1	O	1.277175	0.062871	0.230170
O2	O	1.000503	0.062890	0.221864
O3	O	1.134686	0.062873	0.087681
O4	O	1.142992	0.062888	0.364353
O5	O	1.134660	-0.063024	0.087671
O6	O	1.000477	-0.063007	0.221854
O7	O	1.277148	-0.063026	0.230160
Cu8	Cu	1.138810	-0.074512	0.226006
Cu9	Cu	1.138841	0.074376	0.226018
O10	O	1.142965	-0.063009	0.364343
C11	C	0.964868	-0.000056	0.218223
C12	C	0.858725	-0.000049	0.207379
N13	N	1.138795	-0.179231	0.225998
C14	C	0.664388	-0.000065	0.187553
C15	C	0.613258	-0.000064	0.264467
C16	C	0.505122	-0.000073	0.253435
C17	C	0.772534	-0.000056	0.198583
C18	C	1.198235	-0.218848	0.166615
C19	C	1.198240	-0.298096	0.166611
C20	C	1.138816	-0.337723	0.226007
C21	C	1.079364	-0.298097	0.285393
C22	C	1.079354	-0.218851	0.285389
N23	N	1.133806	-0.462137	0.309456
N24	N	1.133821	-0.537418	0.309457
C25	C	1.138842	-0.576487	0.226022
N26	N	1.143866	-0.537433	0.142584
N27	N	1.143855	-0.462145	0.142583
C28	C	1.138820	-0.423652	0.226018
C29	C	1.198291	-0.702034	0.166630
C30	C	1.198289	-0.781283	0.166624
C31	C	1.079419	-0.781282	0.285415
C32	C	1.079415	-0.702035	0.285412
C33	C	1.138856	-0.662415	0.226021
C34	C	1.312783	-0.000078	0.233800
C35	C	1.418926	-0.000080	0.244645
C36	C	1.131037	-0.000075	0.052054
C37	C	1.120193	-0.000075	-0.054088
N38	N	1.138863	0.179095	0.226019
C39	C	1.100366	-0.000063	-0.248426
C40	C	1.177281	-0.000066	-0.299556
C41	C	1.166249	-0.000059	-0.407692
C42	C	1.111397	-0.000070	-0.140280
C43	C	1.146614	-0.000059	0.399969
C44	C	1.157459	-0.000054	0.506112
H45	H	0.650697	-0.000057	0.338600
H46	H	1.026239	-0.000056	-0.285863
H47	H	0.626951	-0.000073	0.113425
H48	H	1.246633	-0.186593	0.118253
H49	H	1.030978	-0.330365	0.333752
C50	C	1.263628	-0.341684	0.101289
H51	H	1.299030	-0.306738	0.065922
H52	H	1.225935	-0.372611	0.058625
H53	H	1.306276	-0.372585	0.139031
C54	C	1.013974	-0.175270	0.350720
H55	H	0.978586	-0.210217	0.386098
H56	H	0.971330	-0.144362	0.312994
H57	H	1.051682	-0.144350	0.393389
H58	H	1.251414	-0.000020	-0.262117
H59	H	1.246689	-0.813540	0.118262
C60	C	1.014053	-0.824863	0.350749
H61	H	1.022574	-0.877733	0.342251
H62	H	0.949459	-0.811885	0.334958
H63	H	1.029811	-0.811866	0.415353
H64	H	1.246689	-0.669774	0.118267
H65	H	1.031017	-0.669776	0.333771
