data_functionalizedCrystal
_audit_creation_method	'MofGen! by Chris Wilmer'
_symmetry_space_group_name_H-M	'P1'
_symmetry_Int_Tables_number	1
_symmetry_cell_setting	triclinic
loop_
_symmetry_equiv_pos_as_xyz
  x,y,z
_cell_length_a	15.995350
_cell_length_b	15.944551
_cell_length_c	15.072220
_cell_angle_alpha	89.997918
_cell_angle_beta	89.991149
_cell_angle_gamma	83.495557
loop_
_atom_site_label
_atom_site_type_symbol
_atom_site_fract_x
_atom_site_fract_y
_atom_site_fract_z
O1	O	1.111002	0.108264	-0.073709
O2	O	1.611002	0.608264	0.426291
O3	O	0.867227	0.121634	-0.073728
O4	O	1.367227	0.621634	0.426272
O5	O	0.995772	-0.007326	-0.073710
O6	O	1.495772	0.492674	0.426290
O7	O	0.982458	0.237224	-0.073727
O8	O	1.482458	0.737224	0.426273
O9	O	0.995740	-0.007319	0.073855
O10	O	1.495740	0.492681	0.573855
O11	O	0.867196	0.121641	0.073837
O12	O	1.367196	0.621641	0.573837
O13	O	1.110970	0.108271	0.073856
O14	O	1.610970	0.608271	0.573856
Zn15	Zn	0.989078	0.114957	0.097276
Zn16	Zn	1.489078	0.614957	0.597276
Zn17	Zn	0.989120	0.114948	-0.097148
Zn18	Zn	1.489120	0.614948	0.402852
O19	O	0.982426	0.237232	0.073838
O20	O	1.482426	0.737232	0.573838
C21	C	0.836017	0.121085	0.000053
C22	C	1.336017	0.621085	0.500053
C23	C	0.743066	0.119428	0.000046
C24	C	1.243066	0.619428	0.500046
C25	C	0.405318	0.113477	0.000065
C26	C	0.905318	0.613477	0.500065
C27	C	0.452747	0.021634	0.000400
C28	C	0.952747	0.521634	0.500400
C29	C	0.549438	0.023291	0.000061
C30	C	1.049438	0.523291	0.500061
C31	C	0.572879	0.116429	0.000056
C32	C	1.072879	0.616429	0.500056
C33	C	0.531813	0.161725	-0.084211
C34	C	1.031813	0.661725	0.415789
C35	C	0.435177	0.159417	-0.084275
C36	C	0.935177	0.659417	0.415725
C37	C	0.434802	0.161323	0.083534
C38	C	0.934802	0.661323	0.583534
C39	C	0.531747	0.161301	0.084642
C40	C	1.031747	0.661301	0.584642
C41	C	0.667577	0.118102	0.000048
C42	C	1.167577	0.618102	0.500048
C43	C	0.310620	0.111806	0.000067
C44	C	0.810620	0.611806	0.500067
C45	C	0.995203	-0.038616	0.000073
C46	C	1.495203	0.461384	0.500073
C47	C	0.993546	-0.131862	0.000073
C48	C	1.493546	0.368138	0.500073
C49	C	0.909908	-0.346714	0.000054
C50	C	1.409908	0.153286	0.500054
C51	C	0.948731	-0.407730	0.072816
C52	C	1.448731	0.092270	0.572816
C53	C	0.990548	-0.302588	0.000066
C54	C	1.490548	0.197412	0.500066
C55	C	0.948781	-0.407721	-0.072672
C56	C	1.448781	0.092279	0.427328
C57	C	0.987647	-0.467501	0.000055
C58	C	1.487647	0.032499	0.500055
C59	C	1.029394	-0.362376	0.072888
C60	C	1.529394	0.137624	0.572888
C61	C	1.029433	-0.362360	-0.072665
C62	C	1.529433	0.137640	0.427335
C63	C	1.068315	-0.423358	0.000114
C64	C	1.568315	0.076642	0.500114
C65	C	0.992217	-0.207586	0.000073
C66	C	1.492217	0.292414	0.500073
C67	C	0.985984	-0.562502	0.000055
C68	C	1.485984	-0.062502	0.500055
C69	C	1.142181	0.108821	0.000074
C70	C	1.642181	0.608821	0.500074
C71	C	1.235131	0.110478	0.000075
C72	C	1.735131	0.610478	0.500075
C73	C	0.982995	0.268522	0.000053
C74	C	1.482995	0.768522	0.500053
C75	C	0.984652	0.361768	0.000047
C76	C	1.484652	0.861768	0.500047
N77	N	0.989055	0.114963	0.229965
N78	N	1.489055	0.614963	0.729965
N79	N	0.989149	0.114935	-0.229836
N80	N	1.489149	0.614935	0.270164
C81	C	0.989118	0.114945	0.589166
C82	C	1.489118	0.614945	1.089166
C83	C	0.920105	0.183717	0.551550
C84	C	1.420105	0.683717	1.051550
C85	C	0.920264	0.183968	0.448724
C86	C	1.420264	0.683968	0.948724
C87	C	0.989086	0.114954	0.410962
C88	C	1.489086	0.614954	0.910962
C89	C	1.076452	0.134096	0.448258
C90	C	1.576452	0.634096	0.948258
C91	C	1.076065	0.134585	0.551116
C92	C	1.576065	0.634585	1.051116
C93	C	0.971544	0.026826	0.551271
C94	C	1.471544	0.526826	1.051271
C95	C	0.969539	0.027414	0.448407
C96	C	1.469539	0.527414	0.948407
C97	C	0.989074	0.114958	0.310249
C98	C	1.489074	0.614958	0.810249
C99	C	0.989136	0.114943	0.689879
C100	C	1.489136	0.614943	1.189879
H101	H	0.416880	0.126380	-0.147262
H102	H	0.916880	0.626380	0.352738
H103	H	1.063524	-0.342234	-0.134178
H104	H	1.563524	0.157766	0.365822
N105	N	0.392724	0.251013	0.084287
N106	N	0.892724	0.751013	0.584287
H107	H	0.358228	0.261100	0.140193
H108	H	0.858228	0.761100	0.640193
H109	H	0.437044	0.291333	0.082281
H110	H	0.937044	0.791333	0.582281
N111	N	0.821247	-0.302587	0.000141
N112	N	1.321247	0.197413	0.500141
H113	H	0.822986	-0.239467	-0.000422
H114	H	1.322986	0.260533	0.499578
H115	H	0.790521	-0.319834	-0.054251
H116	H	1.290521	0.180166	0.445749
H117	H	1.135309	-0.456521	0.000160
H118	H	1.635309	0.043479	0.500160
N119	N	0.903534	-0.434351	0.154293
N120	N	1.403534	0.065649	0.654293
H121	H	0.853494	-0.463547	0.135733
H122	H	1.353494	0.036453	0.635733
H123	H	0.943229	-0.474377	0.190712
H124	H	1.443229	0.025623	0.690712
N125	N	0.550534	0.252359	-0.088384
N126	N	1.050534	0.752359	0.411616
H127	H	0.585901	0.264959	-0.035563
H128	H	1.085901	0.764959	0.464437
H129	H	0.582195	0.261665	-0.144863
H130	H	1.082195	0.761665	0.355137
H131	H	0.914676	-0.427799	-0.134190
H132	H	1.414676	0.072201	0.365810
N133	N	1.074522	-0.335906	0.154459
N134	N	1.574522	0.164094	0.654459
H135	H	1.075338	-0.272661	0.153974
H136	H	1.575338	0.227339	0.653974
H137	H	1.044256	-0.352846	0.209299
H138	H	1.544256	0.147154	0.709299
H139	H	0.577852	-0.012314	0.060467
H140	H	1.077852	0.487686	0.560467
H141	H	0.414251	0.131301	0.147406
H142	H	0.914251	0.631301	0.647406
H143	H	0.402933	0.226847	-0.088103
H144	H	0.902933	0.726847	0.411897
N145	N	0.569406	0.120050	-0.167281
N146	N	1.069406	0.620050	0.332719
H147	H	0.613029	0.071839	-0.150522
H148	H	1.113029	0.571839	0.349478
H149	H	0.523539	0.097755	-0.203386
H150	H	1.023539	0.597755	0.296614
N151	N	1.096558	0.219715	0.582884
N152	N	1.596558	0.719715	1.082884
H153	H	1.096507	0.220886	0.649883
H154	H	1.596507	0.720886	1.149883
H155	H	1.153938	0.230017	0.560230
H156	H	1.653938	0.730017	1.060230
N157	N	0.834245	0.168865	0.415315
N158	N	1.334245	0.668865	0.915315
H159	H	0.795882	0.161985	0.467405
H160	H	1.295882	0.661985	0.967405
H161	H	0.810188	0.218561	0.378188
H162	H	1.310188	0.718561	0.878188
N163	N	0.833802	0.168869	0.584342
N164	N	1.333802	0.668869	1.084342
H165	H	0.838598	0.117420	0.623903
H166	H	1.338598	0.617420	1.123903
H167	H	0.808555	0.219751	0.619008
H168	H	1.308555	0.719751	1.119008
H169	H	0.559048	0.128236	0.146982
H170	H	1.059048	0.628236	0.646982
N171	N	0.552093	0.251271	0.091384
N172	N	1.052093	0.751271	0.591384
H173	H	0.615077	0.251776	0.095139
H174	H	1.115077	0.751776	0.595139
H175	H	0.529931	0.283812	0.037208
H176	H	1.029931	0.783812	0.537208
H177	H	0.931174	0.248741	0.577385
H178	H	1.431174	0.748741	1.077385
N179	N	0.934905	0.270646	0.416104
N180	N	1.434905	0.770646	0.916104
H181	H	0.941310	0.308833	0.468543
H182	H	1.441310	0.808833	0.968543
H183	H	0.987758	0.266340	0.378933
H184	H	1.487758	0.766340	0.878933
H185	H	1.129033	0.085338	0.423796
H186	H	1.629033	0.585338	0.923796
N187	N	1.146104	0.070733	0.584085
N188	N	1.646104	0.570733	1.084085
H189	H	1.177098	0.042400	0.531798
H190	H	1.677098	0.542400	1.031798
H191	H	1.186451	0.100230	0.621229
H192	H	1.686451	0.600230	1.121229
N193	N	1.097465	0.218248	0.414123
N194	N	1.597465	0.718248	0.914123
H195	H	1.050520	0.244086	0.374510
H196	H	1.550520	0.744086	0.874510
H197	H	1.104320	0.257121	0.465873
H198	H	1.604320	0.757121	0.965873
N199	N	0.888976	0.002451	0.585664
N200	N	1.388976	0.502451	1.085664
H201	H	0.862125	0.048289	0.626164
H202	H	1.362125	0.548289	1.126164
H203	H	0.850194	-0.004987	0.534087
H204	H	1.350194	0.495013	1.034087
N205	N	1.031799	-0.043558	0.414379
N206	N	1.531799	0.456442	0.914379
H207	H	1.073746	-0.019864	0.374028
H208	H	1.573746	0.480136	0.874028
H209	H	1.062376	-0.073293	0.466132
H210	H	1.562376	0.426707	0.966132
H211	H	0.905272	0.012886	0.424031
H212	H	1.405272	0.512886	0.924031
H213	H	1.021871	-0.024352	0.575596
H214	H	1.521871	0.475648	1.075596
H215	H	0.433164	-0.014912	-0.059693
H216	H	0.933164	0.485088	0.440307
N217	N	0.428200	-0.026994	0.080451
N218	N	0.928200	0.473006	0.580451
H219	H	0.386093	0.010035	0.117276
H220	H	0.886093	0.510035	0.617276
H221	H	0.402262	-0.078636	0.060282
H222	H	0.902262	0.421364	0.560282
H223	H	0.577307	-0.012561	-0.060445
H224	H	1.077307	0.487439	0.439555
