data_functionalizedCrystal
_audit_creation_method	'MofGen! by Chris Wilmer'
_symmetry_space_group_name_H-M	'P1'
_symmetry_Int_Tables_number	1
_symmetry_cell_setting	triclinic
loop_
_symmetry_equiv_pos_as_xyz
  x,y,z
_cell_length_a	16.120530
_cell_length_b	16.120444
_cell_length_c	16.120297
_cell_angle_alpha	95.615117
_cell_angle_beta	90.128140
_cell_angle_gamma	90.168401
loop_
_atom_site_label
_atom_site_type_symbol
_atom_site_fract_x
_atom_site_fract_y
_atom_site_fract_z
Zn1	Zn	1.224979	-0.422266	-0.554818
Zn2	Zn	1.724979	0.077734	-0.054818
Zn3	Zn	1.224872	-0.554951	-0.422125
Zn4	Zn	1.724872	-0.054951	0.077875
Zn5	Zn	1.093719	-0.408182	-0.408061
Zn6	Zn	1.593719	0.091818	0.091939
Zn7	Zn	1.078869	-0.554183	-0.554057
Zn8	Zn	1.578869	-0.054183	-0.054057
O9	O	1.155610	-0.484895	-0.484765
O10	O	1.655610	0.015105	0.015235
O11	O	1.341001	-0.446082	-0.543421
O12	O	1.841001	0.053918	-0.043421
O13	O	1.213644	-0.529908	-0.303627
O14	O	1.713644	-0.029908	0.196373
O15	O	1.117390	-0.293419	-0.421961
O16	O	1.617390	0.206581	0.078039
O17	O	1.340922	-0.543565	-0.445931
O18	O	1.840922	-0.043565	0.054069
O19	O	1.213826	-0.303767	-0.529783
O20	O	1.713826	0.196233	-0.029783
O21	O	1.117286	-0.422078	-0.293294
O22	O	1.617286	0.077922	0.206706
O23	O	0.975713	-0.421333	-0.421223
O24	O	1.475713	0.078667	0.078777
O25	O	1.092082	-0.542257	-0.670791
O26	O	1.592082	-0.042257	-0.170791
O27	O	0.964804	-0.528600	-0.528486
O28	O	1.464804	-0.028600	-0.028486
O29	O	1.199428	-0.445338	-0.671350
O30	O	1.699428	0.054662	-0.171350
O31	O	1.199245	-0.671480	-0.445193
O32	O	1.699245	-0.171480	0.054807
O33	O	1.091978	-0.670916	-0.542124
O34	O	1.591978	-0.170916	-0.042124
C35	C	0.940172	-0.473356	-0.473247
C36	C	1.440172	0.026644	0.026753
C37	C	0.848004	-0.468440	-0.468340
C38	C	1.348004	0.031560	0.031660
C39	C	1.144010	-0.701441	-0.495121
C40	C	1.644010	-0.201441	0.004879
C41	C	1.139122	-0.794086	-0.499584
C42	C	1.639122	-0.294086	0.000416
C43	C	0.679253	-0.459446	-0.459387
C44	C	1.179253	0.040554	0.040613
C45	C	0.632801	-0.510409	-0.510208
C46	C	1.132801	-0.010409	-0.010208
C47	C	0.538902	-0.505404	-0.505226
C48	C	1.038902	-0.005404	-0.005226
C49	C	0.773160	-0.464449	-0.464367
C50	C	1.273160	0.035551	0.035633
C51	C	1.181160	-1.005244	-0.461807
C52	C	1.681160	-0.505244	0.038193
C53	C	1.130213	-0.963704	-0.507740
C54	C	1.630213	-0.463704	-0.007740
C55	C	1.135171	-0.869320	-0.503201
C56	C	1.635171	-0.369320	-0.003201
C57	C	1.176203	-1.099637	-0.466346
C58	C	1.676203	-0.599637	0.033654
C59	C	1.371889	-0.496481	-0.496330
C60	C	1.871889	0.003519	0.003670
C61	C	1.464055	-0.501417	-0.501258
C62	C	1.964055	-0.001417	-0.001258
C63	C	1.144110	-0.495283	-0.702158
C64	C	1.644110	0.004717	-0.202158
C65	C	1.139210	-0.499710	-0.794797
C66	C	1.639210	0.000290	-0.294797
C67	C	1.167277	-0.267506	-0.474388
C68	C	1.667277	0.232494	0.025612
C69	C	1.172248	-0.174868	-0.469966
C70	C	1.672248	0.325132	0.030034
C71	C	1.130233	-0.507771	-0.964409
C72	C	1.630233	-0.007771	-0.464409
C73	C	1.181163	-0.461778	-1.005971
C74	C	1.681163	0.038222	-0.505971
C75	C	1.176169	-0.466264	-1.100348
C76	C	1.676169	0.033736	-0.600348
C77	C	1.135227	-0.503287	-0.870023
C78	C	1.635227	-0.003287	-0.370023
C79	C	1.167116	-0.474490	-0.268218
C80	C	1.667116	0.025510	0.231782
C81	C	1.172189	-0.469838	-0.175577
C82	C	1.672189	0.030162	0.324423
H83	H	0.648503	-0.412062	-0.412140
H84	H	1.148503	0.087938	0.087860
H85	H	0.663552	-0.557796	-0.557459
H86	H	1.163552	-0.057796	-0.057459
O87	O	1.073811	-1.005807	-0.558841
O88	O	1.573811	-0.505807	-0.058841
C89	C	1.024516	-1.037195	-0.699676
C90	C	1.524516	-0.537195	-0.199676
C91	C	1.088451	-0.989482	-0.641908
C92	C	1.588451	-0.489482	-0.141908
H93	H	1.036318	-1.024000	-0.766845
H94	H	1.536318	-0.524000	-0.266845
H95	H	1.030523	-1.106927	-0.694374
H96	H	1.530523	-0.606927	-0.194374
H97	H	0.959328	-1.015935	-0.680559
H98	H	1.459328	-0.515935	-0.180559
H99	H	1.153667	-1.010672	-0.660987
H100	H	1.653667	-0.510672	-0.160987
H101	H	1.082370	-0.919759	-0.647218
H102	H	1.582370	-0.419759	-0.147218
H103	H	1.228516	-0.419032	-0.970673
H104	H	1.728516	0.080968	-0.470673
H105	H	1.228498	-0.969926	-0.419075
H106	H	1.728498	-0.469926	0.080925
O107	O	1.073820	-0.558751	-1.006643
O108	O	1.573820	-0.058751	-0.506643
C109	C	1.017300	-0.609695	-1.140586
C110	C	1.517300	-0.109695	-0.640586
C111	C	1.081235	-0.551939	-1.092849
C112	C	1.581235	-0.051939	-0.592849
H113	H	1.023262	-0.604193	-1.210290
H114	H	1.523262	-0.104193	-0.710290
H115	H	1.029141	-0.676907	-1.127593
H116	H	1.529141	-0.176907	-0.627593
H117	H	0.952116	-0.590698	-1.119201
H118	H	1.452116	-0.090698	-0.619201
H119	H	1.146444	-0.570861	-1.114205
H120	H	1.646444	-0.070861	-0.614205
H121	H	1.069322	-0.484740	-1.105842
H122	H	1.569322	0.015260	-0.605842
