data_functionalizedCrystal
_audit_creation_method	'MofGen! by Chris Wilmer'
_symmetry_space_group_name_H-M	'P1'
_symmetry_Int_Tables_number	1
_symmetry_cell_setting	triclinic
loop_
_symmetry_equiv_pos_as_xyz
  x,y,z
_cell_length_a	10.540539
_cell_length_b	9.130313
_cell_length_c	10.654543
_cell_angle_alpha	90.001014
_cell_angle_beta	95.496168
_cell_angle_gamma	89.998539
loop_
_atom_site_label
_atom_site_type_symbol
_atom_site_fract_x
_atom_site_fract_y
_atom_site_fract_z
O1	O	1.685818	-0.121718	-0.176992
O2	O	1.316398	-0.121735	-0.193669
O3	O	1.509606	-0.121729	-0.002594
O4	O	1.492610	-0.121723	-0.368067
O5	O	1.509593	0.121870	-0.002588
O6	O	1.316385	0.121864	-0.193663
O7	O	1.685804	0.121881	-0.176987
Cu8	Cu	1.501093	0.144115	-0.185324
Cu9	Cu	1.501109	-0.143969	-0.185331
O10	O	1.492596	0.121875	-0.368062
C11	C	1.269089	0.000062	-0.192415
C12	C	1.128142	0.000055	-0.188674
N13	N	1.501091	0.346738	-0.185319
N14	N	1.501121	-0.346591	-0.185327
C15	C	0.944771	0.000622	-0.045302
C16	C	1.091387	0.000058	-0.049095
C17	C	1.066452	-0.139045	-0.255848
C18	C	0.919909	-0.139146	-0.251084
C19	C	0.919404	0.137871	-0.253918
C20	C	1.066386	0.139695	-0.255203
C21	C	1.733113	0.000081	-0.178240
C22	C	1.874060	0.000078	-0.181982
C23	C	1.508353	0.000066	0.044208
C24	C	1.504625	0.000054	0.183653
C25	C	1.586673	0.423392	-0.100747
C26	C	1.586685	0.576729	-0.100747
C27	C	1.415530	0.576744	-0.269903
C28	C	1.415513	0.423410	-0.269895
C29	C	1.618382	0.000054	0.263098
C30	C	1.614871	0.000027	0.394121
C31	C	1.383836	0.000007	0.366239
C32	C	1.387348	0.000023	0.235219
C33	C	1.493855	0.000060	0.585138
C34	C	1.497602	0.000011	0.445695
H35	H	1.134016	0.099771	0.003761
Br36	Br	1.702812	0.319343	0.014037
H37	H	1.713875	0.000076	0.221118
H38	H	0.914590	-0.098581	0.009604
Br39	Br	1.299349	0.319366	-0.384669
Br40	Br	1.103679	-0.147709	-0.426682
H41	H	1.707504	0.000023	0.458801
H42	H	1.109064	-0.242568	-0.209189
Br43	Br	1.702830	0.680757	0.014039
H44	H	0.887869	0.243308	-0.208744
H45	H	1.288354	-0.000015	0.408241
H46	H	1.294708	0.000019	0.170530
H47	H	1.107361	0.242601	-0.206130
H48	H	0.916201	0.100379	0.009842
H49	H	1.133159	-0.099830	0.004129
H50	H	0.891723	-0.243127	-0.201441
Br51	Br	0.839886	-0.149666	-0.418390
Br52	Br	1.106687	0.153698	-0.424820
H53	H	0.872138	0.138812	-0.354734
Br54	Br	1.299394	0.680803	-0.384683
