data_functionalizedCrystal
_audit_creation_method	'MofGen! by Chris Wilmer'
_symmetry_space_group_name_H-M	'P1'
_symmetry_Int_Tables_number	1
_symmetry_cell_setting	triclinic
loop_
_symmetry_equiv_pos_as_xyz
  x,y,z
_cell_length_a	16.959455
_cell_length_b	16.625545
_cell_length_c	16.625539
_cell_angle_alpha	89.976096
_cell_angle_beta	90.016328
_cell_angle_gamma	89.973622
loop_
_atom_site_label
_atom_site_type_symbol
_atom_site_fract_x
_atom_site_fract_y
_atom_site_fract_z
Zn1	Zn	1.208359	0.321027	0.455908
Zn2	Zn	1.208262	0.455866	0.321081
Zn3	Zn	1.076183	0.321050	0.321090
Zn4	Zn	1.076136	0.455820	0.455873
O5	O	1.142235	0.388441	0.388488
O6	O	1.318957	0.338924	0.438034
O7	O	1.190720	0.438011	0.208250
O8	O	1.093777	0.208214	0.338993
O9	O	1.318885	0.437989	0.338977
O10	O	1.190886	0.208198	0.438043
O11	O	1.093683	0.338962	0.208256
O12	O	0.965566	0.338918	0.338958
O13	O	1.093696	0.437911	0.568710
O14	O	0.965531	0.437933	0.437982
O15	O	1.190840	0.338879	0.568736
O16	O	1.190674	0.568692	0.338943
O17	O	1.093602	0.568659	0.437974
C18	C	0.936869	0.388423	0.388468
C19	C	0.849012	0.388435	0.388479
C20	C	0.807699	0.439941	0.336831
C21	C	0.807771	0.336936	0.440133
C22	C	0.725226	0.336943	0.440142
C23	C	0.683913	0.388448	0.388495
C24	C	0.725146	0.439947	0.336837
C25	C	0.683987	0.285439	0.491793
C26	C	0.601436	0.285442	0.491804
C27	C	0.560121	0.336953	0.440160
C28	C	0.601359	0.388454	0.388501
C29	C	0.560046	0.439960	0.336853
C30	C	0.601283	0.491466	0.285198
C31	C	0.683831	0.491457	0.285193
C32	C	0.477573	0.336961	0.440165
C33	C	0.477493	0.439966	0.336860
C34	C	1.142144	0.597932	0.388471
C35	C	1.142177	0.687553	0.388491
C36	C	1.142206	0.760335	0.388510
C37	C	1.142250	0.851644	0.388531
C38	C	1.142290	0.924420	0.388545
C39	C	1.142333	1.015734	0.388565
C40	C	1.348403	0.388459	0.388508
C41	C	1.436260	0.388467	0.388517
C42	C	1.142274	0.388388	0.598797
C43	C	1.142290	0.388365	0.688418
C44	C	1.142342	1.178132	0.388533
C45	C	1.142372	1.088511	0.388578
C46	C	1.142242	0.388436	0.178997
C47	C	1.142378	0.388231	0.089376
C48	C	1.142303	0.388347	0.761201
C49	C	1.142322	0.388317	0.852509
C50	C	1.142340	0.388289	0.925286
C51	C	1.142360	0.388260	1.016600
H52	H	0.443861	0.481912	0.294805
H53	H	0.567635	0.533398	0.243144
C54	C	0.432216	0.280308	0.496981
N55	N	0.398055	0.237635	0.539781
H56	H	0.717413	0.533389	0.243136
H57	H	0.841277	0.481878	0.294777
H58	H	0.841413	0.294999	0.482178
H59	H	0.567868	0.243504	0.533866
H60	H	0.717630	0.243503	0.533838
