data_functionalizedCrystal
_audit_creation_method	'MofGen! by Chris Wilmer'
_symmetry_space_group_name_H-M	'P1'
_symmetry_Int_Tables_number	1
_symmetry_cell_setting	triclinic
loop_
_symmetry_equiv_pos_as_xyz
  x,y,z
_cell_length_a	23.532407
_cell_length_b	14.519709
_cell_length_c	12.996460
_cell_angle_alpha	90.007090
_cell_angle_beta	90.000251
_cell_angle_gamma	83.264411
loop_
_atom_site_label
_atom_site_type_symbol
_atom_site_fract_x
_atom_site_fract_y
_atom_site_fract_z
O1	O	-0.755765	-0.111951	-0.085441
O2	O	-0.255765	0.388049	0.414559
O3	O	-0.589975	-0.128149	-0.085471
O4	O	-0.089975	0.371851	0.414529
O5	O	-0.677266	0.014240	-0.085446
O6	O	-0.177266	0.514240	0.414554
O7	O	-0.668475	-0.254341	-0.085466
O8	O	-0.168475	0.245659	0.414534
O9	O	-0.677257	0.014248	0.085688
O10	O	-0.177257	0.514248	0.585688
O11	O	-0.589966	-0.128141	0.085663
O12	O	-0.089966	0.371859	0.585663
O13	O	-0.755756	-0.111943	0.085693
O14	O	-0.255756	0.388057	0.585693
Cu15	Cu	-0.672860	-0.120042	0.101304
Cu16	Cu	-0.172860	0.379958	0.601304
Cu17	Cu	-0.672871	-0.120051	-0.101082
Cu18	Cu	-0.172871	0.379949	0.398918
O19	O	-0.668465	-0.254333	0.085668
O20	O	-0.168465	0.245667	0.585668
C21	C	-0.676852	0.048599	0.000121
C22	C	-0.176852	0.548599	0.500121
C23	C	-0.675624	0.150966	0.000121
C24	C	-0.175624	0.650966	0.500121
C25	C	-0.568753	-0.127733	0.000092
C26	C	-0.068753	0.372267	0.500092
C27	C	-0.505530	-0.126493	0.000081
C28	C	-0.005530	0.373507	0.500081
C29	C	-0.776979	-0.112360	0.000128
C30	C	-0.276979	0.387640	0.500128
C31	C	-0.840201	-0.113600	0.000132
C32	C	-0.340201	0.386400	0.500132
C33	C	-0.106772	-0.202977	0.000121
C34	C	0.393228	0.297023	0.500121
C35	C	-0.047367	-0.201825	0.000128
C36	C	0.452633	0.298175	0.500128
O37	O	-0.010942	-0.272727	0.000160
O38	O	0.489058	0.227273	0.500160
N39	N	-0.024358	-0.117175	0.000132
N40	N	0.475642	0.382825	0.500132
C41	C	-0.060759	-0.033671	0.000141
C42	C	0.439241	0.466329	0.500141
O43	O	-0.035734	0.038437	0.000147
O44	O	0.464266	0.538437	0.500147
C45	C	-0.120164	-0.034824	0.000142
C46	C	0.379836	0.465176	0.500142
C47	C	-0.143168	-0.119480	0.000127
C48	C	0.356832	0.380520	0.500127
C49	C	-0.129777	-0.287626	0.000107
C50	C	0.370223	0.212374	0.500107
C51	C	-0.189179	-0.288778	0.000099
C52	C	0.310821	0.211222	0.500099
C53	C	-0.225575	-0.205281	0.000105
C54	C	0.274425	0.294719	0.500105
C55	C	-0.202570	-0.120631	0.000119
C56	C	0.297430	0.379369	0.500119
C57	C	-0.156563	0.048679	0.000158
C58	C	0.343437	0.548679	0.500158
C59	C	-0.215971	0.047519	0.000160
C60	C	0.284029	0.547519	0.500160
C61	C	-0.238976	-0.037137	0.000145
C62	C	0.261024	0.462863	0.500145
C63	C	-0.298367	-0.038286	0.000116
C64	C	0.201633	0.461714	0.500116
N65	N	-0.321375	-0.122936	0.000111
N66	N	0.178625	0.377064	0.500111
C67	C	-0.284979	-0.206434	0.000106
C68	C	0.215021	0.293566	0.500106
C69	C	0.063994	-0.031256	0.000141
C70	C	0.563994	0.468744	0.500141
C71	C	0.123397	-0.030102	0.000133
C72	C	0.623397	0.469898	0.500133
C73	C	0.136786	-0.198257	0.000121
C74	C	0.636786	0.301743	0.500121
C75	C	0.077382	-0.199410	0.000122
C76	C	0.577382	0.300590	0.500122
C77	C	0.040986	-0.115906	0.000136
C78	C	0.540986	0.384094	0.500136
C79	C	-0.409727	-0.208846	0.000087
C80	C	0.090273	0.291154	0.500087
C81	C	-0.469134	-0.209990	0.000075
C82	C	0.030866	0.290010	0.500075
C83	C	-0.482517	-0.041836	0.000092
C84	C	0.017483	0.458164	0.500092
C85	C	-0.423115	-0.040691	0.000099
C86	C	0.076885	0.459309	0.500099
C87	C	-0.386721	-0.124204	0.000100
C88	C	0.113279	0.375796	0.500100
O89	O	-0.334827	0.032579	0.000088
O90	O	0.165173	0.532579	0.500088
O91	O	-0.310012	-0.278529	0.000114
O92	O	0.189988	0.221471	0.500114
C93	C	-0.668880	-0.288692	0.000099
C94	C	-0.168880	0.211308	0.500099
C95	C	-0.670107	-0.391058	0.000091
C96	C	-0.170107	0.108942	0.500091
N97	N	-0.672857	-0.120035	0.243651
N98	N	-0.172857	0.379965	0.743651
C99	C	-0.671104	0.525808	0.000094
C100	C	-0.171104	1.025808	0.500094
C101	C	-0.672359	0.421515	0.000102
C102	C	-0.172359	0.921515	0.500102
C103	C	-0.673364	0.338390	0.000109
C104	C	-0.173364	0.838390	0.500109
C105	C	-0.674619	0.234091	0.000115
C106	C	-0.174619	0.734091	0.500115
N107	N	-0.672879	-0.120050	-0.243429
N108	N	-0.172879	0.379950	0.256571
C109	C	-0.672870	-0.120052	0.663465
C110	C	-0.172870	0.379948	1.163465
C111	C	-0.672865	-0.120050	0.546660
C112	C	-0.172865	0.379950	1.046660
C113	C	-0.672864	-0.120044	0.453562
C114	C	-0.172864	0.379956	0.953562
C115	C	-0.672858	-0.120041	0.336749
C116	C	-0.172858	0.379959	0.836749
H117	H	-0.487860	-0.278930	0.000062
H118	H	0.012140	0.221070	0.500062
H119	H	-0.380101	-0.276850	0.000092
H120	H	0.119899	0.223150	0.500092
C121	C	-0.089750	-0.379489	0.000105
C122	C	0.410250	0.120511	0.500105
N123	N	-0.059604	-0.448686	0.000097
N124	N	0.440396	0.051314	0.500097
C125	C	-0.131272	0.141809	0.000195
C126	C	0.368728	0.641809	0.500195
N127	N	-0.112224	0.211960	0.000231
N128	N	0.387776	0.711960	0.500231
C129	C	0.176833	-0.290106	0.000125
C130	C	0.676833	0.209894	0.500125
N131	N	0.206998	-0.359282	0.000130
N132	N	0.706998	0.140718	0.500130
C133	C	-0.214475	-0.381907	0.000104
C134	C	0.285525	0.118093	0.500104
N135	N	-0.233525	-0.452057	0.000117
N136	N	0.266475	0.047943	0.500117
C137	C	-0.522564	0.050007	0.000110
C138	C	-0.022564	0.550007	0.500110
N139	N	-0.552729	0.119183	0.000135
N140	N	-0.052729	0.619183	0.500135
C141	C	-0.397810	0.052434	0.000102
C142	C	0.102190	0.552434	0.500102
N143	N	-0.378753	0.122578	0.000114
N144	N	0.121247	0.622578	0.500114
C145	C	0.052083	-0.292537	0.000117
C146	C	0.552083	0.207463	0.500117
N147	N	0.033031	-0.362684	0.000117
N148	N	0.533031	0.137316	0.500117
C149	C	0.148695	0.063026	0.000142
C150	C	0.648695	0.563026	0.500142
N151	N	0.167747	0.133174	0.000158
N152	N	0.667747	0.633174	0.500158
H153	H	0.034363	0.036747	0.000143
H154	H	0.534363	0.536747	0.500143
H155	H	-0.245602	0.115519	0.000172
H156	H	0.254398	0.615519	0.500172
