data_functionalizedCrystal
_audit_creation_method	'MofGen! by Chris Wilmer'
_symmetry_space_group_name_H-M	'P1'
_symmetry_Int_Tables_number	1
_symmetry_cell_setting	triclinic
loop_
_symmetry_equiv_pos_as_xyz
  x,y,z
_cell_length_a	14.044220
_cell_length_b	16.098538
_cell_length_c	17.019370
_cell_angle_alpha	83.407930
_cell_angle_beta	88.280241
_cell_angle_gamma	92.982557
loop_
_atom_site_label
_atom_site_type_symbol
_atom_site_fract_x
_atom_site_fract_y
_atom_site_fract_z
O1	O	1.260867	0.055722	0.187562
O2	O	1.594200	0.389055	0.520896
O3	O	1.927534	0.722388	0.854229
O4	O	0.984939	0.056236	0.180676
O5	O	1.318272	0.389570	0.514010
O6	O	1.651605	0.722903	0.847343
O7	O	1.131106	0.064193	0.069447
O8	O	1.464439	0.397527	0.402781
O9	O	1.797772	0.730860	0.736114
O10	O	1.114700	0.047764	0.298791
O11	O	1.448033	0.381098	0.632125
O12	O	1.781367	0.714431	0.965458
O13	O	1.122567	-0.074782	0.075917
O14	O	1.455901	0.258551	0.409250
O15	O	1.789234	0.591884	0.742584
O16	O	0.976400	-0.082740	0.187146
O17	O	1.309734	0.250594	0.520479
O18	O	1.643067	0.583927	0.853813
O19	O	1.252329	-0.083254	0.194032
O20	O	1.585662	0.250079	0.527365
O21	O	1.918995	0.583412	0.860699
Zn22	Zn	1.113009	-0.105062	0.191616
Zn23	Zn	1.446342	0.228271	0.524950
Zn24	Zn	1.779676	0.561604	0.858283
Zn25	Zn	1.124258	0.078044	0.183092
Zn26	Zn	1.457592	0.411378	0.516426
Zn27	Zn	1.790925	0.744711	0.849759
O28	O	1.106162	-0.091211	0.305261
O29	O	1.439495	0.242122	0.638594
O30	O	1.772828	0.575455	0.971928
C31	C	0.945373	-0.013033	0.180897
C32	C	1.278706	0.320300	0.514231
C33	C	1.612039	0.653634	0.847564
C34	C	0.840199	-0.012381	0.171907
C35	C	1.173532	0.320953	0.505241
C36	C	1.506866	0.654286	0.838574
N37	N	1.105338	-0.230028	0.197434
N38	N	1.438672	0.103306	0.530767
N39	N	1.772005	0.436639	0.864100
C40	C	0.647631	-0.011220	0.155474
C41	C	0.980964	0.322114	0.488807
C42	C	1.314298	0.655447	0.822140
C43	C	0.589631	-0.015791	0.219231
C44	C	0.922965	0.317543	0.552564
C45	C	1.256298	0.650876	0.885898
C46	C	0.482480	-0.015145	0.210087
C47	C	0.815813	0.318189	0.543420
C48	C	1.149146	0.651522	0.876754
C49	C	0.754792	-0.011866	0.164616
C50	C	1.088126	0.321468	0.497950
C51	C	1.421459	0.654801	0.831283
C52	C	1.167400	-0.270237	0.150243
C53	C	1.500733	0.063097	0.483577
C54	C	1.834067	0.396430	0.816910
C55	C	1.162043	-0.357717	0.154321
C56	C	1.495376	-0.024384	0.487654
C57	C	1.828710	0.308949	0.820988
C58	C	1.094628	-0.404988	0.205594
C59	C	1.427961	-0.071654	0.538927
C60	C	1.761295	0.261679	0.872260
C61	C	1.032560	-0.364773	0.252786
C62	C	1.365893	-0.031439	0.586119
C63	C	1.699226	0.301894	0.919452
C64	C	1.037913	-0.277293	0.248703
C65	C	1.371246	0.056040	0.582037
C66	C	1.704580	0.389373	0.915370
C67	C	1.075222	-0.669295	0.220379
C68	C	1.408555	-0.335962	0.553712
C69	C	1.741888	-0.002629	0.887045
C70	C	1.069875	-0.756781	0.224459
C71	C	1.403208	-0.423448	0.557793
C72	C	1.736542	-0.090114	0.891126
C73	C	1.199357	-0.749719	0.125993
C74	C	1.532691	-0.416386	0.459327
C75	C	1.866024	-0.083053	0.792660
C76	C	1.204709	-0.662239	0.121919
C77	C	1.538042	-0.328906	0.455252
C78	C	1.871375	0.004428	0.788586
C79	C	1.142637	-0.622031	0.169108
C80	C	1.475970	-0.288698	0.502441
C81	C	1.809304	0.044635	0.835774
C82	C	1.089153	-0.494407	0.209765
C83	C	1.422486	-0.161074	0.543098
C84	C	1.755819	0.172259	0.876431
C85	C	1.148109	-0.532613	0.164932
C86	C	1.481442	-0.199280	0.498265
C87	C	1.814775	0.134054	0.831599
C88	C	1.291895	-0.013983	0.193811
C89	C	1.625228	0.319350	0.527144
C90	C	1.958562	0.652683	0.860478
C91	C	1.397069	-0.014630	0.202801
C92	C	1.730402	0.318703	0.536134
C93	C	2.063736	0.652037	0.869467
C94	C	1.126383	-0.003177	0.043154
C95	C	1.459716	0.330156	0.376487
C96	C	1.793049	0.663490	0.709821
C97	C	1.125019	0.003132	-0.044832
C98	C	1.458352	0.336465	0.288501
C99	C	1.791685	0.669798	0.621834
N100	N	1.131937	0.203010	0.177269
N101	N	1.465270	0.536343	0.510602
N102	N	1.798603	0.869677	0.843936
C103	C	1.119722	-0.069656	-0.082649
C104	C	1.453055	0.263677	0.250684
C105	C	1.786388	0.597010	0.584018
C106	C	1.118447	-0.063721	-0.165322
C107	C	1.451780	0.269612	0.168011
C108	C	1.785113	0.602945	0.501345
C109	C	1.122462	0.015003	-0.210176
C110	C	1.455795	0.348336	0.123157
C111	C	1.789129	0.681669	0.456490
C112	C	1.127762	0.087796	-0.172354
C113	C	1.461096	0.421130	0.160979
C114	C	1.794429	0.754463	0.494313
C115	C	1.129044	0.081860	-0.089683
C116	C	1.462377	0.415194	0.243650
C117	C	1.795711	0.748527	0.576984
C118	C	1.118831	0.036715	-0.459966
C119	C	1.452164	0.370049	-0.126633
C120	C	1.785498	0.703382	0.206700
C121	C	1.117546	0.042646	-0.542643
C122	C	1.450879	0.375979	-0.209309
C123	C	1.784213	0.709312	0.124024
C124	C	1.108232	-0.108872	-0.535605
C125	C	1.441566	0.224461	-0.202272
C126	C	1.774899	0.557794	0.131062
C127	C	1.109509	-0.114801	-0.452932
C128	C	1.442842	0.218532	-0.119599
C129	C	1.776176	0.551865	0.213734
C130	C	1.114814	-0.042008	-0.415118
C131	C	1.448147	0.291325	-0.081784
C132	C	1.781481	0.624659	0.251549
C133	C	1.121156	0.021071	-0.294681
C134	C	1.454489	0.354405	0.038652
C135	C	1.787823	0.687738	0.371985
C136	C	1.116127	-0.048077	-0.330614
C137	C	1.449460	0.285256	0.002719
C138	C	1.782794	0.618589	0.336052
C139	C	1.110885	-0.023839	0.331554
C140	C	1.444218	0.309494	0.664888
C141	C	1.777552	0.642828	0.998221
C142	C	1.112249	-0.030142	0.419540
C143	C	1.445582	0.303191	0.752874
C144	C	1.778916	0.636524	1.086207
H145	H	0.620449	-0.020189	0.280683
H146	H	0.953783	0.313145	0.614016
H147	H	1.287116	0.646478	0.947350
H148	H	1.120807	0.106755	-0.579161
H149	H	1.454140	0.440089	-0.245828
H150	H	1.787473	0.773422	0.087505
H151	H	1.202995	-0.494123	0.123183
H152	H	1.536328	-0.160789	0.456516
H153	H	1.869661	0.172544	0.789850
H154	H	1.123149	0.095989	-0.429187
H155	H	1.456483	0.429322	-0.095854
H156	H	1.789816	0.762656	0.237479
Cl157	Cl	0.600053	-0.004425	0.060602
Cl158	Cl	0.933386	0.328908	0.393935
Cl159	Cl	1.266720	0.662242	0.727268
Cl160	Cl	1.252159	-0.210820	0.085787
Cl161	Cl	1.585493	0.122513	0.419120
Cl162	Cl	1.918826	0.455846	0.752454
H163	H	1.212578	-0.390455	0.115895
H164	H	1.545911	-0.057122	0.449228
H165	H	1.879244	0.276212	0.782561
H166	H	1.259603	-0.623753	0.080169
H167	H	1.592936	-0.290420	0.413502
H168	H	1.926270	0.042914	0.746836
Cl169	Cl	1.132823	0.186764	-0.228743
Cl170	Cl	1.466156	0.520098	0.104590
Cl171	Cl	1.799489	0.853431	0.437923
H172	H	1.034263	-0.532902	0.251513
H173	H	1.367597	-0.199569	0.584847
H174	H	1.700930	0.133765	0.918180
H175	H	1.116436	-0.133762	-0.046134
H176	H	1.449769	0.199571	0.287200
H177	H	1.783103	0.532905	0.620533
H178	H	0.987375	-0.244556	0.287129
H179	H	1.320708	0.088777	0.620463
H180	H	1.654041	0.422111	0.953796
Cl181	Cl	0.947804	-0.424196	0.317240
Cl182	Cl	1.281137	-0.090863	0.650573
Cl183	Cl	1.614470	0.242471	0.983906
H184	H	1.249892	-0.782465	0.087573
H185	H	1.583225	-0.449131	0.420907
H186	H	1.916559	-0.115798	0.754240
H187	H	1.014975	-0.795265	0.266214
H188	H	1.348308	-0.461932	0.599548
H189	H	1.681641	-0.128598	0.932881
Cl190	Cl	0.997195	-0.618755	0.279704
Cl191	Cl	1.330528	-0.285421	0.613037
Cl192	Cl	1.663861	0.047912	0.946370
H193	H	1.103914	-0.168137	-0.566403
H194	H	1.437248	0.165197	-0.233070
H195	H	1.770581	0.498530	0.100264
H196	H	1.114138	-0.122993	-0.196109
H197	H	1.447471	0.210340	0.137225
H198	H	1.780804	0.543674	0.470558
Cl199	Cl	1.104436	-0.213773	-0.396549
Cl200	Cl	1.437769	0.119560	-0.063216
Cl201	Cl	1.771102	0.452894	0.270118
H202	H	1.133358	0.141132	-0.058894
H203	H	1.466692	0.474466	0.274439
H204	H	1.800025	0.807799	0.607773
H205	H	1.112863	-0.112174	-0.294091
H206	H	1.446196	0.221159	0.039243
H207	H	1.779529	0.554493	0.372576
H208	H	1.124423	0.085169	-0.331211
H209	H	1.457756	0.418502	0.002122
H210	H	1.791090	0.751835	0.335456
