data_functionalizedCrystal
_audit_creation_method	'MofGen! by Chris Wilmer'
_symmetry_space_group_name_H-M	'P1'
_symmetry_Int_Tables_number	1
_symmetry_cell_setting	triclinic
loop_
_symmetry_equiv_pos_as_xyz
  x,y,z
_cell_length_a	14.853567
_cell_length_b	17.038272
_cell_length_c	13.930277
_cell_angle_alpha	89.995405
_cell_angle_beta	89.995755
_cell_angle_gamma	87.373243
loop_
_atom_site_label
_atom_site_type_symbol
_atom_site_fract_x
_atom_site_fract_y
_atom_site_fract_z
O1	O	1.204051	0.102086	-0.079765
O2	O	0.942506	0.114247	-0.079782
O3	O	1.071724	-0.005651	-0.079766
O4	O	1.074833	0.221984	-0.079781
O5	O	1.071705	-0.005654	0.079896
O6	O	0.942487	0.114244	0.079880
O7	O	1.204031	0.102083	0.079897
Zn8	Zn	1.073256	0.108163	0.105238
Zn9	Zn	1.073282	0.108167	-0.105123
O10	O	1.074814	0.221981	0.079881
C11	C	0.908866	0.113695	0.000047
C12	C	0.808658	0.112043	0.000041
C13	C	1.068887	-0.034784	0.000065
C14	C	1.060451	-0.121588	0.000064
C15	C	0.390240	0.033841	0.000067
C16	C	0.379678	0.176283	0.000057
C17	C	0.473828	0.177835	0.000054
C18	C	0.526189	0.107390	0.000056
C19	C	0.484399	0.035392	0.000061
C20	C	0.515626	0.249832	0.000039
C21	C	0.609782	0.251388	0.000035
C22	C	0.662144	0.180941	0.000044
C23	C	0.620349	0.108940	0.000050
C24	C	0.672709	0.038495	0.000052
C25	C	0.630915	-0.033507	0.000065
C26	C	0.536762	-0.035055	0.000070
C27	C	0.756298	0.182489	0.000039
C28	C	0.766869	0.040045	0.000046
C29	C	1.137904	-0.171601	0.000070
C30	C	1.129972	-0.253162	0.000060
C31	C	1.044586	-0.284709	0.000051
C32	C	0.967127	-0.234690	0.000043
C33	C	0.975060	-0.153130	0.000045
C34	C	1.016561	-0.530503	0.000036
C35	C	1.008634	-0.612069	0.000037
C36	C	1.171480	-0.630535	0.000052
C37	C	1.179405	-0.548974	0.000061
C38	C	1.101946	-0.498962	0.000047
C39	C	1.036476	-0.368077	0.000045
C40	C	1.110056	-0.415595	0.000047
C41	C	1.237671	0.102636	0.000066
C42	C	1.337879	0.104287	0.000065
C43	C	1.077651	0.251114	0.000048
C44	C	1.086087	0.337918	0.000042
N45	N	1.073245	0.108161	0.248804
N46	N	1.073299	0.108163	-0.248689
C47	C	1.016060	0.161237	0.701066
C48	C	1.130528	0.055091	0.701050
C49	C	1.130517	0.055088	0.600554
C50	C	1.073278	0.108162	0.550310
C51	C	1.016049	0.161237	0.600561
C52	C	1.187750	0.002019	0.550295
C53	C	1.187742	0.002015	0.449793
C54	C	1.130498	0.055085	0.399547
C55	C	1.073267	0.108162	0.449805
C56	C	1.016028	0.161236	0.399561
C57	C	0.958791	0.214310	0.449817
C58	C	0.958805	0.214308	0.550315
C59	C	1.130484	0.055087	0.299048
C60	C	1.016017	0.161236	0.299056
H61	H	0.673560	-0.090863	0.000061
O62	O	1.246691	-0.679149	-0.000114
C63	C	1.246973	-0.726885	-0.082794
H64	H	1.203164	-0.697061	-0.140590
H65	H	1.318898	-0.735974	-0.110549
H66	H	1.219087	-0.786219	-0.064103
H67	H	1.234346	-0.041201	0.408881
H68	H	1.177135	0.011884	0.741962
H69	H	0.897604	-0.260382	0.000030
O70	O	0.899730	-0.104657	0.000082
C71	C	0.822664	-0.149988	0.000050
H72	H	0.840872	-0.210835	0.030282
H73	H	0.768002	-0.119965	0.046395
H74	H	0.796800	-0.155820	-0.076552
H75	H	0.969402	0.204453	0.258153
H76	H	1.177090	0.011879	0.258134
O77	O	1.243213	-0.049609	0.599151
C78	C	1.191226	-0.097907	0.657311
H79	H	1.120024	-0.099342	0.627022
H80	H	1.223246	-0.160000	0.658466
H81	H	1.188369	-0.073436	0.733472
H82	H	0.502724	-0.093675	0.000104
H83	H	1.179577	-0.389906	0.000033
H84	H	0.939099	-0.637751	0.000045
H85	H	0.953488	-0.489793	0.000025
O86	O	1.220918	-0.141089	0.000033
C87	C	1.287577	-0.202726	0.000057
H88	H	1.258054	-0.258154	-0.030171
H89	H	1.346819	-0.185618	-0.046297
H90	H	1.311763	-0.214245	0.076655
O91	O	1.205142	-0.301826	0.000193
C92	C	1.205424	-0.349554	0.082889
H93	H	1.133538	-0.353755	0.110451
H94	H	1.234304	-0.410814	0.064286
H95	H	1.248655	-0.322690	0.140799
H96	H	0.809495	-0.017321	0.000052
O97	O	1.262371	-0.518373	-0.000101
C98	C	1.309990	-0.543930	-0.082774
H99	H	1.260179	-0.560939	-0.140579
H100	H	1.352148	-0.494482	-0.110519
H101	H	1.356146	-0.597035	-0.064075
O102	O	0.349503	-0.036030	0.000037
C103	C	0.255172	-0.022299	0.000072
H104	H	0.237767	0.038696	-0.030160
H105	H	0.222763	-0.068375	-0.046274
H106	H	0.228706	-0.026116	0.076673
O107	O	0.903318	0.265898	0.400899
C108	C	0.955301	0.314227	0.342776
H109	H	1.023467	0.283198	0.327722
H110	H	0.918620	0.326535	0.272104
H111	H	0.965852	0.372029	0.381500
O112	O	0.464800	0.318277	-0.000137
C113	C	0.484602	0.361991	-0.082825
H114	H	0.513581	0.320746	-0.140617
H115	H	0.420281	0.393269	-0.110579
H116	H	0.535954	0.407306	-0.064142
O117	O	0.328916	0.244762	0.000179
C118	C	0.348687	0.288459	0.082878
H119	H	0.418549	0.269333	0.110449
H120	H	0.347078	0.353666	0.064276
H121	H	0.296423	0.277712	0.140781
O122	O	0.953584	-0.398818	-0.000083
C123	C	0.944128	-0.445419	-0.082788
H124	H	1.013637	-0.465644	-0.110358
H125	H	0.904099	-0.498872	-0.064194
H126	H	0.907002	-0.409428	-0.140689
H127	H	0.912206	0.257519	0.591240
H128	H	0.790322	0.241112	0.000030
H129	H	0.643802	0.310016	0.000024
H130	H	0.969456	0.204447	0.741987
