data_functionalizedCrystal
_audit_creation_method	'MofGen! by Chris Wilmer'
_symmetry_space_group_name_H-M	'P1'
_symmetry_Int_Tables_number	1
_symmetry_cell_setting	triclinic
loop_
_symmetry_equiv_pos_as_xyz
  x,y,z
_cell_length_a	10.489741
_cell_length_b	10.489763
_cell_length_c	9.130313
_cell_angle_alpha	90.009270
_cell_angle_beta	89.999174
_cell_angle_gamma	95.456232
loop_
_atom_site_label
_atom_site_type_symbol
_atom_site_fract_x
_atom_site_fract_y
_atom_site_fract_z
O1	O	1.694066	-0.179966	-0.121726
O2	O	1.322872	-0.196859	-0.121750
O3	O	1.516901	-0.002816	-0.121710
O4	O	1.500038	-0.374008	-0.121766
O5	O	1.516887	-0.002811	0.121889
O6	O	1.322859	-0.196853	0.121848
O7	O	1.694053	-0.179960	0.121873
Cu8	Cu	1.508455	-0.188406	0.144103
Cu9	Cu	1.508470	-0.188413	-0.143981
O10	O	1.500024	-0.374003	0.121833
C11	C	1.275334	-0.195580	0.000046
C12	C	1.133704	-0.191763	0.000038
C13	C	1.515614	0.044718	0.000093
C14	C	1.511786	0.186346	0.000104
N15	N	1.508453	-0.188401	0.346726
C16	C	1.065554	-0.068299	0.000070
C17	C	0.973438	-0.126625	-0.120042
C18	C	0.973459	-0.126649	0.120127
C19	C	1.043454	-0.250139	-0.120174
C20	C	1.043484	-0.250146	0.120103
C21	C	0.951396	-0.308561	-0.000038
C22	C	1.741592	-0.181239	0.000073
C23	C	1.883221	-0.185056	0.000071
C24	C	1.388316	0.254485	0.000093
C25	C	1.446625	0.346610	0.120213
C26	C	1.446668	0.346579	-0.119957
C27	C	1.570146	0.276605	0.120323
C28	C	1.570172	0.276564	-0.119954
C29	C	1.628571	0.368661	0.000195
C30	C	1.501291	0.578461	0.000051
C31	C	1.505059	0.436826	0.000106
N32	N	1.508482	-0.188408	-0.346603
C33	C	1.594398	-0.102515	0.423395
C34	C	1.594410	-0.102515	0.576732
C35	C	1.422528	-0.274298	0.576716
C36	C	1.422511	-0.274290	0.423382
H37	H	0.942425	-0.074387	-0.221575
H38	H	1.352557	-0.344229	0.639145
C39	C	1.764285	0.067294	0.438818
C40	C	1.688852	-0.008094	0.339133
H41	H	1.822590	0.125593	0.386798
H42	H	1.810662	0.013745	0.498597
H43	H	1.710757	0.113688	0.498649
H44	H	1.742379	-0.054496	0.279309
H45	H	1.642471	0.045461	0.279329
C46	C	1.349632	-0.494392	0.376111
C47	C	1.328036	-0.368707	0.339095
H48	H	1.291312	-0.552673	0.324068
H49	H	1.337338	-0.506684	0.478389
H50	H	1.434889	-0.509060	0.350957
H51	H	1.242781	-0.354036	0.364259
H52	H	1.340320	-0.356410	0.236795
H53	H	1.286808	0.204835	0.000203
H54	H	1.394414	0.377540	-0.221507
H55	H	1.622376	0.245518	-0.221501
H56	H	1.115235	0.033196	-0.000064
H57	H	1.664393	-0.032578	0.639152
C58	C	0.968695	-0.119550	0.382912
C59	C	0.931625	-0.056105	0.257218
H60	H	0.942863	-0.075995	0.467537
H61	H	1.059115	-0.120786	0.383412
H62	H	0.929226	-0.204895	0.383040
H63	H	0.971102	0.029238	0.257084
H64	H	0.841187	-0.054855	0.256718
C65	C	1.218250	-0.323487	-0.256229
C66	C	1.085073	-0.320599	-0.257424
H67	H	1.243943	-0.366976	-0.340966
H68	H	1.242776	-0.367051	-0.171062
H69	H	1.258347	-0.238387	-0.255872
H70	H	1.044975	-0.405700	-0.257770
H71	H	1.060534	-0.277037	-0.342613
H72	H	0.901980	-0.410164	-0.000119
H73	H	1.074529	-0.302341	0.221641
C74	C	1.439557	0.351454	0.382993
C75	C	1.376098	0.388490	0.257288
H76	H	1.396006	0.377301	0.467611
H77	H	1.524892	0.390917	0.383123
H78	H	1.440792	0.261022	0.383506
H79	H	1.374872	0.478924	0.256770
H80	H	1.290741	0.349031	0.257159
C81	C	1.766027	0.294140	0.258051
C82	C	1.640603	0.234997	0.257558
H83	H	1.809520	0.268442	0.342770
H84	H	1.764042	0.384474	0.258867
H85	H	1.809586	0.269594	0.172859
H86	H	1.597041	0.259551	0.342745
H87	H	1.642582	0.144643	0.256755
C88	C	1.830839	0.398382	-0.124283
C89	C	1.765739	0.435349	0.000295
H90	H	1.915526	0.439537	-0.124208
H91	H	1.787208	0.422362	-0.209646
H92	H	1.833951	0.308174	-0.123467
H93	H	1.762619	0.525557	-0.000527
H94	H	1.809381	0.411377	0.085679
