data_functionalizedCrystal
_audit_creation_method	'MofGen! by Chris Wilmer'
_symmetry_space_group_name_H-M	'P1'
_symmetry_Int_Tables_number	1
_symmetry_cell_setting	triclinic
loop_
_symmetry_equiv_pos_as_xyz
  x,y,z
_cell_length_a	21.295417
_cell_length_b	19.805407
_cell_length_c	19.805399
_cell_angle_alpha	89.978936
_cell_angle_beta	90.030843
_cell_angle_gamma	89.970509
loop_
_atom_site_label
_atom_site_type_symbol
_atom_site_fract_x
_atom_site_fract_y
_atom_site_fract_z
Zn1	Zn	-0.250641	-1.034716	0.382731
Zn2	Zn	-0.355910	-1.034623	0.269537
Zn3	Zn	-0.250656	-0.921531	0.269553
Zn4	Zn	-0.355874	-0.921486	0.382680
O5	O	-0.303270	-0.978089	0.326125
O6	O	-0.264613	-1.129421	0.367730
O7	O	-0.341969	-1.019601	0.174822
O8	O	-0.162565	-0.936603	0.284594
O9	O	-0.341954	-1.129352	0.284566
O10	O	-0.162553	-1.019760	0.367746
O11	O	-0.264640	-0.936513	0.174834
O12	O	-0.264605	-0.826809	0.284545
O13	O	-0.341894	-0.936527	0.477404
O14	O	-0.341909	-0.826776	0.367659
O15	O	-0.264579	-1.019717	0.477441
O16	O	-0.443994	-1.019558	0.284517
O17	O	-0.443968	-0.936437	0.367643
C18	C	-0.303255	-0.802233	0.326099
C19	C	-0.303264	-0.727001	0.326104
C20	C	-0.343576	-0.691658	0.369310
C21	C	-0.343576	-0.620969	0.369318
C22	C	-0.303267	-0.585626	0.326115
C23	C	-0.262950	-0.620974	0.282906
C24	C	-0.262948	-0.691661	0.282903
C25	C	-0.262960	-0.335901	0.282921
C26	C	-0.262967	-0.265209	0.282927
C27	C	-0.343588	-0.265209	0.369337
C28	C	-0.343585	-0.335896	0.369333
C29	C	-0.303267	-0.371238	0.326127
C30	C	-0.303266	-0.447887	0.326120
C31	C	-0.303270	-0.508979	0.326118
C32	C	-0.466822	-0.978001	0.326088
C33	C	-0.536790	-0.978024	0.326094
C34	C	-0.569649	-1.021344	0.282855
C35	C	-0.635392	-1.021376	0.282870
C36	C	-0.668272	-0.978076	0.326118
C37	C	-0.635405	-0.934753	0.369366
C38	C	-0.569664	-0.934728	0.369354
N39	N	-0.771537	-0.918865	0.331269
N40	N	-0.833989	-0.918892	0.331276
C41	C	-0.866347	-0.978152	0.326156
N42	N	-0.833895	-1.037386	0.321016
N43	N	-0.771438	-1.037358	0.321006
C44	C	-0.739558	-0.978099	0.326135
C45	C	-0.970492	-1.021509	0.282931
C46	C	-1.036236	-1.021542	0.282951
C47	C	-1.036248	-0.934914	0.369443
C48	C	-0.970505	-0.934887	0.369427
C49	C	-0.937631	-0.978184	0.326167
C50	C	-0.139080	-0.978197	0.326178
C51	C	-0.069112	-0.978243	0.326200
C52	C	-0.303231	-0.978127	0.502668
C53	C	-0.303214	-0.978143	0.577900
C54	C	-0.303282	-0.154632	0.326146
C55	C	-0.303276	-0.229864	0.326138
C56	C	-0.303264	-0.978090	0.150269
C57	C	-0.303104	-0.978205	0.075038
C58	C	-0.262954	-1.021461	0.613265
C59	C	-0.262936	-1.021468	0.683953
C60	C	-0.303181	-0.978160	0.719276
C61	C	-0.343442	-0.934838	0.683906
C62	C	-0.343457	-0.934828	0.613219
C63	C	-0.343384	-0.934876	0.968980
C64	C	-0.343367	-0.934891	1.039672
C65	C	-0.262862	-1.021516	1.039714
C66	C	-0.262877	-1.021506	0.969027
C67	C	-0.303136	-0.978182	0.933663
C68	C	-0.303154	-0.978174	0.857015
C69	C	-0.303166	-0.978171	0.795923
H70	H	-0.376402	-0.592196	0.404500
H71	H	-0.376141	-0.899621	1.068429
H72	H	-0.542885	-1.056601	0.247632
H73	H	-0.376402	-0.720429	0.404489
H74	H	-0.230135	-0.364668	0.247736
H75	H	-0.230127	-0.592192	0.247733
C76	C	-0.218606	-1.069143	0.930172
C77	C	-0.245895	-1.122258	0.881577
C78	C	-0.201620	-1.169893	0.842723
C79	C	-0.130056	-1.164414	0.852463
C80	C	-0.102763	-1.111296	0.901059
C81	C	-0.147038	-1.063661	0.939914
H82	H	-0.298874	-1.126317	0.874365
H83	H	-0.221824	-1.209214	0.806748
H84	H	-0.097281	-1.199676	0.823701
H85	H	-0.049784	-1.107238	0.908272
H86	H	-0.126833	-1.024341	0.975888
H87	H	-0.230119	-0.720437	0.247723
H88	H	-0.943725	-1.056767	0.247709
C89	C	-0.671571	-0.887122	0.416939
C90	C	-0.743884	-0.887146	0.416951
C91	C	-0.780048	-0.839516	0.464530
C92	C	-0.743900	-0.791863	0.512095
C93	C	-0.671583	-0.791838	0.512084
C94	C	-0.635419	-0.839468	0.464506
H95	H	-0.770646	-0.922423	0.381739
H96	H	-0.833582	-0.839535	0.464537
H97	H	-0.770672	-0.756605	0.547315
H98	H	-0.644821	-0.756561	0.547297
H99	H	-0.581885	-0.839449	0.464498
H100	H	-0.230184	-1.056730	0.584510
H101	H	-0.662151	-1.056654	0.247659
H102	H	-0.376414	-0.236425	0.404519
C103	C	-0.218571	-1.069170	1.078615
C104	C	-0.174307	-1.116811	1.039761
C105	C	-0.130018	-1.164466	1.078660
C106	C	-0.129994	-1.164480	1.156413
C107	C	-0.174260	-1.116837	1.195272
C108	C	-0.218549	-1.069182	1.156373
H109	H	-0.174323	-1.116803	0.982200
H110	H	-0.097250	-1.199734	1.049894
H111	H	-0.097210	-1.199757	1.185209
H112	H	-0.174244	-1.116846	1.252833
H113	H	-0.251317	-1.033914	1.185139
H114	H	-0.376174	-0.899608	0.940195
C115	C	-0.387924	-0.374773	0.416858
C116	C	-0.432264	-0.335897	0.464390
C117	C	-0.476601	-0.374773	0.511919
C118	C	-0.476599	-0.452526	0.511916
C119	C	-0.432257	-0.491407	0.464383
C120	C	-0.387920	-0.452531	0.416854
H121	H	-0.432267	-0.278335	0.464394
H122	H	-0.509426	-0.345990	0.547107
H123	H	-0.509420	-0.481305	0.547100
H124	H	-0.432254	-0.548969	0.464379
H125	H	-0.355095	-0.481314	0.381666
C126	C	-0.533515	-0.887070	0.416917
C127	C	-0.542622	-0.810131	0.411323
C128	C	-0.506472	-0.762472	0.458886
C129	C	-0.461216	-0.791751	0.512044
C130	C	-0.452107	-0.868694	0.517641
C131	C	-0.488257	-0.916353	0.470078
H132	H	-0.576125	-0.788454	0.371970
H133	H	-0.513215	-0.705514	0.454742
H134	H	-0.434455	-0.756471	0.547253
H135	H	-0.418604	-0.890371	0.556993
H136	H	-0.481514	-0.973311	0.474221
H137	H	-1.062989	-1.056822	0.247742
H138	H	-0.376208	-0.899573	0.712671
H139	H	-0.376234	-0.899547	0.584426
H140	H	-1.063019	-0.899661	0.404659
H141	H	-0.230154	-1.056743	0.712744
C142	C	-0.934358	-0.887228	0.416988
C143	C	-0.943463	-0.810290	0.411392
C144	C	-0.907316	-0.762631	0.458959
C145	C	-0.862063	-0.791911	0.512120
C146	C	-0.852956	-0.868854	0.517718
C147	C	-0.889103	-0.916512	0.470151
H148	H	-0.976963	-0.788611	0.372037
H149	H	-0.914058	-0.705673	0.454815
H150	H	-0.835305	-0.756631	0.547332
H151	H	-0.819456	-0.890532	0.557073
H152	H	-0.882361	-0.973470	0.474295
H153	H	-0.230138	-0.236434	0.247746
