data_functionalizedCrystal
_audit_creation_method	'MofGen! by Chris Wilmer'
_symmetry_space_group_name_H-M	'P1'
_symmetry_Int_Tables_number	1
_symmetry_cell_setting	triclinic
loop_
_symmetry_equiv_pos_as_xyz
  x,y,z
_cell_length_a	23.532355
_cell_length_b	23.532407
_cell_length_c	13.330367
_cell_angle_alpha	89.990692
_cell_angle_beta	89.998270
_cell_angle_gamma	82.838088
loop_
_atom_site_label
_atom_site_type_symbol
_atom_site_fract_x
_atom_site_fract_y
_atom_site_fract_z
O1	O	0.755281	0.068994	-0.083297
O2	O	1.255281	0.568994	0.416703
O3	O	0.589414	0.079028	-0.083331
O4	O	1.089414	0.579028	0.416669
O5	O	0.677349	-0.008922	-0.083294
O6	O	1.177349	0.491078	0.416706
O7	O	0.667346	0.156943	-0.083333
O8	O	1.167346	0.656943	0.416667
O9	O	0.677337	-0.008924	0.083553
O10	O	1.177337	0.491076	0.583553
O11	O	0.589401	0.079026	0.083517
O12	O	1.089401	0.579026	0.583517
O13	O	0.755269	0.068992	0.083550
O14	O	1.255269	0.568992	0.583550
Cu15	Cu	0.672334	0.074009	0.098768
Cu16	Cu	1.172334	0.574009	0.598768
Cu17	Cu	0.672349	0.074011	-0.098548
Cu18	Cu	1.172349	0.574011	0.401452
O19	O	0.667333	0.156942	0.083514
O20	O	1.167333	0.656942	0.583514
C21	C	0.568191	0.078776	0.000089
C22	C	1.068191	0.578776	0.500089
C23	C	0.504972	0.078022	0.000077
C24	C	1.004972	0.578022	0.500077
C25	C	0.112951	0.073283	0.091069
C26	C	0.612951	0.573283	0.591069
C27	C	0.053552	0.072565	0.091073
C28	C	0.553552	0.572565	0.591073
O29	O	0.022827	0.072174	0.168420
O30	O	0.522827	0.572174	0.668420
N31	N	0.023850	0.072211	0.000125
N32	N	0.523850	0.572211	0.500125
C33	C	0.053552	0.072568	-0.090833
C34	C	0.553552	0.572568	0.409167
O35	O	0.022834	0.072200	-0.168191
O36	O	0.522834	0.572200	0.331809
C37	C	0.112951	0.073281	-0.090836
C38	C	0.612951	0.573281	0.409164
C39	C	0.142649	0.073641	0.000118
C40	C	0.642649	0.573641	0.500118
C41	C	0.142649	0.073643	0.182015
C42	C	0.642649	0.573643	0.682015
C43	C	0.202044	0.074361	0.182011
C44	C	0.702044	0.574361	0.682011
C45	C	0.231742	0.074720	0.091060
C46	C	0.731742	0.574720	0.591060
C47	C	0.202044	0.074360	0.000113
C48	C	0.702044	0.574360	0.500113
C49	C	0.142652	0.073634	-0.181793
C50	C	0.642652	0.573634	0.318207
C51	C	0.202055	0.074347	-0.181788
C52	C	0.702055	0.574347	0.318212
C53	C	0.231753	0.074707	-0.090834
C54	C	0.731753	0.574707	0.409166
C55	C	0.291136	0.075437	-0.090842
C56	C	0.791136	0.575437	0.409158
N57	N	0.320838	0.075792	0.000106
N58	N	0.820838	0.575792	0.500106
C59	C	0.291141	0.075433	0.091057
C60	C	0.791141	0.575433	0.591057
C61	C	-0.071189	0.071069	-0.090820
C62	C	0.428811	0.571069	0.409180
C63	C	-0.130588	0.070359	-0.090818
C64	C	0.369412	0.570359	0.409182
C65	C	-0.130584	0.070356	0.091088
C66	C	0.369416	0.570356	0.591088
C67	C	-0.071185	0.071069	0.091085
C68	C	0.428815	0.571069	0.591085
C69	C	-0.041488	0.071423	0.000128
C70	C	0.458512	0.571423	0.500128
C71	C	0.415875	0.076942	0.091041
C72	C	0.915875	0.576942	0.591041
C73	C	0.475275	0.077663	0.091028
C74	C	0.975275	0.577663	0.591028
C75	C	0.475266	0.077664	-0.090878
C76	C	0.975266	0.577664	0.409122
C77	C	0.415871	0.076946	-0.090866
C78	C	0.915871	0.576946	0.409134
C79	C	0.386177	0.076583	0.000102
C80	C	0.886177	0.576583	0.500102
O81	O	0.321899	0.075826	-0.168150
O82	O	0.821899	0.575826	0.331850
O83	O	0.321867	0.075794	0.168402
O84	O	0.821867	0.575794	0.668402
C85	C	0.677088	-0.030139	0.000132
C86	C	1.177088	0.469861	0.500132
C87	C	0.676322	-0.093356	0.000139
C88	C	1.176322	0.406644	0.500139
C89	C	0.723557	-0.492468	0.000094
C90	C	1.223557	0.007532	0.500094
C91	C	0.722845	-0.551868	0.000086
C92	C	1.222845	-0.051868	0.500086
O93	O	0.766632	-0.588620	0.000058
O94	O	1.266632	-0.088620	0.500058
N95	N	0.670568	-0.574484	0.000076
N96	N	1.170568	-0.074484	0.500076
C97	C	0.618998	-0.537697	0.000064
C98	C	1.118998	-0.037697	0.500064
O99	O	0.574467	-0.562388	0.000054
O100	O	1.074467	-0.062388	0.500054
C101	C	0.619710	-0.478298	0.000064
C102	C	1.119710	0.021702	0.500064
C103	C	0.671991	-0.455685	0.000084
C104	C	1.171991	0.044315	0.500084
C105	C	0.775834	-0.469854	0.000113
C106	C	1.275834	0.030146	0.500113
C107	C	0.776545	-0.410458	0.000122
C108	C	1.276545	0.089542	0.500122
C109	C	0.724979	-0.373676	0.000113
C110	C	1.224979	0.126324	0.500113
C111	C	0.672703	-0.396289	0.000094
C112	C	1.172703	0.103711	0.500094
C113	C	0.568141	-0.441512	0.000045
C114	C	1.068141	0.058488	0.500045
C115	C	0.568858	-0.382110	0.000045
C116	C	1.068858	0.117890	0.500045
C117	C	0.621139	-0.359497	0.000065
C118	C	1.121139	0.140503	0.500065
C119	C	0.621848	-0.300110	0.000095
C120	C	1.121848	0.199890	0.500095
N121	N	0.674126	-0.277494	0.000104
N122	N	1.174126	0.222506	0.500104
C123	C	0.725691	-0.314277	0.000114
C124	C	1.225691	0.185723	0.500114
C125	C	0.617507	-0.662439	0.000061
C126	C	1.117507	-0.162439	0.500061
C127	C	0.616794	-0.721837	0.000068
C128	C	1.116794	-0.221837	0.500068
C129	C	0.720642	-0.736004	0.000088
C130	C	1.220642	-0.236004	0.500088
C131	C	0.721354	-0.676605	0.000088
C132	C	1.221354	-0.176605	0.500088
C133	C	0.669784	-0.639823	0.000071
C134	C	1.169784	-0.139823	0.500071
C135	C	0.727181	-0.189540	0.000135
C136	C	1.227181	0.310460	0.500135
C137	C	0.727888	-0.130138	0.000148
C138	C	1.227888	0.369862	0.500148
C139	C	0.624041	-0.115977	0.000123
C140	C	1.124041	0.384023	0.500123
C141	C	0.623334	-0.175373	0.000114
C142	C	1.123334	0.324627	0.500114
C143	C	0.674909	-0.212154	0.000117
C144	C	1.174909	0.287846	0.500117
O145	O	0.578084	-0.263323	0.000119
O146	O	1.078084	0.236677	0.500119
O147	O	0.770216	-0.289577	0.000110
O148	O	1.270216	0.210423	0.500110
C149	C	0.776491	0.069244	0.000128
C150	C	1.276491	0.569244	0.500128
C151	C	0.839710	0.069998	0.000134
C152	C	1.339710	0.569998	0.500134
C153	C	0.667594	0.178158	0.000086
C154	C	1.167594	0.678158	0.500086
C155	C	0.668360	0.241375	0.000071
C156	C	1.168360	0.741375	0.500071
N157	N	0.672327	0.074007	0.237549
N158	N	1.172327	0.574007	0.737549
N159	N	0.672360	0.074008	-0.237330
N160	N	1.172360	0.574008	0.262670
C161	C	0.633409	0.112940	0.710156
C162	C	1.133409	0.612940	1.210156
C163	C	0.711303	0.035077	0.710156
C164	C	1.211303	0.535077	1.210156
C165	C	0.711297	0.035076	0.605138
C166	C	1.211297	0.535076	1.105138
C167	C	0.672347	0.074007	0.552624
C168	C	1.172347	0.574007	1.052624
C169	C	0.633403	0.112940	0.605128
C170	C	1.133403	0.612940	1.105128
C171	C	0.750244	-0.003853	0.552626
C172	C	1.250244	0.496147	1.052626
C173	C	0.750240	-0.003856	0.447601
C174	C	1.250240	0.496144	0.947601
C175	C	0.711286	0.035074	0.395085
C176	C	1.211286	0.535074	0.895085
C177	C	0.672340	0.074008	0.447596
C178	C	1.172340	0.574008	0.947596
C179	C	0.633390	0.112939	0.395082
C180	C	1.133390	0.612939	0.895082
C181	C	0.594441	0.151872	0.447591
C182	C	1.094441	0.651872	0.947591
C183	C	0.594449	0.151870	0.552612
C184	C	1.094449	0.651870	1.052612
C185	C	0.711278	0.035075	0.290063
C186	C	1.211278	0.535075	0.790063
C187	C	0.633383	0.112940	0.290054
C188	C	1.133383	0.612940	0.790054
H189	H	0.118483	0.073340	-0.255858
H190	H	0.618483	0.573340	0.244142
H191	H	0.562739	0.183567	0.595371
H192	H	1.062739	0.683567	1.095371
H193	H	-0.047009	0.071364	0.165148
H194	H	0.452991	0.571364	0.665148
O195	O	0.782806	-0.229207	0.000152
O196	O	1.282806	0.270793	0.500152
H197	H	0.819273	-0.203495	0.000179
H198	H	1.319273	0.296505	0.500179
H199	H	0.601696	0.144636	0.752912
H200	H	1.101696	0.644636	1.252912
O201	O	0.792240	-0.045850	0.390967
O202	O	1.292240	0.454150	0.890967
H203	H	0.819321	-0.072924	0.445129
H204	H	1.319321	0.427076	0.945129
O205	O	0.561881	-0.622770	0.000070
O206	O	1.061881	-0.122770	0.500070
H207	H	0.536846	-0.630772	-0.067930
H208	H	1.036846	-0.130772	0.432070
O209	O	0.566943	-0.199761	0.000105
O210	O	1.066943	0.300239	0.500105
H211	H	0.564126	-0.226491	0.068107
H212	H	1.064126	0.273509	0.568107
H213	H	0.582057	-0.086018	0.000119
H214	H	1.082057	0.413982	0.500119
H215	H	0.226220	0.074651	0.256075
H216	H	0.726220	0.574651	0.756075
H217	H	0.226231	0.074635	-0.255859
H218	H	0.726231	0.574635	0.244141
H219	H	-0.047015	0.071362	-0.164893
H220	H	0.452985	0.571362	0.335107
O221	O	0.507309	0.078038	-0.188967
O222	O	1.007309	0.578038	0.311033
H223	H	0.529080	0.117181	-0.193333
H224	H	1.029080	0.617181	0.306667
O225	O	0.513233	-0.342440	0.000031
O226	O	1.013233	0.157560	0.500031
H227	H	0.522506	-0.297336	0.000033
H228	H	1.022506	0.202664	0.500033
O229	O	-0.162607	0.069973	-0.188928
O230	O	0.337393	0.569973	0.311072
H231	H	-0.194967	0.108469	-0.193310
H232	H	0.305033	0.608469	0.306690
O233	O	0.383833	0.076559	-0.188962
O234	O	0.883833	0.576559	0.311038
H235	H	0.414466	0.076927	-0.252205
H236	H	0.914466	0.576927	0.247795
H237	H	0.770463	-0.111731	0.000167
H238	H	1.270463	0.388269	0.500167
H239	H	0.525569	-0.459912	0.000023
H240	H	1.025569	0.040088	0.500023
H241	H	0.601663	0.144641	0.247303
H242	H	1.101663	0.644641	0.747303
O243	O	0.753316	-0.006909	0.766788
O244	O	1.253316	0.493091	1.266788
H245	H	0.729505	-0.034466	0.814648
H246	H	1.229505	0.465534	1.314648
O247	O	0.792254	-0.045841	0.609260
O248	O	1.292254	0.454159	1.109260
H249	H	0.785710	-0.039304	0.691109
H250	H	1.285710	0.460696	1.191109
O251	O	0.110565	0.073299	0.280067
O252	O	0.610565	0.573299	0.780067
H253	H	0.127217	0.034631	0.323777
H254	H	0.627217	0.534631	0.823777
H255	H	0.819117	-0.392053	0.000134
H256	H	1.319117	0.107947	0.500134
O257	O	0.552421	0.193853	0.390949
O258	O	1.052421	0.693853	0.890949
H259	H	0.558959	0.187306	0.309100
H260	H	1.058959	0.687306	0.809100
O261	O	0.753272	-0.006913	0.233414
O262	O	1.253272	0.493087	0.733414
H263	H	0.797631	0.000103	0.253546
H264	H	1.297631	0.500103	0.753546
O265	O	0.507306	0.078062	0.189131
O266	O	1.007306	0.578062	0.689131
H267	H	0.476673	0.077690	0.252373
H268	H	0.976673	0.577690	0.752373
O269	O	0.831455	-0.509523	0.000137
O270	O	1.331455	-0.009523	0.500137
H271	H	0.867920	-0.483809	0.000160
H272	H	1.367920	0.016191	0.500160
H273	H	0.762629	-0.765963	0.000091
H274	H	1.262629	-0.265963	0.500091
O275	O	0.777743	-0.652219	0.000089
O276	O	1.277743	-0.152219	0.500089
H277	H	0.802502	-0.667027	0.068093
H278	H	1.302502	-0.167027	0.568093
O279	O	0.383850	0.076559	0.189152
O280	O	0.883850	0.576559	0.689152
H281	H	0.414487	0.076936	0.252384
H282	H	0.914487	0.576936	0.752384
H283	H	-0.154774	0.070063	0.165146
H284	H	0.345226	0.570063	0.665146
O285	O	0.560406	-0.746225	0.000059
O286	O	1.060406	-0.246225	0.500059
H287	H	0.524672	-0.710663	0.000049
H288	H	1.024672	-0.210663	0.500049
