data_functionalizedCrystal
_audit_creation_method	'MofGen! by Chris Wilmer'
_symmetry_space_group_name_H-M	'P1'
_symmetry_Int_Tables_number	1
_symmetry_cell_setting	triclinic
loop_
_symmetry_equiv_pos_as_xyz
  x,y,z
_cell_length_a	16.992694
_cell_length_b	10.489741
_cell_length_c	15.455313
_cell_angle_alpha	92.692689
_cell_angle_beta	87.142206
_cell_angle_gamma	87.603699
loop_
_atom_site_label
_atom_site_type_symbol
_atom_site_fract_x
_atom_site_fract_y
_atom_site_fract_z
O1	O	1.045321	0.265388	-0.072021
O2	O	0.817021	0.262418	-0.072047
O3	O	0.936366	0.078758	-0.072028
O4	O	0.925976	0.449049	-0.072040
O5	O	0.929541	0.089214	0.072233
O6	O	0.810196	0.272874	0.072214
O7	O	1.038496	0.275845	0.072240
Cu8	Cu	0.923723	0.275314	0.085399
Cu9	Cu	0.931794	0.262948	-0.085206
O10	O	0.919151	0.459505	0.072221
C11	C	0.784374	0.263826	0.000081
C12	C	0.697266	0.252430	0.000071
C13	C	0.647647	0.362380	0.000068
C14	C	0.565799	0.351666	0.000081
C15	C	0.533573	0.231001	0.000089
C16	C	0.583198	0.121044	0.000095
C17	C	0.665044	0.131759	0.000089
C18	C	0.289723	0.186590	0.000114
C19	C	0.207871	0.175882	0.000117
C20	C	0.190477	0.406505	0.000105
C21	C	0.272325	0.417210	0.000094
C22	C	0.321944	0.307253	0.000104
N23	N	0.449911	0.220047	0.000099
N24	N	0.405603	0.318209	0.000100
C25	C	0.932168	0.036386	0.000102
C26	C	0.929821	-0.105448	0.000100
C27	C	0.853885	-0.180195	0.000085
C28	C	0.886392	-0.264041	0.071217
C29	C	0.893138	-0.274324	-0.071013
C30	C	0.962356	-0.187422	0.071291
C31	C	0.969095	-0.197700	-0.071003
C32	C	1.001656	-0.281512	0.000146
C33	C	1.071143	0.274436	0.000111
C34	C	1.158251	0.285832	0.000115
C35	C	0.923349	0.501877	0.000090
C36	C	0.925697	0.643710	0.000086
N37	N	0.918052	0.284011	0.205394
N38	N	0.937472	0.254242	-0.205201
C39	C	0.968772	0.206019	0.250796
C40	C	0.964490	0.212608	0.341603
C41	C	0.909492	0.297199	0.387007
C42	C	0.858766	0.375195	0.341598
C43	C	0.863045	0.368597	0.250793
C44	C	0.891025	0.325640	0.658585
C45	C	0.886752	0.332234	0.749397
C46	C	0.992475	0.169646	0.749396
C47	C	0.996751	0.163062	0.658589
C48	C	0.946023	0.241053	0.613188
N49	N	0.905116	0.303939	0.479826
N50	N	0.950396	0.234305	0.520370
H51	H	0.181636	0.077618	0.000124
C52	C	0.838093	-0.437242	0.151906
C53	C	0.839181	-0.303810	0.152389
H54	H	0.808947	-0.461787	0.202019
H55	H	0.814008	-0.468313	0.101400
H56	H	0.890587	-0.472116	0.151988
H57	H	0.786686	-0.268936	0.152301
H58	H	0.863263	-0.272726	0.202909
C59	C	0.388351	0.070213	0.074271
C60	C	0.344259	0.065728	0.000114
H61	H	0.422019	-0.004410	0.074270
H62	H	0.419254	0.143599	0.074262
H63	H	0.353680	0.074470	0.124574
H64	H	0.378931	0.061481	-0.050189
H65	H	0.313354	-0.007678	0.000115
C66	C	1.101143	-0.421020	-0.074326
C67	C	1.086021	-0.340859	0.000185
H68	H	1.153231	-0.457640	-0.074305
H69	H	1.064529	-0.487000	-0.074819
H70	H	1.095936	-0.372776	-0.124385
H71	H	1.091223	-0.389106	0.050245
H72	H	1.122646	-0.274870	0.000686
C73	C	0.732936	-0.166154	-0.073568
C74	C	0.769598	-0.120494	0.000168
H75	H	0.680901	-0.129302	-0.073509
H76	H	0.762182	-0.143656	-0.124147
H77	H	0.730851	-0.256471	-0.073044
H78	H	0.771688	-0.030177	-0.000360
H79	H	0.740345	-0.142983	0.050760
H80	H	0.298558	0.515467	0.000076
H81	H	1.041535	0.094182	0.621623
H82	H	0.813982	0.444065	0.378571
H83	H	0.556953	0.022797	0.000114
C84	C	1.035976	-0.044520	0.777364
C85	C	1.048223	0.083906	0.799303
H86	H	1.070396	-0.097456	0.808171
H87	H	0.982843	-0.062667	0.792256
H88	H	1.046398	-0.060536	0.716784
H89	H	1.037795	0.099925	0.859881
H90	H	1.101368	0.102060	0.784416
C91	C	0.782652	0.492257	0.740283
C92	C	0.826281	0.425204	0.799307
H93	H	0.745319	0.549639	0.771097
H94	H	0.817226	0.538967	0.704860
H95	H	0.755813	0.433635	0.704871
H96	H	0.853126	0.483825	0.834715
H97	H	0.791703	0.378491	0.834745
H98	H	1.004043	-0.168221	-0.131136
C99	C	0.789221	0.334958	0.556486
C100	C	0.835278	0.411383	0.608684
H101	H	0.754804	0.387900	0.525680
H102	H	0.822585	0.283641	0.516456
H103	H	0.759030	0.281515	0.591928
H104	H	0.865474	0.464819	0.573242
H105	H	0.801910	0.462721	0.648719
H106	H	0.705444	0.042227	0.000090
C107	C	0.896144	-0.290739	-0.226635
C108	C	0.853596	-0.325808	-0.152198
H109	H	0.871730	-0.322528	-0.276751
H110	H	0.896918	-0.200274	-0.226932
H111	H	0.948640	-0.325653	-0.226709
H112	H	0.801102	-0.290886	-0.152120
H113	H	0.852814	-0.416291	-0.151901
C114	C	0.467164	0.468019	-0.074086
C115	C	0.511258	0.472527	0.000068
H116	H	0.433491	0.542636	-0.074090
H117	H	0.501828	0.463751	-0.124386
H118	H	0.436258	0.394622	-0.074065
H119	H	0.542169	0.545919	0.000043
H120	H	0.476591	0.476808	0.050380
C121	C	1.003653	-0.002870	0.151859
C122	C	1.001844	-0.136149	0.152570
H123	H	1.028025	0.028783	0.202041
H124	H	1.032835	0.020331	0.101422
H125	H	0.951322	0.032665	0.151648
H126	H	1.054175	-0.171685	0.152774
H127	H	0.972662	-0.159362	0.203020
H128	H	0.673878	0.460638	0.000060
H129	H	1.013560	0.137142	0.213834
H130	H	1.005790	0.149100	0.378569
H131	H	0.821742	0.432106	0.213827
H132	H	0.150069	0.496026	0.000099
