data_functionalizedCrystal
_audit_creation_method	'MofGen! by Chris Wilmer'
_symmetry_space_group_name_H-M	'P1'
_symmetry_Int_Tables_number	1
_symmetry_cell_setting	triclinic
loop_
_symmetry_equiv_pos_as_xyz
  x,y,z
_cell_length_a	16.109301
_cell_length_b	15.944551
_cell_length_c	15.186229
_cell_angle_alpha	89.995303
_cell_angle_beta	89.999362
_cell_angle_gamma	83.480109
loop_
_atom_site_label
_atom_site_type_symbol
_atom_site_fract_x
_atom_site_fract_y
_atom_site_fract_z
O1	O	1.103166	0.107966	-0.073175
O2	O	1.603166	0.607966	0.426825
O3	O	0.861108	0.121402	-0.073189
O4	O	1.361108	0.621402	0.426811
O5	O	0.988747	-0.007593	-0.073174
O6	O	1.488747	0.492407	0.426826
O7	O	0.975527	0.236961	-0.073190
O8	O	1.475527	0.736961	0.426810
O9	O	0.988738	-0.007594	0.073284
O10	O	1.488738	0.492406	0.573284
O11	O	0.861099	0.121401	0.073268
O12	O	1.361099	0.621401	0.573268
O13	O	1.103157	0.107964	0.073282
O14	O	1.603157	0.607964	0.573282
Zn15	Zn	0.982127	0.114682	0.096529
Zn16	Zn	1.482127	0.614682	0.596529
Zn17	Zn	0.982138	0.114685	-0.096435
Zn18	Zn	1.482138	0.614685	0.403565
O19	O	0.975518	0.236960	0.073267
O20	O	1.475518	0.736960	0.573267
C21	C	0.830129	0.120857	0.000038
C22	C	1.330129	0.620857	0.500038
C23	C	0.737833	0.119226	0.000033
C24	C	1.237833	0.619226	0.500033
C25	C	0.515584	0.191975	0.000038
C26	C	1.015584	0.691975	0.500038
C27	C	0.428863	0.190435	0.000044
C28	C	0.928863	0.690435	0.500044
C29	C	0.448688	0.037387	0.000050
C30	C	0.948688	0.537387	0.500050
C31	C	0.535407	0.038927	0.000051
C32	C	1.035407	0.538927	0.500051
C33	C	0.568853	0.116224	0.000040
C34	C	1.068853	0.616224	0.500040
C35	C	0.395412	0.113143	0.000045
C36	C	0.895412	0.613143	0.500045
C37	C	0.301386	0.111473	0.000052
C38	C	0.801386	0.611473	0.500052
C39	C	0.662885	0.117894	0.000036
C40	C	1.162885	0.617894	0.500036
C41	C	0.988194	-0.038887	0.000055
C42	C	1.488194	0.461113	0.500055
C43	C	0.986548	-0.132133	0.000056
C44	C	1.486548	0.367867	0.500056
C45	C	0.903499	-0.346962	0.000039
C46	C	1.403499	0.153038	0.500039
C47	C	0.942060	-0.407993	0.072253
C48	C	1.442060	0.092007	0.572253
C49	C	0.983572	-0.302858	0.000049
C50	C	1.483572	0.197142	0.500049
C51	C	0.942087	-0.407975	-0.072142
C52	C	1.442087	0.092025	0.427858
C53	C	0.980691	-0.467769	0.000038
C54	C	1.480691	0.032231	0.500038
C55	C	1.022155	-0.362660	0.072323
C56	C	1.522155	0.137340	0.572323
C57	C	1.022171	-0.362636	-0.072137
C58	C	1.522171	0.137364	0.427863
C59	C	1.060790	-0.423649	0.000095
C60	C	1.560790	0.076351	0.500095
C61	C	0.985229	-0.207856	0.000055
C62	C	1.485229	0.292144	0.500055
C63	C	0.979039	-0.562770	0.000038
C64	C	1.479039	-0.062770	0.500038
C65	C	1.134136	0.108510	0.000054
C66	C	1.634136	0.608510	0.500054
C67	C	1.226432	0.110141	0.000053
C68	C	1.726432	0.610141	0.500053
C69	C	0.976071	0.268254	0.000036
C70	C	1.476071	0.768254	0.500036
C71	C	0.977717	0.361500	0.000030
C72	C	1.477717	0.861500	0.500030
N73	N	0.982125	0.114680	0.228221
N74	N	1.482125	0.614680	0.728221
N75	N	0.982146	0.114680	-0.228128
N76	N	1.482146	0.614680	0.271872
C77	C	1.038663	0.057580	0.453951
C78	C	1.538663	0.557580	0.953951
C79	C	1.038666	0.057578	0.546141
C80	C	1.538666	0.557578	1.046141
C81	C	0.925603	0.171783	0.546136
C82	C	1.425603	0.671783	1.046136
C83	C	0.925597	0.171780	0.453948
C84	C	1.425597	0.671780	0.953948
C85	C	0.982132	0.114680	0.407858
C86	C	1.482132	0.614680	0.907858
C87	C	0.982140	0.114680	0.592236
C88	C	1.482140	0.614680	1.092236
C89	C	0.982143	0.114679	0.692192
C90	C	1.482143	0.614679	1.192192
C91	C	0.982128	0.114680	0.307895
C92	C	1.482128	0.614680	0.807895
H93	H	0.385495	0.252119	0.000044
H94	H	0.885495	0.752119	0.500044
O95	O	0.897212	-0.434574	-0.153005
O96	O	1.397212	0.065426	0.346995
H97	H	0.940535	-0.478601	-0.192696
H98	H	1.440535	0.021399	0.307304
O99	O	0.897205	-0.434617	0.153124
O100	O	1.397205	0.065383	0.653124
H101	H	0.831935	-0.403607	0.152974
H102	H	1.331935	0.096393	0.652974
O103	O	0.412616	-0.045982	0.000056
O104	O	0.912616	0.454018	0.500056
H105	H	0.343365	-0.034329	0.000047
H106	H	0.843365	0.465671	0.500047
H107	H	0.879574	0.218274	0.583672
H108	H	1.379574	0.718274	1.083672
H109	H	1.055990	-0.342682	0.133442
H110	H	1.555990	0.157318	0.633442
O111	O	0.592871	-0.042779	0.000055
O112	O	1.092871	0.457221	0.500055
H113	H	0.555047	-0.096787	0.000051
H114	H	1.055047	0.403213	0.500051
O115	O	0.551662	0.275340	0.000045
O116	O	1.051662	0.775340	0.500045
H117	H	0.500048	0.327755	0.000056
H118	H	1.000048	0.827755	0.500056
H119	H	1.084698	0.011082	0.583667
H120	H	1.584698	0.511082	1.083667
O121	O	1.099627	-0.004012	0.404235
O122	O	1.599627	0.495988	0.904235
H123	H	1.138930	-0.043723	0.451778
H124	H	1.638930	0.456277	0.951778
O125	O	1.148901	-0.467615	0.000148
O126	O	1.648901	0.032385	0.500148
H127	H	1.181925	-0.449473	0.060150
H128	H	1.681925	0.050527	0.560150
O129	O	0.815466	-0.302800	0.000122
O130	O	1.315466	0.197200	0.500122
H131	H	0.782422	-0.320839	0.060157
H132	H	1.282422	0.179161	0.560157
H133	H	1.056013	-0.342516	-0.133188
H134	H	1.556013	0.157484	0.366812
O135	O	0.864624	0.233371	0.404223
O136	O	1.364624	0.733371	0.904223
H137	H	0.825321	0.273086	0.451758
H138	H	1.325321	0.773086	0.951758
