data_functionalizedCrystal
_audit_creation_method	'MofGen! by Chris Wilmer'
_symmetry_space_group_name_H-M	'P1'
_symmetry_Int_Tables_number	1
_symmetry_cell_setting	triclinic
loop_
_symmetry_equiv_pos_as_xyz
  x,y,z
_cell_length_a	12.759399
_cell_length_b	13.032951
_cell_length_c	12.759393
_cell_angle_alpha	82.804272
_cell_angle_beta	90.031461
_cell_angle_gamma	97.182580
loop_
_atom_site_label
_atom_site_type_symbol
_atom_site_fract_x
_atom_site_fract_y
_atom_site_fract_z
Zn1	Zn	-0.622574	-1.597753	0.797755
Zn2	Zn	-0.122574	-1.097753	1.297755
Zn3	Zn	-0.798277	-1.597644	0.622060
Zn4	Zn	-0.298277	-1.097644	1.122060
Zn5	Zn	-0.600273	-1.422983	0.599804
Zn6	Zn	-0.100273	-0.922983	1.099804
Zn7	Zn	-0.775856	-1.422972	0.775424
Zn8	Zn	-0.275856	-0.922972	1.275424
O9	O	-0.699245	-1.510338	0.698761
O10	O	-0.199245	-1.010338	1.198761
O11	O	-0.664598	-1.743981	0.793108
O12	O	-0.164598	-1.243981	1.293108
O13	O	-0.772062	-1.574434	0.472082
O14	O	-0.272062	-1.074434	0.972082
O15	O	-0.456216	-1.446216	0.626095
O16	O	0.043784	-0.946216	1.126095
O17	O	-0.793687	-1.743901	0.664026
O18	O	-0.293687	-1.243901	1.164026
O19	O	-0.472601	-1.574619	0.771528
O20	O	0.027399	-1.074619	1.271528
O21	O	-0.626589	-1.446112	0.455730
O22	O	-0.126589	-0.946112	0.955730
O23	O	-0.604847	-1.276739	0.604441
O24	O	-0.104847	-0.776739	1.104441
O25	O	-0.755472	-1.446198	0.925413
O26	O	-0.255472	-0.946198	1.425413
O27	O	-0.733848	-1.276731	0.733468
O28	O	-0.233848	-0.776731	1.233468
O29	O	-0.642857	-1.574608	0.941819
O30	O	-0.142857	-1.074608	1.441819
O31	O	-0.942318	-1.574424	0.642373
O32	O	-0.442318	-1.074424	1.142373
O33	O	-0.925845	-1.446093	0.755048
O34	O	-0.425845	-0.946093	1.255048
C35	C	-0.972204	-1.510274	0.698729
C36	C	-0.472204	-1.010274	1.198729
C37	C	-1.088990	-1.510342	0.698762
C38	C	-0.588990	-1.010342	1.198762
C39	C	-0.664495	-1.238816	0.664117
C40	C	-0.164495	-0.738816	1.164117
C41	C	-0.649654	-1.122658	0.649321
C42	C	-0.149654	-0.622658	1.149321
C43	C	-1.152404	-1.577240	0.640178
C44	C	-0.652404	-1.077240	1.140178
C45	C	-1.262136	-1.577307	0.640222
C46	C	-0.762136	-1.077307	1.140222
C47	C	-1.245030	-1.443569	0.757436
C48	C	-0.745030	-0.943569	1.257436
C49	C	-1.135300	-1.443508	0.757397
C50	C	-0.635300	-0.943508	1.257397
C51	C	-0.706967	-1.070895	0.706469
C52	C	-0.206967	-0.570895	1.206469
C53	C	-0.691630	-0.950839	0.691178
C54	C	-0.191630	-0.450839	1.191178
C55	C	-0.425224	-1.510431	0.698820
C56	C	0.074776	-1.010431	1.198820
C57	C	-0.308452	-1.510470	0.698845
C58	C	0.191548	-1.010470	1.198845
C59	C	-0.699151	-1.510414	0.972804
C60	C	-0.199151	-1.010414	1.472804
C61	C	-0.699111	-1.510446	1.089585
C62	C	-0.199111	-1.010446	1.589585
C63	C	-0.734119	-0.782920	0.733534
C64	C	-0.234119	-0.282920	1.233534
C65	C	-0.748951	-0.899078	0.748334
C66	C	-0.248951	-0.399078	1.248334
C67	C	-0.699270	-1.510323	0.425792
C68	C	-0.199270	-1.010323	0.925792
C69	C	-0.699040	-1.510493	0.309037
C70	C	-0.199040	-1.010493	0.809037
C71	C	-0.640425	-1.577336	1.262726
C72	C	-0.140425	-1.077336	1.762726
C73	C	-0.640463	-1.577316	1.152999
C74	C	-0.140463	-1.077316	1.652999
C75	C	-0.757733	-1.443600	1.135903
C76	C	-0.257733	-0.943600	1.635903
C77	C	-0.757700	-1.443626	1.245629
C78	C	-0.257700	-0.943626	1.745629
H79	H	-1.114701	-1.631662	0.592436
H80	H	-0.614701	-1.131662	1.092436
H81	H	-0.592660	-1.631783	1.314350
H82	H	-0.092660	-1.131783	1.814350
O83	O	-1.323869	-1.642177	0.583302
O84	O	-0.823869	-1.142177	1.083302
C85	C	-1.379878	-1.582799	0.507822
C86	C	-0.879878	-1.082799	1.007822
H87	H	-1.386188	-1.503563	0.534657
H88	H	-0.886188	-1.003563	1.034657
H89	H	-1.462474	-1.625428	0.499327
H90	H	-0.962474	-1.125428	0.999327
H91	H	-1.336264	-1.571394	0.428447
H92	H	-0.836264	-1.071394	0.928447
O93	O	-0.583427	-1.642279	1.108180
O94	O	-0.083427	-1.142279	1.608180
C95	C	-0.531672	-1.701318	1.187681
C96	C	-0.031672	-1.201318	1.687681
H97	H	-0.522532	-1.658529	1.260432
H98	H	-0.022532	-1.158529	1.760432
H99	H	-0.450334	-1.712486	1.157422
H100	H	0.049666	-1.212486	1.657422
H101	H	-0.580296	-1.780679	1.209476
H102	H	-0.080296	-1.280679	1.709476
H103	H	-1.282749	-1.389154	0.805173
H104	H	-0.782749	-0.889154	1.305173
H105	H	-0.589228	-1.078094	0.589079
H106	H	-0.089228	-0.578094	1.089079
H107	H	-0.805437	-1.389193	1.283335
H108	H	-0.305437	-0.889193	1.783335
H109	H	-0.631199	-0.906279	0.630931
H110	H	-0.131199	-0.406279	1.130931
H111	H	-0.805490	-1.389158	1.084263
H112	H	-0.305490	-0.889158	1.584263
H113	H	-1.083664	-1.389032	0.805109
H114	H	-0.583664	-0.889032	1.305109
H115	H	-0.767386	-1.115459	0.766719
H116	H	-0.267386	-0.615459	1.266719
H117	H	-0.809371	-0.943637	0.808591
H118	H	-0.309371	-0.443637	1.308591
