data_functionalizedCrystal
_audit_creation_method	'MofGen! by Chris Wilmer'
_symmetry_space_group_name_H-M	'P1'
_symmetry_Int_Tables_number	1
_symmetry_cell_setting	triclinic
loop_
_symmetry_equiv_pos_as_xyz
  x,y,z
_cell_length_a	9.483335
_cell_length_b	19.288864
_cell_length_c	19.288857
_cell_angle_alpha	96.865323
_cell_angle_beta	99.286801
_cell_angle_gamma	99.258236
loop_
_atom_site_label
_atom_site_type_symbol
_atom_site_fract_x
_atom_site_fract_y
_atom_site_fract_z
O1	O	0.121357	-0.910422	0.097575
O2	O	0.121259	-0.708170	0.109255
O3	O	0.121293	-0.815144	0.002283
O4	O	0.121322	-0.803447	0.204547
O5	O	-0.120475	-0.836898	-0.019490
O6	O	-0.120510	-0.729923	0.087482
O7	O	-0.120411	-0.932175	0.075803
Cu8	Cu	-0.142536	-0.833036	0.079654
Cu9	Cu	0.143383	-0.807310	0.105403
O10	O	-0.120446	-0.825201	0.182774
C11	C	0.000362	-0.693171	0.097992
C12	C	0.000323	-0.616071	0.096859
C13	C	0.000407	-0.825646	-0.034480
C14	C	0.000403	-0.824519	-0.111584
N15	N	-0.343636	-0.851135	0.061544
C16	C	-0.583275	-0.827711	0.084991
C17	C	-0.415874	-0.812634	0.100067
N18	N	0.344483	-0.789216	0.123509
C19	C	0.000489	-0.947174	0.087066
C20	C	0.000537	-1.024273	0.088200
C21	C	0.000355	-0.571370	0.159630
C22	C	0.000371	-0.498922	0.158571
C23	C	0.000384	-0.471175	0.094740
C24	C	0.000344	-0.515886	0.031960
C25	C	0.000314	-0.588335	0.033019
C26	C	0.085128	-0.355289	0.052192
C27	C	0.085168	-0.282841	0.051136
C28	C	0.000472	-0.247722	0.091468
C29	C	-0.084245	-0.285055	0.132870
C30	C	-0.084275	-0.357504	0.133930
C31	C	0.000416	-0.392618	0.093583
C32	C	0.000519	-0.124463	0.153095
C33	C	0.000526	-0.052015	0.152032
C34	C	0.000514	-0.068979	0.025420
C35	C	0.000492	-0.141428	0.026483
C36	C	0.000502	-0.169165	0.090323
C37	C	0.132191	-0.812136	-0.135926
C38	C	0.132201	-0.811066	-0.208371
C39	C	0.000416	-0.822395	-0.256474
C40	C	-0.131389	-0.834776	-0.232124
C41	C	-0.131396	-0.835839	-0.159679
C42	C	-0.100520	-0.870478	-0.385795
C43	C	-0.100508	-0.869420	-0.458239
C44	C	0.000431	-0.819116	-0.479919
C45	C	0.101382	-0.769877	-0.429144
C46	C	0.101375	-0.770939	-0.356699
C47	C	0.000408	-0.821244	-0.335030
C48	C	0.132239	-0.805570	-0.582813
C49	C	0.132244	-0.804497	-0.655259
C50	C	-0.131351	-0.828215	-0.679012
C51	C	-0.131352	-0.829281	-0.606566
C52	C	0.000447	-0.817962	-0.558471
C53	C	0.000443	-0.814699	0.219538
C54	C	0.000457	-0.815825	0.296643
H55	H	-0.645354	-0.871833	0.040856
C56	C	0.178294	-0.393918	0.007823
H57	H	0.166132	-0.442413	0.014378
H58	H	0.277693	-0.372306	0.022704
H59	H	0.148503	-0.390875	-0.040991
H60	H	-0.353799	-0.768515	0.144210
C61	C	-0.427481	-0.910737	0.001911
H62	H	-0.528994	-0.913049	-0.000404
H63	H	-0.402568	-0.954844	0.011536
H64	H	-0.402624	-0.901079	-0.042193
H65	H	0.000375	-0.493288	-0.020010
C66	C	0.000479	-0.190599	-0.042564
H67	H	0.000502	-0.163699	-0.080731
H68	H	-0.083840	-0.226784	-0.052376
H69	H	0.084791	-0.211641	-0.037185
C70	C	-0.571663	-0.729616	0.183137
H71	H	-0.470151	-0.727300	0.185445
H72	H	-0.596521	-0.739267	0.227240
H73	H	-0.596572	-0.685507	0.173505
C74	C	0.000339	-0.601880	0.229848
H75	H	0.000345	-0.564878	0.267080
H76	H	0.084631	-0.622225	0.240490
H77	H	-0.083999	-0.637355	0.225297
H78	H	0.000393	-0.462520	0.209688
C79	C	0.277159	-0.799683	-0.083023
H80	H	0.258285	-0.802096	-0.036391
H81	H	0.331303	-0.754145	-0.084592
H82	H	0.331317	-0.835141	-0.095443
C83	C	0.178356	-0.241776	0.005602
H84	H	0.166263	-0.193597	0.010755
H85	H	0.148565	-0.262476	-0.042862
H86	H	0.277751	-0.243912	0.020835
C87	C	0.000296	-0.637506	-0.036030
H88	H	0.000314	-0.610607	-0.074198
H89	H	-0.084019	-0.673693	-0.045842
H90	H	0.084611	-0.658545	-0.030651
H91	H	-0.182728	-0.911442	-0.368153
C92	C	0.212402	-0.716781	-0.300849
H93	H	0.197944	-0.724624	-0.254600
H94	H	0.199677	-0.670010	-0.307470
H95	H	0.308091	-0.722306	-0.306013
C96	C	-0.177420	-0.246438	0.177238
H97	H	-0.227867	-0.279047	0.202048
H98	H	-0.245524	-0.227509	0.146677
H99	H	-0.116335	-0.208934	0.210372
C100	C	0.277173	-0.797471	-0.235160
H101	H	0.355664	-0.790893	-0.196142
H102	H	0.282675	-0.756075	-0.257513
H103	H	0.282625	-0.837077	-0.268344
H104	H	-0.153259	-0.387899	0.167638
H105	H	0.000505	-0.147050	0.205075
C106	C	0.000537	-0.038466	-0.044792
H107	H	0.000570	0.011085	-0.036433
H108	H	-0.083776	-0.061392	-0.078225
H109	H	0.084855	-0.046254	-0.063030
C110	C	0.212418	-0.714538	-0.452981
H111	H	0.197957	-0.720950	-0.503397
H112	H	0.308100	-0.720407	-0.434404
H113	H	0.199676	-0.668116	-0.435857
H114	H	-0.238653	-0.837433	-0.718176
H115	H	0.000543	-0.015620	0.203149
H116	H	0.239557	-0.796350	-0.543651
H117	H	0.239566	-0.794409	-0.675075
C118	C	-0.276320	-0.842915	-0.579789
H119	H	-0.354807	-0.849515	-0.618812
H120	H	-0.281826	-0.803330	-0.546597
H121	H	-0.281775	-0.884323	-0.557448
H122	H	-0.182704	-0.909515	-0.499575
H123	H	-0.238690	-0.843998	-0.271294
H124	H	-0.238717	-0.845920	-0.139861
