data_functionalizedCrystal
_audit_creation_method	'MofGen! by Chris Wilmer'
_symmetry_space_group_name_H-M	'P1'
_symmetry_Int_Tables_number	1
_symmetry_cell_setting	triclinic
loop_
_symmetry_equiv_pos_as_xyz
  x,y,z
_cell_length_a	12.759393
_cell_length_b	11.169417
_cell_length_c	12.759400
_cell_angle_alpha	89.984477
_cell_angle_beta	89.970195
_cell_angle_gamma	90.019397
loop_
_atom_site_label
_atom_site_type_symbol
_atom_site_fract_x
_atom_site_fract_y
_atom_site_fract_z
Zn1	Zn	-0.593982	-1.834921	-0.418191
Zn2	Zn	-0.418304	-1.834797	-0.593906
Zn3	Zn	-0.418322	-1.634209	-0.418245
Zn4	Zn	-0.593946	-1.634200	-0.593831
O5	O	-0.506139	-1.734532	-0.506043
O6	O	-0.570686	-2.002855	-0.441509
O7	O	-0.271285	-1.808140	-0.570659
O8	O	-0.441646	-1.660889	-0.271217
O9	O	-0.441616	-2.002763	-0.570606
O10	O	-0.570703	-1.808352	-0.271177
O11	O	-0.271298	-1.660769	-0.441601
O12	O	-0.441611	-1.466258	-0.441528
O13	O	-0.740972	-1.660874	-0.570478
O14	O	-0.570642	-1.466251	-0.570530
O15	O	-0.740998	-1.808343	-0.441436
O16	O	-0.441581	-1.808132	-0.740917
O17	O	-0.570624	-1.660754	-0.740862
C18	C	-0.506120	-1.734461	-0.779011
C19	C	-0.506147	-1.734540	-0.895787
C20	C	-0.506125	-1.422707	-0.506027
C21	C	-0.506144	-1.289307	-0.506046
C22	C	-0.780172	-1.734622	-0.505942
C23	C	-0.896949	-1.734660	-0.505899
C24	C	-0.951826	-1.811453	-0.438696
C25	C	-1.061550	-1.811473	-0.438651
C26	C	-1.061510	-1.657904	-0.573021
C27	C	-0.951788	-1.657879	-0.573060
C28	C	-1.211526	-1.854439	-0.314695
C29	C	-1.266407	-1.931251	-0.247501
C30	C	-1.230813	-2.048357	-0.231392
C31	C	-1.140339	-2.088674	-0.282492
C32	C	-1.085463	-2.011869	-0.349693
C33	C	-1.121056	-1.894747	-0.365783
C34	C	-0.801810	-1.614925	-0.697018
C35	C	-0.746933	-1.538125	-0.764225
C36	C	-0.782525	-1.421017	-0.780345
C37	C	-0.873002	-1.380704	-0.729264
C38	C	-0.927880	-1.457504	-0.662057
C39	C	-0.892280	-1.574610	-0.645935
C40	C	-0.233171	-1.734511	-0.506068
C41	C	-0.116395	-1.734706	-0.505815
C42	C	-0.506153	-2.047574	-0.506060
C43	C	-0.506159	-2.180974	-0.506067
C44	C	-0.573404	-1.811291	-0.950539
C45	C	-0.573433	-1.811358	-1.060263
C46	C	-0.438938	-1.657921	-1.060474
C47	C	-0.438916	-1.657849	-0.950752
C48	C	-0.697401	-1.854266	-1.210091
C49	C	-0.764648	-1.931036	-1.264846
C50	C	-0.780859	-2.048110	-1.229137
C51	C	-0.729806	-2.088439	-1.138674
C52	C	-0.662550	-2.011676	-1.083924
C53	C	-0.646360	-1.894585	-1.119632
C54	C	-0.314946	-1.614953	-0.800922
C55	C	-0.247684	-1.538195	-0.746170
C56	C	-0.231464	-1.421118	-0.781878
C57	C	-0.282498	-1.380794	-0.872344
C58	C	-0.349760	-1.457551	-0.927096
C59	C	-0.365982	-1.574626	-0.891381
C60	C	-0.506180	-1.734636	-0.232010
C61	C	-0.506198	-1.734680	-0.115233
H62	H	-0.907179	-1.873970	-0.384007
H63	H	-0.835614	-2.110616	-1.273726
H64	H	-1.106173	-1.595394	-0.627703
H65	H	-1.240510	-1.759080	-0.327797
H66	H	-0.628150	-1.873736	-0.905789
H67	H	-0.206124	-1.571040	-0.672511
H68	H	-0.620981	-2.044513	-1.010273
Cl69	Cl	-1.041623	-1.406822	-0.597836
H70	H	-1.011805	-2.044697	-0.391301
H71	H	-0.901985	-1.285347	-0.742393
Cl72	Cl	-0.750174	-2.235634	-1.093797
Cl73	Cl	-0.828824	-1.880337	-1.378569
Cl74	Cl	-0.677044	-1.707073	-1.254979
Cl75	Cl	-0.335331	-1.762144	-0.756028
H76	H	-1.275504	-2.110897	-0.176680
H77	H	-0.737839	-1.358491	-0.835081
H78	H	-0.384199	-1.595484	-1.105240
H79	H	-0.269288	-1.285461	-0.901420
Cl80	Cl	-0.413925	-1.406853	-1.040823
H81	H	-0.176690	-1.358625	-0.737290
H82	H	-1.111371	-2.184038	-0.269377
H83	H	-0.673268	-1.570963	-0.805828
H84	H	-1.340071	-1.898413	-0.205896
Cl85	Cl	-0.757035	-1.762138	-0.676723
