data_functionalizedCrystal
_audit_creation_method	'MofGen! by Chris Wilmer'
_symmetry_space_group_name_H-M	'P1'
_symmetry_Int_Tables_number	1
_symmetry_cell_setting	triclinic
loop_
_symmetry_equiv_pos_as_xyz
  x,y,z
_cell_length_a	16.956995
_cell_length_b	16.956984
_cell_length_c	15.455313
_cell_angle_alpha	92.464369
_cell_angle_beta	87.515363
_cell_angle_gamma	76.053945
loop_
_atom_site_label
_atom_site_type_symbol
_atom_site_fract_x
_atom_site_fract_y
_atom_site_fract_z
O1	O	1.059593	0.029455	-0.072191
O2	O	1.392927	0.362788	0.261143
O3	O	1.726260	0.696122	0.594476
O4	O	0.825582	0.057571	-0.072179
O5	O	1.158916	0.390905	0.261154
O6	O	1.492249	0.724238	0.594487
O7	O	0.956647	-0.073492	-0.072180
O8	O	1.289980	0.259841	0.261154
O9	O	1.623313	0.593175	0.594487
O10	O	0.928529	0.160518	-0.072190
O11	O	1.261862	0.493852	0.261143
O12	O	1.595196	0.827185	0.594476
O13	O	0.949154	-0.066026	0.072083
O14	O	1.282487	0.267307	0.405416
O15	O	1.615820	0.600641	0.738749
O16	O	0.818089	0.065037	0.072083
O17	O	1.151423	0.398371	0.405416
O18	O	1.484756	0.731704	0.738750
O19	O	1.052100	0.036921	0.072072
O20	O	1.385434	0.370254	0.405405
O21	O	1.718767	0.703587	0.738738
Cu22	Cu	0.934411	0.051661	0.085249
Cu23	Cu	1.267744	0.384994	0.418583
Cu24	Cu	1.601077	0.718327	0.751916
Cu25	Cu	0.943272	0.042832	-0.085357
Cu26	Cu	1.276605	0.376165	0.247976
Cu27	Cu	1.609939	0.709498	0.581309
O28	O	0.921036	0.167984	0.072072
O29	O	1.254369	0.501318	0.405405
O30	O	1.587703	0.834651	0.738738
C31	C	0.792033	0.062744	-0.000047
C32	C	1.125366	0.396077	0.333287
C33	C	1.458699	0.729411	0.666620
C34	C	0.703230	0.067024	-0.000042
C35	C	1.036563	0.400357	0.333291
C36	C	1.369897	0.733691	0.666624
C37	C	0.201821	0.099040	-0.000076
C38	C	0.535154	0.432374	0.333257
C39	C	0.868487	0.765707	0.666591
C40	C	0.285261	0.095013	-0.000075
C41	C	0.618595	0.428346	0.333258
C42	C	0.951928	0.761679	0.666591
C43	C	0.341333	0.019412	-0.000065
C44	C	0.674666	0.352745	0.333268
C45	C	1.007999	0.686079	0.666602
C46	C	0.313960	-0.052166	-0.000065
C47	C	0.647294	0.281167	0.333269
C48	C	0.980627	0.614501	0.666602
C49	C	0.230521	-0.048138	-0.000072
C50	C	0.563855	0.285195	0.333262
C51	C	0.897188	0.618529	0.666595
C52	C	0.592419	-0.000526	-0.000049
C53	C	0.925752	0.332807	0.333284
C54	C	1.259085	0.666141	0.666618
C55	C	0.675862	-0.004548	-0.000039
C56	C	1.009196	0.328785	0.333294
C57	C	1.342529	0.662118	0.666627
C58	C	0.647158	0.142631	-0.000051
C59	C	0.980491	0.475964	0.333282
C60	C	1.313824	0.809298	0.666615
C61	C	0.563718	0.146652	-0.000053
C62	C	0.897051	0.479986	0.333280
C63	C	1.230385	0.813319	0.666613
C64	C	0.536353	0.075074	-0.000057
C65	C	0.869686	0.408408	0.333276
C66	C	1.203020	0.741741	0.666609
N67	N	0.426623	0.015294	-0.000062
N68	N	0.759956	0.348627	0.333272
N69	N	1.093289	0.681960	0.666605
N70	N	0.451065	0.079193	-0.000067
N71	N	0.784398	0.412527	0.333266
N72	N	1.117732	0.745860	0.666599
C73	C	0.954340	-0.099562	-0.000049
C74	C	1.287673	0.233771	0.333285
C75	C	1.621007	0.567105	0.666618
C76	C	0.958621	-0.188365	-0.000050
C77	C	1.291954	0.144968	0.333283
C78	C	1.625287	0.478302	0.666617
C79	C	0.887048	-0.215732	-0.000050
C80	C	1.220381	0.117601	0.333283
C81	C	1.553714	0.450935	0.666616
C82	C	0.891074	-0.299172	-0.000048
C83	C	1.224408	0.034161	0.333285
C84	C	1.557741	0.367494	0.666619
C85	C	0.966675	-0.355245	-0.000052
C86	C	1.300009	-0.021912	0.333282
C87	C	1.633342	0.311422	0.666615
C88	C	1.038254	-0.327873	-0.000049
C89	C	1.371587	0.005460	0.333284
C90	C	1.704920	0.338794	0.666618
C91	C	1.034226	-0.244434	-0.000045
C92	C	1.367559	0.088900	0.333289
C93	C	1.700893	0.422233	0.666622
C94	C	0.986613	-0.606332	-0.000058
C95	C	1.319946	-0.272999	0.333275
C96	C	1.653279	0.060335	0.666608
C97	C	0.990635	-0.689776	-0.000065
C98	C	1.323969	-0.356443	0.333268
C99	C	1.657302	-0.023110	0.666602
C100	C	0.843455	-0.661070	-0.000063
C101	C	1.176789	-0.327736	0.333271
C102	C	1.510122	0.005597	0.666604
C103	C	0.839434	-0.577630	-0.000064
C104	C	1.172768	-0.244297	0.333269
C105	C	1.506101	0.089037	0.666603
C106	C	0.911012	-0.550265	-0.000056
C107	C	1.244346	-0.216932	0.333277
C108	C	1.577679	0.116401	0.666610
N109	N	0.970794	-0.440535	-0.000052
N110	N	1.304127	-0.107202	0.333281
N111	N	1.637460	0.226132	0.666614
N112	N	0.906893	-0.464976	-0.000050
N113	N	1.240227	-0.131643	0.333284
N114	N	1.573560	0.201690	0.666617
C115	C	1.085650	0.031748	-0.000063
C116	C	1.418983	0.365081	0.333270
C117	C	1.752317	0.698415	0.666604
C118	C	1.174453	0.027468	-0.000073
C119	C	1.507786	0.360801	0.333260
C120	C	1.841120	0.694134	0.666594
C121	C	0.923343	0.194054	-0.000061
C122	C	1.256676	0.527388	0.333272
C123	C	1.590009	0.860721	0.666606
C124	C	0.919062	0.282857	-0.000066
C125	C	1.252396	0.616190	0.333268
C126	C	1.585729	0.949523	0.666601
N127	N	0.928184	0.057870	0.205245
N128	N	1.261517	0.391203	0.538578
N129	N	1.594851	0.724537	0.871912
N130	N	0.949505	0.036616	-0.205353
N131	N	1.282839	0.369949	0.127981
N132	N	1.616172	0.703282	0.461314
C133	C	0.983882	0.002208	0.250639
C134	C	1.317215	0.335541	0.583972
C135	C	1.650548	0.668874	0.917306
C136	C	0.979180	0.006910	0.341447
C137	C	1.312513	0.340243	0.674780
C138	C	1.645846	0.673577	1.008114
C139	C	0.918783	0.067279	0.386859
C140	C	1.252116	0.400613	0.720192
C141	C	1.585450	0.733946	1.053526
C142	C	0.863080	0.122944	0.341459
C143	C	1.196413	0.456278	0.674792
C144	C	1.529746	0.789611	1.008125
C145	C	0.867779	0.118237	0.250653
C146	C	1.201112	0.451571	0.583986
C147	C	1.534445	0.784904	0.917319
C148	C	0.898501	0.087574	0.658441
C149	C	1.231835	0.420907	0.991774
C150	C	1.565168	0.754241	1.325107
C151	C	0.893808	0.092278	0.749253
C152	C	1.227141	0.425611	1.082587
C153	C	1.560474	0.758945	1.415920
C154	C	1.009907	-0.023758	0.749235
C155	C	1.343241	0.309576	1.082568
C156	C	1.676574	0.642909	1.415902
C157	C	1.014604	-0.028456	0.658427
C158	C	1.347937	0.304877	0.991760
C159	C	1.681271	0.638211	1.325094
C160	C	0.958898	0.027206	0.613035
C161	C	1.292232	0.360540	0.946368
C162	C	1.625565	0.693873	1.279701
N163	N	0.913977	0.072089	0.479679
N164	N	1.247310	0.405422	0.813013
N165	N	1.580643	0.738756	1.146346
N166	N	0.963701	0.022392	0.520216
N167	N	1.297035	0.355726	0.853549
N168	N	1.630368	0.689059	1.186883
H169	H	0.208241	-0.106420	-0.000071
H170	H	0.541575	0.226913	0.333262
H171	H	0.874908	0.560247	0.666596
F172	F	0.373638	-0.132627	-0.000057
F173	F	0.706971	0.200707	0.333276
F174	F	1.040305	0.534040	0.666610
F175	F	0.814896	-0.328294	-0.000050
F176	F	1.148230	0.005040	0.333284
F177	F	1.481563	0.338373	0.666617
F178	F	0.806582	-0.156062	-0.000052
F179	F	1.139915	0.177272	0.333282
F180	F	1.473249	0.510605	0.666615
F181	F	0.758970	-0.517959	-0.000068
F182	F	1.092303	-0.184626	0.333265
F183	F	1.425636	0.148708	0.666599
F184	F	1.038458	-0.052333	0.389759
F185	F	1.371791	0.281001	0.723092
F186	F	1.705125	0.614334	1.056426
F187	F	1.078885	-0.092706	0.610097
F188	F	1.412219	0.240627	0.943431
F189	F	1.745552	0.573960	1.276764
H190	H	0.721516	-0.066115	-0.000035
H191	H	1.054849	0.267218	0.333298
H192	H	1.388182	0.600552	0.666631
F193	F	0.767282	-0.690200	-0.000070
F194	F	1.100616	-0.356867	0.333264
F195	F	1.433949	-0.023533	0.666597
F196	F	1.071104	-0.749453	-0.000074
F197	F	1.404438	-0.416120	0.333260
F198	F	1.737771	-0.082786	0.666593
H199	H	1.055260	-0.069076	0.786202
H200	H	1.388593	0.264257	1.119535
H201	H	1.721926	0.597591	1.452869
F202	F	1.110403	-0.215309	-0.000037
F203	F	1.443737	0.118025	0.333296
F204	F	1.777070	0.451358	0.666630
H205	H	1.044897	-0.584062	-0.000055
H206	H	1.378230	-0.250729	0.333279
H207	H	1.711563	0.082604	0.666612
F208	F	1.118714	-0.387551	-0.000043
F209	F	1.452047	-0.054218	0.333290
F210	F	1.785381	0.279115	0.666623
H211	H	0.156172	0.160603	-0.000078
H212	H	0.489505	0.493937	0.333256
H213	H	0.822838	0.827270	0.666589
H214	H	1.033066	-0.046948	0.213670
H215	H	1.366399	0.286385	0.547004
H216	H	1.699733	0.619718	0.880337
H217	H	0.813899	0.172096	0.378439
H218	H	1.147233	0.505429	0.711772
H219	H	1.480566	0.838762	1.045105
H220	H	0.844623	0.141441	0.786224
H221	H	1.177956	0.474775	1.119557
H222	H	1.511290	0.808108	1.452890
H223	H	0.853144	0.132898	0.621489
H224	H	1.186478	0.466231	0.954823
H225	H	1.519811	0.799565	1.288156
H226	H	0.570149	-0.058810	-0.000050
H227	H	0.903482	0.274523	0.333283
H228	H	1.236816	0.607857	0.666617
F229	F	0.808495	0.177479	0.202342
F230	F	1.141828	0.510813	0.535675
F231	F	1.475162	0.844146	0.869009
H232	H	0.669448	0.200906	-0.000049
H233	H	1.002781	0.534239	0.333284
H234	H	1.336114	0.867572	0.666617
F235	F	0.314384	0.171190	-0.000083
F236	F	0.647717	0.504524	0.333251
F237	F	0.981050	0.837857	0.666584
H238	H	0.518069	0.208215	-0.000064
H239	H	0.851402	0.541548	0.333269
H240	H	1.184736	0.874881	0.666603
