data_functionalizedCrystal
_audit_creation_method	'MofGen! by Chris Wilmer'
_symmetry_space_group_name_H-M	'P1'
_symmetry_Int_Tables_number	1
_symmetry_cell_setting	triclinic
loop_
_symmetry_equiv_pos_as_xyz
  x,y,z
_cell_length_a	14.519731
_cell_length_b	14.519731
_cell_length_c	10.868271
_cell_angle_alpha	89.995592
_cell_angle_beta	89.999692
_cell_angle_gamma	96.311147
loop_
_atom_site_label
_atom_site_type_symbol
_atom_site_fract_x
_atom_site_fract_y
_atom_site_fract_z
O1	O	-0.120984	1.223864	-0.102310
O2	O	-0.135200	0.955391	-0.102310
O3	O	0.006145	1.096736	-0.102318
O4	O	-0.262329	1.082520	-0.102301
O5	O	0.006150	1.096724	0.102326
O6	O	-0.135195	0.955380	0.102335
O7	O	-0.120979	1.223853	0.102335
Zn8	Zn	-0.128086	1.089614	0.134827
Zn9	Zn	-0.128093	1.089630	-0.134801
O10	O	-0.262323	1.082508	0.102344
C11	C	-0.134531	0.921026	0.000012
C12	C	-0.132535	0.818645	0.000012
C13	C	-0.130913	0.735501	0.000007
C14	C	-0.128887	0.631192	0.000006
C15	C	-0.127278	0.548053	0.000006
C16	C	-0.125252	0.443738	0.000003
C17	C	-0.296685	1.083180	0.000024
C18	C	-0.399066	1.085176	0.000030
C19	C	-0.482210	1.086798	0.000025
C20	C	-0.586519	1.088825	0.000014
C21	C	-0.669658	1.090433	0.000004
C22	C	-0.773974	1.092459	-0.000006
C23	C	0.040507	1.096064	-0.000001
C24	C	0.142887	1.094068	-0.000016
C25	C	-0.121648	1.258218	0.000010
C26	C	-0.123643	1.360598	0.000003
N27	N	-0.128080	1.089611	0.318841
N28	N	-0.128091	1.089641	-0.318815
C29	C	-0.128091	1.089625	0.569847
C30	C	-0.128088	1.089614	0.430169
