data_functionalizedCrystal
_audit_creation_method	'MofGen! by Chris Wilmer'
_symmetry_space_group_name_H-M	'P1'
_symmetry_Int_Tables_number	1
_symmetry_cell_setting	triclinic
loop_
_symmetry_equiv_pos_as_xyz
  x,y,z
_cell_length_a	15.944493
_cell_length_b	15.944551
_cell_length_c	11.804402
_cell_angle_alpha	101.830988
_cell_angle_beta	78.153898
_cell_angle_gamma	83.486891
loop_
_atom_site_label
_atom_site_type_symbol
_atom_site_fract_x
_atom_site_fract_y
_atom_site_fract_z
O1	O	1.131522	0.091140	-0.099013
O2	O	0.886966	0.104546	-0.099019
O3	O	1.015920	-0.024432	-0.099005
O4	O	1.002568	0.220117	-0.099027
O5	O	0.981971	0.009490	0.099047
O6	O	0.853016	0.138467	0.099033
O7	O	1.097572	0.125061	0.099039
Cu8	Cu	0.972194	0.134862	0.117120
Cu9	Cu	1.012344	0.094745	-0.117100
O10	O	0.968618	0.254039	0.099025
C11	C	0.838697	0.120958	0.000006
C12	C	0.745448	0.119315	0.000004
C13	C	0.509690	0.195234	-0.000003
C14	C	0.442391	0.171020	0.097656
C15	C	0.574727	0.116272	0.000007
C16	C	0.475867	0.137557	-0.097608
C17	C	0.409818	0.113337	0.000004
C18	C	0.508643	0.092092	0.097746
C19	C	0.542137	0.058626	-0.097605
C20	C	0.474867	0.034358	0.000078
C21	C	0.669726	0.117965	0.000010
C22	C	0.314820	0.111639	0.000010
C23	C	0.998391	-0.038765	0.000021
C24	C	0.996728	-0.132010	0.000022
C25	C	0.912825	-0.346853	0.000003
C26	C	0.935049	-0.391152	0.097656
C27	C	0.993723	-0.302737	0.000013
C28	C	0.968540	-0.424580	-0.097608
C29	C	0.990814	-0.467652	-0.000001
C30	C	1.015955	-0.345795	0.097746
C31	C	1.049450	-0.379231	-0.097606
C32	C	1.071728	-0.423509	0.000071
C33	C	0.995396	-0.207734	0.000022
C34	C	0.989146	-0.562653	-0.000002
C35	C	1.145842	0.108648	0.000011
C36	C	1.239091	0.110290	0.000006
C37	C	0.986148	0.268371	-0.000003
C38	C	0.987811	0.361615	-0.000012
N39	N	0.943961	0.163077	0.281858
C40	C	1.108373	-0.001240	0.655824
C41	C	1.129730	-0.022589	0.531165
C42	C	1.083290	0.023826	0.468832
C43	C	1.015489	0.091592	0.531171
C44	C	0.994134	0.112947	0.655842
C45	C	0.969050	0.138013	0.468850
C46	C	0.901249	0.205780	0.531189
C47	C	0.879897	0.227131	0.655848
C48	C	0.926338	0.180716	0.718181
C49	C	0.990405	0.116658	0.344178
C50	C	0.876166	0.230846	0.344196
C51	C	0.854808	0.252194	0.468856
N52	N	1.040577	0.066529	0.718163
H53	H	0.845658	-0.313515	0.000099
H54	H	0.459391	-0.033702	0.000140
H55	H	1.184934	-0.077763	0.480413
H56	H	1.138928	-0.456672	0.000128
N57	N	1.041074	-0.302963	0.201421
N58	N	1.046371	-0.223945	0.218179
H59	H	1.064109	-0.193692	0.291399
H60	H	0.908947	0.198095	0.819689
N61	N	1.155814	-0.048619	0.719513
N62	N	1.136747	-0.029531	0.830819
H63	H	1.170260	-0.062990	0.875802
N64	N	0.874387	-0.398639	0.201231
N65	N	0.883833	-0.365874	0.302580
H66	H	0.840988	-0.371159	0.375727
N67	N	0.596249	-0.000868	-0.201186
N68	N	0.677025	-0.009522	-0.217254
H69	H	0.715252	-0.051524	-0.290424
N70	N	0.527011	0.068040	0.201434
N71	N	0.515409	-0.004838	0.219329
H72	H	0.528382	-0.021823	0.292559
N73	N	0.810653	0.296367	0.719509
N74	N	0.769197	0.337807	0.663847
H75	H	0.720294	0.386708	0.708805
N76	N	0.457320	0.161681	-0.201164
N77	N	0.468242	0.234835	-0.218544
H78	H	0.455144	0.251880	-0.291676
H79	H	1.100682	0.006441	0.367329
H80	H	1.045609	0.061483	0.293433
N81	N	0.943375	-0.467514	-0.201188
N82	N	0.993881	-0.529838	-0.274312
H83	H	0.976104	-0.560157	-0.347463
H84	H	1.097790	-0.373248	-0.180166
N85	N	0.785545	0.321405	0.532541
N86	N	0.721494	0.306638	0.602118
H87	H	0.672574	0.355517	0.647098
H88	H	0.525299	0.263268	0.000082
N89	N	0.828737	0.278261	0.280521
N90	N	0.847813	0.259188	0.169214
H91	H	0.814323	0.292673	0.124234
H92	H	0.399302	0.218508	0.180212
