data_functionalizedCrystal
_audit_creation_method	'MofGen! by Chris Wilmer'
_symmetry_space_group_name_H-M	'P1'
_symmetry_Int_Tables_number	1
_symmetry_cell_setting	triclinic
loop_
_symmetry_equiv_pos_as_xyz
  x,y,z
_cell_length_a	16.992694
_cell_length_b	10.540539
_cell_length_c	16.053802
_cell_angle_alpha	92.593658
_cell_angle_beta	87.249047
_cell_angle_gamma	87.596857
loop_
_atom_site_label
_atom_site_type_symbol
_atom_site_fract_x
_atom_site_fract_y
_atom_site_fract_z
O1	O	1.045174	0.264306	-0.069318
O2	O	1.545174	0.764306	0.430682
O3	O	0.816873	0.261349	-0.069343
O4	O	1.316873	0.761349	0.430657
O5	O	0.936232	0.078573	-0.069329
O6	O	1.436232	0.578573	0.430671
O7	O	0.925815	0.447082	-0.069332
O8	O	1.425815	0.947082	0.430668
O9	O	0.929662	0.088589	0.069529
O10	O	1.429662	0.588589	0.569529
O11	O	0.810303	0.271366	0.069516
O12	O	1.310303	0.771366	0.569516
O13	O	1.038604	0.274322	0.069540
O14	O	1.538604	0.774322	0.569540
Zn15	Zn	0.923410	0.274434	0.091575
Zn16	Zn	1.423410	0.774434	0.591575
Zn17	Zn	0.932067	0.261237	-0.091377
Zn18	Zn	1.432067	0.761237	0.408623
O19	O	0.919245	0.457098	0.069526
O20	O	1.419245	0.957098	0.569526
C21	C	0.784355	0.262556	0.000083
C22	C	1.284355	0.762556	0.500083
C23	C	0.697247	0.251215	0.000074
C24	C	1.197247	0.751215	0.500074
C25	C	0.647620	0.360635	0.000073
C26	C	1.147620	0.860635	0.500073
C27	C	0.565773	0.349973	0.000085
C28	C	1.065773	0.849973	0.500085
C29	C	0.533555	0.229889	0.000091
C30	C	1.033555	0.729889	0.500091
C31	C	0.583189	0.120461	0.000094
C32	C	1.083189	0.620461	0.500094
C33	C	0.665034	0.131125	0.000088
C34	C	1.165034	0.631125	0.500088
C35	C	0.289709	0.185691	0.000114
C36	C	0.789709	0.685691	0.500114
C37	C	0.207858	0.175036	0.000117
C38	C	0.707858	0.675036	0.500117
C39	C	0.190447	0.404549	0.000110
C40	C	0.690447	0.904549	0.500110
C41	C	0.272294	0.415202	0.000099
C42	C	0.772294	0.915202	0.500099
C43	C	0.321921	0.305774	0.000106
C44	C	0.821921	0.805774	0.500106
N45	N	0.449895	0.218988	0.000100
N46	N	0.949895	0.718988	0.500100
N47	N	0.405579	0.316677	0.000103
N48	N	0.905579	0.816677	0.500103
C49	C	0.932166	0.036210	0.000099
C50	C	1.432166	0.536210	0.500099
C51	C	0.929829	-0.104941	0.000094
C52	C	1.429829	0.395059	0.500094
C53	C	0.840283	-0.296162	-0.000227
C54	C	1.340283	0.203838	0.499773
C55	C	0.842638	-0.149316	0.000086
C56	C	1.342638	0.350684	0.500086
C57	C	0.968037	-0.157237	0.079393
C58	C	1.468037	0.342763	0.579393
C59	C	0.965058	-0.304035	0.079460
C60	C	1.465058	0.195965	0.579460
C61	C	0.974303	-0.315790	-0.078448
C62	C	1.474303	0.184210	0.421552
C63	C	0.975156	-0.168814	-0.079496
C64	C	1.475156	0.331186	0.420504
C65	C	1.071123	0.273115	0.000112
C66	C	1.571123	0.773115	0.500112
C67	C	1.158230	0.284456	0.000117
C68	C	1.658230	0.784456	0.500117
C69	C	0.923311	0.499461	0.000097
C70	C	1.423311	0.999461	0.500097
C71	C	0.925649	0.640612	0.000096
C72	C	1.425649	1.140612	0.500096
N73	N	0.917508	0.283440	0.216434
N74	N	1.417508	0.783440	0.716434
N75	N	0.937975	0.252222	-0.216237
N76	N	1.437975	0.752222	0.283763
C77	C	0.968315	0.205700	0.260134
C78	C	1.468315	0.705700	0.760134
C79	C	0.964193	0.212013	0.347540
C80	C	1.464193	0.712013	0.847540
C81	C	0.909269	0.296073	0.391245
C82	C	1.409269	0.796073	0.891245
C83	C	0.858458	0.373817	0.347539
C84	C	1.358458	0.873817	0.847539
C85	C	0.862576	0.367497	0.260134
C86	C	1.362576	0.867497	0.760134
C87	C	0.891281	0.323645	0.652653
C88	C	1.391281	0.823645	1.152653
C89	C	0.887169	0.329962	0.740063
C90	C	1.387169	0.829962	1.240063
C91	C	0.992904	0.168156	0.740059
C92	C	1.492904	0.668156	1.240059
C93	C	0.997020	0.161848	0.652652
C94	C	1.497020	0.661848	1.152652
C95	C	0.946206	0.239587	0.608954
C96	C	1.446206	0.739587	1.108954
N97	N	0.905057	0.302531	0.480588
N98	N	1.405057	0.802531	0.980588
N99	N	0.950415	0.233122	0.519612
N100	N	1.450415	0.733122	1.019612
H101	H	0.150032	0.493638	0.000105
H102	H	0.650032	0.993638	0.500105
H103	H	0.936097	-0.112911	0.138399
H104	H	1.436097	0.387089	0.638399
H105	H	0.842440	0.398419	0.775644
H106	H	1.342440	0.898419	1.275644
H107	H	1.005563	0.148710	0.383120
H108	H	1.505563	0.648710	0.883120
C109	C	1.048790	0.082638	0.788134
C110	C	1.548790	0.582638	1.288134
N111	N	1.090882	0.018218	0.824344
N112	N	1.590882	0.518218	1.324344
H113	H	1.031928	-0.129114	0.082349
H114	H	1.531928	0.370886	0.582349
H115	H	1.027595	-0.346303	0.083064
H116	H	1.527595	0.153697	0.583064
C117	C	1.057437	0.069369	0.604583
C118	C	1.557437	0.569369	1.104583
N119	N	1.102944	-0.000288	0.568378
N120	N	1.602944	0.499712	1.068378
H121	H	0.931243	-0.330650	0.138731
H122	H	1.431243	0.169350	0.638731
C123	C	0.940019	-0.367575	-0.159645
C124	C	1.440019	0.132425	0.340355
N125	N	0.914187	-0.406578	-0.220799
N126	N	1.414187	0.093422	0.279201
C127	C	0.798033	0.466272	0.395618
C128	C	1.298033	0.966272	0.895618
N129	N	0.752519	0.535910	0.431830
N130	N	1.252519	1.035910	0.931830
C131	C	0.790335	-0.335440	0.076175
C132	C	1.290335	0.164560	0.576175
N133	N	0.752720	-0.365012	0.133729
N134	N	1.252720	0.134988	0.633729
C135	C	0.172422	0.042928	0.000123
C136	C	0.672422	0.542928	0.500123
N137	N	0.145731	-0.056570	0.000125
N138	N	0.645731	0.443430	0.500125
C139	C	1.028736	0.113226	0.212067
C140	C	1.528736	0.613226	0.712067
N141	N	1.074244	0.043567	0.175865
N142	N	1.574244	0.543567	0.675865
C143	C	0.794085	-0.091250	0.077002
C144	C	1.294085	0.408750	0.577002
N145	N	0.757513	-0.047515	0.134939
N146	N	1.257513	0.452485	0.634939
H147	H	0.330106	0.096587	0.000120
H148	H	0.830106	0.596587	0.500120
H149	H	1.037306	-0.357589	-0.078974
H150	H	1.537306	0.142411	0.421026
H151	H	0.821203	0.430799	0.224555
H152	H	1.321203	0.930799	0.724555
C153	C	0.937468	-0.122856	-0.158751
C154	C	1.437468	0.377144	0.341249
N155	N	0.909075	-0.088244	-0.218445
N156	N	1.409075	0.411756	0.281555
C157	C	0.719625	0.010754	0.000086
C158	C	1.219625	0.510754	0.500086
N159	N	0.760742	-0.079914	0.000086
N160	N	1.260742	0.420086	0.500086
C161	C	0.683050	0.492738	0.000068
C162	C	1.183050	0.992738	0.500068
N163	N	0.709734	0.592242	0.000068
N164	N	1.209734	1.092242	0.500068
H165	H	0.525369	0.439075	0.000084
H166	H	1.025369	0.939075	0.500084
C167	C	1.061344	-0.129116	-0.085953
C168	C	1.561344	0.370884	0.414047
N169	N	1.126265	-0.099220	-0.090809
N170	N	1.626265	0.400780	0.409191
C171	C	0.307726	0.547304	0.000106
C172	C	0.807726	1.047304	0.500106
N173	N	0.334413	0.646806	0.000113
N174	N	0.834413	1.146806	0.500113
H175	H	0.556951	0.022687	0.000111
H176	H	1.056951	0.522687	0.500111
C177	C	0.801661	-0.101167	-0.076706
C178	C	1.301661	0.398833	0.423294
N179	N	0.770791	-0.064906	-0.134546
N180	N	1.270791	0.435094	0.365454
C181	C	0.835486	0.409335	0.604596
C182	C	1.335486	0.909335	1.104596
N183	N	0.793495	0.473944	0.568397
N184	N	1.293495	0.973944	1.068397
H185	H	0.808532	-0.331853	-0.057095
H186	H	1.308532	0.168147	0.442905
