data_functionalizedCrystal
_audit_creation_method	'MofGen! by Chris Wilmer'
_symmetry_space_group_name_H-M	'P1'
_symmetry_Int_Tables_number	1
_symmetry_cell_setting	triclinic
loop_
_symmetry_equiv_pos_as_xyz
  x,y,z
_cell_length_a	18.101398
_cell_length_b	14.908520
_cell_length_c	14.908308
_cell_angle_alpha	83.639235
_cell_angle_beta	93.287506
_cell_angle_gamma	86.684250
loop_
_atom_site_label
_atom_site_type_symbol
_atom_site_fract_x
_atom_site_fract_y
_atom_site_fract_z
Zn1	Zn	1.088467	0.389967	-0.532365
Zn2	Zn	1.088382	0.532612	-0.389735
Zn3	Zn	0.972208	0.381260	-0.381044
Zn4	Zn	0.957015	0.541274	-0.541069
O5	O	1.026518	0.461278	-0.461053
O6	O	1.192088	0.408908	-0.513439
O7	O	1.079295	0.505266	-0.261920
O8	O	0.994024	0.255750	-0.393837
O9	O	1.192026	0.513709	-0.408650
O10	O	1.079438	0.262148	-0.505012
O11	O	0.993942	0.394068	-0.255535
O12	O	0.866561	0.402467	-0.402277
O13	O	0.968129	0.528472	-0.666576
O14	O	0.855398	0.520029	-0.519846
O15	O	1.064706	0.417307	-0.660181
O16	O	1.064563	0.660425	-0.417090
O17	O	0.968048	0.666789	-0.528274
C18	C	1.014666	0.696451	-0.474589
C19	C	1.009662	0.797061	-0.480410
C20	C	0.834109	0.461243	-0.461064
C21	C	0.751793	0.461251	-0.461091
C22	C	1.014732	0.474827	-0.697139
C23	C	1.009710	0.480601	-0.797744
C24	C	0.452701	0.461303	-0.461056
C25	C	0.477028	0.535588	-0.534702
C26	C	0.562643	0.535384	-0.534975
C27	C	0.601084	0.461278	-0.461074
C28	C	0.573488	0.367442	-0.481640
C29	C	0.487797	0.367893	-0.482159
C30	C	0.487840	0.480003	-0.366627
C31	C	0.573360	0.482124	-0.367260
C32	C	0.684944	0.461258	-0.461081
C33	C	0.368841	0.461316	-0.461050
C34	C	1.219679	0.461314	-0.461043
C35	C	1.301992	0.461329	-0.461039
C36	C	1.038435	0.225188	-0.447484
C37	C	1.043514	0.124581	-0.441702
C38	C	1.100853	0.979435	-0.375665
C39	C	1.096154	1.073966	-0.381131
C40	C	0.995570	1.080657	-0.496813
C41	C	1.000269	0.986126	-0.491346
C42	C	1.052912	0.935518	-0.430770
C43	C	1.057606	0.840984	-0.425299
C44	C	0.957026	0.847677	-0.540984
C45	C	0.952327	0.942209	-0.546451
C46	C	1.100836	0.375673	-0.980134
C47	C	1.096120	0.381095	-1.074662
C48	C	0.995557	0.496861	-1.081329
C49	C	1.000274	0.491439	-0.986801
C50	C	1.052916	0.430844	-0.936207
C51	C	1.057635	0.425428	-0.841678
C52	C	0.957070	0.541188	-0.848346
C53	C	0.952353	0.546610	-0.942874
C54	C	1.038304	0.447717	-0.225882
C55	C	1.043483	0.441688	-0.125263
H56	H	0.580924	0.605141	-0.522716
C57	C	0.894418	0.997888	-0.613076
N58	N	0.850798	1.039824	-0.663256
H59	H	0.591143	0.551146	-0.351648
C60	C	0.904286	0.799361	-0.601603
N61	N	0.864562	0.762968	-0.647259
C62	C	1.115540	0.358770	-0.786026
N63	N	1.159153	0.308558	-0.744111
H64	H	0.452771	0.523833	-0.604379
H65	H	1.143703	0.326339	-0.938940
H66	H	1.135140	0.336167	-1.110424
H67	H	0.952698	0.546194	-1.122538
H68	H	0.592526	0.350519	-0.549725
C69	C	0.467432	0.406820	-0.292587
N70	N	0.452056	0.351697	-0.236826
C71	C	1.115514	0.785316	-0.358664
N72	N	1.159134	0.743390	-0.308475
H73	H	0.909492	0.595943	-0.984080
C74	C	0.904354	0.601881	-0.800019
N75	N	0.864651	0.647595	-0.763617
H76	H	0.952715	1.121879	-0.546137
H77	H	0.580389	0.523449	-0.605051
C78	C	0.445476	0.630154	-0.518413
N79	N	0.421705	0.701384	-0.506144
H80	H	0.463999	0.546969	-0.346881
C81	C	1.158759	0.923763	-0.309029
N82	N	1.202375	0.881833	-0.258839
H83	H	1.135195	1.109720	-0.336261
H84	H	0.465352	0.351385	-0.551027
H85	H	0.472210	0.310870	-0.430668
H86	H	0.599001	0.310834	-0.429432
C87	C	0.609163	0.413733	-0.289750
N88	N	0.636128	0.362210	-0.231371
