data_functionalizedCrystal
_audit_creation_method	'MofGen! by Chris Wilmer'
_symmetry_space_group_name_H-M	'P1'
_symmetry_Int_Tables_number	1
_symmetry_cell_setting	triclinic
loop_
_symmetry_equiv_pos_as_xyz
  x,y,z
_cell_length_a	19.188930
_cell_length_b	19.188930
_cell_length_c	17.666332
_cell_angle_alpha	90.011603
_cell_angle_beta	89.976766
_cell_angle_gamma	96.855221
loop_
_atom_site_label
_atom_site_type_symbol
_atom_site_fract_x
_atom_site_fract_y
_atom_site_fract_z
O1	O	0.926150	-0.087169	-0.063200
O2	O	1.426150	0.412831	0.436800
O3	O	0.722838	-0.098903	-0.063149
O4	O	1.222838	0.401097	0.436851
O5	O	0.830361	0.008620	-0.063161
O6	O	1.330361	0.508620	0.436839
O7	O	0.818627	-0.194692	-0.063188
O8	O	1.318627	0.305308	0.436812
O9	O	0.830342	0.008625	0.062735
O10	O	1.330342	0.508625	0.562735
O11	O	0.722820	-0.098897	0.062747
O12	O	1.222820	0.401103	0.562747
O13	O	0.926131	-0.087163	0.062697
O14	O	1.426131	0.412837	0.562697
Cu15	Cu	0.824473	-0.093030	0.074217
Cu16	Cu	1.324473	0.406970	0.574217
Cu17	Cu	0.824496	-0.093036	-0.074670
Cu18	Cu	1.324496	0.406964	0.425330
O19	O	0.818608	-0.194686	0.062709
O20	O	1.318608	0.305314	0.562709
C21	C	0.696818	-0.098520	-0.000194
C22	C	1.196818	0.401480	0.499806
C23	C	0.619313	-0.097380	-0.000174
C24	C	1.119313	0.402620	0.499826
C25	C	0.574389	-0.160470	-0.000194
C26	C	1.074389	0.339530	0.499806
C27	C	0.501566	-0.159399	-0.000203
C28	C	1.001566	0.340601	0.499797
C29	C	0.473669	-0.095233	-0.000206
C30	C	0.973669	0.404767	0.499794
C31	C	0.518603	-0.032133	-0.000181
C32	C	1.018603	0.467867	0.499819
C33	C	0.591425	-0.033207	-0.000166
C34	C	1.091425	0.466793	0.499834
N35	N	0.365695	-0.046188	-0.043078
N36	N	0.865695	0.453812	0.456922
N37	N	0.296517	-0.045172	-0.043095
N38	N	0.796517	0.454828	0.456905
C39	C	0.254260	-0.091994	-0.000252
C40	C	0.754260	0.408006	0.499748
N41	N	0.283795	-0.139881	0.042599
N42	N	0.783795	0.360119	0.542599
N43	N	0.352979	-0.140899	0.042612
N44	N	0.852979	0.359101	0.542612
C45	C	0.394707	-0.094062	-0.000222
C46	C	0.894707	0.405938	0.499778
C47	C	0.130372	-0.153928	-0.000280
C48	C	0.630372	0.346072	0.499720
C49	C	0.057547	-0.152853	-0.000283
C50	C	0.557547	0.347147	0.499717
C51	C	0.074586	-0.025586	-0.000270
C52	C	0.574586	0.474414	0.499730
C53	C	0.147409	-0.026662	-0.000258
C54	C	0.647409	0.473338	0.499742
C55	C	0.175298	-0.090835	-0.000267
C56	C	0.675298	0.409165	0.499733
C57	C	0.829972	0.034634	-0.000211
C58	C	1.329972	0.534634	0.499789
C59	C	0.828831	0.112138	-0.000204
C60	C	1.328831	0.612138	0.499796
C61	C	0.952151	-0.087546	-0.000260
C62	C	1.452151	0.412454	0.499740
C63	C	1.029656	-0.088687	-0.000285
C64	C	1.529656	0.411313	0.499715
C65	C	0.818997	-0.220700	-0.000244
C66	C	1.318997	0.279300	0.499756
C67	C	0.820138	-0.298204	-0.000255
C68	C	1.320138	0.201796	0.499745
N69	N	0.824463	-0.093025	0.178937
N70	N	1.324463	0.406975	0.678937
C71	C	0.891922	0.157062	-0.000216
C72	C	1.391922	0.657062	0.499784
C73	C	0.890850	0.229886	-0.000228
C74	C	1.390850	0.729886	0.499772
C75	C	0.826684	0.257782	-0.000212
C76	C	1.326684	0.757782	0.499788
C77	C	0.763585	0.212849	-0.000205
C78	C	1.263585	0.712849	0.499795
C79	C	0.764658	0.140026	-0.000200
C80	C	1.264658	0.640026	0.499800
N81	N	0.777630	0.365789	0.042645
N82	N	1.277630	0.865789	0.542645
N83	N	0.776615	0.434968	0.042642
N84	N	1.276615	0.934968	0.542642
C85	C	0.823446	0.477191	-0.000227
C86	C	1.323446	0.977191	0.499773
N87	N	0.871341	0.447624	-0.043084
N88	N	1.371341	0.947624	0.456916
N89	N	0.872359	0.378439	-0.043079
N90	N	1.372359	0.878439	0.456921
C91	C	0.825513	0.336745	-0.000218
C92	C	1.325513	0.836745	0.499782
C93	C	0.885379	0.601079	-0.000253
C94	C	1.385379	1.101079	0.499747
C95	C	0.884305	0.673904	-0.000270
C96	C	1.384305	1.173904	0.499730
C97	C	0.757038	0.656865	-0.000239
C98	C	1.257038	1.156865	0.499761
C99	C	0.758114	0.584042	-0.000230
C100	C	1.258114	1.084042	0.499770
C101	C	0.822287	0.556154	-0.000233
C102	C	1.322287	1.056154	0.499767
N103	N	0.824512	-0.093036	-0.179390
N104	N	1.324512	0.406964	0.320610
C105	C	0.872089	-0.045437	0.218541
C106	C	1.372089	0.454563	0.718541
C107	C	0.872093	-0.045433	0.297789
C108	C	1.372093	0.454567	0.797789
C109	C	0.824478	-0.093030	0.337429
C110	C	1.324478	0.406970	0.837429
C111	C	0.776842	-0.140621	0.297815
C112	C	1.276842	0.359379	0.797815
C113	C	0.776835	-0.140619	0.218569
C114	C	1.276835	0.359381	0.718569
N115	N	0.815401	-0.154837	0.461841
N116	N	1.315401	0.345163	0.961841
N117	N	0.815413	-0.154837	0.537121
N118	N	1.315413	0.345163	1.037121
C119	C	0.824496	-0.093040	0.576193
C120	C	1.324496	0.406960	1.076193
N121	N	0.833582	-0.031239	0.537140
N122	N	1.333582	0.468761	1.037140
N123	N	0.833574	-0.031240	0.461853
N124	N	1.333574	0.468760	0.961853
C125	C	0.824480	-0.093038	0.423358
C126	C	1.324480	0.406962	0.923358
C127	C	0.872130	-0.045444	0.701727
C128	C	1.372130	0.454556	1.201727
C129	C	0.872129	-0.045440	0.780976
C130	C	1.372129	0.454560	1.280976
C131	C	0.776881	-0.140634	0.781000
C132	C	1.276881	0.359366	1.281000
C133	C	0.776878	-0.140632	0.701753
C134	C	1.276878	0.359368	1.201753
C135	C	0.824506	-0.093038	0.662121
C136	C	1.324506	0.406962	1.162121
H137	H	0.464982	-0.210776	-0.000217
H138	H	0.964982	0.289224	0.499783
H139	H	0.738051	-0.179371	0.186322
H140	H	1.238051	0.320629	0.686322
O141	O	0.725518	-0.191967	0.659028
O142	O	1.225518	0.308033	1.159028
H143	H	0.692411	-0.225069	0.699904
H144	H	1.192411	0.274931	1.199904
O145	O	0.961133	0.126980	-0.000241
O146	O	1.461133	0.626980	0.499759
H147	H	1.004825	0.170458	-0.000263
H148	H	1.504825	0.670458	0.499737
O149	O	0.923487	0.005894	0.658971
O150	O	1.423487	0.505894	1.158971
H151	H	0.956598	0.038996	0.699828
H152	H	1.456598	0.538996	1.199828
H153	H	0.597091	-0.212725	-0.000203
H154	H	1.097091	0.287275	0.499797
O155	O	0.488521	0.037077	-0.000185
O156	O	0.988521	0.537077	0.499815
H157	H	0.430335	0.027225	-0.000207
H158	H	0.930335	0.527225	0.499793
O159	O	0.009093	-0.220908	-0.000299
O160	O	0.509093	0.279092	0.499701
H161	H	-0.046231	-0.209382	-0.000298
H162	H	0.453769	0.290618	0.499702
O163	O	0.725487	-0.191963	0.340563
O164	O	1.225487	0.308037	0.840563
H165	H	0.733499	-0.183977	0.402322
H166	H	1.233499	0.316023	0.902322
O167	O	0.958900	0.278354	-0.000231
O168	O	1.458900	0.778354	0.499769
H169	H	1.003702	0.246727	-0.000227
H170	H	1.503702	0.746727	0.499773
H171	H	0.051874	0.026659	-0.000319
H172	H	0.551874	0.526659	0.499681
H173	H	0.153080	-0.206181	-0.000276
H174	H	0.653080	0.293819	0.499724
O175	O	0.923507	0.005882	0.823698
O176	O	1.423507	0.505882	1.323698
H177	H	0.956629	0.038968	0.782823
H178	H	1.456629	0.538968	1.282823
O179	O	0.725523	-0.191974	0.823742
O180	O	1.225523	0.308026	1.323742
H181	H	0.733531	-0.183985	0.885501
H182	H	1.233531	0.316015	1.385501
O183	O	0.696604	0.091572	-0.000177
O184	O	1.196604	0.591572	0.499823
H185	H	0.694052	0.057975	-0.051488
H186	H	1.194052	0.557975	0.448512
O187	O	0.694376	0.242932	-0.000188
O188	O	1.194376	0.742932	0.499812
H189	H	0.664060	0.224874	0.051130
H190	H	1.164060	0.724874	0.551130
O191	O	0.195871	0.041386	-0.000243
O192	O	0.695871	0.541386	0.499757
H193	H	0.164240	0.086186	-0.000251
H194	H	0.664240	0.586186	0.499749
H195	H	0.937632	0.578372	-0.000259
H196	H	1.437632	1.078372	0.499741
H197	H	0.910869	-0.006681	0.186275
H198	H	1.410869	0.493319	0.686275
H199	H	0.704792	0.679578	-0.000230
H200	H	1.204792	1.179578	0.499770
O201	O	0.639886	0.034843	-0.000144
O202	O	1.139886	0.534843	0.499856
H203	H	0.630027	0.065560	-0.051457
H204	H	1.130027	0.565560	0.448543
H205	H	0.935683	0.710481	-0.000284
H206	H	1.435683	1.210481	0.499716
O207	O	0.690063	0.535586	-0.000197
O208	O	1.190063	1.035586	0.499803
H209	H	0.659345	0.545468	-0.051499
H210	H	1.159345	1.045468	0.448501
O211	O	0.923470	0.005888	0.340520
O212	O	1.423470	0.505888	0.840520
H213	H	0.956591	0.038979	0.299648
H214	H	1.456591	0.538979	0.799648
