data_functionalizedCrystal
_audit_creation_method	'MofGen! by Chris Wilmer'
_symmetry_space_group_name_H-M	'P1'
_symmetry_Int_Tables_number	1
_symmetry_cell_setting	triclinic
loop_
_symmetry_equiv_pos_as_xyz
  x,y,z
_cell_length_a	16.109301
_cell_length_b	9.616153
_cell_length_c	16.109304
_cell_angle_alpha	89.999451
_cell_angle_beta	83.462059
_cell_angle_gamma	90.004145
loop_
_atom_site_label
_atom_site_type_symbol
_atom_site_fract_x
_atom_site_fract_y
_atom_site_fract_z
O1	O	1.103136	0.115549	0.106864
O2	O	0.861074	0.115570	0.120163
O3	O	0.988754	0.115560	-0.007518
O4	O	0.975457	0.115559	0.234544
O5	O	0.988736	-0.115732	-0.007515
O6	O	0.861057	-0.115722	0.120166
O7	O	1.103119	-0.115743	0.106866
Zn8	Zn	0.982085	-0.152454	0.113517
Zn9	Zn	0.982108	0.152282	0.113513
O10	O	0.975439	-0.115732	0.234547
C11	C	0.830091	-0.000073	0.119626
C12	C	0.737795	-0.000065	0.118010
N13	N	0.982075	-0.360429	0.113518
C14	C	0.515524	-0.000081	0.190018
C15	C	0.428803	-0.000090	0.188494
C16	C	0.448676	-0.000084	0.037005
C17	C	0.535395	-0.000085	0.038530
C18	C	0.568816	-0.000076	0.115039
C19	C	0.395377	-0.000084	0.111990
C20	C	0.301351	-0.000094	0.110337
C21	C	0.662848	-0.000069	0.116693
C22	C	0.913571	-0.580793	0.181594
C23	C	0.913718	-0.419626	0.181845
C24	C	1.068823	-0.418886	0.132444
C25	C	1.068449	-0.580104	0.132925
C26	C	0.964700	-0.580338	0.026288
C27	C	0.962700	-0.419112	0.026874
C28	C	1.134102	-0.000097	0.107404
C29	C	1.226398	-0.000096	0.109019
C30	C	0.988206	-0.000083	-0.038491
C31	C	0.986590	-0.000073	-0.130786
N32	N	0.982124	0.360256	0.113504
C33	C	0.982866	0.125999	-0.343125
C34	C	0.981340	0.125998	-0.429845
C35	C	0.981325	-0.126169	-0.429839
C36	C	0.982845	-0.126166	-0.343120
C37	C	0.983620	-0.000078	-0.299766
C38	C	0.980573	-0.000082	-0.473205
C39	C	0.978919	-0.000084	-0.567231
C40	C	0.985273	-0.000076	-0.205734
C41	C	0.975987	-0.000087	0.265520
C42	C	0.977603	-0.000087	0.357816
H43	H	0.542732	-0.000084	0.252316
F44	F	0.983687	0.260193	-0.296987
H45	H	1.014693	-0.618458	-0.024381
F46	F	0.980536	0.260186	-0.475988
H47	H	0.980696	-0.228825	-0.465149
H48	H	0.385416	-0.000096	0.249550
H49	H	1.084542	-0.378497	0.195325
F50	F	0.983639	-0.260362	-0.296970
H51	H	0.421454	-0.000099	-0.025285
H52	H	0.578788	-0.000085	-0.022530
H53	H	0.849236	-0.380105	0.170573
F54	F	0.829018	-0.631487	0.167092
H55	H	0.924541	-0.621293	0.245951
F56	F	1.088521	-0.629241	0.216061
H57	H	0.924837	-0.381048	0.246568
H58	H	1.121053	-0.619097	0.085286
H59	H	1.121048	-0.380538	0.084171
F60	F	0.883810	-0.633537	0.002506
H61	H	0.898888	-0.380906	0.012511
F62	F	1.023725	-0.366463	-0.042455
