data_functionalizedCrystal
_audit_creation_method	'MofGen! by Chris Wilmer'
_symmetry_space_group_name_H-M	'P1'
_symmetry_Int_Tables_number	1
_symmetry_cell_setting	triclinic
loop_
_symmetry_equiv_pos_as_xyz
  x,y,z
_cell_length_a	12.594516
_cell_length_b	11.169417
_cell_length_c	11.169409
_cell_angle_alpha	90.020564
_cell_angle_beta	89.964064
_cell_angle_gamma	89.985598
loop_
_atom_site_label
_atom_site_type_symbol
_atom_site_fract_x
_atom_site_fract_y
_atom_site_fract_z
Zn1	Zn	-0.423632	-1.834945	-0.678512
Zn2	Zn	0.076368	-1.334945	-0.178512
Zn3	Zn	-0.601658	-1.834820	-0.477816
Zn4	Zn	-0.101658	-1.334820	0.022184
Zn5	Zn	-0.423696	-1.634228	-0.477847
Zn6	Zn	0.076304	-1.134228	0.022153
Zn7	Zn	-0.601571	-1.634227	-0.678461
Zn8	Zn	-0.101571	-1.134227	-0.178461
O9	O	-0.512639	-1.734555	-0.578159
O10	O	-0.012639	-1.234555	-0.078159
O11	O	-0.447256	-2.002878	-0.651898
O12	O	0.052744	-1.502878	-0.151898
O13	O	-0.578114	-1.808160	-0.309871
O14	O	-0.078114	-1.308160	0.190129
O15	O	-0.274742	-1.660906	-0.504499
O16	O	0.225258	-1.160906	-0.004499
O17	O	-0.578051	-2.002786	-0.504448
O18	O	-0.078051	-1.502786	-0.004448
O19	O	-0.274694	-1.808372	-0.651928
O20	O	0.225306	-1.308372	-0.151928
O21	O	-0.447367	-1.660785	-0.309893
O22	O	0.052633	-1.160785	0.190107
O23	O	-0.447283	-1.466278	-0.504450
O24	O	0.052717	-0.966278	-0.004450
O25	O	-0.577904	-1.660904	-0.846418
O26	O	-0.077904	-1.160904	-0.346418
O27	O	-0.577967	-1.466277	-0.651841
O28	O	-0.077967	-0.966277	-0.151841
O29	O	-0.447172	-1.808370	-0.846455
O30	O	0.052828	-1.308370	-0.346455
O31	O	-0.750592	-1.808158	-0.504398
O32	O	-0.250592	-1.308158	-0.004398
O33	O	-0.750528	-1.660783	-0.651811
O34	O	-0.250528	-1.160783	-0.151811
C35	C	-0.512623	-1.422730	-0.578144
C36	C	-0.012623	-0.922730	-0.078144
C37	C	-0.512642	-1.289330	-0.578166
C38	C	-0.012642	-0.789330	-0.078166
C39	C	-0.789180	-1.734490	-0.578122
C40	C	-0.289180	-1.234490	-0.078122
C41	C	-0.907486	-1.734572	-0.578146
C42	C	-0.407486	-1.234572	-0.078146
C43	C	-0.512521	-1.734651	-0.891202
C44	C	-0.012521	-1.234651	-0.391202
C45	C	-0.512471	-1.734692	-1.024602
C46	C	-0.012471	-1.234692	-0.524602
C47	C	-1.047498	-1.814876	-0.498108
C48	C	-0.547498	-1.314876	0.001892
C49	C	-0.976818	-1.705352	-0.468619
C50	C	-0.476818	-1.205352	0.031381
C51	C	-0.976595	-1.844083	-0.607581
C52	C	-0.476595	-1.344083	-0.107581
C53	C	-1.047591	-1.625113	-0.548704
C54	C	-0.547591	-1.125113	-0.048704
C55	C	-1.047374	-1.763918	-0.687718
C56	C	-0.547374	-1.263918	-0.187718
C57	C	-0.976725	-1.654318	-0.658270
C58	C	-0.476725	-1.154318	-0.158270
C59	C	-0.235018	-1.734653	-0.578223
C60	C	0.264982	-1.234653	-0.078223
C61	C	-0.116713	-1.734694	-0.578250
C62	C	0.383287	-1.234694	-0.078250
C63	C	-0.512656	-2.047597	-0.578175
C64	C	-0.012656	-1.547597	-0.078175
C65	C	-0.512663	-2.180997	-0.578182
C66	C	-0.012663	-1.680997	-0.078182
C67	C	-0.512680	-1.734528	-0.266334
C68	C	-0.012680	-1.234528	0.233666
C69	C	-0.512430	-1.734720	-0.132935
C70	C	-0.012430	-1.234720	0.367065
H71	H	-1.078573	-1.882651	-0.430327
H72	H	-0.578573	-1.382651	0.069673
N73	N	-1.086318	-1.795050	-0.803860
N74	N	-0.586318	-1.295050	-0.303860
N75	N	-1.184072	-1.799206	-0.822675
N76	N	-0.684072	-1.299206	-0.322675
H77	H	-1.211581	-1.821207	-0.904700
H78	H	-0.711581	-1.321207	-0.404700
N79	N	-1.086553	-1.508975	-0.517376
N80	N	-0.586553	-1.008975	-0.017376
N81	N	-1.143976	-1.496089	-0.426966
N82	N	-0.643976	-0.996089	0.073034
H83	H	-1.171497	-1.414069	-0.404835
H84	H	-0.671497	-0.914069	0.095165
N85	N	-0.937979	-1.569079	-0.743216
N86	N	-0.437979	-1.069079	-0.243216
N87	N	-0.880179	-1.484677	-0.709318
N88	N	-0.380179	-0.984677	-0.209318
H89	H	-0.852812	-1.424471	-0.769304
H90	H	-0.352812	-0.924471	-0.269304
N91	N	-0.937943	-1.674274	-0.352424
N92	N	-0.437943	-1.174274	0.147576
N93	N	-0.960650	-1.738003	-0.264079
N94	N	-0.460650	-1.238003	0.235921
H95	H	-0.933199	-1.716061	-0.182013
H96	H	-0.433199	-1.216061	0.317987
N97	N	-0.937474	-1.960200	-0.638743
N98	N	-0.437474	-1.460200	-0.138743
N99	N	-0.960145	-2.048640	-0.575137
N100	N	-0.460145	-1.548640	-0.075137
H101	H	-0.932518	-2.130651	-0.597134
H102	H	-0.432518	-1.630651	-0.097134
