data_functionalizedCrystal
_audit_creation_method	'MofGen! by Chris Wilmer'
_symmetry_space_group_name_H-M	'P1'
_symmetry_Int_Tables_number	1
_symmetry_cell_setting	triclinic
loop_
_symmetry_equiv_pos_as_xyz
  x,y,z
_cell_length_a	19.077236
_cell_length_b	25.639240
_cell_length_c	19.077314
_cell_angle_alpha	87.665026
_cell_angle_beta	90.071888
_cell_angle_gamma	92.325142
loop_
_atom_site_label
_atom_site_type_symbol
_atom_site_fract_x
_atom_site_fract_y
_atom_site_fract_z
Zn1	Zn	1.058270	-0.163505	-0.440510
Zn2	Zn	1.062891	-0.254308	-0.322980
Zn3	Zn	0.945482	-0.170525	-0.318287
Zn4	Zn	0.940713	-0.254555	-0.435720
O5	O	1.001839	-0.210723	-0.379374
O6	O	1.157218	-0.172509	-0.428889
O7	O	1.051246	-0.246028	-0.224024
O8	O	0.960506	-0.096425	-0.334540
O9	O	1.160613	-0.239222	-0.342540
O10	O	1.043371	-0.091268	-0.424338
O11	O	0.964986	-0.184473	-0.220576
O12	O	0.846515	-0.184713	-0.329895
O13	O	0.952377	-0.239643	-0.534689
O14	O	0.843011	-0.246450	-0.416173
O15	O	1.038746	-0.172749	-0.538208
O16	O	1.046622	-0.327509	-0.337895
O17	O	0.956858	-0.327691	-0.420724
C18	C	0.819266	-0.216370	-0.372006
C19	C	0.741160	-0.218798	-0.368870
C20	C	0.702696	-0.185257	-0.412423
C21	C	0.629307	-0.187536	-0.409470
C22	C	0.594383	-0.223359	-0.362968
C23	C	0.632853	-0.256902	-0.319411
C24	C	0.706240	-0.254621	-0.322360
C25	C	0.375088	-0.233900	-0.349316
C26	C	0.301695	-0.236181	-0.346372
C27	C	0.298154	-0.166813	-0.436431
C28	C	0.371543	-0.164537	-0.439379
C29	C	0.410006	-0.198078	-0.395819
N30	N	0.519368	-0.225691	-0.359951
N31	N	0.485020	-0.195743	-0.398833
C32	C	1.001742	-0.346571	-0.379315
C33	C	1.001764	-0.404684	-0.379316
C34	C	1.045006	-0.762316	-0.426214
C35	C	1.045026	-0.816919	-0.426229
O36	O	1.081676	-0.842840	-0.466041
N37	N	1.001934	-0.846957	-0.379446
C38	C	0.958813	-0.822390	-0.332650
O39	O	0.922161	-0.852953	-0.292860
C40	C	0.958790	-0.767787	-0.332639
C41	C	1.001890	-0.737752	-0.379420
C42	C	1.088102	-0.732281	-0.472991
C43	C	1.088083	-0.677682	-0.472975
C44	C	1.044967	-0.653117	-0.426181
C45	C	1.001871	-0.683152	-0.379404
C46	C	0.915666	-0.743220	-0.285847
C47	C	0.915646	-0.688614	-0.285840
C48	C	0.958747	-0.658579	-0.332621
C49	C	0.958736	-0.603989	-0.332594
N50	N	1.001828	-0.573951	-0.379376
C51	C	1.044944	-0.598515	-0.426170
C52	C	0.958865	-0.937058	-0.332678
C53	C	0.958891	-0.991659	-0.332685
C54	C	1.045103	-0.986185	-0.426265
C55	C	1.045080	-0.931583	-0.426254
C56	C	1.001957	-0.907020	-0.379461
C57	C	1.044901	-0.483852	-0.426132
C58	C	1.044880	-0.429248	-0.426110
C59	C	0.958665	-0.434727	-0.332533
C60	C	0.958689	-0.489326	-0.332552
C61	C	1.001808	-0.513887	-0.379358
O62	O	0.922102	-0.578033	-0.292803
O63	O	1.081583	-0.567945	-0.465960
C64	C	1.185125	-0.205055	-0.386772
C65	C	1.263231	-0.202639	-0.389925
C66	C	0.994514	-0.205441	-0.562658
C67	C	0.991393	-0.203190	-0.640762
C68	C	1.001955	-0.074345	-0.379450
C69	C	1.002005	-0.016228	-0.379482
C70	C	1.034834	-0.234179	-0.679254
C71	C	1.031901	-0.232058	-0.752642
C72	C	0.985523	-0.198949	-0.787536
C73	C	0.942081	-0.167957	-0.749039
C74	C	0.945017	-0.170076	-0.675653
C75	C	0.971927	-0.189172	-1.006824
C76	C	0.968992	-0.187057	-1.080215
C77	C	1.058814	-0.251157	-1.083813
C78	C	1.061744	-0.253276	-1.010425
C79	C	1.018304	-0.222281	-0.971935
N80	N	0.982523	-0.196781	-0.862550
N81	N	1.021309	-0.224447	-0.896922
C82	C	1.009176	-0.215946	-0.196805
C83	C	1.012433	-0.218046	-0.118707
H84	H	1.080008	-0.503843	-0.464250
O85	O	0.747727	-0.290797	-0.275381
H86	H	0.804625	-0.283188	-0.285237
O87	O	1.091602	-1.012688	-0.476741
H88	H	1.121571	-0.982633	-0.509270
O89	O	0.869177	-0.775609	-0.235392
H90	H	0.813536	-0.766519	-0.245184
O91	O	1.078758	-0.265483	-0.794155
H92	H	1.068933	-0.258443	-0.851047
H93	H	0.731125	-0.156086	-0.450292
O94	O	0.587818	-0.151358	-0.456444
H95	H	0.624431	-0.126069	-0.489280
H96	H	0.399973	-0.135367	-0.477248
O97	O	0.256672	-0.130630	-0.483402
H98	H	0.199773	-0.138229	-0.473535
O99	O	0.912358	-0.910566	-0.282198
H100	H	0.945257	-0.885735	-0.247741
O101	O	0.595191	-0.295541	-0.269251
H102	H	0.537697	-0.291496	-0.274521
O103	O	1.084862	-0.269884	-0.641619
H104	H	1.114583	-0.291071	-0.680717
H105	H	0.923803	-1.016110	-0.294584
H106	H	1.079979	-0.404795	-0.464204
O107	O	0.869141	-0.662120	-0.235363
H108	H	0.839184	-0.692182	-0.202835
O109	O	0.264023	-0.274816	-0.296207
H110	H	0.277612	-0.315085	-0.308704
O111	O	0.416570	-0.270074	-0.302334
H112	H	0.379953	-0.295368	-0.269508
O113	O	1.134612	-0.758771	-0.523463
H114	H	1.164574	-0.728704	-0.555980
H115	H	1.123177	-0.653230	-0.511070
H116	H	1.080176	-0.907131	-0.464347
O117	O	0.912206	-0.521727	-0.282097
H118	H	0.882219	-0.495470	-0.249558
H119	H	1.094182	-0.276390	-1.115159
H120	H	0.923563	-0.414718	-0.294432
H121	H	1.099499	-0.280245	-0.982019
H122	H	0.931227	-0.160092	-1.108624
H123	H	0.936552	-0.163937	-0.975494
H124	H	0.904322	-0.140997	-0.777456
H125	H	0.909645	-0.144839	-0.644314
