data_functionalizedCrystal
_audit_creation_method	'MofGen! by Chris Wilmer'
_symmetry_space_group_name_H-M	'P1'
_symmetry_Int_Tables_number	1
_symmetry_cell_setting	triclinic
loop_
_symmetry_equiv_pos_as_xyz
  x,y,z
_cell_length_a	14.044220
_cell_length_b	17.699104
_cell_length_c	12.503552
_cell_angle_alpha	86.482801
_cell_angle_beta	93.839943
_cell_angle_gamma	88.240197
loop_
_atom_site_label
_atom_site_type_symbol
_atom_site_fract_x
_atom_site_fract_y
_atom_site_fract_z
O1	O	0.114453	1.016340	-0.089346
O2	O	0.447786	1.349673	0.243988
O3	O	0.781120	1.683006	0.577321
O4	O	0.130025	0.797038	-0.089344
O5	O	0.463359	1.130371	0.243990
O6	O	0.796692	1.463704	0.577323
O7	O	-0.015738	0.903396	-0.089334
O8	O	0.317596	1.236730	0.243999
O9	O	0.650929	1.570063	0.577333
O10	O	0.260216	0.909981	-0.089355
O11	O	0.593549	1.243314	0.243978
O12	O	0.926882	1.576648	0.577311
O13	O	-0.004766	0.895388	0.089308
O14	O	0.328568	1.228722	0.422641
O15	O	0.661901	1.562055	0.755974
O16	O	0.140997	0.789029	0.089298
O17	O	0.474331	1.122363	0.422632
O18	O	0.807664	1.455696	0.755965
O19	O	0.125425	1.008332	0.089296
O20	O	0.458758	1.341665	0.422629
O21	O	0.792091	1.674998	0.755963
Cu22	Cu	0.134213	0.897949	0.105609
Cu23	Cu	0.467546	1.231283	0.438942
Cu24	Cu	0.800879	1.564616	0.772275
Cu25	Cu	0.121237	0.907420	-0.105656
Cu26	Cu	0.454571	1.240753	0.227677
Cu27	Cu	0.787904	1.574087	0.561011
O28	O	0.271188	0.901973	0.089286
O29	O	0.604521	1.235306	0.422620
O30	O	0.937854	1.568639	0.755953
C31	C	0.134950	0.764798	-0.000022
C32	C	0.468283	1.098131	0.333311
C33	C	0.801617	1.431465	0.666644
C34	C	0.133266	0.680665	-0.000021
C35	C	0.466599	1.013998	0.333312
C36	C	0.799933	1.347331	0.666646
C37	C	0.209328	0.161041	-0.000038
C38	C	0.542661	0.494375	0.333295
C39	C	0.875994	0.827708	0.666628
C40	C	0.210904	0.240094	-0.000041
C41	C	0.544238	0.573427	0.333292
C42	C	0.877571	0.906761	0.666625
C43	C	0.125336	0.282808	-0.000035
C44	C	0.458669	0.616142	0.333299
C45	C	0.792003	0.949475	0.666632
C46	C	0.038185	0.246467	-0.000035
C47	C	0.371518	0.579800	0.333298
C48	C	0.704852	0.913134	0.666631
C49	C	0.036609	0.167416	-0.000040
C50	C	0.369942	0.500749	0.333293
C51	C	0.703276	0.834083	0.666627
C52	C	0.044538	0.565270	-0.000019
C53	C	0.377872	0.898604	0.333315
C54	C	0.711205	1.231937	0.666648
C55	C	0.046121	0.644326	-0.000011
C56	C	0.379455	0.977660	0.333322
C57	C	0.712788	1.310993	0.666656
C58	C	0.218834	0.637948	-0.000020
C59	C	0.552167	0.971282	0.333313
C60	C	0.885500	1.304615	0.666646
C61	C	0.217258	0.558897	-0.000025
C62	C	0.550591	0.892231	0.333309
C63	C	0.883924	1.225564	0.666642
C64	C	0.130107	0.522563	-0.000031
C65	C	0.463440	0.855896	0.333302
C66	C	0.796774	1.189230	0.666635
C67	C	0.128399	0.436845	-0.000030
C68	C	0.461732	0.770179	0.333303
C69	C	0.795065	1.103512	0.666637
C70	C	0.127044	0.368525	-0.000028
C71	C	0.460377	0.701858	0.333305
C72	C	0.793711	1.035191	0.666638
C73	C	-0.045560	0.896511	-0.000013
C74	C	0.287774	1.229844	0.333321
C75	C	0.621107	1.563177	0.666654
C76	C	-0.150766	0.887915	-0.000011
C77	C	0.182567	1.221248	0.333322
C78	C	0.515900	1.554581	0.666655
C79	C	-0.343394	0.872200	-0.000027
C80	C	-0.010061	1.205533	0.333307
C81	C	0.323273	1.538867	0.666640
C82	C	-0.401162	0.933166	-0.000030
C83	C	-0.067829	1.266499	0.333303
C84	C	0.265505	1.599833	0.666636
C85	C	-0.508347	0.924422	-0.000039
C86	C	-0.175013	1.257756	0.333294
C87	C	0.158320	1.591089	0.666628
C88	C	-0.236199	0.880943	-0.000018
C89	C	0.097134	1.214276	0.333315
C90	C	0.430467	1.547609	0.666649
C91	C	0.301010	0.908859	-0.000037
C92	C	0.634343	1.242192	0.333296
C93	C	0.967676	1.575525	0.666629
C94	C	0.406216	0.917455	-0.000046
C95	C	0.739549	1.250788	0.333288
C96	C	1.072883	1.584122	0.666621
C97	C	0.120500	1.040571	-0.000028
C98	C	0.453833	1.373905	0.333306
C99	C	0.787167	1.707238	0.666639
C100	C	0.122184	1.124705	-0.000036
C101	C	0.455517	1.458038	0.333297
C102	C	0.788850	1.791372	0.666631
N103	N	0.143338	0.891294	0.254201
N104	N	0.476672	1.224627	0.587534
N105	N	0.810005	1.557960	0.920867
N106	N	0.112104	0.914081	-0.254248
N107	N	0.445437	1.247414	0.079085
N108	N	0.778771	1.580748	0.412418
C109	C	0.098677	0.923868	0.526637
C110	C	0.432010	1.257201	0.859970
C111	C	0.765344	1.590534	1.193303
C112	C	0.156763	0.881509	0.473309
C113	C	0.490096	1.214843	0.806642
C114	C	0.823429	1.548176	1.139976
C115	C	0.149291	0.886955	0.351386
C116	C	0.482625	1.220288	0.684719
C117	C	0.815958	1.553621	1.018052
C118	C	0.106147	0.918423	0.648571
C119	C	0.439480	1.251756	0.981904
C120	C	0.772813	1.585090	1.315238
H121	H	-0.026425	0.535697	-0.000021
H122	H	0.306909	0.869030	0.333312
H123	H	0.640242	1.202363	0.666646
N124	N	0.312832	0.677141	-0.000039
N125	N	0.646166	1.010474	0.333295
N126	N	0.979499	1.343808	0.666628
H127	H	0.366799	0.638085	-0.000041
H128	H	0.700132	0.971418	0.333293
H129	H	1.033465	1.304752	0.666626
H130	H	0.321319	0.706833	0.066184
H131	H	0.654652	1.040167	0.399517
H132	H	0.987985	1.373500	0.732851
H133	H	0.279008	0.126268	-0.000036
H134	H	0.612342	0.459601	0.333298
H135	H	0.945675	0.792935	0.666631
N136	N	-0.360050	1.011002	-0.000004
N137	N	-0.026716	1.344335	0.333329
N138	N	0.306617	1.677669	0.666662
H139	H	-0.413539	1.050472	-0.000003
H140	H	-0.080205	1.383805	0.333331
H141	H	0.253128	1.717138	0.666664
H142	H	-0.323576	1.020250	-0.066222
H143	H	0.009757	1.353583	0.267112
H144	H	0.343091	1.686916	0.600445
H145	H	-0.031487	0.281252	-0.000036
H146	H	0.301847	0.614585	0.333297
H147	H	0.635180	0.947918	0.666630
N148	N	-0.384501	0.794367	-0.000027
N149	N	-0.051168	1.127700	0.333306
N150	N	0.282165	1.461034	0.666639
H151	H	-0.456354	0.799076	-0.000030
H152	H	-0.123021	1.132409	0.333304
H153	H	0.210313	1.465742	0.666637
H154	H	-0.358220	0.763016	0.066203
H155	H	-0.024886	1.096349	0.399537
H156	H	0.308447	1.429682	0.732870
H157	H	0.043342	0.964219	0.480730
H158	H	0.376675	1.297553	0.814063
H159	H	0.710008	1.630886	1.147397
N160	N	0.230069	0.828055	0.534113
N161	N	0.563402	1.161388	0.867446
N162	N	0.896736	1.494721	1.200779
H163	H	0.225087	0.831691	0.613854
H164	H	0.558420	1.165025	0.947187
H165	H	0.891754	1.498358	1.280521
H166	H	0.296094	0.842234	0.514517
H167	H	0.629427	1.175567	0.847850
H168	H	0.962761	1.508900	1.181184
H169	H	0.281865	0.269676	-0.000053
H170	H	0.615198	0.603009	0.333280
H171	H	0.948532	0.936342	0.666613
H172	H	-0.023563	0.679103	-0.000008
H173	H	0.309770	1.012436	0.333325
H174	H	0.643103	1.345770	0.666658
N175	N	0.309552	0.512824	0.000034
N176	N	0.642886	0.846157	0.333367
N177	N	0.976219	1.179490	0.666701
H178	H	0.365000	0.547838	0.000050
H179	H	0.698333	0.881171	0.333383
H180	H	1.031667	1.214505	0.666716
H181	H	0.308629	0.482838	-0.066174
H182	H	0.641962	0.816172	0.267160
H183	H	0.975295	1.149505	0.600493
H184	H	-0.034353	0.137832	-0.000040
H185	H	0.298980	0.471166	0.333293
H186	H	0.632314	0.804499	0.666627
