data_functionalizedCrystal
_audit_creation_method	'MofGen! by Chris Wilmer'
_symmetry_space_group_name_H-M	'P1'
_symmetry_Int_Tables_number	1
_symmetry_cell_setting	triclinic
loop_
_symmetry_equiv_pos_as_xyz
  x,y,z
_cell_length_a	31.640172
_cell_length_b	16.704494
_cell_length_c	31.640172
_cell_angle_alpha	123.367777
_cell_angle_beta	89.985254
_cell_angle_gamma	63.425212
loop_
_atom_site_label
_atom_site_type_symbol
_atom_site_fract_x
_atom_site_fract_y
_atom_site_fract_z
Zr1	Zr	0.430975	0.878487	0.079218
O2	O	0.368006	1.045976	0.151257
O3	O	0.447132	0.711025	0.053988
O4	O	0.451647	0.878504	0.146707
O5	O	0.363510	0.878475	-0.011021
O6	O	0.521203	0.878487	0.146697
O7	O	0.363491	0.878497	0.058538
O8	O	0.513127	0.578898	-0.019160
O9	O	0.371586	1.178064	0.154836
O10	O	0.509733	0.779883	0.047022
O11	O	0.457838	0.779878	-0.004882
O12	O	0.463154	0.977063	0.104283
O13	O	0.411258	0.977059	0.052379
Zr14	Zr	0.541939	0.878425	-0.031736
Zr15	Zr	0.541910	0.878461	0.079203
Zr16	Zr	0.431004	0.878452	-0.031721
Zr17	Zr	0.436685	1.089153	0.084926
Zr18	Zr	0.536230	0.667760	-0.037444
O19	O	0.525783	1.045888	-0.006506
O20	O	0.525741	1.045938	0.151235
O21	O	0.368048	1.045925	-0.006484
O22	O	0.604908	0.710937	-0.103774
O23	O	0.604866	0.710987	0.053966
O24	O	0.447173	0.710974	-0.103752
O25	O	0.609405	0.878438	0.058503
O26	O	0.521268	0.878409	-0.099225
O27	O	0.451711	0.878425	-0.099215
O28	O	0.609423	0.878416	-0.011056
O29	O	0.459764	1.178043	0.154823
O30	O	0.513150	0.578870	-0.107341
O31	O	0.601328	0.578849	-0.107353
O32	O	0.601305	0.578877	-0.019172
O33	O	0.371609	1.178036	0.066654
O34	O	0.459788	1.178015	0.066642
O35	O	0.509761	0.779849	-0.056800
O36	O	0.561656	0.779853	-0.004896
O37	O	0.515077	0.977034	0.052364
O38	O	0.463181	0.977030	0.000460
C39	C	0.479316	0.614946	0.016601
C40	C	0.476892	0.525513	0.014178
C41	C	0.526529	0.357447	0.063809
C42	C	0.524253	0.273417	0.061533
C43	C	0.470067	0.273415	0.007348
C44	C	0.472343	0.357445	0.009624
C45	C	0.500574	0.399460	0.037856
C46	C	0.502847	0.483497	0.040134
C47	C	0.448665	0.483488	-0.014054
C48	C	0.446389	0.399458	-0.016329
C49	C	0.347695	0.878489	0.023761
C50	C	0.300600	0.878501	0.023767
C51	C	0.032907	0.775519	-0.006159
C52	C	-0.144079	0.775500	-0.006170
O53	O	-0.146286	0.687964	-0.031609
N54	N	-0.190523	0.878425	0.023720
C55	C	-0.192719	0.981363	0.053612
O56	O	-0.236284	1.068907	0.079031
C57	C	-0.015734	0.981381	0.053620
C58	C	0.030709	0.878449	0.023732
C59	C	0.079348	0.672595	-0.036045
C60	C	0.123591	0.672601	-0.036039
C61	C	0.121394	0.775531	-0.006148
C62	C	0.074952	0.878455	0.023737
C63	C	-0.017931	1.084318	0.083508
C64	C	0.026320	1.084314	0.083507
C65	C	0.072763	0.981381	0.053619
C66	C	0.116998	0.981391	0.053634
N67	N	0.163442	0.878465	0.023744
C68	C	0.165640	0.775535	-0.006147
C69	C	-0.285637	0.981346	0.053607
C70	C	-0.329884	0.981342	0.053606
C71	C	-0.281240	0.775478	-0.006177
C72	C	-0.236993	0.775483	-0.006172
C73	C	-0.239193	0.878420	0.023717
C74	C	0.258553	0.775556	-0.006134
C75	C	0.302798	0.775571	-0.006124
C76	C	0.254150	0.981434	0.053657
C77	C	0.209909	0.981420	0.053649
C78	C	0.212113	0.878471	0.023750
O79	O	0.119244	1.068881	0.079054
O80	O	0.209209	0.688004	-0.031572
C81	C	-0.011337	0.775513	-0.006164
C82	C	-0.057778	0.878437	0.023721
C83	C	-0.059976	0.981367	0.053613
C84	C	-0.102024	0.878433	0.023720
C85	C	-0.099826	0.775503	-0.006171
C86	C	-0.053383	0.672577	-0.036061
C87	C	-0.009139	0.672583	-0.036055
C88	C	-0.106420	1.084293	0.083503
C89	C	-0.150661	1.084278	0.083495
C90	C	-0.148464	0.981348	0.053604
C91	C	0.625220	0.878423	0.023722
C92	C	0.672314	0.878412	0.023715
C93	C	0.486421	0.878501	0.162509
C94	C	0.486408	0.878516	0.209605
C95	C	0.493599	1.141966	0.030881
C96	C	0.496022	1.231399	0.033305
C97	C	0.448129	0.878467	0.545885
C98	C	0.448108	0.878494	0.368903
O99	O	0.415527	0.878460	0.346014
N100	N	0.486426	0.878488	0.346763
C101	C	0.524753	0.878469	0.368870
O102	O	0.557347	0.878453	0.345974
C103	C	0.524776	0.878434	0.545849
C104	C	0.486453	0.878451	0.567990
C105	C	0.409810	0.878483	0.568026
C106	C	0.409814	0.878483	0.612270
C107	C	0.448138	0.878467	0.634375
C108	C	0.486457	0.878451	0.612234
C109	C	0.563105	0.878406	0.567952
C110	C	0.563108	0.878395	0.612199
C111	C	0.524785	0.878412	0.634340
C112	C	0.524785	0.878434	0.678584
N113	N	0.486468	0.878440	0.700723
C114	C	0.448144	0.878456	0.678619
C115	C	0.524738	0.878489	0.275953
C116	C	0.524732	0.878500	0.231709
C117	C	0.448087	0.878523	0.231745
C118	C	0.448092	0.878520	0.275992
C119	C	0.486420	0.878494	0.298093
C120	C	0.448156	0.878456	0.771536
C121	C	0.448162	0.878460	0.815787
C122	C	0.524808	0.878431	0.815745
C123	C	0.524800	0.878433	0.771501
C124	C	0.486472	0.878441	0.749396
O125	O	0.557352	0.878455	0.701496
O126	O	0.415561	0.878447	0.701515
C127	C	0.448125	0.878468	0.501640
C128	C	0.486445	0.878452	0.479500
C129	C	0.524768	0.878436	0.501605
C130	C	0.486439	0.878463	0.435256
C131	C	0.448115	0.878479	0.413152
C132	C	0.409797	0.878484	0.435291
C133	C	0.409802	0.878484	0.479536
C134	C	0.563086	0.878430	0.479465
C135	C	0.563078	0.878432	0.435220
C136	C	0.524755	0.878448	0.413116
C137	C	0.486489	0.878424	0.884977
C138	C	0.486486	0.878444	0.837891
C139	C	0.618078	0.614913	0.016582
C140	C	0.662749	0.525469	0.014152
C141	C	0.479352	0.614902	-0.122166
C142	C	0.476941	0.525454	-0.171686
C143	C	0.618115	0.614868	-0.122186
C144	C	0.662798	0.525409	-0.171712
C145	C	0.354800	1.142044	0.169668
C146	C	0.310116	1.231503	0.219194
C147	C	0.354836	1.142000	0.030901
C148	C	0.310165	1.231444	0.033330
C149	C	0.493562	1.142011	0.169649
C150	C	0.495974	1.231459	0.219168
C151	C	0.656624	0.483480	0.040116
C152	C	0.698593	0.399449	0.037844
C153	C	0.746687	0.357403	0.009603
C154	C	0.752811	0.399400	-0.016362
C155	C	0.710843	0.483435	-0.014086
C156	C	0.502912	0.483433	-0.222047
C157	C	0.500644	0.399399	-0.268580
C158	C	0.472409	0.357381	-0.264751
C159	C	0.446435	0.399410	-0.214385
C160	C	0.448699	0.483449	-0.167853
C161	C	0.710875	0.483400	-0.167877
C162	C	0.752865	0.399356	-0.214408
C163	C	0.746775	0.357315	-0.264773
C164	C	0.698693	0.399333	-0.268607
C165	C	0.656705	0.483382	-0.222077
C166	C	0.262039	1.273522	0.215359
C167	C	0.220051	1.357593	0.261891
C168	C	0.226140	1.399638	0.312256
C169	C	0.274222	1.357615	0.316090
C170	C	0.316210	1.273552	0.269560
C171	C	0.316291	1.273441	0.007371
C172	C	0.274322	1.357495	0.009656
C173	C	0.226228	1.399544	0.037898
C174	C	0.220104	1.357543	0.063861
C175	C	0.262072	1.273497	0.061579
C176	C	0.524214	1.273450	0.215323
C177	C	0.526489	1.357484	0.261847
C178	C	0.500521	1.399533	0.312217
C179	C	0.472280	1.357533	0.316062
C180	C	0.470008	1.273494	0.269538
H181	H	0.549511	0.391664	0.086800
H182	H	0.427529	0.517708	-0.035184
H183	H	0.252370	1.065237	0.077995
H184	H	0.423446	0.365187	-0.211276
H185	H	0.525904	0.517634	-0.225174
Br186	Br	0.381456	1.216530	0.274774
H187	H	0.355447	1.239211	-0.015630
Br188	Br	0.169276	1.513609	0.040990
H189	H	0.257077	1.239305	0.082717
H190	H	0.780969	0.288877	-0.302657
Br191	Br	0.357793	0.878503	0.538034
Br192	Br	0.503610	1.513589	0.375352
Br193	Br	0.591458	0.540379	-0.227292
H194	H	0.447089	0.239180	-0.015644
Br195	Br	0.818085	0.342322	-0.054688
H196	H	0.693742	0.365091	-0.309621
Br197	Br	0.282646	1.414476	-0.025584
H198	H	0.792012	0.365154	-0.211276
H199	H	0.693596	0.365265	0.058988
H200	H	0.470569	0.288952	-0.302645
H201	H	0.521797	0.365188	-0.309585
H202	H	0.161404	0.588783	-0.060375
H203	H	0.780856	0.288976	0.007754
Br204	Br	0.169151	1.513726	0.375401
Br205	Br	0.154803	1.414604	0.256675
H206	H	0.423406	0.365235	-0.039317
H207	H	0.715837	0.517612	-0.035233
H208	H	0.427552	0.517651	-0.126849
H209	H	0.545360	1.239227	0.174313
H210	H	0.180940	1.391793	0.086855
H211	H	0.715843	0.517617	-0.126871
H212	H	0.257071	1.239294	0.174353
H213	H	0.279175	1.391859	0.357104
Br214	Br	0.564817	1.414470	0.256617
Br215	Br	0.431674	1.216526	0.274767
Br216	Br	-0.173967	0.635785	-0.046736
Br217	Br	0.437036	1.414621	0.384426
H218	H	0.340614	0.691747	-0.030464
H219	H	0.028674	0.588765	-0.060394
H220	H	0.545388	0.239212	0.082666
Br221	Br	0.261551	0.635839	-0.046711
Br222	Br	0.541157	0.540522	0.078451
Br223	Br	-0.278266	0.635788	-0.046743
Br224	Br	0.082344	0.532885	-0.076619
H225	H	-0.367696	1.065159	0.077950
H226	H	-0.287437	1.065174	0.077951
H227	H	0.024523	1.168139	0.107840
Br228	Br	-0.080952	1.224021	0.124069
Br229	Br	-0.213689	1.223986	0.124064
Br230	Br	-0.050409	0.532888	-0.076624
Br231	Br	0.396148	0.878490	0.845834
Br232	Br	0.146878	1.121114	0.094224
H233	H	-0.108217	1.168112	0.107845
Br234	Br	0.357805	0.878497	0.642311
Br235	Br	0.396081	0.878543	0.306035
Br236	Br	0.396138	0.878467	0.741545
H237	H	0.555934	0.878503	0.213691
Br238	Br	0.396077	0.878545	0.201737
H239	H	0.555951	0.878469	0.293945
Br240	Br	0.615117	0.878382	0.537913
Br241	Br	0.591359	0.540527	0.078448
H242	H	0.556002	0.878435	0.753478
Br243	Br	0.615130	0.878353	0.642188
H244	H	0.556009	0.878423	0.833751
H245	H	0.378596	0.878498	0.497560
H246	H	0.378591	0.878503	0.417288
H247	H	0.594285	0.878427	0.417199
H248	H	0.594294	0.878415	0.497458
