data_functionalizedCrystal
_audit_creation_method	'MofGen! by Chris Wilmer'
_symmetry_space_group_name_H-M	'P1'
_symmetry_Int_Tables_number	1
_symmetry_cell_setting	triclinic
loop_
_symmetry_equiv_pos_as_xyz
  x,y,z
_cell_length_a	16.959455
_cell_length_b	12.827892
_cell_length_c	12.827885
_cell_angle_alpha	89.970214
_cell_angle_beta	90.020130
_cell_angle_gamma	89.987661
loop_
_atom_site_label
_atom_site_type_symbol
_atom_site_fract_x
_atom_site_fract_y
_atom_site_fract_z
Zn1	Zn	1.208455	0.416068	0.590873
Zn2	Zn	1.208375	0.590845	0.416133
Zn3	Zn	1.076270	0.416109	0.416144
Zn4	Zn	1.076259	0.590758	0.590830
O5	O	1.142340	0.503445	0.503495
O6	O	1.319055	0.439271	0.567706
O7	O	1.190822	0.567720	0.269898
O8	O	1.093843	0.269868	0.439344
O9	O	1.318996	0.567679	0.439326
O10	O	1.190958	0.269837	0.567717
O11	O	1.093765	0.439342	0.269906
O12	O	0.965658	0.439258	0.439303
O13	O	1.093824	0.567531	0.737072
O14	O	0.965649	0.567571	0.567644
O15	O	1.190948	0.439187	0.737103
O16	O	1.190811	0.737069	0.439285
O17	O	1.093746	0.737006	0.567634
C18	C	1.142290	0.774955	0.503476
C19	C	1.142341	0.891108	0.503503
C20	C	0.936973	0.503410	0.503471
C21	C	0.849117	0.503421	0.503485
C22	C	1.142393	0.503345	0.776065
C23	C	1.142416	0.503302	0.892218
C24	C	0.477621	0.436577	0.436807
C25	C	0.477661	0.570399	0.570242
C26	C	0.560207	0.570384	0.570236
C27	C	0.601464	0.503466	0.503513
C28	C	0.560174	0.436562	0.436796
C29	C	0.601503	0.637293	0.636944
C30	C	0.684054	0.637281	0.636940
C31	C	0.725312	0.570357	0.570221
C32	C	0.684017	0.503451	0.503502
C33	C	0.725274	0.436533	0.436779
C34	C	0.683981	0.369620	0.370065
C35	C	0.601433	0.369638	0.370078
C36	C	0.807860	0.570339	0.570208
C37	C	0.807827	0.436518	0.436769
C38	C	1.348508	0.503480	0.503519
C39	C	1.436364	0.503495	0.503530
C40	C	1.142411	0.230875	0.503536
C41	C	1.142441	0.114722	0.503554
C42	C	1.190429	0.942890	0.440063
C43	C	1.190483	1.062940	0.440089
C44	C	1.142331	0.503469	0.231985
C45	C	1.142462	0.503218	0.115832
C46	C	1.190481	0.439781	0.944018
C47	C	1.190506	0.439735	1.064069
H48	H	0.841413	0.382018	0.382440
H49	H	0.717583	0.315140	0.315735
H50	H	1.101266	1.070198	0.557867
Cl51	Cl	0.549517	0.285529	0.286216
Cl52	Cl	0.549634	0.721446	0.720785
Cl53	Cl	1.078927	0.587194	1.047068
H54	H	1.231563	0.898348	0.385732
H55	H	0.841477	0.624821	0.624523
H56	H	1.231651	1.107471	0.385772
H57	H	1.101215	0.935652	0.557841
H58	H	0.717667	0.691765	0.691263
H59	H	1.101279	0.557644	0.936747
H60	H	0.443997	0.382096	0.382493
Cl61	Cl	1.253970	0.355839	0.875278
H62	H	1.231659	0.385355	1.108616
Cl63	Cl	0.425795	0.654541	0.654096
