data_functionalizedCrystal
_audit_creation_method	'MofGen! by Chris Wilmer'
_symmetry_space_group_name_H-M	'P1'
_symmetry_Int_Tables_number	1
_symmetry_cell_setting	triclinic
loop_
_symmetry_equiv_pos_as_xyz
  x,y,z
_cell_length_a	17.077404
_cell_length_b	14.908520
_cell_length_c	17.077396
_cell_angle_alpha	93.268321
_cell_angle_beta	89.980499
_cell_angle_gamma	93.320938
loop_
_atom_site_label
_atom_site_type_symbol
_atom_site_fract_x
_atom_site_fract_y
_atom_site_fract_z
Zn1	Zn	1.182024	-0.359154	-0.461868
Zn2	Zn	1.174357	-0.510026	-0.338173
Zn3	Zn	1.050754	-0.359186	-0.330617
Zn4	Zn	1.043152	-0.509972	-0.469394
O5	O	1.112572	-0.434584	-0.400013
O6	O	1.290853	-0.379177	-0.445472
O7	O	1.157933	-0.490052	-0.227326
O8	O	1.074557	-0.232937	-0.341715
O9	O	1.285220	-0.490021	-0.354594
O10	O	1.171001	-0.232913	-0.438145
O11	O	1.067123	-0.379231	-0.221774
O12	O	0.939899	-0.379179	-0.349014
O13	O	1.061601	-0.489930	-0.578241
O14	O	0.934314	-0.489961	-0.450973
O15	O	1.163629	-0.379125	-0.572711
O16	O	1.150562	-0.636263	-0.361892
O17	O	1.054166	-0.636224	-0.458300
C18	C	0.908625	-0.434568	-0.399990
C19	C	0.821374	-0.434583	-0.400001
C20	C	0.777492	-0.492354	-0.453014
C21	C	0.695511	-0.492356	-0.453027
C22	C	0.657414	-0.434591	-0.400022
C23	C	0.701302	-0.376813	-0.347005
C24	C	0.783282	-0.376807	-0.346997
C25	C	0.530432	-0.376831	-0.347025
C26	C	0.448447	-0.376837	-0.347032
C27	C	0.442661	-0.492380	-0.453055
C28	C	0.524640	-0.492374	-0.453047
C29	C	0.568523	-0.434597	-0.400029
C30	C	1.100728	-0.668978	-0.411750
C31	C	1.095734	-0.769252	-0.416797
C32	C	1.186828	-0.957658	-0.325973
C33	C	1.182137	-1.051875	-0.330713
C34	C	1.081667	-1.051904	-0.431020
C35	C	1.086357	-0.957687	-0.426280
C36	C	1.138939	-0.910568	-0.373754
C37	C	1.143625	-0.816349	-0.369011
C38	C	1.043159	-0.816380	-0.469321
C39	C	1.038468	-0.910597	-0.474061
C40	C	1.317315	-0.434601	-0.400036
C41	C	1.404564	-0.434609	-0.400046
C42	C	1.112622	-0.434518	-0.604754
C43	C	1.112644	-0.434490	-0.692002
C44	C	1.124482	-0.199276	-0.388248
C45	C	1.129558	-0.099001	-0.383234
C46	C	1.165772	-0.376788	-0.730114
C47	C	1.165783	-0.376758	-0.812093
C48	C	1.112669	-0.434435	-0.855959
C49	C	1.059535	-0.492138	-0.817842
C50	C	1.059521	-0.492163	-0.735864
C51	C	1.059569	-0.492084	-0.988709
C52	C	1.059584	-0.492061	-1.070693
C53	C	1.165832	-0.376679	-1.064938
C54	C	1.165818	-0.376704	-0.982961
C55	C	1.112684	-0.434409	-0.944849
C56	C	1.112569	-0.434585	-0.196065
C57	C	1.112713	-0.434360	-0.108804
H58	H	0.566159	-0.329775	-0.303859
O59	O	1.007911	-0.548111	-1.113185
C60	C	0.902550	-0.662585	-1.110248
C61	C	0.961015	-0.599139	-1.062030
H62	H	0.864630	-0.703872	-1.068910
H63	H	0.863561	-0.621188	-1.146533
H64	H	0.936222	-0.709713	-1.151011
H65	H	0.927407	-0.551999	-1.021224
H66	H	1.000003	-0.640593	-1.025797
O67	O	1.228554	-1.097734	-0.284289
C68	C	1.233928	-1.204182	-0.183684
C69	C	1.181259	-1.152308	-0.236210
H70	H	1.195712	-1.248303	-0.144787
H71	H	1.272725	-1.248269	-0.221973
H72	H	1.272349	-1.154318	-0.145367
H73	H	1.142790	-1.202108	-0.274536
H74	H	1.142515	-1.108207	-0.197875
O75	O	1.030494	-1.097582	-0.482002
C76	C	0.895505	-1.126571	-0.521416
C77	C	0.953372	-1.074772	-0.463636
H78	H	0.833138	-1.108163	-0.506577
H79	H	0.910115	-1.107962	-0.583799
H80	H	0.900423	-1.201995	-0.516613
H81	H	0.948485	-0.999337	-0.468368
H82	H	0.938745	-1.093456	-0.401276
O83	O	0.826031	-0.320719	-0.295572
C84	C	0.954890	-0.269540	-0.248542
C85	C	0.906573	-0.333095	-0.306832
H86	H	1.020016	-0.279537	-0.257614
H87	H	0.942508	-0.196797	-0.258791
H88	H	0.937903	-0.285280	-0.186021
H89	H	0.923532	-0.317436	-0.369375
H90	H	0.918959	-0.405819	-0.296514
H91	H	1.016291	-0.539060	-0.957681
H92	H	1.004162	-0.778028	-0.508225
H93	H	1.186437	-0.777985	-0.326240
O94	O	1.007972	-0.548291	-0.860372
C95	C	0.962136	-0.701740	-0.893154
C96	C	1.020562	-0.638246	-0.844934
H97	H	0.972305	-0.774483	-0.880702
H98	H	0.899622	-0.685971	-0.876223
H99	H	0.971263	-0.691767	-0.958286
H100	H	1.011506	-0.648184	-0.779789
H101	H	1.083054	-0.654031	-0.861931
H102	H	1.016251	-0.539140	-0.704834
H103	H	0.995660	-0.948974	-0.516828
H104	H	0.808504	-0.539396	-0.496175
H105	H	1.229636	-0.919293	-0.283199
H106	H	1.209027	-0.329824	-0.694404
O107	O	0.400129	-0.548461	-0.504666
C108	C	0.372858	-0.592435	-0.640332
C109	C	0.421092	-0.528877	-0.581977
H110	H	0.389777	-0.576612	-0.702851
H111	H	0.385314	-0.665170	-0.630140
H112	H	0.307723	-0.582535	-0.631200
H113	H	0.486241	-0.538697	-0.591074
H114	H	0.408569	-0.456165	-0.592184
O115	O	1.217471	-0.320682	-0.848992
C116	C	1.322827	-0.206212	-0.834632
C117	C	1.264343	-0.269690	-0.792746
H118	H	1.360728	-0.164956	-0.789175
H119	H	1.361833	-0.247583	-0.875068
H120	H	1.289172	-0.159059	-0.870669
H121	H	1.297935	-0.316857	-0.756667
H122	H	1.225338	-0.228264	-0.752357
H123	H	0.659786	-0.539400	-0.496196
O124	O	1.217548	-0.320716	-1.101929
C125	C	1.353291	-0.276893	-1.124824
C126	C	1.294811	-0.340334	-1.082893
H127	H	1.415771	-0.292719	-1.109436
H128	H	1.344239	-0.286784	-1.190958
H129	H	1.343147	-0.204158	-1.105074
H130	H	1.304919	-0.413093	-1.102578
H131	H	1.303877	-0.330365	-1.016766
H132	H	1.209072	-0.329744	-0.947247
H133	H	0.417431	-0.329789	-0.303879
H134	H	0.670278	-0.329775	-0.303850
O135	O	0.561740	-0.548360	-0.504569
C136	C	0.653689	-0.560632	-0.611169
C137	C	0.611742	-0.497129	-0.552849
H138	H	0.694113	-0.519237	-0.650229
H139	H	0.689730	-0.607734	-0.577462
H140	H	0.608227	-0.601944	-0.649029
H141	H	0.657151	-0.455759	-0.514974
H142	H	0.575687	-0.450087	-0.586604
