data_functionalizedCrystal
_audit_creation_method	'MofGen! by Chris Wilmer'
_symmetry_space_group_name_H-M	'P1'
_symmetry_Int_Tables_number	1
_symmetry_cell_setting	triclinic
loop_
_symmetry_equiv_pos_as_xyz
  x,y,z
_cell_length_a	10.654550
_cell_length_b	17.699083
_cell_length_c	9.130313
_cell_angle_alpha	89.994594
_cell_angle_beta	89.999724
_cell_angle_gamma	83.883973
loop_
_atom_site_label
_atom_site_type_symbol
_atom_site_fract_x
_atom_site_fract_y
_atom_site_fract_z
O1	O	1.665979	0.106303	-0.121693
O2	O	1.300323	0.116430	-0.121721
O3	O	1.493481	0.001243	-0.121693
O4	O	1.472820	0.221490	-0.121721
O5	O	1.493468	0.001240	0.121906
O6	O	1.300310	0.116427	0.121878
O7	O	1.665966	0.106299	0.121906
Cu8	Cu	1.483136	0.111363	0.144134
Cu9	Cu	1.483152	0.111367	-0.143949
O10	O	1.472807	0.221487	0.121878
C11	C	1.253531	0.115685	0.000076
C12	C	1.114127	0.113460	0.000066
C13	C	1.033454	0.181281	0.000061
C14	C	0.902470	0.179186	0.000087
C15	C	0.932844	0.041444	0.000115
C16	C	1.063826	0.043539	0.000100
C17	C	1.492735	-0.026960	0.000106
C18	C	1.490514	-0.110993	0.000107
C19	C	1.603894	-0.158893	0.000117
C20	C	1.601799	-0.237849	0.000104
C21	C	1.486323	-0.268904	0.000091
C22	C	1.372935	-0.220998	0.000076
C23	C	1.375030	-0.142043	0.000079
C24	C	1.364481	-0.539415	0.000064
C25	C	1.362394	-0.618376	0.000065
C26	C	1.591249	-0.635221	0.000089
C27	C	1.593345	-0.556266	0.000092
C28	C	1.479957	-0.508367	0.000069
C29	C	1.482229	-0.422753	0.000080
C30	C	1.484050	-0.354516	0.000090
C31	C	1.712757	0.107045	0.000106
C32	C	1.852161	0.109269	0.000107
C33	C	1.473554	0.249690	0.000075
C34	C	1.475775	0.333722	0.000065
N35	N	1.483135	0.111360	0.346757
N36	N	1.483164	0.111364	-0.346572
C37	C	1.568694	0.060376	0.423421
C38	C	1.568706	0.060376	0.576758
C39	C	1.397596	0.162350	0.576753
C40	C	1.397579	0.162345	0.423419
H41	H	0.891873	-0.015484	0.000152
H42	H	1.282705	-0.103043	0.000070
H43	H	1.327939	0.203863	0.639187
H44	H	1.638374	0.018860	0.639173
C45	C	1.304825	0.217827	0.340252
C46	C	1.324977	0.292318	0.377491
C47	C	1.239569	0.343443	0.300893
H48	H	1.220991	0.209240	0.365334
H49	H	1.317071	0.210572	0.237939
H50	H	1.312721	0.299570	0.479781
H51	H	1.408794	0.300929	0.352405
H52	H	1.251816	0.336188	0.198579
H53	H	1.155741	0.334849	0.325981
H54	H	1.253239	0.393991	0.326138
C55	C	1.087894	0.257247	-0.000190
C56	C	1.046830	0.298296	-0.125497
C57	C	1.096935	0.368284	-0.125764
H58	H	1.177452	0.248893	-0.000276
H59	H	1.060157	0.285239	0.084715
H60	H	1.074573	0.270309	-0.210380
H61	H	0.957279	0.306669	-0.125437
H62	H	1.069198	0.396277	-0.040860
H63	H	1.186491	0.359924	-0.125847
H64	H	1.069070	0.396148	-0.210776
C65	C	1.151216	-0.030182	0.000029
C66	C	1.079133	-0.091864	0.000010
C67	C	1.159593	-0.159784	-0.000069
H68	H	1.202977	-0.032333	0.084949
H69	H	1.202920	-0.032268	-0.084958
H70	H	1.027452	-0.089780	0.084989
H71	H	1.027375	-0.089738	-0.084904
H72	H	1.211296	-0.161870	-0.085056
H73	H	1.211350	-0.161927	0.084853
H74	H	1.110697	-0.201643	-0.000095
H75	H	0.836791	0.234412	0.000087
H76	H	1.697927	-0.133614	0.000137
H77	H	1.638357	0.018859	0.361006
C78	C	1.718758	-0.522593	-0.000199
C79	C	1.787274	-0.546860	-0.125542
C80	C	1.902804	-0.515850	-0.125876
H81	H	1.765583	-0.538977	0.084651
H82	H	1.703821	-0.468707	-0.000278
H83	H	1.802215	-0.600735	-0.125450
H84	H	1.740487	-0.530477	-0.210413
H85	H	1.887867	-0.461963	-0.125955
H86	H	1.949618	-0.532235	-0.041021
H87	H	1.949302	-0.532304	-0.210926
C88	C	1.725035	-0.289729	0.000202
C89	C	1.826611	-0.245633	0.000265
C90	C	1.940159	-0.293398	0.000376
H91	H	1.729169	-0.320891	-0.084724
H92	H	1.729031	-0.320873	0.085184
H93	H	1.822617	-0.214503	-0.084708
H94	H	1.822519	-0.214472	0.085185
H95	H	1.944156	-0.324542	0.085357
H96	H	1.944281	-0.324558	-0.084552
H97	H	2.009092	-0.263486	0.000432
C98	C	1.714401	-0.687191	0.000395
C99	C	1.783921	-0.673090	0.125751
C100	C	1.897363	-0.720954	0.126096
H101	H	1.761918	-0.677749	-0.084446
H102	H	1.696675	-0.738674	0.000464
H103	H	1.801651	-0.621619	0.125668
H104	H	1.736443	-0.682537	0.210612
H105	H	1.879636	-0.772436	0.126165
H106	H	1.944869	-0.711508	0.041249
H107	H	1.944541	-0.711397	0.211154
H108	H	1.268354	-0.643657	0.000058
C109	C	1.241278	-0.487510	-0.000170
C110	C	1.171722	-0.501646	-0.125478
C111	C	1.058206	-0.453850	-0.125728
H112	H	1.258870	-0.436012	-0.000245
H113	H	1.193851	-0.497008	0.084734
H114	H	1.219138	-0.492142	-0.210360
H115	H	1.154096	-0.553134	-0.125429
H116	H	1.010780	-0.463348	-0.040824
H117	H	1.075811	-0.402356	-0.125799
H118	H	1.010993	-0.463440	-0.210740
H119	H	1.278912	-0.246289	0.000056
