data_functionalizedCrystal
_audit_creation_method	'MofGen! by Chris Wilmer'
_symmetry_space_group_name_H-M	'P1'
_symmetry_Int_Tables_number	1
_symmetry_cell_setting	triclinic
loop_
_symmetry_equiv_pos_as_xyz
  x,y,z
_cell_length_a	31.640172
_cell_length_b	31.640172
_cell_length_c	31.640172
_cell_angle_alpha	60.005009
_cell_angle_beta	90.008445
_cell_angle_gamma	60.004780
loop_
_atom_site_label
_atom_site_type_symbol
_atom_site_fract_x
_atom_site_fract_y
_atom_site_fract_z
Zr1	Zr	0.407245	0.462528	-0.055401
O2	O	0.339766	0.550695	-0.122890
O3	O	0.427922	0.374361	-0.034713
O4	O	0.427933	0.462517	-0.122880
O5	O	0.339756	0.462548	0.034825
O6	O	0.497490	0.462508	-0.122870
O7	O	0.339755	0.462539	-0.034724
O8	O	0.497471	0.304814	0.034844
O9	O	0.339776	0.620242	-0.122890
O10	O	0.488661	0.410619	-0.025882
O11	O	0.436752	0.410632	0.026014
O12	O	0.436764	0.514424	-0.077791
O13	O	0.384856	0.514437	-0.025894
Zr14	Zr	0.518182	0.462528	0.055535
Zr15	Zr	0.518180	0.462514	-0.055386
Zr16	Zr	0.407246	0.462542	0.055520
Zr17	Zr	0.407260	0.573448	-0.055400
Zr18	Zr	0.518166	0.351608	0.055534
O19	O	0.497504	0.550695	0.034847
O20	O	0.497502	0.550675	-0.122869
O21	O	0.339768	0.550715	0.034826
O22	O	0.585660	0.374361	0.123024
O23	O	0.585658	0.374341	-0.034692
O24	O	0.427924	0.374381	0.123003
O25	O	0.585670	0.462508	-0.034691
O26	O	0.497493	0.462539	0.123013
O27	O	0.427936	0.462548	0.123004
O28	O	0.585671	0.462517	0.034857
O29	O	0.427955	0.620231	-0.122878
O30	O	0.497472	0.304825	0.123012
O31	O	0.585651	0.304814	0.123023
O32	O	0.585649	0.304803	0.034856
O33	O	0.339777	0.620253	-0.034722
O34	O	0.427956	0.620242	-0.034710
O35	O	0.488662	0.410632	0.077924
O36	O	0.540571	0.410619	0.026028
O37	O	0.488675	0.514424	-0.025881
O38	O	0.436766	0.514437	0.026016
C39	C	0.462694	0.323784	0.000065
C40	C	0.462688	0.276695	0.000065
C41	C	0.489820	-0.015354	-0.027018
C42	C	0.489830	-0.192349	-0.027017
O43	O	0.512893	-0.215260	-0.050037
N44	N	0.462734	-0.214472	0.000071
C45	C	0.435635	-0.192345	0.027164
O46	O	0.412593	-0.215227	0.050208
C47	C	0.435628	-0.015353	0.027166
C48	C	0.462722	0.006771	0.000072
C49	C	0.516912	0.006770	-0.054109
C50	C	0.516907	0.051019	-0.054111
C51	C	0.489809	0.073143	-0.027022
C52	C	0.462717	0.051020	0.000070
C53	C	0.408533	0.006770	0.054262
C54	C	0.408535	0.051019	0.054261
C55	C	0.435629	0.073144	0.027167
C56	C	0.435614	0.117393	0.027157
N57	N	0.462711	0.139515	0.000069
C58	C	0.489808	0.117390	-0.027021
C59	C	0.435640	-0.285268	0.027160
C60	C	0.435641	-0.329515	0.027158
C61	C	0.489837	-0.329517	-0.027022
C62	C	0.489833	-0.285266	-0.027023
C63	C	0.462737	-0.263145	0.000072
C64	C	0.489795	0.210316	-0.027023
C65	C	0.489785	0.254570	-0.027025
C66	C	0.435592	0.254566	0.027158
C67	C	0.435599	0.210318	0.027157
C68	C	0.462704	0.188193	0.000066
O69	O	0.412568	0.140326	0.050170
O70	O	0.512857	0.140271	-0.050052
C71	C	0.489825	-0.059602	-0.027016
C72	C	0.462732	-0.081726	0.000076
C73	C	0.435635	-0.059601	0.027166
C74	C	0.462733	-0.125973	0.000075
C75	C	0.489831	-0.148098	-0.027015
C76	C	0.516928	-0.125976	-0.054103
C77	C	0.516922	-0.081727	-0.054105
C78	C	0.408538	-0.081724	0.054254
C79	C	0.408545	-0.125972	0.054253
C80	C	0.435643	-0.148097	0.027164
C81	C	0.323950	0.462545	0.000048
C82	C	0.276855	0.462551	0.000042
C83	C	0.011938	0.408337	0.027173
C84	C	-0.165047	0.408327	0.027183
O85	O	-0.164894	0.362244	0.050246
N86	N	-0.214266	0.462511	0.000087
C87	C	-0.219238	0.516703	-0.027011
O88	O	-0.265163	0.562790	-0.050054
C89	C	-0.042253	0.516712	-0.027018
C90	C	0.006965	0.462524	0.000076
C91	C	0.061154	0.354153	0.054266
C92	C	0.105398	0.354156	0.054260
C93	C	0.100425	0.408343	0.027163
C94	C	0.051208	0.462527	0.000071
C95	C	-0.047226	0.570903	-0.054113
C96	C	-0.002974	0.570901	-0.054111
C97	C	0.046244	0.516712	-0.027017
C98	C	0.090479	0.516717	-0.027032
N99	N	0.139698	0.462533	0.000065
C100	C	0.144671	0.408346	0.027162
C101	C	-0.312155	0.516694	-0.027007
C102	C	-0.356401	0.516691	-0.027006
C103	C	-0.302207	0.408315	0.027190
C104	C	-0.257961	0.408318	0.027186
C105	C	-0.262936	0.462509	0.000090
C106	C	0.237583	0.408356	0.027149
C107	C	0.281828	0.408364	0.027140
C108	C	0.227630	0.516740	-0.027054
C109	C	0.183389	0.516732	-0.027047
C110	C	0.188369	0.462536	0.000058
O111	O	0.090366	0.562776	-0.050078
O112	O	0.190600	0.362265	0.050211
C113	C	-0.032305	0.408334	0.027178
C114	C	-0.081522	0.462518	0.000086
C115	C	-0.086494	0.516705	-0.027011
C116	C	-0.125768	0.462516	0.000087
C117	C	-0.120795	0.408329	0.027184
C118	C	-0.071576	0.354144	0.054281
C119	C	-0.027332	0.354147	0.054276
C120	C	-0.135713	0.570890	-0.054108
C121	C	-0.179955	0.570882	-0.054101
C122	C	-0.174982	0.516695	-0.027004
C123	C	0.601477	0.462510	0.000085
C124	C	0.648572	0.462504	0.000092
C125	C	0.462711	0.462510	-0.138679
C126	C	0.462711	0.462504	-0.185768
C127	C	0.462732	0.601272	0.000068
C128	C	0.462739	0.648361	0.000069
C129	C	0.435629	0.516719	-0.504899
C130	C	0.435629	0.516729	-0.681894
O131	O	0.412610	0.562812	-0.727825
N132	N	0.462718	0.462544	-0.676929
C133	C	0.489810	0.408353	-0.627709
O134	O	0.512855	0.362266	-0.627547
C135	C	0.489812	0.408343	-0.450715
C136	C	0.462718	0.462532	-0.455685
C137	C	0.408537	0.570903	-0.509867
C138	C	0.408535	0.570899	-0.465620
C139	C	0.435624	0.516712	-0.416406
C140	C	0.462716	0.462528	-0.411438
C141	C	0.516908	0.354153	-0.401497
C142	C	0.516907	0.354155	-0.357248
C143	C	0.489813	0.408343	-0.362218
C144	C	0.489803	0.408338	-0.317978
N145	N	0.462715	0.462523	-0.322944
C146	C	0.435626	0.516710	-0.372158
C147	C	0.489806	0.408362	-0.720636
C148	C	0.489805	0.408364	-0.764884
C149	C	0.435625	0.516740	-0.819066
C150	C	0.435623	0.516738	-0.774817
C151	C	0.462718	0.462547	-0.725602
C152	C	0.435623	0.516699	-0.279235
C153	C	0.435621	0.516691	-0.234982
C154	C	0.489804	0.408316	-0.180804
C155	C	0.489803	0.408323	-0.225053
C156	C	0.462712	0.462520	-0.274270
O157	O	0.512816	0.362280	-0.272033
O158	O	0.412594	0.562790	-0.372309
C159	C	0.435631	0.516722	-0.549145
C160	C	0.462722	0.462538	-0.544178
C161	C	0.489812	0.408351	-0.494964
C162	C	0.462721	0.462540	-0.588426
C163	C	0.435632	0.516727	-0.637640
C164	C	0.408544	0.570912	-0.642606
C165	C	0.408541	0.570909	-0.598360
C166	C	0.516900	0.354166	-0.489998
C167	C	0.516900	0.354174	-0.534247
C168	C	0.489810	0.408361	-0.583461
C169	C	0.462715	0.462545	0.138813
C170	C	0.462716	0.462551	0.185902
C171	C	0.601457	0.323766	0.000084
C172	C	0.648546	0.276672	0.000090
C173	C	0.462696	0.323801	0.138811
C174	C	0.462690	0.276718	0.185900
C175	C	0.601459	0.323784	0.138830
C176	C	0.648549	0.276695	0.185924
C177	C	0.323967	0.601272	-0.138696
C178	C	0.276878	0.648361	-0.185791
C179	C	0.323969	0.601290	0.000050
C180	C	0.276880	0.648384	0.000044
C181	C	0.462730	0.601255	-0.138677
C182	C	0.462736	0.648337	-0.185766
C183	C	0.643563	0.254556	-0.027009
C184	C	0.687803	0.210311	-0.027014
C185	C	0.737026	0.188181	0.000083
C186	C	0.742009	0.210302	0.027182
C187	C	0.697769	0.254548	0.027184
C188	C	0.489784	0.254608	0.235114
C189	C	0.489777	0.210375	0.279363
C190	C	0.462678	0.188250	0.274396
C191	C	0.435581	0.210365	0.225177
C192	C	0.435586	0.254600	0.180929
C193	C	0.697763	0.254575	0.180951
C194	C	0.742012	0.210336	0.225198
C195	C	0.737047	0.188216	0.274417
C196	C	0.687827	0.210340	0.279389
C197	C	0.643579	0.254581	0.235143
C198	C	0.227664	0.670486	-0.180818
C199	C	0.183414	0.714738	-0.225064
C200	C	0.188380	0.736861	-0.274283
C201	C	0.237599	0.714734	-0.279255
C202	C	0.281848	0.670486	-0.235009
C203	C	0.281864	0.670505	0.027138
C204	C	0.237623	0.714761	0.027131
C205	C	0.188400	0.736893	0.000032
C206	C	0.183418	0.714770	-0.027065
C207	C	0.227658	0.670518	-0.027060
C208	C	0.489840	0.670448	-0.180783
C209	C	0.489856	0.714681	-0.225023
C210	C	0.462764	0.736806	-0.274246
C211	C	0.435659	0.714691	-0.279229
C212	C	0.435647	0.670455	-0.234989
H213	H	0.511848	0.272584	-0.049090
H214	H	0.413560	0.560862	-0.778869
C215	C	0.336006	0.646167	0.056948
C216	C	0.384676	0.597491	0.056960
C217	C	0.438816	0.573159	0.086770
C218	C	0.444287	0.597504	0.116566
C219	C	0.395615	0.646183	0.116554
C220	C	0.341475	0.670515	0.086745
H221	H	0.380628	0.579467	0.034903
H222	H	0.474846	0.537124	0.086778
H223	H	0.484365	0.579492	0.138632
H224	H	0.399664	0.664207	0.138612
H225	H	0.305445	0.706550	0.086736
H226	H	0.413573	0.652458	-0.239053
C227	C	0.785723	0.139547	0.323085
C228	C	0.795159	0.078711	0.362321
C229	C	0.843838	0.030041	0.410987
C230	C	0.883080	0.042205	0.420417
C231	C	0.873646	0.103043	0.381180
C232	C	0.824967	0.151714	0.332514
H233	H	0.766108	0.069704	0.355341
H234	H	0.850822	-0.014995	0.440032
H235	H	0.919115	0.006176	0.456442
H236	H	0.902696	0.112051	0.388160
H237	H	0.817983	0.196750	0.303469
H238	H	0.511851	0.272617	0.239168
C239	C	0.796158	0.185949	0.056991
C240	C	0.812452	0.228510	0.042856
C241	C	0.866603	0.204151	0.072669
C242	C	0.904459	0.137231	0.116616
C243	C	0.888165	0.094666	0.130753
C244	C	0.834014	0.119024	0.100941
H245	H	0.784429	0.278052	0.010322
H246	H	0.878665	0.235662	0.062203
H247	H	0.944544	0.119199	0.138685
H248	H	0.916188	0.045123	0.163287
H249	H	0.821953	0.087514	0.111406
C250	C	0.222171	0.646182	-0.056860
C251	C	0.270826	0.597504	-0.056860
C252	C	0.265334	0.573171	-0.086661
C253	C	0.211188	0.597516	-0.116463
C254	C	0.162529	0.646197	-0.116464
C255	C	0.168020	0.670530	-0.086663
H256	H	0.310912	0.579479	-0.034797
H257	H	0.301355	0.537134	-0.086660
H258	H	0.207123	0.579503	-0.138524
H259	H	0.122443	0.664221	-0.138527
H260	H	0.131999	0.706567	-0.086664
C261	C	0.129270	0.739113	-0.056868
C262	C	0.112990	0.696537	-0.042715
C263	C	0.058842	0.720877	-0.072515
C264	C	0.020974	0.787793	-0.116466
C265	C	0.037254	0.830374	-0.130620
C266	C	0.091402	0.806034	-0.100821
H267	H	0.141022	0.646997	-0.010178
H268	H	0.046791	0.689355	-0.062036
H269	H	-0.019110	0.805811	-0.138525
H270	H	0.009221	0.879913	-0.163158
H271	H	0.103453	0.837556	-0.111299
H272	H	0.462778	0.772825	-0.310265
C273	C	0.129278	0.739067	-0.219586
C274	C	0.113021	0.769469	-0.191136
C275	C	0.058886	0.793794	-0.185657
C276	C	0.021009	0.787718	-0.208628
C277	C	0.037264	0.757314	-0.237080
C278	C	0.091399	0.732989	-0.242559
H279	H	0.141061	0.773968	-0.174130
H280	H	0.046853	0.816301	-0.164594
H281	H	-0.019065	0.805725	-0.204572
H282	H	0.009224	0.752815	-0.254086
H283	H	0.103432	0.710482	-0.263622
H284	H	0.511901	0.652441	-0.140707
H285	H	-0.139771	0.615016	-0.076175
C286	C	0.519667	0.739006	-0.219535
C287	C	0.549457	0.714675	-0.165389
C288	C	0.579268	0.739000	-0.159899
C289	C	0.579289	0.787655	-0.208555
C290	C	0.549498	0.811989	-0.262705
C291	C	0.519687	0.787665	-0.268195
H292	H	0.549442	0.678655	-0.129367
H293	H	0.601321	0.720986	-0.119814
H294	H	0.601357	0.805662	-0.204491
H295	H	0.549513	0.848010	-0.298727
H296	H	0.497634	0.805679	-0.308280
C297	C	0.519589	0.186051	0.333500
C298	C	0.549404	0.210383	0.338958
C299	C	0.579216	0.186061	0.393093
C300	C	0.579215	0.137406	0.441770
C301	C	0.549400	0.113071	0.436314
C302	C	0.519587	0.137394	0.382179
H303	H	0.549406	0.246403	0.302923
H304	H	0.601287	0.204075	0.397132
H305	H	0.601284	0.119401	0.481844
H306	H	0.549397	0.077052	0.472349
H307	H	0.497516	0.119380	0.378140
H308	H	0.413528	0.272590	0.049212
H309	H	0.511867	0.192306	-0.049083
C310	C	0.378740	0.630518	-0.603832
C311	C	0.407791	0.645421	-0.580859
C312	C	0.377989	0.705034	-0.586337
C313	C	0.319137	0.749744	-0.614787
C314	C	0.290083	0.734841	-0.637761
C315	C	0.319885	0.675229	-0.632284
H316	H	0.451360	0.612324	-0.559797
H317	H	0.399497	0.716065	-0.569329
H318	H	0.297075	0.793872	-0.618841
H319	H	0.246514	0.767939	-0.658823
H320	H	0.298377	0.664197	-0.649291
C321	C	0.405828	-0.260937	0.056964
C322	C	0.419971	-0.303522	0.115816
C323	C	0.390156	-0.279194	0.145619
C324	C	0.346199	-0.212279	0.116570
C325	C	0.332054	-0.169690	0.057715
C326	C	0.361868	-0.194019	0.027912
H327	H	0.452513	-0.353060	0.137323
H328	H	0.400627	-0.310721	0.189187
H329	H	0.324128	-0.194270	0.138632
H330	H	0.299512	-0.120153	0.036208
H331	H	0.351397	-0.162491	-0.015657
C332	C	0.462679	0.139588	0.323072
C333	C	0.411279	0.151752	0.332511
C334	C	0.411284	0.103088	0.381189
C335	C	0.462689	0.042259	0.420428
C336	C	0.514093	0.030091	0.410991
C337	C	0.514088	0.078756	0.362313
H338	H	0.373223	0.196784	0.303462
H339	H	0.373232	0.112096	0.388174
H340	H	0.462693	0.006235	0.456462
H341	H	0.552149	-0.014941	0.440039
H342	H	0.552141	0.069748	0.355327
C343	C	0.243066	0.348740	0.056961
C344	C	0.220115	0.333824	0.100922
C345	C	0.225598	0.274208	0.130730
C346	C	0.254033	0.229508	0.116577
C347	C	0.276986	0.244422	0.072614
C348	C	0.271503	0.304038	0.042806
H349	H	0.199064	0.366915	0.111401
H350	H	0.208607	0.263168	0.163274
H351	H	0.258092	0.185376	0.138643
H352	H	0.298037	0.211331	0.062135
H353	H	0.288494	0.315078	0.010261
H354	H	0.241690	0.732766	0.049198
H355	H	0.413565	0.560862	-0.859145
H356	H	0.538971	0.069028	-0.076172
H357	H	-0.067533	0.310023	0.076341
H358	H	0.152381	0.772926	0.000033
H359	H	0.511861	0.364239	-0.760831
H360	H	0.413524	0.272597	0.140858
C361	C	0.378726	-0.057390	0.084053
C362	C	0.392868	-0.099971	0.142906
C363	C	0.363051	-0.075638	0.172705
C364	C	0.319091	-0.008725	0.143652
C365	C	0.304946	0.033861	0.084796
C366	C	0.334764	0.009528	0.054997
H367	H	0.425412	-0.149509	0.164415
H368	H	0.373522	-0.107163	0.216274
H369	H	0.297018	0.009288	0.165711
H370	H	0.272403	0.083398	0.063287
H371	H	0.324293	0.041052	0.011428
C372	C	-0.101357	0.630516	-0.083913
C373	C	-0.139244	0.645442	-0.127873
C374	C	-0.193375	0.705060	-0.157673
C375	C	-0.209618	0.749753	-0.143513
C376	C	-0.171730	0.734829	-0.099551
C377	C	-0.117599	0.675210	-0.069751
H378	H	-0.127221	0.612356	-0.138357
H379	H	-0.221423	0.716108	-0.190216
H380	H	-0.249689	0.793887	-0.165572
H381	H	-0.183753	0.767914	-0.089067
H382	H	-0.089552	0.664162	-0.037207
H383	H	0.413602	0.732712	-0.319312
C384	C	0.682367	0.186001	0.333531
C385	C	0.653933	0.155580	0.349798
C386	C	0.648473	0.131235	0.403940
C387	C	0.671448	0.137312	0.441816
C388	C	0.699884	0.167735	0.425550
C389	C	0.705343	0.192079	0.371407
H390	H	0.636924	0.151080	0.321759
H391	H	0.627423	0.108715	0.415981
H392	H	0.667406	0.119291	0.481895
H393	H	0.716892	0.172234	0.453588
H394	H	0.726394	0.214600	0.359366
C395	C	0.405775	0.186023	0.219719
C396	C	0.405777	0.137363	0.268394
C397	C	0.375974	0.113018	0.262938
C398	C	0.346168	0.137332	0.208806
C399	C	0.346164	0.185995	0.160126
C400	C	0.375968	0.210340	0.165583
H401	H	0.427842	0.119362	0.308469
H402	H	0.375976	0.076994	0.298973
H403	H	0.324105	0.119310	0.204766
H404	H	0.324099	0.203996	0.120051
H405	H	0.375965	0.246364	0.129547
C406	C	0.243055	0.739070	-0.333399
C407	C	0.271475	0.696487	-0.349673
C408	C	0.276928	0.720821	-0.403818
C409	C	0.253962	0.787737	-0.441689
C410	C	0.225540	0.830324	-0.425416
C411	C	0.220086	0.805990	-0.371271
H412	H	0.288478	0.646948	-0.321637
H413	H	0.297968	0.689296	-0.415864
H414	H	0.257999	0.805751	-0.481771
H415	H	0.208537	0.879863	-0.453452
H416	H	0.199046	0.837516	-0.359225
H417	H	0.538980	-0.011241	-0.076168
H418	H	0.511895	-0.267255	-0.049086
H419	H	0.145470	0.310031	0.076321
C420	C	0.139703	0.785532	-0.322951
C421	C	0.085570	0.809835	-0.317475
C422	C	0.036891	0.858503	-0.366141
C423	C	0.042346	0.882868	-0.420283
C424	C	0.096481	0.858565	-0.425762
C425	C	0.145160	0.809897	-0.377096
H426	H	0.081530	0.791799	-0.277394
H427	H	-0.003184	0.876494	-0.362085
H428	H	0.006311	0.918895	-0.456309
H429	H	0.100521	0.876601	-0.465843
H430	H	0.185235	0.791906	-0.381151
C431	C	0.703234	0.278904	0.126814
C432	C	0.757375	0.254569	0.121355
C433	C	0.762851	0.278897	0.067219
C434	C	0.714187	0.327561	0.018543
C435	C	0.660043	0.351899	0.024001
C436	C	0.654566	0.327570	0.078136
H437	H	0.793402	0.218542	0.157389
H438	H	0.802932	0.260880	0.063179
H439	H	0.718241	0.345570	-0.021531
H440	H	0.624015	0.387925	-0.012034
H441	H	0.614485	0.345587	0.082176
C442	C	0.519608	0.348746	-0.666501
C443	C	0.578460	0.304033	-0.650230
C444	C	0.608258	0.244417	-0.596098
C445	C	0.579205	0.229514	-0.558236
C446	C	0.520350	0.274228	-0.574506
C447	C	0.490551	0.333844	-0.628638
H448	H	0.599970	0.315065	-0.678258
H449	H	0.651827	0.211317	-0.584054
H450	H	0.601264	0.185382	-0.518164
H451	H	0.498840	0.263196	-0.546478
H452	H	0.446983	0.366944	-0.640682
C453	C	0.589420	0.278894	-0.056820
C454	C	0.540751	0.327563	-0.056825
C455	C	0.486610	0.351900	-0.086640
C456	C	0.481139	0.327568	-0.116449
C457	C	0.529811	0.278897	-0.116444
C458	C	0.583951	0.254559	-0.086630
H459	H	0.544799	0.345577	-0.034758
H460	H	0.450580	0.387930	-0.086643
H461	H	0.441061	0.345584	-0.138519
H462	H	0.525763	0.260882	-0.138512
H463	H	0.619981	0.218529	-0.086627
H464	H	0.782085	0.192327	0.221140
H465	H	0.511900	-0.347537	-0.049080
C466	C	0.335983	0.646147	-0.240485
C467	C	0.341438	0.670484	-0.294626
C468	C	0.395573	0.646149	-0.300106
C469	C	0.444251	0.597477	-0.251445
C470	C	0.438797	0.573137	-0.197299
C471	C	0.384663	0.597472	-0.191819
H472	H	0.305402	0.706517	-0.330652
H473	H	0.399610	0.664167	-0.340189
H474	H	0.484324	0.579463	-0.255501
H475	H	0.474833	0.537105	-0.161273
H476	H	0.380626	0.579454	-0.151737
H477	H	0.386471	-0.011237	0.076326
C478	C	0.378725	0.075355	0.084063
C479	C	0.407768	0.069282	0.128018
C480	C	0.377957	0.093619	0.157818
C481	C	0.319103	0.124029	0.143663
C482	C	0.290057	0.130103	0.099706
C483	C	0.319868	0.105766	0.069906
H484	H	0.451338	0.046770	0.138499
H485	H	0.399459	0.089123	0.190358
H486	H	0.297035	0.142045	0.165722
H487	H	0.246487	0.152616	0.089225
H488	H	0.298366	0.110263	0.037366
C489	C	0.682314	0.185980	-0.056819
C490	C	0.653864	0.228564	-0.115672
C491	C	0.648373	0.204234	-0.145476
C492	C	0.671332	0.137319	-0.116428
C493	C	0.699784	0.094731	-0.057572
C494	C	0.705275	0.119061	-0.027768
H495	H	0.636867	0.278102	-0.137178
H496	H	0.627311	0.235761	-0.189045
H497	H	0.667267	0.119308	-0.138491
H498	H	0.716781	0.045193	-0.036066
H499	H	0.726336	0.087534	0.015801
H500	H	0.413572	-0.347518	0.049215
H501	H	0.538989	-0.143995	-0.076163
H502	H	0.413530	0.192311	0.049213
H503	H	0.538985	-0.063717	-0.076168
C504	C	0.066635	0.294540	0.084075
C505	C	0.043674	0.279623	0.055031
C506	C	0.049161	0.220004	0.084839
C507	C	0.077610	0.175303	0.143692
C508	C	0.100574	0.190219	0.172739
C509	C	0.095086	0.249837	0.142931
H510	H	0.022612	0.312714	0.011461
H511	H	0.032162	0.208963	0.063336
H512	H	0.081672	0.131170	0.165758
H513	H	0.121635	0.157127	0.216309
H514	H	0.112085	0.260879	0.164434
C515	C	-0.203822	0.348711	0.056993
C516	C	-0.165952	0.333799	0.027950
C517	C	-0.111815	0.274189	0.057760
C518	C	-0.095548	0.229491	0.116614
C519	C	-0.133419	0.244402	0.145661
C520	C	-0.187556	0.304012	0.115851
H521	H	-0.177993	0.366887	-0.015621
H522	H	-0.083781	0.263151	0.036257
H523	H	-0.055473	0.185364	0.138681
H524	H	-0.121378	0.211313	0.189231
H525	H	-0.215591	0.315050	0.137354
H526	H	0.701834	0.272549	0.049254
H527	H	0.386477	-0.143978	0.076315
H528	H	0.321904	0.364236	0.049204
C529	C	-0.317636	0.576309	-0.056819
C530	C	-0.346079	0.621002	-0.115673
C531	C	-0.351563	0.680618	-0.145489
C532	C	-0.328604	0.695542	-0.116450
C533	C	-0.300158	0.650848	-0.057593
C534	C	-0.294675	0.591232	-0.027778
H535	H	-0.363077	0.609956	-0.137172
H536	H	-0.372621	0.713703	-0.189059
H537	H	-0.332663	0.739674	-0.138522
H538	H	-0.283161	0.661895	-0.036094
H539	H	-0.273617	0.558147	0.015792
H540	H	0.603508	0.272585	0.239199
H541	H	-0.298165	0.364194	0.049251
H542	H	-0.396474	0.560817	-0.049075
C543	C	-0.008449	0.630513	-0.083919
C544	C	0.014509	0.645419	-0.127876
C545	C	0.009034	0.705030	-0.157685
C546	C	-0.019399	0.749735	-0.143536
C547	C	-0.042359	0.734830	-0.099577
C548	C	-0.036884	0.675219	-0.069769
H549	H	0.035558	0.612324	-0.138352
H550	H	0.026030	0.716063	-0.190226
H551	H	-0.023452	0.793863	-0.165602
H552	H	-0.063408	0.767925	-0.089102
H553	H	-0.053880	0.664186	-0.037228
H554	H	0.143312	0.560857	-0.049116
H555	H	0.223610	0.652476	-0.140745
C556	C	0.785688	0.139505	0.000082
C557	C	0.795115	0.151665	-0.051321
C558	C	0.843774	0.102988	-0.051322
C559	C	0.883006	0.042150	0.000080
C560	C	0.873580	0.029988	0.051486
C561	C	0.824921	0.078665	0.051488
H562	H	0.766072	0.196703	-0.089375
H563	H	0.850751	0.111992	-0.089377
H564	H	0.919026	0.006116	0.000079
H565	H	0.902622	-0.015051	0.089540
H566	H	0.817943	0.069661	0.089543
C567	C	0.405819	0.576315	-0.333369
C568	C	0.419968	0.621018	-0.349624
C569	C	0.390161	0.680632	-0.403758
C570	C	0.346205	0.695543	-0.441637
C571	C	0.332054	0.650839	-0.425383
C572	C	0.361861	0.591224	-0.371249
H573	H	0.452509	0.609981	-0.321582
H574	H	0.400637	0.713726	-0.415789
H575	H	0.324140	0.739673	-0.481710
H576	H	0.299513	0.661875	-0.453425
H577	H	0.351385	0.558131	-0.359218
C578	C	0.546698	0.294555	-0.435865
C579	C	0.590657	0.279631	-0.397978
C580	C	0.620454	0.220015	-0.343845
C581	C	0.606293	0.175324	-0.327599
C582	C	0.562332	0.190246	-0.365488
C583	C	0.532534	0.249862	-0.419620
H584	H	0.601142	0.312716	-0.410003
H585	H	0.652997	0.208969	-0.315798
H586	H	0.628350	0.131192	-0.287527
H587	H	0.551847	0.157162	-0.353463
H588	H	0.499992	0.260909	-0.447668
H589	H	0.223590	0.560858	-0.049118
H590	H	0.012740	0.310021	0.076340
H591	H	0.386474	0.615025	-0.469673
H592	H	0.386478	0.615031	-0.549936
C593	C	0.546711	0.294543	-0.303110
C594	C	0.605565	0.249838	-0.286838
C595	C	0.635368	0.190226	-0.232702
C596	C	0.606317	0.175321	-0.194838
C597	C	0.547460	0.220027	-0.211110
C598	C	0.517657	0.279638	-0.265246
H599	H	0.627073	0.260871	-0.314867
H600	H	0.678938	0.157132	-0.220656
H601	H	0.628378	0.131193	-0.154763
H602	H	0.525951	0.208994	-0.183080
H603	H	0.474087	0.312733	-0.277291
H604	H	-0.220029	0.615012	-0.076169
C605	C	0.378746	0.630518	-0.696748
C606	C	0.392902	0.675217	-0.713008
C607	C	0.363109	0.734819	-0.767151
C608	C	0.319159	0.749724	-0.805032
C609	C	0.305001	0.705025	-0.788773
C610	C	0.334794	0.645422	-0.734630
H611	H	0.425439	0.664184	-0.684965
H612	H	0.373591	0.767909	-0.779187
H613	H	0.297105	0.793845	-0.845112
H614	H	0.272464	0.716057	-0.816816
H615	H	0.324312	0.612333	-0.722594
H616	H	0.413555	0.560820	-0.239035
H617	H	0.538972	0.310027	-0.397440
H618	H	0.511858	0.364199	-0.221005
H619	H	0.511857	0.364198	-0.140727
H620	H	0.538961	0.310044	-0.530192
