data_functionalizedCrystal
_audit_creation_method	'MofGen! by Chris Wilmer'
_symmetry_space_group_name_H-M	'P1'
_symmetry_Int_Tables_number	1
_symmetry_cell_setting	triclinic
loop_
_symmetry_equiv_pos_as_xyz
  x,y,z
_cell_length_a	11.169417
_cell_length_b	29.839131
_cell_length_c	11.169417
_cell_angle_alpha	90.015401
_cell_angle_beta	90.000863
_cell_angle_gamma	90.042299
loop_
_atom_site_label
_atom_site_type_symbol
_atom_site_fract_x
_atom_site_fract_y
_atom_site_fract_z
Zn1	Zn	1.834478	-0.178916	0.678477
Zn2	Zn	1.834325	-0.254025	0.477767
Zn3	Zn	1.633831	-0.178911	0.477812
Zn4	Zn	1.633663	-0.254021	0.678412
O5	O	1.734074	-0.216468	0.578117
O6	O	2.002408	-0.188883	0.651861
O7	O	1.807735	-0.244061	0.309823
O8	O	1.660581	-0.116045	0.504477
O9	O	2.002295	-0.244066	0.504400
O10	O	1.807996	-0.116048	0.651905
O11	O	1.660433	-0.188875	0.309856
O12	O	1.465859	-0.188871	0.504413
O13	O	1.660295	-0.244058	0.846370
O14	O	1.465736	-0.244054	0.651793
O15	O	1.807834	-0.188879	0.846418
O16	O	1.807573	-0.316892	0.504337
O17	O	1.660147	-0.316889	0.651750
C18	C	1.422250	-0.216461	0.578101
C19	C	1.288850	-0.216469	0.578123
C20	C	1.733858	-0.333191	0.578057
C21	C	1.733875	-0.383125	0.578072
C22	C	1.810978	-0.692758	0.501471
C23	C	1.811127	-0.880431	0.501518
O24	O	1.876511	-0.904686	0.436343
N25	N	1.734323	-0.903910	0.578207
C26	C	1.657483	-0.880469	0.654896
O27	O	1.592169	-0.904746	0.720135
C28	C	1.657342	-0.692797	0.654855
C29	C	1.734142	-0.669319	0.578152
C30	C	1.887773	-0.669280	0.424775
C31	C	1.887731	-0.622365	0.424760
C32	C	1.810894	-0.598927	0.501440
C33	C	1.734099	-0.622404	0.578136
C34	C	1.580508	-0.669356	0.731549
C35	C	1.580482	-0.622435	0.731534
C36	C	1.657282	-0.598958	0.654831
C37	C	1.657220	-0.552050	0.654801
N38	N	1.734023	-0.528571	0.578112
C39	C	1.810860	-0.552009	0.501431
C40	C	1.657561	-0.978999	0.654911
C41	C	1.657594	-1.025917	0.654920
C42	C	1.811240	-1.025876	0.501543
C43	C	1.811199	-0.978957	0.501528
C44	C	1.734364	-0.955520	0.578221
C45	C	1.810764	-0.453483	0.501404
C46	C	1.810712	-0.406563	0.501391
C47	C	1.657071	-0.406609	0.654773
C48	C	1.657119	-0.453525	0.654781
C49	C	1.733975	-0.476960	0.578092
O50	O	1.591879	-0.527766	0.719951
O51	O	1.876183	-0.527724	0.436221
C52	C	1.811021	-0.739673	0.501487
C53	C	1.734226	-0.763150	0.578183
C54	C	1.657389	-0.739712	0.654863
C55	C	1.734260	-0.810068	0.578192
C56	C	1.811097	-0.833506	0.501511
C57	C	1.887900	-0.810027	0.424822
C58	C	1.887858	-0.763111	0.424806
C59	C	1.580586	-0.763192	0.731553
C60	C	1.580634	-0.810107	0.731561
C61	C	1.657471	-0.833545	0.654881
C62	C	2.047117	-0.216475	0.578133
C63	C	2.180517	-0.216478	0.578140
C64	C	1.734063	-0.216469	0.891159
C65	C	1.734058	-0.216469	1.024559
C66	C	1.734325	-0.099290	0.578203
C67	C	1.734431	-0.049355	0.578239
C68	C	1.734072	-0.216476	1.266292
C69	C	1.734061	-0.216470	1.132892
H70	H	1.873351	-0.472559	0.438959
H71	H	1.594989	-0.959920	0.717365
H72	H	1.517964	-0.688463	0.794003
C73	C	1.573926	-0.479076	0.738117
C74	C	1.641843	-0.505978	0.815093
C75	C	1.565255	-0.529524	0.891876
H76	H	1.528126	-0.458448	0.783895
H77	H	1.521710	-0.497434	0.692202
H78	H	1.694038	-0.487621	0.861004
H79	H	1.687641	-0.526614	0.769348
H80	H	1.513039	-0.547882	0.845961
H81	H	1.519458	-0.508893	0.937646
H82	H	1.611325	-0.547783	0.944106
H83	H	1.873804	-1.044967	0.439107
C84	C	1.971262	-0.596960	0.341450
C85	C	2.038578	-0.627536	0.274335
C86	C	2.115560	-0.604153	0.197591
H87	H	1.925532	-0.578679	0.288996
H88	H	2.023569	-0.578643	0.387379
H89	H	1.986278	-0.645846	0.228409
H90	H	2.084333	-0.645819	0.326757
H91	H	2.167867	-0.585836	0.243520
H92	H	2.069821	-0.585873	0.145145
H93	H	2.161251	-0.624896	0.152053
C94	C	1.971433	-0.694728	0.341755
C95	C	2.048352	-0.721598	0.409825
C96	C	2.125481	-0.745031	0.333397
H97	H	1.925804	-0.713102	0.289354
H98	H	2.017224	-0.674020	0.296149
H99	H	2.002566	-0.742304	0.455411
H100	H	2.094007	-0.703236	0.462223
H101	H	2.171273	-0.724323	0.287790
H102	H	2.079843	-0.763402	0.281000
H103	H	2.177687	-0.763262	0.379571
H104	H	1.518017	-0.744112	0.793997
H105	H	1.517915	-0.603355	0.793991
H106	H	1.595045	-1.045029	0.717368
H107	H	1.873737	-0.959845	0.439071
H108	H	1.594507	-0.387518	0.717202
H109	H	1.950396	-0.743999	0.362347
H110	H	1.518083	-0.829219	0.794021
C111	C	1.894233	-0.381155	0.418066
C112	C	1.961554	-0.411728	0.350944
C113	C	2.038516	-0.388340	0.274188
H114	H	1.848488	-0.362877	0.365618
H115	H	1.946538	-0.362835	0.463988
H116	H	1.909256	-0.430040	0.305025
H117	H	2.007324	-0.430007	0.403360
H118	H	2.090820	-0.370020	0.320110
H119	H	1.992761	-0.370063	0.221748
H120	H	2.084210	-0.409080	0.228645
C121	C	1.971315	-0.835560	0.341734
C122	C	1.954938	-0.881673	0.358213
C123	C	2.031786	-0.905211	0.281731
H124	H	1.953930	-0.827954	0.261013
H125	H	2.051948	-0.827858	0.359415
H126	H	1.874324	-0.889372	0.340524
H127	H	1.972332	-0.889292	0.438919
H128	H	2.112419	-0.897508	0.299412
H129	H	2.014395	-0.897601	0.201015
H130	H	2.020692	-0.936500	0.292909
