data_functionalizedCrystal
_audit_creation_method	'MofGen! by Chris Wilmer'
_symmetry_space_group_name_H-M	'P1'
_symmetry_Int_Tables_number	1
_symmetry_cell_setting	triclinic
loop_
_symmetry_equiv_pos_as_xyz
  x,y,z
_cell_length_a	15.297475
_cell_length_b	19.120786
_cell_length_c	15.297738
_cell_angle_alpha	97.652378
_cell_angle_beta	72.640597
_cell_angle_gamma	82.327649
loop_
_atom_site_label
_atom_site_type_symbol
_atom_site_fract_x
_atom_site_fract_y
_atom_site_fract_z
Zn1	Zn	1.474379	-0.577382	-0.733119
Zn2	Zn	1.441316	-0.668611	-0.571544
Zn3	Zn	1.295169	-0.529081	-0.553968
Zn4	Zn	1.312770	-0.668553	-0.700150
O5	O	1.380909	-0.610907	-0.639695
O6	O	1.598789	-0.609723	-0.732840
O7	O	1.400726	-0.629912	-0.440415
O8	O	1.325412	-0.438939	-0.584174
O9	O	1.574498	-0.676748	-0.614131
O10	O	1.457077	-0.474426	-0.715796
O11	O	1.293353	-0.527400	-0.427502
O12	O	1.168707	-0.527344	-0.552205
O13	O	1.355411	-0.676649	-0.833321
O14	O	1.181639	-0.629814	-0.659605
O15	O	1.474144	-0.609667	-0.857544
O16	O	1.417794	-0.765153	-0.582162
O17	O	1.323352	-0.765110	-0.676648
C18	C	1.141778	-0.573332	-0.600421
C19	C	1.039479	-0.557277	-0.583640
C20	C	1.368923	-0.790173	-0.627759
C21	C	1.363885	-0.866881	-0.622697
C22	C	0.778070	-0.725658	-0.759635
C23	C	0.874184	-0.740747	-0.775398
C24	C	0.915513	-0.694881	-0.727460
C25	C	0.860718	-0.633923	-0.663755
C26	C	0.764593	-0.618836	-0.647985
C27	C	0.902036	-0.588059	-0.615810
C28	C	0.847241	-0.527101	-0.552105
C29	C	0.751126	-0.512016	-0.536338
C30	C	0.709797	-0.557882	-0.584276
C31	C	0.998160	-0.603146	-0.631581
C32	C	0.984683	-0.496323	-0.519931
C33	C	0.888569	-0.481235	-0.504167
C34	C	1.430033	-0.921335	-0.688888
C35	C	1.425295	-0.993411	-0.684133
C36	C	1.354414	-1.011031	-0.613183
C37	C	1.288259	-0.956570	-0.546988
C38	C	1.292994	-0.884496	-0.551748
C39	C	1.336688	-1.227726	-0.595384
C40	C	1.331961	-1.299807	-0.590628
C41	C	1.468996	-1.336643	-0.727775
C42	C	1.473728	-1.264566	-0.732525
C43	C	1.407571	-1.210111	-0.666334
C44	C	1.349571	-1.084703	-0.608319
C45	C	1.412410	-1.136441	-0.671202
C46	C	1.620973	-0.648630	-0.679124
C47	C	1.723274	-0.664705	-0.695926
C48	C	1.420429	-0.648539	-0.879762
C49	C	1.437270	-0.664576	-0.982064
C50	C	1.392969	-0.430949	-0.651702
C51	C	1.398108	-0.354261	-0.656819
C52	C	1.501086	-0.725484	-1.036850
C53	C	1.516914	-0.740546	-1.132969
C54	C	1.468924	-0.694705	-1.174310
C55	C	1.405102	-0.633799	-1.119523
C56	C	1.389277	-0.618732	-1.023396
C57	C	1.357116	-0.587954	-1.160856
C58	C	1.293294	-0.527048	-1.106069
C59	C	1.277472	-0.511984	-1.009951
C60	C	1.325462	-0.557825	-0.968610
C61	C	1.372941	-0.603021	-1.256984
C62	C	1.261133	-0.496269	-1.243529
C63	C	1.245304	-0.481207	-1.147410
C64	C	1.341598	-0.573380	-0.400575
C65	C	1.324948	-0.557177	-0.298315
H66	H	1.042765	-0.652778	-0.683451
O67	O	1.435043	-0.662153	-1.310117
C68	C	1.594210	-0.724837	-1.363039
C69	C	1.523969	-0.657837	-1.302814
H70	H	1.666126	-0.721363	-1.357171
H71	H	1.571276	-0.774987	-1.337765
H72	H	1.597234	-0.727740	-1.438830
H73	H	1.520912	-0.654865	-1.227010
H74	H	1.546930	-0.607719	-1.328166
O75	O	1.008887	-0.709408	-0.742788
C76	C	1.155163	-0.668687	-0.793676
C77	C	1.049421	-0.652136	-0.776330
H78	H	1.187969	-0.622400	-0.820816
H79	H	1.168613	-0.675794	-0.725710
H80	H	1.187199	-0.720151	-0.847411
H81	H	1.017314	-0.600666	-0.722627
H82	H	1.036036	-0.645074	-0.844337
O83	O	0.927279	-0.799969	-0.837340
C84	C	0.930488	-0.904354	-0.946372
C85	C	0.870251	-0.837298	-0.876261
H86	H	0.884403	-0.934561	-0.977845
H87	H	0.985527	-0.887394	-1.004113
H88	H	0.966129	-0.940778	-0.909006
H89	H	0.834549	-0.800844	-0.913544
H90	H	0.815267	-0.854309	-0.818524
O91	O	1.484125	-0.709314	-1.267651
C92	C	1.417416	-0.734842	-1.389913
C93	C	1.400069	-0.718281	-1.284179
H94	H	1.349475	-0.742112	-1.403309
H95	H	1.444337	-0.688500	-1.422753
H96	H	1.471307	-0.786230	-1.421954
H97	H	1.346162	-0.666915	-1.252057
H98	H	1.373197	-0.764664	-1.251407
H99	H	1.222058	-0.458940	-1.277189
H100	H	0.744410	-0.762999	-0.798653
H101	H	0.631534	-0.545599	-0.571446
O102	O	0.835194	-0.422073	-0.442282
C103	C	0.681150	-0.351473	-0.368554
C104	C	0.741484	-0.418505	-0.438647
H105	H	0.605377	-0.348559	-0.365607
H106	H	0.686933	-0.354815	-0.296576
H107	H	0.706493	-0.301388	-0.391638
H108	H	0.716182	-0.468624	-0.415650
H109	H	0.735697	-0.415100	-0.510610
H110	H	0.706512	-0.462386	-0.484455
H111	H	1.018332	-0.458976	-0.480894
O112	O	1.498923	-0.904348	-0.757898
C113	C	1.634366	-0.948499	-0.893402
C114	C	1.556387	-0.967835	-0.815305
H115	H	1.680858	-0.999816	-0.939825
H116	H	1.602253	-0.915702	-0.936840
H117	H	1.677757	-0.915655	-0.861310
H118	H	1.512968	-1.000702	-0.847319
H119	H	1.588560	-1.000597	-0.771877
H120	H	1.522857	-1.380986	-0.781665
O121	O	1.578903	-0.799754	-1.186043
C122	C	1.688171	-0.904024	-1.189247
C123	C	1.617976	-0.836999	-1.129027
H124	H	1.719795	-0.934147	-1.143177
H125	H	1.650941	-0.940562	-1.224883
H126	H	1.745795	-0.886951	-1.244283
H127	H	1.560334	-0.854008	-1.073942
H128	H	1.655272	-0.800478	-1.093458
O129	O	1.280610	-1.101787	-0.539473
C130	C	1.115257	-1.092320	-0.467453
C131	C	1.193263	-1.072933	-0.545473
H132	H	1.044618	-1.068988	-0.472266
H133	H	1.123164	-1.153184	-0.475421
H134	H	1.120247	-1.069097	-0.396863
H135	H	1.188322	-1.096109	-0.616099
H136	H	1.185331	-1.012064	-0.537423
O137	O	1.263014	-1.316798	-0.521669
C138	C	1.127617	-1.272661	-0.386115
C139	C	1.205631	-1.253316	-0.464169
H140	H	1.081214	-1.221347	-0.339593
H141	H	1.084131	-1.305446	-0.418146
H142	H	1.159800	-1.305519	-0.342781
H143	H	1.173527	-1.220434	-0.507530
H144	H	1.249108	-1.220566	-0.432077
O145	O	1.489442	-1.046329	-0.748505
C146	C	1.516866	-1.149093	-0.869403
C147	C	1.444118	-1.089192	-0.796550
H148	H	1.480248	-1.183773	-0.908254
H149	H	1.568333	-1.124150	-0.920983
H150	H	1.555877	-1.183731	-0.832852
H151	H	1.405040	-1.054532	-0.833021
H152	H	1.392713	-1.114181	-0.744975
H153	H	1.540157	-0.762798	-1.003182
O154	O	1.272559	-1.174771	-0.531066
C155	C	1.245158	-1.072054	-0.410108
C156	C	1.317886	-1.131986	-0.482929
H157	H	1.281775	-1.037455	-0.371156
H158	H	1.206170	-1.037332	-0.446596
H159	H	1.193672	-1.097043	-0.358615
H160	H	1.369430	-1.107058	-0.534443
H161	H	1.356804	-1.166700	-0.446378
O162	O	1.542622	-1.247577	-0.801529
C163	C	1.678087	-1.291721	-0.937013
C164	C	1.600094	-1.311061	-0.858935
H165	H	1.724586	-1.343037	-0.983435
H166	H	1.645987	-1.258921	-0.980457
H167	H	1.721468	-1.258880	-0.904903
H168	H	1.556686	-1.343927	-0.890966
H169	H	1.632254	-1.343827	-0.815500
H170	H	1.230543	-0.970922	-0.489222
O171	O	1.228686	-0.831686	-0.487352
C172	C	1.092226	-0.802752	-0.350860
C173	C	1.165014	-0.862630	-0.423711
H174	H	1.040718	-0.827747	-0.299398
H175	H	1.128760	-0.768096	-0.311871
H176	H	1.053278	-0.768076	-0.387424
H177	H	1.203985	-0.897356	-0.387220
H178	H	1.128427	-0.897233	-0.462696
H179	H	1.470119	-1.122092	-0.728973
O180	O	1.309942	-0.543105	-0.875217
C181	C	1.225920	-0.462896	-0.729901
C182	C	1.243391	-0.479487	-0.835654
H183	H	1.172128	-0.411453	-0.697886
H184	H	1.198879	-0.509200	-0.697055
H185	H	1.293882	-0.455732	-0.716482
H186	H	1.175466	-0.486637	-0.849157
H187	H	1.270474	-0.433175	-0.868446
H188	H	1.225510	-0.462386	-0.965347
H189	H	1.193340	-0.431616	-1.102789
