data_functionalizedCrystal
_audit_creation_method	'MofGen! by Chris Wilmer'
_symmetry_space_group_name_H-M	'P1'
_symmetry_Int_Tables_number	1
_symmetry_cell_setting	triclinic
loop_
_symmetry_equiv_pos_as_xyz
  x,y,z
_cell_length_a	25.639239
_cell_length_b	18.050591
_cell_length_c	18.050582
_cell_angle_alpha	90.011103
_cell_angle_beta	89.975362
_cell_angle_gamma	89.961418
loop_
_atom_site_label
_atom_site_type_symbol
_atom_site_fract_x
_atom_site_fract_y
_atom_site_fract_z
Zn1	Zn	-0.208185	-1.135238	-0.419826
Zn2	Zn	-0.295613	-1.135126	-0.295632
Zn3	Zn	-0.208194	-1.011058	-0.295659
Zn4	Zn	-0.295592	-1.010983	-0.419788
O5	O	-0.251896	-1.073101	-0.357726
O6	O	-0.219789	-1.239148	-0.403356
O7	O	-0.284029	-1.118653	-0.191711
O8	O	-0.135027	-1.027609	-0.312157
O9	O	-0.284022	-1.239066	-0.312111
O10	O	-0.135021	-1.118844	-0.403382
O11	O	-0.219802	-1.027500	-0.191730
O12	O	-0.219781	-0.907123	-0.312120
O13	O	-0.283985	-1.027481	-0.523718
O14	O	-0.283992	-0.907068	-0.403318
O15	O	-0.219768	-1.118771	-0.523746
O16	O	-0.368776	-1.118580	-0.312074
O17	O	-0.368760	-1.027373	-0.403292
C18	C	-0.251886	-0.880149	-0.357718
C19	C	-0.251894	-0.797603	-0.357732
C20	C	-0.286887	-0.548770	-0.407256
C21	C	-0.299609	-0.598136	-0.339470
C22	C	-0.251914	-0.500483	-0.357728
C23	C	-0.239207	-0.598198	-0.425512
C24	C	-0.251906	-0.646468	-0.357734
C25	C	-0.264661	-0.548762	-0.289906
C26	C	-0.204237	-0.548820	-0.375995
C27	C	-0.216940	-0.598164	-0.308162
C28	C	-0.251920	-0.416385	-0.357726
C29	C	-0.251899	-0.730565	-0.357729
C30	C	-0.387739	-1.072976	-0.357692
C31	C	-0.445853	-1.072991	-0.357703
C32	C	-0.806211	-1.120717	-0.310310
C33	C	-0.860816	-1.120746	-0.310320
O34	O	-0.889049	-1.161195	-0.269988
N35	N	-0.888135	-1.073232	-0.357775
C36	C	-0.860847	-1.025691	-0.405229
O37	O	-0.889098	-0.985280	-0.445595
C38	C	-0.806244	-1.025667	-0.405222
C39	C	-0.778927	-1.073179	-0.357759
C40	C	-0.778895	-1.168226	-0.262851
C41	C	-0.724294	-1.168196	-0.262840
C42	C	-0.697010	-1.120657	-0.310289
C43	C	-0.724327	-1.073149	-0.357748
C44	C	-0.778957	-0.978131	-0.452679
C45	C	-0.724350	-0.978111	-0.452669
C46	C	-0.697034	-1.025622	-0.405205
C47	C	-0.642442	-1.025580	-0.405186
N48	N	-0.615123	-1.073094	-0.357731
C49	C	-0.642407	-1.120633	-0.310282
C50	C	-0.975518	-1.025747	-0.405241
C51	C	-1.030120	-1.025767	-0.405244
C52	C	-1.030085	-1.120823	-0.310336
C53	C	-0.975481	-1.120799	-0.310329
C54	C	-0.948198	-1.073261	-0.357785
C55	C	-0.527742	-1.120566	-0.310263
C56	C	-0.473137	-1.120529	-0.310254
C57	C	-0.473177	-1.025477	-0.405165
C58	C	-0.527777	-1.025510	-0.405171
C59	C	-0.555059	-1.073061	-0.357717
O60	O	-0.614175	-0.985154	-0.445499
O61	O	-0.614149	-1.161044	-0.269930
C62	C	-0.115523	-1.073247	-0.357777
C63	C	-0.057409	-1.073309	-0.357798
C64	C	-0.251873	-1.073130	-0.551432
C65	C	-0.251863	-1.073143	-0.633978
C66	C	-0.251910	-0.266807	-0.357732
C67	C	-0.251924	-0.349353	-0.357729
C68	C	-0.286736	-1.023537	-0.833413
C69	C	-0.299517	-1.091289	-0.882800
C70	C	-0.251823	-1.073180	-0.785108
C71	C	-0.239028	-1.005465	-0.882804
C72	C	-0.251785	-1.073209	-0.931093
C73	C	-0.264629	-1.140967	-0.833407
C74	C	-0.204117	-1.055097	-0.833407
C75	C	-0.216880	-1.122896	-0.882771
C76	C	-0.251846	-1.073162	-0.701010
C77	C	-0.251762	-1.073235	-1.015190
C78	C	-0.251881	-1.073115	-0.164774
C79	C	-0.251744	-1.073247	-0.082229
H80	H	-0.228463	-0.619913	-0.482834
C81	C	-0.389484	-0.983246	-0.447289
C82	C	-0.443179	-0.973228	-0.457322
H83	H	-0.370965	-0.950995	-0.479496
H84	H	-0.380567	-0.972399	-0.397386
H85	H	-0.380505	-1.033138	-0.458193
H86	H	-0.452159	-0.923337	-0.446413
H87	H	-0.452099	-0.984070	-0.507236
H88	H	-1.052309	-1.159534	-0.271703
H89	H	-1.052357	-0.987072	-0.443887
H90	H	-0.339925	-0.619799	-0.324016
H91	H	-0.275453	-0.527139	-0.232569
C92	C	-0.113082	-0.545567	-0.345743
C93	C	-0.149828	-0.519545	-0.396881
H94	H	-0.079492	-0.527495	-0.358647
H95	H	-0.122061	-0.528668	-0.297558
H96	H	-0.112765	-0.598189	-0.346352
H97	H	-0.150147	-0.466922	-0.396268
H98	H	-0.140846	-0.536440	-0.445078
H99	H	-0.163801	-1.039765	-0.811695
H100	H	-0.702056	-1.206886	-0.224194
C101	C	-0.351559	-0.932486	-0.863970
C102	C	-0.326643	-0.966919	-0.804150
H103	H	-0.376198	-0.897538	-0.845902
H104	H	-0.326390	-0.907800	-0.893647
H105	H	-0.368996	-0.968769	-0.892923
H106	H	-0.309203	-0.930636	-0.775200
H107	H	-0.351817	-0.991606	-0.774461
H108	H	-0.275481	-1.198261	-0.811800
H109	H	-0.187361	-0.619715	-0.266232
C110	C	-0.353224	-1.112403	-0.989665
C111	C	-0.353955	-1.111957	-0.912100
H112	H	-0.386832	-1.125162	-1.007751
H113	H	-0.343908	-1.064634	-1.007296
H114	H	-0.328442	-1.147727	-1.006551
H115	H	-0.378734	-1.076629	-0.895214
H116	H	-0.363278	-1.159734	-0.894462
C117	C	-0.190505	-1.250491	-0.886781
C118	C	-0.177001	-1.179646	-0.911853
H119	H	-0.165889	-1.285526	-0.904741
H120	H	-0.190503	-1.251067	-0.834164
H121	H	-0.224279	-1.262929	-0.904446
H122	H	-0.143229	-1.167206	-0.894183
H123	H	-0.176998	-1.179068	-0.964480
C124	C	-0.411660	-1.220402	-0.300001
C125	C	-0.443109	-1.172758	-0.258080
H126	H	-0.393122	-1.252641	-0.267791
H127	H	-0.432927	-1.248797	-0.332380
H128	H	-0.387595	-1.192078	-0.328253
H129	H	-0.467176	-1.201083	-0.229833
H130	H	-0.421840	-1.144361	-0.225688
C131	C	-0.981046	-0.931783	-0.499047
C132	C	-0.945531	-0.973480	-0.457400
H133	H	-0.962534	-0.899514	-0.531245
H134	H	-1.002308	-0.964133	-0.527483
H135	H	-1.002377	-0.903415	-0.466656
H136	H	-0.924203	-1.001853	-0.489791
H137	H	-0.924260	-0.941126	-0.428962
H138	H	-0.549948	-1.159288	-0.271623
C139	C	-0.773361	-1.262168	-0.169032
C140	C	-0.808879	-1.220482	-0.210685
H141	H	-0.791870	-1.294424	-0.136819
H142	H	-0.752036	-1.290543	-0.201414
H143	H	-0.752094	-1.229805	-0.140607
H144	H	-0.830144	-1.252844	-0.239115
H145	H	-0.830213	-1.192104	-0.178299
C146	C	-0.980944	-1.214756	-0.216518
C147	C	-0.945458	-1.173029	-0.258161
H148	H	-0.962409	-1.247005	-0.184314
H149	H	-1.002271	-1.182424	-0.188089
H150	H	-1.002212	-1.243147	-0.248911
H151	H	-0.924193	-1.144634	-0.225767
H152	H	-0.924121	-1.205365	-0.286592
C153	C	-0.224114	-0.929154	-0.989662
C154	C	-0.224436	-0.928144	-0.912096
H155	H	-0.215112	-0.881417	-1.007742
H156	H	-0.199263	-0.964366	-1.006555
H157	H	-0.257753	-0.942352	-1.007291
H158	H	-0.190795	-0.914951	-0.894467
H159	H	-0.249288	-0.892921	-0.895196
C160	C	-0.376744	-0.544378	-0.444411
C161	C	-0.326845	-0.519482	-0.463722
H162	H	-0.401413	-0.526292	-0.479267
H163	H	-0.377233	-0.596992	-0.444491
H164	H	-0.385430	-0.526721	-0.396383
H165	H	-0.318158	-0.537144	-0.511748
H166	H	-0.326355	-0.466857	-0.463650
C167	C	-0.773484	-0.884190	-0.546504
C168	C	-0.808974	-0.925908	-0.504859
H169	H	-0.792015	-0.851952	-0.578723
H170	H	-0.752223	-0.855793	-0.514118
H171	H	-0.752150	-0.916533	-0.574923
H172	H	-0.830305	-0.893565	-0.476435
H173	H	-0.830244	-0.954307	-0.537249
H174	H	-0.702139	-0.939401	-0.491316
C175	C	-0.522325	-0.931553	-0.498987
C176	C	-0.557807	-0.973285	-0.457343
H177	H	-0.540862	-0.899320	-0.531203
H178	H	-0.501067	-0.903152	-0.466601
H179	H	-0.500987	-0.963889	-0.527409
H180	H	-0.579142	-0.940950	-0.428916
H181	H	-0.579073	-1.001689	-0.489733
