data_functionalizedCrystal
_audit_creation_method	'MofGen! by Chris Wilmer'
_symmetry_space_group_name_H-M	'P1'
_symmetry_Int_Tables_number	1
_symmetry_cell_setting	triclinic
loop_
_symmetry_equiv_pos_as_xyz
  x,y,z
_cell_length_a	14.472311
_cell_length_b	14.519709
_cell_length_c	14.519731
_cell_angle_alpha	83.684499
_cell_angle_beta	89.987543
_cell_angle_gamma	90.011835
loop_
_atom_site_label
_atom_site_type_symbol
_atom_site_fract_x
_atom_site_fract_y
_atom_site_fract_z
O1	O	0.076723	-1.223861	-0.120901
O2	O	0.076751	-0.955385	-0.135137
O3	O	0.076728	-1.096731	0.006218
O4	O	0.076746	-1.082515	-0.262256
O5	O	-0.076954	-1.096750	0.006244
O6	O	-0.076931	-0.955404	-0.135111
O7	O	-0.076959	-1.223880	-0.120875
Cu8	Cu	-0.090977	-1.089644	-0.127991
Cu9	Cu	0.090769	-1.089622	-0.128021
O10	O	-0.076936	-1.082534	-0.262230
C11	C	-0.000086	-0.921035	-0.134461
C12	C	-0.000076	-0.818654	-0.132473
N13	N	-0.218808	-1.089666	-0.127969
N14	N	0.218600	-1.089607	-0.128036
C15	C	0.592691	-1.089646	-0.127991
C16	C	0.553538	-1.014096	-0.203709
C17	C	0.446450	-1.013815	-0.203527
C18	C	0.407100	-1.089626	-0.128014
C19	C	0.445950	-1.068696	-0.031676
C20	C	0.553071	-1.068164	-0.032107
C21	C	0.553196	-1.186350	-0.147750
C22	C	0.446069	-1.185697	-0.149949
C23	C	0.302212	-1.089617	-0.128021
C24	C	0.697580	-1.089654	-0.127977
C25	C	-0.000113	-1.096075	0.040591
C26	C	-0.000114	-1.094079	0.142971
C27	C	-0.000120	-1.258230	-0.121551
C28	C	-0.000124	-1.360612	-0.123539
C29	C	-0.000118	-0.443757	-0.125153
C30	C	-0.000106	-0.548065	-0.127186
C31	C	-0.000096	-0.631202	-0.128813
C32	C	-0.000086	-0.735517	-0.130846
C33	C	-0.000093	-1.083191	-0.296603
C34	C	-0.000086	-1.085187	-0.398983
C35	C	-0.000111	-1.092457	0.226115
C36	C	-0.000104	-1.090430	0.330424
C37	C	-0.000098	-1.088822	0.413563
C38	C	-0.000092	-1.086795	0.517878
H39	H	0.579319	-1.026350	-0.275539
C40	C	0.515268	-0.859756	-0.172152
C41	C	0.589879	-0.917756	-0.186863
H42	H	0.537706	-0.800279	-0.161757
H43	H	0.481173	-0.885461	-0.119598
H44	H	0.476331	-0.854181	-0.225135
H45	H	0.628812	-0.923336	-0.133877
H46	H	0.623989	-0.892045	-0.239422
H47	H	0.419123	-0.998979	-0.013913
C48	C	0.437309	-1.250282	0.009294
C49	C	0.409917	-1.265141	-0.080371
H50	H	0.414994	-1.299329	0.052252
H51	H	0.412670	-1.193130	0.024195
H52	H	0.502841	-1.248325	0.012246
H53	H	0.344384	-1.267092	-0.083326
H54	H	0.434552	-1.322308	-0.095276
C55	C	0.555534	-1.116220	0.131480
C56	C	0.588067	-1.139622	0.046256
H57	H	0.577149	-1.160329	0.179854
H58	H	0.489905	-1.116077	0.131221
H59	H	0.577501	-1.056386	0.141167
H60	H	0.566094	-1.199454	0.036566
H61	H	0.653710	-1.139775	0.046514
H62	H	0.420458	-1.122259	0.026034
C63	C	0.515223	-1.224771	-0.299894
C64	C	0.589679	-1.213543	-0.240578
H65	H	0.537746	-1.241558	-0.357202
H66	H	0.481886	-1.168254	-0.310436
H67	H	0.475549	-1.272129	-0.272275
H68	H	0.629350	-1.166180	-0.268195
H69	H	0.623030	-1.270067	-0.230039
H70	H	0.420186	-1.026270	-0.275125
C71	C	0.684068	-1.265344	-0.074598
C72	C	0.587380	-1.262256	-0.073230
H73	H	0.705174	-1.312206	-0.028596
H74	H	0.708146	-1.207083	-0.062288
H75	H	0.704456	-1.278855	-0.133837
H76	H	0.566993	-1.248739	-0.013993
H77	H	0.563293	-1.320531	-0.085533
H78	H	0.420834	-0.942048	-0.190867
H79	H	0.578065	-0.997641	-0.014756
H80	H	0.420695	-1.201574	-0.220828
