data_functionalizedCrystal
_audit_creation_method	'MofGen! by Chris Wilmer'
_symmetry_space_group_name_H-M	'P1'
_symmetry_Int_Tables_number	1
_symmetry_cell_setting	triclinic
loop_
_symmetry_equiv_pos_as_xyz
  x,y,z
_cell_length_a	16.959455
_cell_length_b	16.959454
_cell_length_c	12.759393
_cell_angle_alpha	89.969286
_cell_angle_beta	89.973386
_cell_angle_gamma	90.017095
loop_
_atom_site_label
_atom_site_type_symbol
_atom_site_fract_x
_atom_site_fract_y
_atom_site_fract_z
Zn1	Zn	1.208433	-0.314698	-0.594215
Zn2	Zn	1.208341	-0.446899	-0.418538
Zn3	Zn	1.076247	-0.314732	-0.418530
Zn4	Zn	1.076226	-0.446831	-0.594154
O5	O	1.142311	-0.380790	-0.506359
O6	O	1.319031	-0.332249	-0.570940
O7	O	1.190788	-0.429410	-0.271516
O8	O	1.093829	-0.204116	-0.441857
O9	O	1.318964	-0.429377	-0.441871
O10	O	1.190945	-0.204091	-0.570932
O11	O	1.093739	-0.332307	-0.271510
O12	O	0.965633	-0.332241	-0.441798
O13	O	1.093793	-0.429261	-0.741184
O14	O	0.965618	-0.429294	-0.570829
O15	O	1.190925	-0.332183	-0.741228
O16	O	1.190768	-0.557501	-0.441812
O17	O	1.093704	-0.557451	-0.570836
C18	C	0.936945	-0.380764	-0.506306
C19	C	0.849088	-0.380772	-0.506309
C20	C	0.477567	-0.431314	-0.439119
C21	C	0.477659	-0.330331	-0.573728
C22	C	0.560205	-0.330318	-0.573702
C23	C	0.601436	-0.380805	-0.506385
C24	C	0.560121	-0.431305	-0.439093
C25	C	0.601526	-0.279825	-0.641000
C26	C	0.684077	-0.279811	-0.640978
C27	C	0.725309	-0.330294	-0.573655
C28	C	0.683989	-0.380795	-0.506359
C29	C	0.725220	-0.431282	-0.439042
C30	C	0.683901	-0.481780	-0.371741
C31	C	0.601353	-0.481788	-0.371770
C32	C	0.807858	-0.330285	-0.573626
C33	C	0.807774	-0.431272	-0.439017
C34	C	1.142245	-0.586156	-0.506341
C35	C	1.142289	-0.674013	-0.506369
C36	C	1.091843	-1.045492	-0.573535
C37	C	1.193000	-1.045484	-0.439290
C38	C	1.192972	-0.962939	-0.439281
C39	C	1.142378	-0.921666	-0.506398
C40	C	1.091812	-0.962939	-0.573525
C41	C	1.243531	-0.921659	-0.372147
C42	C	1.243505	-0.839108	-0.372134
C43	C	1.192915	-0.797834	-0.439258
C44	C	1.142348	-0.839112	-0.506388
C45	C	1.091754	-0.797839	-0.573506
C46	C	1.041190	-0.839116	-0.640643
C47	C	1.041222	-0.921664	-0.640649
C48	C	1.192883	-0.715286	-0.439251
C49	C	1.091723	-0.715286	-0.573496
C50	C	1.348480	-0.380816	-0.506413
C51	C	1.436336	-0.380828	-0.506436
C52	C	1.142367	-0.380710	-0.780393
C53	C	1.142390	-0.380676	-0.897169
C54	C	1.142399	-0.174622	-0.506400
C55	C	1.142437	-0.086765	-0.506418
C56	C	1.192974	-0.330123	-0.952056
C57	C	1.192993	-0.330094	-1.061781
C58	C	1.091842	-0.431179	-1.061721
C59	C	1.091820	-0.431203	-0.951999
C60	C	1.243544	-0.279596	-0.897227
C61	C	1.294132	-0.229039	-0.952114
C62	C	1.294151	-0.229011	-1.061838
C63	C	1.243582	-0.279539	-1.116675
C64	C	1.142302	-0.380812	-0.233392
C65	C	1.142431	-0.380624	-0.116616
H66	H	0.444084	-0.289232	-0.628540
H67	H	1.234047	-0.681682	-0.384584
Br68	Br	1.023230	-1.101506	-0.664653
Br69	Br	0.972606	-0.977687	-0.731755
Br70	Br	1.362806	-0.160401	-1.136326
H71	H	1.284677	-0.805506	-0.317469
Br72	Br	1.312193	-0.977675	-0.281069
H73	H	0.841495	-0.289173	-0.628424
Br74	Br	0.545567	-0.211325	-0.732372
H75	H	0.567704	-0.522900	-0.316976
Br76	Br	1.243526	-0.279637	-0.748316
H77	H	1.335299	-0.187896	-0.907458
H78	H	1.243592	-0.279502	-1.206020
Br79	Br	1.261658	-1.101498	-0.348205
H80	H	1.050671	-0.472317	-1.106378
Br81	Br	0.972524	-0.783093	-0.731720
Br82	Br	0.863724	-0.499787	-0.347643
Br83	Br	0.739867	-0.550302	-0.280395
H84	H	1.050618	-0.472356	-0.907309
Br85	Br	0.740145	-0.211280	-0.732314
Br86	Br	1.023063	-0.659279	-0.664598
Br87	Br	0.421496	-0.499838	-0.347778
