data_functionalizedCrystal
_audit_creation_method	'MofGen! by Chris Wilmer'
_symmetry_space_group_name_H-M	'P1'
_symmetry_Int_Tables_number	1
_symmetry_cell_setting	triclinic
loop_
_symmetry_equiv_pos_as_xyz
  x,y,z
_cell_length_a	11.792241
_cell_length_b	10.268362
_cell_length_c	10.654545
_cell_angle_alpha	90.002931
_cell_angle_beta	84.339421
_cell_angle_gamma	90.000374
loop_
_atom_site_label
_atom_site_type_symbol
_atom_site_fract_x
_atom_site_fract_y
_atom_site_fract_z
O1	O	1.507307	0.108167	0.172136
O2	O	1.177007	0.108196	0.189877
O3	O	1.349751	0.108180	-0.001754
O4	O	1.334564	0.108183	0.363767
O5	O	1.349735	-0.108421	-0.001762
O6	O	1.176992	-0.108405	0.189869
O7	O	1.507292	-0.108434	0.172128
Cu8	Cu	1.342141	-0.128197	0.180998
Cu9	Cu	1.342159	0.127959	0.181007
O10	O	1.334548	-0.108418	0.363759
C11	C	1.134706	-0.000100	0.188758
C12	C	1.008685	-0.000089	0.185423
C13	C	0.777958	-0.000126	0.179290
C14	C	0.906351	-0.000106	0.182697
N15	N	1.342136	-0.308363	0.180990
C16	C	1.342153	-0.574033	0.181005
C17	C	1.342140	-0.426195	0.181000
C18	C	1.549593	-0.000135	0.173247
C19	C	1.675615	-0.000138	0.176582
C20	C	1.348628	-0.000118	-0.048553
C21	C	1.345291	-0.000110	-0.187987
N22	N	1.342172	0.308125	0.181005
C23	C	1.345321	0.236035	-0.187987
C24	C	1.343772	0.354106	-0.253492
C25	C	1.340637	0.354108	-0.384502
C26	C	1.339047	0.236025	-0.450009
C27	C	1.340595	0.117954	-0.384504
C28	C	1.343734	0.117965	-0.253491
C29	C	1.340557	-0.118188	-0.384503
C30	C	1.343700	-0.118193	-0.253494
C31	C	1.338967	-0.236271	-0.450010
C32	C	1.340523	-0.354346	-0.384505
C33	C	1.343660	-0.354343	-0.253488
C34	C	1.345249	-0.236265	-0.187988
C35	C	1.335671	-0.000117	0.410558
C36	C	1.339009	-0.000116	0.549992
H37	H	1.347887	0.236045	-0.081313
H38	H	1.336480	0.236037	-0.556682
H39	H	1.344903	-0.450492	-0.200159
H40	H	1.347808	-0.236251	-0.081314
H41	H	1.336407	-0.236261	-0.556684
H42	H	1.339221	-0.450479	-0.437851
H43	H	1.345065	0.450247	-0.200142
H44	H	1.339366	0.450253	-0.437835
