data_functionalizedCrystal
_audit_creation_method	'MofGen! by Chris Wilmer'
_symmetry_space_group_name_H-M	'P1'
_symmetry_Int_Tables_number	1
_symmetry_cell_setting	triclinic
loop_
_symmetry_equiv_pos_as_xyz
  x,y,z
_cell_length_a	16.625546
_cell_length_b	13.897449
_cell_length_c	16.625548
_cell_angle_alpha	89.990776
_cell_angle_beta	90.013404
_cell_angle_gamma	89.977699
loop_
_atom_site_label
_atom_site_type_symbol
_atom_site_fract_x
_atom_site_fract_y
_atom_site_fract_z
Zn1	Zn	-0.321139	-1.474541	0.455919
Zn2	Zn	-0.455942	-1.474460	0.321081
Zn3	Zn	-0.321127	-1.313268	0.321097
Zn4	Zn	-0.455933	-1.313198	0.455868
O5	O	-0.388535	-1.393867	0.388491
O6	O	-0.339030	-1.609512	0.438046
O7	O	-0.438057	-1.453073	0.208251
O8	O	-0.208296	-1.334725	0.339009
O9	O	-0.438069	-1.609452	0.338982
O10	O	-0.208305	-1.453211	0.438062
O11	O	-0.339009	-1.334646	0.208262
O12	O	-0.339000	-1.178277	0.338960
O13	O	-0.438053	-1.334605	0.568707
O14	O	-0.438042	-1.178226	0.437976
O15	O	-0.339021	-1.453143	0.568744
O16	O	-0.568773	-1.453005	0.338933
O17	O	-0.568767	-1.334527	0.437961
C18	C	-0.388519	-1.143252	0.388465
C19	C	-0.388532	-1.036038	0.388473
C20	C	-0.388530	-0.839743	0.388488
C21	C	-0.388529	-0.948976	0.388477
C22	C	-0.598026	-1.393775	0.388457
C23	C	-0.687647	-1.393825	0.388470
C24	C	-1.015823	-1.393993	0.388554
C25	C	-0.924514	-1.393943	0.388533
C26	C	-0.851738	-1.393908	0.388512
C27	C	-0.760424	-1.393860	0.388491
C28	C	-0.178226	-1.393985	0.388543
C29	C	-0.088605	-1.394035	0.388565
C30	C	-0.388538	-1.393875	0.598800
C31	C	-0.388539	-1.393879	0.688421
C32	C	-0.388547	-0.645460	0.388510
C33	C	-0.388538	-0.752674	0.388498
C34	C	-0.388546	-1.393839	1.016597
C35	C	-0.388546	-1.393847	0.925288
C36	C	-0.388543	-1.393859	0.852512
C37	C	-0.388542	-1.393867	0.761198
C38	C	-0.388549	-1.393849	1.179000
C39	C	-0.388543	-1.393839	1.089379
