data_functionalizedCrystal
_audit_creation_method	'MofGen! by Chris Wilmer'
_symmetry_space_group_name_H-M	'P1'
_symmetry_Int_Tables_number	1
_symmetry_cell_setting	triclinic
loop_
_symmetry_equiv_pos_as_xyz
  x,y,z
_cell_length_a	12.827892
_cell_length_b	16.120566
_cell_length_c	12.827885
_cell_angle_alpha	92.921612
_cell_angle_beta	89.970214
_cell_angle_gamma	92.888300
loop_
_atom_site_label
_atom_site_type_symbol
_atom_site_fract_x
_atom_site_fract_y
_atom_site_fract_z
Zn1	Zn	-0.497082	-1.274617	-0.671912
Zn2	Zn	-0.671854	-1.274533	-0.497167
Zn3	Zn	-0.488262	-1.135195	-0.488318
Zn4	Zn	-0.662910	-1.135183	-0.663004
O5	O	-0.580027	-1.204882	-0.580100
O6	O	-0.527700	-1.391273	-0.656162
O7	O	-0.647552	-1.256019	-0.349755
O8	O	-0.343198	-1.153730	-0.512697
O9	O	-0.656104	-1.391211	-0.527778
O10	O	-0.349678	-1.256163	-0.647582
O11	O	-0.512668	-1.153648	-0.343254
O12	O	-0.503995	-1.018527	-0.504060
O13	O	-0.640861	-1.153710	-0.810424
O14	O	-0.632308	-1.018518	-0.632401
O15	O	-0.519027	-1.256151	-0.816968
O16	O	-0.816901	-1.256007	-0.519141
O17	O	-0.810330	-1.153628	-0.640981
C18	C	-0.851534	-1.204830	-0.580078
C19	C	-0.967690	-1.204884	-0.580109
C20	C	-0.566225	-0.988272	-0.566304
C21	C	-0.560345	-0.895605	-0.560427
C22	C	-1.022696	-1.255605	-0.519893
C23	C	-1.142750	-1.255661	-0.519923
C24	C	-0.549587	-0.725942	-0.549706
C25	C	-0.610557	-0.684662	-0.610503
C26	C	-0.604571	-0.590256	-0.604537
C27	C	-0.555571	-0.820357	-0.555670
C28	C	-0.307462	-1.204957	-0.580146
C29	C	-0.191310	-1.204989	-0.580166
C30	C	-0.579930	-1.204939	-0.852674
C31	C	-0.579889	-1.204963	-0.968829
C32	C	-0.593887	-0.422338	-0.593933
C33	C	-0.599802	-0.515005	-0.599785
C34	C	-0.519590	-1.255660	-1.023852
C35	C	-0.519546	-1.255686	-1.143904
C36	C	-0.580051	-1.204874	-0.308590
C37	C	-0.579808	-1.205011	-0.192446
H38	H	-1.190040	-1.299083	-0.468367
H39	H	-0.980911	-1.298990	-0.468321
H40	H	-1.009477	-1.161506	-0.631689
N41	N	-0.644560	-1.150543	-1.133116
N42	N	-0.632725	-1.073609	-1.140325
H43	H	-0.678454	-1.035139	-1.098417
H44	H	-0.667250	-0.720223	-0.667034
H45	H	-0.492898	-0.690384	-0.493180
N46	N	-0.644621	-1.150530	-1.021202
N47	N	-0.701310	-1.102865	-0.969532
H48	H	-0.747027	-1.064418	-1.006517
N49	N	-1.131985	-1.150521	-0.644850
N50	N	-1.072844	-1.179844	-0.713267
H51	H	-1.030938	-1.141378	-0.758952
N52	N	-0.454863	-1.310076	-0.971446
N53	N	-0.454987	-1.309975	-0.873997
H54	H	-0.409271	-1.348408	-0.836985
H55	H	-0.467925	-1.299092	-1.191211
