data_functionalizedCrystal
_audit_creation_method	'MofGen! by Chris Wilmer'
_symmetry_space_group_name_H-M	'P1'
_symmetry_Int_Tables_number	1
_symmetry_cell_setting	triclinic
loop_
_symmetry_equiv_pos_as_xyz
  x,y,z
_cell_length_a	9.065218
_cell_length_b	14.519731
_cell_length_c	7.540329
_cell_angle_alpha	89.995423
_cell_angle_beta	89.996962
_cell_angle_gamma	84.352369
loop_
_atom_site_label
_atom_site_type_symbol
_atom_site_fract_x
_atom_site_fract_y
_atom_site_fract_z
O1	O	1.957881	0.135224	-0.147492
O2	O	2.457881	0.635224	0.352508
O3	O	1.528389	0.146316	-0.147495
O4	O	2.028389	0.646316	0.352505
O5	O	1.754506	0.006616	-0.147477
O6	O	2.254506	0.506616	0.352523
O7	O	1.731764	0.274924	-0.147509
O8	O	2.231764	0.774924	0.352491
O9	O	1.754493	0.006614	0.147488
O10	O	2.254493	0.506614	0.647488
O11	O	1.528376	0.146314	0.147470
O12	O	2.028376	0.646314	0.647470
O13	O	1.957867	0.135222	0.147473
O14	O	2.457867	0.635222	0.647473
Cu15	Cu	1.743120	0.140768	0.174405
Cu16	Cu	2.243120	0.640768	0.674405
Cu17	Cu	1.743136	0.140770	-0.174426
Cu18	Cu	2.243136	0.640770	0.325574
O19	O	1.731751	0.274922	0.147456
O20	O	2.231751	0.774922	0.647456
C21	C	1.473416	0.145249	-0.000012
C22	C	1.973416	0.645249	0.499988
C23	C	1.309632	0.142062	-0.000013
C24	C	1.809632	0.642062	0.499987
C25	C	1.753434	-0.027752	0.000006
C26	C	2.253434	0.472248	0.500006
C27	C	1.750241	-0.130156	0.000007
C28	C	2.250241	0.369844	0.500007
C29	C	1.747646	-0.213319	0.000003
C30	C	2.247646	0.286681	0.500003
C31	C	1.744404	-0.317651	-0.000011
C32	C	2.244404	0.182349	0.499989
C33	C	1.741831	-0.400809	-0.000022
C34	C	2.241831	0.099191	0.499978
C35	C	1.738589	-0.505148	-0.000032
C36	C	2.238589	-0.005148	0.499968
C37	C	2.012841	0.136289	-0.000013
C38	C	2.512841	0.636289	0.499987
C39	C	2.176624	0.139476	-0.000024
C40	C	2.676624	0.639476	0.499976
C41	C	1.732823	0.309290	-0.000031
C42	C	2.232823	0.809290	0.499969
C43	C	1.736016	0.411694	-0.000044
C44	C	2.236016	0.911694	0.499956
N45	N	1.743120	0.140766	0.419753
N46	N	2.243120	0.640766	0.919753
N47	N	1.743148	0.140765	-0.419774
N48	N	2.243148	0.640765	0.080226
