data_functionalizedCrystal
_audit_creation_method	'MofGen! by Chris Wilmer'
_symmetry_space_group_name_H-M	'P1'
_symmetry_Int_Tables_number	1
_symmetry_cell_setting	triclinic
loop_
_symmetry_equiv_pos_as_xyz
  x,y,z
_cell_length_a	10.686220
_cell_length_b	16.120484
_cell_length_c	10.686551
_cell_angle_alpha	88.707809
_cell_angle_beta	90.308082
_cell_angle_gamma	97.070967
loop_
_atom_site_label
_atom_site_type_symbol
_atom_site_fract_x
_atom_site_fract_y
_atom_site_fract_z
Zn1	Zn	1.957921	-0.203137	-0.579045
Zn2	Zn	1.931025	-0.353948	-0.381655
Zn3	Zn	1.730532	-0.224452	-0.387111
Zn4	Zn	1.737575	-0.352260	-0.607294
O5	O	1.839263	-0.283449	-0.488776
O6	O	2.130476	-0.214929	-0.538756
O7	O	1.890226	-0.346397	-0.207623
O8	O	1.769004	-0.105021	-0.403033
O9	O	2.110716	-0.325729	-0.393734
O10	O	1.936065	-0.089361	-0.544046
O11	O	1.742924	-0.251257	-0.211631
O12	O	1.555343	-0.249619	-0.430424
O13	O	1.781008	-0.322851	-0.778303
O14	O	1.560518	-0.343519	-0.592192
O15	O	1.942895	-0.213292	-0.757549
O16	O	1.897056	-0.470327	-0.421125
O17	O	1.754928	-0.469087	-0.586902
C18	C	1.512264	-0.298700	-0.514966
C19	C	1.372373	-0.305242	-0.526202
C20	C	1.823874	-0.499938	-0.506511
C21	C	1.817409	-0.592545	-0.514131
C22	C	1.805615	-0.762098	-0.528067
C23	C	1.873138	-0.803948	-0.449488
C24	C	1.866576	-0.898293	-0.457242
C25	C	1.812176	-0.667744	-0.520315
C26	C	2.167539	-0.268140	-0.462485
C27	C	2.307431	-0.261616	-0.451281
C28	C	1.865737	-0.265505	-0.814505
C29	C	1.877019	-0.257859	-0.953311
C30	C	1.854749	-0.066112	-0.470997
C31	C	1.861348	0.026504	-0.463420
C32	C	1.812969	-0.301259	-0.164304
C33	C	1.801948	-0.308660	-0.025460
H34	H	1.358852	-0.219261	-0.378542
C35	C	1.303589	-0.361650	-0.623159
C36	C	1.173861	-0.357127	-0.615431
C37	C	1.110459	-0.409068	-0.704738
H38	H	1.319460	-0.417673	-0.607721
H39	H	1.332698	-0.343916	-0.704431
H40	H	1.144762	-0.374866	-0.534179
H41	H	1.157952	-0.301117	-0.630883
H42	H	1.139568	-0.391334	-0.786009
H43	H	1.126340	-0.465088	-0.689292
H44	H	1.022434	-0.406001	-0.699514
H45	H	1.742882	-0.797121	-0.601158
H46	H	1.949930	-0.208516	-0.997738
C47	C	1.956659	-0.757107	-0.352053
C48	C	1.946606	-0.671491	-0.363600
C49	C	2.023504	-0.628314	-0.273853
H50	H	2.041789	-0.766203	-0.364662
H51	H	1.930492	-0.776793	-0.270724
H52	H	1.972780	-0.651812	-0.444910
H53	H	1.861494	-0.662370	-0.350979
H54	H	1.997337	-0.647999	-0.192524
H55	H	2.108629	-0.637416	-0.286470
H56	H	2.016685	-0.570219	-0.281668
C57	C	1.704927	-0.374503	-0.966062
C58	C	1.766372	-0.428648	-0.889808
C59	C	1.677037	-0.489307	-0.835048
H60	H	1.659294	-0.405439	-1.029798
H61	H	1.648287	-0.347981	-0.916884
H62	H	1.822990	-0.455168	-0.938984
H63	H	1.811999	-0.397737	-0.826052
H64	H	1.620397	-0.462786	-0.785869
H65	H	1.631410	-0.520237	-0.898791
H66	H	1.718714	-0.526048	-0.783294
