data_functionalizedCrystal
_audit_creation_method	'MofGen! by Chris Wilmer'
_symmetry_space_group_name_H-M	'P1'
_symmetry_Int_Tables_number	1
_symmetry_cell_setting	triclinic
loop_
_symmetry_equiv_pos_as_xyz
  x,y,z
_cell_length_a	6.394989
_cell_length_b	10.654550
_cell_length_c	9.730223
_cell_angle_alpha	90.000193
_cell_angle_beta	89.999740
_cell_angle_gamma	85.491307
loop_
_atom_site_label
_atom_site_type_symbol
_atom_site_fract_x
_atom_site_fract_y
_atom_site_fract_z
O1	O	-2.774464	-0.205778	-0.114272
O2	O	-2.166486	-0.216145	-0.114277
O3	O	-2.484453	-0.028370	-0.114269
O4	O	-2.456496	-0.393553	-0.114280
O5	O	-2.484450	-0.028375	0.114311
O6	O	-2.166482	-0.216150	0.114303
O7	O	-2.774460	-0.205783	0.114308
Zn8	Zn	-2.470470	-0.210967	0.150598
Zn9	Zn	-2.470475	-0.210961	-0.150566
O10	O	-2.456492	-0.393558	0.114300
C11	C	-2.482399	0.018447	0.000019
C12	C	-2.476257	0.157955	0.000014
C13	C	-2.458547	-0.440375	0.000009
C14	C	-2.464688	-0.579883	0.000005
N15	N	-2.470482	-0.210971	0.356134
C16	C	-2.088633	-0.214098	0.000020
C17	C	-1.852307	-0.207833	0.000025
N18	N	-2.470480	-0.210947	-0.356103
C19	C	-2.663471	0.235458	0.000020
C20	C	-2.657688	0.366540	0.000011
C21	C	-2.277460	0.342604	-0.000005
C22	C	-2.283245	0.211524	-0.000005
C23	C	-2.882994	0.249279	0.000035
C24	C	-2.877210	0.380361	0.000026
C25	C	-2.611315	-0.127854	0.428064
C26	C	-2.611309	-0.127838	0.571947
C27	C	-2.329632	-0.294069	0.571958
C28	C	-2.329629	-0.294077	0.428077
C29	C	-2.773946	-0.031886	0.428058
C30	C	-2.773940	-0.031870	0.571941
H31	H	-2.130797	0.148425	-0.000029
F32	F	-2.972197	-0.073979	0.369722
H33	H	-2.968858	0.219013	-0.095618
F34	F	-2.983787	-0.062209	0.622991
F35	F	-2.974332	0.201733	0.129045
F36	F	-2.963924	0.439110	-0.128971
F37	F	-2.072054	0.399627	-0.000029
F38	F	-2.179715	-0.382525	0.351525
H39	H	-2.959921	0.421243	0.095685
F40	F	-2.179732	-0.382510	0.648536
F41	F	-2.727322	0.094780	0.377008
H42	H	-2.723181	0.059890	0.616559
