data_functionalizedCrystal
_audit_creation_method	'MofGen! by Chris Wilmer'
_symmetry_space_group_name_H-M	'P1'
_symmetry_Int_Tables_number	1
_symmetry_cell_setting	triclinic
loop_
_symmetry_equiv_pos_as_xyz
  x,y,z
_cell_length_a	10.654546
_cell_length_b	11.792254
_cell_length_c	9.130313
_cell_angle_alpha	89.998555
_cell_angle_beta	89.998822
_cell_angle_gamma	84.341040
loop_
_atom_site_label
_atom_site_type_symbol
_atom_site_fract_x
_atom_site_fract_y
_atom_site_fract_z
O1	O	1.667394	0.159395	-0.121832
O2	O	2.167394	0.659395	0.378168
O3	O	1.301872	0.174588	-0.121828
O4	O	1.801872	0.674588	0.378172
O5	O	1.493495	0.001842	-0.121820
O6	O	1.993495	0.501842	0.378180
O7	O	1.475771	0.332140	-0.121841
O8	O	1.975771	0.832140	0.378159
O9	O	1.493493	0.001847	0.121779
O10	O	1.993493	0.501847	0.621779
O11	O	1.301870	0.174592	0.121771
O12	O	1.801870	0.674592	0.621771
O13	O	1.667391	0.159400	0.121767
O14	O	2.167391	0.659400	0.621767
Cu15	Cu	1.484631	0.166996	0.144011
Cu16	Cu	1.984631	0.666996	0.644011
Cu17	Cu	1.484633	0.166991	-0.144073
Cu18	Cu	1.984633	0.666991	0.355927
O19	O	1.475769	0.332145	0.121758
O20	O	1.975769	0.832145	0.621758
C21	C	1.255076	0.173475	-0.000028
C22	C	1.755076	0.673475	0.499972
C23	C	1.115642	0.170140	-0.000026
C24	C	1.615642	0.670140	0.499974
C25	C	1.050153	0.168560	-0.132819
C26	C	1.550153	0.668560	0.367181
C27	C	0.919141	0.165417	-0.132830
C28	C	1.419141	0.665417	0.367170
C29	C	0.919119	0.165431	0.132755
C30	C	1.419119	0.665431	0.632755
C31	C	1.050128	0.168582	0.132765
C32	C	1.550128	0.668582	0.632765
C33	C	1.050165	0.168546	-0.286152
C34	C	1.550165	0.668546	0.213848
C35	C	0.919153	0.165404	-0.286164
C36	C	1.419153	0.665404	0.213836
C37	C	1.492377	-0.040449	-0.000021
C38	C	1.992377	0.459551	0.499979
C39	C	1.489036	-0.166470	-0.000022
C40	C	1.989036	0.333530	0.499978
C41	C	1.486320	-0.268812	-0.000027
C42	C	1.986320	0.231188	0.499973
C43	C	1.482925	-0.397207	-0.000041
C44	C	1.982925	0.102793	0.499959
C45	C	1.714188	0.160512	-0.000037
C46	C	2.214188	0.660512	0.499963
C47	C	1.853622	0.163847	-0.000048
C48	C	2.353622	0.663847	0.499952
C49	C	1.476887	0.374436	-0.000044
C50	C	1.976887	0.874436	0.499956
C51	C	1.480228	0.500457	-0.000052
C52	C	1.980228	1.000457	0.499948
N53	N	1.484638	0.167000	0.346634
N54	N	1.984638	0.667000	0.846634
N55	N	1.484636	0.166979	-0.346695
N56	N	1.984636	0.666979	0.153305
C57	C	1.569510	0.090534	0.423289
C58	C	2.069510	0.590534	0.923289
C59	C	1.569507	0.090520	0.576626
C60	C	2.069507	0.590520	1.076626
C61	C	1.399755	0.243448	0.576638
C62	C	1.899755	0.743448	1.076638
C63	C	1.399753	0.243455	0.423304
C64	C	1.899753	0.743455	0.923304
C65	C	1.667519	0.002246	0.423284
C66	C	2.167519	0.502246	0.923284
C67	C	1.667515	0.002232	0.576620
C68	C	2.167515	0.502232	1.076620
H69	H	0.867217	0.246234	-0.333762
H70	H	1.367217	0.746234	0.166238
F71	F	1.119819	0.170286	0.274100
F72	F	1.619819	0.670286	0.774100
H73	H	1.758626	0.029889	0.375722
H74	H	2.258626	0.529889	0.875722
F75	F	1.118070	0.062894	-0.348318
F76	F	1.618070	0.562894	0.151682
F77	F	0.887004	0.060645	-0.363097
F78	F	1.387004	0.560645	0.136903
F79	F	1.309418	0.324812	0.658248
F80	F	1.809418	0.824812	1.158248
F81	F	1.639808	-0.111780	0.368883
F82	F	2.139808	0.388220	0.868883
F83	F	0.849384	0.163774	0.274072
F84	F	1.349384	0.663774	0.774072
F85	F	1.627924	-0.105518	0.638783
F86	F	2.127924	0.394482	1.138783
H87	H	1.074762	0.248688	-0.345030
H88	H	1.574762	0.748688	0.154970
F89	F	1.309408	0.324825	0.341722
F90	F	1.809408	0.824825	0.841722
F91	F	1.793592	0.027640	0.631020
F92	F	2.293592	0.527640	1.131020
