data_functionalizedCrystal
_audit_creation_method	'MofGen! by Chris Wilmer'
_symmetry_space_group_name_H-M	'P1'
_symmetry_Int_Tables_number	1
_symmetry_cell_setting	triclinic
loop_
_symmetry_equiv_pos_as_xyz
  x,y,z
_cell_length_a	17.699077
_cell_length_b	10.723022
_cell_length_c	16.176319
_cell_angle_alpha	89.994397
_cell_angle_beta	89.993140
_cell_angle_gamma	83.873901
loop_
_atom_site_label
_atom_site_type_symbol
_atom_site_fract_x
_atom_site_fract_y
_atom_site_fract_z
O1	O	1.005076	0.157762	-0.068733
O2	O	1.338410	0.491095	0.264600
O3	O	1.671743	0.824429	0.597933
O4	O	0.784827	0.178299	-0.068737
O5	O	1.118160	0.511633	0.264596
O6	O	1.451493	0.844966	0.597929
O7	O	0.900032	-0.013633	-0.068732
O8	O	1.233366	0.319700	0.264601
O9	O	1.566699	0.653034	0.597934
O10	O	0.889870	0.349694	-0.068739
O11	O	1.223204	0.683028	0.264595
O12	O	1.556537	1.016361	0.597928
O13	O	0.900016	-0.013645	0.068761
O14	O	1.233350	0.319688	0.402094
O15	O	1.566683	0.653022	0.735428
O16	O	0.784811	0.178287	0.068756
O17	O	1.118144	0.511621	0.402089
O18	O	1.451477	0.844954	0.735423
O19	O	1.005060	0.157750	0.068760
O20	O	1.338393	0.491083	0.402093
O21	O	1.671727	0.824416	0.735426
Cu22	Cu	0.894934	0.168017	0.081312
Cu23	Cu	1.228267	0.501351	0.414645
Cu24	Cu	1.561601	0.834684	0.747979
Cu25	Cu	0.894953	0.168032	-0.081290
Cu26	Cu	1.228286	0.501365	0.252044
Cu27	Cu	1.561620	0.834698	0.585377
O28	O	0.889854	0.349682	0.068755
O29	O	1.223188	0.683015	0.402088
O30	O	1.556521	1.016349	0.735421
C31	C	0.756617	0.177559	0.000009
C32	C	1.089950	0.510892	0.333342
C33	C	1.423284	0.844225	0.666675
C34	C	0.672585	0.175355	0.000007
C35	C	1.005918	0.508688	0.333341
C36	C	1.339251	0.842022	0.666674
C37	C	0.633102	0.174310	0.074956
C38	C	0.966435	0.507643	0.408289
C39	C	1.299769	0.840976	0.741622
C40	C	0.554146	0.172219	0.074957
C41	C	0.887480	0.505552	0.408290
C42	C	1.220813	0.838886	0.741623
C43	C	0.514674	0.171182	0.000008
C44	C	0.848007	0.504516	0.333342
C45	C	1.181341	0.837849	0.666675
C46	C	0.554163	0.172224	-0.074946
C47	C	0.887496	0.505557	0.258387
C48	C	1.220829	0.838890	0.591721
C49	C	0.633117	0.174306	-0.074946
C50	C	0.966451	0.507639	0.258387
C51	C	1.299784	0.840972	0.591721
C52	C	0.235746	0.163827	-0.074947
C53	C	0.569080	0.497160	0.258386
C54	C	0.902413	0.830493	0.591719
C55	C	0.156786	0.161749	-0.074942
C56	C	0.490119	0.495082	0.258392
C57	C	0.823452	0.828415	0.591725
C58	C	0.156775	0.161740	0.074955
C59	C	0.490108	0.495073	0.408289
C60	C	0.823442	0.828407	0.741622
C61	C	0.235730	0.163822	0.074955
C62	C	0.569063	0.497155	0.408289
C63	C	0.902397	0.830488	0.741622
C64	C	0.275212	0.164856	0.000002
C65	C	0.608545	0.498190	0.333335
C66	C	0.941879	0.831523	0.666668
C67	C	0.360825	0.167121	0.000002
C68	C	0.694158	0.500454	0.333335
C69	C	1.027492	0.833788	0.666668
C70	C	0.429062	0.168927	0.000008
C71	C	0.762395	0.502260	0.333341
C72	C	1.095729	0.835593	0.666674
C73	C	0.899285	-0.060126	0.000013
C74	C	1.232618	0.273207	0.333347
C75	C	1.565952	0.606541	0.666680
C76	C	0.897073	-0.198642	0.000010
C77	C	1.230407	0.134691	0.333344
C78	C	1.563740	0.468024	0.666677
C79	C	0.830638	-0.246062	0.000008
C80	C	1.163971	0.087271	0.333341
C81	C	1.497305	0.420605	0.666675
C82	C	0.828351	-0.389225	0.000005
C83	C	1.161684	-0.055892	0.333338
C84	C	1.495017	0.277441	0.666671
C85	C	1.033270	0.158490	0.000012
C86	C	1.366603	0.491824	0.333345
C87	C	1.699937	0.825157	0.666678
C88	C	1.117302	0.160694	0.000008
C89	C	1.450635	0.494028	0.333341
C90	C	1.783969	0.827361	0.666674
C91	C	0.890602	0.396175	0.000007
C92	C	1.223935	0.729508	0.333341
C93	C	1.557268	1.062842	0.666674
C94	C	0.892813	0.534692	0.000005
C95	C	1.226147	0.868025	0.333338
C96	C	1.559480	1.201358	0.666671
N97	N	0.894926	0.168006	0.195677
N98	N	1.228259	0.501340	0.529011
N99	N	1.561593	0.834673	0.862344
N100	N	0.894967	0.168033	-0.195655
N101	N	1.228300	0.501366	0.137679
N102	N	1.561633	0.834699	0.471012
C103	C	0.945955	0.083053	0.238944
C104	C	1.279288	0.416387	0.572277
C105	C	1.612622	0.749720	0.905610
C106	C	0.945959	0.083052	0.325491
C107	C	1.279292	0.416385	0.658824
C108	C	1.612625	0.749719	0.992157
C109	C	0.894937	0.168011	0.368770
C110	C	1.228270	0.501344	0.702103
C111	C	1.561603	0.834677	1.035436
C112	C	0.843903	0.252968	0.325497
C113	C	1.177236	0.586301	0.658831
C114	C	1.510569	0.919634	0.992164
C115	C	0.843896	0.252962	0.238952
C116	C	1.177229	0.586296	0.572285
C117	C	1.510562	0.919629	0.905619
C118	C	0.843929	0.252991	0.674526
C119	C	1.177262	0.586325	1.007859
C120	C	1.510595	0.919658	1.341192
C121	C	0.843941	0.252993	0.761077
C122	C	1.177274	0.586326	1.094411
C123	C	1.510608	0.919659	1.427744
C124	C	0.945992	0.083081	0.761065
C125	C	1.279325	0.416414	1.094398
C126	C	1.612658	0.749748	1.427731
C127	C	0.945985	0.083076	0.674519
C128	C	1.279318	0.416409	1.007852
C129	C	1.612651	0.749742	1.341186
C130	C	0.894948	0.168028	0.631254
C131	C	1.228281	0.501361	0.964587
C132	C	1.561615	0.834694	1.297921
C133	C	0.894944	0.168026	0.537410
C134	C	1.228277	0.501360	0.870743
C135	C	1.561610	0.834693	1.204077
C136	C	0.894944	0.168019	0.462612
C137	C	1.228278	0.501352	0.795946
C138	C	1.561611	0.834686	1.129279
H139	H	0.124620	0.160892	0.135986
H140	H	0.457953	0.494225	0.469320
H141	H	0.791286	0.827558	0.802653
Br142	Br	0.774693	0.368303	0.819813
Br143	Br	1.108026	0.701636	1.153147
Br144	Br	1.441360	1.034969	1.486480
H145	H	0.987534	0.013899	0.639284
H146	H	1.320867	0.347232	0.972617
H147	H	1.654201	0.680565	1.305951
H148	H	0.987510	0.013876	0.360718
H149	H	1.320843	0.347210	0.694051
H150	H	1.654176	0.680543	1.027385
Br151	Br	1.015256	-0.032216	0.819785
Br152	Br	1.348590	0.301117	1.153118
Br153	Br	1.681923	0.634451	1.486452
Br154	Br	0.103216	0.160343	-0.176664
Br155	Br	0.436549	0.493677	0.156669
Br156	Br	0.769883	0.827010	0.490002
Br157	Br	0.774668	0.368282	0.615814
Br158	Br	1.108002	0.701615	0.949147
Br159	Br	1.441335	1.034948	1.282480
H160	H	0.802356	0.322139	0.360740
H161	H	1.135689	0.655472	0.694074
H162	H	1.469022	0.988805	1.027407
Br163	Br	0.774634	0.368253	0.180233
Br164	Br	1.107967	0.701586	0.513566
Br165	Br	1.441301	1.034919	0.846900
Br166	Br	0.500564	0.170821	0.176677
Br167	Br	0.833897	0.504155	0.510010
Br168	Br	1.167230	0.837488	0.843344
Br169	Br	0.500598	0.170762	-0.176663
Br170	Br	0.833931	0.504095	0.156670
Br171	Br	1.167265	0.837429	0.490003
Br172	Br	0.289295	0.165240	0.176674
Br173	Br	0.622628	0.498574	0.510008
Br174	Br	0.955962	0.831907	0.843341
Br175	Br	0.686703	0.175713	-0.176666
Br176	Br	1.020036	0.509046	0.156668
Br177	Br	1.353370	0.842379	0.490001
Br178	Br	0.686663	0.175729	0.176677
Br179	Br	1.019996	0.509063	0.510011
Br180	Br	1.353330	0.842396	0.843344
H181	H	0.775454	-0.180671	0.000012
H182	H	1.108787	0.152662	0.333345
H183	H	1.442121	0.485995	0.666679
H184	H	0.267883	0.164665	-0.135979
H185	H	0.601217	0.497999	0.197354
H186	H	0.934550	0.831332	0.530687
H187	H	0.771469	-0.430060	-0.000002
H188	H	1.104803	-0.096727	0.333332
H189	H	1.438136	0.236606	0.666665
H190	H	0.949698	-0.424482	-0.000024
H191	H	1.283031	-0.091149	0.333310
H192	H	1.616364	0.242184	0.666643
H193	H	0.952257	-0.264033	0.000014
H194	H	1.285591	0.069301	0.333347
H195	H	1.618924	0.402634	0.666681
H196	H	0.987506	0.013876	0.203712
H197	H	1.320839	0.347209	0.537045
H198	H	1.654173	0.680542	0.870378
