data_functionalizedCrystal
_audit_creation_method	'MofGen! by Chris Wilmer'
_symmetry_space_group_name_H-M	'P1'
_symmetry_Int_Tables_number	1
_symmetry_cell_setting	triclinic
loop_
_symmetry_equiv_pos_as_xyz
  x,y,z
_cell_length_a	19.077236
_cell_length_b	19.077068
_cell_length_c	19.076919
_cell_angle_alpha	94.470751
_cell_angle_beta	90.112677
_cell_angle_gamma	85.291395
loop_
_atom_site_label
_atom_site_type_symbol
_atom_site_fract_x
_atom_site_fract_y
_atom_site_fract_z
Zn1	Zn	-1.047584	-0.256314	-0.450390
Zn2	Zn	-0.797584	-0.006314	-0.200390
Zn3	Zn	-0.547584	0.243686	0.049610
Zn4	Zn	-0.297584	0.493686	0.299610
Zn5	Zn	-1.047497	-0.369471	-0.337231
Zn6	Zn	-0.797497	-0.119471	-0.087231
Zn7	Zn	-0.547497	0.130529	0.162769
Zn8	Zn	-0.297497	0.380529	0.412769
Zn9	Zn	-0.934815	-0.255944	-0.328156
Zn10	Zn	-0.684815	-0.005944	-0.078156
Zn11	Zn	-0.434815	0.244056	0.171844
Zn12	Zn	-0.184815	0.494056	0.421844
Zn13	Zn	-0.924923	-0.378891	-0.450332
Zn14	Zn	-0.674923	-0.128891	-0.200332
Zn15	Zn	-0.424923	0.121109	0.049668
Zn16	Zn	-0.174923	0.371109	0.299668
O17	O	-0.988705	-0.315155	-0.391527
O18	O	-0.738705	-0.065155	-0.141527
O19	O	-0.488705	0.184845	0.108473
O20	O	-0.238705	0.434845	0.358473
O21	O	-1.146064	-0.267537	-0.439202
O22	O	-0.896064	-0.017537	-0.189202
O23	O	-0.646064	0.232463	0.060798
O24	O	-0.396064	0.482463	0.310798
O25	O	-1.036653	-0.350314	-0.237539
O26	O	-0.786653	-0.100314	0.012461
O27	O	-0.536653	0.149686	0.262461
O28	O	-0.286653	0.399686	0.512461
O29	O	-0.953950	-0.157183	-0.340597
O30	O	-0.703950	0.092817	-0.090597
O31	O	-0.453950	0.342817	0.159403
O32	O	-0.203950	0.592817	0.409403
O33	O	-1.146000	-0.350673	-0.356065
O34	O	-0.896000	-0.100673	-0.106065
O35	O	-0.646000	0.149327	0.143935
O36	O	-0.396000	0.399327	0.393935
O37	O	-1.036801	-0.157455	-0.430402
O38	O	-0.786801	0.092545	-0.180402
O39	O	-0.536801	0.342545	0.069598
O40	O	-0.286801	0.592545	0.319598
O41	O	-0.953866	-0.266906	-0.230872
O42	O	-0.703866	-0.016906	0.019128
O43	O	-0.453866	0.233094	0.269128
O44	O	-0.203866	0.483094	0.519128
O45	O	-0.835011	-0.276041	-0.340540
O46	O	-0.585011	-0.026041	-0.090540
O47	O	-0.335011	0.223959	0.159460
O48	O	-0.085011	0.473959	0.409460
O49	O	-0.937090	-0.366728	-0.548828
O50	O	-0.687090	-0.116728	-0.298828
O51	O	-0.437090	0.133272	-0.048828
O52	O	-0.187090	0.383272	0.201172
O53	O	-0.827743	-0.366369	-0.430302
O54	O	-0.577743	-0.116369	-0.180302
O55	O	-0.327743	0.133631	0.069698
O56	O	-0.077743	0.383631	0.319698
O57	O	-1.027209	-0.276672	-0.548871
O58	O	-0.777209	-0.026672	-0.298871
O59	O	-0.527209	0.223328	-0.048871
O60	O	-0.277209	0.473328	0.201129
O61	O	-1.027061	-0.469531	-0.356008
O62	O	-0.777061	-0.219531	-0.106008
O63	O	-0.527061	0.030469	0.143992
O64	O	-0.277061	0.280469	0.393992
O65	O	-0.937006	-0.476452	-0.439102
O66	O	-0.687006	-0.226452	-0.189102
O67	O	-0.437006	0.023548	0.060898
O68	O	-0.187006	0.273548	0.310898
C69	C	-0.805839	-0.322188	-0.384430
C70	C	-0.555839	-0.072188	-0.134430
C71	C	-0.305839	0.177812	0.115570
C72	C	-0.055839	0.427812	0.365570
C73	C	-0.727607	-0.325214	-0.381412
C74	C	-0.477607	-0.075214	-0.131412
C75	C	-0.227607	0.174786	0.118588
C76	C	0.022393	0.424786	0.368588
C77	C	-0.980969	-0.498612	-0.398550
C78	C	-0.730969	-0.248612	-0.148550
C79	C	-0.480969	0.001388	0.101450
C80	C	-0.230969	0.251388	0.351450
C81	C	-0.977723	-0.577094	-0.401580
C82	C	-0.727723	-0.327094	-0.151580
C83	C	-0.477723	-0.077094	0.098420
C84	C	-0.227723	0.172906	0.348420
C85	C	-1.172284	-0.308096	-0.398652
C86	C	-0.922284	-0.058096	-0.148652
C87	C	-0.672284	0.191904	0.101348
C88	C	-0.422284	0.441904	0.351348
C89	C	-1.250515	-0.305088	-0.401689
C90	C	-1.000515	-0.055088	-0.151689
C91	C	-0.750515	0.194912	0.098311
C92	C	-0.500515	0.444912	0.348311
C93	C	-0.981056	-0.322792	-0.575100
C94	C	-0.731056	-0.072792	-0.325100
C95	C	-0.481056	0.177208	-0.075100
C96	C	-0.231056	0.427208	0.174900
C97	C	-0.977797	-0.326047	-0.653328
C98	C	-0.727797	-0.076047	-0.403328
C99	C	-0.477797	0.173953	-0.153328
C100	C	-0.227797	0.423953	0.096672
C101	C	-0.690881	-0.283426	-0.423350
C102	C	-0.440881	-0.033426	-0.173350
C103	C	-0.190881	0.216574	0.076650
C104	C	0.059119	0.466574	0.326650
C105	C	-0.617374	-0.286266	-0.420507
C106	C	-0.367374	-0.036266	-0.170507
C107	C	-0.117374	0.213734	0.079493
C108	C	0.132626	0.463734	0.329493
C109	C	-0.580594	-0.330898	-0.375730
C110	C	-0.330594	-0.080898	-0.125730
C111	C	-0.080594	0.169102	0.124270
C112	C	0.169406	0.419102	0.374270
C113	C	-0.617325	-0.372687	-0.333787
C114	C	-0.367325	-0.122687	-0.083787
C115	C	-0.117325	0.127313	0.166213
C116	C	0.132675	0.377313	0.416213
C117	C	-0.690831	-0.369843	-0.336626
C118	C	-0.440831	-0.119843	-0.086626
C119	C	-0.190831	0.130157	0.163374
C120	C	0.059169	0.380157	0.413374
C121	C	-0.360752	-0.344033	-0.362585
C122	C	-0.110752	-0.094033	-0.112585
C123	C	0.139248	0.155967	0.137415
C124	C	0.389248	0.405967	0.387415
C125	C	-0.287240	-0.346876	-0.359750
C126	C	-0.037240	-0.096876	-0.109750
C127	C	0.212760	0.153124	0.140250
C128	C	0.462760	0.403124	0.390250
C129	C	-0.287295	-0.260453	-0.446471
C130	C	-0.037295	-0.010453	-0.196471
C131	C	0.212705	0.239547	0.053529
C132	C	0.462705	0.489547	0.303529
C133	C	-0.360802	-0.257616	-0.449309
C134	C	-0.110802	-0.007616	-0.199309
C135	C	0.139198	0.242384	0.050691
C136	C	0.389198	0.492384	0.300691
C137	C	-0.397527	-0.299403	-0.407363
C138	C	-0.147527	-0.049403	-0.157363
C139	C	0.102473	0.200597	0.092637
C140	C	0.352473	0.450597	0.342637
N141	N	-0.505458	-0.333803	-0.372825
N142	N	-0.255458	-0.083803	-0.122825
N143	N	-0.005458	0.166197	0.127175
N144	N	0.244542	0.416197	0.377175
N145	N	-0.472662	-0.296493	-0.410265
N146	N	-0.222662	-0.046493	-0.160265
N147	N	0.027338	0.203507	0.089735
N148	N	0.277338	0.453507	0.339735
C149	C	-1.023118	-0.610338	-0.359779
C150	C	-0.773118	-0.360338	-0.109779
C151	C	-0.523118	-0.110338	0.140221
C152	C	-0.273118	0.139662	0.390221
C153	C	-1.020069	-0.684080	-0.362634
C154	C	-0.770069	-0.434080	-0.112634
C155	C	-0.520069	-0.184080	0.137366
C156	C	-0.270069	0.065920	0.387366
C157	C	-0.971621	-0.724577	-0.407285
C158	C	-0.721621	-0.474577	-0.157285
C159	C	-0.471621	-0.224577	0.092715
C160	C	-0.221621	0.025423	0.342715
C161	C	-0.926224	-0.691328	-0.449090
C162	C	-0.676224	-0.441328	-0.199090
C163	C	-0.426224	-0.191328	0.050910
C164	C	-0.176224	0.058672	0.300910
C165	C	-0.929277	-0.617587	-0.446239
C166	C	-0.679277	-0.367587	-0.196239
C167	C	-0.429277	-0.117587	0.053761
C168	C	-0.179277	0.132413	0.303761
C169	C	-0.957462	-0.945508	-0.420451
C170	C	-0.707462	-0.695508	-0.170451
C171	C	-0.457462	-0.445508	0.079549
C172	C	-0.207462	-0.195508	0.329549
C173	C	-0.954411	-1.019254	-0.423297
C174	C	-0.704411	-0.769254	-0.173297
C175	C	-0.454411	-0.519254	0.076703
C176	C	-0.204411	-0.269254	0.326703
C177	C	-1.048258	-1.012002	-0.336841
C178	C	-0.798258	-0.762002	-0.086841
C179	C	-0.548258	-0.512002	0.163159
C180	C	-0.298258	-0.262002	0.413159
C181	C	-1.051303	-0.938260	-0.333991
C182	C	-0.801303	-0.688260	-0.083991
C183	C	-0.551303	-0.438260	0.166009
C184	C	-0.301303	-0.188260	0.416009
C185	C	-1.005909	-0.905017	-0.375798
C186	C	-0.755909	-0.655017	-0.125798
C187	C	-0.505909	-0.405017	0.124202
C188	C	-0.255909	-0.155017	0.374202
N189	N	-0.968502	-0.799954	-0.410202
N190	N	-0.718502	-0.549954	-0.160202
N191	N	-0.468502	-0.299954	0.089798
N192	N	-0.218502	-0.049954	0.339798
N193	N	-1.009032	-0.829642	-0.372885
N194	N	-0.759032	-0.579642	-0.122885
N195	N	-0.509032	-0.329642	0.127115
N196	N	-0.259032	-0.079642	0.377115
C197	C	-0.996489	-0.130982	-0.384494
C198	C	-0.746489	0.119018	-0.134494
C199	C	-0.496489	0.369018	0.115506
C200	C	-0.246489	0.619018	0.365506
C201	C	-0.999806	-0.052499	-0.381497
C202	C	-0.749806	0.197501	-0.131497
C203	C	-0.499806	0.447501	0.118503
C204	C	-0.249806	0.697501	0.368503
C205	C	-1.023183	-0.280690	-0.690103
C206	C	-0.773183	-0.030690	-0.440103
C207	C	-0.523183	0.219310	-0.190103
C208	C	-0.273183	0.469310	0.059897
C209	C	-1.020112	-0.283745	-0.763606
C210	C	-0.770112	-0.033745	-0.513606
C211	C	-0.520112	0.216255	-0.263606
C212	C	-0.270112	0.466255	-0.013606
C213	C	-0.971657	-0.332161	-0.800332
C214	C	-0.721657	-0.082161	-0.550332
C215	C	-0.471657	0.167839	-0.300332
C216	C	-0.221657	0.417839	-0.050332
C217	C	-0.926266	-0.377520	-0.763552
C218	C	-0.676266	-0.127520	-0.513552
C219	C	-0.426266	0.122480	-0.263552
C220	C	-0.176266	0.372480	-0.013552
C221	C	-0.929334	-0.374461	-0.690050
C222	C	-0.679334	-0.124461	-0.440050
C223	C	-0.429334	0.125539	-0.190050
C224	C	-0.179334	0.375539	0.059950
C225	C	-0.957447	-0.346336	-1.020156
C226	C	-0.707447	-0.096336	-0.770156
C227	C	-0.457447	0.153664	-0.520156
C228	C	-0.207447	0.403664	-0.270156
C229	C	-0.954384	-0.349393	-1.093664
C230	C	-0.704384	-0.099393	-0.843664
C231	C	-0.454384	0.150607	-0.593664
C232	C	-0.204384	0.400607	-0.343664
C233	C	-1.048229	-0.255618	-1.093712
C234	C	-0.798229	-0.005618	-0.843712
C235	C	-0.548229	0.244382	-0.593712
C236	C	-0.298229	0.494382	-0.343712
C237	C	-1.051296	-0.252565	-1.020209
C238	C	-0.801296	-0.002565	-0.770209
C239	C	-0.551296	0.247435	-0.520209
C240	C	-0.301296	0.497435	-0.270209
C241	C	-1.005902	-0.297921	-0.983435
C242	C	-0.755902	-0.047921	-0.733435
C243	C	-0.505902	0.202079	-0.483435
C244	C	-0.255902	0.452079	-0.233435
N245	N	-0.968519	-0.335287	-0.875464
N246	N	-0.718519	-0.085287	-0.625464
N247	N	-0.468519	0.164713	-0.375464
N248	N	-0.218519	0.414713	-0.125464
N249	N	-1.009038	-0.294792	-0.908304
N250	N	-0.759038	-0.044792	-0.658304
N251	N	-0.509038	0.205208	-0.408304
N252	N	-0.259038	0.455208	-0.158304
C253	C	-0.996366	-0.307495	-0.208668
C254	C	-0.746366	-0.057495	0.041332
C255	C	-0.496366	0.192505	0.291332
C256	C	-0.246366	0.442505	0.541332
C257	C	-0.999770	-0.304037	-0.130439
C258	C	-0.749770	-0.054037	0.119561
C259	C	-0.499770	0.195963	0.369561
C260	C	-0.249770	0.445963	0.619561
H261	H	-0.720822	-0.247083	-0.459815
H262	H	-0.470822	0.002917	-0.209815
H263	H	-0.220822	0.252917	0.040185
H264	H	0.029178	0.502917	0.290185
Br265	Br	-1.117060	-0.186858	-0.970371
Br266	Br	-0.867060	0.063142	-0.720371
Br267	Br	-0.617060	0.313142	-0.470371
Br268	Br	-0.367060	0.563142	-0.220371
Br269	Br	-0.567535	-0.229551	-0.477427
Br270	Br	-0.317535	0.020449	-0.227427
Br271	Br	-0.067535	0.270449	0.022573
Br272	Br	0.182465	0.520449	0.272573
Br273	Br	-0.410713	-0.197049	-0.510088
Br274	Br	-0.160713	0.052951	-0.260088
Br275	Br	0.089287	0.302951	-0.010088
Br276	Br	0.339287	0.552951	0.239912
H277	H	-1.062642	-0.241266	-0.660206
H278	H	-0.812642	0.008734	-0.410206
H279	H	-0.562642	0.258734	-0.160206
H280	H	-0.312642	0.508734	0.089794
H281	H	-1.085185	-0.218691	-1.123662
H282	H	-0.835185	0.031309	-0.873662
H283	H	-0.585185	0.281309	-0.623662
H284	H	-0.335185	0.531309	-0.373662
Br285	Br	-0.867671	-0.572468	-0.502975
Br286	Br	-0.617671	-0.322468	-0.252975
Br287	Br	-0.367671	-0.072468	-0.002975
Br288	Br	-0.117671	0.177532	0.247025
Br289	Br	-1.081742	-0.222219	-0.813515
Br290	Br	-0.831742	0.027781	-0.563515
Br291	Br	-0.581742	0.277781	-0.313515
Br292	Br	-0.331742	0.527781	-0.063515
H293	H	-0.720732	-0.403871	-0.302475
H294	H	-0.470732	-0.153871	-0.052475
H295	H	-0.220732	0.096129	0.197525
H296	H	0.029268	0.346129	0.447525
H297	H	-1.085216	-1.039077	-0.302805
H298	H	-0.835216	-0.789077	-0.052805
H299	H	-0.585216	-0.539077	0.197195
H300	H	-0.335216	-0.289077	0.447195
H301	H	-0.914967	-1.052225	-0.459670
H302	H	-0.664967	-0.802225	-0.209670
H303	H	-0.414967	-0.552225	0.040330
H304	H	-0.164967	-0.302225	0.290330
Br305	Br	-0.895855	-0.900402	-0.477190
Br306	Br	-0.645855	-0.650402	-0.227190
Br307	Br	-0.395855	-0.400402	0.022810
Br308	Br	-0.145855	-0.150402	0.272810
Br309	Br	-0.860502	-0.443224	-0.813394
Br310	Br	-0.610502	-0.193224	-0.563394
Br311	Br	-0.360502	0.056776	-0.313394
Br312	Br	-0.110502	0.306776	-0.063394
H313	H	-0.914924	-0.388821	-1.123564
H314	H	-0.664924	-0.138821	-0.873564
H315	H	-0.414924	0.111179	-0.623564
H316	H	-0.164924	0.361179	-0.373564
Br317	Br	-0.237451	-0.203745	-0.503393
Br318	Br	0.012549	0.046255	-0.253393
Br319	Br	0.262549	0.296255	-0.003393
Br320	Br	0.512549	0.546255	0.246607
H321	H	-0.886779	-0.724306	-0.485450
H322	H	-0.636779	-0.474306	-0.235450
H323	H	-0.386779	-0.224306	0.014550
H324	H	-0.136779	0.025694	0.264550
H325	H	-0.920494	-0.383278	-0.990225
H326	H	-0.670494	-0.133278	-0.740225
H327	H	-0.420494	0.116722	-0.490225
H328	H	-0.170494	0.366722	-0.240225
Br329	Br	-1.081684	-0.729195	-0.305906
Br330	Br	-0.831684	-0.479195	-0.055906
Br331	Br	-0.581684	-0.229195	0.194094
Br332	Br	-0.331684	0.020805	0.444094
Br333	Br	-0.237322	-0.407473	-0.298997
Br334	Br	0.012678	-0.157473	-0.048997
Br335	Br	0.262678	0.092527	0.201003
Br336	Br	0.512678	0.342527	0.451003
Br337	Br	-1.117065	-0.883305	-0.273399
Br338	Br	-0.867065	-0.633305	-0.023399
Br339	Br	-0.617065	-0.383305	0.226601
Br340	Br	-0.367065	-0.133305	0.476601
H341	H	-0.892369	-0.411388	-0.660108
H342	H	-0.642369	-0.161388	-0.410108
H343	H	-0.392369	0.088612	-0.160108
H344	H	-0.142369	0.338612	0.089892
Br345	Br	-0.567410	-0.433254	-0.273010
Br346	Br	-0.317410	-0.183254	-0.023010
Br347	Br	-0.067410	0.066746	0.226990
Br348	Br	0.182590	0.316746	0.476990
Br349	Br	-0.410585	-0.400725	-0.305639
Br350	Br	-0.160585	-0.150725	-0.055639
Br351	Br	0.089415	0.099275	0.194361
Br352	Br	0.339415	0.349275	0.444361
H353	H	-1.062567	-0.577370	-0.323416
H354	H	-0.812567	-0.327370	-0.073416
H355	H	-0.562567	-0.077370	0.176584
H356	H	-0.312567	0.172630	0.426584
