data_functionalizedCrystal
_audit_creation_method	'MofGen! by Chris Wilmer'
_symmetry_space_group_name_H-M	'P1'
_symmetry_Int_Tables_number	1
_symmetry_cell_setting	triclinic
loop_
_symmetry_equiv_pos_as_xyz
  x,y,z
_cell_length_a	19.805407
_cell_length_b	21.295417
_cell_length_c	19.805399
_cell_angle_alpha	89.967749
_cell_angle_beta	89.983114
_cell_angle_gamma	90.030507
loop_
_atom_site_label
_atom_site_type_symbol
_atom_site_fract_x
_atom_site_fract_y
_atom_site_fract_z
Zn1	Zn	1.034698	-0.250615	-0.382704
Zn2	Zn	1.368032	0.082718	-0.049371
Zn3	Zn	1.701365	0.416052	0.283962
Zn4	Zn	1.034611	-0.355886	-0.269510
Zn5	Zn	1.367944	-0.022553	0.063824
Zn6	Zn	1.701277	0.310780	0.397157
Zn7	Zn	0.921518	-0.250635	-0.269529
Zn8	Zn	1.254852	0.082698	0.063804
Zn9	Zn	1.588185	0.416032	0.397138
Zn10	Zn	0.921469	-0.355850	-0.382656
Zn11	Zn	1.254802	-0.022517	-0.049323
Zn12	Zn	1.588135	0.310816	0.284010
O13	O	0.978074	-0.303247	-0.326100
O14	O	1.311407	0.030087	0.007234
O15	O	1.644741	0.363420	0.340567
O16	O	1.129403	-0.264586	-0.367701
O17	O	1.462737	0.068747	-0.034367
O18	O	1.796070	0.402080	0.298966
O19	O	1.019593	-0.341948	-0.174796
O20	O	1.352926	-0.008615	0.158538
O21	O	1.686259	0.324719	0.491871
O22	O	0.936590	-0.162543	-0.284570
O23	O	1.269923	0.170790	0.048763
O24	O	1.603256	0.504124	0.382097
O25	O	1.129339	-0.341929	-0.284537
O26	O	1.462672	-0.008595	0.048796
O27	O	1.796005	0.324738	0.382130
O28	O	1.019743	-0.162528	-0.367719
O29	O	1.353076	0.170805	-0.034386
O30	O	1.686409	0.504138	0.298947
O31	O	0.936504	-0.264620	-0.174810
O32	O	1.269838	0.068713	0.158524
O33	O	1.603171	0.402046	0.491857
O34	O	0.826795	-0.264585	-0.284523
O35	O	1.160129	0.068748	0.048810
O36	O	1.493462	0.402081	0.382143
O37	O	0.936505	-0.341867	-0.477379
O38	O	1.269838	-0.008534	-0.144046
O39	O	1.603171	0.324799	0.189287
O40	O	0.826759	-0.341887	-0.367638
O41	O	1.160092	-0.008553	-0.034304
O42	O	1.493425	0.324780	0.299029
O43	O	1.019694	-0.264551	-0.477415
O44	O	1.353028	0.068782	-0.144081
O45	O	1.686361	0.402115	0.189252
O46	O	1.019544	-0.443971	-0.284491
O47	O	1.352878	-0.110638	0.048843
O48	O	1.686211	0.222696	0.382176
O49	O	0.936419	-0.443945	-0.367619
O50	O	1.269753	-0.110611	-0.034286
O51	O	1.603086	0.222722	0.299048
C52	C	0.802218	-0.303235	-0.326078
C53	C	1.135551	0.030099	0.007255
C54	C	1.468885	0.363432	0.340589
C55	C	0.726986	-0.303245	-0.326085
C56	C	1.060319	0.030089	0.007249
C57	C	1.393653	0.363422	0.340582
C58	C	0.691640	-0.343556	-0.369292
C59	C	1.024974	-0.010223	-0.035959
C60	C	1.358307	0.323111	0.297375
C61	C	0.620952	-0.343557	-0.369302
C62	C	0.954285	-0.010224	-0.035968
C63	C	1.287619	0.323110	0.297365
C64	C	0.585610	-0.303250	-0.326100
C65	C	0.918944	0.030084	0.007234
C66	C	1.252277	0.363417	0.340567
C67	C	0.620961	-0.262934	-0.282890
C68	C	0.954294	0.070400	0.050443
C69	C	1.287628	0.403733	0.383776
C70	C	0.691648	-0.262930	-0.282885
C71	C	1.024981	0.070403	0.050449
C72	C	1.358315	0.403737	0.383782
C73	C	0.335888	-0.262948	-0.282913
C74	C	0.669221	0.070386	0.050421
C75	C	1.002554	0.403719	0.383754
C76	C	0.265195	-0.262956	-0.282920
C77	C	0.598529	0.070377	0.050413
C78	C	0.931862	0.403711	0.383746
C79	C	0.265192	-0.343575	-0.369330
C80	C	0.598525	-0.010242	-0.035996
C81	C	0.931858	0.323092	0.297337
C82	C	0.335879	-0.343571	-0.369324
C83	C	0.669212	-0.010238	-0.035991
C84	C	1.002545	0.323096	0.297343
C85	C	0.371223	-0.303253	-0.326117
C86	C	0.704556	0.030080	0.007216
C87	C	1.037890	0.363413	0.340549
C88	C	0.447871	-0.303252	-0.326109
C89	C	0.781205	0.030082	0.007225
C90	C	1.114538	0.363415	0.340558
C91	C	0.508963	-0.303254	-0.326105
C92	C	0.842297	0.030079	0.007229
C93	C	1.175630	0.363413	0.340562
C94	C	0.977985	-0.466798	-0.326062
C95	C	1.311319	-0.133465	0.007271
C96	C	1.644652	0.199868	0.340604
C97	C	0.978009	-0.536766	-0.326069
C98	C	1.311343	-0.203433	0.007264
C99	C	1.644676	0.129900	0.340598
C100	C	1.021331	-0.569626	-0.282828
C101	C	1.354664	-0.236293	0.050505
C102	C	1.687997	0.097041	0.383838
C103	C	1.021363	-0.635368	-0.282844
C104	C	1.354696	-0.302035	0.050490
C105	C	1.688029	0.031298	0.383823
C106	C	0.978061	-0.668249	-0.326092
C107	C	1.311394	-0.334916	0.007241
C108	C	1.644727	-0.001582	0.340574
C109	C	0.934736	-0.635381	-0.369341
C110	C	1.268069	-0.302048	-0.036008
C111	C	1.601403	0.031285	0.297325
C112	C	0.934710	-0.569640	-0.369330
C113	C	1.268044	-0.236307	-0.035996
C114	C	1.601377	0.097026	0.297337
N115	N	0.918850	-0.771515	-0.331245
N116	N	1.252183	-0.438181	0.002089
N117	N	1.585517	-0.104848	0.335422
N118	N	0.918876	-0.833966	-0.331252
N119	N	1.252210	-0.500633	0.002081
N120	N	1.585543	-0.167299	0.335415
C121	C	0.978136	-0.866324	-0.326131
C122	C	1.311470	-0.532990	0.007202
C123	C	1.644803	-0.199657	0.340536
N124	N	1.037371	-0.833870	-0.320989
N125	N	1.370704	-0.500537	0.012344
N126	N	1.704037	-0.167204	0.345677
N127	N	1.037343	-0.771413	-0.320979
N128	N	1.370677	-0.438080	0.012354
N129	N	1.704010	-0.104747	0.345688
C130	C	0.978084	-0.739534	-0.326110
C131	C	1.311417	-0.406201	0.007223
C132	C	1.644751	-0.072868	0.340557
C133	C	1.021496	-0.970469	-0.282905
C134	C	1.354829	-0.637135	0.050429
C135	C	1.688163	-0.303802	0.383762
C136	C	1.021529	-1.036212	-0.282925
C137	C	1.354862	-0.702879	0.050409
C138	C	1.688196	-0.369546	0.383742
C139	C	0.934896	-1.036224	-0.369419
C140	C	1.268230	-0.702891	-0.036085
C141	C	1.601563	-0.369557	0.297248
C142	C	0.934869	-0.970482	-0.369402
C143	C	1.268203	-0.637148	-0.036069
C144	C	1.601536	-0.303815	0.297264
C145	C	0.978168	-0.937608	-0.326142
C146	C	1.311502	-0.604275	0.007192
C147	C	1.644835	-0.270941	0.340525
C148	C	1.154617	-0.303259	-0.326122
C149	C	1.487950	0.030074	0.007211
C150	C	1.821283	0.363407	0.340545
C151	C	1.229849	-0.303265	-0.326132
C152	C	1.563182	0.030069	0.007202
C153	C	1.896515	0.363402	0.340535
C154	C	0.978104	-0.303203	-0.502643
C155	C	1.311437	0.030130	-0.169309
C156	C	1.644770	0.363464	0.164024
C157	C	0.978116	-0.303184	-0.577875
C158	C	1.311450	0.030149	-0.244541
C159	C	1.644783	0.363482	0.088792
C160	C	0.978181	-0.139056	-0.326152
C161	C	1.311515	0.194277	0.007181
C162	C	1.644848	0.527610	0.340514
C163	C	0.978227	-0.069088	-0.326175
C164	C	1.311561	0.264245	0.007159
C165	C	1.644894	0.597578	0.340492
C166	C	0.934865	-0.262916	-0.613226
C167	C	1.268198	0.070417	-0.279892
C168	C	1.601531	0.403751	0.053441
C169	C	0.934874	-0.262904	-0.683914
C170	C	1.268207	0.070430	-0.350581
C171	C	1.601541	0.403763	-0.017247
C172	C	0.978139	-0.303157	-0.719250
C173	C	1.311472	0.030176	-0.385917
C174	C	1.644806	0.363509	-0.052584
C175	C	1.021393	-0.343430	-0.683894
C176	C	1.354726	-0.010097	-0.350561
C177	C	1.688059	0.323237	-0.017228
C178	C	1.021379	-0.343445	-0.613207
C179	C	1.354713	-0.010112	-0.279874
C180	C	1.688046	0.323222	0.053460
C181	C	1.021446	-0.343371	-0.968968
C182	C	1.354780	-0.010038	-0.635634
C183	C	1.688113	0.323296	-0.302301
C184	C	1.021458	-0.343352	-1.039660
C185	C	1.354791	-0.010018	-0.706327
C186	C	1.688124	0.323315	-0.372993
C187	C	0.934941	-0.262830	-1.039675
C188	C	1.268274	0.070503	-0.706341
C189	C	1.601607	0.403837	-0.373008
C190	C	0.934928	-0.262845	-0.968988
C191	C	1.268261	0.070488	-0.635654
C192	C	1.601594	0.403822	-0.302321
C193	C	0.978178	-0.303120	-0.933638
C194	C	1.311512	0.030214	-0.600304
C195	C	1.644845	0.363547	-0.266971
C196	C	0.978167	-0.303133	-0.856989
C197	C	1.311500	0.030200	-0.523656
C198	C	1.644834	0.363533	-0.190323
C199	C	0.978154	-0.303141	-0.795897
C200	C	1.311488	0.030192	-0.462564
C201	C	1.644821	0.363526	-0.129231
C202	C	0.978083	-0.303245	-0.150244
C203	C	1.311417	0.030089	0.183090
C204	C	1.644750	0.363422	0.516423
C205	C	0.978202	-0.303086	-0.075012
C206	C	1.311535	0.030247	0.258321
C207	C	1.644869	0.363581	0.591654
H208	H	0.720425	-0.230101	-0.247704
H209	H	1.053759	0.103232	0.085629
H210	H	1.387092	0.436566	0.418962
H211	H	1.056643	-0.662128	-0.247632
H212	H	1.389976	-0.328795	0.085701
H213	H	1.723309	0.004539	0.419035
O214	O	0.586540	-0.382748	-0.411175
O215	O	0.919873	-0.049415	-0.077842
O216	O	1.253206	0.283919	0.255492
C217	C	0.545627	-0.423366	-0.372555
C218	C	0.878961	-0.090033	-0.039222
C219	C	1.212294	0.243301	0.294111
H220	H	0.535033	-0.401098	-0.321309
H221	H	0.868366	-0.067765	0.012025
H222	H	1.201700	0.265568	0.345358
H223	H	0.495925	-0.431838	-0.400110
H224	H	0.829258	-0.098504	-0.066777
H225	H	1.162591	0.234829	0.266557
H226	H	0.572840	-0.470006	-0.365020
H227	H	0.906173	-0.136673	-0.031686
H228	H	1.239507	0.196660	0.301647
H229	H	1.056589	-0.542862	-0.247605
H230	H	1.389922	-0.209529	0.085729
H231	H	1.723256	0.123805	0.419062
H232	H	0.899590	-0.943726	-0.404610
H233	H	1.232923	-0.610392	-0.071277
H234	H	1.566257	-0.277059	0.262057
O235	O	0.892766	-0.667388	-0.411386
O236	O	1.226099	-0.334055	-0.078052
O237	O	1.559432	-0.000721	0.255281
C238	C	0.931289	-0.705344	-0.455154
C239	C	1.264622	-0.372010	-0.121820
C240	C	1.597956	-0.038677	0.211513
H241	H	0.982601	-0.715166	-0.431330
H242	H	1.315935	-0.381832	-0.097997
H243	H	1.649268	-0.048499	0.235336
H244	H	0.903731	-0.751590	-0.464206
H245	H	1.237064	-0.418256	-0.130873
H246	H	1.570398	-0.084923	0.202461
H247	H	0.938685	-0.679969	-0.505316
H248	H	1.272018	-0.346635	-0.171983
H249	H	1.605352	-0.013302	0.161350
O250	O	0.892802	-0.223810	-0.934694
O251	O	1.226135	0.109523	-0.601360
O252	O	1.559469	0.442856	-0.268027
C253	C	0.825338	-0.237551	-0.951968
C254	C	1.158672	0.095783	-0.618634
C255	C	1.492005	0.429116	-0.285301
H256	H	0.821894	-0.287835	-0.971382
H257	H	1.155227	0.045498	-0.638049
H258	H	1.488560	0.378832	-0.304716
H259	H	0.791894	-0.232138	-0.905479
H260	H	1.125227	0.101195	-0.572146
H261	H	1.458560	0.434529	-0.238812
H262	H	0.807674	-0.203791	-0.993008
H263	H	1.141008	0.129542	-0.659674
H264	H	1.474341	0.462876	-0.326341
O265	O	0.892560	-0.537815	-0.411355
O266	O	1.225893	-0.204481	-0.078022
O267	O	1.559226	0.128852	0.255312
C268	C	0.854360	-0.580929	-0.449548
C269	C	1.187694	-0.247596	-0.116215
C270	C	1.521027	0.085737	0.217119
H271	H	0.852053	-0.627814	-0.421834
H272	H	1.185386	-0.294481	-0.088500
H273	H	1.518719	0.038852	0.244833
H274	H	0.801020	-0.561974	-0.456715
H275	H	1.134353	-0.228641	-0.123382
H276	H	1.467686	0.104692	0.209951
H277	H	0.879118	-0.587862	-0.500978
H278	H	1.212451	-0.254529	-0.167644
H279	H	1.545785	0.078804	0.165689
O280	O	0.370182	-0.223852	-0.240844
O281	O	0.703515	0.109482	0.092489
O282	O	1.036848	0.442815	0.425823
C283	C	0.352862	-0.237518	-0.173360
C284	C	0.686195	0.095816	0.159974
C285	C	1.019528	0.429149	0.493307
H286	H	0.333412	-0.287806	-0.169842
H287	H	0.666745	0.045527	0.163492
H288	H	1.000079	0.378860	0.496825
H289	H	0.399336	-0.232044	-0.139925
H290	H	0.732669	0.101290	0.193408
H291	H	1.066002	0.434623	0.526742
H292	H	0.311834	-0.203755	-0.155743
H293	H	0.645168	0.129578	0.177591
H294	H	0.978501	0.462912	0.510924
H295	H	0.899651	-0.230116	-0.712694
H296	H	1.232985	0.103218	-0.379360
H297	H	1.566318	0.436551	-0.046027
O298	O	1.063332	-0.382540	-0.578760
O299	O	1.396665	-0.049207	-0.245427
O300	O	1.729999	0.284127	0.087906
C301	C	1.054054	-0.373912	-0.508793
C302	C	1.387388	-0.040579	-0.175460
C303	C	1.720721	0.292754	0.157873
H304	H	1.001832	-0.353293	-0.499141
H305	H	1.335165	-0.019960	-0.165808
H306	H	1.668498	0.313374	0.167525
H307	H	1.058607	-0.421070	-0.481912
H308	H	1.391941	-0.087737	-0.148579
H309	H	1.725274	0.245596	0.184754
H310	H	1.094221	-0.340398	-0.488749
H311	H	1.427554	-0.007065	-0.155415
H312	H	1.760887	0.326268	0.177918
H313	H	0.899722	-0.230038	-1.068465
H314	H	1.233055	0.103295	-0.735132
H315	H	1.566389	0.436629	-0.401798
O316	O	1.063524	-0.938598	-0.240794
O317	O	1.396857	-0.605265	0.092539
O318	O	1.730191	-0.271932	0.425873
C319	C	1.048771	-0.954712	-0.173323
C320	C	1.382105	-0.621378	0.160010
C321	C	1.715438	-0.288045	0.493343
H322	H	1.022777	-1.002469	-0.171906
H323	H	1.356110	-0.669136	0.161427
H324	H	1.689443	-0.335802	0.494761
H325	H	1.097641	-0.956937	-0.143019
H326	H	1.430974	-0.623604	0.190314
H327	H	1.764307	-0.290271	0.523647
H328	H	1.013969	-0.917760	-0.150486
H329	H	1.347302	-0.584426	0.182847
H330	H	1.680636	-0.251093	0.516181
O331	O	0.230962	-0.382792	-0.411333
O332	O	0.564295	-0.049459	-0.077999
O333	O	0.897628	0.283874	0.255334
C334	C	0.277314	-0.418356	-0.449473
C335	C	0.610648	-0.085022	-0.116139
C336	C	0.943981	0.248311	0.217194
H337	H	0.327688	-0.420502	-0.421736
H338	H	0.661021	-0.087169	-0.088402
H339	H	0.994355	0.246165	0.244931
H340	H	0.256867	-0.467962	-0.456601
H341	H	0.590201	-0.134628	-0.123268
H342	H	0.923534	0.198705	0.210066
H343	H	0.284869	-0.395362	-0.500921
H344	H	0.618202	-0.062029	-0.167588
H345	H	0.951536	0.271304	0.165746
H346	H	1.056691	-0.376133	-1.068429
H347	H	1.390024	-0.042800	-0.735095
H348	H	1.723357	0.290533	-0.401762
O349	O	1.063397	-0.382475	-0.718322
O350	O	1.396731	-0.049141	-0.384989
O351	O	1.730064	0.284192	-0.051656
C352	C	1.054125	-0.373838	-0.788294
C353	C	1.387458	-0.040505	-0.454960
C354	C	1.720791	0.292828	-0.121627
H355	H	1.031993	-0.325254	-0.797963
H356	H	1.365326	0.008080	-0.464630
H357	H	1.698660	0.341413	-0.131297
H358	H	1.104826	-0.378108	-0.815162
H359	H	1.438159	-0.044774	-0.481829
H360	H	1.771493	0.288559	-0.148495
H361	H	1.018058	-0.411169	-0.808336
H362	H	1.351392	-0.077835	-0.475003
H363	H	1.684725	0.255498	-0.141670
H364	H	1.056656	-0.376172	-0.940194
H365	H	1.389990	-0.042839	-0.606861
H366	H	1.723323	0.290494	-0.273528
H367	H	0.236422	-0.230129	-0.247740
H368	H	0.569756	0.103205	0.085593
H369	H	0.903089	0.436538	0.418927
O370	O	0.725864	-0.382731	-0.411323
O371	O	1.059197	-0.049398	-0.077990
O372	O	1.392530	0.283935	0.255343
C373	C	0.679505	-0.418321	-0.449450
C374	C	1.012838	-0.084988	-0.116117
C375	C	1.346172	0.248346	0.217216
H376	H	0.629131	-0.392542	-0.451847
H377	H	0.962464	-0.059209	-0.118514
H378	H	1.295798	0.274125	0.214820
H379	H	0.699944	-0.425097	-0.502764
H380	H	1.033277	-0.091764	-0.169431
H381	H	1.366611	0.241570	0.163902
H382	H	0.671953	-0.466101	-0.424571
H383	H	1.005287	-0.132768	-0.091238
H384	H	1.338620	0.200566	0.242095
O385	O	0.370282	-0.382637	-0.411326
O386	O	0.703616	-0.049304	-0.077993
O387	O	1.036949	0.284030	0.255341
C388	C	0.411190	-0.346843	-0.455120
C389	C	0.744524	-0.013510	-0.121786
C390	C	1.077857	0.319823	0.211547
H391	H	0.421794	-0.299110	-0.431339
H392	H	0.755128	0.034223	-0.098005
H393	H	1.088461	0.367556	0.235328
H394	H	0.460889	-0.372490	-0.464139
H395	H	0.794222	-0.039157	-0.130805
H396	H	1.127555	0.294177	0.202528
H397	H	0.383969	-0.339986	-0.505294
H398	H	0.717302	-0.006653	-0.171960
H399	H	1.050635	0.326681	0.161373
H400	H	0.592180	-0.230112	-0.247718
H401	H	0.925513	0.103221	0.085616
H402	H	1.258847	0.436555	0.418949
H403	H	1.056811	-1.062965	-0.247714
H404	H	1.390144	-0.729632	0.085619
H405	H	1.723477	-0.396299	0.418952
H406	H	0.899642	-1.062995	-0.404636
H407	H	1.232975	-0.729661	-0.071302
H408	H	1.566309	-0.396328	0.262031
H409	H	0.899637	-0.230133	-0.584460
H410	H	1.232970	0.103200	-0.251127
H411	H	1.566304	0.436533	0.082207
