data_functionalizedCrystal
_audit_creation_method	'MofGen! by Chris Wilmer'
_symmetry_space_group_name_H-M	'P1'
_symmetry_Int_Tables_number	1
_symmetry_cell_setting	triclinic
loop_
_symmetry_equiv_pos_as_xyz
  x,y,z
_cell_length_a	15.944551
_cell_length_b	14.853567
_cell_length_c	13.330367
_cell_angle_alpha	90.000844
_cell_angle_beta	89.996937
_cell_angle_gamma	96.433166
loop_
_atom_site_label
_atom_site_type_symbol
_atom_site_fract_x
_atom_site_fract_y
_atom_site_fract_z
O1	O	1.114658	-0.116273	-0.083310
O2	O	0.870124	-0.130608	-0.083334
O3	O	0.998923	0.007798	-0.083325
O4	O	0.985859	-0.254678	-0.083320
O5	O	0.998904	0.007801	0.083522
O6	O	0.870105	-0.130605	0.083513
O7	O	1.114639	-0.116270	0.083537
Cu8	Cu	0.992370	-0.123437	0.098759
Cu9	Cu	0.992392	-0.123441	-0.098557
O10	O	0.985840	-0.254675	0.083527
C11	C	0.838820	-0.130011	0.000086
C12	C	0.745572	-0.128227	0.000077
C13	C	0.998321	0.041387	0.000096
C14	C	0.996547	0.141469	0.000087
N15	N	0.992361	-0.123434	0.237541
C16	C	0.530615	-0.038172	0.000094
C17	C	0.469651	-0.079992	-0.082169
C18	C	0.574842	-0.124999	0.000088
C19	C	0.469654	-0.080010	0.082329
C20	C	0.409926	-0.121875	0.000104
C21	C	0.515106	-0.166843	-0.082243
C22	C	0.515116	-0.166849	0.082329
C23	C	0.454170	-0.208732	0.000045
C24	C	0.669847	-0.126797	0.000078
C25	C	0.314923	-0.120085	0.000107
C26	C	1.145943	-0.116866	0.000114
C27	C	1.239191	-0.118650	0.000117
C28	C	0.986441	-0.288265	0.000104
C29	C	0.988215	-0.388346	0.000107
C30	C	0.912540	0.553895	0.000098
C31	C	1.065556	0.575372	0.000113
C32	C	1.067224	0.481341	0.000107
C33	C	0.991549	0.423582	0.000098
C34	C	0.914206	0.459854	0.000095
C35	C	1.144565	0.445061	0.000120
C36	C	1.146236	0.351024	0.000116
C37	C	1.070560	0.293263	0.000100
C38	C	0.993214	0.329541	0.000096
C39	C	0.917539	0.271782	0.000087
C40	C	0.840192	0.308058	0.000075
C41	C	0.838530	0.402093	0.000079
C42	C	1.072223	0.199228	0.000096
C43	C	0.919205	0.177741	0.000084
N44	N	0.992408	-0.123437	-0.237338
C45	C	0.935358	-0.184703	0.710159
C46	C	1.049450	-0.062172	0.710136
C47	C	1.049440	-0.062169	0.605118
C48	C	0.992389	-0.123435	0.552615
C49	C	0.935348	-0.184704	0.605131
C50	C	1.106486	-0.000907	0.552594
C51	C	1.106479	-0.000903	0.447569
C52	C	1.049424	-0.062165	0.395065
C53	C	0.992380	-0.123436	0.447587
C54	C	0.935329	-0.184702	0.395085
C55	C	0.878280	-0.245969	0.447606
C56	C	0.878293	-0.245966	0.552627
C57	C	1.049411	-0.062168	0.290043
C58	C	0.935320	-0.184703	0.290057
H59	H	0.449507	-0.043269	-0.151719
C60	C	0.542163	-0.216414	-0.176304
H61	H	0.493798	-0.235997	-0.215535
H62	H	0.580158	-0.176399	-0.214760
H63	H	0.569216	-0.267441	-0.156641
H64	H	0.449519	-0.043268	0.151874
C65	C	1.231310	0.311123	0.000125
H66	H	1.221466	0.246847	0.000127
H67	H	1.262482	0.330951	-0.058052
H68	H	1.262462	0.330944	0.058322
H69	H	0.421092	-0.280866	0.000001
H70	H	0.888859	-0.234590	0.247316
H71	H	0.831847	-0.295848	0.595396
C72	C	0.815530	-0.313358	0.389846
H73	H	0.823698	-0.304578	0.319778
H74	H	0.824715	-0.373535	0.407055
H75	H	0.759460	-0.303521	0.407059
H76	H	0.535281	-0.203541	0.151882
H77	H	1.152930	0.048984	0.404813
C78	C	0.872611	-0.252094	0.767925
H79	H	0.880787	-0.243325	0.837993
H80	H	0.816544	-0.242267	0.750721
H81	H	0.881807	-0.312272	0.750711
H82	H	1.135197	0.169696	0.000112
H83	H	0.775558	0.431638	0.000071
H84	H	1.095903	-0.012295	0.752887
H85	H	0.857580	0.130719	0.000072
C86	C	1.169236	0.066477	0.610345
H87	H	1.161064	0.057709	0.680414
H88	H	1.225303	0.056647	0.593129
H89	H	1.160044	0.126657	0.593136
H90	H	0.778578	0.261018	0.000075
H91	H	1.095863	-0.012289	0.247286
H92	H	0.563867	0.033887	-0.000009
H93	H	0.849566	0.583435	0.000085
C94	C	1.148791	0.638903	0.000125
H95	H	1.136722	0.700102	0.000122
H96	H	1.180496	0.627902	0.058308
H97	H	1.180503	0.627910	-0.058066
H98	H	1.206176	0.492094	0.000137
