data_functionalizedCrystal
_audit_creation_method	'MofGen! by Chris Wilmer'
_symmetry_space_group_name_H-M	'P1'
_symmetry_Int_Tables_number	1
_symmetry_cell_setting	triclinic
loop_
_symmetry_equiv_pos_as_xyz
  x,y,z
_cell_length_a	15.298068
_cell_length_b	18.101397
_cell_length_c	15.296720
_cell_angle_alpha	99.641375
_cell_angle_beta	88.354818
_cell_angle_gamma	99.679550
loop_
_atom_site_label
_atom_site_type_symbol
_atom_site_fract_x
_atom_site_fract_y
_atom_site_fract_z
Zn1	Zn	1.253390	-0.220303	-0.727346
Zn2	Zn	1.278658	-0.319761	-0.580869
Zn3	Zn	1.132270	-0.213107	-0.555514
Zn4	Zn	1.106889	-0.361277	-0.701889
O5	O	1.192802	-0.278612	-0.641405
O6	O	1.379317	-0.219133	-0.729181
O7	O	1.280435	-0.285227	-0.454946
O8	O	1.148384	-0.110428	-0.578350
O9	O	1.397881	-0.292205	-0.621565
O10	O	1.237371	-0.115714	-0.704595
O11	O	1.172885	-0.206869	-0.436317
O12	O	1.006328	-0.247125	-0.553665
O13	O	1.105126	-0.362963	-0.827826
O14	O	0.987681	-0.355985	-0.661207
O15	O	1.212760	-0.259389	-0.846529
O16	O	1.255825	-0.428902	-0.596881
O17	O	1.129627	-0.459404	-0.685794
C18	C	0.965222	-0.305280	-0.601923
C19	C	0.867859	-0.316710	-0.585053
C20	C	0.554688	-0.197106	-0.761977
C21	C	0.646165	-0.186370	-0.777831
C22	C	0.701593	-0.218954	-0.729638
C23	C	0.665535	-0.262276	-0.665588
C24	C	0.574049	-0.273018	-0.649736
C25	C	0.720953	-0.294866	-0.617398
C26	C	0.684895	-0.338188	-0.553347
C27	C	0.593418	-0.348928	-0.537498
C28	C	0.537990	-0.316344	-0.585691
C29	C	0.812440	-0.284124	-0.633249
C30	C	0.831800	-0.360036	-0.521008
C31	C	0.740323	-0.370772	-0.505154
C32	C	1.192734	-0.471024	-0.641349
C33	C	1.192780	-0.553335	-0.641369
C34	C	1.192878	-0.852426	-0.641468
C35	C	1.272121	-0.801871	-0.585312
C36	C	1.272324	-0.716254	-0.585529
C37	C	1.192830	-0.704043	-0.641418
C38	C	1.201867	-0.747495	-0.738070
C39	C	1.202453	-0.833017	-0.737791
C40	C	1.104280	-0.827863	-0.601739
C41	C	1.105095	-0.741816	-0.599758
C42	C	1.192800	-0.620184	-0.641395
C43	C	1.192909	-0.936285	-0.641497
C44	C	1.421270	-0.251841	-0.681041
C45	C	1.518630	-0.240432	-0.697932
C46	C	1.153294	-0.316610	-0.869845
C47	C	1.136458	-0.332802	-0.967192
C48	C	1.192890	-0.085449	-0.641484
C49	C	1.192928	-0.003134	-0.641517
C50	C	1.313164	-0.162749	-1.280551
C51	C	1.328987	-0.147537	-1.189089
C52	C	1.280856	-0.193851	-1.133611
C53	C	1.216899	-0.255382	-1.169603
C54	C	1.201078	-0.270600	-1.261075
C55	C	1.168771	-0.301702	-1.114134
C56	C	1.104813	-0.363233	-1.150126
C57	C	1.088995	-0.378447	-1.241589
C58	C	1.137127	-0.332133	-1.297068
C59	C	1.184591	-0.286484	-1.022662
C60	C	1.072506	-0.394335	-1.003186
C61	C	1.056682	-0.409547	-1.094647
C62	C	1.232206	-0.240703	-0.413862
C63	C	1.249212	-0.224282	-0.316544
H64	H	0.876929	-0.386572	-0.481770
C65	C	1.018640	-0.446133	-1.281170
C66	C	1.045676	-0.510300	-1.350606
C67	C	0.975317	-0.577985	-1.390180
C68	C	0.877923	-0.581503	-1.360318
C69	C	0.850883	-0.517333	-1.290879
C70	C	0.921242	-0.449648	-1.251305
H71	H	1.117777	-0.507698	-1.372714
H72	H	0.995335	-0.625488	-1.441583
H73	H	0.825840	-0.631608	-1.389613
H74	H	0.778782	-0.519935	-1.268770
H75	H	0.901224	-0.402146	-1.199902
H76	H	1.338277	-0.690267	-0.613086
H77	H	0.564062	-0.384210	-0.485350
C78	C	1.022810	-0.731665	-0.649284
C79	C	0.958795	-0.801865	-0.694059
C80	C	0.876523	-0.791731	-0.743624
C81	C	0.858265	-0.711397	-0.748414
C82	C	0.922282	-0.641191	-0.703638
C83	C	1.004554	-0.651325	-0.654072
H84	H	0.972309	-0.861338	-0.690515
H85	H	0.829133	-0.843702	-0.776771
H86	H	0.797363	-0.703895	-0.785105
H87	H	0.908769	-0.581718	-0.707182
H88	H	1.051944	-0.599354	-0.620926
H89	H	0.710952	-0.406046	-0.453004
C90	C	0.685825	-0.138730	-0.848293
C91	C	0.786448	-0.126926	-0.865744
C92	C	0.826107	-0.079288	-0.936215
C93	C	0.765144	-0.043454	-0.989235
C94	C	0.664514	-0.055257	-0.971785
C95	C	0.624855	-0.102895	-0.901314
H96	H	0.831582	-0.153454	-0.826494
H97	H	0.900600	-0.070552	-0.949133
H98	H	0.794502	-0.008190	-1.041402
H99	H	0.619380	-0.028729	-1.011035
H100	H	0.550362	-0.111631	-0.888397
H101	H	0.776077	-0.210207	-0.742548
H102	H	1.033315	-0.432049	-0.958015
H103	H	1.381064	-0.097440	-1.159792
H104	H	0.841789	-0.248849	-0.685399
H105	H	0.509551	-0.170587	-0.801214
H106	H	1.268523	-0.685725	-0.514365
C107	C	1.289300	-0.853708	-0.780724
C108	C	1.357638	-0.792449	-0.815025
C109	C	1.444488	-0.813135	-0.857957
C110	C	1.463000	-0.895080	-0.866589
C111	C	1.394660	-0.956345	-0.832287
C112	C	1.307810	-0.935658	-0.789355
H113	H	1.343935	-0.731784	-0.808636
H114	H	1.495077	-0.767783	-0.883350
H115	H	1.527292	-0.910393	-0.898369
H116	H	1.408363	-1.017010	-0.838675
H117	H	1.257221	-0.981011	-0.763962
H118	H	1.268544	-0.812890	-0.513977
H119	H	1.146391	-0.867968	-0.781943
H120	H	1.337729	-0.817909	-0.612625
C121	C	0.986340	-0.477238	-1.134242
C122	C	0.888939	-0.480778	-1.104399
C123	C	0.818600	-0.548471	-1.143992
C124	C	0.845662	-0.612625	-1.213429
C125	C	0.943068	-0.609088	-1.243276
C126	C	1.013407	-0.541394	-1.203683
H127	H	0.868902	-0.433285	-1.052994
H128	H	0.746494	-0.551089	-1.121896
H129	H	0.793593	-0.662735	-1.242738
H130	H	0.963105	-0.656580	-1.294681
H131	H	1.085513	-0.538776	-1.225778
H132	H	0.463500	-0.325089	-0.572791
C133	C	1.125348	-0.739224	-0.797055
C134	C	1.062231	-0.810333	-0.841056
C135	C	0.985712	-0.802061	-0.900039
C136	C	0.972310	-0.722678	-0.915020
C137	C	1.035430	-0.651563	-0.871017
C138	C	1.111949	-0.659835	-0.812035
H139	H	1.072150	-0.869102	-0.829968
H140	H	0.938987	-0.854705	-0.932613
H141	H	0.915666	-0.716554	-0.958682
H142	H	1.025511	-0.592794	-0.882106
H143	H	1.158674	-0.607191	-0.779461
C144	C	1.287611	-0.712423	-0.781296
C145	C	1.349475	-0.644417	-0.729076
C146	C	1.435222	-0.609346	-0.772297
C147	C	1.459105	-0.642281	-0.867738
C148	C	1.397239	-0.710290	-0.919964
C149	C	1.311492	-0.745361	-0.876743
H150	H	1.331797	-0.620034	-0.658420
H151	H	1.481019	-0.559001	-0.733635
H152	H	1.522580	-0.616319	-0.899732
H153	H	1.414917	-0.734674	-0.990620
H154	H	1.265695	-0.795706	-0.915405
H155	H	1.092971	-0.841173	-0.531645
C156	C	1.024780	-0.874333	-0.656718
C157	C	1.040121	-0.934273	-0.737257
C158	C	0.960629	-0.980747	-0.792239
C159	C	0.865796	-0.967281	-0.766681
C160	C	0.850451	-0.907337	-0.686138
C161	C	0.929943	-0.860863	-0.631157
H162	H	1.110325	-0.944245	-0.756179
H163	H	0.971989	-1.025122	-0.851862
H164	H	0.806951	-1.001684	-0.807382
H165	H	0.780247	-0.897366	-0.667216
H166	H	0.918583	-0.816489	-0.571533
H167	H	1.097991	-0.712453	-0.528551
H168	H	1.236665	-0.236385	-0.993367
H169	H	1.293744	-0.181461	-1.059139
H170	H	1.352350	-0.125050	-1.325730
H171	H	1.124247	-0.344516	-1.371544
