data_functionalizedCrystal
_audit_creation_method	'MofGen! by Chris Wilmer'
_symmetry_space_group_name_H-M	'P1'
_symmetry_Int_Tables_number	1
_symmetry_cell_setting	triclinic
loop_
_symmetry_equiv_pos_as_xyz
  x,y,z
_cell_length_a	17.917559
_cell_length_b	23.196402
_cell_length_c	23.196401
_cell_angle_alpha	60.008822
_cell_angle_beta	90.012927
_cell_angle_gamma	57.010822
loop_
_atom_site_label
_atom_site_type_symbol
_atom_site_fract_x
_atom_site_fract_y
_atom_site_fract_z
Zr1	Zr	0.754926	0.577908	-0.049086
O2	O	0.629773	0.706976	-0.145533
O3	O	0.793289	0.454945	-0.019524
O4	O	0.793254	0.575214	-0.139790
O5	O	0.629838	0.586703	0.069606
O6	O	0.922215	0.566145	-0.135256
O7	O	0.629807	0.586707	-0.025266
O8	O	0.922277	0.351005	0.079879
O9	O	0.629776	0.801843	-0.145528
O10	O	0.905896	0.496492	-0.003528
O11	O	0.809677	0.503258	0.063891
O12	O	0.809636	0.644860	-0.077707
O13	O	0.713417	0.651625	-0.010289
Zr14	Zr	0.960652	0.563438	0.109456
Zr15	Zr	0.960603	0.563444	-0.041855
Zr16	Zr	0.754975	0.577902	0.102225
Zr17	Zr	0.754931	0.729210	-0.049079
Zr18	Zr	0.960647	0.412136	0.109449
O19	O	0.922289	0.686402	0.079893
O20	O	0.922219	0.686410	-0.135251
O21	O	0.629843	0.706968	0.069612
O22	O	1.085806	0.434370	0.205902
O23	O	1.085736	0.434378	-0.009242
O24	O	0.793359	0.454936	0.195621
O25	O	1.085740	0.554643	-0.009237
O26	O	0.922324	0.566132	0.200160
O27	O	0.793363	0.575201	0.195626
O28	O	1.085771	0.554639	0.085636
O29	O	0.793262	0.790346	-0.139781
O30	O	0.922316	0.351000	0.200150
O31	O	1.085802	0.339503	0.205898
O32	O	1.085763	0.339507	0.085626
O33	O	0.629815	0.801839	-0.025257
O34	O	0.793301	0.790342	-0.019509
O35	O	0.905942	0.496487	0.138077
O36	O	1.002161	0.489721	0.070658
O37	O	0.905901	0.638089	-0.003521
O38	O	0.809682	0.644854	0.063897
C39	C	0.857782	0.381417	0.030176
C40	C	0.857780	0.317186	0.030174
C41	C	0.907998	0.283484	-0.005021
C42	C	0.908008	0.223122	-0.005015
C43	C	0.857779	0.196477	0.030176
C44	C	0.807559	0.230183	0.065378
C45	C	0.807559	0.290537	0.065377
C46	C	0.773629	0.140366	0.021942
C47	C	0.773626	0.080017	0.021938
C48	C	0.857781	0.010323	0.030183
C49	C	0.941937	0.000992	0.038417
C50	C	0.941937	0.061346	0.038416
C51	C	0.857774	0.131034	0.030181
C52	C	0.908014	-0.088831	-0.005007
C53	C	0.908026	-0.149198	-0.004996
C54	C	0.807568	-0.142129	0.065392
C55	C	0.807565	-0.081770	0.065386
C56	C	0.857786	-0.055122	0.030183
C57	C	0.600518	0.588766	0.021140
C58	C	0.513203	0.594906	0.018070
C59	C	0.362218	0.535233	0.047904
C60	C	0.353368	0.606109	0.012468
C61	C	0.442309	0.599874	0.015586
C62	C	0.273270	0.541467	0.044786
C63	C	1.115060	0.552580	0.039230
C64	C	1.202376	0.546440	0.042300
C65	C	0.857728	0.570680	-0.159082
C66	C	0.857707	0.570683	-0.223317
C67	C	0.857796	0.759929	0.030193
C68	C	0.857799	0.824160	0.030196
C69	C	0.807465	0.648126	-0.292211
C70	C	0.807489	0.648126	-0.352565
C71	C	0.857742	0.570678	-0.344022
C72	C	0.907995	0.493224	-0.275116
C73	C	0.907977	0.493226	-0.214763
C74	C	0.850604	0.514552	-0.411593
C75	C	0.850615	0.514554	-0.471946
C76	C	0.857803	0.570668	-0.530168
C77	C	0.864961	0.626796	-0.528036
C78	C	0.864943	0.626798	-0.467684
C79	C	0.857768	0.570667	-0.409460
C80	C	0.807585	0.648116	-0.664507
C81	C	0.807616	0.648112	-0.724861
C82	C	0.908116	0.493208	-0.647410
C83	C	0.908091	0.493214	-0.587058
C84	C	0.857821	0.570671	-0.595612
C85	C	0.857851	0.570666	0.219451
C86	C	0.857872	0.570663	0.283687
C87	C	1.115053	0.363325	0.039221
C88	C	1.202366	0.292952	0.042288
C89	C	0.857844	0.381410	0.219443
C90	C	0.857862	0.317176	0.283676
C91	C	1.115115	0.363317	0.228488
C92	C	1.202449	0.292943	0.295790
C93	C	0.600463	0.778029	-0.168118
C94	C	0.513130	0.848404	-0.235421
C95	C	0.600525	0.778022	0.021148
C96	C	0.513212	0.848394	0.018081
C97	C	0.857735	0.759936	-0.159073
C98	C	0.857716	0.824170	-0.223306
C99	C	1.193120	0.263439	0.004998
C100	C	1.275152	0.197326	0.007865
C101	C	1.366429	0.160723	0.048028
C102	C	1.375674	0.190242	0.085319
C103	C	1.293642	0.256358	0.082447
C104	C	0.908120	0.283477	0.352570
C105	C	0.908134	0.223130	0.412929
C106	C	0.857895	0.196480	0.404392
C107	C	0.807630	0.230186	0.335490
C108	C	0.807612	0.290536	0.275132
C109	C	1.293695	0.256362	0.292205
C110	C	1.375763	0.190245	0.355437
C111	C	1.366581	0.160706	0.422254
C112	C	1.275325	0.197294	0.425838
C113	C	1.193259	0.263413	0.362606
C114	C	0.421883	0.884992	-0.231835
C115	C	0.339815	0.951127	-0.295067
C116	C	0.348997	0.980669	-0.361884
C117	C	0.440253	0.944078	-0.365468
C118	C	0.522319	0.877948	-0.302237
C119	C	0.522458	0.877913	0.055365
C120	C	0.440426	0.944043	0.052481
C121	C	0.349149	0.980648	0.012317
C122	C	0.339905	0.951126	-0.024972
C123	C	0.421936	0.885002	-0.022091
C124	C	0.907965	0.850800	-0.214746
C125	C	0.907966	0.911146	-0.275092
C126	C	0.857713	0.944865	-0.343999
C127	C	0.807462	0.918229	-0.352558
C128	C	0.807467	0.857880	-0.292212
H129	H	1.010467	-0.055761	0.045139
N130	N	1.303622	0.288184	0.122673
H131	H	1.373895	0.254958	0.148550
H132	H	1.271793	0.279910	0.158714
N133	N	1.265157	0.165496	-0.032354
H134	H	1.296967	0.102675	0.002655
H135	H	1.296913	0.173829	-0.068440
H136	H	1.433216	0.106887	0.050361
N137	N	0.411944	0.853165	-0.062301
H138	H	0.443741	0.790347	-0.027289
H139	H	0.443711	0.861484	-0.098381
H140	H	1.450002	0.160430	0.118018
N141	N	1.094679	0.302909	-0.038323
H142	H	1.058414	0.294948	-0.005701
H143	H	1.101368	0.274151	-0.061503
N144	N	0.842856	0.454022	-0.348795
H145	H	0.838316	0.418472	-0.359305
H146	H	0.783558	0.488038	-0.340774
N147	N	0.962313	0.312210	0.361789
H148	H	0.994146	0.281701	0.414596
H149	H	0.916178	0.376040	0.336735
H150	H	1.267863	0.173234	0.480249
H151	H	0.857716	0.994004	-0.393131
H152	H	0.447718	0.968139	-0.419878
H153	H	0.436586	0.469877	0.080580
H154	H	1.118965	0.293190	0.365536
N155	N	0.260473	1.051988	-0.430077
H156	H	0.260415	1.030991	-0.459129
H157	H	0.260464	1.102054	-0.459075
H158	H	0.949068	0.195694	0.469027
N159	N	0.753419	0.326863	0.200827
H160	H	0.761026	0.369137	0.163880
H161	H	0.683162	0.356796	0.192767
H162	H	0.278994	0.671471	-0.020216
N163	N	0.260673	1.051958	0.009222
H164	H	0.221163	1.104824	-0.042216
H165	H	0.280462	1.065025	0.038976
H166	H	0.414388	0.860943	-0.177435
H167	H	1.301190	0.280402	0.237805
H168	H	0.596773	0.848114	0.088076
N169	N	0.753259	0.731664	-0.301434
H170	H	0.721438	0.780725	-0.354241
H171	H	0.799387	0.731636	-0.276368
H172	H	0.265576	0.980940	-0.057673
H173	H	0.766574	0.711192	-0.408669
N174	N	0.241397	0.990584	-0.291192
H175	H	0.248041	0.961824	-0.239268
H176	H	0.205154	0.982636	-0.315901
N177	N	0.872668	0.687327	-0.465379
H178	H	0.877224	0.722877	-0.511417
H179	H	0.931952	0.653309	-0.423318
H180	H	0.596614	0.848158	-0.305165
H181	H	0.857918	0.147339	0.453545
N182	N	0.962271	0.409681	-0.512750
H183	H	0.916187	0.409628	-0.487698
H184	H	1.012821	0.402876	-0.484324
N185	N	0.962153	0.939877	-0.265849
H186	H	0.954534	0.983222	-0.314530
H187	H	1.032413	0.888839	-0.236681
N188	N	1.474181	0.150790	0.351562
H189	H	1.467537	0.179533	0.299638
H190	H	1.510420	0.087656	0.376267
H191	H	0.948910	-0.067136	-0.033669
H192	H	0.870809	0.672492	-0.575443
H193	H	0.766653	0.711186	-0.671473
N194	N	0.962170	0.814441	-0.140430
H195	H	0.994002	0.840473	-0.144174
H196	H	1.012678	0.750304	-0.112006
N197	N	0.450409	0.975875	0.092703
H198	H	0.520682	0.942642	0.118588
H199	H	0.418568	0.967616	0.128737
H200	H	0.948926	-0.176642	-0.033652
H201	H	0.766547	0.945692	-0.408670
N202	N	0.753265	0.829162	-0.301450
H203	H	0.721431	0.859685	-0.354260
H204	H	0.702759	0.843223	-0.279801
H205	H	0.948894	0.305177	-0.033684
H206	H	0.766727	0.208479	0.328549
H207	H	1.433412	0.106867	0.473735
H208	H	0.766662	0.317978	0.094037
H209	H	1.010461	0.053745	0.045123
N210	N	0.962166	0.186762	-0.042978
H211	H	1.032453	0.156779	-0.021131
H212	H	0.935714	0.234704	-0.095600
N213	N	0.753400	-0.170866	0.103356
H214	H	0.761022	-0.214217	0.098019
H215	H	0.683139	-0.119834	0.081483
N216	N	0.753446	0.731654	-0.799165
H217	H	0.683158	0.768920	-0.807314
H218	H	0.761161	0.719845	-0.836065
N219	N	0.753400	-0.045416	0.103346
H220	H	0.721582	-0.071454	0.125642
H221	H	0.702884	0.018721	0.067639
H222	H	0.705090	0.197123	0.015214
N223	N	0.682865	0.090074	0.013088
H224	H	0.630981	0.146142	-0.034415
H225	H	0.661271	0.089512	0.053453
H226	H	0.949034	0.430149	-0.640452
H227	H	0.844781	0.468854	-0.473677
N228	N	0.753389	0.201444	0.103339
H229	H	0.761008	0.158097	0.097998
H230	H	0.683129	0.252476	0.081468
H231	H	0.948913	0.430166	-0.268163
N232	N	0.962171	0.409694	-0.140450
H233	H	0.994014	0.360629	-0.144192
H234	H	0.916034	0.409718	-0.115438
