data_functionalizedCrystal
_audit_creation_method	'MofGen! by Chris Wilmer'
_symmetry_space_group_name_H-M	'P1'
_symmetry_Int_Tables_number	1
_symmetry_cell_setting	triclinic
loop_
_symmetry_equiv_pos_as_xyz
  x,y,z
_cell_length_a	10.686220
_cell_length_b	13.897448
_cell_length_c	10.685314
_cell_angle_alpha	94.334330
_cell_angle_beta	98.357559
_cell_angle_gamma	94.399460
loop_
_atom_site_label
_atom_site_type_symbol
_atom_site_fract_x
_atom_site_fract_y
_atom_site_fract_z
Zn1	Zn	1.885474	-0.306580	-0.569001
Zn2	Zn	2.218808	0.026753	-0.235668
Zn3	Zn	2.552141	0.360086	0.097665
Zn4	Zn	1.901609	-0.454532	-0.356765
Zn5	Zn	2.234942	-0.121198	-0.023432
Zn6	Zn	2.568276	0.212135	0.309902
Zn7	Zn	1.689484	-0.306660	-0.373036
Zn8	Zn	2.022818	0.026673	-0.039703
Zn9	Zn	2.356151	0.360007	0.293630
Zn10	Zn	1.673193	-0.481248	-0.585202
Zn11	Zn	2.006526	-0.147915	-0.251869
Zn12	Zn	2.339859	0.185419	0.081465
O13	O	1.787440	-0.387255	-0.471001
O14	O	2.120773	-0.053922	-0.137668
O15	O	2.454107	0.279412	0.195666
O16	O	2.065230	-0.314992	-0.527258
O17	O	2.398563	0.018341	-0.193924
O18	O	2.731897	0.351675	0.139409
O19	O	1.887041	-0.423768	-0.181310
O20	O	2.220374	-0.090435	0.152024
O21	O	2.553708	0.242898	0.485357
O22	O	1.715549	-0.171666	-0.399061
O23	O	2.048882	0.161668	-0.065728
O24	O	2.382215	0.495001	0.267606
O25	O	2.077084	-0.423691	-0.371329
O26	O	2.410418	-0.090358	-0.037995
O27	O	2.743751	0.242975	0.295338
O28	O	1.859542	-0.171607	-0.543035
O29	O	2.192875	0.161726	-0.209702
O30	O	2.526208	0.495060	0.123631
O31	O	1.731194	-0.315128	-0.193264
O32	O	2.064527	0.018206	0.140069
O33	O	2.397861	0.351539	0.473402
O34	O	1.509708	-0.341034	-0.414770
O35	O	1.843041	-0.007700	-0.081437
O36	O	2.176374	0.325633	0.251896
O37	O	1.687781	-0.469226	-0.760667
O38	O	2.021115	-0.135892	-0.427333
O39	O	2.354448	0.197441	-0.094000
O40	O	1.497738	-0.469303	-0.570648
O41	O	1.831072	-0.135969	-0.237314
O42	O	2.164405	0.197364	0.096019
O43	O	1.843744	-0.340898	-0.748764
O44	O	2.177077	-0.007565	-0.415431
O45	O	2.510411	0.325769	-0.082097
O46	O	1.871243	-0.593059	-0.387038
O47	O	2.204577	-0.259726	-0.053705
O48	O	2.537910	0.073607	0.279628
O49	O	1.703427	-0.612688	-0.554870
O50	O	2.036760	-0.279354	-0.221537
O51	O	2.370093	0.053979	0.111797
C52	C	1.457669	-0.408077	-0.496233
C53	C	1.791003	-0.074743	-0.162900
C54	C	2.124336	0.258590	0.170433
C55	C	1.316589	-0.417009	-0.507058
C56	C	1.649923	-0.083676	-0.173725
C57	C	1.983256	0.249657	0.159609
C58	C	1.787350	-0.637873	-0.470972
C59	C	2.120684	-0.304540	-0.137638
C60	C	2.454017	0.028794	0.195695
C61	C	1.787425	-0.745084	-0.470992
C62	C	2.120758	-0.411750	-0.137659
C63	C	2.454091	-0.078417	0.195674
C64	C	1.787552	-0.941375	-0.471062
C65	C	2.120885	-0.608042	-0.137728
C66	C	2.454219	-0.274709	0.195605
C67	C	1.787477	-0.832145	-0.471027
C68	C	2.120811	-0.498812	-0.137694
C69	C	2.454144	-0.165478	0.195639
C70	C	2.118499	-0.366353	-0.445671
C71	C	2.451832	-0.033019	-0.112338
C72	C	2.785165	0.300314	0.220996
C73	C	2.259576	-0.357445	-0.434877
C74	C	2.592909	-0.024112	-0.101544
C75	C	2.926243	0.309221	0.231790
C76	C	1.762146	-0.408033	-0.802056
C77	C	2.095479	-0.074700	-0.468723
C78	C	2.428812	0.258634	-0.135390
C79	C	1.751367	-0.416887	-0.943132
C80	C	2.084700	-0.083554	-0.609799
C81	C	2.418033	0.249779	-0.276466
C82	C	1.787563	-0.135658	-0.471056
C83	C	2.120896	0.197675	-0.137723
C84	C	2.454229	0.531009	0.195611
C85	C	1.787615	-0.028442	-0.471079
C86	C	2.120948	0.304891	-0.137746
C87	C	2.454282	0.638224	0.195587
C88	C	1.812709	-0.366483	-0.141228
C89	C	2.146043	-0.033150	0.192105
C90	C	2.479376	0.300183	0.525438
C91	C	1.823734	-0.357342	-0.000134
C92	C	2.157067	-0.024008	0.333199
C93	C	2.490401	0.309325	0.666532
H94	H	1.318695	-0.299617	-0.364797
H95	H	1.652028	0.033717	-0.031464
H96	H	1.985361	0.367050	0.301869
Br97	Br	1.218055	-0.513416	-0.623854
Br98	Br	1.551389	-0.180082	-0.290521
Br99	Br	1.884722	0.153251	0.042812
Br100	Br	1.940728	-0.261063	-0.901594
Br101	Br	2.274061	0.072270	-0.568261
Br102	Br	2.607395	0.405604	-0.234927
H103	H	1.681157	-0.474643	-1.002265
H104	H	2.014490	-0.141310	-0.668931
H105	H	2.347823	0.192023	-0.335598
