data_functionalizedCrystal
_audit_creation_method	'MofGen! by Chris Wilmer'
_symmetry_space_group_name_H-M	'P1'
_symmetry_Int_Tables_number	1
_symmetry_cell_setting	triclinic
loop_
_symmetry_equiv_pos_as_xyz
  x,y,z
_cell_length_a	14.519709
_cell_length_b	14.519709
_cell_length_c	10.268362
_cell_angle_alpha	89.993769
_cell_angle_beta	90.001032
_cell_angle_gamma	83.680145
loop_
_atom_site_label
_atom_site_type_symbol
_atom_site_fract_x
_atom_site_fract_y
_atom_site_fract_z
O1	O	1.223868	0.120892	-0.108133
O2	O	1.723868	0.620892	0.391867
O3	O	0.955391	0.135128	-0.108174
O4	O	1.455391	0.635128	0.391826
O5	O	1.096747	-0.006228	-0.108141
O6	O	1.596747	0.493772	0.391859
O7	O	1.082511	0.262249	-0.108166
O8	O	1.582511	0.762249	0.391834
O9	O	1.096735	-0.006234	0.108460
O10	O	1.596735	0.493766	0.608460
O11	O	0.955378	0.135123	0.108427
O12	O	1.455378	0.635123	0.608427
O13	O	1.223855	0.120886	0.108467
O14	O	1.723855	0.620886	0.608467
Cu15	Cu	1.089616	0.128004	0.128224
Cu16	Cu	1.589616	0.628004	0.628224
Cu17	Cu	1.089630	0.128011	-0.127931
Cu18	Cu	1.589630	0.628011	0.372069
O19	O	1.082498	0.262243	0.108434
O20	O	1.582498	0.762243	0.608434
C21	C	0.921025	0.134462	0.000122
C22	C	1.421025	0.634462	0.500122
C23	C	0.818643	0.132474	0.000107
C24	C	1.318643	0.632474	0.500107
C25	C	0.443748	0.125154	0.000167
C26	C	0.943748	0.625154	0.500167
C27	C	0.548056	0.127187	0.000150
C28	C	1.048056	0.627187	0.500150
C29	C	0.631192	0.128814	0.000135
C30	C	1.131192	0.628814	0.500135
C31	C	0.735507	0.130847	0.000121
C32	C	1.235507	0.630847	0.500121
C33	C	1.096078	-0.040591	0.000160
C34	C	1.596078	0.459409	0.500160
C35	C	1.094090	-0.142972	0.000160
C36	C	1.594090	0.357028	0.500160
C37	C	1.086770	-0.517868	0.000125
C38	C	1.586770	-0.017868	0.500125
C39	C	1.088803	-0.413560	0.000135
C40	C	1.588803	0.086440	0.500135
C41	C	1.090430	-0.330423	0.000144
C42	C	1.590430	0.169577	0.500144
C43	C	1.092463	-0.226109	0.000152
C44	C	1.592463	0.273891	0.500152
C45	C	1.258221	0.121553	0.000169
C46	C	1.758221	0.621553	0.500169
C47	C	1.360602	0.123541	0.000175
C48	C	1.860602	0.623541	0.500175
C49	C	1.083168	0.296605	0.000131
C50	C	1.583168	0.796605	0.500131
C51	C	1.085156	0.398987	0.000122
C52	C	1.585156	0.898987	0.500122
N53	N	1.089612	0.127998	0.308390
N54	N	1.589612	0.627998	0.808390
N55	N	1.089641	0.128009	-0.308097
N56	N	1.589641	0.628009	0.191903
C57	C	1.089626	0.128009	0.574061
C58	C	1.589626	0.628009	1.074061
C59	C	1.089615	0.128006	0.426223
C60	C	1.589615	0.628006	0.926223
