data_functionalizedCrystal
_audit_creation_method	'MofGen! by Chris Wilmer'
_symmetry_space_group_name_H-M	'P1'
_symmetry_Int_Tables_number	1
_symmetry_cell_setting	triclinic
loop_
_symmetry_equiv_pos_as_xyz
  x,y,z
_cell_length_a	12.759395
_cell_length_b	12.759394
_cell_length_c	14.908854
_cell_angle_alpha	86.675367
_cell_angle_beta	93.280132
_cell_angle_gamma	90.014617
loop_
_atom_site_label
_atom_site_type_symbol
_atom_site_fract_x
_atom_site_fract_y
_atom_site_fract_z
Zn1	Zn	1.571963	-0.383945	-0.510078
Zn2	Zn	1.582004	-0.569789	-0.359227
Zn3	Zn	1.406408	-0.394127	-0.359238
Zn4	Zn	1.396259	-0.559587	-0.510044
O5	O	1.489159	-0.476862	-0.434647
O6	O	1.720316	-0.408606	-0.490077
O7	O	1.567160	-0.555018	-0.232985
O8	O	1.428415	-0.245754	-0.379266
O9	O	1.727692	-0.545145	-0.379248
O10	O	1.550048	-0.238273	-0.490087
O11	O	1.438151	-0.425960	-0.232993
O12	O	1.258041	-0.416067	-0.379233
O13	O	1.411117	-0.527757	-0.636292
O14	O	1.250585	-0.537630	-0.490029
O15	O	1.540206	-0.398713	-0.636317
O16	O	1.557319	-0.715458	-0.379215
O17	O	1.420853	-0.707963	-0.490019
C18	C	1.216192	-0.476847	-0.434629
C19	C	1.099415	-0.476864	-0.434643
C20	C	0.872284	-0.334911	-0.550266
C21	C	0.923304	-0.263915	-0.608051
C22	C	1.033027	-0.263898	-0.608036
C23	C	1.091732	-0.334887	-0.550230
C24	C	1.040712	-0.405884	-0.492444
C25	C	0.930987	-0.405891	-0.492464
C26	C	1.048395	-0.547861	-0.376857
C27	C	0.938672	-0.547875	-0.376867
C28	C	1.107100	-0.618851	-0.319052
C29	C	1.056080	-0.689844	-0.261260
C30	C	0.946351	-0.689857	-0.261277
C31	C	0.887652	-0.618871	-0.319081
C32	C	1.489101	-0.749830	-0.434632
C33	C	1.489171	-0.866606	-0.434656
C34	C	1.615720	-0.858652	-0.550140
C35	C	1.679028	-0.909536	-0.607890
C36	C	1.679089	-1.019256	-0.607909
C37	C	1.615834	-1.078095	-0.550175
C38	C	1.552526	-1.027212	-0.492426
C39	C	1.552474	-0.917489	-0.492411
C40	C	1.425972	-1.035165	-0.376947
C41	C	1.425915	-0.925445	-0.376922
C42	C	1.362717	-1.094004	-0.319213
C43	C	1.299413	-1.043121	-0.261458
C44	C	1.299356	-0.933394	-0.261440
C45	C	1.362608	-0.874561	-0.319173
C46	C	1.763191	-0.476878	-0.434665
C47	C	1.879967	-0.476885	-0.434673
C48	C	1.473409	-0.460961	-0.669954
C49	C	1.466698	-0.454185	-0.770228
C50	C	1.489243	-0.202826	-0.434681
C51	C	1.489280	-0.086049	-0.434696
C52	C	1.588449	-0.575838	-0.958647
C53	C	1.582146	-0.569475	-1.052863
C54	C	1.447797	-0.435091	-1.052878
C55	C	1.454099	-0.441454	-0.958662
C56	C	1.524426	-0.511831	-0.911549
C57	C	1.530723	-0.518199	-0.817331
C58	C	1.396380	-0.383810	-0.817348
C59	C	1.390077	-0.377447	-0.911565
C60	C	1.504907	-0.492625	-0.200255
C61	C	1.511822	-0.499105	-0.099982
H62	H	0.782943	-0.334897	-0.550265
Br63	Br	1.294643	-0.281936	-0.975511
H64	H	0.798311	-0.618863	-0.319090
H65	H	1.344247	-0.331692	-0.778992
Br66	Br	1.765000	-1.088317	-0.686288
H67	H	1.196441	-0.618838	-0.319048
H68	H	1.730528	-0.861619	-0.654898
Br69	Br	1.616091	-1.227012	-0.550062
H70	H	0.875494	-0.206118	-0.655117
Br71	Br	1.362965	-1.242921	-0.319103
H72	H	1.074566	-0.206087	-0.655091
H73	H	1.181073	-0.334876	-0.550231
H74	H	1.587992	-0.575499	-0.778974
H75	H	1.645716	-0.633138	-0.920287
H76	H	1.103886	-0.747643	-0.214204
Br77	Br	1.615628	-0.709744	-0.550129
H78	H	0.904817	-0.747676	-0.214225
H79	H	1.390546	-0.377787	-1.091253
Br80	Br	1.213562	-1.122977	-0.183124
Br81	Br	1.669042	-0.656340	-1.116779
Br82	Br	1.213425	-0.864347	-0.183069
H83	H	1.362572	-0.785221	-0.319160
