data_functionalizedCrystal
_audit_creation_method	'MofGen! by Chris Wilmer'
_symmetry_space_group_name_H-M	'P1'
_symmetry_Int_Tables_number	1
_symmetry_cell_setting	triclinic
loop_
_symmetry_equiv_pos_as_xyz
  x,y,z
_cell_length_a	19.851628
_cell_length_b	17.052863
_cell_length_c	17.052862
_cell_angle_alpha	61.492812
_cell_angle_beta	89.998666
_cell_angle_gamma	70.267605
loop_
_atom_site_label
_atom_site_type_symbol
_atom_site_fract_x
_atom_site_fract_y
_atom_site_fract_z
Zr1	Zr	0.780679	0.816784	-0.200531
O2	O	0.706289	0.944670	-0.328655
O3	O	0.787106	0.666062	-0.146339
O4	O	0.823200	0.783870	-0.307155
O5	O	0.660353	0.860788	-0.057950
O6	O	0.934052	0.783883	-0.307164
O7	O	0.670195	0.826862	-0.167838
O8	O	0.869486	0.573145	-0.019492
O9	O	0.724919	1.071526	-0.345622
O10	O	0.892361	0.736523	-0.141253
O11	O	0.802289	0.761832	-0.059239
O12	O	0.844785	0.900536	-0.248580
O13	O	0.754713	0.925845	-0.166565
Zr14	Zr	0.941778	0.870912	-0.025285
Zr15	Zr	0.957474	0.816804	-0.200544
Zr16	Zr	0.764982	0.870892	-0.025272
Zr17	Zr	0.810391	1.019103	-0.227592
Zr18	Zr	0.912065	0.668593	0.001775
O19	O	0.935350	1.021635	-0.079478
O20	O	0.957669	0.944700	-0.328673
O21	O	0.683970	1.021605	-0.079459
O22	O	1.016167	0.743026	0.102839
O23	O	1.038486	0.666091	-0.146357
O24	O	0.764787	0.742996	0.102857
O25	O	1.062104	0.826908	-0.167866
O26	O	0.899256	0.903826	0.081339
O27	O	0.788405	0.903813	0.081347
O28	O	1.052262	0.860834	-0.057978
O29	O	0.865448	1.071542	-0.345632
O30	O	0.857009	0.616154	0.119816
O31	O	0.997538	0.616170	0.119806
O32	O	1.010015	0.573162	-0.019502
O33	O	0.712442	1.114534	-0.206314
O34	O	0.852971	1.114551	-0.206325
O35	O	0.877671	0.787160	0.022764
O36	O	0.967743	0.761851	-0.059251
O37	O	0.920168	0.925864	-0.166578
O38	O	0.830095	0.951173	-0.084563
C39	C	0.824063	0.590777	-0.079060
C40	C	0.811449	0.504887	-0.067572
C41	C	0.758504	0.477750	-0.019361
C42	C	0.746647	0.397058	-0.008574
C43	C	0.787736	0.343492	-0.045990
C44	C	0.840685	0.370625	-0.094196
C45	C	0.852540	0.451329	-0.104991
C46	C	0.881772	0.317071	-0.131620
C47	C	0.934721	0.344205	-0.179826
C48	C	0.946574	0.424901	-0.190618
C49	C	0.905485	0.478467	-0.153201
C50	C	0.869916	0.236367	-0.120825
C51	C	0.963952	0.209947	-0.206455
C52	C	0.975810	0.290638	-0.217242
C53	C	0.640084	0.843822	-0.112892
C54	C	0.565030	0.843813	-0.112886
C55	C	0.409609	0.754408	-0.054381
C56	C	0.346835	0.816016	-0.028871
C57	C	0.427604	0.843838	-0.112901
C58	C	0.356639	0.782232	-0.138382
C59	C	0.294858	0.843855	-0.112913
C60	C	0.365815	0.905461	-0.087346
C61	C	0.375630	0.871649	-0.196897
C62	C	0.312857	0.933327	-0.171417
C63	C	0.504076	0.843826	-0.112891
C64	C	0.218385	0.843875	-0.112922
C65	C	1.082372	0.843874	-0.112924
C66	C	1.157427	0.843883	-0.112930
C67	C	0.880863	0.776167	-0.332130
C68	C	0.887526	0.753197	-0.406532
C69	C	0.898394	1.096919	-0.146757
C70	C	0.911008	1.182809	-0.158245
C71	C	0.806963	1.030908	-0.840359
C72	C	0.800698	1.052493	-0.770456
C73	C	0.822404	0.977671	-0.679472
C74	C	0.850377	0.881260	-0.658397
C75	C	0.856638	0.859673	-0.728306
C76	C	0.872079	0.806436	-0.567420
C77	C	0.900052	0.710025	-0.546344
C78	C	0.906312	0.688442	-0.616247
C79	C	0.884605	0.763264	-0.707231
C80	C	0.865819	0.828023	-0.497510
C81	C	0.915494	0.656788	-0.385458
C82	C	0.921759	0.635203	-0.455360
C83	C	0.841594	0.911529	0.106314
C84	C	0.834930	0.934499	0.180716
C85	C	1.045207	0.590803	-0.079076
C86	C	1.107647	0.504922	-0.067593
C87	C	0.804428	0.658458	0.140163
C88	C	0.785151	0.595539	0.226052
C89	C	1.025572	0.658484	0.140146
C90	C	1.081349	0.595573	0.226031
C91	C	0.696884	1.029212	-0.365963
C92	C	0.641107	1.092123	-0.451847
C93	C	0.677250	1.096893	-0.146740
C94	C	0.614809	1.182774	-0.158223
C95	C	0.918028	1.029238	-0.365979
C96	C	0.937306	1.092158	-0.451869
C97	C	1.097622	0.451368	-0.105013
C98	C	1.156288	0.370680	-0.094242
C99	C	1.224977	0.343543	-0.046045
C100	C	1.235002	0.397105	-0.008626
C101	C	1.176338	0.477796	-0.019403
C102	C	0.815446	0.579214	0.309199
C103	C	0.797331	0.520108	0.389907
C104	C	0.748924	0.477321	0.387467
C105	C	0.718626	0.493651	0.304311
C106	C	0.736737	0.552762	0.223605
C107	C	1.154567	0.552819	0.223552
C108	C	1.206984	0.493717	0.304242
C109	C	1.186181	0.477365	0.387409
C110	C	1.112957	0.520127	0.389885
C111	C	1.060542	0.579233	0.309196
C112	C	0.567891	1.134887	-0.449370
C113	C	0.515478	1.194015	-0.530062
C114	C	0.536281	1.210371	-0.613231
C115	C	0.609505	1.167604	-0.615706
C116	C	0.661918	1.108483	-0.535015
C117	C	0.624837	1.236334	-0.120812
C118	C	0.566176	1.317039	-0.131605
C119	C	0.497487	1.344178	-0.179804
C120	C	0.487461	1.290613	-0.217220
C121	C	0.546123	1.209914	-0.206432
C122	C	0.985715	1.134927	-0.449399
C123	C	1.003842	1.194038	-0.530094
C124	C	0.973555	1.210384	-0.613257
C125	C	0.925144	1.167607	-0.615724
C126	C	0.907021	1.108492	-0.535030
H127	H	0.703535	0.374972	0.030676
O128	O	0.631938	1.185240	-0.705410
H129	H	0.583184	1.233525	-0.761094
H130	H	0.933166	0.595862	-0.311375
H131	H	1.272739	0.277837	-0.037276
O132	O	0.350517	0.713221	-0.166931
H133	H	0.362781	0.735644	-0.236185
O134	O	0.436503	1.240113	-0.527372
H135	H	0.431693	1.287334	-0.498316
H136	H	0.843042	0.906522	-0.514679
O137	O	1.177019	0.570459	0.133856
H138	H	1.201964	0.500525	0.135803
H139	H	0.725052	0.521373	0.011093
H140	H	1.290937	0.374998	0.030615
O141	O	0.951938	0.531217	-0.432627
H142	H	0.916993	0.494286	-0.392329
H143	H	0.889706	0.745695	-0.764156
O144	O	0.936511	0.584459	-0.593522
H145	H	0.950572	0.536056	-0.518514
H146	H	0.550938	1.121574	-0.381657
O147	O	1.003678	0.454171	-0.242618
H148	H	0.977389	0.528579	-0.301839
H149	H	0.333917	0.792513	0.042159
H150	H	0.915142	0.544167	-0.161973
H151	H	1.010381	1.121629	-0.381691
O152	O	0.740891	1.062349	-0.537673
H153	H	0.745701	1.015103	-0.566699
O154	O	0.479748	1.274149	-0.700262
H155	H	0.425342	1.301132	-0.684557
O156	O	1.187156	0.535545	0.020973
H157	H	1.150583	0.534652	0.070365
H158	H	0.778078	0.277790	-0.037205
O159	O	1.242716	0.413601	0.474438
H160	H	1.297121	0.386612	0.458735
H161	H	1.000925	0.614037	0.311227
O162	O	1.285965	0.447617	0.301575
H163	H	1.304441	0.367797	0.343295
H164	H	0.679211	0.458806	0.302338
O165	O	1.090521	0.502472	0.479591
H166	H	1.139273	0.454175	0.535277
H167	H	1.041699	0.473457	-0.144269
H168	H	0.537947	1.166306	-0.236895
O169	O	0.698923	1.207084	-0.068840
H170	H	0.696032	1.257906	-0.044658
O171	O	0.993094	1.274159	-0.700292
H172	H	1.031837	1.301159	-0.684596
H173	H	0.997409	0.166334	-0.236925
H174	H	0.451232	0.678806	-0.004846
H175	H	1.018922	0.312741	-0.256493
H176	H	0.574352	1.360641	-0.101131
O177	O	0.392770	0.902738	-0.290962
H178	H	0.448566	0.903119	-0.290229
H179	H	0.449727	1.409890	-0.188582
O180	O	0.371825	0.974436	-0.058683
H181	H	0.427902	0.973856	-0.058866
H182	H	0.431527	1.312722	-0.256464
H183	H	1.043259	1.228863	-0.528068
H184	H	0.900488	1.180926	-0.683447
O185	O	0.257851	1.033580	-0.236982
H186	H	0.261167	1.084517	-0.215627
O187	O	0.815558	1.000944	-0.604073
H188	H	0.792431	1.080553	-0.634012
H189	H	0.777923	1.130991	-0.787622
O190	O	0.854797	1.062377	-0.537699
H191	H	0.836780	1.083690	-0.609089
O192	O	0.783561	1.111603	-0.938483
H193	H	0.792622	1.080392	-0.983549
H194	H	0.826804	0.214284	-0.081576
O195	O	1.145466	0.312910	-0.134596
H196	H	1.087842	0.345331	-0.169902
H197	H	0.854861	0.614047	0.311202
H198	H	0.822010	0.506821	0.457607
O199	O	0.729409	0.413550	0.474525
H200	H	0.703643	0.455916	0.507304
O201	O	0.704169	0.570215	0.133945
H202	H	0.667512	0.530468	0.145825
