data_functionalizedCrystal
_audit_creation_method	'MofGen! by Chris Wilmer'
_symmetry_space_group_name_H-M	'P1'
_symmetry_Int_Tables_number	1
_symmetry_cell_setting	triclinic
loop_
_symmetry_equiv_pos_as_xyz
  x,y,z
_cell_length_a	14.472311
_cell_length_b	14.519709
_cell_length_c	14.519731
_cell_angle_alpha	83.684499
_cell_angle_beta	89.987543
_cell_angle_gamma	90.011835
loop_
_atom_site_label
_atom_site_type_symbol
_atom_site_fract_x
_atom_site_fract_y
_atom_site_fract_z
O1	O	0.076723	-1.223861	-0.120901
O2	O	0.410056	-0.890528	0.212433
O3	O	0.743389	-0.557195	0.545766
O4	O	0.076751	-0.955385	-0.135137
O5	O	0.410085	-0.622052	0.198196
O6	O	0.743418	-0.288719	0.531530
O7	O	0.076728	-1.096731	0.006218
O8	O	0.410061	-0.763398	0.339552
O9	O	0.743394	-0.430065	0.672885
O10	O	0.076746	-1.082515	-0.262256
O11	O	0.410079	-0.749182	0.071077
O12	O	0.743413	-0.415849	0.404411
O13	O	-0.076954	-1.096750	0.006244
O14	O	0.256379	-0.763417	0.339577
O15	O	0.589712	-0.430083	0.672911
O16	O	-0.076931	-0.955404	-0.135111
O17	O	0.256403	-0.622071	0.198222
O18	O	0.589736	-0.288738	0.531555
O19	O	-0.076959	-1.223880	-0.120875
O20	O	0.256374	-0.890547	0.212458
O21	O	0.589707	-0.557213	0.545792
Cu22	Cu	-0.090977	-1.089644	-0.127991
Cu23	Cu	0.242356	-0.756311	0.205343
Cu24	Cu	0.575689	-0.422977	0.538676
Cu25	Cu	0.090769	-1.089622	-0.128021
Cu26	Cu	0.424103	-0.756288	0.205312
Cu27	Cu	0.757436	-0.422955	0.538645
O28	O	-0.076936	-1.082534	-0.262230
O29	O	0.256397	-0.749201	0.071103
O30	O	0.589731	-0.415867	0.404436
C31	C	-0.000086	-0.921035	-0.134461
C32	C	0.333247	-0.587702	0.198873
C33	C	0.666580	-0.254368	0.532206
C34	C	-0.000076	-0.818654	-0.132473
C35	C	0.333258	-0.485320	0.200861
C36	C	0.666591	-0.151987	0.534194
N37	N	-0.218808	-1.089666	-0.127969
N38	N	0.114525	-0.756333	0.205365
N39	N	0.447858	-0.423000	0.538698
N40	N	0.218600	-1.089607	-0.128036
N41	N	0.551934	-0.756273	0.205297
N42	N	0.885267	-0.422940	0.538631
C43	C	0.592691	-1.089646	-0.127991
C44	C	0.926025	-0.756313	0.205343
C45	C	1.259358	-0.422980	0.538676
C46	C	0.553538	-1.014096	-0.203709
C47	C	0.886871	-0.680763	0.129624
C48	C	1.220205	-0.347429	0.462957
C49	C	0.446450	-1.013815	-0.203527
C50	C	0.779783	-0.680482	0.129806
C51	C	1.113117	-0.347148	0.463140
C52	C	0.407100	-1.089626	-0.128014
C53	C	0.740434	-0.756293	0.205319
C54	C	1.073767	-0.422960	0.538653
C55	C	0.445950	-1.068696	-0.031676
C56	C	0.779283	-0.735362	0.301657
C57	C	1.112616	-0.402029	0.634990
C58	C	0.553071	-1.068164	-0.032107
C59	C	0.886405	-0.734831	0.301226
C60	C	1.219738	-0.401498	0.634560
C61	C	0.553196	-1.186350	-0.147750
C62	C	0.886529	-0.853016	0.185583
C63	C	1.219863	-0.519683	0.518917
C64	C	0.446069	-1.185697	-0.149949
C65	C	0.779402	-0.852364	0.183384
C66	C	1.112735	-0.519031	0.516718
C67	C	0.302212	-1.089617	-0.128021
C68	C	0.635546	-0.756284	0.205312
C69	C	0.968879	-0.422951	0.538646
C70	C	0.697580	-1.089654	-0.127977
C71	C	1.030913	-0.756320	0.205356
C72	C	1.364246	-0.422987	0.538689
C73	C	-0.000113	-1.096075	0.040591
C74	C	0.333220	-0.762741	0.373924
C75	C	0.666553	-0.429408	0.707257
C76	C	-0.000114	-1.094079	0.142971
C77	C	0.333220	-0.760745	0.476304
C78	C	0.666553	-0.427412	0.809637
C79	C	-0.000120	-1.258230	-0.121551
C80	C	0.333214	-0.924897	0.211782
C81	C	0.666547	-0.591564	0.545115
C82	C	-0.000124	-1.360612	-0.123539
C83	C	0.333209	-1.027279	0.209794
C84	C	0.666542	-0.693945	0.543127
C85	C	-0.000118	-0.443757	-0.125153
C86	C	0.333215	-0.110424	0.208180
C87	C	0.666549	0.222909	0.541514
C88	C	-0.000106	-0.548065	-0.127186
C89	C	0.333227	-0.214732	0.206148
C90	C	0.666561	0.118601	0.539481
C91	C	-0.000096	-0.631202	-0.128813
C92	C	0.333237	-0.297869	0.204521
C93	C	0.666571	0.035465	0.537854
C94	C	-0.000086	-0.735517	-0.130846
C95	C	0.333248	-0.402183	0.202488
C96	C	0.666581	-0.068850	0.535821
C97	C	-0.000093	-1.083191	-0.296603
C98	C	0.333241	-0.749858	0.036731
C99	C	0.666574	-0.416524	0.370064
C100	C	-0.000086	-1.085187	-0.398983
C101	C	0.333247	-0.751854	-0.065649
C102	C	0.666580	-0.418520	0.267684
C103	C	-0.000111	-1.092457	0.226115
C104	C	0.333222	-0.759123	0.559448
C105	C	0.666555	-0.425790	0.892782
C106	C	-0.000104	-1.090430	0.330424
C107	C	0.333229	-0.757097	0.663757
C108	C	0.666563	-0.423763	0.997090
C109	C	-0.000098	-1.088822	0.413563
C110	C	0.333235	-0.755488	0.746896
C111	C	0.666569	-0.422155	1.080229
C112	C	-0.000092	-1.086795	0.517878
C113	C	0.333241	-0.753462	0.851211
C114	C	0.666574	-0.420129	1.184545
H115	H	0.579319	-1.026350	-0.275539
H116	H	0.912653	-0.693017	0.057794
H117	H	1.245986	-0.359684	0.391127
C118	C	0.515268	-0.859756	-0.172152
C119	C	0.848601	-0.526423	0.161181
C120	C	1.181934	-0.193089	0.494514
C121	C	0.589879	-0.917756	-0.186863
C122	C	0.923213	-0.584423	0.146470
C123	C	1.256546	-0.251089	0.479804
H124	H	0.537706	-0.800279	-0.161757
H125	H	0.871039	-0.466946	0.171576
H126	H	1.204372	-0.133613	0.504910
H127	H	0.481173	-0.885461	-0.119598
H128	H	0.814506	-0.552127	0.213735
H129	H	1.147839	-0.218794	0.547069
H130	H	0.476331	-0.854181	-0.225135
H131	H	0.809665	-0.520848	0.108199
H132	H	1.142998	-0.187515	0.441532
H133	H	0.628812	-0.923336	-0.133877
H134	H	0.962146	-0.590003	0.199456
H135	H	1.295479	-0.256669	0.532789
H136	H	0.623989	-0.892045	-0.239422
H137	H	0.957323	-0.558712	0.093911
H138	H	1.290656	-0.225378	0.427244
H139	H	0.419123	-0.998979	-0.013913
H140	H	0.752456	-0.665645	0.319420
H141	H	1.085790	-0.332312	0.652753
C142	C	0.437309	-1.250282	0.009294
C143	C	0.770642	-0.916949	0.342627
C144	C	1.103975	-0.583615	0.675960
C145	C	0.409917	-1.265141	-0.080371
C146	C	0.743251	-0.931808	0.252962
C147	C	1.076584	-0.598475	0.586295
H148	H	0.414994	-1.299329	0.052252
H149	H	0.748328	-0.965996	0.385585
H150	H	1.081661	-0.632662	0.718919
H151	H	0.412670	-1.193130	0.024195
H152	H	0.746003	-0.859797	0.357528
H153	H	1.079336	-0.526464	0.690861
H154	H	0.502841	-1.248325	0.012246
H155	H	0.836174	-0.914992	0.345580
H156	H	1.169508	-0.581658	0.678913
H157	H	0.344384	-1.267092	-0.083326
H158	H	0.677718	-0.933758	0.250007
H159	H	1.011051	-0.600425	0.583341
H160	H	0.434552	-1.322308	-0.095276
H161	H	0.767886	-0.988975	0.238057
H162	H	1.101219	-0.655642	0.571390
C163	C	0.555534	-1.116220	0.131480
C164	C	0.888867	-0.782887	0.464813
C165	C	1.222201	-0.449553	0.798146
C166	C	0.588067	-1.139622	0.046256
C167	C	0.921400	-0.806289	0.379590
C168	C	1.254733	-0.472955	0.712923
H169	H	0.577149	-1.160329	0.179854
H170	H	0.910482	-0.826996	0.513187
H171	H	1.243815	-0.493663	0.846521
H172	H	0.489905	-1.116077	0.131221
H173	H	0.823238	-0.782743	0.464554
H174	H	1.156571	-0.449410	0.797888
H175	H	0.577501	-1.056386	0.141167
H176	H	0.910834	-0.723053	0.474500
H177	H	1.244167	-0.389719	0.807833
H178	H	0.566094	-1.199454	0.036566
H179	H	0.899428	-0.866120	0.369899
H180	H	1.232761	-0.532787	0.703233
H181	H	0.653710	-1.139775	0.046514
H182	H	0.987043	-0.806442	0.379847
H183	H	1.320376	-0.473108	0.713180
H184	H	0.420458	-1.122259	0.026034
H185	H	0.753792	-0.788926	0.359368
H186	H	1.087125	-0.455593	0.692701
C187	C	0.515223	-1.224771	-0.299894
C188	C	0.848556	-0.891438	0.033439
C189	C	1.181890	-0.558105	0.366772
C190	C	0.589679	-1.213543	-0.240578
C191	C	0.923012	-0.880210	0.092755
C192	C	1.256345	-0.546876	0.426088
H193	H	0.537746	-1.241558	-0.357202
H194	H	0.871080	-0.908225	-0.023869
H195	H	1.204413	-0.574891	0.309464
H196	H	0.481886	-1.168254	-0.310436
H197	H	0.815220	-0.834921	0.022897
H198	H	1.148553	-0.501587	0.356231
H199	H	0.475549	-1.272129	-0.272275
H200	H	0.808882	-0.938796	0.061058
H201	H	1.142215	-0.605463	0.394392
H202	H	0.629350	-1.166180	-0.268195
H203	H	0.962683	-0.832846	0.065139
H204	H	1.296016	-0.499513	0.398472
H205	H	0.623030	-1.270067	-0.230039
H206	H	0.956364	-0.936734	0.103295
H207	H	1.289697	-0.603401	0.436628
H208	H	0.420186	-1.026270	-0.275125
H209	H	0.753519	-0.692936	0.058208
H210	H	1.086852	-0.359603	0.391542
C211	C	0.684068	-1.265344	-0.074598
C212	C	1.017402	-0.932011	0.258735
C213	C	1.350735	-0.598678	0.592069
C214	C	0.587380	-1.262256	-0.073230
C215	C	0.920714	-0.928923	0.260104
C216	C	1.254047	-0.595590	0.593437
H217	H	0.705174	-1.312206	-0.028596
H218	H	1.038507	-0.978872	0.304738
H219	H	1.371841	-0.645539	0.638071
H220	H	0.708146	-1.207083	-0.062288
H221	H	1.041480	-0.873749	0.271045
H222	H	1.374813	-0.540416	0.604379
H223	H	0.704456	-1.278855	-0.133837
H224	H	1.037789	-0.945522	0.199497
H225	H	1.371123	-0.612188	0.532830
H226	H	0.566993	-1.248739	-0.013993
H227	H	0.900326	-0.915405	0.319341
H228	H	1.233659	-0.582072	0.652674
H229	H	0.563293	-1.320531	-0.085533
H230	H	0.896626	-0.987198	0.247800
H231	H	1.229960	-0.653864	0.581134
H232	H	0.420834	-0.942048	-0.190867
H233	H	0.754167	-0.608715	0.142467
H234	H	1.087501	-0.275381	0.475800
H235	H	0.578065	-0.997641	-0.014756
H236	H	0.911398	-0.664308	0.318577
H237	H	1.244732	-0.330974	0.651910
H238	H	0.420695	-1.201574	-0.220828
H239	H	0.754028	-0.868241	0.112505
H240	H	1.087361	-0.534907	0.445839
