data_functionalizedCrystal
_audit_creation_method	'MofGen! by Chris Wilmer'
_symmetry_space_group_name_H-M	'P1'
_symmetry_Int_Tables_number	1
_symmetry_cell_setting	triclinic
loop_
_symmetry_equiv_pos_as_xyz
  x,y,z
_cell_length_a	16.625548
_cell_length_b	13.897449
_cell_length_c	13.897441
_cell_angle_alpha	89.978378
_cell_angle_beta	89.978130
_cell_angle_gamma	90.003688
loop_
_atom_site_label
_atom_site_type_symbol
_atom_site_fract_x
_atom_site_fract_y
_atom_site_fract_z
Zn1	Zn	1.232802	-0.383957	-0.545471
Zn2	Zn	1.482802	-0.133957	-0.295471
Zn3	Zn	1.732802	0.116043	-0.045471
Zn4	Zn	1.982802	0.366043	0.204529
Zn5	Zn	1.232749	-0.545278	-0.384197
Zn6	Zn	1.482749	-0.295278	-0.134197
Zn7	Zn	1.732749	-0.045278	0.115803
Zn8	Zn	1.982749	0.204722	0.365803
Zn9	Zn	1.097961	-0.384002	-0.384186
Zn10	Zn	1.347961	-0.134002	-0.134186
Zn11	Zn	1.597961	0.115998	0.115814
Zn12	Zn	1.847961	0.365998	0.365814
Zn13	Zn	1.097981	-0.545214	-0.545447
Zn14	Zn	1.347981	-0.295214	-0.295447
Zn15	Zn	1.597981	-0.045214	-0.045447
Zn16	Zn	1.847981	0.204786	0.204553
O17	O	1.165373	-0.464613	-0.464825
O18	O	1.415373	-0.214613	-0.214825
O19	O	1.665373	0.035387	0.035175
O20	O	1.915373	0.285387	0.285175
O21	O	1.345627	-0.405364	-0.524092
O22	O	1.595627	-0.155364	-0.274092
O23	O	1.845627	0.094636	-0.024092
O24	O	2.095627	0.344636	0.225908
O25	O	1.214838	-0.523930	-0.249214
O26	O	1.464838	-0.273930	0.000786
O27	O	1.714838	-0.023930	0.250786
O28	O	1.964838	0.226070	0.500786
O29	O	1.115862	-0.249014	-0.405586
O30	O	1.365862	0.000986	-0.155586
O31	O	1.615862	0.250986	0.094414
O32	O	1.865862	0.500986	0.344414
O33	O	1.345588	-0.523886	-0.405605
O34	O	1.595588	-0.273886	-0.155605
O35	O	1.845588	-0.023886	0.094395
O36	O	2.095588	0.226114	0.344395
O37	O	1.214929	-0.248981	-0.524081
O38	O	1.464929	0.001019	-0.274081
O39	O	1.714929	0.251019	-0.024081
O40	O	1.964929	0.501019	0.225919
O41	O	1.115810	-0.405441	-0.249206
O42	O	1.365810	-0.155441	0.000794
O43	O	1.615810	0.094559	0.250794
O44	O	1.865810	0.344559	0.500794
O45	O	0.985131	-0.405379	-0.405563
O46	O	1.235131	-0.155379	-0.155563
O47	O	1.485131	0.094621	0.094437
O48	O	1.735131	0.344621	0.344437
O49	O	1.115896	-0.523777	-0.680432
O50	O	1.365896	-0.273777	-0.430432
O51	O	1.615896	-0.023777	-0.180432
O52	O	1.865896	0.226223	0.069568
O53	O	0.985146	-0.523821	-0.524040
O54	O	1.235146	-0.273821	-0.274040
O55	O	1.485146	-0.023821	-0.024040
O56	O	1.735146	0.226179	0.225960
O57	O	1.214948	-0.405302	-0.680449
O58	O	1.464948	-0.155302	-0.430449
O59	O	1.714948	0.094698	-0.180449
O60	O	1.964948	0.344698	0.069551
O61	O	1.214858	-0.680251	-0.405582
O62	O	1.464858	-0.430251	-0.155582
O63	O	1.714858	-0.180251	0.094418
O64	O	1.964858	0.069749	0.344418
O65	O	1.115844	-0.680204	-0.524051
O66	O	1.365844	-0.430204	-0.274051
O67	O	1.615844	-0.180204	-0.024051
O68	O	1.865844	0.069796	0.225949
C69	C	0.955882	-0.464599	-0.464798
C70	C	1.205882	-0.214599	-0.214798
C71	C	1.455882	0.035401	0.035202
C72	C	1.705882	0.285401	0.285202
C73	C	0.866261	-0.464616	-0.464810
C74	C	1.116261	-0.214616	-0.214810
C75	C	1.366261	0.035384	0.035190
C76	C	1.616261	0.285384	0.285190
C77	C	1.165369	-0.715227	-0.464837
C78	C	1.415369	-0.465227	-0.214837
C79	C	1.665369	-0.215227	0.035163
C80	C	1.915369	0.034773	0.285163
C81	C	1.165442	-0.822441	-0.464874
C82	C	1.415442	-0.572441	-0.214874
C83	C	1.665442	-0.322441	0.035126
C84	C	1.915442	-0.072441	0.285126
C85	C	1.165430	-0.464527	-0.716418
C86	C	1.415430	-0.214527	-0.466418
C87	C	1.665430	0.035473	-0.216418
C88	C	1.915430	0.285473	0.033582
C89	C	1.165455	-0.464491	-0.823632
C90	C	1.415455	-0.214491	-0.573632
C91	C	1.665455	0.035509	-0.323632
C92	C	1.915455	0.285509	-0.073632
C93	C	0.538086	-0.464623	-0.464851
C94	C	0.788086	-0.214623	-0.214851
C95	C	1.038086	0.035377	0.035149
C96	C	1.288086	0.285377	0.285149
C97	C	0.629394	-0.464618	-0.464836
C98	C	0.879394	-0.214618	-0.214836
C99	C	1.129394	0.035382	0.035164
C100	C	1.379394	0.285382	0.285164
C101	C	0.702170	-0.464620	-0.464829
C102	C	0.952170	-0.214620	-0.214829
C103	C	1.202170	0.035380	0.035171
C104	C	1.452170	0.285380	0.285171
C105	C	0.793485	-0.464615	-0.464816
C106	C	1.043485	-0.214615	-0.214816
C107	C	1.293485	0.035385	0.035184
C108	C	1.543485	0.285385	0.285184
C109	C	1.375682	-0.464627	-0.464853
C110	C	1.625682	-0.214627	-0.214853
C111	C	1.875682	0.035373	0.035147
C112	C	2.125682	0.285373	0.285147
C113	C	1.465303	-0.464633	-0.464865
C114	C	1.715303	-0.214633	-0.214865
C115	C	1.965303	0.035367	0.035135
C116	C	2.215303	0.285367	0.285135
C117	C	1.165399	-0.213020	-0.464835
C118	C	1.415399	0.036980	-0.214835
C119	C	1.665399	0.286980	0.035165
C120	C	1.915399	0.536980	0.285165
C121	C	1.165410	-0.105806	-0.464839
C122	C	1.415410	0.144194	-0.214839
C123	C	1.665410	0.394194	0.035161
C124	C	1.915410	0.644194	0.285161
C125	C	1.165434	0.090489	-0.464870
C126	C	1.415434	0.340489	-0.214870
C127	C	1.665434	0.590489	0.035130
C128	C	1.915434	0.840489	0.285130
C129	C	1.165423	-0.018743	-0.464856
C130	C	1.415423	0.231257	-0.214856
C131	C	1.665423	0.481257	0.035144
C132	C	1.915423	0.731257	0.285144
C133	C	1.165477	-0.464426	-1.019927
C134	C	1.415477	-0.214426	-0.769927
C135	C	1.665477	0.035574	-0.519927
C136	C	1.915477	0.285574	-0.269927
C137	C	1.165462	-0.464465	-0.910695
C138	C	1.415462	-0.214465	-0.660695
C139	C	1.665462	0.035535	-0.410695
C140	C	1.915462	0.285535	-0.160695
C141	C	1.165363	-0.464628	-0.214211
C142	C	1.415363	-0.214628	0.035789
C143	C	1.665363	0.035372	0.285789
C144	C	1.915363	0.285372	0.535789
C145	C	1.165494	-0.464393	-0.106997
C146	C	1.415494	-0.214393	0.143003
C147	C	1.665494	0.035607	0.393003
C148	C	1.915494	0.285607	0.643003
