data_functionalizedCrystal
_audit_creation_method	'MofGen! by Chris Wilmer'
_symmetry_space_group_name_H-M	'P1'
_symmetry_Int_Tables_number	1
_symmetry_cell_setting	triclinic
loop_
_symmetry_equiv_pos_as_xyz
  x,y,z
_cell_length_a	17.640112
_cell_length_b	12.759393
_cell_length_c	12.759399
_cell_angle_alpha	89.970666
_cell_angle_beta	101.240035
_cell_angle_gamma	101.174084
loop_
_atom_site_label
_atom_site_type_symbol
_atom_site_fract_x
_atom_site_fract_y
_atom_site_fract_z
Zn1	Zn	1.208351	-0.269867	-0.093196
Zn2	Zn	1.208267	-0.094214	-0.268934
Zn3	Zn	1.076175	-0.129661	-0.128800
Zn4	Zn	1.076167	-0.305289	-0.304388
O5	O	1.142240	-0.199758	-0.198830
O6	O	1.318941	-0.216907	-0.086770
O7	O	1.190713	0.048097	-0.250408
O8	O	1.093748	-0.148270	0.022955
O9	O	1.318879	-0.087855	-0.215884
O10	O	1.190857	-0.251279	0.049113
O11	O	1.093666	0.022054	-0.147451
O12	O	0.965574	-0.182617	-0.181830
O13	O	1.093733	-0.447603	-0.276310
O14	O	0.965567	-0.311650	-0.310834
O15	O	1.190849	-0.421579	-0.121148
O16	O	1.190705	-0.122202	-0.420669
O17	O	1.093651	-0.277279	-0.446717
C18	C	0.936893	-0.254825	-0.254043
C19	C	0.849045	-0.278408	-0.277689
C20	C	1.142189	-0.199755	-0.471811
C21	C	1.142240	-0.199769	-0.588574
C22	C	1.142299	-0.473775	-0.198713
C23	C	1.142325	-0.590545	-0.198663
C24	C	0.560029	-0.020610	-0.019176
C25	C	0.477482	-0.042784	-0.041416
C26	C	0.477530	-0.176914	-0.175933
C27	C	0.560079	-0.154755	-0.153700
C28	C	0.601322	-0.076601	-0.075321
C29	C	0.601371	-0.210747	-0.209846
C30	C	0.683913	-0.188585	-0.187619
C31	C	0.725161	-0.110432	-0.109246
C32	C	0.683863	-0.054440	-0.053094
C33	C	0.560127	-0.288895	-0.288230
C34	C	0.601419	-0.344886	-0.344376
C35	C	0.683962	-0.322731	-0.322144
C36	C	0.725211	-0.244578	-0.243771
C37	C	0.725260	-0.378723	-0.378295
C38	C	0.807802	-0.356562	-0.356068
C39	C	0.807752	-0.222416	-0.221543
C40	C	1.348389	-0.144476	-0.143401
C41	C	1.436237	-0.120919	-0.119781
C42	C	1.192896	-0.631857	-0.117858
C43	C	1.192910	-0.741578	-0.117810
C44	C	1.091777	-0.768665	-0.279379
C45	C	1.091761	-0.658948	-0.279423
C46	C	1.221206	-0.883962	0.013757
C47	C	1.271790	-0.925275	0.094556
C48	C	1.348908	-0.868995	0.131407
C49	C	1.375458	-0.771400	0.087448
C50	C	1.324878	-0.730092	0.006643
C51	C	1.247749	-0.786373	-0.030191
C52	C	1.063472	-0.516559	-0.410989
C53	C	1.012896	-0.475248	-0.491800
C54	C	0.935776	-0.531527	-0.528662
C55	C	0.909229	-0.629124	-0.484720
C56	C	0.959806	-0.670435	-0.403910
C57	C	1.036924	-0.614149	-0.367046
C58	C	1.142227	0.073206	-0.198858
C59	C	1.142355	0.190017	-0.198570
C60	C	1.091697	-0.280471	-0.657039
C61	C	1.091746	-0.280478	-0.766750
C62	C	1.192889	-0.119077	-0.739518
C63	C	1.192835	-0.119067	-0.629811
C64	C	0.998594	-0.342930	-0.941843
C65	C	0.948058	-0.423646	-1.010310
C66	C	0.935867	-0.529409	-0.977918
C67	C	0.974223	-0.554474	-0.877058
C68	C	1.024765	-0.473762	-0.808595
C69	C	1.036942	-0.367988	-0.840989
C70	C	1.285988	-0.056625	-0.454715
C71	C	1.336535	0.024084	-0.386249
C72	C	1.348734	0.129851	-0.418636
C73	C	1.310392	0.154915	-0.519497
C74	C	1.259845	0.074207	-0.587963
C75	C	1.247644	-0.031559	-0.555568
C76	C	1.142313	-0.199778	0.075223
C77	C	1.142343	-0.199786	0.192008
H78	H	0.841335	-0.158791	-0.157704
H79	H	0.492916	-0.306936	-0.306325
O80	O	1.241922	-0.565484	-0.039276
C81	C	1.280358	-0.521695	0.149759
C82	C	1.224776	-0.596920	0.060863
H83	H	1.266526	-0.547098	0.230744
H84	H	1.271661	-0.436167	0.135944
H85	H	1.344081	-0.526175	0.148398
H86	H	1.161032	-0.592534	0.062172
H87	H	1.233542	-0.682416	0.074711
O88	O	0.886714	-0.607889	-1.044273
C89	C	0.769087	-0.745127	-1.069865
C90	C	0.824698	-0.656304	-0.994600
H91	H	0.718925	-0.784281	-1.029743
H92	H	0.803328	-0.807764	-1.088091
H93	H	0.743811	-0.709034	-1.147525
H94	H	0.849990	-0.692301	-0.916895
H95	H	0.790421	-0.593679	-0.976463
H96	H	0.916828	-0.403229	-1.092431
O97	O	0.561230	-0.420803	-0.420442
C98	C	0.434093	-0.514352	-0.514349
C99	C	0.479506	-0.428364	-0.428163
H100	H	0.368011	-0.520478	-0.520635
H101	H	0.450297	-0.594771	-0.491627
H102	H	0.450361	-0.491410	-0.594652
H103	H	0.463262	-0.451205	-0.347828
H104	H	0.463298	-0.347968	-0.450976
H105	H	1.346496	-0.650635	-0.029152
O106	O	0.685070	-0.454633	-0.454367
C107	C	0.557931	-0.548164	-0.548286
C108	C	0.603346	-0.462187	-0.462089
H109	H	0.491849	-0.554283	-0.554573
H110	H	0.574129	-0.628588	-0.525573
H111	H	0.574202	-0.525214	-0.628586
H112	H	0.587099	-0.485036	-0.381758
H113	H	0.587144	-0.381786	-0.484893
O114	O	1.398126	-0.909163	0.209759
C115	C	1.520525	-0.970694	0.260083
C116	C	1.464852	-0.925230	0.171247
H117	H	1.574493	-0.983677	0.228986
H118	H	1.488368	-1.050154	0.285170
H119	H	1.539952	-0.911830	0.331895
H120	H	1.445407	-0.984014	0.099376
H121	H	1.497042	-0.845751	0.146250
H122	H	1.389896	0.195564	-0.362880
O123	O	0.847885	-0.411112	-0.410498
C124	C	0.873185	-0.582943	-0.454925
C125	C	0.827755	-0.521298	-0.393208
H126	H	0.856915	-0.672041	-0.440987
H127	H	0.939273	-0.553762	-0.425567
H128	H	0.856958	-0.568658	-0.543985
H129	H	0.843916	-0.535554	-0.304138
H130	H	0.761679	-0.550488	-0.422654
H131	H	0.443865	0.002810	0.004318
O132	O	0.600131	0.055167	0.057087
C133	C	0.693360	0.094094	0.224010
C134	C	0.647983	0.008170	0.137742
H135	H	0.732072	0.056134	0.289230
H136	H	0.649702	0.130294	0.260412
H137	H	0.731944	0.159494	0.186208
H138	H	0.609398	-0.057293	0.175463
H139	H	0.691683	-0.027944	0.101348
H140	H	0.964300	-0.640600	-0.850697
H141	H	1.438259	-0.725586	0.117453
O142	O	1.246080	-1.020158	0.137163
C143	C	1.264389	-1.200623	0.168888
C144	C	1.293569	-1.093235	0.120572
H145	H	1.302780	-1.259727	0.155511
H146	H	1.200590	-1.233833	0.128670
H147	H	1.268224	-1.187778	0.258331
H148	H	1.289786	-1.105990	0.031133
H149	H	1.357353	-1.060059	0.160872
H150	H	0.717446	0.009186	0.010745
H151	H	1.158408	-0.929791	-0.016235
O152	O	1.373873	-0.000085	-0.288255
C153	C	1.463294	0.066280	-0.123703
C154	C	1.421075	0.093793	-0.234657
H155	H	1.501454	0.142166	-0.080328
H156	H	1.502058	0.006521	-0.133440
H157	H	1.417575	0.029783	-0.075167
H158	H	1.466739	0.130332	-0.283253
H159	H	1.382296	0.153508	-0.224842
O160	O	1.010349	-0.240140	-0.973177
C161	C	1.000014	-0.058641	-0.937028
C162	C	0.986642	-0.175013	-0.901436
H163	H	0.980868	-0.005949	-0.879031
H164	H	0.963902	-0.054516	-1.020847
H165	H	1.065232	-0.029293	-0.937520
H166	H	0.921444	-0.204434	-0.900878
H167	H	1.022804	-0.179070	-0.817638
H168	H	1.276046	-0.142745	-0.428326
H169	H	0.443939	-0.240544	-0.239752
H170	H	1.050612	-0.824371	-0.345133
O171	O	1.222629	0.098743	-0.685884
C172	C	1.202063	0.237015	-0.810856
C173	C	1.244244	0.209381	-0.699926
H174	H	1.219536	0.326461	-0.822253
H175	H	1.135530	0.214247	-0.817079
H176	H	1.219939	0.190767	-0.875397
H177	H	1.226433	0.255615	-0.635320
H178	H	1.310768	0.232123	-0.693795
H179	H	0.792372	-0.092388	-0.091152
H180	H	0.938185	-0.749906	-0.368132
H181	H	1.320329	0.241038	-0.545870
O182	O	0.834280	-0.683641	-0.520614
C183	C	0.710438	-0.688228	-0.642012
C184	C	0.795292	-0.626367	-0.601436
H185	H	0.678896	-0.641959	-0.707379
H186	H	0.677524	-0.698293	-0.572983
H187	H	0.712095	-0.770282	-0.675764
H188	H	0.793707	-0.544282	-0.567699
H189	H	0.828171	-0.616389	-0.670501
H190	H	0.894600	-0.497886	-0.594472
H191	H	1.034520	-0.395784	-0.527586
O192	O	1.138433	-0.461960	-0.375352
C193	C	1.263852	-0.387632	-0.420401
C194	C	1.178983	-0.449481	-0.460885
H195	H	1.296656	-0.377504	-0.489538
H196	H	1.295486	-0.433924	-0.355143
H197	H	1.262225	-0.305605	-0.386557
H198	H	1.180538	-0.531511	-0.494783
H199	H	1.147384	-0.403108	-0.526097
O200	O	1.061930	-0.498272	-0.710639
C201	C	1.082578	-0.636557	-0.585713
C202	C	1.040434	-0.608941	-0.696671
H203	H	1.065227	-0.726036	-0.574393
H204	H	1.064661	-0.590444	-0.521109
H205	H	1.149100	-0.613635	-0.579521
H206	H	0.973904	-0.631864	-0.702968
H207	H	1.058415	-0.655044	-0.761222
H208	H	1.050498	-0.346183	-0.623467
H209	H	1.234083	-0.053373	-0.773107
