data_functionalizedCrystal
_audit_creation_method	'MofGen! by Chris Wilmer'
_symmetry_space_group_name_H-M	'P1'
_symmetry_Int_Tables_number	1
_symmetry_cell_setting	triclinic
loop_
_symmetry_equiv_pos_as_xyz
  x,y,z
_cell_length_a	10.686220
_cell_length_b	13.032721
_cell_length_c	13.034356
_cell_angle_alpha	90.866507
_cell_angle_beta	87.702080
_cell_angle_gamma	100.973619
loop_
_atom_site_label
_atom_site_type_symbol
_atom_site_fract_x
_atom_site_fract_y
_atom_site_fract_z
Zn1	Zn	1.970067	-0.227816	-0.494808
Zn2	Zn	2.470067	0.272184	0.005192
Zn3	Zn	1.917281	-0.424552	-0.348382
Zn4	Zn	2.417281	0.075448	0.151618
Zn5	Zn	1.729890	-0.262840	-0.339758
Zn6	Zn	2.229890	0.237160	0.160242
Zn7	Zn	1.736554	-0.412518	-0.533022
Zn8	Zn	2.236554	0.087482	-0.033022
O9	O	1.838448	-0.331932	-0.428993
O10	O	2.338448	0.168068	0.071007
O11	O	2.139214	-0.244293	-0.463001
O12	O	2.639214	0.255707	0.036999
O13	O	1.867543	-0.422795	-0.205077
O14	O	2.367543	0.077205	0.294923
O15	O	1.781052	-0.113219	-0.340724
O16	O	2.281052	0.386781	0.159276
O17	O	2.100432	-0.388834	-0.355422
O18	O	2.600432	0.111166	0.144578
O19	O	1.957509	-0.087487	-0.454638
O20	O	2.457509	0.412513	0.045362
O21	O	1.729868	-0.303985	-0.198741
O22	O	2.229868	0.196015	0.301259
O23	O	1.554624	-0.292316	-0.377779
O24	O	2.054624	0.207684	0.122221
O25	O	1.792410	-0.368323	-0.670114
O26	O	2.292410	0.131677	-0.170114
O27	O	1.559520	-0.402284	-0.519769
O28	O	2.059520	0.097716	-0.019769
O29	O	1.963971	-0.232624	-0.642038
O30	O	2.463971	0.267376	-0.142038
O31	O	1.874005	-0.567931	-0.392477
O32	O	2.374005	-0.067931	0.107523
O33	O	1.741225	-0.559090	-0.528132
O34	O	2.241225	-0.059090	-0.028132
C35	C	1.511399	-0.349795	-0.451986
C36	C	2.011399	0.150205	0.048014
C37	C	1.371486	-0.357459	-0.461849
C38	C	1.871486	0.142541	0.038151
C39	C	1.802648	-0.601096	-0.465407
C40	C	2.302648	-0.101096	0.034593
C41	C	1.787454	-0.716235	-0.481011
C42	C	2.287454	-0.216235	0.018989
C43	C	1.846452	-0.771897	-0.420890
C44	C	2.346452	-0.271897	0.079110
C45	C	1.830750	-0.890899	-0.437016
C46	C	2.330750	-0.390899	0.062984
C47	C	2.166774	-0.313999	-0.405911
C48	C	2.666774	0.186001	0.094089
C49	C	2.306687	-0.306357	-0.396075
C50	C	2.806687	0.193643	0.103925
C51	C	1.884822	-0.295224	-0.693968
C52	C	2.384822	0.204776	-0.193968
C53	C	1.904583	-0.279582	-0.806885
C54	C	2.404583	0.220418	-0.306885
C55	C	1.874425	-0.061711	-0.392456
C56	C	2.374425	0.438289	0.107544
C57	C	1.889757	0.053441	-0.376887
C58	C	2.389757	0.553441	0.123113
C59	C	1.848929	-0.323589	-0.987825
C60	C	2.348929	0.176411	-0.487825
C61	C	1.828501	-0.339756	-0.871120
C62	C	2.328501	0.160244	-0.371120
C63	C	1.792337	-0.368418	-0.165033
C64	C	2.292337	0.131582	0.334967
C65	C	1.772857	-0.383755	-0.052060
C66	C	2.272857	0.116245	0.447940
H67	H	1.319919	-0.407082	-0.525708
H68	H	1.819919	0.092918	-0.025708
H69	H	1.929185	-0.260113	-1.019230
H70	H	2.429185	0.239887	-0.519230
H71	H	1.748248	-0.403244	-0.839719
H72	H	2.248248	0.096756	-0.339719
C73	C	2.013017	-0.193830	-0.849293
C74	C	2.513017	0.306170	-0.349293
H75	H	2.012525	-0.194211	-0.922168
H76	H	2.512525	0.305789	-0.422168
H77	H	2.092553	-0.206767	-0.828047
H78	H	2.592553	0.293233	-0.328047
H79	H	2.000854	-0.127604	-0.823839
H80	H	2.500854	0.372396	-0.323839
H81	H	1.908594	-0.731453	-0.357483
H82	H	2.408594	-0.231453	0.142517
H83	H	1.768616	-0.931340	-0.500434
H84	H	2.268616	-0.431340	-0.000434
H85	H	1.358246	-0.256745	-0.332215
H86	H	1.858246	0.243255	0.167785
C87	C	1.664441	-0.469511	-1.009645
C88	C	2.164441	0.030489	-0.509645
H89	H	1.664928	-0.469122	-0.936770
H90	H	2.164928	0.030878	-0.436770
H91	H	1.676603	-0.535729	-1.035105
H92	H	2.176603	-0.035729	-0.535105
H93	H	1.584894	-0.456574	-1.030883
H94	H	2.084894	0.043426	-0.530883
C95	C	1.973672	-0.891942	-0.291198
C96	C	2.473672	-0.391942	0.208802
H97	H	1.973200	-0.819127	-0.291586
H98	H	2.473200	-0.319127	0.208414
H99	H	2.058544	-0.902859	-0.302521
H100	H	2.558544	-0.402859	0.197479
H101	H	1.941012	-0.920136	-0.226612
H102	H	2.441012	-0.420136	0.273388
C103	C	1.703514	-0.770863	-0.566675
C104	C	2.203514	-0.270863	-0.066675
H105	H	1.703966	-0.843681	-0.566271
H106	H	2.203966	-0.343681	-0.066271
H107	H	1.736133	-0.742681	-0.631269
H108	H	2.236133	-0.242681	-0.131269
H109	H	1.618641	-0.759942	-0.555320
H110	H	2.118641	-0.259942	-0.055320
