data_functionalizedCrystal
_audit_creation_method	'MofGen! by Chris Wilmer'
_symmetry_space_group_name_H-M	'P1'
_symmetry_Int_Tables_number	1
_symmetry_cell_setting	triclinic
loop_
_symmetry_equiv_pos_as_xyz
  x,y,z
_cell_length_a	12.759401
_cell_length_b	18.050589
_cell_length_c	12.759393
_cell_angle_alpha	89.969379
_cell_angle_beta	89.981504
_cell_angle_gamma	90.028382
loop_
_atom_site_label
_atom_site_type_symbol
_atom_site_fract_x
_atom_site_fract_y
_atom_site_fract_z
Zn1	Zn	1.606157	-0.295612	-0.593988
Zn2	Zn	1.606010	-0.419823	-0.418311
Zn3	Zn	1.430459	-0.295651	-0.418328
Zn4	Zn	1.430406	-0.419766	-0.593953
O5	O	1.518258	-0.357713	-0.506145
O6	O	1.753158	-0.312097	-0.570692
O7	O	1.582683	-0.403391	-0.271292
O8	O	1.453849	-0.191722	-0.441651
O9	O	1.753050	-0.403354	-0.441623
O10	O	1.582934	-0.191693	-0.570708
O11	O	1.453706	-0.312163	-0.271304
O12	O	1.283431	-0.312108	-0.441617
O13	O	1.453759	-0.403256	-0.740979
O14	O	1.283392	-0.403294	-0.570648
O15	O	1.582882	-0.312041	-0.741005
O16	O	1.582632	-0.523740	-0.441589
O17	O	1.453616	-0.523698	-0.570632
C18	C	1.245290	-0.357699	-0.506131
C19	C	1.128514	-0.357711	-0.506149
C20	C	1.518131	-0.550665	-0.506127
C21	C	1.518173	-0.633211	-0.506155
C22	C	1.073659	-0.405268	-0.573225
C23	C	0.963935	-0.405277	-0.573236
C24	C	0.963930	-0.310171	-0.439088
C25	C	1.073652	-0.310159	-0.439083
C26	C	1.128521	-0.452820	-0.640292
C27	C	1.073666	-0.500382	-0.707372
C28	C	0.963942	-0.500391	-0.707383
C29	C	0.909072	-0.452839	-0.640314
C30	C	1.448083	-0.832666	-0.576304
C31	C	1.422469	-0.882114	-0.480436
C32	C	1.518276	-0.784341	-0.506169
C33	C	1.543942	-0.881974	-0.602048
C34	C	1.518374	-0.930326	-0.506191
C35	C	1.492611	-0.832703	-0.410250
C36	C	1.614129	-0.832558	-0.531927
C37	C	1.588551	-0.881985	-0.435992
C38	C	1.518217	-0.700243	-0.506158
C39	C	1.518433	-1.014423	-0.506191
C40	C	1.792291	-0.357727	-0.506160
C41	C	1.909068	-0.357733	-0.506166
C42	C	1.518331	-0.357638	-0.780178
C43	C	1.518363	-0.357606	-0.896955
C44	C	1.518414	-0.164007	-0.506185
C45	C	1.518480	-0.081462	-0.506203
C46	C	1.585606	-0.310106	-0.951832
C47	C	1.585631	-0.310079	-1.061557
C48	C	1.451166	-0.405059	-1.061516
C49	C	1.451136	-0.405081	-0.951794
C50	C	1.652833	-0.262631	-0.896993
C51	C	1.720083	-0.215128	-0.951871
C52	C	1.720108	-0.215101	-1.061595
C53	C	1.652883	-0.262577	-1.116442
C54	C	1.518245	-0.357734	-0.233178
C55	C	1.518417	-0.357557	-0.116401
H56	H	1.217863	-0.452820	-0.640288
N57	N	0.904774	-0.551684	-0.779730
H58	H	0.956181	-0.581805	-0.822210
H59	H	0.859218	-0.586018	-0.736875
N60	N	1.652810	-0.262664	-0.778650
H61	H	1.705600	-0.225382	-0.752234
H62	H	1.580709	-0.249034	-0.752299
N63	N	1.652913	-0.262550	-1.234787
H64	H	1.600128	-0.299835	-1.261201
H65	H	1.633681	-0.211572	-1.261147
N66	N	1.132838	-0.551664	-0.779711
H67	H	1.210671	-0.544445	-0.769526
H68	H	1.113621	-0.604690	-0.763228
N69	N	1.378652	-0.456255	-1.120667
H70	H	1.388872	-0.449031	-1.198503
H71	H	1.394942	-0.509302	-1.101478
H72	H	1.388636	-0.811010	-0.635531
N73	N	1.721418	-0.803703	-0.560810
H74	H	1.740707	-0.821592	-0.633279
H75	H	1.720671	-0.747759	-0.559847
N76	N	1.315154	-0.910941	-0.451565
H77	H	1.262142	-0.893004	-0.504574
H78	H	1.316248	-0.966886	-0.451098
N79	N	1.378610	-0.456311	-0.892596
H80	H	1.336033	-0.486387	-0.943983
H81	H	1.421337	-0.490690	-0.847061
H82	H	0.819728	-0.452844	-0.640338
H83	H	0.919247	-0.271458	-0.384483
H84	H	1.647952	-0.903503	-0.376622
N85	N	1.132826	-0.258865	-0.366742
H86	H	1.081424	-0.228747	-0.324251
H87	H	1.178320	-0.289050	-0.318048
H88	H	1.470848	-0.811149	-0.329152
N89	N	1.572648	-0.910652	-0.709434
H90	H	1.519537	-0.892712	-0.762342
H91	H	1.644516	-0.891846	-0.729336
H92	H	1.774808	-0.176469	-0.907207
N93	N	1.792632	-0.163871	-1.120796
H94	H	1.749975	-0.129442	-1.166325
H95	H	1.835202	-0.133848	-1.069344
