data_functionalizedCrystal
_audit_creation_method	'MofGen! by Chris Wilmer'
_symmetry_space_group_name_H-M	'P1'
_symmetry_Int_Tables_number	1
_symmetry_cell_setting	triclinic
loop_
_symmetry_equiv_pos_as_xyz
  x,y,z
_cell_length_a	12.645330
_cell_length_b	12.759401
_cell_length_c	12.759393
_cell_angle_alpha	89.979062
_cell_angle_beta	90.028974
_cell_angle_gamma	89.980783
loop_
_atom_site_label
_atom_site_type_symbol
_atom_site_fract_x
_atom_site_fract_y
_atom_site_fract_z
Zn1	Zn	-0.421945	-1.606245	0.594031
Zn2	Zn	-0.599246	-1.606126	0.418356
Zn3	Zn	-0.422001	-1.430543	0.418366
Zn4	Zn	-0.599172	-1.430526	0.593993
O5	O	-0.510591	-1.518360	0.506187
O6	O	-0.445472	-1.753250	0.570739
O7	O	-0.575788	-1.582793	0.271336
O8	O	-0.273647	-1.453907	0.441689
O9	O	-0.575734	-1.753163	0.441671
O10	O	-0.273605	-1.582994	0.570749
O11	O	-0.445568	-1.453793	0.271344
O12	O	-0.445496	-1.283520	0.441652
O13	O	-0.575607	-1.453878	0.741019
O14	O	-0.575662	-1.283507	0.570684
O15	O	-0.445400	-1.582977	0.741047
O16	O	-0.747583	-1.582776	0.441634
O17	O	-0.747529	-1.453763	0.570674
C18	C	-0.786021	-1.518283	0.506172
C19	C	-0.903851	-1.518347	0.506201
C20	C	-0.510578	-1.245393	0.506166
C21	C	-0.510598	-1.128616	0.506182
C22	C	-0.510489	-1.518439	0.780220
C23	C	-0.510446	-1.518472	0.896997
C24	C	-1.071424	-1.437519	0.587630
C25	C	-0.948865	-1.437106	0.587368
C26	C	-0.948453	-1.488371	0.395479
C27	C	-1.071052	-1.487878	0.395973
C28	C	-1.070935	-1.629644	0.534596
C29	C	-0.948328	-1.628962	0.537017
C30	C	-0.234086	-1.518466	0.506224
C31	C	-0.116255	-1.518511	0.506241
C32	C	-0.510605	-1.792393	0.506208
C33	C	-0.510610	-1.909170	0.506217
C34	C	-0.578479	-1.073775	0.573263
C35	C	-0.578483	-0.964051	0.573284
C36	C	-0.442722	-0.964019	0.439133
C37	C	-0.442714	-1.073741	0.439118
C38	C	-0.510616	-1.518342	0.233219
C39	C	-0.510360	-1.518512	0.116443
C40	C	-0.442636	-1.585699	0.951875
C41	C	-0.442590	-1.585717	1.061599
C42	C	-0.578173	-1.451278	1.061557
C43	C	-0.578213	-1.451255	0.951835
H44	H	-0.918705	-1.455861	0.669468
Br45	Br	-0.670238	-1.360002	0.877350
Br46	Br	-1.120437	-1.468483	0.724924
Br47	Br	-1.122960	-1.301060	0.556749
Br48	Br	-1.119275	-1.730221	0.435811
Br49	Br	-0.350599	-0.889539	0.348123
Br50	Br	-0.670142	-1.360063	1.135987
H51	H	-0.917680	-1.692482	0.482054
H52	H	-0.633752	-1.118451	0.627873
Br53	Br	-0.350573	-1.148175	0.348083
H54	H	-0.633756	-0.919404	0.627910
Br55	Br	-1.120494	-1.581919	0.291448
Br56	Br	-1.118886	-1.352475	0.355935
H57	H	-0.387371	-1.640459	1.106276
Br58	Br	-0.900134	-1.299783	0.556067
H59	H	-0.387452	-1.640429	0.907229
H60	H	-0.919298	-1.545491	0.333180
Br61	Br	-0.897448	-1.354376	0.354714
H62	H	-0.919171	-1.651567	0.618502
Br63	Br	-1.122331	-1.675221	0.666878
