data_functionalizedCrystal
_audit_creation_method	'MofGen! by Chris Wilmer'
_symmetry_space_group_name_H-M	'P1'
_symmetry_Int_Tables_number	1
_symmetry_cell_setting	triclinic
loop_
_symmetry_equiv_pos_as_xyz
  x,y,z
_cell_length_a	12.837942
_cell_length_b	8.597213
_cell_length_c	7.088929
_cell_angle_alpha	91.336194
_cell_angle_beta	96.883014
_cell_angle_gamma	90.034777
loop_
_atom_site_label
_atom_site_type_symbol
_atom_site_fract_x
_atom_site_fract_y
_atom_site_fract_z
O1	O	0.187898	2.060074	0.498324
O2	O	0.194903	1.611665	0.424465
O3	O	0.040286	1.825928	0.459745
O4	O	0.342515	1.845811	0.463044
O5	O	0.019575	1.854555	0.146484
O6	O	0.174192	1.640292	0.111204
O7	O	0.167187	2.088701	0.185062
Cu8	Cu	0.168798	1.867110	0.119530
Cu9	Cu	0.193292	1.833256	0.489998
O10	O	0.321803	1.874438	0.149782
C11	C	0.182641	1.568186	0.258315
C12	C	0.176950	1.395979	0.229951
C13	C	-0.008832	1.833523	0.302009
C14	C	-0.124333	1.813487	0.298712
C15	C	-0.360189	2.054348	0.338425
C16	C	-0.468713	2.035530	0.335328
C17	C	-0.449907	1.757033	0.289437
C18	C	-0.341383	1.775851	0.292533
C19	C	-0.296528	1.924514	0.317025
C20	C	-0.188003	1.943332	0.320108
C21	C	-0.169198	1.664835	0.274230
C22	C	-0.277722	1.646016	0.271133
C23	C	0.370922	1.866842	0.307523
C24	C	0.486424	1.886877	0.310832
C25	C	0.179449	2.132180	0.351217
C26	C	0.185141	2.304385	0.379594
N27	N	0.151570	1.890933	-0.141036
N28	N	0.210511	1.809444	0.750565
H29	H	0.165586	1.342646	0.080132
H30	H	0.196516	1.357711	0.529402
C31	C	-0.138658	2.106854	0.347053
C32	C	-0.172100	2.234023	0.202900
C33	C	-0.122758	2.397548	0.229852
C34	C	-0.039974	2.433906	0.400957
C35	C	-0.006527	2.306734	0.545121
C36	C	-0.055869	2.143208	0.518169
H37	H	-0.233386	2.207112	0.076228
H38	H	-0.147518	2.491689	0.123132
H39	H	-0.003448	2.554957	0.420908
H40	H	0.054759	2.333644	0.671794
H41	H	-0.031108	2.049067	0.624890
H42	H	-0.323669	2.175397	0.358349
H43	H	-0.520542	2.141255	0.352760
C44	C	-0.499267	1.593518	0.262545
C45	C	-0.582069	1.557140	0.091473
C46	C	-0.631433	1.393625	0.064600
C47	C	-0.597995	1.266488	0.208797
C48	C	-0.515189	1.302862	0.379881
C49	C	-0.465825	1.466377	0.406754
H50	H	-0.606825	1.651257	-0.015281
H51	H	-0.692732	1.366699	-0.062048
H52	H	-0.634538	1.145444	0.188904
H53	H	-0.490433	1.208745	0.486635
H54	H	-0.404526	1.493303	0.533402
H55	H	0.271591	1.724989	-0.181695
H56	H	0.090494	1.975406	-0.208782
H57	H	-0.314257	1.524978	0.251200
H58	H	-0.117354	1.559115	0.256789
