data_functionalizedCrystal
_audit_creation_method	'MofGen! by Chris Wilmer'
_symmetry_space_group_name_H-M	'P1'
_symmetry_Int_Tables_number	1
_symmetry_cell_setting	triclinic
loop_
_symmetry_equiv_pos_as_xyz
  x,y,z
_cell_length_a	19.288859
_cell_length_b	12.996460
_cell_length_c	19.288865
_cell_angle_alpha	90.011375
_cell_angle_beta	83.134986
_cell_angle_gamma	90.006456
loop_
_atom_site_label
_atom_site_type_symbol
_atom_site_fract_x
_atom_site_fract_y
_atom_site_fract_z
O1	O	0.921352	0.085599	0.086629
O2	O	1.421352	0.585599	0.586629
O3	O	0.719091	0.085598	0.098322
O4	O	1.219091	0.585598	0.598322
O5	O	0.826066	0.085578	-0.008655
O6	O	1.326066	0.585578	0.491345
O7	O	0.814377	0.085619	0.193606
O8	O	1.314377	0.585619	0.693606
O9	O	0.826055	-0.085556	-0.008661
O10	O	1.326055	0.414444	0.491339
O11	O	0.719080	-0.085536	0.098316
O12	O	1.219080	0.414464	0.598316
O13	O	0.921341	-0.085535	0.086623
O14	O	1.421341	0.414465	0.586623
Cu15	Cu	0.820209	-0.101161	0.092469
Cu16	Cu	1.320209	0.398839	0.592469
Cu17	Cu	0.820222	0.101224	0.092476
Cu18	Cu	1.320222	0.601224	0.592476
O19	O	0.814366	-0.085515	0.193600
O20	O	1.314366	0.414485	0.693600
C21	C	0.693209	0.000031	0.097943
C22	C	1.193209	0.500031	0.597943
C23	C	0.616105	0.000030	0.096816
C24	C	1.116105	0.500030	0.596816
C25	C	0.052064	0.000042	0.151959
C26	C	0.552064	0.500042	0.651959
C27	C	0.124511	0.000048	0.153025
C28	C	0.624511	0.500048	0.653025
C29	C	0.169217	0.000033	0.090255
C30	C	0.669217	0.500033	0.590255
C31	C	0.141472	0.000039	0.026416
C32	C	0.641472	0.500039	0.526416
C33	C	0.069027	0.000044	0.025353
C34	C	0.569027	0.500044	0.525353
C35	C	0.290484	-0.059936	0.043440
C36	C	0.790484	0.440064	0.543440
C37	C	0.362927	-0.059947	0.044506
C38	C	0.862927	0.440053	0.544506
C39	C	0.392663	0.000023	0.093533
C40	C	0.892663	0.500023	0.593533
C41	C	0.349945	0.059991	0.141505
C42	C	0.849945	0.559991	0.641505
C43	C	0.277500	0.059996	0.140441
C44	C	0.777500	0.559996	0.640441
C45	C	0.247773	0.000029	0.091401
C46	C	0.747773	0.500029	0.591401
C47	C	0.498955	0.000030	0.158523
C48	C	0.998955	0.500030	0.658523
C49	C	0.571403	0.000042	0.159586
C50	C	1.071403	0.500042	0.659586
C51	C	0.588364	0.000024	0.032976
C52	C	1.088364	0.500024	0.532976
C53	C	0.515917	0.000022	0.031915
C54	C	1.015917	0.500022	0.531915
C55	C	0.471216	0.000020	0.094691
C56	C	0.971216	0.500020	0.594691
N57	N	0.820205	-0.243508	0.092463
N58	N	1.320205	0.256492	0.592463
C59	C	0.820221	-0.663323	0.092476
C60	C	1.320221	-0.163323	0.592476
C61	C	0.820215	-0.546518	0.092475
C62	C	1.320215	-0.046518	0.592475
C63	C	0.820214	-0.453419	0.092470
C64	C	1.320214	0.046581	0.592470
C65	C	0.820206	-0.336607	0.092468
C66	C	1.320206	0.163393	0.592468
C67	C	0.947223	0.000035	0.087001
C68	C	1.447223	0.500035	0.587001
C69	C	1.024327	0.000043	0.088128
C70	C	1.524327	0.500043	0.588128
C71	C	0.825684	0.000008	-0.034535
C72	C	1.325684	0.500008	0.465465
C73	C	0.824555	-0.000001	-0.111638
C74	C	1.324555	0.499999	0.388362
N75	N	0.820232	0.243571	0.092475
N76	N	1.320232	0.743571	0.592475
C77	C	0.887323	-0.000006	-0.156336
C78	C	1.387323	0.499994	0.343664
C79	C	0.886262	0.000011	-0.228783
C80	C	1.386262	0.500011	0.271217
C81	C	0.822430	0.000011	-0.256529
C82	C	1.322430	0.500011	0.243471
C83	C	0.759654	0.000022	-0.211822
C84	C	1.259654	0.500022	0.288178
C85	C	0.760716	0.000016	-0.139376
C86	C	1.260716	0.500016	0.360624
C87	C	0.772247	-0.059934	-0.364817
C88	C	1.272247	0.440066	0.135183
C89	C	0.771187	-0.059934	-0.437262
C90	C	1.271187	0.440066	0.062738
C91	C	0.819150	0.000034	-0.479975
C92	C	1.319150	0.500034	0.020025
C93	C	0.868186	0.059989	-0.450236
C94	C	1.368186	0.559989	0.049764
C95	C	0.869248	0.059983	-0.377790
C96	C	1.369248	0.559983	0.122210
C97	C	0.821271	0.000018	-0.335083
C98	C	1.321271	0.500018	0.164917
C99	C	0.880773	0.000048	-0.603228
C100	C	1.380773	0.500048	-0.103228
C101	C	0.879709	0.000071	-0.675676
C102	C	1.379709	0.500071	-0.175676
C103	C	0.753099	0.000072	-0.658713
C104	C	1.253099	0.500072	-0.158713
C105	C	0.754164	0.000059	-0.586267
C106	C	1.254164	0.500059	-0.086267
C107	C	0.818003	0.000043	-0.558529
C108	C	1.318003	0.500043	-0.058529
C109	C	0.814747	0.000057	0.219479
C110	C	1.314747	0.500057	0.719479
C111	C	0.815876	0.000073	0.296583
C112	C	1.315876	0.500073	0.796583
H113	H	0.624763	0.000020	-0.018132
H114	H	1.124763	0.500020	0.481868
H115	H	0.266280	-0.108773	0.003513
H116	H	0.766280	0.391227	0.503513
H117	H	0.709601	0.000019	-0.102982
H118	H	1.209601	0.500019	0.397018
H119	H	0.909173	0.108803	-0.353580
H120	H	1.409173	0.608803	0.146420
H121	H	0.177877	0.000030	-0.024691
H122	H	0.677877	0.500030	0.475309
N123	N	0.720517	-0.124615	-0.318743
N124	N	1.220517	0.375385	0.181257
H125	H	0.671459	-0.102238	-0.324795
H126	H	1.171459	0.397762	0.175205
H127	H	0.726860	-0.199408	-0.332250
H128	H	1.226860	0.300592	0.167750
N129	N	0.003879	-0.000023	0.219682
N130	N	0.503879	0.499977	0.719682
H131	H	0.012779	0.063396	0.247572
H132	H	0.512779	0.563396	0.747572
H133	H	-0.046214	-0.000082	0.209296
H134	H	0.453786	0.499918	0.709296
N135	N	0.154439	0.000049	0.221873
N136	N	0.654439	0.500049	0.721873
H137	H	0.115129	0.000050	0.261479
H138	H	0.615129	0.500050	0.761479
H139	H	0.184121	-0.063396	0.225061
H140	H	0.684121	0.436604	0.725061
H141	H	0.462558	0.000031	0.209639
H142	H	0.962558	0.500031	0.709639
H143	H	0.046445	0.000045	-0.026628
H144	H	0.546445	0.500045	0.473372
H145	H	0.493333	0.000016	-0.020063
H146	H	0.993333	0.500016	0.479937
N147	N	0.919926	0.124672	-0.496293
N148	N	1.419926	0.624672	0.003707
H149	H	0.911812	0.115585	-0.546699
H150	H	1.411812	0.615585	-0.046699
H151	H	0.913623	0.199454	-0.482744
H152	H	1.413623	0.699454	0.017256
N153	N	0.231426	0.124686	0.192168
N154	N	0.731426	0.624686	0.692168
H155	H	0.197364	0.078773	0.221557
H156	H	0.697364	0.578773	0.721557
H157	H	0.261301	0.162672	0.223341
H158	H	0.761301	0.662672	0.723341
N159	N	0.956179	-0.000016	-0.126427
N160	N	1.456179	0.499984	0.373573
H161	H	0.983672	0.063423	-0.142736
H162	H	1.483672	0.563423	0.357264
H163	H	0.947277	-0.000058	-0.073754
H164	H	1.447277	0.499942	0.426246
N165	N	0.690802	0.000020	-0.241738
N166	N	1.190802	0.500020	0.258262
H167	H	0.687544	0.063460	-0.271409
H168	H	1.187544	0.563460	0.228591
H169	H	0.687575	-0.063461	-0.271390
H170	H	1.187575	0.436539	0.228610
N171	N	0.408998	-0.124635	-0.007224
N172	N	0.908998	0.375365	0.492776
H173	H	0.379170	-0.162618	-0.038448
H174	H	0.879170	0.337382	0.461552
H175	H	0.443055	-0.078657	-0.036561
H176	H	0.943055	0.421343	0.463439
H177	H	0.937377	0.000011	-0.265183
H178	H	1.437377	0.500011	0.234817
H179	H	0.593984	0.000051	0.211567
H180	H	1.093984	0.500051	0.711567
N181	N	0.684254	0.000064	-0.688638
N182	N	1.184254	0.500064	-0.188638
H183	H	0.656762	-0.063378	-0.672334
H184	H	1.156762	0.436622	-0.172334
H185	H	0.656820	0.063543	-0.672308
H186	H	1.156820	0.563543	-0.172308
N187	N	0.382004	0.124674	0.194392
N188	N	0.882004	0.624674	0.694392
H189	H	0.434379	0.115578	0.187787
H190	H	0.934379	0.615578	0.687787
H191	H	0.370215	0.199458	0.187718
H192	H	0.870215	0.699458	0.687718
H193	H	0.930825	0.000073	-0.712069
H194	H	1.430825	0.500073	-0.212069
N195	N	0.949623	0.000035	-0.573304
N196	N	1.449623	0.500035	-0.073304
H197	H	0.989227	0.000043	-0.612616
H198	H	1.489227	0.500043	-0.112616
H199	H	0.952825	0.063470	-0.543601
H200	H	1.452825	0.563470	-0.043601
N201	N	0.686464	0.000058	-0.538052
N202	N	1.186464	0.500058	-0.038052
H203	H	0.645864	0.000061	-0.566619
H204	H	1.145864	0.500061	-0.066619
H205	H	0.684143	-0.063386	-0.507635
H206	H	1.184143	0.436614	-0.007635
H207	H	0.731256	-0.108747	-0.461469
H208	H	1.231256	0.391253	0.038531
