data_functionalizedCrystal
_audit_creation_method	'MofGen! by Chris Wilmer'
_symmetry_space_group_name_H-M	'P1'
_symmetry_Int_Tables_number	1
_symmetry_cell_setting	triclinic
loop_
_symmetry_equiv_pos_as_xyz
  x,y,z
_cell_length_a	27.731994
_cell_length_b	27.732048
_cell_length_c	10.268362
_cell_angle_alpha	89.989776
_cell_angle_beta	90.001501
_cell_angle_gamma	82.631595
loop_
_atom_site_label
_atom_site_type_symbol
_atom_site_fract_x
_atom_site_fract_y
_atom_site_fract_z
O1	O	0.640944	0.057393	-0.108128
O2	O	0.500147	0.066165	-0.108174
O3	O	0.574919	-0.008619	-0.108125
O4	O	0.566173	0.132177	-0.108177
O5	O	0.574912	-0.008622	0.108476
O6	O	0.500141	0.066162	0.108427
O7	O	0.640938	0.057390	0.108472
Cu8	Cu	0.570539	0.061776	0.128227
Cu9	Cu	0.570546	0.061779	-0.127928
O10	O	0.566166	0.132174	0.108423
C11	C	0.574732	-0.026627	0.000179
C12	C	0.574179	-0.080282	0.000190
C13	C	0.482137	0.065984	0.000121
C14	C	0.428480	0.065442	0.000105
C15	C	0.095758	0.062024	0.118226
C16	C	-0.105900	0.059963	0.118241
O17	O	-0.131975	0.059674	0.218654
N18	N	-0.131111	0.059708	0.000172
C19	C	-0.105904	0.059966	-0.117909
O20	O	-0.131975	0.059697	-0.218333
C21	C	0.095753	0.062024	-0.117923
C22	C	0.120961	0.062283	0.000154
C23	C	0.120966	0.062283	0.236292
C24	C	0.171378	0.062801	0.236287
C25	C	0.196581	0.063060	0.118215
C26	C	0.171372	0.062801	0.000148
C27	C	0.120960	0.062279	-0.236003
C28	C	0.171377	0.062792	-0.235996
C29	C	0.196585	0.063051	-0.117919
C30	C	0.246987	0.063579	-0.117929
N31	N	0.272198	0.063833	0.000140
C32	C	0.246995	0.063574	0.118212
C33	C	-0.211778	0.058886	-0.117893
C34	C	-0.262192	0.058373	-0.117890
C35	C	-0.262184	0.058368	0.118261
C36	C	-0.211769	0.058886	0.118256
C37	C	-0.186566	0.059141	0.000176
C38	C	0.352862	0.064662	0.118193
C39	C	0.403277	0.065182	0.118177
C40	C	0.403265	0.065184	-0.117973
C41	C	0.352854	0.064667	-0.117958
C42	C	0.327654	0.064404	0.000135
O43	O	0.273094	0.063862	-0.218289
O44	O	0.273075	0.063832	0.218622
C45	C	0.045347	0.061506	0.118231
C46	C	0.020139	0.061247	0.000164
C47	C	0.045342	0.061507	-0.117908
C48	C	-0.030275	0.060734	0.000167
C49	C	-0.055478	0.060474	0.118239
C50	C	-0.030267	0.060729	0.236308
C51	C	0.020144	0.061247	0.236303
C52	C	0.020131	0.061252	-0.235977
C53	C	-0.030281	0.060735	-0.235962
C54	C	-0.055484	0.060476	-0.117890
C55	C	0.614884	-0.419105	0.000136
C56	C	0.612833	-0.620764	0.000117
O57	O	0.650055	-0.652027	0.000072
N58	N	0.568496	-0.639879	0.000104
C59	C	0.524670	-0.608576	0.000087
O60	O	0.486912	-0.629462	0.000062
C61	C	0.526721	-0.406918	0.000097
C62	C	0.571061	-0.387805	0.000123
C63	C	0.659220	-0.399992	0.000161
C64	C	0.659732	-0.349580	0.000172
C65	C	0.615908	-0.318281	0.000159
C66	C	0.571573	-0.337394	0.000135
C67	C	0.482895	-0.375615	0.000070
C68	C	0.483412	-0.325198	0.000069
C69	C	0.527751	-0.306086	0.000096
C70	C	0.528262	-0.255683	0.000133
N71	N	0.572598	-0.236567	0.000146
C72	C	0.616421	-0.267867	0.000159
C73	C	0.523596	-0.714450	0.000085
C74	C	0.523083	-0.764864	0.000085
C75	C	0.611246	-0.777049	0.000112
C76	C	0.611759	-0.726633	0.000121
C77	C	0.567932	-0.695335	0.000098
C78	C	0.617494	-0.161998	0.000185
C79	C	0.618002	-0.111581	0.000203
C80	C	0.529839	-0.099401	0.000168
C81	C	0.529331	-0.149813	0.000158
C82	C	0.573162	-0.181111	0.000162
O83	O	0.491060	-0.224391	0.000164
O84	O	0.654174	-0.246971	0.000155
C85	C	0.614372	-0.469517	0.000124
C86	C	0.570036	-0.488629	0.000099
C87	C	0.526213	-0.457330	0.000086
C88	C	0.569523	-0.539043	0.000099
C89	C	0.613346	-0.570343	0.000112
C90	C	0.657683	-0.551228	0.000125
C91	C	0.658195	-0.500816	0.000137
C92	C	0.481876	-0.476445	0.000073
C93	C	0.481367	-0.526857	0.000063
C94	C	0.525191	-0.558157	0.000076
C95	C	0.658949	0.057571	0.000175
C96	C	0.712605	0.058114	0.000182
C97	C	0.566353	0.150182	0.000117
C98	C	0.566906	0.203837	0.000098
N99	N	0.570537	0.061773	0.308393
N100	N	0.570552	0.061778	-0.308094
C101	C	0.570544	0.061778	0.574063
C102	C	0.570538	0.061777	0.426225
H103	H	0.423799	0.065395	0.214333
H104	H	0.040664	0.061458	0.332453
H105	H	0.653186	-0.187475	0.000184
H106	H	-0.282713	0.058169	-0.214040
O107	O	0.702816	-0.331043	-0.000046
C108	C	0.729511	-0.347077	-0.112205
H109	H	0.703575	-0.357359	-0.190616
H110	H	0.749851	-0.316690	-0.149856
H111	H	0.756692	-0.380147	-0.086838
H112	H	0.694908	-0.425472	0.000166
O113	O	0.654872	-0.708150	0.000076
C114	C	0.693438	-0.746592	0.000124
H115	H	0.680146	-0.780739	-0.040880
H116	H	0.724419	-0.736290	-0.062755
H117	H	0.706935	-0.753833	0.104043
O118	O	0.427798	0.065500	-0.232577
C119	C	0.451159	0.107684	-0.239674
H120	H	0.456775	0.121727	-0.137165
H121	H	0.487915	0.098626	-0.289624
H122	H	0.427678	0.136811	-0.297970
O123	O	-0.054763	0.060389	0.350972
C124	C	-0.078140	0.018214	0.358020
H125	H	-0.058896	-0.010898	0.291027
H126	H	-0.076770	0.004146	0.462451
H127	H	-0.117657	0.027291	0.326284
H128	H	0.646929	-0.802541	0.000123
O129	O	-0.286607	0.058049	0.233043
C130	C	-0.268504	0.016283	0.304858
H131	H	-0.229969	0.002698	0.271292
H132	H	-0.268083	0.025711	0.412875
H133	H	-0.292821	-0.013333	0.288482
O134	O	0.479969	-0.783346	0.000016
C135	C	0.441403	-0.744904	0.000034
H136	H	0.454697	-0.710752	-0.040965
H137	H	0.410426	-0.755200	-0.062865
H138	H	0.427900	-0.737674	0.103943
O139	O	0.661033	-0.092936	0.000278
C140	C	0.652093	-0.041727	0.000253
H141	H	0.614279	-0.029605	0.041252
H142	H	0.680440	-0.026466	0.063147
H143	H	0.654330	-0.027700	-0.103659
O144	O	0.481051	-0.684000	0.000243
C145	C	0.478699	-0.654489	0.112438
H146	H	0.517046	-0.652224	0.149847
H147	H	0.460398	-0.616459	0.087204
H148	H	0.456749	-0.670920	0.190985
O149	O	0.701279	-0.482277	-0.000078
C150	C	0.727975	-0.498310	-0.112235
H151	H	0.702041	-0.508593	-0.190649
H152	H	0.748314	-0.467922	-0.149882
H153	H	0.755157	-0.531379	-0.086867
O154	O	0.439780	-0.394092	-0.000019
C155	C	0.401218	-0.355647	-0.000006
H156	H	0.414517	-0.321497	-0.040997
H157	H	0.370241	-0.365939	-0.062915
H158	H	0.387711	-0.348418	0.103900
H159	H	0.447722	-0.299716	0.000048
H160	H	0.693365	-0.576720	0.000141
H161	H	0.493226	-0.165375	0.000173
H162	H	0.332349	0.064453	0.214355
O163	O	-0.054809	0.060419	-0.350588
C164	C	-0.078164	0.018231	-0.357648
H165	H	-0.083787	0.004193	-0.255126
H166	H	-0.114917	0.027283	-0.407635
H167	H	-0.054675	-0.010896	-0.415892
H168	H	0.494160	-0.073908	0.000162
O169	O	0.438250	-0.545339	-0.000018
C170	C	0.399684	-0.506897	0.000002
H171	H	0.412980	-0.472744	-0.040982
H172	H	0.368709	-0.517190	-0.062908
H173	H	0.386178	-0.499671	0.103910
H174	H	0.191895	0.063000	-0.332153
O175	O	0.439316	-0.446026	-0.000165
C176	C	0.436975	-0.416479	-0.112320
H177	H	0.461838	-0.435117	-0.190728
H178	H	0.397994	-0.410521	-0.149981
H179	H	0.449198	-0.379907	-0.086944
H180	H	0.191898	0.063009	0.332438
H181	H	0.040646	0.061462	-0.332128
H182	H	0.100452	0.062071	0.332446
H183	H	-0.191248	0.059097	0.214404
O184	O	0.328405	0.064487	-0.232734
C185	C	0.334915	0.106504	-0.304562
H186	H	0.369588	0.120843	-0.270998
H187	H	0.337939	0.097106	-0.412576
H188	H	0.302484	0.135536	-0.288195
O189	O	-0.187334	0.059224	-0.232639
C190	C	-0.205460	0.100975	-0.304486
H191	H	-0.223359	0.130103	-0.235399
H192	H	-0.174254	0.115372	-0.358069
H193	H	-0.233421	0.091210	-0.378087
O194	O	0.096559	0.062000	-0.350821
C195	C	0.129623	0.062347	-0.455017
H196	H	0.167676	0.047410	-0.420370
H197	H	0.118312	0.038714	-0.537581
H198	H	0.129619	0.101194	-0.491357
