data_functionalizedCrystal
_audit_creation_method	'MofGen! by Chris Wilmer'
_symmetry_space_group_name_H-M	'P1'
_symmetry_Int_Tables_number	1
_symmetry_cell_setting	triclinic
loop_
_symmetry_equiv_pos_as_xyz
  x,y,z
_cell_length_a	29.839125
_cell_length_b	21.295418
_cell_length_c	21.295417
_cell_angle_alpha	90.046319
_cell_angle_beta	90.018987
_cell_angle_gamma	90.031451
loop_
_atom_site_label
_atom_site_type_symbol
_atom_site_fract_x
_atom_site_fract_y
_atom_site_fract_z
Zn1	Zn	-0.254235	-0.962279	0.250432
Zn2	Zn	0.245765	-0.462279	0.750432
Zn3	Zn	-0.179103	-0.962204	0.355679
Zn4	Zn	0.320897	-0.462204	0.855679
Zn5	Zn	-0.179092	-0.857025	0.250456
Zn6	Zn	0.320908	-0.357025	0.750456
Zn7	Zn	-0.254179	-0.856972	0.355696
Zn8	Zn	0.245821	-0.356972	0.855696
O9	O	-0.216652	-0.909620	0.303066
O10	O	0.283348	-0.409620	0.803066
O11	O	-0.244296	-1.050359	0.264375
O12	O	0.255704	-0.550359	0.764375
O13	O	-0.116234	-0.948243	0.341724
O14	O	0.383766	-0.448243	0.841724
O15	O	-0.189078	-0.871041	0.162364
O16	O	0.310922	-0.371041	0.662364
O17	O	-0.189097	-1.050304	0.341700
O18	O	0.310903	-0.550304	0.841700
O19	O	-0.244285	-0.948371	0.162346
O20	O	0.255715	-0.448371	0.662346
O21	O	-0.116226	-0.870968	0.264417
O22	O	0.383774	-0.370968	0.764417
O23	O	-0.189024	-0.768929	0.264434
O24	O	0.310976	-0.268929	0.764434
O25	O	-0.317053	-0.870950	0.341730
O26	O	0.182947	-0.370950	0.841730
O27	O	-0.244190	-0.768890	0.341753
O28	O	0.255810	-0.268890	0.841753
O29	O	-0.317094	-0.948319	0.264392
O30	O	0.182906	-0.448319	0.764392
O31	O	-0.189043	-0.948191	0.443770
O32	O	0.310957	-0.448191	0.943770
O33	O	-0.244201	-0.870878	0.443783
O34	O	0.255799	-0.370878	0.943783
C35	C	-0.216600	-0.746069	0.303099
C36	C	0.283400	-0.246069	0.803099
C37	C	-0.216589	-0.676100	0.303128
C38	C	0.283411	-0.176100	0.803128
C39	C	-0.333830	-0.909637	0.303060
C40	C	0.166170	-0.409637	0.803060
C41	C	-0.383765	-0.909644	0.303058
C42	C	0.116235	-0.409644	0.803058
C43	C	-0.216627	-0.909538	0.466617
C44	C	0.283373	-0.409538	0.966617
C45	C	-0.216632	-0.909560	0.536586
C46	C	0.283368	-0.409560	1.036586
C47	C	-0.693433	-0.949973	0.262683
C48	C	-0.193433	-0.449973	0.762683
C49	C	-0.881106	-0.950004	0.262629
C50	C	-0.381106	-0.450004	0.762629
O51	O	-0.905391	-0.984246	0.228360
O52	O	-0.405391	-0.484246	0.728360
N53	N	-0.904550	-0.909728	0.302889
N54	N	-0.404550	-0.409728	0.802889
C55	C	-0.881073	-0.869438	0.343163
C56	C	-0.381073	-0.369438	0.843163
O57	O	-0.905320	-0.835177	0.377400
O58	O	-0.405320	-0.335177	0.877400
C59	C	-0.693401	-0.869404	0.343213
C60	C	-0.193401	-0.369404	0.843213
C61	C	-0.669959	-0.909688	0.302954
C62	C	-0.169959	-0.409688	0.802954
C63	C	-0.669991	-0.990252	0.222427
C64	C	-0.169991	-0.490252	0.722427
C65	C	-0.623075	-0.990247	0.222444
C66	C	-0.123075	-0.490247	0.722444
C67	C	-0.599602	-0.949961	0.262715
C68	C	-0.099602	-0.449961	0.762715
C69	C	-0.623044	-0.909682	0.302971
C70	C	-0.123044	-0.409682	0.802971
C71	C	-0.669925	-0.829112	0.383482
C72	C	-0.169925	-0.329112	0.883482
C73	C	-0.623004	-0.829106	0.383490
C74	C	-0.123004	-0.329106	0.883490
C75	C	-0.599562	-0.869389	0.343232
C76	C	-0.099562	-0.369389	0.843232
C77	C	-0.552655	-0.869391	0.343259
C78	C	-0.052655	-0.369391	0.843259
N79	N	-0.529210	-0.909667	0.302998
N80	N	-0.029210	-0.409667	0.802998
C81	C	-0.552684	-0.949952	0.262727
C82	C	-0.052684	-0.449952	0.762727
C83	C	-0.979604	-0.869460	0.343134
C84	C	-0.479604	-0.369460	0.843134
C85	C	-1.026522	-0.869469	0.343123
C86	C	-0.526522	-0.369469	0.843123
C87	C	-1.026551	-0.950034	0.262588
C88	C	-0.526551	-0.450034	0.762588
C89	C	-0.979632	-0.950028	0.262603
C90	C	-0.479632	-0.450028	0.762603
C91	C	-0.956160	-0.909736	0.302874
C92	C	-0.456160	-0.409736	0.802874
C93	C	-0.454158	-0.949937	0.262764
C94	C	0.045842	-0.449937	0.762764
C95	C	-0.407238	-0.949930	0.262786
C96	C	0.092762	-0.449930	0.762786
C97	C	-0.407213	-0.869363	0.343318
C98	C	0.092787	-0.369363	0.843318
C99	C	-0.454129	-0.869372	0.343299
C100	C	0.045871	-0.369372	0.843299
C101	C	-0.477600	-0.909662	0.303017
C102	C	0.022400	-0.409662	0.803017
O103	O	-0.528340	-0.835162	0.377504
O104	O	-0.028340	-0.335162	0.877504
O105	O	-0.528429	-0.984198	0.228484
O106	O	-0.028429	-0.484198	0.728484
C107	C	-0.740348	-0.949979	0.262667
C108	C	-0.240348	-0.449979	0.762667
C109	C	-0.763790	-0.909699	0.302922
C110	C	-0.263790	-0.409699	0.802922
C111	C	-0.740317	-0.869414	0.343194
C112	C	-0.240317	-0.369414	0.843194
C113	C	-0.810708	-0.909708	0.302910
C114	C	-0.310708	-0.409708	0.802910
C115	C	-0.834182	-0.949994	0.262639
C116	C	-0.334182	-0.449994	0.762639
C117	C	-0.810737	-0.990270	0.222379
C118	C	-0.310737	-0.490270	0.722379
C119	C	-0.763822	-0.990264	0.222395
C120	C	-0.263822	-0.490264	0.722395
C121	C	-0.763761	-0.829138	0.383454
C122	C	-0.263761	-0.329138	0.883454
C123	C	-0.810676	-0.829147	0.383435
C124	C	-0.310676	-0.329147	0.883435
C125	C	-0.834150	-0.869433	0.343163
C126	C	-0.334150	-0.369433	0.843163
C127	C	-0.099930	-0.909639	0.303026
C128	C	0.400070	-0.409639	0.803026
C129	C	-0.049995	-0.909754	0.302851
C130	C	0.450005	-0.409754	0.802851
C131	C	-0.216704	-1.073811	0.303033
C132	C	0.283296	-0.573811	0.803033
C133	C	-0.216726	-1.143779	0.303019
C134	C	0.283274	-0.643779	0.803019
C135	C	-0.245271	-0.643230	0.343442
C136	C	0.254729	-0.143230	0.843442
C137	C	-0.245291	-0.577487	0.343426
C138	C	0.254709	-0.077487	0.843426
C139	C	-0.216621	-0.544618	0.303104
C140	C	0.283379	-0.044618	0.803104
C141	C	-0.187937	-0.577496	0.262783
C142	C	0.312063	-0.077496	0.762783
C143	C	-0.187921	-0.643238	0.262795
C144	C	0.312079	-0.143238	0.762795
N145	N	-0.177328	-0.441354	0.298174
N146	N	0.322672	0.058646	0.798174
N147	N	-0.177345	-0.378902	0.298166
N148	N	0.322655	0.121098	0.798166
C149	C	-0.216669	-0.346543	0.303064
C150	C	0.283331	0.153457	0.803064
N151	N	-0.255977	-0.378995	0.307982
N152	N	0.244023	0.121005	0.807982
N153	N	-0.255960	-0.441452	0.307993
N154	N	0.244040	0.058548	0.807993
C155	C	-0.216636	-0.473333	0.303086
C156	C	0.283364	0.026667	0.803086
C157	C	-0.245375	-0.242387	0.343362
C158	C	0.254625	0.257613	0.843362
C159	C	-0.245396	-0.176644	0.343342
C160	C	0.254604	0.323356	0.843342
C161	C	-0.188038	-0.176654	0.262702
C162	C	0.311962	0.323346	0.762702
C163	C	-0.188021	-0.242396	0.262719
C164	C	0.311979	0.257604	0.762719
C165	C	-0.216689	-0.275259	0.303052
C166	C	0.283311	0.224741	0.803052
C167	C	-0.216687	-0.909720	0.138875
C168	C	0.283313	-0.409720	0.638875
C169	C	-0.216702	-0.909763	0.068907
C170	C	0.283298	-0.409763	0.568907
C171	C	-0.187940	-0.949853	0.569425
C172	C	0.312060	-0.449853	1.069425
C173	C	-0.187950	-0.949883	0.635167
C174	C	0.312050	-0.449883	1.135167
C175	C	-0.216647	-0.909608	0.668068
C176	C	0.283353	-0.409608	1.168068
C177	C	-0.245344	-0.869312	0.635221
C178	C	0.254656	-0.369312	1.135221
C179	C	-0.245336	-0.869288	0.569480
C180	C	0.254664	-0.369288	1.069480
N181	N	-0.220055	-0.854540	0.771350
N182	N	0.279945	-0.354540	1.271350
N183	N	-0.220059	-0.854564	0.833801
N184	N	0.279941	-0.354564	1.333801
C185	C	-0.216673	-0.909678	0.866143
C186	C	0.283327	-0.409678	1.366143
N187	N	-0.213273	-0.964768	0.833673
N188	N	0.286727	-0.464768	1.333673
N189	N	-0.213266	-0.964743	0.771216
N190	N	0.286734	-0.464743	1.271216
C191	C	-0.216659	-0.909629	0.739353
C192	C	0.283341	-0.409629	1.239353
C193	C	-0.187991	-0.950007	0.970267
C194	C	0.312009	-0.450007	1.470267
C195	C	-0.188004	-0.950037	1.036011
C196	C	0.311996	-0.450037	1.536011
C197	C	-0.245395	-0.869461	1.036064
C198	C	0.254605	-0.369461	1.536064
C199	C	-0.245385	-0.869436	0.970321
C200	C	0.254615	-0.369436	1.470321
C201	C	-0.216680	-0.909708	0.937427
C202	C	0.283320	-0.409708	1.437427
H203	H	-0.388154	-0.982736	0.230002
H204	H	0.111846	-0.482736	0.730002
C205	C	-0.276808	-0.679375	0.387808
C206	C	0.223192	-0.179375	0.887808
N207	N	-0.300563	-0.706601	0.421224
N208	N	0.199437	-0.206601	0.921224
H209	H	-0.164587	-0.982696	0.661910
H210	H	0.335413	-0.482696	1.161910
H211	H	-0.744654	-0.796333	0.416249
H212	H	-0.244654	-0.296333	0.916249
H213	H	-0.164568	-0.982646	0.542644
H214	H	0.335432	-0.482646	1.042644
C215	C	-0.276843	-0.541323	0.387778
C216	C	0.223157	-0.041323	0.887778
N217	N	-0.300608	-0.514085	0.421185
N218	N	0.199392	-0.014085	0.921185
H219	H	-0.268710	-0.836521	0.662013
H220	H	0.231290	-0.336521	1.162013
C221	C	-0.479916	-0.825063	0.387588
C222	C	0.020084	-0.325063	0.887588
N223	N	-0.499335	-0.791684	0.420944
N224	N	0.000665	-0.291684	0.920944
H225	H	-1.045671	-0.982836	0.229798
H226	H	-0.545671	-0.482836	0.729798
C227	C	-0.156501	-0.140501	0.218347
C228	C	0.343499	0.359499	0.718347
N229	N	-0.132747	-0.113268	0.184936
N230	N	0.367253	0.386732	0.684936
H231	H	-0.268701	-0.836476	0.542742
H232	H	0.231299	-0.336476	1.042742
H233	H	-0.603993	-1.023048	0.189660
H234	H	-0.103993	-0.523048	0.689660
C235	C	-0.953790	-0.825133	0.387439
C236	C	-0.453790	-0.325133	0.887439
N237	N	-0.934349	-0.791748	0.420811
N238	N	-0.434349	-0.291748	0.920811
H239	H	-0.164619	-0.982801	0.943484
H240	H	0.335381	-0.482801	1.443484
H241	H	-0.164595	-0.550730	0.229951
H242	H	0.335405	-0.050730	0.729951
C243	C	-0.156365	-0.679396	0.218448
C244	C	0.343635	-0.179396	0.718448
N245	N	-0.132595	-0.706632	0.185047
N246	N	0.367405	-0.206632	0.685047
H247	H	-0.164641	-0.982853	1.062747
H248	H	0.335359	-0.482853	1.562747
C249	C	-0.836457	-0.784829	0.427724
C250	C	-0.336457	-0.284829	0.927724
N251	N	-0.855874	-0.751444	0.461078
N252	N	-0.355874	-0.251444	0.961078
H253	H	-0.268763	-0.836671	1.062851
H254	H	0.231237	-0.336671	1.562851
C255	C	-0.276947	-0.140486	0.387698
C256	C	0.223053	0.359514	0.887698
N257	N	-0.300709	-0.113252	0.421111
N258	N	0.199291	0.386748	0.921111
C259	C	-0.479970	-0.994261	0.218456
C260	C	0.020030	-0.494261	0.718456
N261	N	-0.499411	-1.027650	0.185086
N262	N	0.000589	-0.527650	0.685086
C263	C	-0.695804	-1.034576	0.178124
C264	C	-0.195804	-0.534576	0.678124
N265	N	-0.715244	-1.067967	0.144755
N266	N	-0.215244	-0.567967	0.644755
H267	H	-0.960549	-0.982829	0.229821
H268	H	-0.460549	-0.482829	0.729821
H269	H	-0.268746	-0.836623	0.943582
H270	H	0.231254	-0.336623	1.443582
H271	H	-0.689003	-0.796309	0.416265
H272	H	-0.189003	-0.296309	0.916265
C273	C	-1.052303	-0.825159	0.387414
C274	C	-0.552303	-0.325159	0.887414
N275	N	-1.071719	-0.791780	0.420773
N276	N	-0.571719	-0.291780	0.920773
H277	H	-0.603895	-0.796288	0.416277
H278	H	-0.103895	-0.296288	0.916277
C279	C	-0.381383	-0.825048	0.387611
C280	C	0.118617	-0.325048	0.887611
N281	N	-0.361927	-0.791665	0.420969
N282	N	0.138073	-0.291665	0.920969
H283	H	-0.164663	-0.269160	0.229894
H284	H	0.335337	0.230840	0.729894
C285	C	-0.836567	-1.034581	0.178077
C286	C	-0.336567	-0.534581	0.678077
N287	N	-0.856025	-1.067950	0.144706
N288	N	-0.356025	-0.567950	0.644706
H289	H	-0.744740	-1.023066	0.189612
H290	H	-0.244740	-0.523066	0.689612
C291	C	-0.276915	-0.278539	0.387722
C292	C	0.223085	0.221461	0.887722
N293	N	-0.300673	-0.305766	0.421133
N294	N	0.199327	0.194234	0.921133
