data_functionalizedCrystal
_audit_creation_method	'MofGen! by Chris Wilmer'
_symmetry_space_group_name_H-M	'P1'
_symmetry_Int_Tables_number	1
_symmetry_cell_setting	triclinic
loop_
_symmetry_equiv_pos_as_xyz
  x,y,z
_cell_length_a	16.992694
_cell_length_b	17.038272
_cell_length_c	15.455313
_cell_angle_alpha	92.858370
_cell_angle_beta	87.142206
_cell_angle_gamma	90.889890
loop_
_atom_site_label
_atom_site_type_symbol
_atom_site_fract_x
_atom_site_fract_y
_atom_site_fract_z
O1	O	1.054714	0.163265	-0.072022
O2	O	0.826308	0.161438	-0.072048
O3	O	0.939153	0.048451	-0.072029
O4	O	0.941869	0.276252	-0.072042
O5	O	0.932698	0.054884	0.072232
O6	O	0.819853	0.167870	0.072213
O7	O	1.048259	0.169698	0.072239
Cu8	Cu	0.933466	0.169371	0.085398
Cu9	Cu	0.941100	0.161764	-0.085207
O10	O	0.935414	0.282684	0.072219
C11	C	0.793711	0.162304	0.000079
C12	C	0.706200	0.155293	0.000070
C13	C	0.660471	0.222933	0.000066
C14	C	0.578245	0.216342	0.000079
C15	C	0.541748	0.142110	0.000088
C16	C	0.587482	0.074465	0.000094
C17	C	0.669707	0.081058	0.000088
C18	C	0.296326	0.114789	0.000113
C19	C	0.214095	0.108202	0.000117
C20	C	0.204863	0.250079	0.000103
C21	C	0.287091	0.256665	0.000091
C22	C	0.332818	0.189020	0.000102
N23	N	0.457699	0.135371	0.000098
N24	N	0.416865	0.195760	0.000098
C25	C	0.933456	0.022384	0.000102
C26	C	0.926089	-0.064871	0.000101
C27	C	0.993729	-0.110741	0.000109
C28	C	0.986802	-0.192726	0.000100
C29	C	0.912235	-0.228840	0.000089
C30	C	0.844590	-0.182964	0.000078
C31	C	0.851518	-0.100981	0.000080
C32	C	0.887761	-0.476134	0.000074
C33	C	0.880838	-0.558124	0.000074
C34	C	1.023051	-0.567881	0.000095
C35	C	1.029972	-0.485895	0.000103
C36	C	0.962327	-0.440026	0.000087
C37	C	0.905153	-0.312642	0.000082
C38	C	0.969410	-0.356226	0.000087
C39	C	1.080856	0.168831	0.000109
C40	C	1.168367	0.175842	0.000113
C41	C	0.941110	0.308751	0.000087
C42	C	0.948478	0.396006	0.000082
N43	N	0.928103	0.174722	0.205393
N44	N	0.946469	0.156408	-0.205202
C45	C	0.976063	0.126741	0.250795
C46	C	0.972014	0.130795	0.341602
C47	C	0.920010	0.182835	0.387005
C48	C	0.872045	0.230817	0.341597
C49	C	0.876090	0.226759	0.250791
C50	C	0.902549	0.200332	0.658584
C51	C	0.898510	0.204388	0.749396
C52	C	0.998479	0.104365	0.749395
C53	C	1.002522	0.100314	0.658588
C54	C	0.954554	0.148294	0.613187
N55	N	0.915872	0.186981	0.479825
N56	N	0.958688	0.144143	0.520369
H57	H	0.167624	0.305152	0.000096
H58	H	1.037531	0.065301	0.786369
C59	C	0.824127	-0.351709	0.000030
C60	C	0.766367	-0.293995	0.000005
C61	C	0.691718	-0.329957	-0.000059
H62	H	0.816110	-0.381248	0.050319
H63	H	0.820684	-0.385706	-0.050301
H64	H	0.769807	-0.260012	0.050331
H65	H	0.774358	-0.264453	-0.050280
H66	H	0.688275	-0.363954	-0.050390
H67	H	0.683709	-0.359495	0.050231
H68	H	0.652520	-0.290805	-0.000083
H69	H	0.184383	0.047750	0.000123
H70	H	0.706939	0.025978	0.000090
H71	H	0.783876	-0.212375	0.000063
C72	C	0.346002	0.041384	0.000291
C73	C	0.390152	0.044319	0.074517
C74	C	0.435919	-0.023294	0.074713
H75	H	0.380580	0.038698	-0.049960
H76	H	0.312514	-0.003789	0.000339
H77	H	0.423636	0.089480	0.074461
H78	H	0.355594	0.046994	0.124780
H79	H	0.402432	-0.068467	0.074761
H80	H	0.470493	-0.025975	0.024459
H81	H	0.465875	-0.021316	0.125078
H82	H	0.690181	0.283381	0.000058
H83	H	0.856159	0.246768	0.786359
H84	H	0.796438	-0.063634	0.000073
H85	H	1.030124	-0.326819	0.000077
H86	H	0.557760	0.014025	0.000114
H87	H	1.018414	0.084369	0.213834
C88	C	1.074762	-0.071685	0.000074
C89	C	1.132515	-0.129409	0.000054
C90	C	1.207174	-0.093463	0.000005
H91	H	1.078285	-0.037670	0.050368
H92	H	1.082711	-0.042167	-0.050253
H93	H	1.124568	-0.158913	0.050375
H94	H	1.129017	-0.163426	-0.050236
H95	H	1.215123	-0.063946	-0.050322
H96	H	1.210689	-0.059450	0.050300
H97	H	1.246368	-0.132624	-0.000017
C98	C	1.096582	-0.617544	0.000144
C99	C	1.163365	-0.568368	0.000173
C100	C	1.231119	-0.614089	0.000226
H101	H	1.099196	-0.651977	-0.050151
H102	H	1.094631	-0.647475	0.050470
H103	H	1.165316	-0.538450	-0.050147
H104	H	1.160777	-0.533935	0.050464
H105	H	1.229168	-0.644020	0.050551
H106	H	1.233725	-0.648520	-0.050070
H107	H	1.276439	-0.580730	0.000254
H108	H	1.041882	-0.230070	0.000109
C109	C	1.110891	-0.446594	-0.000026
C110	C	1.122338	-0.403101	-0.074232
C111	C	1.196868	-0.366881	-0.074372
H112	H	1.150256	-0.485575	-0.000068
H113	H	1.114312	-0.412532	0.050256
H114	H	1.118924	-0.437161	-0.124502
H115	H	1.082991	-0.364107	-0.074206
H116	H	1.200289	-0.332818	-0.024089
H117	H	1.236227	-0.405867	-0.074411
H118	H	1.204642	-0.337361	-0.124715
H119	H	1.044869	0.057940	0.621622
C120	C	0.850440	0.252520	0.609456
C121	C	0.804050	0.298978	0.668657
C122	C	0.756044	0.347074	0.623428
H123	H	0.817287	0.220716	0.574041
H124	H	0.882501	0.285450	0.574040
H125	H	0.771992	0.266052	0.704058
H126	H	0.837182	0.330798	0.704074
H127	H	0.788104	0.380003	0.588012
H128	H	0.722896	0.315263	0.588015
H129	H	0.724568	0.378606	0.663589
H130	H	0.829697	0.273186	0.378569
H131	H	1.011066	0.091725	0.378568
H132	H	0.820113	-0.587524	0.000079
C133	C	0.823985	0.278948	0.201650
C134	C	0.777590	0.325406	0.260845
C135	C	0.729586	0.373498	0.215610
H136	H	0.790835	0.247140	0.166234
H137	H	0.856047	0.311876	0.166235
H138	H	0.745531	0.292481	0.296246
H139	H	0.810719	0.357229	0.296263
H140	H	0.761648	0.406427	0.180194
H141	H	0.696441	0.341685	0.180196
H142	H	0.698107	0.405031	0.255767
H143	H	0.541016	0.271422	0.000075
H144	H	0.832680	-0.438798	0.000062
H145	H	0.316801	0.317112	0.000074
