data_functionalizedCrystal
_audit_creation_method	'MofGen! by Chris Wilmer'
_symmetry_space_group_name_H-M	'P1'
_symmetry_Int_Tables_number	1
_symmetry_cell_setting	triclinic
loop_
_symmetry_equiv_pos_as_xyz
  x,y,z
_cell_length_a	18.426585
_cell_length_b	23.196402
_cell_length_c	23.196401
_cell_angle_alpha	60.008822
_cell_angle_beta	90.013019
_cell_angle_gamma	60.001912
loop_
_atom_site_label
_atom_site_type_symbol
_atom_site_fract_x
_atom_site_fract_y
_atom_site_fract_z
Zr1	Zr	0.699110	0.631022	-0.075641
O2	O	0.583210	0.751285	-0.167686
O3	O	0.734636	0.510758	-0.047429
O4	O	0.734604	0.631025	-0.167694
O5	O	0.583270	0.631017	0.047451
O6	O	0.854030	0.631029	-0.167696
O7	O	0.583242	0.631018	-0.047420
O8	O	0.854088	0.415893	0.047436
O9	O	0.583213	0.846153	-0.167682
O10	O	0.838918	0.560228	-0.035394
O11	O	0.749813	0.560224	0.035410
O12	O	0.749775	0.701823	-0.106187
O13	O	0.660670	0.701819	-0.035384
Zr14	Zr	0.889626	0.631027	0.075664
Zr15	Zr	0.889580	0.631029	-0.075645
Zr16	Zr	0.699155	0.631020	0.075667
Zr17	Zr	0.699115	0.782325	-0.075635
Zr18	Zr	0.889621	0.479724	0.075657
O19	O	0.854099	0.751291	0.047451
O20	O	0.854034	0.751294	-0.167691
O21	O	0.583275	0.751282	0.047456
O22	O	1.005526	0.510764	0.167708
O23	O	1.005461	0.510767	-0.047434
O24	O	0.734701	0.510755	0.167713
O25	O	1.005465	0.631032	-0.047429
O26	O	0.854131	0.631024	0.167716
O27	O	0.734705	0.631020	0.167718
O28	O	1.005494	0.631031	0.047442
O29	O	0.734612	0.846158	-0.167685
O30	O	0.854124	0.415891	0.167707
O31	O	1.005522	0.415896	0.167704
O32	O	1.005486	0.415898	0.047433
O33	O	0.583249	0.846151	-0.047411
O34	O	0.734648	0.846156	-0.047414
O35	O	0.838960	0.560226	0.106209
O36	O	0.928065	0.560230	0.035406
O37	O	0.838923	0.701825	-0.035388
O38	O	0.749818	0.701821	0.035416
C39	C	0.794361	0.441768	0.000003
C40	C	0.794359	0.377536	0.000000
C41	C	0.556118	0.631016	0.000016
C42	C	0.475258	0.631014	0.000017
C43	C	0.840865	0.347368	-0.036961
C44	C	0.840873	0.287007	-0.036955
C45	C	0.794359	0.256828	0.000002
C46	C	0.747851	0.287000	0.036971
C47	C	0.747851	0.347355	0.036970
C48	C	0.716430	0.194796	-0.005271
C49	C	0.716428	0.134447	-0.005275
C50	C	0.794360	0.070673	0.000009
C51	C	0.872294	0.067264	0.005283
C52	C	0.872294	0.127618	0.005282
C53	C	0.794354	0.191384	0.000008
C54	C	0.840879	-0.024946	-0.036948
C55	C	0.840890	-0.085312	-0.036937
C56	C	0.747859	-0.085311	0.036985
C57	C	0.747857	-0.024953	0.036979
C58	C	0.794365	0.005229	0.000009
C59	C	0.179144	0.631038	0.000005
C60	C	0.261530	0.631035	0.000007
C61	C	0.327198	0.631026	0.000011
C62	C	0.409590	0.631022	0.000013
C63	C	1.032617	0.631033	0.000006
C64	C	1.113477	0.631035	0.000005
C65	C	0.794311	0.631027	-0.189253
C66	C	0.794291	0.631028	-0.253488
C67	C	0.794374	0.820281	0.000019
C68	C	0.794377	0.884513	0.000022
C69	C	0.747764	0.704937	-0.320614
C70	C	0.747787	0.704938	-0.380970
C71	C	0.794325	0.631026	-0.374194
C72	C	0.840862	0.557108	-0.307056
C73	C	0.840845	0.557109	-0.246702
C74	C	0.787714	0.574398	-0.441514
C75	C	0.787724	0.574400	-0.501867
C76	C	0.794381	0.631020	-0.560342
C77	C	0.801009	0.687652	-0.558462
C78	C	0.800993	0.687653	-0.498109
C79	C	0.794348	0.631017	-0.439633
C80	C	0.747876	0.704935	-0.692915
C81	C	0.747905	0.704933	-0.753270
C82	C	0.840974	0.557101	-0.679354
C83	C	0.840951	0.557105	-0.619001
C84	C	0.794397	0.631024	-0.625786
C85	C	0.794425	0.631022	0.189275
C86	C	0.794444	0.631021	0.253510
C87	C	1.032611	0.441776	-0.000002
C88	C	1.113468	0.377547	-0.000006
C89	C	0.794418	0.441765	0.189267
C90	C	0.794435	0.377532	0.253499
C91	C	1.032668	0.441773	0.189262
C92	C	1.113545	0.377543	0.253493
C93	C	0.556068	0.820276	-0.189240
C94	C	0.475191	0.884506	-0.253471
C95	C	0.556125	0.820273	0.000024
C96	C	0.475267	0.884502	0.000028
C97	C	0.794317	0.820284	-0.189245
C98	C	0.794300	0.884517	-0.253477
C99	C	1.104906	0.347383	-0.036971
C100	C	1.180873	0.287042	-0.036990
C101	C	1.265401	0.256861	-0.000038
C102	C	1.273962	0.287030	0.036928
C103	C	1.197996	0.347375	0.036942
C104	C	0.840977	0.347369	0.320626
C105	C	0.840990	0.287024	0.380985
C106	C	0.794465	0.256839	0.374214
C107	C	0.747918	0.287009	0.307080
C108	C	0.747900	0.347357	0.246724
C109	C	1.198045	0.347382	0.246697
C110	C	1.274045	0.287040	0.307043
C111	C	1.265542	0.256855	0.374183
C112	C	1.181033	0.287022	0.380977
C113	C	1.105035	0.347368	0.320632
C114	C	0.390690	0.914674	-0.246675
C115	C	0.314691	0.975035	-0.307021
C116	C	0.323194	1.005223	-0.374161
C117	C	0.407703	0.975052	-0.380955
C118	C	0.483701	0.914696	-0.320610
C119	C	0.483830	0.914672	0.036987
C120	C	0.407863	0.975030	0.036989
C121	C	0.323334	1.005213	0.000035
C122	C	0.314773	0.975041	-0.036928
C123	C	0.390740	0.914688	-0.036933
C124	C	0.840834	0.914682	-0.246684
C125	C	0.840835	0.975028	-0.307031
C126	C	0.794297	1.005211	-0.374170
C127	C	0.747762	0.975039	-0.380961
C128	C	0.747766	0.914691	-0.320615
H129	H	0.878737	0.371938	-0.067062
H130	H	0.414851	0.999587	0.067091
H131	H	0.806425	0.733760	-0.606075
C132	C	0.696558	0.881526	-0.328099
N133	N	0.657983	0.856551	-0.333742
C134	C	0.958023	0.123861	0.011092
N135	N	1.022596	0.121029	0.015472
H136	H	1.173885	0.262485	-0.067092
C137	C	0.221739	1.008211	-0.299531
N138	N	0.151730	1.033197	-0.293888
H139	H	0.710038	0.262423	0.301579
C140	C	0.892051	0.475804	-0.299604
N141	N	0.930609	0.414564	-0.293989
C142	C	0.381316	0.881484	-0.172827
N143	N	0.374247	0.856494	-0.117205
C144	C	1.348958	0.190474	-0.000055
N145	N	1.411890	0.140468	-0.000067
H146	H	0.261485	1.054357	0.000045
C147	C	0.892039	0.881488	-0.172837
N148	N	0.930615	0.856485	-0.117216
C149	C	0.958028	-0.002887	0.011099
N150	N	1.022601	-0.055727	0.015480
H151	H	0.878728	0.999587	-0.301488
H152	H	0.878834	0.496920	-0.564342
H153	H	1.327432	0.207718	0.423313
C154	C	0.892049	0.008248	-0.077607
N155	N	0.930592	0.033246	-0.108230
C156	C	1.012086	0.380536	0.328119
N157	N	0.942078	0.405517	0.333763
C158	C	0.576805	0.881486	0.077638
N159	N	0.646831	0.856497	0.108254
C160	C	0.794299	1.071598	-0.440546
N161	N	0.794302	1.121602	-0.490538
H162	H	0.245940	0.999625	-0.067015
C163	C	1.366996	0.253860	0.299553
N164	N	1.437005	0.228868	0.293910
H165	H	0.709872	0.999623	-0.435634
H166	H	0.383755	0.890125	-0.067028
C167	C	1.207430	0.380541	0.077617
N168	N	1.214542	0.405517	0.108256
H169	H	1.174123	0.262437	0.435650
H170	H	0.878745	0.262439	-0.067054
H171	H	0.878766	-0.109879	-0.067032
H172	H	0.878864	0.371939	0.326152
C173	C	0.780428	0.512108	-0.503930
N174	N	0.774932	0.465187	-0.505481
H175	H	0.709987	-0.109883	0.067077
C176	C	0.696708	0.380521	0.172885
N177	N	0.658149	0.405496	0.117270
C178	C	0.239584	1.071611	-0.440535
N179	N	0.176607	1.121610	-0.490526
H180	H	0.414615	0.999639	-0.435627
H181	H	0.878867	0.496920	-0.673836
H182	H	0.552503	0.890134	-0.326151
H183	H	0.709983	-0.000387	0.067074
H184	H	0.652968	0.137231	-0.009573
H185	H	0.652959	0.246731	-0.009588
H186	H	0.709978	0.371918	0.067069
C187	C	0.696683	0.253804	0.077623
N188	N	0.658144	0.228799	0.108245
H189	H	0.709860	0.765128	-0.326146
C190	C	0.892208	0.253841	0.454825
N191	N	0.930789	0.228847	0.510440
C192	C	0.696601	0.786247	-0.454820
N193	N	0.658047	0.847489	-0.510443
H194	H	1.036085	0.371956	-0.067070
H195	H	0.806392	0.733763	-0.496582
C196	C	0.696676	0.786247	-0.700377
N197	N	0.658113	0.847493	-0.706000
H198	H	0.782287	0.528292	-0.393905
C199	C	0.892025	0.475800	-0.172858
N200	N	0.930572	0.414556	-0.117236
H201	H	0.710020	0.765121	-0.807929
H202	H	1.342795	0.262448	0.067012
H203	H	0.794487	0.207700	0.423367
H204	H	1.204985	0.371950	0.192034
