data_functionalizedCrystal
_audit_creation_method	'MofGen! by Chris Wilmer'
_symmetry_space_group_name_H-M	'P1'
_symmetry_Int_Tables_number	1
_symmetry_cell_setting	triclinic
loop_
_symmetry_equiv_pos_as_xyz
  x,y,z
_cell_length_a	12.645331
_cell_length_b	19.120786
_cell_length_c	12.645324
_cell_angle_alpha	87.521211
_cell_angle_beta	89.983975
_cell_angle_gamma	92.464644
loop_
_atom_site_label
_atom_site_type_symbol
_atom_site_fract_x
_atom_site_fract_y
_atom_site_fract_z
Zn1	Zn	1.602674	-0.279593	-0.581194
Zn2	Zn	1.594966	-0.397073	-0.396348
Zn3	Zn	1.425385	-0.279631	-0.403958
Zn4	Zn	1.417785	-0.397014	-0.573589
O5	O	1.510202	-0.338328	-0.488772
O6	O	1.749998	-0.295186	-0.556672
O7	O	1.572425	-0.381535	-0.249007
O8	O	1.455309	-0.181335	-0.433836
O9	O	1.744335	-0.381498	-0.420866
O10	O	1.585562	-0.181307	-0.564051
O11	O	1.447835	-0.295251	-0.254598
O12	O	1.276030	-0.295194	-0.426461
O13	O	1.442356	-0.381397	-0.722947
O14	O	1.270446	-0.381434	-0.551088
O15	O	1.578193	-0.295128	-0.728535
O16	O	1.565056	-0.495356	-0.413491
O17	O	1.434882	-0.495313	-0.543709
C18	C	1.234774	-0.338312	-0.488776
C19	C	1.116943	-0.338322	-0.488802
C20	C	0.945882	-0.392873	-0.566758
C21	C	1.068454	-0.392697	-0.567110
C22	C	1.077244	-0.264340	-0.524101
C23	C	0.954624	-0.264673	-0.524653
C24	C	0.948480	-0.357157	-0.375326
C25	C	1.070981	-0.358775	-0.375827
C26	C	1.498337	-0.520820	-0.476972
C27	C	1.493357	-0.598891	-0.471960
C28	C	1.558784	-0.635494	-0.537456
C29	C	1.554101	-0.708850	-0.532748
C30	C	1.483996	-0.745602	-0.462538
C31	C	1.418563	-0.708994	-0.397039
C32	C	1.423241	-0.635639	-0.401753
C33	C	1.466476	-0.967089	-0.444914
C34	C	1.461805	-1.040449	-0.440203
C35	C	1.597342	-1.040300	-0.575914
C36	C	1.602019	-0.966944	-0.580617
C37	C	1.536582	-0.930343	-0.515123
C38	C	1.479211	-0.820583	-0.457721
C39	C	1.541363	-0.855362	-0.519945
C40	C	1.786706	-0.338344	-0.488769
C41	C	1.904536	-0.338351	-0.488768
C42	C	1.510287	-0.338252	-0.765283
C43	C	1.510323	-0.338219	-0.883115
C44	C	1.522143	-0.155123	-0.500641
C45	C	1.527232	-0.077052	-0.505699
C46	C	1.596086	-0.284105	-1.054184
C47	C	1.595835	-0.283909	-0.931637
C48	C	1.399940	-0.318104	-0.928905
C49	C	1.400466	-0.317693	-1.051530
C50	C	1.534030	-0.412528	-1.045510
C51	C	1.536498	-0.412154	-0.922929
C52	C	1.510182	-0.338353	-0.213341
C53	C	1.510365	-0.338188	-0.095522
H54	H	1.098607	-0.380251	-0.651070
H55	H	1.096547	-0.413215	-0.349292
O56	O	1.321919	-0.362543	-1.084141
C57	C	1.161314	-0.376292	-1.185051
C58	C	1.250226	-0.325436	-1.148227
H59	H	1.103314	-0.346308	-1.236853
H60	H	1.196922	-0.418910	-1.232451
H61	H	1.117842	-0.401306	-1.113037
H62	H	1.293731	-0.300372	-1.220181
H63	H	1.214554	-0.282860	-1.100792
H64	H	0.915885	-0.380588	-0.650224
O65	O	1.411025	-0.856177	-0.389488
C66	C	1.277140	-0.848593	-0.255321
C67	C	1.354295	-0.808194	-0.332560
H68	H	1.231269	-0.809816	-0.209259
H69	H	1.219424	-0.882921	-0.301692
H70	H	1.323672	-0.882958	-0.197775
H71	H	1.307851	-0.773791	-0.390124
H72	H	1.412012	-0.773909	-0.286121
H73	H	1.677836	-0.296507	-0.900743
O74	O	1.459565	-0.460603	-1.077171
C75	C	1.376811	-0.517368	-1.224173
C76	C	1.461199	-0.462922	-1.188453
H77	H	1.378088	-0.519250	-1.314148
H78	H	1.394458	-0.571171	-1.187692
H79	H	1.295351	-0.501954	-1.197116
H80	H	1.542691	-0.478271	-1.215501
H81	H	1.443459	-0.409133	-1.224924
H82	H	0.927080	-0.248723	-0.607726
H83	H	1.678372	-0.296544	-1.082864
O84	O	1.626999	-0.599766	-0.605511
C85	C	1.775367	-0.516831	-0.625233
C86	C	1.698200	-0.557258	-0.548036
H87	H	1.832938	-0.482442	-0.578796
H88	H	1.821399	-0.555565	-0.671220
H89	H	1.728832	-0.482519	-0.682851
H90	H	1.744653	-0.591571	-0.490354
H91	H	1.652166	-0.518485	-0.502125
H92	H	1.109018	-0.248100	-0.606303
H93	H	1.478217	-0.454619	-0.889541
H94	H	0.927661	-0.222593	-0.470723
H95	H	1.379845	-0.263351	-1.083652
O96	O	1.100052	-0.458187	-0.540248
C97	C	1.095349	-0.579809	-0.583357
C98	C	1.059522	-0.505672	-0.613907
H99	H	1.062577	-0.618224	-0.642881
H100	H	1.185501	-0.579861	-0.583617
H101	H	1.064432	-0.596235	-0.500897
H102	H	1.090364	-0.489201	-0.696372
H103	H	0.969369	-0.505661	-0.613574
O104	O	1.660840	-1.075781	-0.639695
C105	C	1.710702	-1.098139	-0.818637
C106	C	1.638752	-1.057899	-0.746517
H107	H	1.692855	-1.083707	-0.905018
H108	H	1.797138	-1.083670	-0.801121
H109	H	1.695329	-1.156876	-0.803156
H110	H	1.654032	-0.999153	-0.761958
H111	H	1.552340	-1.072426	-0.764048
H112	H	1.607386	-0.738649	-0.586074
H113	H	0.914133	-0.410185	-0.344160
O114	O	1.359578	-0.600048	-0.338283
C115	C	1.221780	-0.517283	-0.329235
C116	C	1.293804	-0.557558	-0.401233
H117	H	1.168600	-0.482909	-0.380100
H118	H	1.170794	-0.556116	-0.278261
H119	H	1.272688	-0.482970	-0.276028
H120	H	1.242978	-0.591871	-0.454504
H121	H	1.344796	-0.518687	-0.452135
H122	H	0.912835	-0.447917	-0.544286
O123	O	1.669974	-0.931172	-0.648883
C124	C	1.689449	-0.848309	-0.797394
C125	C	1.612369	-0.888762	-0.720139
H126	H	1.642904	-0.814023	-0.855038
H127	H	1.747084	-0.813913	-0.751039
H128	H	1.735426	-0.887089	-0.843345
H129	H	1.566320	-0.850033	-0.674168
H130	H	1.554802	-0.923169	-0.766554
H131	H	1.334539	-0.356285	-0.897281
H132	H	1.103977	-0.321945	-0.314215
O133	O	1.578071	-0.218816	-1.095335
C134	C	1.562959	-0.144720	-1.253178
C135	C	1.583370	-0.218694	-1.206721
H136	H	1.567258	-0.144593	-1.343238
H137	H	1.481096	-0.128893	-1.227995
H138	H	1.625492	-0.105894	-1.222677
H139	H	1.520902	-0.257570	-1.237199
H140	H	1.665265	-0.234462	-1.231897
H141	H	1.378838	-0.264368	-0.901683
O142	O	1.393604	-1.076043	-0.371975
C143	C	1.259698	-1.068454	-0.237830
C144	C	1.336862	-1.028057	-0.315063
H145	H	1.213817	-1.029675	-0.191780
H146	H	1.201990	-1.102786	-0.284206
H147	H	1.306223	-1.102815	-0.180273
H148	H	1.290425	-0.993658	-0.372637
H149	H	1.394570	-0.993769	-0.268618
O150	O	1.115037	-0.214550	-0.458629
C151	C	1.072592	-0.126348	-0.336831
C152	C	1.029648	-0.182723	-0.410923
H153	H	1.003577	-0.100590	-0.298258
H154	H	1.123723	-0.151673	-0.272888
H155	H	1.122280	-0.085010	-0.384561
H156	H	0.979915	-0.224078	-0.363283
H157	H	0.978575	-0.157347	-0.474868
O158	O	0.916869	-0.309883	-0.305794
C159	C	0.820218	-0.291136	-0.145954
C160	C	0.855973	-0.344751	-0.224590
H161	H	0.770959	-0.319303	-0.080294
H162	H	0.892694	-0.263713	-0.110117
H163	H	0.770469	-0.250685	-0.189287
H164	H	0.905701	-0.385244	-0.181334
H165	H	0.783453	-0.372120	-0.260426
H166	H	1.413197	-0.937294	-0.391584
H167	H	1.612862	-0.430840	-1.075304
H168	H	1.580544	-0.228840	-0.905882
O169	O	1.633434	-0.430254	-0.887229
C170	C	1.809863	-0.460989	-0.933476
C171	C	1.700152	-0.440469	-0.974071
H172	H	1.863828	-0.469268	-1.003666
H173	H	1.845647	-0.417395	-0.884248
H174	H	1.801308	-0.511548	-0.882448
H175	H	1.708616	-0.389928	-1.025142
H176	H	1.664407	-0.484106	-1.023241
O177	O	1.350313	-0.744662	-0.328952
C178	C	1.168582	-0.767204	-0.275855
C179	C	1.245754	-0.726781	-0.353052
H180	H	1.084031	-0.752751	-0.295298
H181	H	1.176387	-0.825929	-0.283737
H182	H	1.188215	-0.752821	-0.191321
H183	H	1.226171	-0.741106	-0.437618
H184	H	1.237935	-0.668067	-0.345078
H185	H	1.598438	-0.825437	-0.577114
