data_functionalizedCrystal
_audit_creation_method	'MofGen! by Chris Wilmer'
_symmetry_space_group_name_H-M	'P1'
_symmetry_Int_Tables_number	1
_symmetry_cell_setting	triclinic
loop_
_symmetry_equiv_pos_as_xyz
  x,y,z
_cell_length_a	12.645331
_cell_length_b	18.050590
_cell_length_c	12.645324
_cell_angle_alpha	89.958880
_cell_angle_beta	90.015042
_cell_angle_gamma	89.978272
loop_
_atom_site_label
_atom_site_type_symbol
_atom_site_fract_x
_atom_site_fract_y
_atom_site_fract_z
Zn1	Zn	1.620689	0.295619	0.599180
Zn2	Zn	1.620557	0.419833	0.421891
Zn3	Zn	1.443405	0.295659	0.421946
Zn4	Zn	1.443370	0.419770	0.599128
O5	O	1.532005	0.357720	0.510536
O6	O	1.769018	0.312106	0.575661
O7	O	1.597018	0.403404	0.273551
O8	O	1.466992	0.191729	0.445502
O9	O	1.768922	0.403365	0.445408
O10	O	1.597241	0.191700	0.575715
O11	O	1.466865	0.312174	0.273592
O12	O	1.295053	0.312114	0.445451
O13	O	1.466932	0.403258	0.747482
O14	O	1.295027	0.403297	0.575626
O15	O	1.597207	0.312045	0.747521
O16	O	1.596984	0.523749	0.445357
O17	O	1.466805	0.523703	0.575572
C18	C	1.256576	0.357704	0.510539
C19	C	1.138746	0.357714	0.510565
C20	C	0.971201	0.415392	0.592031
C21	C	1.093761	0.415206	0.592372
C22	C	1.094276	0.279492	0.541105
C23	C	0.971678	0.279844	0.541679
C24	C	0.971499	0.377628	0.398301
C25	C	1.094105	0.379339	0.398907
C26	C	1.531905	0.550673	0.510476
C27	C	1.531959	0.633218	0.510486
C28	C	1.602878	0.832667	0.439755
C29	C	1.628772	0.881989	0.536500
C30	C	1.532004	0.784349	0.510514
C31	C	1.506203	0.882108	0.413798
C32	C	1.532050	0.930334	0.510533
C33	C	1.557948	0.832584	0.607310
C34	C	1.435335	0.832698	0.484543
C35	C	1.461192	0.881998	0.581355
C36	C	1.531981	0.700250	0.510502
C37	C	1.532074	1.014430	0.510556
C38	C	1.808511	0.357738	0.510534
C39	C	1.926341	0.357745	0.510533
C40	C	1.532080	0.357640	0.787042
C41	C	1.532112	0.357606	0.904872
C42	C	1.532110	1.164015	0.510597
C43	C	1.532092	1.081469	0.510562
C44	C	1.531992	0.357747	0.235107
C45	C	1.532165	0.357572	0.117277
C46	C	1.614086	0.300211	0.949778
C47	C	1.614438	0.300361	1.072338
C48	C	1.562058	0.435906	1.072731
C49	C	1.562623	0.435594	0.950133
C50	C	1.420049	0.337343	0.950061
C51	C	1.420681	0.335597	1.072668
H52	H	0.942488	0.335638	0.337578
N53	N	1.335507	0.386895	1.113166
H54	H	1.300071	0.412416	1.051507
H55	H	1.281331	0.357313	1.153914
N56	N	1.390819	0.259237	1.111250
H57	H	1.323199	0.262234	1.153524
H58	H	1.380059	0.225391	1.048604
N59	N	1.669368	0.459001	1.113405
H60	H	1.698772	0.418841	1.160674
H61	H	1.718745	0.467151	1.051724
N62	N	1.682303	0.803966	0.360589
H63	H	1.681247	0.748018	0.360666
H64	H	1.663504	0.822806	0.287745
N65	N	1.587012	0.803893	0.715690
H66	H	1.659809	0.822260	0.735471
H67	H	1.533792	0.822263	0.769136
N68	N	1.134633	0.327744	0.314157
H69	H	1.104644	0.342987	0.243372
H70	H	1.214373	0.330334	0.311610
N71	N	1.339149	0.392708	0.911593
H72	H	1.374854	0.430733	0.865122
H73	H	1.282733	0.366136	0.869702
H74	H	1.505468	0.479813	0.920422
H75	H	1.123415	0.235373	0.483601
N76	N	1.737083	0.910679	0.565612
H77	H	1.736118	0.966627	0.566076
H78	H	1.757082	0.891837	0.638135
H79	H	0.943105	0.262980	0.623726
N80	N	1.327057	0.803986	0.455380
H81	H	1.327686	0.748037	0.456273
H82	H	1.273383	0.822763	0.508079
N83	N	1.381809	0.910501	0.660706
H84	H	1.401447	0.892381	0.733704
H85	H	1.381839	0.966449	0.659767
N86	N	1.132636	0.397771	0.702525
H87	H	1.105650	0.347467	0.724785
H88	H	1.212502	0.397618	0.703136
N89	N	1.477265	0.910926	0.305453
H90	H	1.530837	0.892981	0.252060
H91	H	1.404731	0.892220	0.285372
N92	N	1.589655	0.223052	0.910770
H93	H	1.643184	0.187090	0.940503
H94	H	1.516425	0.208315	0.934695
N95	N	1.589719	0.223435	1.112250
H96	H	1.578496	0.189121	1.050202
H97	H	1.650675	0.204802	1.156525
N98	N	0.932359	0.221021	0.466491
H99	H	0.994670	0.194975	0.433124
H100	H	0.888096	0.183896	0.506637
N101	N	1.134967	0.256741	0.648608
H102	H	1.182195	0.296984	0.677680
H103	H	1.073287	0.248776	0.698044
N104	N	1.671110	0.458319	0.912268
H105	H	1.725522	0.422177	0.939872
H106	H	1.672484	0.458363	0.832412
N107	N	1.723457	0.317779	0.908973
H108	H	1.720135	0.362755	0.861525
H109	H	1.772063	0.328166	0.970586
N110	N	0.930423	0.398194	0.701548
H111	H	0.883017	0.353222	0.698600
H112	H	0.992051	0.387946	0.750234
H113	H	1.392736	0.281207	0.919160
N114	N	0.930518	0.451887	0.361519
H115	H	0.882257	0.473393	0.417242
H116	H	0.992000	0.486547	0.349300
H117	H	1.697491	0.313784	1.101667
H118	H	0.941702	0.473591	0.573100
N119	N	1.133597	0.492038	0.567015
H120	H	1.071516	0.526334	0.555515
H121	H	1.177862	0.510857	0.627810
N122	N	1.132700	0.455552	0.368339
H123	H	1.178899	0.475996	0.426575
H124	H	1.174916	0.452178	0.300725
N125	N	1.485417	0.494091	1.111268
H126	H	1.430451	0.470175	1.158088
H127	H	1.525060	0.532956	1.152809
