data_functionalizedCrystal
_audit_creation_method	'MofGen! by Chris Wilmer'
_symmetry_space_group_name_H-M	'P1'
_symmetry_Int_Tables_number	1
_symmetry_cell_setting	triclinic
loop_
_symmetry_equiv_pos_as_xyz
  x,y,z
_cell_length_a	10.654550
_cell_length_b	19.188924
_cell_length_c	9.730223
_cell_angle_alpha	89.996615
_cell_angle_beta	89.996251
_cell_angle_gamma	83.813433
loop_
_atom_site_label
_atom_site_type_symbol
_atom_site_fract_x
_atom_site_fract_y
_atom_site_fract_z
O1	O	1.665755	0.098059	-0.114410
O2	O	2.165755	0.598059	0.385590
O3	O	1.300078	0.107402	-0.114388
O4	O	1.800078	0.607402	0.385612
O5	O	1.493474	0.001144	-0.114384
O6	O	1.993474	0.501144	0.385616
O7	O	1.472359	0.204317	-0.114415
O8	O	1.972359	0.704317	0.385585
O9	O	1.493471	0.001146	0.114196
O10	O	1.993471	0.501146	0.614196
O11	O	1.300076	0.107405	0.114191
O12	O	1.800076	0.607405	0.614191
O13	O	1.665752	0.098062	0.114170
O14	O	2.165752	0.598062	0.614170
Zn15	Zn	1.482914	0.102734	0.150473
Zn16	Zn	1.982914	0.602734	0.650473
Zn17	Zn	1.482917	0.102730	-0.150691
Zn18	Zn	1.982917	0.602730	0.349309
O19	O	1.472357	0.204320	0.114165
O20	O	1.972357	0.704320	0.614165
C21	C	1.253294	0.106717	-0.000096
C22	C	1.753294	0.606717	0.499904
C23	C	1.113894	0.104665	-0.000087
C24	C	1.613894	0.604665	0.499913
C25	C	1.033081	0.167228	-0.000116
C26	C	1.533081	0.667228	0.499884
C27	C	0.902102	0.165295	-0.000140
C28	C	1.402102	0.665295	0.499860
C29	C	0.932759	0.038231	-0.000110
C30	C	1.432759	0.538231	0.499890
C31	C	1.063737	0.040164	-0.000077
C32	C	1.563737	0.540164	0.499923
C33	C	1.015380	0.240588	-0.000140
C34	C	1.515380	0.740588	0.499860
C35	C	0.884401	0.238655	-0.000163
C36	C	1.384401	0.738655	0.499837
C37	C	1.492790	-0.024871	-0.000092
C38	C	1.992790	0.475129	0.499908
C39	C	1.490742	-0.102389	-0.000089
C40	C	1.990742	0.397611	0.499911
C41	C	1.489787	-0.138795	-0.124688
C42	C	1.989787	0.361205	0.375312
C43	C	1.487845	-0.211631	-0.124698
C44	C	1.987845	0.288369	0.375302
C45	C	1.486883	-0.248059	-0.000102
C46	C	1.986883	0.251941	0.499898
C47	C	1.487830	-0.211643	0.124514
C48	C	1.987830	0.288357	0.624514
C49	C	1.489760	-0.138808	0.124520
C50	C	1.989760	0.361192	0.624520
N51	N	1.555314	-0.367273	0.092628
N52	N	2.055314	0.132727	0.592628
N53	N	1.553484	-0.436463	0.092613
N54	N	2.053484	0.063537	0.592613
C55	C	1.481066	-0.467506	-0.000115
C56	C	1.981066	0.032494	0.499885
N57	N	1.410563	-0.426745	-0.092848
N58	N	1.910563	0.073255	0.407152
N59	N	1.412399	-0.357549	-0.092837
N60	N	1.912399	0.142451	0.407163
C61	C	1.484789	-0.327036	-0.000096
C62	C	1.984789	0.172964	0.499904
C63	C	1.478003	-0.582889	-0.124734
C64	C	1.978003	-0.082889	0.375266
C65	C	1.476053	-0.655725	-0.124739
C66	C	1.976053	-0.155725	0.375261
C67	C	1.476051	-0.655736	0.124476
C68	C	1.976051	-0.155736	0.624476
C69	C	1.477989	-0.582901	0.124478
C70	C	1.977989	-0.082901	0.624478
C71	C	1.478971	-0.546482	-0.000131
C72	C	1.978971	-0.046482	0.499869
C73	C	1.712537	0.098746	-0.000126
C74	C	2.212537	0.598746	0.499874
C75	C	1.851937	0.100799	-0.000144
C76	C	2.351937	0.600799	0.499856
C77	C	1.473040	0.230334	-0.000129
C78	C	1.973040	0.730334	0.499871
C79	C	1.475089	0.307852	-0.000142
C80	C	1.975089	0.807852	0.499858
N81	N	1.482921	0.102736	0.356009
N82	N	1.982921	0.602736	0.856009
N83	N	1.482920	0.102723	-0.356228
N84	N	1.982920	0.602723	0.143772
C85	C	1.568578	0.055700	0.427937
C86	C	2.068578	0.555700	0.927937
C87	C	1.568575	0.055692	0.571820
C88	C	2.068575	0.555692	1.071820
C89	C	1.397253	0.149760	0.571834
C90	C	1.897253	0.649760	1.071834
C91	C	1.397252	0.149764	0.427954
C92	C	1.897252	0.649764	0.927954
C93	C	1.667493	0.001393	0.427931
C94	C	2.167493	0.501393	0.927931
C95	C	1.667490	0.001385	0.571814
C96	C	2.167490	0.501385	1.071814
H97	H	1.044102	0.269280	0.095522
H98	H	1.544102	0.769280	0.595522
H99	H	1.478776	-0.553259	0.225940
H100	H	1.978776	-0.053259	0.725940
H101	H	1.327492	0.188058	0.369391
H102	H	1.827492	0.688058	0.869391
H103	H	0.838258	0.260826	0.098518
H104	H	1.338258	0.760826	0.598518
F105	F	1.793305	0.017015	0.622852
F106	F	2.293305	0.517015	1.122852
H107	H	1.478795	-0.553234	-0.226198
H108	H	1.978795	-0.053234	0.273802
F109	F	1.486827	-0.250385	-0.257319
F110	F	1.986827	0.249615	0.242681
F111	F	0.829082	0.274781	-0.125210
F112	F	1.329082	0.774781	0.374790
H113	H	1.129531	-0.010781	-0.000033
H114	H	1.629531	0.489219	0.499967
H115	H	1.475269	-0.685366	-0.226207
H116	H	1.975269	-0.185366	0.273793
H117	H	0.891905	-0.014284	-0.000123
H118	H	1.391905	0.485716	0.499877
H119	H	1.050542	0.263945	-0.098831
H120	H	1.550542	0.763945	0.401169
F121	F	1.490826	-0.100039	-0.257308
F122	F	1.990826	0.399961	0.242692
F123	F	1.486798	-0.250412	0.257117
F124	F	1.986798	0.249588	0.757117
F125	F	1.306082	0.199808	0.648414
F126	F	1.806082	0.699808	1.148414
F127	F	1.490774	-0.100060	0.257142
F128	F	1.990774	0.399940	0.757142
F129	F	1.475020	-0.694500	0.257082
F130	F	1.975020	-0.194500	0.757082
H131	H	1.647188	-0.052270	0.388886
H132	H	2.147188	0.447730	0.888886
H133	H	1.758316	0.018398	0.383296
H134	H	2.258316	0.518398	0.883296
F135	F	1.629004	-0.064895	0.630150
F136	F	2.129004	0.435105	1.130150
