data_functionalizedCrystal
_audit_creation_method	'MofGen! by Chris Wilmer'
_symmetry_space_group_name_H-M	'P1'
_symmetry_Int_Tables_number	1
_symmetry_cell_setting	triclinic
loop_
_symmetry_equiv_pos_as_xyz
  x,y,z
_cell_length_a	17.917603
_cell_length_b	12.970454
_cell_length_c	12.970454
_cell_angle_alpha	59.999776
_cell_angle_beta	89.999951
_cell_angle_gamma	57.011542
loop_
_atom_site_label
_atom_site_type_symbol
_atom_site_fract_x
_atom_site_fract_y
_atom_site_fract_z
Zr1	Zr	0.754907	1.033601	-0.087842
O2	O	0.629783	1.264424	-0.260333
O3	O	0.793264	0.813688	-0.034963
O4	O	0.793265	1.028777	-0.250054
O5	O	0.629781	1.049335	0.124424
O6	O	0.922222	1.012563	-0.241946
O7	O	0.629782	1.049334	-0.045243
O8	O	0.922220	0.627807	0.142812
O9	O	0.629784	1.434091	-0.260334
O10	O	0.905862	0.888000	-0.006361
O11	O	0.809622	0.900102	0.114208
O12	O	0.809623	1.153342	-0.139033
O13	O	0.713384	1.165443	-0.018464
Zr14	Zr	0.960577	1.007742	0.195688
Zr15	Zr	0.960579	1.007741	-0.074911
Zr16	Zr	0.754905	1.033603	0.182757
Zr17	Zr	0.754907	1.304201	-0.087843
Zr18	Zr	0.960577	0.737142	0.195689
O19	O	0.922220	1.227656	0.142809
O20	O	0.922222	1.227654	-0.241947
O21	O	0.629781	1.264426	0.124423
O22	O	1.085701	0.776920	0.368180
O23	O	1.085703	0.776918	-0.016577
O24	O	0.793262	0.813690	0.349793
O25	O	1.085703	0.992008	-0.016578
O26	O	0.922219	1.012566	0.357900
O27	O	0.793262	1.028781	0.349792
O28	O	1.085702	0.992009	0.153089
O29	O	0.793265	1.413535	-0.250056
O30	O	0.922219	0.627808	0.357902
O31	O	1.085701	0.607252	0.368180
O32	O	1.085702	0.607251	0.153091
O33	O	0.629782	1.434092	-0.045245
O34	O	0.793264	1.413537	-0.034966
O35	O	0.905861	0.888002	0.246879
O36	O	1.002101	0.875900	0.126310
O37	O	0.905862	1.141242	-0.006362
O38	O	0.809622	1.153343	0.114207
C39	C	0.857742	0.682193	0.053925
C40	C	0.857742	0.567316	0.053925
C41	C	0.600478	1.053019	0.037748
C42	C	0.513165	1.063998	0.032258
C43	C	0.353321	1.084051	0.022233
C44	C	0.362156	0.957299	0.085610
C45	C	0.273214	0.968457	0.080032
C46	C	0.442270	1.072896	0.027810
C47	C	1.115006	0.988324	0.070098
C48	C	1.202319	0.977346	0.075588
C49	C	0.857744	1.020670	-0.284554
C50	C	0.857744	1.020669	-0.399430
C51	C	0.857742	1.359151	0.053921
C52	C	0.857742	1.474028	0.053921
C53	C	0.857740	1.020674	0.392400
C54	C	0.857740	1.020674	0.507277
C55	C	1.115006	0.649845	0.070100
C56	C	1.202319	0.523990	0.075590
C57	C	0.857740	0.682195	0.392402
C58	C	0.857740	0.567318	0.507279
C59	C	1.115004	0.649847	0.408577
C60	C	1.202317	0.523993	0.528943
C61	C	0.600480	1.391496	-0.300731
C62	C	0.513167	1.517351	-0.421097
C63	C	0.600478	1.391498	0.037746
C64	C	0.513165	1.517354	0.032256
C65	C	0.857744	1.359149	-0.284556
C66	C	0.857745	1.474025	-0.399433
C67	C	1.193087	0.471203	0.008904
C68	C	1.275119	0.352965	0.014037
C69	C	1.366382	0.287508	0.085864
C70	C	1.375613	0.340306	0.152552
C71	C	1.293582	0.458549	0.147411
C72	C	1.293564	0.458572	0.522533
C73	C	1.375612	0.340333	0.635621
C74	C	1.366409	0.287508	0.755116
C75	C	1.275152	0.352941	0.761523
C76	C	1.193106	0.471185	0.648438
C77	C	0.421920	1.582784	-0.414687
C78	C	0.339873	1.701058	-0.527774
C79	C	0.349075	1.753887	-0.647270
C80	C	0.440333	1.688448	-0.653677
C81	C	0.522378	1.570185	-0.540592
C82	C	0.522397	1.570152	0.098931
C83	C	0.440365	1.688420	0.093768
C84	C	0.349102	1.753880	0.021937
C85	C	0.339871	1.701078	-0.044745
C86	C	0.421902	1.582819	-0.039589
H87	H	0.278964	1.200937	-0.036211
N88	N	1.099904	0.537946	0.655008
N89	N	1.042938	0.533003	0.605975
H90	H	0.977116	0.580137	0.610627
H91	H	1.118783	0.524497	-0.049601
N92	N	0.449741	1.742380	-0.775733
N93	N	0.531215	1.683944	-0.781457
H94	H	0.537859	1.722026	-0.867662
H95	H	1.449930	0.286994	0.211031
N96	N	0.615576	1.503367	-0.547173
N97	N	0.623768	1.550560	-0.653880
H98	H	0.689589	1.503377	-0.658539
H99	H	0.282315	1.850173	0.017750
N100	N	1.265659	0.299067	-0.054094
N101	N	1.184165	0.357519	-0.118205
H102	H	1.177481	0.319458	-0.166323
H103	H	0.414408	1.539779	-0.317399
N104	N	0.412462	1.528859	-0.107665
N105	N	0.447012	1.392008	-0.047947
H106	H	0.440338	1.353902	-0.096027
N107	N	1.450221	0.166692	0.870625
N108	N	1.464421	0.044437	0.949197
H109	H	1.523617	-0.040897	1.030772
N110	N	0.246636	1.767953	-0.118087
N111	N	0.189663	1.763066	-0.064103
H112	H	0.123812	1.810295	-0.115892
N113	N	1.450189	0.166610	0.091247
N114	N	1.464326	0.044390	0.134987
H115	H	1.523522	-0.041036	0.138840
N116	N	1.303038	0.512442	0.215543
N117	N	1.384533	0.453973	0.279668
H118	H	1.391219	0.492029	0.327790
H119	H	0.282261	1.850186	-0.739342
H120	H	0.436518	0.840403	0.144058
N121	N	0.246671	1.767871	-0.521189
N122	N	0.238477	1.720666	-0.414483
H123	H	0.172656	1.767848	-0.409827
N124	N	1.302962	0.512551	0.400471
N125	N	1.229712	0.618133	0.299499
H126	H	1.236354	0.656258	0.213293
H127	H	1.267673	0.309914	0.858832
N128	N	0.615607	1.503334	0.172298
N129	N	0.640072	1.584610	0.145793
H130	H	0.705899	1.537433	0.197606
H131	H	1.449910	0.287069	0.630381
H132	H	0.447900	1.731391	0.148075
