data_functionalizedCrystal
_audit_creation_method	'MofGen! by Chris Wilmer'
_symmetry_space_group_name_H-M	'P1'
_symmetry_Int_Tables_number	1
_symmetry_cell_setting	triclinic
loop_
_symmetry_equiv_pos_as_xyz
  x,y,z
_cell_length_a	12.827892
_cell_length_b	12.759401
_cell_length_c	12.759401
_cell_angle_alpha	89.994768
_cell_angle_beta	90.008995
_cell_angle_gamma	89.983083
loop_
_atom_site_label
_atom_site_type_symbol
_atom_site_fract_x
_atom_site_fract_y
_atom_site_fract_z
Zn1	Zn	-0.416154	-1.606098	0.594025
Zn2	Zn	-0.590868	-1.606036	0.418347
Zn3	Zn	-0.416147	-1.430445	0.418360
Zn4	Zn	-0.590859	-1.430387	0.593984
O5	O	-0.503507	-1.518242	0.506179
O6	O	-0.439338	-1.753111	0.570732
O7	O	-0.567692	-1.582741	0.271328
O8	O	-0.269912	-1.453797	0.441685
O9	O	-0.567699	-1.753065	0.441663
O10	O	-0.269917	-1.582848	0.570745
O11	O	-0.439325	-1.453736	0.271337
O12	O	-0.439315	-1.283417	0.441646
O13	O	-0.567683	-1.453697	0.741011
O14	O	-0.567675	-1.283374	0.570676
O15	O	-0.439328	-1.582792	0.741040
O16	O	-0.737103	-1.582685	0.441624
O17	O	-0.737096	-1.453636	0.570663
C18	C	-0.503494	-1.245274	0.506158
C19	C	-0.503514	-1.128498	0.506174
C20	C	-0.775017	-1.518176	0.506161
C21	C	-0.891170	-1.518244	0.506188
C22	C	-0.503506	-1.518245	0.780212
C23	C	-0.503505	-1.518247	0.896989
C24	C	-0.942924	-1.582177	0.442406
C25	C	-1.062974	-1.582249	0.442432
C26	C	-0.230937	-1.518336	0.506221
C27	C	-0.114784	-1.518376	0.506239
C28	C	-0.503521	-1.792275	0.506201
C29	C	-0.503526	-1.909051	0.506210
C30	C	-0.570453	-1.073641	0.573255
C31	C	-0.570457	-0.963917	0.573276
C32	C	-0.436580	-0.963916	0.439127
C33	C	-0.436572	-1.073638	0.439112
C34	C	-0.436682	-1.585449	1.061599
C35	C	-0.436681	-1.585458	0.951875
C36	C	-0.570341	-1.451029	0.951833
C37	C	-0.570345	-1.451026	1.061555
C38	C	-0.503526	-1.518232	1.233212
C39	C	-0.503510	-1.518234	1.116435
H40	H	-0.898358	-1.636864	0.387783
Cl41	Cl	-1.131683	-1.666755	0.358114
H42	H	-0.382080	-0.919236	0.384525
Cl43	Cl	-0.352406	-1.142606	0.354782
Cl44	Cl	-0.352659	-1.669937	1.130588
Cl45	Cl	-0.352667	-1.669962	0.882943
H46	H	-0.624754	-1.396309	0.907136
Cl47	Cl	-1.046081	-1.433856	0.590548
H48	H	-0.935738	-1.463566	0.560818
H49	H	-0.624959	-1.118304	0.627864
Cl50	Cl	-0.654610	-0.894958	0.657611
Cl51	Cl	-0.654372	-1.366528	1.130497
