data_functionalizedCrystal
_audit_creation_method	'MofGen! by Chris Wilmer'
_symmetry_space_group_name_H-M	'P1'
_symmetry_Int_Tables_number	1
_symmetry_cell_setting	triclinic
loop_
_symmetry_equiv_pos_as_xyz
  x,y,z
_cell_length_a	19.077105
_cell_length_b	25.639240
_cell_length_c	25.639233
_cell_angle_alpha	90.020815
_cell_angle_beta	87.689938
_cell_angle_gamma	92.260681
loop_
_atom_site_label
_atom_site_type_symbol
_atom_site_fract_x
_atom_site_fract_y
_atom_site_fract_z
Zn1	Zn	1.075832	0.240381	-0.327679
Zn2	Zn	1.075720	0.327796	-0.240237
Zn3	Zn	0.958149	0.236861	-0.236749
Zn4	Zn	0.958066	0.324266	-0.324133
O5	O	1.016941	0.282326	-0.282200
O6	O	1.174306	0.254927	-0.319023
O7	O	1.060111	0.315738	-0.166609
O8	O	0.973841	0.164165	-0.248835
O9	O	1.174224	0.319151	-0.254780
O10	O	1.060303	0.166751	-0.315641
O11	O	0.973733	0.248929	-0.164046
O12	O	0.859649	0.245505	-0.245397
O13	O	0.973700	0.313134	-0.397769
O14	O	0.859588	0.309721	-0.309598
O15	O	1.060222	0.251504	-0.400374
O16	O	1.060031	0.400491	-0.251342
O17	O	0.973591	0.397897	-0.312980
C18	C	0.834081	0.276849	-0.276735
C19	C	0.755852	0.274518	-0.274409
C20	C	1.016809	0.418165	-0.282167
C21	C	1.016816	0.476279	-0.282172
C22	C	0.719087	0.306907	-0.306690
C23	C	0.645583	0.304710	-0.304507
C24	C	0.608846	0.270127	-0.270041
C25	C	0.645616	0.237734	-0.237758
C26	C	0.719119	0.239929	-0.239944
C27	C	0.389018	0.259970	-0.259928
C28	C	0.315510	0.257779	-0.257743
C29	C	0.315482	0.324755	-0.324493
C30	C	0.388986	0.326949	-0.326674
C31	C	0.425750	0.294554	-0.294393
N32	N	0.533713	0.267882	-0.267808
N33	N	0.500882	0.296797	-0.296629
C34	C	1.062010	0.837985	-0.250143
C35	C	1.062031	0.892590	-0.250149
O36	O	1.100363	0.921967	-0.222898
N37	N	1.016998	0.918567	-0.282213
C38	C	0.971946	0.889935	-0.314277
O39	O	0.933644	0.917044	-0.341551
C40	C	0.971928	0.835332	-0.314274
C41	C	1.016959	0.809358	-0.282204
C42	C	1.107038	0.812012	-0.218076
C43	C	1.107015	0.757410	-0.218070
C44	C	1.061964	0.728783	-0.250131
C45	C	1.016937	0.754757	-0.282198
C46	C	0.926880	0.806701	-0.346341
C47	C	0.926867	0.752094	-0.346335
C48	C	0.971898	0.726120	-0.314265
C49	C	0.971864	0.671528	-0.314252
N50	N	1.016897	0.645552	-0.282188
C51	C	1.061947	0.674179	-0.250127
C52	C	0.971987	1.004607	-0.314282
C53	C	0.972000	1.059210	-0.314283
C54	C	1.062087	1.061861	-0.250156
C55	C	1.062069	1.007257	-0.250152
C56	C	1.017020	0.978631	-0.282218
C57	C	1.061896	0.559513	-0.250116
C58	C	1.061867	0.504906	-0.250111
C59	C	0.971783	0.502260	-0.314241
C60	C	0.971809	0.556861	-0.314244
C61	C	1.016871	0.585487	-0.282180
O62	O	0.933554	0.642118	-0.341491
O63	O	1.100249	0.647064	-0.222863
C64	C	1.200516	0.287825	-0.287686
C65	C	1.278745	0.290169	-0.290024
C66	C	1.016964	0.282318	-0.418573
C67	C	1.016974	0.282314	-0.476688
C68	C	1.017067	1.145957	-0.282235
C69	C	1.017054	1.087842	-0.282224
C70	C	1.062083	0.250126	-0.838415
C71	C	1.062092	0.250111	-0.893019
O72	O	1.100388	0.222803	-0.922414
N73	N	1.017051	0.282194	-0.918973
C74	C	0.971994	0.314288	-0.890318
O75	O	0.933685	0.341575	-0.917408
C76	C	0.971983	0.314299	-0.835715
C77	C	1.017031	0.282219	-0.809764
C78	C	1.107127	0.218047	-0.812464
C79	C	1.107119	0.218062	-0.757863
C80	C	1.062067	0.250156	-0.729213
C81	C	1.017023	0.282234	-0.755164
C82	C	0.926923	0.346391	-0.807061
C83	C	0.926915	0.346399	-0.752454
C84	C	0.971963	0.314319	-0.726504
C85	C	0.971963	0.314342	-0.671912
N86	N	1.017003	0.282260	-0.645959
C87	C	1.062055	0.250167	-0.674609
C88	C	0.972022	0.314262	-1.004990
C89	C	0.972036	0.314254	-1.059593
C90	C	1.062133	0.250076	-1.062290
C91	C	1.062121	0.250087	-1.007686
C92	C	1.017062	0.282180	-0.979036
C93	C	1.062036	0.250201	-0.559944
C94	C	1.062026	0.250221	-0.505338
C95	C	0.971927	0.314396	-0.502646
C96	C	0.971939	0.314379	-0.557247
C97	C	1.016996	0.282277	-0.585894
O98	O	0.933684	0.341635	-0.642484
O99	O	1.100352	0.222879	-0.647513
C100	C	1.016959	0.282298	-0.146358
C101	C	1.017086	0.282158	-0.088248
H102	H	0.748993	0.335071	-0.334755
C103	C	1.156666	0.182763	-0.729325
N104	N	1.193984	0.156171	-0.707833
H105	H	1.098723	0.224059	-0.583262
H106	H	0.890239	0.372514	-0.828181
H107	H	0.935264	0.340507	-0.578377
H108	H	0.285541	0.351128	-0.350775
H109	H	0.935328	0.340398	-0.981667
H110	H	0.285600	0.229611	-0.229680
C111	C	1.111403	0.476339	-0.214828
N112	N	1.148712	0.454823	-0.188252
H113	H	1.098591	0.582813	-0.224008
C114	C	0.429449	0.224338	-0.224415
N115	N	0.459904	0.197499	-0.197664
H116	H	1.098802	0.223963	-0.986561
H117	H	0.615699	0.209573	-0.209697
H118	H	1.143685	0.736266	-0.191957
H119	H	0.749052	0.213551	-0.213660
H120	H	0.890213	0.372528	-0.729130
C121	C	0.605145	0.340351	-0.340009
N122	N	0.574687	0.367201	-0.366747
C123	C	0.922369	0.349694	-0.471120
N124	N	0.885036	0.376278	-0.447373
C125	C	0.877343	0.835260	-0.381623
N126	N	0.840031	0.856770	-0.408200
H127	H	0.935325	1.080353	-0.340393
H128	H	1.143727	0.835315	-0.191968
C129	C	0.429392	0.364996	-0.364587
N130	N	0.459825	0.393656	-0.393142
H131	H	0.935143	0.578010	-0.340360
C132	C	1.156695	0.182741	-0.843971
N133	N	1.194037	0.156149	-0.867699
H134	H	1.098738	0.986113	-0.224038
H135	H	1.098815	0.223943	-1.085627
H136	H	0.935101	0.478943	-0.340343
H137	H	1.098772	1.085180	-0.224052
H138	H	0.935296	0.981302	-0.340393
H139	H	0.935361	0.340383	-1.080717
H140	H	0.890183	0.728789	-0.372449
H141	H	1.098712	0.224096	-0.484212
