data_functionalizedCrystal
_audit_creation_method	'MofGen! by Chris Wilmer'
_symmetry_space_group_name_H-M	'P1'
_symmetry_Int_Tables_number	1
_symmetry_cell_setting	triclinic
loop_
_symmetry_equiv_pos_as_xyz
  x,y,z
_cell_length_a	16.109301
_cell_length_b	10.723023
_cell_length_c	14.586319
_cell_angle_alpha	89.997215
_cell_angle_beta	89.998857
_cell_angle_gamma	83.964566
loop_
_atom_site_label
_atom_site_type_symbol
_atom_site_fract_x
_atom_site_fract_y
_atom_site_fract_z
O1	O	1.104074	0.160392	-0.076188
O2	O	0.862130	0.180352	-0.076201
O3	O	0.988683	-0.011278	-0.076190
O4	O	0.977521	0.352022	-0.076198
O5	O	0.988674	-0.011281	0.076291
O6	O	0.862121	0.180349	0.076280
O7	O	1.104065	0.160389	0.076293
Cu8	Cu	0.983092	0.170369	0.090209
Cu9	Cu	0.983103	0.170373	-0.090117
O10	O	0.977512	0.352020	0.076283
C11	C	0.831146	0.179542	0.000038
C12	C	0.738836	0.177118	0.000033
C13	C	0.430460	0.282903	0.000047
C14	C	0.517194	0.285193	0.000042
C15	C	0.535730	0.057830	0.000035
C16	C	0.448997	0.055542	0.000033
C17	C	0.396364	0.168082	0.000044
C18	C	0.569830	0.172660	0.000040
C19	C	0.663871	0.175141	0.000034
C20	C	0.302318	0.165601	0.000048
C21	C	0.987866	-0.057768	0.000049
C22	C	0.985436	-0.196290	0.000046
C23	C	0.984358	-0.258040	-0.078945
C24	C	0.981846	-0.401210	-0.078950
C25	C	1.135049	0.161199	0.000052
C26	C	1.227359	0.163624	0.000051
C27	C	0.978328	0.398510	0.000041
C28	C	0.980758	0.537032	0.000038
N29	N	0.983091	0.170366	0.217041
N30	N	0.983111	0.170366	-0.216949
C31	C	1.039148	0.085541	0.452052
C32	C	1.039150	0.085538	0.548033
C33	C	0.927048	0.255195	0.548034
C34	C	0.927042	0.255191	0.452054
C35	C	0.983097	0.170365	0.404066
C36	C	0.983105	0.170366	0.596027
C37	C	0.983107	0.170364	0.700094
C38	C	0.983094	0.170366	0.299992
H39	H	0.387608	0.374541	0.000055
H40	H	0.578593	-0.033797	0.000028
H41	H	1.084789	0.016468	0.412982
C42	C	1.100101	-0.006612	0.599967
C43	C	1.149200	-0.080874	0.537394
C44	C	1.205365	-0.165770	0.585201
H45	H	1.069999	-0.058691	0.637416
H46	H	1.135010	0.038261	0.637385
H47	H	1.114295	-0.125744	0.499992
H48	H	1.179319	-0.028830	0.499943
H49	H	1.240275	-0.120897	0.622618
H50	H	1.175257	-0.217840	0.622648
H51	H	1.238691	-0.216159	0.542752
H52	H	0.544949	0.378691	0.000043
H53	H	0.984495	-0.249416	0.067669
H54	H	0.421237	-0.037965	0.000028
C55	C	0.866147	0.347434	0.400113
C56	C	0.817078	0.421751	0.462680
C57	C	0.760981	0.506741	0.414865
H58	H	0.831205	0.302672	0.362675
H59	H	0.896327	0.399456	0.362684
H60	H	0.786900	0.369735	0.500093
H61	H	0.851997	0.466540	0.500120
H62	H	0.791161	0.558763	0.377436
H63	H	0.726045	0.461968	0.377429
H64	H	0.727686	0.557183	0.457309
C65	C	0.985494	-0.187023	-0.169046
C66	C	0.915420	-0.098193	-0.173833
C67	C	0.916451	-0.032737	-0.256816
H68	H	0.984457	-0.244169	-0.218688
H69	H	1.034763	-0.145709	-0.172440
H70	H	0.866163	-0.139505	-0.170448
H71	H	0.916442	-0.041020	-0.124210
H72	H	0.965721	0.008577	-0.260209
H73	H	0.915416	-0.089894	-0.306451
H74	H	0.868911	0.027548	-0.260071
C75	C	0.980433	-0.472045	-0.169098
C76	C	0.907708	-0.532681	-0.173891
C77	C	0.906370	-0.597938	-0.256928
H78	H	1.027881	-0.532451	-0.172593
H79	H	0.981394	-0.414763	-0.218684
H80	H	0.906755	-0.589958	-0.124319
H81	H	0.860248	-0.472304	-0.170411
H82	H	0.907331	-0.540656	-0.306513
H83	H	0.953822	-0.658337	-0.260416
H84	H	0.857024	-0.639077	-0.260194
H85	H	0.981690	-0.409873	0.067669
C86	C	0.866156	0.347095	0.600258
C87	C	0.814905	0.280606	0.655389
C88	C	0.758810	0.365225	0.703519
H89	H	0.832690	0.397650	0.558038
H90	H	0.896341	0.399035	0.637745
H91	H	0.784723	0.228688	0.617905
H92	H	0.848348	0.230056	0.697626
H93	H	0.788995	0.417165	0.741006
H94	H	0.725350	0.415775	0.661292
H95	H	0.724035	0.320125	0.740937
