data_functionalizedCrystal
_audit_creation_method	'MofGen! by Chris Wilmer'
_symmetry_space_group_name_H-M	'P1'
_symmetry_Int_Tables_number	1
_symmetry_cell_setting	triclinic
loop_
_symmetry_equiv_pos_as_xyz
  x,y,z
_cell_length_a	17.699077
_cell_length_b	17.699083
_cell_length_c	9.730223
_cell_angle_alpha	89.994713
_cell_angle_beta	89.997269
_cell_angle_gamma	83.281795
loop_
_atom_site_label
_atom_site_type_symbol
_atom_site_fract_x
_atom_site_fract_y
_atom_site_fract_z
O1	O	1.004077	0.095689	-0.114274
O2	O	1.504077	0.595689	0.385726
O3	O	0.783698	0.108147	-0.114281
O4	O	1.283698	0.608147	0.385719
O5	O	0.900114	-0.008271	-0.114266
O6	O	1.400114	0.491729	0.385734
O7	O	0.887662	0.212107	-0.114290
O8	O	1.387662	0.712107	0.385710
O9	O	0.900107	-0.008274	0.114314
O10	O	1.400107	0.491726	0.614314
O11	O	0.783691	0.108144	0.114298
O12	O	1.283691	0.608144	0.614298
O13	O	1.004070	0.095686	0.114306
O14	O	1.504070	0.595686	0.614306
Zn15	Zn	0.893879	0.101914	0.150594
Zn16	Zn	1.393879	0.601914	0.650594
Zn17	Zn	0.893889	0.101919	-0.150570
Zn18	Zn	1.393889	0.601919	0.349430
O19	O	0.887654	0.212104	0.114290
O20	O	1.387654	0.712104	0.614290
C21	C	0.755498	0.107700	0.000008
C22	C	1.255498	0.607700	0.500008
C23	C	0.671479	0.106363	0.000005
C24	C	1.171479	0.606363	0.500005
C25	C	0.632008	0.105731	0.124606
C26	C	1.132008	0.605731	0.624606
C27	C	0.553065	0.104463	0.124607
C28	C	1.053065	0.604463	0.624607
C29	C	0.513595	0.103832	0.000007
C30	C	1.013595	0.603832	0.500007
C31	C	0.553072	0.104461	-0.124603
C32	C	1.053072	0.604461	0.375397
C33	C	0.632014	0.105724	-0.124603
C34	C	1.132014	0.605724	0.375397
C35	C	0.234709	0.099368	-0.124605
C36	C	0.734709	0.599368	0.375395
C37	C	0.155761	0.098107	-0.124595
C38	C	0.655761	0.598107	0.375405
C39	C	0.155760	0.098107	0.124606
C40	C	0.655760	0.598107	0.624606
C41	C	0.234702	0.099370	0.124605
C42	C	0.734702	0.599370	0.624605
C43	C	0.274173	0.099995	-0.000004
C44	C	0.774173	0.599995	0.499996
C45	C	0.359772	0.101369	-0.000004
C46	C	0.859772	0.601369	0.499996
C47	C	0.427997	0.102464	0.000006
C48	C	0.927997	0.602464	0.500006
C49	C	0.899664	-0.036470	0.000025
C50	C	1.399664	0.463530	0.500025
C51	C	0.898326	-0.120488	0.000025
C52	C	1.398326	0.379512	0.500025
C53	C	0.966659	-0.169110	0.000029
C54	C	1.466659	0.330890	0.500029
C55	C	0.965397	-0.248054	0.000017
C56	C	1.465397	0.251946	0.500017
C57	C	0.895800	-0.278373	0.000011
C58	C	1.395800	0.221627	0.500011
C59	C	0.827461	-0.229744	0.000002
C60	C	1.327461	0.270256	0.500002
C61	C	0.828724	-0.150803	0.000005
C62	C	1.328724	0.349197	0.500005
C63	C	0.822366	-0.548107	-0.000009
C64	C	1.322366	-0.048107	0.499991
C65	C	0.821108	-0.627055	-0.000007
C66	C	1.321108	-0.127055	0.499993
C67	C	0.959039	-0.645358	0.000003
C68	C	1.459039	-0.145358	0.500003
C69	C	0.960302	-0.566417	0.000006
C70	C	1.460302	-0.066417	0.500006
C71	C	0.891963	-0.517795	-0.000010
C72	C	1.391963	-0.017795	0.499990
C73	C	0.893333	-0.432196	0.000001
C74	C	1.393333	0.067804	0.500001
C75	C	0.894430	-0.363971	0.000010
C76	C	1.394430	0.136029	0.500010
C77	C	1.032271	0.096133	0.000013
C78	C	1.532271	0.596133	0.500013
C79	C	1.116289	0.097470	0.000007
C80	C	1.616289	0.597470	0.500007
C81	C	0.888104	0.240303	-0.000003
C82	C	1.388104	0.740303	0.499997
C83	C	0.889443	0.324321	-0.000013
C84	C	1.389443	0.824321	0.499987
N85	N	0.893878	0.101911	0.356130
N86	N	1.393878	0.601911	0.856130
N87	N	0.893896	0.101916	-0.356106
N88	N	1.393896	0.601916	0.143894
C89	C	0.945444	0.050383	0.428063
C90	C	1.445444	0.550383	0.928063
C91	C	0.945452	0.050383	0.571946
C92	C	1.445452	0.550383	1.071946
C93	C	0.842324	0.153447	0.571951
C94	C	1.342324	0.653447	1.071951
C95	C	0.842314	0.153442	0.428070
C96	C	1.342314	0.653442	0.928070
H97	H	0.664138	0.106251	0.226070
H98	H	1.164138	0.606251	0.726070
H99	H	0.800343	0.195403	0.630539
H100	H	1.300343	0.695403	1.130539
H101	H	0.123627	0.097593	-0.226066
H102	H	0.623627	0.597593	0.273934
H103	H	0.987430	0.008422	0.369493
H104	H	1.487430	0.508422	0.869493
H105	H	0.800319	0.195403	0.369499
H106	H	1.300319	0.695403	0.869499
H107	H	0.664150	0.106240	-0.226066
H108	H	1.164150	0.606240	0.273934
H109	H	0.520933	0.103936	0.226070
H110	H	1.020933	0.603936	0.726070
H111	H	0.266834	0.099887	0.226068
H112	H	0.766834	0.599887	0.726068
O113	O	0.113144	0.097781	0.259013
O114	O	0.613144	0.597781	0.759013
H115	H	0.051603	0.096919	0.238088
H116	H	0.551603	0.596919	0.738088
O117	O	0.277276	0.100050	-0.258997
O118	O	0.777276	0.600050	0.241003
H119	H	0.236564	0.099409	-0.345635
H120	H	0.736564	0.599409	0.154365
H121	H	0.520930	0.103942	-0.226055
H122	H	1.020930	0.603942	0.273945
H123	H	1.023333	-0.144431	0.000043
H124	H	1.523333	0.355569	0.500043
O125	O	0.748656	-0.495679	-0.000007
O126	O	1.248656	0.004321	0.499993
H127	H	0.745923	-0.459275	-0.093179
H128	H	1.245923	0.040725	0.406821
H129	H	1.021041	-0.287639	0.000023
H130	H	1.521041	0.212361	0.500023
H131	H	0.773080	-0.111214	0.000001
H132	H	1.273080	0.388786	0.500001
H133	H	0.987441	0.008423	0.630510
H134	H	1.487441	0.508423	1.130510
H135	H	1.016974	-0.541735	0.000018
H136	H	1.516974	-0.041735	0.500018
O137	O	1.032751	-0.697799	0.000008
O138	O	1.532751	-0.197799	0.500008
H139	H	1.020186	-0.757787	-0.000008
H140	H	1.520186	-0.257787	0.499992
H141	H	0.764431	-0.651737	-0.000010
H142	H	1.264431	-0.151737	0.499990
O143	O	0.752393	-0.262440	0.000010
O144	O	1.252393	0.237560	0.500010
H145	H	0.762993	-0.325502	0.000029
H146	H	1.262993	0.174498	0.500029
