data_functionalizedCrystal
_audit_creation_method	'MofGen! by Chris Wilmer'
_symmetry_space_group_name_H-M	'P1'
_symmetry_Int_Tables_number	1
_symmetry_cell_setting	triclinic
loop_
_symmetry_equiv_pos_as_xyz
  x,y,z
_cell_length_a	8.497366
_cell_length_b	8.497374
_cell_length_c	13.032831
_cell_angle_alpha	97.192176
_cell_angle_beta	82.791383
_cell_angle_gamma	90.036547
loop_
_atom_site_label
_atom_site_type_symbol
_atom_site_fract_x
_atom_site_fract_y
_atom_site_fract_z
Zn1	Zn	-1.198102	0.934395	1.598073
Zn2	Zn	-0.864769	1.267728	1.931406
Zn3	Zn	-0.531436	1.601061	2.264739
Zn4	Zn	-0.934348	1.198313	1.597970
Zn5	Zn	-0.601015	1.531646	1.931303
Zn6	Zn	-0.267681	1.864980	2.264637
Zn7	Zn	-0.900856	0.901008	1.423256
Zn8	Zn	-0.567522	1.234341	1.756589
Zn9	Zn	-0.234189	1.567675	2.089923
Zn10	Zn	-1.164639	1.164587	1.423325
Zn11	Zn	-0.831306	1.497921	1.756658
Zn12	Zn	-0.497972	1.831254	2.089992
O13	O	-1.049486	1.049576	1.510656
O14	O	-0.716153	1.382909	1.843989
O15	O	-0.382820	1.716242	2.177323
O16	O	-1.191136	0.997490	1.744310
O17	O	-0.857802	1.330824	2.077643
O18	O	-0.524469	1.664157	2.410977
O19	O	-0.709129	1.159017	1.574722
O20	O	-0.375795	1.492350	1.908055
O21	O	-0.042462	1.825683	2.241389
O22	O	-0.940274	0.684677	1.446460
O23	O	-0.606941	1.018011	1.779793
O24	O	-0.273607	1.351344	2.113126
O25	O	-0.997356	1.191390	1.744235
O26	O	-0.664023	1.524724	2.077568
O27	O	-0.330690	1.858057	2.410901
O28	O	-1.158660	0.709206	1.574897
O29	O	-0.825326	1.042539	1.908230
O30	O	-0.491993	1.375873	2.241563
O31	O	-0.684522	0.940588	1.446360
O32	O	-0.351189	1.273921	1.779694
O33	O	-0.017855	1.607255	2.113027
O34	O	-0.907826	0.907886	1.277014
O35	O	-0.574493	1.241219	1.610347
O36	O	-0.241159	1.574553	1.943681
O37	O	-1.389854	1.133910	1.446577
O38	O	-1.056521	1.467243	1.779911
O39	O	-0.723188	1.800577	2.113244
O40	O	-1.101627	1.101536	1.277065
O41	O	-0.768293	1.434870	1.610398
O42	O	-0.434960	1.768203	1.943732
O43	O	-1.414440	0.964788	1.574964
O44	O	-1.081106	1.298122	1.908297
O45	O	-0.747773	1.631455	2.241630
O46	O	-0.964909	1.414599	1.574789
O47	O	-0.631575	1.747932	1.908122
O48	O	-0.298242	2.081265	2.241456
O49	O	-1.134103	1.389821	1.446478
O50	O	-0.800769	1.723154	1.779811
O51	O	-0.467436	2.056487	2.113145
C52	C	-0.997462	0.997430	1.239118
C53	C	-0.664128	1.330763	1.572452
C54	C	-0.330795	1.664096	1.905785
C55	C	-0.975243	0.975159	1.122953
C56	C	-0.641910	1.308493	1.456287
C57	C	-0.308576	1.641826	1.789620
C58	C	-1.061082	1.061199	1.071216
C59	C	-0.727749	1.394532	1.404549
C60	C	-0.394416	1.727866	1.737883
C61	C	-1.038120	1.038184	0.951153
C62	C	-0.704787	1.371517	1.284487
C63	C	-0.371453	1.704850	1.617820
C64	C	-0.460978	1.049444	1.510717
C65	C	-0.127645	1.382777	1.844050
C66	C	0.205688	1.716110	2.177384
C67	C	-0.639595	1.049747	1.510578
C68	C	-0.306262	1.383080	1.843912
C69	C	0.027071	1.716414	2.177245
C70	C	-1.049507	1.459453	1.510643
C71	C	-0.716173	1.792786	1.843976
C72	C	-0.382840	2.126120	2.177309
C73	C	-1.049486	1.638102	1.510670
C74	C	-0.716153	1.971436	1.844004
C75	C	-0.382819	2.304769	2.177337
C76	C	-1.101715	1.101927	1.783254
C77	C	-0.768381	1.435260	2.116587
C78	C	-0.435048	1.768593	2.449920
C79	C	-1.123971	1.124235	1.899419
C80	C	-0.790638	1.457569	2.232752
C81	C	-0.457305	1.790902	2.566085
H82	H	-1.151577	1.151894	1.115808
H83	H	-0.818244	1.485227	1.449141
H84	H	-0.484911	1.818561	1.782474
Br85	Br	-0.887298	0.886984	0.876846
Br86	Br	-0.553965	1.220317	1.210180
Br87	Br	-0.220632	1.553651	1.543513
Br88	Br	-1.274839	1.275392	0.973723
Br89	Br	-0.941506	1.608726	1.307056
Br90	Br	-0.608172	1.942059	1.640390
H91	H	-0.884760	0.884453	1.078362
H92	H	-0.551426	1.217786	1.411695
H93	H	-0.218093	1.551119	1.745028
