data_functionalizedCrystal
_audit_creation_method	'MofGen! by Chris Wilmer'
_symmetry_space_group_name_H-M	'P1'
_symmetry_Int_Tables_number	1
_symmetry_cell_setting	triclinic
loop_
_symmetry_equiv_pos_as_xyz
  x,y,z
_cell_length_a	15.297327
_cell_length_b	17.077404
_cell_length_c	17.077396
_cell_angle_alpha	90.019699
_cell_angle_beta	99.647268
_cell_angle_gamma	80.295941
loop_
_atom_site_label
_atom_site_type_symbol
_atom_site_fract_x
_atom_site_fract_y
_atom_site_fract_z
Zn1	Zn	-0.359233	-1.145942	-0.497910
Zn2	Zn	-0.510106	-1.123122	-0.389349
Zn3	Zn	-0.359257	-1.014670	-0.366661
Zn4	Zn	-0.510044	-0.991924	-0.520563
O5	O	-0.434660	-1.068914	-0.443621
O6	O	-0.379263	-1.252759	-0.483524
O7	O	-0.490131	-1.108705	-0.276498
O8	O	-0.233007	-1.051153	-0.365095
O9	O	-0.490109	-1.235994	-0.403765
O10	O	-0.232990	-1.147598	-0.461523
O11	O	-0.379303	-1.029026	-0.259829
O12	O	-0.379243	-0.901808	-0.387061
O13	O	-0.490003	-1.012386	-0.627400
O14	O	-0.490026	-0.885097	-0.500133
O15	O	-0.379203	-1.125542	-0.610756
O16	O	-0.636344	-1.086649	-0.425731
O17	O	-0.636299	-0.990259	-0.522133
C18	C	-0.434631	-0.864971	-0.443594
C19	C	-0.434640	-0.777720	-0.443604
C20	C	-0.377025	-0.745445	-0.485226
C21	C	-0.377029	-0.663464	-0.485228
C22	C	-0.434654	-0.613758	-0.443613
C23	C	-0.492272	-0.646039	-0.401987
C24	C	-0.492262	-0.728019	-0.401980
C25	C	-0.492289	-0.475166	-0.402005
C26	C	-0.492300	-0.393180	-0.402012
C27	C	-0.377056	-0.410611	-0.485253
C28	C	-0.377046	-0.492591	-0.485246
C29	C	-0.434666	-0.524866	-0.443621
C30	C	-0.669055	-1.033531	-0.478869
C31	C	-0.769331	-1.018465	-0.493975
C32	C	-1.051960	-1.176914	-0.335925
C33	C	-0.957746	-1.191068	-0.321729
C34	C	-0.910637	-1.147919	-0.364789
C35	C	-0.957752	-1.090612	-0.422048
C36	C	-1.051975	-1.076452	-0.436242
C37	C	-0.910653	-1.047457	-0.465106
C38	C	-0.957767	-0.990151	-0.522365
C39	C	-1.051981	-0.975993	-0.536557
C40	C	-1.099089	-1.019143	-0.493496
C41	C	-0.816430	-1.061617	-0.450912
C42	C	-0.816445	-0.961156	-0.551229
C43	C	-0.910659	-0.947001	-0.565426
C44	C	-0.199349	-1.104458	-0.408252
C45	C	-0.099074	-1.119604	-0.393179
C46	C	-0.434594	-1.068972	-0.648355
C47	C	-0.434565	-1.068996	-0.735601
C48	C	-0.434686	-0.273655	-0.443641
C49	C	-0.434685	-0.360905	-0.443634
C50	C	-0.376867	-1.127919	-0.767925
C51	C	-0.376837	-1.127933	-0.849901
C52	C	-0.434510	-1.069027	-0.899552
C53	C	-0.492211	-1.010098	-0.867222
C54	C	-0.492236	-1.010082	-0.785247
C55	C	-0.492157	-1.010138	-1.038084
C56	C	-0.492134	-1.010155	-1.120065
C57	C	-0.376758	-1.127990	-1.102738
C58	C	-0.376782	-1.127973	-1.020763
C59	C	-0.434485	-1.069045	-0.988439
C60	C	-0.434661	-1.068912	-0.239673
C61	C	-0.434435	-1.069078	-0.152390
H62	H	-0.539224	-0.352711	-0.368126
H63	H	-0.329905	-1.175890	-0.727505
H64	H	-0.778090	-0.926018	-0.586291
F65	F	-0.810367	-1.163153	-0.349847
F66	F	-0.766298	-1.122605	-0.389974
F67	F	-0.315457	-1.190670	-0.884304
F68	F	-0.553596	-0.593137	-0.357692
H69	H	-1.090339	-0.929321	-0.583172
H70	H	-1.090324	-1.212035	-0.300867
H71	H	-0.539178	-0.754296	-0.368087
F72	F	-0.553569	-0.947418	-1.003684
H73	H	-0.949033	-0.900341	-0.612047
H74	H	-0.330128	-0.533059	-0.519138
F75	F	-0.315708	-0.629118	-0.529529
F76	F	-0.315405	-1.190672	-0.967923
F77	F	-0.553509	-0.947455	-1.172905
H78	H	-0.329773	-1.175970	-1.129060
H79	H	-1.175806	-1.007623	-0.505054
H80	H	-0.539167	-0.962133	-0.907654
F81	F	-0.553645	-0.947366	-0.750845
F82	F	-0.907610	-1.252061	-0.260797
H83	H	-0.330138	-0.384329	-0.519144
F84	F	-0.315695	-0.798338	-0.529523
H85	H	-0.539207	-0.501441	-0.368106
