data_functionalizedCrystal
_audit_creation_method	'MofGen! by Chris Wilmer'
_symmetry_space_group_name_H-M	'P1'
_symmetry_Int_Tables_number	1
_symmetry_cell_setting	triclinic
loop_
_symmetry_equiv_pos_as_xyz
  x,y,z
_cell_length_a	16.992694
_cell_length_b	12.837942
_cell_length_c	16.053802
_cell_angle_alpha	92.838962
_cell_angle_beta	87.249047
_cell_angle_gamma	92.748582
loop_
_atom_site_label
_atom_site_type_symbol
_atom_site_fract_x
_atom_site_fract_y
_atom_site_fract_z
O1	O	1.059913	0.217066	-0.069322
O2	O	0.831447	0.214638	-0.069347
O3	O	0.940614	0.064530	-0.069330
O4	O	0.950746	0.367174	-0.069339
O5	O	0.934602	0.072756	0.069528
O6	O	0.825435	0.222864	0.069511
O7	O	1.053901	0.225292	0.069536
Zn8	Zn	0.938714	0.225384	0.091570
Zn9	Zn	0.946634	0.214546	-0.091381
O10	O	0.944734	0.375400	0.069519
C11	C	0.798996	0.215629	0.000079
C12	C	0.711256	0.206315	0.000070
C13	C	0.934185	0.029738	0.000098
C14	C	0.923977	-0.086184	0.000096
C15	C	0.667730	0.296178	0.000068
C16	C	0.585288	0.287422	0.000079
C17	C	0.546375	0.188801	0.000087
C18	C	0.589907	0.098931	0.000092
C19	C	0.672346	0.107689	0.000086
C20	C	0.300064	0.152502	0.000111
C21	C	0.217618	0.143751	0.000114
C22	C	0.213006	0.332243	0.000103
C23	C	0.295447	0.340992	0.000092
C24	C	0.338972	0.251122	0.000101
N25	N	0.462107	0.179847	0.000097
N26	N	0.423238	0.260077	0.000098
C27	C	1.046699	-0.316977	0.000092
C28	C	1.037111	-0.425897	0.000089
C29	C	0.895215	-0.412948	0.000082
C30	C	0.904802	-0.304027	0.000085
C31	C	0.980547	-0.256046	0.000091
C32	C	0.990134	-0.147123	0.000099
C33	C	0.848238	-0.134176	0.000086
C34	C	0.838650	-0.243097	0.000084
C35	C	1.086353	0.224300	0.000108
C36	C	1.174092	0.233614	0.000112
C37	C	0.951163	0.410191	0.000089
C38	C	0.961371	0.526114	0.000086
N39	N	0.933314	0.232780	0.216430
N40	N	0.952040	0.207141	-0.216241
C41	C	0.979785	0.168935	0.260131
C42	C	0.976016	0.174120	0.347537
C43	C	0.925779	0.243156	0.391240
C44	C	0.879303	0.307004	0.347533
C45	C	0.883068	0.301813	0.260129
C46	C	0.909329	0.265799	0.652647
C47	C	0.905569	0.270987	0.740058
C48	C	1.002281	0.138101	0.740056
C49	C	1.006046	0.132921	0.652650
C50	C	0.959566	0.196765	0.608950
N51	N	0.921927	0.248459	0.480584
N52	N	0.963414	0.191455	0.519608
H53	H	0.699407	0.376486	0.000061
O54	O	1.128390	-0.265216	0.000105
H55	H	1.138599	-0.219244	-0.056487
O56	O	0.776884	-0.068452	0.000096
H57	H	0.722606	-0.120119	0.000101
O58	O	0.538339	0.384344	0.000078
H59	H	0.579249	0.454391	0.000061
O60	O	1.026150	0.105259	0.394661
H61	H	0.987443	0.054132	0.434486
H62	H	1.020697	0.112723	0.224553
O63	O	1.060222	0.058452	0.605511
H64	H	1.091898	0.014917	0.650585
O65	O	0.347004	0.055577	0.000120
H66	H	0.306093	-0.014469	0.000119
H67	H	1.051809	-0.108058	0.000107
H68	H	1.090979	-0.475503	0.000087
O69	O	0.337418	0.447362	0.000105
H70	H	0.293300	0.508382	0.000118
O71	O	0.813523	-0.464706	0.000082
H72	H	0.817974	-0.550681	0.000086
H73	H	0.558216	0.018632	0.000110
H74	H	0.776981	-0.282179	0.000076
H75	H	1.040121	0.086121	0.775644
O76	O	0.832937	0.370657	0.212983
H77	H	0.871642	0.421759	0.173136
O78	O	0.851372	0.345437	0.787201
H79	H	0.819676	0.388951	0.742131
O80	O	0.859208	0.334666	0.605518
H81	H	0.823652	0.383550	0.650595
H82	H	0.838395	0.363211	0.383121
H83	H	0.177559	0.405409	0.000097
H84	H	0.707785	0.034512	0.000087
O85	O	0.175642	0.037377	0.000130
H86	H	0.219756	-0.023644	0.000144
