data_functionalizedCrystal
_audit_creation_method	'MofGen! by Chris Wilmer'
_symmetry_space_group_name_H-M	'P1'
_symmetry_Int_Tables_number	1
_symmetry_cell_setting	triclinic
loop_
_symmetry_equiv_pos_as_xyz
  x,y,z
_cell_length_a	10.654550
_cell_length_b	14.044220
_cell_length_c	9.730223
_cell_angle_alpha	89.997406
_cell_angle_beta	89.996251
_cell_angle_gamma	88.836890
loop_
_atom_site_label
_atom_site_type_symbol
_atom_site_fract_x
_atom_site_fract_y
_atom_site_fract_z
O1	O	1.681222	0.133227	-0.114408
O2	O	1.317019	0.145921	-0.114387
O3	O	1.493654	0.001554	-0.114384
O4	O	1.504587	0.277595	-0.114411
O5	O	1.493652	0.001557	0.114196
O6	O	1.317017	0.145925	0.114193
O7	O	1.681220	0.133231	0.114172
Zn8	Zn	1.499118	0.139578	0.150474
Zn9	Zn	1.499121	0.139574	-0.150689
O10	O	1.504585	0.277598	0.114169
C11	C	1.270127	0.144991	-0.000094
C12	C	1.130403	0.142202	-0.000085
C13	C	1.059459	0.227203	-0.000114
C14	C	0.928175	0.224578	-0.000137
C15	C	0.938790	0.051942	-0.000109
C16	C	1.070072	0.054569	-0.000076
C17	C	1.053329	0.326873	-0.000136
C18	C	0.922045	0.324247	-0.000159
C19	C	1.488867	-0.033790	-0.000093
C20	C	1.474592	-0.139110	-0.000090
C21	C	1.448493	-0.331943	-0.000108
C22	C	1.549741	-0.388911	-0.000119
C23	C	1.535219	-0.496210	-0.000129
C24	C	1.463013	-0.224634	-0.000098
C25	C	1.728113	0.134161	-0.000124
C26	C	1.867836	0.136950	-0.000142
C27	C	1.509372	0.312942	-0.000125
C28	C	1.523648	0.418262	-0.000137
N29	N	1.499126	0.139581	0.356011
N30	N	1.499123	0.139563	-0.356226
C31	C	1.577364	0.075677	0.427938
C32	C	1.577359	0.075666	0.571821
C33	C	1.420876	0.203470	0.571837
C34	C	1.420875	0.203477	0.427956
C35	C	1.667713	0.001893	0.427931
C36	C	1.667708	0.001881	0.571814
H37	H	1.127830	-0.014647	-0.000033
O38	O	1.679015	-0.346788	-0.000113
H39	H	1.690449	-0.302209	0.093065
H40	H	1.350913	-0.363754	-0.000106
O41	O	1.791564	0.032492	0.368784
H42	H	1.831965	-0.025824	0.304583
H43	H	1.357156	0.255504	0.369394
O44	O	0.865537	0.364149	0.130544
H45	H	0.941747	0.387433	0.199856
H46	H	1.630271	-0.067018	0.616438
H47	H	1.357165	0.255492	0.630430
H48	H	1.638943	-0.071017	0.388885
O49	O	0.873720	-0.042575	-0.000105
H50	H	0.770512	-0.030123	-0.000138
O51	O	1.797701	0.023416	0.623552
H52	H	1.861343	0.033977	0.534774
H53	H	1.092175	0.358608	-0.098826
O54	O	1.097329	0.378492	0.126610
H55	H	1.151320	0.441736	0.095534
O56	O	0.871746	0.373992	-0.126874
H57	H	0.951237	0.400417	-0.188901
