data_functionalizedCrystal
_audit_creation_method	'MofGen! by Chris Wilmer'
_symmetry_space_group_name_H-M	'P1'
_symmetry_Int_Tables_number	1
_symmetry_cell_setting	triclinic
loop_
_symmetry_equiv_pos_as_xyz
  x,y,z
_cell_length_a	12.759401
_cell_length_b	21.395361
_cell_length_c	12.759393
_cell_angle_alpha	90.035693
_cell_angle_beta	89.980404
_cell_angle_gamma	89.969189
loop_
_atom_site_label
_atom_site_type_symbol
_atom_site_fract_x
_atom_site_fract_y
_atom_site_fract_z
Zn1	Zn	1.606151	0.249404	-0.593945
Zn2	Zn	2.106151	0.749404	-0.093945
Zn3	Zn	1.605993	0.354194	-0.418249
Zn4	Zn	2.105993	0.854194	0.081751
Zn5	Zn	1.430449	0.249435	-0.418284
Zn6	Zn	1.930449	0.749435	0.081716
Zn7	Zn	1.430393	0.354148	-0.593890
Zn8	Zn	1.930393	0.854148	-0.093890
O9	O	1.518247	0.301795	-0.506092
O10	O	2.018247	0.801795	-0.006092
O11	O	1.753151	0.263311	-0.570646
O12	O	2.253151	0.763311	-0.070646
O13	O	1.582665	0.340330	-0.271232
O14	O	2.082665	0.840330	0.228768
O15	O	1.453846	0.161753	-0.441623
O16	O	1.953846	0.661753	0.058377
O17	O	1.753035	0.340299	-0.441563
O18	O	2.253035	0.840299	0.058437
O19	O	1.582933	0.161730	-0.570680
O20	O	2.082933	0.661730	-0.070680
O21	O	1.453694	0.263363	-0.271258
O22	O	1.953694	0.763363	0.228742
O23	O	1.283421	0.263319	-0.441570
O24	O	1.783421	0.763319	0.058430
O25	O	1.453750	0.340221	-0.740918
O26	O	1.953750	0.840221	-0.240918
O27	O	1.283379	0.340251	-0.570587
O28	O	1.783379	0.840251	-0.070587
O29	O	1.582878	0.263266	-0.740958
O30	O	2.082878	0.763266	-0.240958
O31	O	1.582610	0.441866	-0.441510
O32	O	2.082610	0.941866	0.058490
O33	O	1.453597	0.441832	-0.570553
O34	O	1.953597	0.941832	-0.070553
C35	C	1.245279	0.301784	-0.506077
C36	C	1.745279	0.801784	-0.006077
C37	C	1.128503	0.301794	-0.506096
C38	C	1.628503	0.801794	-0.006096
C39	C	0.963915	0.341923	-0.573177
C40	C	1.463915	0.841923	-0.073177
C41	C	1.073639	0.341916	-0.573166
C42	C	1.573639	0.841916	-0.073166
C43	C	1.073636	0.261681	-0.439025
C44	C	1.573636	0.761681	0.060975
C45	C	0.963914	0.261691	-0.439032
C46	C	1.463914	0.761691	0.060968
C47	C	1.518109	0.464583	-0.506045
C48	C	2.018109	0.964583	-0.006045
C49	C	1.518146	0.534224	-0.506060
C50	C	2.018146	1.034224	-0.006060
C51	C	1.585383	0.566934	-0.438939
C52	C	2.085383	1.066934	0.061061
C53	C	1.585432	0.632369	-0.438967
C54	C	2.085432	1.132369	0.061033
C55	C	1.518226	0.665092	-0.506106
C56	C	2.018226	1.165092	-0.006106
C57	C	1.450984	0.632374	-0.573240
C58	C	1.950984	1.132374	-0.073240
C59	C	1.450944	0.566940	-0.573217
C60	C	1.950944	1.066940	-0.073217
C61	C	1.423628	0.768806	-0.514351
C62	C	1.923628	1.268806	-0.014351
C63	C	1.423666	0.834239	-0.514367
C64	C	1.923666	1.334239	-0.014367
C65	C	1.518349	0.866913	-0.506182
C66	C	2.018349	1.366913	-0.006182
C67	C	1.612997	0.834146	-0.497959
C68	C	2.112997	1.334146	0.002041
C69	C	1.612957	0.768711	-0.497937
C70	C	2.112957	1.268711	0.002063
C71	C	1.518262	0.736045	-0.506138
C72	C	2.018262	1.236045	-0.006138
C73	C	1.585645	0.970575	-0.439087
C74	C	2.085645	1.470575	0.060913
C75	C	1.585696	1.036012	-0.439123
C76	C	2.085696	1.536012	0.060877
C77	C	1.451239	1.036016	-0.573391
C78	C	1.951239	1.536016	-0.073391
C79	C	1.451197	0.970580	-0.573361
C80	C	1.951197	1.470580	-0.073361
C81	C	1.518399	0.937864	-0.506203
C82	C	2.018399	1.437864	-0.006203
C83	C	1.792280	0.301807	-0.506107
C84	C	2.292280	0.801807	-0.006107
C85	C	1.909056	0.301812	-0.506113
C86	C	2.409056	0.801812	-0.006113
C87	C	1.518325	0.301735	-0.780125
C88	C	2.018325	0.801735	-0.280125
C89	C	1.518359	0.301709	-0.896902
C90	C	2.018359	0.801709	-0.396902
C91	C	1.518415	1.138372	-0.506180
C92	C	2.018415	1.638372	-0.006180
C93	C	1.518490	1.068730	-0.506263
C94	C	2.018490	1.568730	-0.006263
C95	C	1.585601	0.261632	-0.951786
C96	C	2.085601	0.761632	-0.451786
C97	C	1.585619	0.261605	-1.061511
C98	C	2.085619	0.761605	-0.561511
C99	C	1.451149	0.341738	-1.061456
C100	C	1.951149	0.841738	-0.561456
C101	C	1.451127	0.341761	-0.951734
C102	C	1.951127	0.841761	-0.451734
C103	C	1.518229	0.301810	-0.233124
C104	C	2.018229	0.801810	0.266876
C105	C	1.518399	0.301659	-0.116348
C106	C	2.018399	0.801659	0.383652
H107	H	0.919247	0.229027	-0.384416
H108	H	1.419247	0.729027	0.115584
H109	H	1.396414	0.374348	-1.106114
H110	H	1.896414	0.874348	-0.606114
H111	H	1.396523	1.062658	-0.628061
H112	H	1.896523	1.562658	-0.128061
H113	H	1.640343	0.229018	-0.907146
H114	H	2.140343	0.729018	-0.407146
H115	H	1.396266	0.659022	-0.627907
H116	H	1.896266	1.159022	-0.127907
Br117	Br	1.676841	0.926171	-0.347945
Br118	Br	2.176841	1.426171	0.152055
Br119	Br	1.676965	1.080406	-0.348032
Br120	Br	2.176965	1.580406	0.151968
H121	H	1.640372	0.228970	-1.106193
H122	H	2.140372	0.728970	-0.606193
H123	H	1.118301	0.374580	-0.627774
H124	H	1.618301	0.874580	-0.127774
H125	H	1.118314	0.229015	-0.384411
H126	H	1.618314	0.729015	0.115589
H127	H	1.396363	0.374396	-0.907046
H128	H	1.896363	0.874396	-0.407046
Br129	Br	1.676688	0.676771	-0.347867
Br130	Br	2.176688	1.176771	0.152133
Br131	Br	0.889469	0.396373	-0.664213
Br132	Br	1.389469	0.896373	-0.164213
H133	H	1.640105	0.540298	-0.384258
H134	H	2.140105	1.040298	0.115742
H135	H	1.690097	0.860747	-0.491295
H136	H	2.190097	1.360747	0.008705
Br137	Br	1.741400	0.724243	-0.486786
Br138	Br	2.241400	1.224243	0.013214
Br139	Br	1.359939	0.926185	-0.664457
Br140	Br	1.859939	1.426185	-0.164457
H141	H	1.346598	0.860913	-0.521052
H142	H	1.846598	1.360913	-0.021052
H143	H	1.346519	0.742210	-0.521021
H144	H	1.846519	1.242210	-0.021021
Br145	Br	1.359689	0.522545	-0.664320
Br146	Br	1.859689	1.022545	-0.164320
