data_functionalizedCrystal
_audit_creation_method	'MofGen! by Chris Wilmer'
_symmetry_space_group_name_H-M	'P1'
_symmetry_Int_Tables_number	1
_symmetry_cell_setting	triclinic
loop_
_symmetry_equiv_pos_as_xyz
  x,y,z
_cell_length_a	31.640172
_cell_length_b	31.640172
_cell_length_c	31.640172
_cell_angle_alpha	90.011976
_cell_angle_beta	60.003368
_cell_angle_gamma	59.998920
loop_
_atom_site_label
_atom_site_type_symbol
_atom_site_fract_x
_atom_site_fract_y
_atom_site_fract_z
Zr1	Zr	0.462607	0.407160	-0.055484
O2	O	0.550785	0.339665	-0.122987
O3	O	0.374426	0.427854	-0.034780
O4	O	0.462591	0.427847	-0.122960
O5	O	0.462634	0.339674	0.034739
O6	O	0.462583	0.497404	-0.122950
O7	O	0.462620	0.339672	-0.034807
O8	O	0.304871	0.497417	0.034787
O9	O	0.620345	0.339662	-0.122998
O10	O	0.410691	0.488586	-0.025956
O11	O	0.410708	0.436679	0.025938
O12	O	0.514511	0.436670	-0.077882
O13	O	0.514528	0.384763	-0.025988
Zr14	Zr	0.462616	0.518100	0.055448
Zr15	Zr	0.462593	0.518096	-0.055469
Zr16	Zr	0.462630	0.407165	0.055434
Zr17	Zr	0.573548	0.407156	-0.055503
Zr18	Zr	0.351675	0.518105	0.055467
O19	O	0.550797	0.497407	0.034745
O20	O	0.550765	0.497400	-0.122966
O21	O	0.550817	0.339671	0.034724
O22	O	0.374438	0.585596	0.122951
O23	O	0.374406	0.585590	-0.034759
O24	O	0.374458	0.427860	0.122930
O25	O	0.462589	0.585586	-0.034774
O26	O	0.462632	0.497414	0.122924
O27	O	0.462640	0.427857	0.122915
O28	O	0.462603	0.585589	0.034772
O29	O	0.620334	0.427840	-0.122987
O30	O	0.304889	0.497420	0.122951
O31	O	0.304878	0.585599	0.122963
O32	O	0.304860	0.585596	0.034799
O33	O	0.620363	0.339665	-0.034834
O34	O	0.620352	0.427844	-0.034822
O35	O	0.410712	0.488590	0.077846
O36	O	0.410695	0.540498	0.025952
O37	O	0.514515	0.488582	-0.025974
O38	O	0.514532	0.436674	0.025921
C39	C	0.323842	0.462636	0.000006
C40	C	0.276745	0.462638	0.000014
C41	C	0.023068	0.424309	-0.038352
C42	C	-0.153913	0.424305	-0.038366
O43	O	-0.144209	0.391725	-0.070975
N44	N	-0.214362	0.462627	-0.000041
C45	C	-0.230566	0.500955	0.038289
O46	O	-0.286043	0.533553	0.070883
C47	C	-0.053586	0.500960	0.038300
C48	C	0.006864	0.462633	-0.000024
C49	C	0.083514	0.385985	-0.076674
C50	C	0.127757	0.385984	-0.076668
C51	C	0.111552	0.424308	-0.038341
C52	C	0.051106	0.462633	-0.000019
C53	C	-0.069790	0.539290	0.076627
C54	C	-0.025539	0.539289	0.076626
C55	C	0.034911	0.500961	0.038301
C56	C	0.079144	0.500956	0.038314
N57	N	0.139593	0.462634	-0.000011
C58	C	0.155798	0.424310	-0.038339
C59	C	-0.323481	0.500948	0.038280
C60	C	-0.367726	0.500947	0.038278
C61	C	-0.291070	0.424297	-0.038378
C62	C	-0.246824	0.424297	-0.038373
C63	C	-0.263032	0.462626	-0.000045
C64	C	0.248707	0.424312	-0.038324
C65	C	0.292949	0.424314	-0.038313
C66	C	0.216289	0.500965	0.038340
C67	C	0.172050	0.500962	0.038332
C68	C	0.188263	0.462633	-0.000004
O69	O	0.069484	0.533522	0.070902
O70	O	0.211277	0.391723	-0.070935
C71	C	-0.021174	0.424309	-0.038358
C72	C	-0.081621	0.462633	-0.000036
C73	C	-0.097825	0.500957	0.038292
C74	C	-0.125866	0.462631	-0.000038
C75	C	-0.109662	0.424307	-0.038365
C76	C	-0.049212	0.385985	-0.076691
C77	C	-0.004970	0.385985	-0.076685
C78	C	-0.158274	0.539279	0.076617
C79	C	-0.202513	0.539276	0.076609
C80	C	-0.186309	0.500952	0.038281
C81	C	0.462629	0.323867	-0.000036
C82	C	0.462635	0.276772	-0.000042
C83	C	0.408413	0.011866	0.027098
C84	C	0.408403	-0.165119	0.027108
O85	O	0.362313	-0.164958	0.050178
N86	N	0.462595	-0.214349	0.000002
C87	C	0.516794	-0.219331	-0.027105
O88	O	0.562888	-0.265265	-0.050155
C89	C	0.516804	-0.042346	-0.027112
C90	C	0.462608	0.006882	-0.000009
C91	C	0.354221	0.061092	0.054199
C92	C	0.354224	0.105336	0.054194
C93	C	0.408419	0.100352	0.027087
C94	C	0.462611	0.051126	-0.000014
C95	C	0.571002	-0.047329	-0.054216
C96	C	0.571000	-0.003078	-0.054214
C97	C	0.516804	0.046151	-0.027111
C98	C	0.516809	0.090386	-0.027125
N99	N	0.462616	0.139615	-0.000020
C100	C	0.408421	0.144598	0.027086
C101	C	0.516785	-0.312249	-0.027100
C102	C	0.516783	-0.356495	-0.027099
C103	C	0.408391	-0.302280	0.027114
C104	C	0.408394	-0.258033	0.027110
C105	C	0.462593	-0.263019	0.000005
C106	C	0.408432	0.237511	0.027073
C107	C	0.408440	0.281755	0.027064
C108	C	0.516832	0.227537	-0.027147
C109	C	0.516824	0.183296	-0.027140
C110	C	0.462619	0.188286	-0.000026
O111	O	0.562874	0.090264	-0.050179
O112	O	0.362335	0.190536	0.050143
C113	C	0.408410	-0.032378	0.027103
C114	C	0.462601	-0.081604	0.000002
C115	C	0.516796	-0.086588	-0.027105
C116	C	0.462599	-0.125850	0.000002
C117	C	0.408404	-0.120867	0.027109
C118	C	0.354212	-0.071638	0.054214
C119	C	0.354215	-0.027394	0.054209
C120	C	0.570989	-0.135817	-0.054210
C121	C	0.570981	-0.180058	-0.054203
C122	C	0.516786	-0.175075	-0.027097
C123	C	0.601381	0.462625	-0.000041
C124	C	0.648478	0.462623	-0.000049
C125	C	0.462584	0.462625	-0.138758
C126	C	0.462574	0.462623	-0.185846
C127	C	0.462594	0.601394	0.000001
C128	C	0.462588	0.648489	0.000007
C129	C	0.408414	0.489741	-0.495047
C130	C	0.408396	0.489733	-0.318047
O131	O	0.362305	0.512796	-0.272112
N132	N	0.462587	0.462632	-0.323018
C133	C	0.516787	0.435534	-0.372244
O134	O	0.562880	0.412487	-0.372411
C135	C	0.516805	0.435545	-0.549242
C136	C	0.462610	0.462644	-0.544267
C137	C	0.354223	0.516838	-0.490074
C138	C	0.354228	0.516838	-0.534321
C139	C	0.408424	0.489740	-0.583541
C140	C	0.462615	0.462643	-0.588514
C141	C	0.571004	0.408450	-0.598466
C142	C	0.571004	0.408456	-0.642716
C143	C	0.516809	0.435555	-0.637741
C144	C	0.516816	0.435545	-0.681982
N145	N	0.462624	0.462646	-0.677011
C146	C	0.408428	0.489744	-0.627791
C147	C	0.516774	0.435529	-0.279315
C148	C	0.516770	0.435526	-0.235066
C149	C	0.408378	0.489726	-0.180872
C150	C	0.408383	0.489726	-0.225123
C151	C	0.462583	0.462630	-0.274344
C152	C	0.408443	0.489740	-0.720716
C153	C	0.408453	0.489735	-0.764969
C154	C	0.516844	0.435537	-0.819159
C155	C	0.516835	0.435540	-0.774909
C156	C	0.462629	0.462645	-0.725686
O157	O	0.562882	0.412499	-0.727933
O158	O	0.362342	0.512797	-0.627635
C159	C	0.408409	0.489742	-0.450799
C160	C	0.462600	0.462645	-0.455772
C161	C	0.516795	0.435548	-0.504992
C162	C	0.462595	0.462641	-0.411523
C163	C	0.408400	0.489739	-0.362302
C164	C	0.354208	0.516840	-0.357331
C165	C	0.354213	0.516839	-0.401579
C166	C	0.570987	0.408446	-0.509963
C167	C	0.570977	0.408449	-0.465714
C168	C	0.516782	0.435546	-0.416493
C169	C	0.462639	0.462636	0.138723
C170	C	0.462649	0.462638	0.185810
C171	C	0.323825	0.601400	0.000025
C172	C	0.276722	0.648496	0.000039
C173	C	0.323870	0.462642	0.138747
C174	C	0.276782	0.462645	0.185842
C175	C	0.323852	0.601405	0.138765
C176	C	0.276759	0.648504	0.185867
C177	C	0.601371	0.323856	-0.138801
C178	C	0.648464	0.276757	-0.185902
C179	C	0.601398	0.323861	-0.000060
C180	C	0.648501	0.276764	-0.000074
C181	C	0.601353	0.462619	-0.138782
C182	C	0.648441	0.462615	-0.185878
C183	C	0.254600	0.643516	-0.027054
C184	C	0.210347	0.687765	-0.027051
C185	C	0.188215	0.736993	0.000049
C186	C	0.210342	0.741972	0.027143
C187	C	0.254596	0.697724	0.027136
C188	C	0.254671	0.489745	0.235059
C189	C	0.210434	0.489746	0.279314
C190	C	0.188305	0.462651	0.274352
C191	C	0.210420	0.435549	0.225130
C192	C	0.254660	0.435545	0.180876
C193	C	0.254634	0.697722	0.180898
C194	C	0.210391	0.741980	0.225151
C195	C	0.188270	0.737020	0.274372
C196	C	0.210399	0.687797	0.279340
C197	C	0.254644	0.643539	0.235088
C198	C	0.670594	0.227539	-0.180934
C199	C	0.714851	0.183280	-0.225186
C200	C	0.736975	0.188241	-0.274407
C201	C	0.714843	0.237464	-0.279375
C202	C	0.670590	0.281722	-0.235123
C203	C	0.670628	0.281744	0.027015
C204	C	0.714892	0.237496	0.026999
C205	C	0.737026	0.188268	-0.000102
C206	C	0.714898	0.183289	-0.027194
C207	C	0.670637	0.227537	-0.027182
C208	C	0.670556	0.489715	-0.180899
C209	C	0.714794	0.489722	-0.225145
C210	C	0.736919	0.462625	-0.274371
C211	C	0.714800	0.435524	-0.279349
C212	C	0.670560	0.435521	-0.235102
H213	H	0.096719	0.354776	-0.107888
N214	N	0.295757	0.025697	0.083447
H215	H	0.293342	0.045268	0.110713
H216	H	0.293364	0.045220	0.058568
H217	H	0.560915	-0.396576	-0.049176
N218	N	0.278502	0.590455	0.240451
H219	H	0.257770	0.594033	0.278348
H220	H	0.270794	0.570916	0.223279
H221	H	-0.416944	0.532152	0.069491
H222	H	0.152282	0.462659	0.310391
N223	N	0.738704	0.130197	-0.219815
H224	H	0.731005	0.110628	-0.236967
H225	H	0.783115	0.110664	-0.236955
N226	N	0.629459	-0.100418	-0.083444
H227	H	0.631877	-0.119977	-0.058593
H228	H	0.631847	-0.119953	-0.110712
H229	H	0.773008	0.152200	-0.310436
N230	N	0.646761	0.334838	0.056244
H231	H	0.628413	0.338987	0.094147
H232	H	0.680549	0.338946	0.041980
N233	N	0.646710	0.334808	-0.240482
H234	H	0.654403	0.354387	-0.223334
H235	H	0.667449	0.331189	-0.278388
N236	N	0.198817	0.542300	0.079677
H237	H	0.236022	0.536482	0.073859
H238	H	0.174349	0.577460	0.077985
N239	N	0.738764	0.130191	-0.056413
H240	H	0.783184	0.110616	-0.083685
H241	H	0.731023	0.110681	-0.031518
H242	H	0.192396	0.413489	0.221097
N243	N	0.358150	0.382977	-0.079655
H244	H	0.378210	0.399699	-0.099780
H245	H	0.378171	0.362853	-0.062906
N246	N	0.738753	0.242873	0.056222
H247	H	0.718008	0.280774	0.073395
H248	H	0.731063	0.225694	0.083457
N249	N	0.575246	-0.317631	-0.056342
H250	H	0.609571	-0.355533	-0.073514
H251	H	0.577600	-0.300458	-0.083581
H252	H	0.732861	0.241497	-0.319456
N253	N	0.784764	0.140546	-0.000113
H254	H	0.795418	0.151175	0.021162
H255	H	0.769337	0.119268	0.015295
N256	N	0.295775	0.546081	-0.528952
H257	H	0.261446	0.563250	-0.491054
H258	H	0.293422	0.573323	-0.546120
N259	N	0.646736	0.222181	-0.127849
H260	H	0.667477	0.184283	-0.131424
H261	H	0.654434	0.239364	-0.108309
H262	H	0.560969	0.413474	-0.859241
N263	N	0.349937	-0.296908	0.056349
H264	H	0.358164	-0.332410	0.052235
H265	H	0.326278	-0.277338	0.094243
H266	H	0.652548	0.511781	-0.140821
H267	H	0.272657	0.413479	0.140803
N268	N	0.646774	0.222162	-0.056400
H269	H	0.667514	0.184261	-0.073568
H270	H	0.602355	0.239338	-0.031515
N271	N	0.738671	0.406297	-0.332444
H272	H	0.717951	0.389126	-0.328890
H273	H	0.730962	0.431180	-0.351974
N274	N	0.738644	0.518955	-0.219770
H275	H	0.717916	0.536114	-0.181871
H276	H	0.783067	0.494076	-0.236958
N277	N	0.186463	0.795071	0.056370
H278	H	0.142044	0.814635	0.083637
H279	H	0.207230	0.791477	0.073504
N280	N	0.784630	0.462637	-0.322092
H281	H	0.795278	0.483918	-0.311463
H282	H	0.821325	0.425924	-0.343383
N283	N	0.646715	0.406286	-0.240481
H284	H	0.680487	0.368380	-0.260041
H285	H	0.615323	0.410431	-0.204969
H286	H	0.261916	0.393102	-0.069542
H287	H	0.176975	0.354778	-0.107880
H288	H	-0.197606	0.393085	-0.069577
H289	H	-0.277882	0.393093	-0.069586
H290	H	-0.119005	0.570501	0.107835
N291	N	-0.340968	0.542292	0.079621
H292	H	-0.385976	0.566565	0.103897
H293	H	-0.324279	0.525539	0.099717
N294	N	0.629456	-0.008453	-0.083450
H295	H	0.653153	-0.027999	-0.069243
H296	H	0.653097	-0.027995	-0.121348
H297	H	0.192378	0.782056	0.221097
N298	N	-0.043025	0.580633	0.117967
H299	H	-0.067481	0.578964	0.153144
H300	H	-0.005800	0.574798	0.112111
N301	N	0.106849	0.542293	0.079673
H302	H	0.103300	0.566569	0.103955
H303	H	0.086821	0.562392	0.062919
H304	H	0.152242	0.773061	0.310401
H305	H	0.044248	0.354774	-0.107893
H306	H	-0.036025	0.354780	-0.107897
H307	H	-0.251734	0.570487	0.107822
N308	N	0.186536	0.682450	0.332430
H309	H	0.155148	0.717958	0.359705
H310	H	0.168206	0.662889	0.336532
H311	H	-0.171477	0.570489	0.107828
N312	N	0.349984	0.334853	0.056293
H313	H	0.315653	0.331293	0.073466
H314	H	0.347625	0.354400	0.083530
H315	H	0.364294	0.241581	0.049153
H316	H	0.560955	0.143211	-0.049216
N317	N	0.278452	0.703099	0.056362
H318	H	0.257712	0.741000	0.073530
H319	H	0.270752	0.685927	0.083602
N320	N	0.629452	0.379214	-0.563043
H321	H	0.631885	0.351940	-0.582624
H322	H	0.631842	0.404096	-0.582563
N323	N	0.295770	0.158429	0.083425
H324	H	0.261442	0.154865	0.100595
H325	H	0.293409	0.177975	0.110663
H326	H	0.310087	0.065159	0.076275
H327	H	0.364263	-0.217952	0.049184
N328	N	0.278530	0.518972	0.240423
H329	H	0.296898	0.504754	0.259959
H330	H	0.309888	0.514854	0.204907
N331	N	0.575282	0.222167	-0.056385
H332	H	0.567056	0.257669	-0.052272
H333	H	0.598952	0.202603	-0.042163
H334	H	0.615118	-0.220141	-0.076279
N335	N	0.295758	-0.066267	0.083446
H336	H	0.303986	-0.101768	0.079332
H337	H	0.272094	-0.046694	0.121339
N338	N	0.629444	-0.141196	-0.083454
H339	H	0.653147	-0.160745	-0.069253
H340	H	0.653075	-0.160738	-0.121350
N341	N	0.186488	0.682381	-0.056272
H342	H	0.142069	0.699537	-0.031417
H343	H	0.194227	0.699514	-0.083543
N344	N	0.349997	0.518969	-0.759602
H345	H	0.315665	0.536138	-0.721705
H346	H	0.347639	0.546210	-0.776772
N347	N	0.349980	0.518975	-0.667630
H348	H	0.315656	0.536138	-0.671201
H349	H	0.347619	0.494095	-0.648098
H350	H	0.310088	0.538907	-0.449999
H351	H	0.152180	0.773018	0.000050
N352	N	0.349931	0.518958	-0.219756
H353	H	0.315601	0.536122	-0.181858
H354	H	0.347567	0.546203	-0.236921
H355	H	0.364250	0.511788	-0.140789
H356	H	0.560913	0.413463	-0.319392
N357	N	0.575223	0.406292	-0.240434
H358	H	0.609553	0.389129	-0.278332
H359	H	0.577578	0.431172	-0.223246
N360	N	0.186584	0.518981	0.332399
H361	H	0.207313	0.536148	0.328823
H362	H	0.142162	0.546224	0.351949
N363	N	0.278493	0.703082	0.127814
H364	H	0.309881	0.667580	0.100529
H365	H	0.244694	0.722655	0.123724
N366	N	0.629458	0.379229	-0.603839
H367	H	0.653163	0.341321	-0.623402
H368	H	0.653087	0.393493	-0.623362
H369	H	0.615113	0.386377	-0.469773
N370	N	0.629463	0.379237	-0.695805
H371	H	0.663791	0.362074	-0.692238
H372	H	0.631840	0.351993	-0.715361
H373	H	0.560965	0.413466	-0.778961
H374	H	0.310080	0.538901	-0.317247
N375	N	0.295760	0.546075	-0.396210
H376	H	0.261431	0.563241	-0.358311
H377	H	0.293399	0.573318	-0.413377
N378	N	0.278464	0.590424	-0.056285
H379	H	0.257732	0.593991	-0.073447
H380	H	0.322884	0.570881	-0.083529
