data_functionalizedCrystal
_audit_creation_method	'MofGen! by Chris Wilmer'
_symmetry_space_group_name_H-M	'P1'
_symmetry_Int_Tables_number	1
_symmetry_cell_setting	triclinic
loop_
_symmetry_equiv_pos_as_xyz
  x,y,z
_cell_length_a	6.817900
_cell_length_b	16.417825
_cell_length_c	15.185107
_cell_angle_alpha	95.157512
_cell_angle_beta	104.257894
_cell_angle_gamma	103.385495
loop_
_atom_site_label
_atom_site_type_symbol
_atom_site_fract_x
_atom_site_fract_y
_atom_site_fract_z
V1	V	-4.034855	-0.116468	-0.283716
O2	O	-4.022697	0.004998	-0.277988
O3	O	-3.985851	-0.230361	-0.282091
O4	O	-3.990196	-0.114940	-0.407311
O5	O	-4.018323	-0.111222	-0.151901
V6	V	-4.518076	-0.101908	-0.267912
O7	O	-4.296775	-0.148406	-0.318385
O8	O	-4.706353	-0.069970	-0.233244
O9	O	-4.343873	0.011984	-0.269537
O10	O	-4.647630	-0.223374	-0.273640
O11	O	-4.652005	-0.107154	-0.399727
O12	O	-4.339528	-0.103437	-0.144317
C13	C	-3.830584	-0.258117	-0.277697
C14	C	-3.871830	-0.351227	-0.277192
C15	C	-3.924060	-0.553318	-0.192778
C16	C	-3.962837	-0.640806	-0.192311
C17	C	-4.048251	-0.665059	-0.358860
C18	C	-4.009489	-0.577572	-0.359327
C19	C	-3.947382	-0.521703	-0.276283
C20	C	-4.024922	-0.696678	-0.275349
C21	C	-4.066967	-0.791537	-0.274843
C22	C	-3.905339	-0.426838	-0.276789
C23	C	-3.836125	-0.110885	-0.437426
C24	C	-3.880891	-0.110389	-0.538467
C25	C	-4.110654	-0.184960	-0.978895
C26	C	-4.030070	-0.031494	-0.952475
C27	C	-3.987963	-0.031973	-0.857542
C28	C	-4.007204	-0.108947	-0.823282
C29	C	-4.068551	-0.185442	-0.883954
C30	C	-3.926635	0.044520	-0.796863
C31	C	-3.884526	0.044044	-0.701924
C32	C	-3.903752	-0.032931	-0.667662
C33	C	-3.965101	-0.109428	-0.728341
C34	C	-3.984341	-0.186402	-0.694081
C35	C	-4.045675	-0.262900	-0.754757
C36	C	-4.087776	-0.262416	-0.849692
C37	C	-3.861651	-0.033415	-0.572728
C38	C	-3.942238	-0.186883	-0.599140
C39	C	-4.162482	0.039736	-0.273929
C40	C	-4.100475	0.132845	-0.274440
C41	C	-4.156941	-0.107495	-0.114197
C42	C	-4.091413	-0.107987	-0.013155
H43	H	-3.943845	-0.666542	-0.124313
H44	H	-3.873490	-0.507831	-0.125158
O45	O	-4.011729	0.043284	-0.985721
C46	C	-4.150032	0.085873	-0.958856
H47	H	-4.283028	0.038061	-0.943544
H48	H	-4.061322	0.134346	-0.894528
C49	C	-4.077936	0.190227	-1.055899
C50	C	-4.241294	0.131502	-1.037100
H51	H	-4.134225	0.218377	-1.104160
H52	H	-3.984752	0.161537	-1.073996
H53	H	-4.004025	0.230613	-1.002286
H54	H	-4.315185	0.091112	-1.090709
H55	H	-4.334493	0.160188	-1.019013
H56	H	-3.957899	-0.249565	-0.571253
H57	H	-4.098819	-0.710557	-0.426472
O58	O	-4.032153	-0.546996	-0.440528
C59	C	-4.095314	-0.615066	-0.513726
H60	H	-4.047132	-0.672392	-0.487405
H61	H	-4.272954	-0.631860	-0.543285
C62	C	-4.048609	-0.518890	-0.621636
C63	C	-3.989415	-0.589296	-0.589309
H64	H	-3.983295	-0.502994	-0.668262
H65	H	-4.006064	-0.473029	-0.572322
H66	H	-4.196642	-0.532894	-0.646262
H67	H	-3.841388	-0.575288	-0.564674
H68	H	-4.031933	-0.635154	-0.638621
H69	H	-4.137720	-0.324697	-0.899103
H70	H	-4.061347	-0.325572	-0.726850
O71	O	-4.170342	-0.259193	-1.037959
C72	C	-4.203318	-0.242268	-1.129099
H73	H	-4.237735	-0.177713	-1.132325
H74	H	-4.056788	-0.242082	-1.152594
C75	C	-4.348514	-0.390523	-1.188598
C76	C	-4.390803	-0.311238	-1.192561
H77	H	-4.464157	-0.433068	-1.227746
H78	H	-4.326291	-0.401927	-1.127195
H79	H	-4.226401	-0.390355	-1.208175
H80	H	-4.512898	-0.311403	-1.172973
H81	H	-4.413051	-0.299836	-1.253962
H82	H	-3.910988	0.107187	-0.824766
O83	O	-3.824665	0.118300	-0.642887
C84	C	-3.624739	0.126606	-0.582807
H85	H	-3.595681	0.061241	-0.578593
H86	H	-3.499848	0.167451	-0.609800
C87	C	-3.650001	0.249087	-0.491584
C88	C	-3.614319	0.168803	-0.486402
H89	H	-3.643567	0.275119	-0.432118
H90	H	-3.784691	0.243493	-0.532063
H91	H	-3.545920	0.283114	-0.514082
H92	H	-3.718414	0.134774	-0.463916
H93	H	-3.479645	0.174392	-0.445917
O94	O	-3.802142	0.040807	-0.513663
C95	C	-3.769043	0.023880	-0.422522
H96	H	-3.861200	-0.043588	-0.422511
H97	H	-3.594802	0.031072	-0.390891
C98	C	-3.730585	0.169677	-0.365722
C99	C	-3.843787	0.086814	-0.365708
H100	H	-3.776680	0.208500	-0.330674
H101	H	-3.752875	0.181082	-0.427125
H102	H	-3.585391	0.175658	-0.339365
H103	H	-3.988974	0.080832	-0.392075
H104	H	-3.821522	0.075410	-0.304308
