data_functionalizedCrystal
_audit_creation_method	'MofGen! by Chris Wilmer'
_symmetry_space_group_name_H-M	'P1'
_symmetry_Int_Tables_number	1
_symmetry_cell_setting	triclinic
loop_
_symmetry_equiv_pos_as_xyz
  x,y,z
_cell_length_a	9.065215
_cell_length_b	19.188924
_cell_length_c	8.140239
_cell_angle_alpha	89.994423
_cell_angle_beta	89.997810
_cell_angle_gamma	84.078331
loop_
_atom_site_label
_atom_site_type_symbol
_atom_site_fract_x
_atom_site_fract_y
_atom_site_fract_z
O1	O	1.956844	0.102360	-0.136603
O2	O	1.527267	0.110759	-0.136611
O3	O	1.754457	0.005000	-0.136588
O4	O	1.729653	0.208119	-0.136627
O5	O	1.754445	0.004999	0.136639
O6	O	1.527254	0.110758	0.136616
O7	O	1.956831	0.102359	0.136624
Zn8	Zn	1.742041	0.106558	0.180000
Zn9	Zn	1.742057	0.106560	-0.179988
O10	O	1.729641	0.208118	0.136600
C11	C	1.472302	0.109952	0.000001
C12	C	1.308542	0.107540	-0.000001
C13	C	1.753649	-0.021018	0.000027
C14	C	1.751243	-0.098542	0.000032
C15	C	1.750127	-0.134948	-0.148905
C16	C	1.747845	-0.207789	-0.148917
C17	C	1.746710	-0.244221	0.000015
C18	C	1.747818	-0.207805	0.148971
C19	C	1.750084	-0.134965	0.148979
N20	N	1.827096	-0.363261	0.110863
N21	N	1.824945	-0.432456	0.110845
C22	C	1.739876	-0.463683	-0.000001
N23	N	1.657057	-0.423103	-0.110854
N24	N	1.659214	-0.353902	-0.110840
C25	C	1.744251	-0.323204	0.000023
C26	C	1.736284	-0.579072	-0.148961
C27	C	1.733993	-0.651913	-0.148968
C28	C	1.733980	-0.651929	0.148925
C29	C	1.736256	-0.579088	0.148927
C30	C	1.737415	-0.542665	-0.000020
C31	C	2.011796	0.103166	0.000007
C32	C	2.175556	0.105578	-0.000001
C33	C	1.730449	0.234136	-0.000018
C34	C	1.732855	0.311659	-0.000034
N35	N	1.742040	0.106557	0.425683
N36	N	1.742069	0.106556	-0.425671
H37	H	1.746927	-0.237437	-0.270203
N38	N	1.751264	-0.097775	0.301122
N39	N	1.856501	-0.062917	0.334360
H40	H	1.857340	-0.036650	0.441813
H41	H	1.737177	-0.549446	0.270208
H42	H	1.737219	-0.549414	-0.270243
H43	H	1.733077	-0.681554	-0.270255
N44	N	1.746672	-0.245006	0.301117
N45	N	1.747673	-0.212488	0.434092
H46	H	1.746857	-0.238759	0.541552
N47	N	1.751307	-0.097754	-0.301061
N48	N	1.750306	-0.130275	-0.434032
H49	H	1.751136	-0.104006	-0.541495
N50	N	1.732798	-0.689144	0.301044
N51	N	1.730762	-0.754178	0.301020
H52	H	1.729919	-0.780465	0.408458
