data_functionalizedCrystal
_audit_creation_method	'MofGen! by Chris Wilmer'
_symmetry_space_group_name_H-M	'P1'
_symmetry_Int_Tables_number	1
_symmetry_cell_setting	triclinic
loop_
_symmetry_equiv_pos_as_xyz
  x,y,z
_cell_length_a	16.959455
_cell_length_b	10.686285
_cell_length_c	16.959455
_cell_angle_alpha	85.627803
_cell_angle_beta	90.005786
_cell_angle_gamma	94.371379
loop_
_atom_site_label
_atom_site_type_symbol
_atom_site_fract_x
_atom_site_fract_y
_atom_site_fract_z
Zn1	Zn	1.232550	0.502673	0.422817
Zn2	Zn	1.242662	0.713619	0.280528
Zn3	Zn	1.100397	0.502636	0.290656
Zn4	Zn	1.110512	0.713601	0.412668
O5	O	1.171530	0.608132	0.351667
O6	O	1.344504	0.530678	0.403951
O7	O	1.223789	0.685624	0.171261
O8	O	1.109462	0.326069	0.316674
O9	O	1.351933	0.685660	0.299412
O10	O	1.206555	0.326096	0.413771
O11	O	1.119267	0.530615	0.178702
O12	O	0.991127	0.530598	0.306832
O13	O	1.126702	0.685629	0.524624
O14	O	0.998558	0.685593	0.396474
O15	O	1.216363	0.530661	0.532081
O16	O	1.233597	0.890188	0.289571
O17	O	1.136507	0.890175	0.386653
C18	C	0.966162	0.608091	0.351651
C19	C	0.878306	0.608103	0.351661
C20	C	1.187268	0.935965	0.335929
C21	C	1.194074	1.076213	0.329222
C22	C	1.171533	0.608147	0.557835
C23	C	1.171534	0.608153	0.645691
C24	C	0.502935	0.527360	0.305100
C25	C	0.510734	0.689008	0.398275
C26	C	0.593279	0.688990	0.398271
C27	C	0.630656	0.608157	0.351680
C28	C	0.585487	0.527342	0.305092
C29	C	0.638454	0.769813	0.444851
C30	C	0.721004	0.769799	0.444849
C31	C	0.758382	0.688958	0.398261
C32	C	0.713208	0.608139	0.351673
C33	C	0.750585	0.527306	0.305081
C34	C	0.705412	0.446480	0.258497
C35	C	0.622865	0.446502	0.258505
C36	C	0.840929	0.688936	0.398253
C37	C	0.833138	0.527288	0.305074
C38	C	1.377701	0.608175	0.351684
C39	C	1.465558	0.608193	0.351691
C40	C	1.155752	0.279019	0.367484
C41	C	1.149028	0.138771	0.374225
C42	C	1.124854	0.688843	0.683084
C43	C	1.218211	0.527462	0.690852
C44	C	1.218211	0.527460	0.773398
C45	C	1.171530	0.608150	0.810791
C46	C	1.124850	0.688841	0.765638
C47	C	1.264884	0.446762	0.818557
C48	C	1.264885	0.446756	0.901108
C49	C	1.218208	0.527453	0.938502
C50	C	1.171526	0.608148	0.893344
C51	C	1.124846	0.688837	0.930737
C52	C	1.078168	0.769539	0.885580
C53	C	1.078173	0.769537	0.803032
C54	C	1.218203	0.527455	1.021051
C55	C	1.124842	0.688835	1.013291
C56	C	1.171523	0.608147	1.146300
C57	C	1.171522	0.608144	1.058444
H58	H	0.863563	0.461455	0.267139
C59	C	1.293465	1.063179	0.229989
C60	C	1.253163	1.148749	0.270271
H61	H	1.329939	1.107963	0.193593
H62	H	1.321205	1.011731	0.266890
H63	H	1.256580	1.011826	0.202155
H64	H	1.290047	1.200097	0.298110
H65	H	1.225421	1.200220	0.233365
H66	H	0.877705	0.754748	0.436179
H67	H	1.302886	0.381065	0.788106
C68	C	1.357173	0.287244	0.900485
C69	C	1.316199	0.358063	0.950740
H70	H	1.388858	0.232498	0.931128
H71	H	1.320420	0.238972	0.870608
H72	H	1.390042	0.342238	0.865645
H73	H	1.283326	0.303069	0.985576
H74	H	1.352958	0.406338	0.980631
H75	H	1.256200	0.461738	1.057814
C76	C	1.013203	1.098100	0.414534
C77	C	1.089942	1.066239	0.433172
H78	H	0.976727	1.053310	0.450925
H79	H	1.010181	1.185984	0.417608
H80	H	1.000655	1.076593	0.362431
H81	H	1.102492	1.087755	0.485273
H82	H	1.092967	0.978336	0.430105
H83	H	1.086831	0.754547	1.043730
C84	C	1.036716	0.841179	1.008679
C85	C	1.026859	0.858235	0.926688
H86	H	1.005044	0.895941	1.034058
H87	H	1.021075	0.756407	1.026265
H88	H	1.090714	0.859645	1.021319
H89	H	0.972862	0.839760	0.914048
H90	H	1.042495	0.943026	0.909096
C91	C	0.587159	0.232744	0.230487
C92	C	0.573215	0.357663	0.207298
H93	H	0.556503	0.177902	0.198875
H94	H	0.641665	0.221174	0.223815
H95	H	0.572753	0.214433	0.284496
H96	H	0.587628	0.375977	0.153291
H97	H	0.518698	0.369239	0.213964
C98	C	0.828496	0.374693	0.217118
C99	C	0.746502	0.357628	0.207285
H100	H	0.853863	0.319836	0.185506
H101	H	0.846086	0.459432	0.201391
H102	H	0.841144	0.356364	0.271128
H103	H	0.733853	0.375967	0.153276
H104	H	0.728905	0.272870	0.223008
C105	C	1.036717	0.841176	0.673044
C106	C	1.026860	0.858227	0.753395
H107	H	1.005033	0.895922	0.642400
H108	H	1.090705	0.859655	0.658638
H109	H	1.021083	0.756389	0.663599
H110	H	1.042499	0.943012	0.762840
H111	H	0.972860	0.839757	0.767805
C112	C	1.221059	0.357755	0.606162
C113	C	1.269524	0.438784	0.649745
H114	H	1.252744	0.303017	0.580777
H115	H	1.184318	0.309475	0.640679
H116	H	1.193258	0.405824	0.567462
H117	H	1.297321	0.390715	0.688449
H118	H	1.306280	0.487069	0.615225
C119	C	0.372936	0.455596	0.263736
C120	C	0.453286	0.438520	0.253894
H121	H	0.342287	0.400753	0.232120
H122	H	0.358542	0.437264	0.317739
H123	H	0.363487	0.540350	0.248012
H124	H	0.462736	0.353767	0.269624
H125	H	0.467685	0.456842	0.199880
C126	C	0.387658	0.760807	0.439653
C127	C	0.469652	0.777856	0.449486
H128	H	0.362294	0.815655	0.471276
H129	H	0.375009	0.779148	0.385653
H130	H	0.370061	0.676056	0.455377
H131	H	0.487249	0.862605	0.433757
H132	H	0.482306	0.759524	0.503498
H133	H	1.086852	0.754552	0.646313
C134	C	0.654448	0.929572	0.536965
C135	C	0.597370	0.858640	0.496076
H136	H	0.629080	0.984409	0.568592
H137	H	0.684018	0.874666	0.569876
H138	H	0.688948	0.977764	0.500156
H139	H	0.562873	0.810441	0.532886
H140	H	0.567787	0.913554	0.463163
C141	C	0.814705	0.787568	0.550297
C142	C	0.770654	0.858628	0.496061
H143	H	0.845359	0.842407	0.581912
H144	H	0.779862	0.732688	0.583218
H145	H	0.848777	0.739432	0.522541
H146	H	0.736577	0.906757	0.523818
H147	H	0.805501	0.913530	0.463136
