data_functionalizedCrystal
_audit_creation_method	'MofGen! by Chris Wilmer'
_symmetry_space_group_name_H-M	'P1'
_symmetry_Int_Tables_number	1
_symmetry_cell_setting	triclinic
loop_
_symmetry_equiv_pos_as_xyz
  x,y,z
_cell_length_a	18.101398
_cell_length_b	18.101397
_cell_length_c	13.897441
_cell_angle_alpha	90.034904
_cell_angle_beta	90.027215
_cell_angle_gamma	90.015732
loop_
_atom_site_label
_atom_site_type_symbol
_atom_site_fract_x
_atom_site_fract_y
_atom_site_fract_z
Zn1	Zn	1.132197	-0.294899	0.545519
Zn2	Zn	1.132110	-0.418755	0.384208
Zn3	Zn	1.008350	-0.294922	0.384219
Zn4	Zn	1.008330	-0.418693	0.545443
O5	O	1.070246	-0.356817	0.464847
O6	O	1.235818	-0.311346	0.524148
O7	O	1.115664	-0.402363	0.249228
O8	O	1.024823	-0.191286	0.405652
O9	O	1.235754	-0.402342	0.405634
O10	O	1.115813	-0.191269	0.524159
O11	O	1.024738	-0.311384	0.249236
O12	O	0.904714	-0.311324	0.405578
O13	O	1.024789	-0.402237	0.680435
O14	O	0.904699	-0.402258	0.524029
O15	O	1.115794	-0.311286	0.680491
O16	O	1.115645	-0.522380	0.405560
O17	O	1.024704	-0.522335	0.524018
C18	C	0.877836	-0.356787	0.464797
C19	C	0.795522	-0.356792	0.464798
C20	C	0.496431	-0.356839	0.464879
C21	C	0.527741	-0.299339	0.390717
C22	C	0.613359	-0.299493	0.390401
C23	C	0.644813	-0.356815	0.464839
C24	C	0.613709	-0.434828	0.437059
C25	C	0.528063	-0.434509	0.436544
C26	C	0.528046	-0.337003	0.566996
C27	C	0.613696	-0.335266	0.566438
C28	C	0.728673	-0.356806	0.464818
C29	C	0.412571	-0.356852	0.464898
C30	C	1.070183	-0.549228	0.464801
C31	C	1.070224	-0.631542	0.464813
C32	C	1.070318	-0.930633	0.464901
C33	C	1.127376	-0.899305	0.390170
C34	C	1.127574	-0.813687	0.390364
C35	C	1.070271	-0.782250	0.464856
C36	C	1.091431	-0.813254	0.566533
C37	C	1.091873	-0.898899	0.566126
C38	C	0.991948	-0.899137	0.438835
C39	C	0.992335	-0.813488	0.436565
C40	C	1.070244	-0.698391	0.464837
C41	C	1.070348	-1.014492	0.464927
C42	C	1.263408	-0.356848	0.464898
C43	C	1.345722	-0.356861	0.464920
C44	C	1.070299	-0.356752	0.716440
C45	C	1.070321	-0.356724	0.823654
C46	C	1.070330	-0.163655	0.464915
C47	C	1.070366	-0.081341	0.464944
C48	C	1.070237	-0.356829	0.214233
C49	C	1.070358	-0.356648	0.107020
C50	C	1.070341	-0.356674	1.019950
C51	C	1.070328	-0.356704	0.910717
H52	H	0.506464	-0.281106	0.592252
C53	C	1.038979	-0.926494	0.643054
C54	C	1.061767	-0.900337	0.733138
C55	C	1.013072	-0.925749	0.804031
H56	H	0.990581	-0.908996	0.629704
H57	H	1.038897	-0.978978	0.643397
H58	H	1.061841	-0.847864	0.732793
H59	H	1.110157	-0.917833	0.746518
H60	H	1.012991	-0.978233	0.804374
H61	H	0.964677	-0.908250	0.790672
H62	H	1.028531	-0.908011	0.865162
H63	H	0.976380	-0.793232	0.361740
H64	H	1.114297	-0.919952	0.314553
H65	H	0.507352	-0.478801	0.488204
C66	C	0.640493	-0.317028	0.289457
C67	C	0.579771	-0.327525	0.228513
C68	C	0.604738	-0.343690	0.135516
H69	H	0.669609	-0.277163	0.266302
H70	H	0.669494	-0.360752	0.290867
H71	H	0.550782	-0.283806	0.227099
H72	H	0.550649	-0.367392	0.251637
H73	H	0.633739	-0.387414	0.136926
H74	H	0.633854	-0.303823	0.112371
H75	H	0.563543	-0.350821	0.094157
C76	C	0.642421	-0.457591	0.338651
C77	C	0.719696	-0.460512	0.340873
C78	C	0.746179	-0.481459	0.250234
H79	H	0.623385	-0.504882	0.322360
H80	H	0.627011	-0.422516	0.291947
H81	H	0.735098	-0.495586	0.387561
H82	H	0.738751	-0.413230	0.357147
H83	H	0.730769	-0.446384	0.203531
H84	H	0.727138	-0.528748	0.233951
H85	H	0.798612	-0.483437	0.251727
H86	H	0.634030	-0.277857	0.587385
C87	C	0.642198	-0.386933	0.644218
C88	C	0.613115	-0.365670	0.733365
C89	C	0.639364	-0.413247	0.805037
H90	H	0.627339	-0.436092	0.630101
H91	H	0.694598	-0.384458	0.646493
H92	H	0.560727	-0.368152	0.731089
H93	H	0.627971	-0.316518	0.747513
H94	H	0.691763	-0.410772	0.807312
H95	H	0.624503	-0.462404	0.790911
H96	H	0.619640	-0.398823	0.865533
H97	H	1.185111	-0.920777	0.407219
H98	H	0.949436	-0.919396	0.493264
H99	H	0.508052	-0.451329	0.361892
H100	H	1.185626	-0.793147	0.407611
H101	H	1.149158	-0.918821	0.588205
H102	H	0.947536	-0.792096	0.487008
C103	C	1.167004	-0.784738	0.596531
C104	C	1.214766	-0.844546	0.610965
C105	C	1.284389	-0.818309	0.638606
H106	H	1.186258	-0.753743	0.547439
H107	H	1.162580	-0.757373	0.654598
H108	H	1.219193	-0.871899	0.552905
H109	H	1.195536	-0.875546	0.660061
H110	H	1.279965	-0.790944	0.696673
H111	H	1.303636	-0.787314	0.589510
H112	H	1.316802	-0.858884	0.648411
C113	C	0.641261	-0.222291	0.413536
C114	C	0.581006	-0.175087	0.427941
C115	C	0.606677	-0.103954	0.449219
H116	H	0.670535	-0.223770	0.470247
H117	H	0.670268	-0.204573	0.361473
H118	H	0.552011	-0.192800	0.479999
H119	H	0.551726	-0.173586	0.371241
H120	H	0.635684	-0.086237	0.397157
H121	H	0.635950	-0.105441	0.505929
H122	H	0.565797	-0.071916	0.458987
H123	H	1.114335	-0.792729	0.314973
H124	H	0.972699	-0.920800	0.365977
H125	H	0.507160	-0.241312	0.407939
C126	C	0.640732	-0.493497	0.506905
C127	C	0.580009	-0.526702	0.551848
C128	C	0.604876	-0.580743	0.616206
H129	H	0.668033	-0.529893	0.472849
H130	H	0.671485	-0.471227	0.554146
H131	H	0.549269	-0.548972	0.504614
H132	H	0.552702	-0.490325	0.585923
H133	H	0.635628	-0.558473	0.663447
H134	H	0.632176	-0.617134	0.582142
H135	H	0.563680	-0.603275	0.646714
H136	H	1.051144	-0.792888	0.623710
H137	H	0.506191	-0.312304	0.315491
H138	H	0.507799	-0.378884	0.622253
