data_functionalizedCrystal
_audit_creation_method	'MofGen! by Chris Wilmer'
_symmetry_space_group_name_H-M	'P1'
_symmetry_Int_Tables_number	1
_symmetry_cell_setting	triclinic
loop_
_symmetry_equiv_pos_as_xyz
  x,y,z
_cell_length_a	17.077404
_cell_length_b	18.050589
_cell_length_c	17.077396
_cell_angle_alpha	89.973754
_cell_angle_beta	89.982940
_cell_angle_gamma	90.028446
loop_
_atom_site_label
_atom_site_type_symbol
_atom_site_fract_x
_atom_site_fract_y
_atom_site_fract_z
Zn1	Zn	1.200007	-0.295643	-0.443864
Zn2	Zn	1.199907	-0.419844	-0.312606
Zn3	Zn	1.068744	-0.295673	-0.312612
Zn4	Zn	1.068694	-0.419796	-0.443830
O5	O	1.134338	-0.357739	-0.378228
O6	O	1.309840	-0.312126	-0.426464
O7	O	1.182487	-0.403405	-0.202760
O8	O	1.086219	-0.191744	-0.330039
O9	O	1.309767	-0.403376	-0.330030
O10	O	1.182657	-0.191723	-0.426469
O11	O	1.086122	-0.312177	-0.202764
O12	O	0.958891	-0.312131	-0.330006
O13	O	1.086134	-0.403295	-0.553681
O14	O	0.958854	-0.403324	-0.426412
O15	O	1.182609	-0.312080	-0.553706
O16	O	1.182439	-0.523762	-0.329997
O17	O	1.086037	-0.523727	-0.426407
C18	C	0.930390	-0.357726	-0.378206
C19	C	0.843140	-0.357738	-0.378216
C20	C	0.802152	-0.405294	-0.428333
C21	C	0.720171	-0.405295	-0.428346
C22	C	0.679181	-0.357744	-0.378236
C23	C	0.720175	-0.310183	-0.328116
C24	C	0.802154	-0.310178	-0.328108
C25	C	0.549305	-0.310198	-0.328135
C26	C	0.467321	-0.310203	-0.328142
C27	C	0.467322	-0.405315	-0.428373
C28	C	0.549301	-0.405310	-0.428365
C29	C	0.590290	-0.357750	-0.378244
C30	C	1.134243	-0.550691	-0.378215
C31	C	1.134275	-0.633237	-0.378236
C32	C	1.081903	-0.832696	-0.430645
C33	C	1.062771	-0.882139	-0.359016
C34	C	1.134352	-0.784367	-0.378246
C35	C	1.153522	-0.882005	-0.449883
C36	C	1.134425	-0.930352	-0.378262
C37	C	1.115182	-0.832724	-0.306579
C38	C	1.205967	-0.832586	-0.397495
C39	C	1.186862	-0.882007	-0.325816
C40	C	1.134308	-0.700269	-0.378238
C41	C	1.134469	-1.014449	-0.378262
C42	C	1.339082	-0.357753	-0.378250
C43	C	1.426332	-0.357759	-0.378260
C44	C	1.134377	-0.357679	-0.582972
C45	C	1.134393	-0.357653	-0.670222
C46	C	1.134455	-0.164033	-0.378258
C47	C	1.134504	-0.081488	-0.378271
C48	C	1.184642	-0.405069	-1.046037
C49	C	1.184622	-0.405091	-0.964057
C50	C	1.134444	-0.357601	-0.923071
C51	C	1.084277	-0.310091	-0.964070
C52	C	1.084293	-0.310074	-1.046049
C53	C	1.084247	-0.310130	-0.793200
C54	C	1.084232	-0.310146	-0.711216
C55	C	1.184576	-0.405147	-0.711208
C56	C	1.184593	-0.405129	-0.793187
C57	C	1.134426	-0.357619	-0.834180
C58	C	1.134345	-0.357745	-0.174280
C59	C	1.134480	-0.357562	-0.087031
H60	H	0.686795	-0.271463	-0.287319
H61	H	1.266481	-0.810805	-0.413795
H62	H	0.686802	-0.444021	-0.469156
C63	C	1.246824	-0.911082	-0.265899
C64	C	1.315580	-0.959786	-0.293285
C65	C	1.375538	-0.988863	-0.233366
C66	C	1.366739	-0.969235	-0.146061
C67	C	1.297979	-0.920528	-0.118671
C68	C	1.238022	-0.891452	-0.178590
H69	H	1.322096	-0.974317	-0.357917
H70	H	1.426438	-1.024919	-0.253642
H71	H	1.411123	-0.990760	-0.101706
H72	H	1.291463	-0.905997	-0.054039
H73	H	1.187121	-0.855396	-0.158314
C74	C	1.029065	-0.257868	-0.838297
C75	C	0.939822	-0.263917	-0.827016
C76	C	0.884645	-0.211655	-0.872113
C77	C	0.918711	-0.153344	-0.928492
C78	C	1.007959	-0.147293	-0.939775
C79	C	1.063136	-0.199555	-0.894677
H80	H	0.914600	-0.307084	-0.785279
H81	H	0.818577	-0.216135	-0.863760
H82	H	0.877865	-0.114657	-0.961875
H83	H	1.033181	-0.104126	-0.981512
H84	H	1.129203	-0.195076	-0.903030
H85	H	1.043417	-0.271428	-0.930694
H86	H	1.098927	-0.811165	-0.245986
H87	H	1.225507	-0.443738	-1.079402
H88	H	1.002243	-0.903922	-0.342749
H89	H	1.225424	-0.443831	-0.677827
H90	H	1.043375	-0.271473	-0.677847
H91	H	0.433949	-0.271474	-0.287347
C92	C	1.239818	-0.457347	-0.918980
C93	C	1.329056	-0.451272	-0.930282
C94	C	1.384260	-0.503531	-0.885213
C95	C	1.350226	-0.561863	-0.828841
C96	C	1.260983	-0.567940	-0.817536
C97	C	1.205778	-0.515682	-0.862605
H98	H	1.354255	-0.408089	-0.972014
H99	H	1.450324	-0.499032	-0.893582
H100	H	1.391091	-0.600548	-0.795478
H101	H	1.235784	-0.611123	-0.775804
H102	H	1.139714	-0.520180	-0.854236
H103	H	0.835526	-0.271449	-0.287301
H104	H	1.043447	-0.271388	-1.079425
H105	H	1.037483	-0.811043	-0.474894
C106	C	0.594391	-0.457617	-0.483486
C107	C	0.583081	-0.542036	-0.476932
C108	C	0.628170	-0.594341	-0.532055
C109	C	0.684569	-0.562228	-0.593733
C110	C	0.695882	-0.477804	-0.600289
C111	C	0.650793	-0.425499	-0.545166
H112	H	0.541328	-0.565812	-0.431272
H113	H	0.619795	-0.656838	-0.527201
H114	H	0.717947	-0.600948	-0.634539
H115	H	0.737634	-0.454028	-0.645949
H116	H	0.659168	-0.363003	-0.550020
C117	C	0.847238	-0.457602	-0.483456
C118	C	0.835922	-0.542020	-0.476903
C119	C	0.881006	-0.594328	-0.532029
C120	C	0.937405	-0.562216	-0.593709
C121	C	0.948723	-0.477793	-0.600264
C122	C	0.903639	-0.425486	-0.545138
H123	H	0.794170	-0.565795	-0.431242
H124	H	0.872627	-0.656823	-0.527176
H125	H	0.970778	-0.600937	-0.634516
H126	H	0.990475	-0.454019	-0.645925
H127	H	0.912018	-0.362990	-0.549991
C128	C	1.175393	-0.911252	-0.531715
C129	C	1.124028	-0.891777	-0.602900
C130	C	1.145892	-0.921021	-0.684733
C131	C	1.219119	-0.969740	-0.695381
C132	C	1.270489	-0.989218	-0.624194
C133	C	1.248625	-0.959974	-0.542361
H134	H	1.069817	-0.855709	-0.595020
H135	H	1.107864	-0.906601	-0.737431
H136	H	1.235304	-0.991388	-0.755959
H137	H	1.324700	-1.025286	-0.632074
H138	H	1.286653	-0.974393	-0.489663
H139	H	0.582676	-0.271462	-0.287328
C140	C	0.422239	-0.457632	-0.483508
C141	C	0.332065	-0.457640	-0.483524
C142	C	0.286978	-0.509959	-0.538653
C143	C	0.332064	-0.562271	-0.593765
C144	C	0.422243	-0.562266	-0.593751
C145	C	0.467330	-0.509946	-0.538623
H146	H	0.298685	-0.418913	-0.442725
H147	H	0.220221	-0.509963	-0.538662
H148	H	0.298688	-0.601001	-0.634575
H149	H	0.455623	-0.600992	-0.634551
H150	H	0.534087	-0.509942	-0.538613
H151	H	1.225456	-0.443796	-0.826555
