data_functionalizedCrystal
_audit_creation_method	'MofGen! by Chris Wilmer'
_symmetry_space_group_name_H-M	'P1'
_symmetry_Int_Tables_number	1
_symmetry_cell_setting	triclinic
loop_
_symmetry_equiv_pos_as_xyz
  x,y,z
_cell_length_a	17.038275
_cell_length_b	10.654550
_cell_length_c	9.730223
_cell_angle_alpha	89.991990
_cell_angle_beta	90.007604
_cell_angle_gamma	87.798357
loop_
_atom_site_label
_atom_site_type_symbol
_atom_site_fract_x
_atom_site_fract_y
_atom_site_fract_z
O1	O	-1.038884	-0.272875	0.114091
O2	O	-0.538884	0.227125	0.614091
O3	O	-0.811229	-0.268541	0.114137
O4	O	-0.311229	0.231459	0.614137
O5	O	-0.930291	-0.088455	0.114104
O6	O	-0.430291	0.411545	0.614104
O7	O	-0.919823	-0.452961	0.114124
O8	O	-0.419823	0.047039	0.614124
O9	O	-0.930294	-0.088434	-0.114476
O10	O	-0.430294	0.411566	0.385524
O11	O	-0.811232	-0.268521	-0.114443
O12	O	-0.311232	0.231479	0.385557
O13	O	-1.038887	-0.272854	-0.114489
O14	O	-0.538887	0.227146	0.385511
Zn15	Zn	-0.925060	-0.270684	-0.150758
Zn16	Zn	-0.425060	0.229316	0.349242
Zn17	Zn	-0.925056	-0.270711	0.150406
Zn18	Zn	-0.425056	0.229289	0.650406
O19	O	-0.919825	-0.452941	-0.114456
O20	O	-0.419825	0.047059	0.385544
C21	C	-0.782080	-0.264590	-0.000147
C22	C	-0.282080	0.235410	0.499853
C23	C	-0.695222	-0.252833	-0.000129
C24	C	-0.195222	0.247167	0.499871
C25	C	-0.929524	-0.041575	-0.000185
C26	C	-0.429524	0.458425	0.499815
C27	C	-0.927224	0.098082	-0.000182
C28	C	-0.427224	0.598082	0.499818
N29	N	-0.925068	-0.270666	-0.356294
N30	N	-0.425068	0.229334	0.143706
C31	C	-0.645711	-0.360777	-0.000124
C32	C	-0.145711	0.139223	0.499876
C33	C	-0.564098	-0.349722	-0.000141
C34	C	-0.064098	0.150278	0.499859
C35	C	-0.531999	-0.230722	-0.000155
C36	C	-0.031999	0.269278	0.499845
C37	C	-0.581516	-0.122770	-0.000165
C38	C	-0.081516	0.377230	0.499835
C39	C	-0.663127	-0.133826	-0.000157
C40	C	-0.163127	0.366174	0.499843
C41	C	-0.286023	-0.191664	-0.000187
C42	C	0.213977	0.308336	0.499813
C43	C	-0.204406	-0.180616	-0.000191
C44	C	0.295594	0.319384	0.499809
C45	C	-0.186993	-0.407569	-0.000170
C46	C	0.313007	0.092431	0.499830
C47	C	-0.268606	-0.418614	-0.000154
C48	C	0.231394	0.081386	0.499846
C49	C	-0.318117	-0.310662	-0.000171
C50	C	0.181883	0.189338	0.499829
C51	C	-0.448578	-0.219420	-0.000168
C52	C	0.051422	0.280580	0.499832
C53	C	-0.401536	-0.321966	-0.000167
C54	C	0.098464	0.178034	0.499833
C55	C	-0.068036	-0.276805	-0.000195
C56	C	0.431964	0.223195	0.499805
C57	C	-0.154895	-0.288560	-0.000185
C58	C	0.345105	0.211440	0.499815
C59	C	-0.920592	-0.499820	-0.000164
C60	C	-0.420592	0.000180	0.499836
C61	C	-0.922892	-0.639477	-0.000158
C62	C	-0.422892	-0.139477	0.499842
C63	C	-0.997326	0.171058	-0.000196
C64	C	-0.497326	0.671058	0.499804
C65	C	-0.995160	0.302280	-0.000179
C66	C	-0.495160	0.802280	0.499821
C67	C	-0.852785	0.287537	-0.000140
C68	C	-0.352785	0.787537	0.499860
C69	C	-0.854951	0.156318	-0.000147
C70	C	-0.354951	0.656318	0.499853
N71	N	-0.925054	-0.270720	0.355942
N72	N	-0.425054	0.229280	0.855942
C73	C	-0.877300	-0.189236	0.427865
C74	C	-0.377300	0.310764	0.927865
C75	C	-0.877309	-0.189205	0.571748
C76	C	-0.377309	0.310795	1.071748
C77	C	-0.972828	-0.352154	0.571773
C78	C	-0.472828	0.147846	1.071773
C79	C	-0.972823	-0.352178	0.427893
C80	C	-0.472823	0.147822	0.927893
H81	H	-0.671839	-0.457679	-0.000112
H82	H	-0.171839	0.042321	0.499888
H83	H	-0.703439	-0.045926	-0.000161
H84	H	-0.203439	0.454074	0.499839
H85	H	-1.011714	-0.418534	0.369332
H86	H	-0.511714	0.081466	0.869332
H87	H	-1.052244	0.361692	-0.000187
H88	H	-0.552244	0.861692	0.499813
H89	H	-0.793943	0.334969	-0.000114
H90	H	-0.293943	0.834969	0.499886
H91	H	-0.555375	-0.025877	-0.000195
H92	H	-0.055375	0.474123	0.499805
H93	H	-0.523789	-0.437622	-0.000135
H94	H	-0.023789	0.062378	0.499865
Br95	Br	-1.037651	-0.462701	0.669429
Br96	Br	-0.537651	0.037299	1.169429
Br97	Br	-0.759806	0.057269	-0.000110
Br98	Br	-0.259806	0.557269	0.499890
Br99	Br	-0.812493	-0.078618	0.669352
Br100	Br	-0.312493	0.421382	1.169352
Br101	Br	-0.812474	-0.078684	0.330222
Br102	Br	-0.312474	0.421316	0.830222
H103	H	-0.294735	-0.515516	-0.000127
H104	H	0.205265	-0.015516	0.499873
H105	H	-0.146673	-0.495457	-0.000158
H106	H	0.353327	0.004543	0.499842
Br107	Br	-0.445101	-0.483461	-0.000158
Br108	Br	0.054899	0.016539	0.499842
H109	H	-0.326325	-0.103760	-0.000202
H110	H	0.173675	0.396240	0.499798
Br111	Br	-0.160843	-0.019105	-0.000238
Br112	Br	0.339157	0.480895	0.499762
H113	H	-0.422434	-0.122529	-0.000218
H114	H	0.077566	0.377471	0.499782
H115	H	-1.056174	0.123646	-0.000221
H116	H	-0.556174	0.623646	0.499779
