data_functionalizedCrystal
_audit_creation_method	'MofGen! by Chris Wilmer'
_symmetry_space_group_name_H-M	'P1'
_symmetry_Int_Tables_number	1
_symmetry_cell_setting	triclinic
loop_
_symmetry_equiv_pos_as_xyz
  x,y,z
_cell_length_a	12.827893
_cell_length_b	16.120444
_cell_length_c	16.120339
_cell_angle_alpha	89.786690
_cell_angle_beta	92.866391
_cell_angle_gamma	92.926656
loop_
_atom_site_label
_atom_site_type_symbol
_atom_site_fract_x
_atom_site_fract_y
_atom_site_fract_z
Zn1	Zn	1.547293	-0.306902	-0.486924
Zn2	Zn	2.047293	0.193098	0.013076
Zn3	Zn	1.546208	-0.453105	-0.354913
Zn4	Zn	2.046208	0.046895	0.145087
Zn5	Zn	1.380870	-0.314071	-0.347887
Zn6	Zn	1.880870	0.185929	0.152113
Zn7	Zn	1.363207	-0.445917	-0.493928
Zn8	Zn	1.863207	0.054083	0.006072
O9	O	1.459395	-0.379999	-0.420913
O10	O	1.959395	0.120001	0.079087
O11	O	1.693384	-0.326305	-0.469422
O12	O	2.193384	0.173695	0.030578
O13	O	1.531214	-0.440670	-0.237614
O14	O	2.031214	0.059330	0.262386
O15	O	1.410793	-0.196755	-0.360459
O16	O	1.910793	0.303245	0.139541
O17	O	1.692587	-0.433719	-0.372433
O18	O	2.192587	0.066281	0.127567
O19	O	1.533063	-0.191488	-0.462609
O20	O	2.033063	0.308512	0.037391
O21	O	1.409741	-0.338522	-0.232452
O22	O	1.909741	0.161478	0.267548
O23	O	1.232292	-0.331552	-0.367250
O24	O	1.732292	0.168448	0.132750
O25	O	1.380688	-0.421469	-0.609366
O26	O	1.880688	0.078531	-0.109366
O27	O	1.219315	-0.428420	-0.474546
O28	O	1.719315	0.071580	0.025454
O29	O	1.515935	-0.319335	-0.604220
O30	O	2.015935	0.180665	-0.104220
O31	O	1.514087	-0.568517	-0.379225
O32	O	2.014087	-0.068517	0.120775
O33	O	1.379637	-0.563236	-0.481359
O34	O	1.879637	-0.063236	0.018641
C35	C	1.187887	-0.379985	-0.420896
C36	C	1.687887	0.120015	0.079104
C37	C	1.071732	-0.379997	-0.420910
C38	C	1.571732	0.120003	0.079090
C39	C	1.020331	-0.326931	-0.468986
C40	C	1.520331	0.173069	0.031014
C41	C	0.900279	-0.326943	-0.469002
C42	C	1.400279	0.173057	0.030998
C43	C	1.444855	-0.596047	-0.431832
C44	C	1.944855	-0.096047	0.068168
C45	C	1.438728	-0.688472	-0.436532
C46	C	1.938728	-0.188472	0.063468
C47	C	1.491421	-0.901458	-0.396715
C48	C	1.991421	-0.401458	0.103285
C49	C	1.427562	-0.857688	-0.445120
C50	C	1.927562	-0.357688	0.054880
C51	C	1.433777	-0.763528	-0.440340
C52	C	1.933777	-0.263528	0.059660
C53	C	1.485207	-0.995627	-0.401493
C54	C	1.985207	-0.495627	0.098507
C55	C	1.731963	-0.380014	-0.420930
C56	C	2.231963	0.119986	0.079070
C57	C	1.848115	-0.380021	-0.420937
C58	C	2.348115	0.119979	0.079063
C59	C	1.446462	-0.368800	-0.637809
C60	C	1.946462	0.131200	-0.137809
C61	C	1.440951	-0.364028	-0.730237
C62	C	1.940951	0.135972	-0.230237
C63	C	1.474019	-0.163106	-0.409969
C64	C	1.974019	0.336894	0.090031
C65	C	1.480251	-0.070679	-0.405305
C66	C	1.980251	0.429321	0.094695
C67	C	1.472341	-0.391094	-0.204858
C68	C	1.972341	0.108906	0.295142
C69	C	1.478070	-0.395632	-0.112418
C70	C	1.978070	0.104368	0.387582
C71	C	1.430487	-0.355748	0.100515
C72	C	1.930487	0.144252	0.600515
C73	C	1.488531	-0.403910	0.056825
C74	C	1.988531	0.096090	0.556825
C75	C	1.482709	-0.399303	-0.037351
C76	C	1.982709	0.100697	0.462649
C77	C	1.436308	-0.360354	0.194699
C78	C	1.936308	0.139646	0.694699
H79	H	0.856073	-0.281513	-0.510164
H80	H	1.356073	0.218487	-0.010164
H81	H	1.550755	-0.868217	-0.351686
H82	H	2.050755	-0.368217	0.148314
H83	H	0.892313	-0.425460	-0.379780
H84	H	1.392313	0.074540	0.120220
H85	H	1.542598	-0.448602	0.090149
H86	H	2.042598	0.051398	0.590149
H87	H	1.376424	-0.311060	0.067192
H88	H	1.876424	0.188940	0.567192
H89	H	1.368223	-0.890933	-0.490151
H90	H	1.868223	-0.390933	0.009849
H91	H	1.026861	-0.425437	-0.379760
H92	H	1.526861	0.074563	0.120240
H93	H	1.065202	-0.281487	-0.510132
H94	H	1.565202	0.218513	-0.010132
