data_functionalizedCrystal
_audit_creation_method	'MofGen! by Chris Wilmer'
_symmetry_space_group_name_H-M	'P1'
_symmetry_Int_Tables_number	1
_symmetry_cell_setting	triclinic
loop_
_symmetry_equiv_pos_as_xyz
  x,y,z
_cell_length_a	16.974800
_cell_length_b	11.026607
_cell_length_c	15.455313
_cell_angle_alpha	93.255562
_cell_angle_beta	90.973911
_cell_angle_gamma	95.962169
loop_
_atom_site_label
_atom_site_type_symbol
_atom_site_fract_x
_atom_site_fract_y
_atom_site_fract_z
O1	O	1.071030	0.154769	0.003083
O2	O	0.844227	0.173310	-0.012845
O3	O	0.938831	-0.012678	-0.006198
O4	O	0.976426	0.340756	-0.003564
O5	O	0.933415	-0.002086	0.137683
O6	O	0.838811	0.183901	0.131036
O7	O	1.065614	0.165360	0.146964
Cu8	Cu	0.951718	0.175598	0.152138
Cu9	Cu	0.958123	0.163072	-0.018019
O10	O	0.971010	0.351348	0.140317
C11	C	0.812032	0.177706	0.057024
C12	C	0.724168	0.175012	0.050854
C13	C	0.679942	0.179517	0.126387
C14	C	0.597383	0.176967	0.120591
C15	C	0.559053	0.169920	0.039262
C16	C	0.603286	0.165411	-0.036277
C17	C	0.685842	0.167953	-0.030480
C18	C	0.312462	0.161690	0.013516
C19	C	0.229899	0.159152	0.007725
C20	C	0.224002	0.170706	0.164593
C21	C	0.306561	0.173255	0.170383
C22	C	0.350786	0.168739	0.094844
N23	N	0.474666	0.167316	0.033336
N24	N	0.435172	0.171334	0.100771
C25	C	0.929188	-0.052617	0.065254
C26	C	0.908513	-0.187401	0.063799
C27	C	0.965600	-0.261012	0.067807
C28	C	0.944233	-0.400320	0.066304
C29	C	1.097809	0.160964	0.077093
C30	C	1.185673	0.163657	0.083258
C31	C	0.980653	0.391287	0.068863
C32	C	1.001328	0.526071	0.070312
N33	N	0.947218	0.184407	0.271817
N34	N	0.962627	0.154253	-0.137698
C35	C	0.987431	0.105422	0.320037
C36	C	0.984038	0.112096	0.410606
C37	C	0.940435	0.197761	0.452955
C38	C	0.900217	0.276749	0.404728
C39	C	0.903607	0.270069	0.314160
C40	C	0.925799	0.226561	0.723508
C41	C	0.922414	0.233238	0.814083
C42	C	1.006234	0.068582	0.819954
C43	C	1.009624	0.061915	0.729384
C44	C	0.969403	0.140899	0.681166
N45	N	0.936967	0.204587	0.545531
N46	N	0.972866	0.134066	0.588590
H47	H	0.561376	0.180615	0.182098
H48	H	1.045129	-0.007840	0.694906
H49	H	0.843820	-0.227514	0.059250
H50	H	0.348459	0.158009	-0.047993
H51	H	0.864710	0.346495	0.439213
O52	O	0.728828	0.163369	-0.103830
C53	C	0.770800	0.059457	-0.105578
H54	H	0.740072	-0.011457	-0.063108
H55	H	0.772341	0.019117	-0.175022
H56	H	0.833926	0.086685	-0.080021
O57	O	1.042739	-0.212967	0.073265
C58	C	1.046900	-0.084572	0.073536
H59	H	0.988532	-0.053165	0.096748
H60	H	1.097244	-0.042354	0.118956
H61	H	1.058291	-0.054373	0.005126
O62	O	0.886859	0.303346	0.676594
C63	C	0.941675	0.374589	0.627920
H64	H	0.997018	0.325487	0.618182
H65	H	0.913870	0.388980	0.562124
H66	H	0.958462	0.466908	0.664094
H67	H	1.022941	0.035670	0.285563
H68	H	1.016782	0.047779	0.449866
H69	H	0.886906	0.303002	0.848558
H70	H	1.038980	0.004276	0.859222
O71	O	0.867087	-0.448354	0.060921
C72	C	0.862927	-0.576752	0.060601
H73	H	0.919244	-0.604154	0.091868
H74	H	0.809437	-0.612827	0.098725
H75	H	0.856737	-0.617102	-0.009045
O76	O	0.717124	0.186146	0.205410
C77	C	0.689167	0.083998	0.251296
H78	H	0.664025	0.006498	0.203517
H79	H	0.740115	0.053024	0.290545
H80	H	0.640755	0.109872	0.296930
O81	O	1.078489	-0.425963	0.075616
C82	C	1.096656	-0.359047	0.002167
H83	H	1.039890	-0.329666	-0.026729
H84	H	1.139153	-0.274708	0.021956
H85	H	1.125614	-0.418654	-0.048117
O86	O	0.864647	0.346969	0.267363
C87	C	0.893667	0.468845	0.291588
H88	H	0.955948	0.471550	0.320908
H89	H	0.895466	0.525343	0.231992
H90	H	0.853053	0.508195	0.341452
O91	O	0.343664	0.180048	0.249455
C92	C	0.286926	0.183511	0.314882
H93	H	0.226759	0.141599	0.287608
H94	H	0.305370	0.129401	0.371180
H95	H	0.282769	0.282330	0.338764
H96	H	0.198694	0.153417	-0.058507
O97	O	0.180995	0.174861	0.237941
C98	C	0.127079	0.068697	0.238852
H99	H	0.149458	-0.007236	0.195796
H100	H	0.121530	0.038509	0.308015
H101	H	0.066653	0.088971	0.213485
H102	H	0.572071	0.159664	-0.102497
