data_functionalizedCrystal
_audit_creation_method	'MofGen! by Chris Wilmer'
_symmetry_space_group_name_H-M	'P1'
_symmetry_Int_Tables_number	1
_symmetry_cell_setting	triclinic
loop_
_symmetry_equiv_pos_as_xyz
  x,y,z
_cell_length_a	16.109301
_cell_length_b	16.776229
_cell_length_c	16.109301
_cell_angle_alpha	90.004839
_cell_angle_beta	83.461481
_cell_angle_gamma	90.003040
loop_
_atom_site_label
_atom_site_type_symbol
_atom_site_fract_x
_atom_site_fract_y
_atom_site_fract_z
O1	O	1.103134	0.066240	0.106865
O2	O	0.861072	0.066253	0.120165
O3	O	0.988752	0.066238	-0.007516
O4	O	0.975453	0.066255	0.234546
O5	O	0.988738	-0.066338	-0.007516
O6	O	0.861057	-0.066323	0.120164
O7	O	1.103119	-0.066336	0.106865
Zn8	Zn	0.982086	-0.087379	0.113515
Zn9	Zn	0.982105	0.087296	0.113515
O10	O	0.975438	-0.066321	0.234546
C11	C	0.830090	-0.000033	0.119626
C12	C	0.737794	-0.000029	0.118011
C13	C	0.515522	-0.000033	0.190018
C14	C	0.428801	-0.000038	0.188494
C15	C	0.448676	-0.000045	0.037006
C16	C	0.535394	-0.000046	0.038530
C17	C	0.568815	-0.000036	0.115039
C18	C	0.395376	-0.000040	0.111990
C19	C	0.301350	-0.000046	0.110337
C20	C	0.662847	-0.000031	0.116693
N21	N	0.982079	-0.206590	0.113514
C22	C	1.032485	-0.248303	0.163957
C23	C	1.032494	-0.331755	0.163954
C24	C	0.982092	-0.373493	0.113511
C25	C	0.931684	-0.331775	0.063062
C26	C	0.931680	-0.248324	0.063062
C27	C	0.931701	-0.668322	0.063063
C28	C	0.931707	-0.751778	0.063070
C29	C	1.032515	-0.751753	0.163956
C30	C	1.032511	-0.668302	0.163955
C31	C	0.982107	-0.626591	0.113503
C32	C	0.982098	-0.536103	0.113506
C33	C	0.982096	-0.463980	0.113512
C34	C	1.134101	-0.000048	0.107404
C35	C	1.226397	-0.000047	0.109019
C36	C	0.988206	-0.000050	-0.038491
C37	C	0.986591	-0.000051	-0.130786
N38	N	0.982118	0.206507	0.113509
C39	C	1.058599	-0.000043	-0.353059
C40	C	1.057075	-0.000036	-0.439779
C41	C	0.905586	-0.000031	-0.419905
C42	C	0.907111	-0.000032	-0.333186
C43	C	0.983620	-0.000042	-0.299766
C44	C	0.980571	-0.000034	-0.473205
C45	C	0.978918	-0.000027	-0.567231
C46	C	0.985273	-0.000047	-0.205734
C47	C	0.975984	-0.000031	0.265521
C48	C	0.977600	-0.000025	0.357816
H49	H	1.073523	-0.214326	0.205038
H50	H	0.890634	-0.214362	0.021986
H51	H	0.890650	-0.365764	0.021987
F52	F	1.136878	-0.000035	-0.496495
F53	F	1.140026	-0.000052	-0.317493
H54	H	1.073542	-0.365714	0.205028
H55	H	0.843295	-0.000024	-0.447127
F56	F	0.372086	-0.000036	0.268298
F57	F	0.413100	-0.000053	-0.044416
F58	F	0.827304	-0.000025	-0.276464
H59	H	0.578788	-0.000050	-0.022530
F60	F	1.086146	-0.623886	0.217652
F61	F	0.551087	-0.000025	0.271446
F62	F	0.878060	-0.796197	0.009379
F63	F	1.086163	-0.796152	0.217649
H64	H	0.890659	-0.634370	0.021982
