data_functionalizedCrystal
_audit_creation_method	'MofGen! by Chris Wilmer'
_symmetry_space_group_name_H-M	'P1'
_symmetry_Int_Tables_number	1
_symmetry_cell_setting	triclinic
loop_
_symmetry_equiv_pos_as_xyz
  x,y,z
_cell_length_a	14.971486
_cell_length_b	10.723023
_cell_length_c	14.048226
_cell_angle_alpha	89.994597
_cell_angle_beta	89.998499
_cell_angle_gamma	84.040838
loop_
_atom_site_label
_atom_site_type_symbol
_atom_site_fract_x
_atom_site_fract_y
_atom_site_fract_z
O1	O	1.187820	0.162616	-0.079049
O2	O	1.687820	0.662616	0.420951
O3	O	0.927524	0.182090	-0.079075
O4	O	1.427524	0.682090	0.420925
O5	O	1.063676	-0.009286	-0.079057
O6	O	1.563676	0.490714	0.420943
O7	O	1.051668	0.353992	-0.079066
O8	O	1.551668	0.853992	0.420934
O9	O	1.063660	-0.009297	0.079264
O10	O	1.563660	0.490703	0.579264
O11	O	0.927508	0.182079	0.079247
O12	O	1.427508	0.682079	0.579247
O13	O	1.187803	0.162605	0.079272
O14	O	1.687803	0.662605	0.579272
Zn15	Zn	1.057653	0.172340	0.104396
Zn16	Zn	1.557653	0.672340	0.604396
Zn17	Zn	1.057675	0.172355	-0.104199
Zn18	Zn	1.557675	0.672355	0.395801
O19	O	1.051651	0.353981	0.079255
O20	O	1.551651	0.853981	0.579255
C21	C	0.894187	0.181214	0.000083
C22	C	1.394187	0.681214	0.500083
C23	C	0.794875	0.178604	0.000073
C24	C	1.294875	0.678604	0.500073
C25	C	1.062794	-0.055782	0.000102
C26	C	1.562794	0.444218	0.500102
C27	C	1.060180	-0.194309	0.000099
C28	C	1.560180	0.305691	0.500099
C29	C	0.738254	0.291032	0.000072
C30	C	1.238254	0.791032	0.500072
C31	C	0.644941	0.288572	0.000086
C32	C	1.144941	0.788572	0.500086
C33	C	0.608252	0.173683	0.000095
C34	C	1.108252	0.673683	0.500095
C35	C	0.664881	0.061246	0.000099
C36	C	1.164881	0.561246	0.500099
C37	C	0.758192	0.063707	0.000092
C38	C	1.258192	0.563707	0.500092
C39	C	0.470391	0.056125	0.000112
C40	C	0.970391	0.556125	0.500112
C41	C	0.377074	0.053663	0.000118
C42	C	0.877074	0.553663	0.500118
C43	C	0.357140	0.280990	0.000106
C44	C	0.857140	0.780990	0.500106
C45	C	0.450451	0.283451	0.000099
C46	C	0.950451	0.783451	0.500099
C47	C	0.507074	0.171013	0.000102
C48	C	1.007074	0.671013	0.500102
C49	C	1.059023	-0.256057	-0.081918
C50	C	1.559023	0.243943	0.418082
C51	C	1.056321	-0.399231	-0.081923
C52	C	1.556321	0.100769	0.418077
C53	C	1.221141	0.163482	0.000113
C54	C	1.721141	0.663482	0.500113
C55	C	1.320452	0.166091	0.000116
C56	C	1.820452	0.666091	0.500116
C57	C	1.052533	0.400477	0.000093
C58	C	1.552533	0.900477	0.500093
C59	C	1.055147	0.539004	0.000090
C60	C	1.555147	1.039004	0.500090
N61	N	1.057644	0.172329	0.246757
N62	N	1.557644	0.672329	0.746757
N63	N	1.057690	0.172356	-0.246559
N64	N	1.557690	0.672356	0.253441
C65	C	1.117952	0.087623	0.296583
C66	C	1.617952	0.587623	0.796583
C67	C	1.117958	0.087622	0.396241
C68	C	1.617958	0.587622	0.896241
C69	C	1.057660	0.172335	0.446071
C70	C	1.557660	0.672335	0.946071
C71	C	0.997346	0.257045	0.396238
C72	C	1.497346	0.757045	0.896238
C73	C	0.997336	0.257039	0.296582
C74	C	1.497336	0.757039	0.796582
C75	C	0.997372	0.257054	0.603952
C76	C	1.497372	0.757054	1.103952
C77	C	0.997383	0.257062	0.703615
C78	C	1.497383	0.757062	1.203615
C79	C	1.117994	0.087638	0.703611
C80	C	1.617994	0.587638	1.203611
C81	C	1.117984	0.087631	0.603955
C82	C	1.617984	0.587631	1.103955
C83	C	1.057671	0.172344	0.554129
C84	C	1.557671	0.672344	1.054129
H85	H	0.768118	0.384588	0.000064
H86	H	1.268118	0.884588	0.500064
H87	H	1.167087	0.018659	0.563383
H88	H	1.667087	0.518659	1.063383
Br89	Br	1.199849	-0.027321	0.771234
Br90	Br	1.699849	0.472679	1.271234
Br91	Br	0.327282	-0.102259	0.000162
Br92	Br	0.827282	0.397741	0.500162
H93	H	1.056147	-0.407903	0.070312
H94	H	1.556147	0.092097	0.570312
H95	H	0.948256	0.326032	0.563387
H96	H	1.448256	0.826032	1.063387
H97	H	0.598843	0.380123	0.000084
H98	H	1.098843	0.880123	0.500084
Br99	Br	0.915481	0.371994	0.228961
Br100	Br	1.415481	0.871994	0.728961
H101	H	0.948281	0.326043	0.744182
H102	H	1.448281	0.826043	1.244182
H103	H	1.059165	-0.247440	0.070312
H104	H	1.559165	0.252560	0.570312
H105	H	0.948246	0.326015	0.436815
H106	H	1.448246	0.826015	0.936815
H107	H	1.167057	0.018646	0.256018
H108	H	1.667057	0.518646	0.756018
Br109	Br	0.500243	0.439373	0.000073
Br110	Br	1.000243	0.939373	0.500073
Br111	Br	0.547236	-0.096470	0.000120
Br112	Br	1.047236	0.403530	0.500120
Br113	Br	0.615090	-0.094677	0.000121
Br114	Br	1.115090	0.405323	0.500121
H115	H	0.311033	0.372540	0.000109
H116	H	0.811033	0.872540	0.500109
H117	H	0.804293	-0.027843	0.000092
H118	H	1.304293	0.472157	0.500092
Br119	Br	1.060727	-0.167517	-0.198952
Br120	Br	1.560727	0.332483	0.301048
H121	H	1.167064	0.018648	0.436808
H122	H	1.667064	0.518648	0.936808
Br123	Br	1.054674	-0.487731	-0.198964
Br124	Br	1.554674	0.012269	0.301036
