data_functionalizedCrystal
_audit_creation_method	'MofGen! by Chris Wilmer'
_symmetry_space_group_name_H-M	'P1'
_symmetry_Int_Tables_number	1
_symmetry_cell_setting	triclinic
loop_
_symmetry_equiv_pos_as_xyz
  x,y,z
_cell_length_a	19.121424
_cell_length_b	21.295417
_cell_length_c	21.295396
_cell_angle_alpha	89.893877
_cell_angle_beta	92.366534
_cell_angle_gamma	92.474490
loop_
_atom_site_label
_atom_site_type_symbol
_atom_site_fract_x
_atom_site_fract_y
_atom_site_fract_z
Zn1	Zn	1.073999	-0.209109	-0.314991
Zn2	Zn	1.073796	-0.314523	-0.209724
Zn3	Zn	0.956450	-0.213757	-0.214214
Zn4	Zn	0.956509	-0.318834	-0.319425
O5	O	1.015188	-0.264056	-0.264588
O6	O	1.172251	-0.219343	-0.297292
O7	O	1.058121	-0.301298	-0.122234
O8	O	0.972103	-0.125049	-0.227607
O9	O	1.172103	-0.296791	-0.219953
O10	O	1.058465	-0.121634	-0.301647
O11	O	0.971907	-0.227265	-0.125533
O12	O	0.858178	-0.231445	-0.231906
O13	O	0.972204	-0.304138	-0.406922
O14	O	0.858221	-0.308645	-0.309203
O15	O	1.058523	-0.223523	-0.403665
O16	O	1.058178	-0.403187	-0.224252
O17	O	0.972007	-0.406354	-0.304849
C18	C	0.832717	-0.271018	-0.271523
C19	C	0.754655	-0.274011	-0.274505
C20	C	0.313153	-0.292940	-0.293434
C21	C	0.386500	-0.290132	-0.290621
C22	C	0.423129	-0.248470	-0.249036
C23	C	0.386406	-0.209617	-0.210258
C24	C	0.313059	-0.212429	-0.213069
C25	C	0.644585	-0.237970	-0.238537
C26	C	0.717937	-0.235160	-0.235731
C27	C	0.718026	-0.315677	-0.316093
C28	C	0.644679	-0.318482	-0.318903
C29	C	0.607962	-0.279631	-0.280122
C30	C	0.498102	-0.245597	-0.246161
C31	C	0.532990	-0.282507	-0.282995
C32	C	1.015096	-0.427611	-0.264557
C33	C	1.015121	-0.497578	-0.264562
C34	C	1.060030	-0.528773	-0.222635
C35	C	1.060063	-0.594514	-0.222648
C36	C	1.015174	-0.629059	-0.264582
C37	C	0.970262	-0.597856	-0.306517
C38	C	0.970236	-0.532116	-0.306507
N39	N	0.953741	-0.734666	-0.271716
N40	N	0.953769	-0.797116	-0.271721
C41	C	1.015253	-0.827130	-0.264615
N42	N	1.076711	-0.792334	-0.257491
N43	N	1.076682	-0.729878	-0.257482
C44	C	1.015199	-0.700343	-0.264598
C45	C	1.060202	-0.929609	-0.222700
C46	C	1.060236	-0.995352	-0.222717
C47	C	0.970429	-0.998692	-0.306583
C48	C	0.970401	-0.932951	-0.306568
C49	C	1.015286	-0.898413	-0.264624
C50	C	1.198373	-0.257067	-0.257627
C51	C	1.276435	-0.254089	-0.254660
C52	C	1.015392	-0.263793	-0.428771
C53	C	1.015479	-0.263680	-0.498737
C54	C	1.015300	-0.099861	-0.264633
C55	C	1.015348	-0.029891	-0.264652
C56	C	1.015026	-0.264271	-0.101043
C57	C	1.015075	-0.264201	-0.031073
C58	C	0.970250	-0.225470	0.466639
C59	C	0.970195	-0.225536	0.400895
C60	C	1.015382	-0.263806	0.369778
C61	C	1.060614	-0.302025	0.404410
C62	C	1.060663	-0.301962	0.470153
N63	N	1.076816	-0.265987	0.268807
N64	N	1.076768	-0.266044	0.206354
C65	C	1.015237	-0.263999	0.171698
N66	N	0.953755	-0.261884	0.201854
N67	N	0.953804	-0.261825	0.264313
C68	C	1.015334	-0.263879	0.298490
C69	C	0.969944	-0.225859	0.065786
C70	C	0.969888	-0.225929	0.000040
C71	C	1.060314	-0.302414	0.003557
C72	C	1.060364	-0.302347	0.069301
C73	C	1.015180	-0.264066	0.100411
H74	H	0.614699	-0.206338	-0.206957
H75	H	0.933052	-0.194816	-0.028151
H76	H	0.283335	-0.326863	-0.327300
H77	H	1.097107	-0.333573	-0.021778
H78	H	1.097497	-0.333077	0.498344
H79	H	0.416234	-0.175697	-0.176396
H80	H	1.096636	-0.619918	-0.188506
H81	H	0.933715	-0.625986	-0.340661
H82	H	0.283164	-0.180790	-0.181497
H83	H	0.933883	-1.026817	-0.340729
H84	H	0.933153	-0.194688	0.091117
H85	H	0.503164	-0.316431	-0.316851
H86	H	0.527933	-0.211675	-0.212304
H87	H	0.933829	-0.907550	-0.340707
H88	H	0.416393	-0.321771	-0.322193
H89	H	1.096810	-1.020749	-0.188576
H90	H	1.097196	-0.333461	0.097493
H91	H	0.933665	-0.506716	-0.340650
H92	H	0.614861	-0.352409	-0.352764
H93	H	1.097406	-0.333185	0.379070
H94	H	1.096752	-0.901488	-0.188548
H95	H	1.096580	-0.500655	-0.188483
H96	H	0.747929	-0.347307	-0.347666
H97	H	0.933455	-0.194300	0.491965
H98	H	0.747757	-0.201225	-0.201873
H99	H	0.933365	-0.194417	0.372698
