data_functionalizedCrystal
_audit_creation_method	'MofGen! by Chris Wilmer'
_symmetry_space_group_name_H-M	'P1'
_symmetry_Int_Tables_number	1
_symmetry_cell_setting	triclinic
loop_
_symmetry_equiv_pos_as_xyz
  x,y,z
_cell_length_a	12.759395
_cell_length_b	12.759394
_cell_length_c	12.759387
_cell_angle_alpha	89.967183
_cell_angle_beta	89.981185
_cell_angle_gamma	90.016374
loop_
_atom_site_label
_atom_site_type_symbol
_atom_site_fract_x
_atom_site_fract_y
_atom_site_fract_z
Zn1	Zn	1.606250	-0.418156	-0.593999
Zn2	Zn	1.606146	-0.593877	-0.418317
Zn3	Zn	1.430554	-0.418217	-0.418336
Zn4	Zn	1.430540	-0.593798	-0.593956
O5	O	1.518372	-0.506012	-0.506152
O6	O	1.753257	-0.441473	-0.570704
O7	O	1.582815	-0.570633	-0.271298
O8	O	1.453909	-0.271188	-0.441664
O9	O	1.753180	-0.570574	-0.441631
O10	O	1.582993	-0.271143	-0.570723
O11	O	1.453808	-0.441577	-0.271312
O12	O	1.283531	-0.441501	-0.441622
O13	O	1.453887	-0.570441	-0.740983
O14	O	1.283521	-0.570500	-0.570649
O15	O	1.582980	-0.441397	-0.741014
O16	O	1.582802	-0.740887	-0.441590
O17	O	1.453785	-0.740830	-0.570631
C18	C	1.245405	-0.505999	-0.506134
C19	C	1.128628	-0.506019	-0.506151
C20	C	1.128657	-0.640563	-0.640290
C21	C	1.073810	-0.707843	-0.707362
C22	C	0.964088	-0.707856	-0.707375
C23	C	0.909211	-0.640579	-0.640310
C24	C	0.964057	-0.573299	-0.573238
C25	C	1.073782	-0.573296	-0.573230
C26	C	0.964029	-0.438751	-0.439106
C27	C	1.073751	-0.438742	-0.439086
C28	C	0.909151	-0.371474	-0.372042
C29	C	0.963998	-0.304198	-0.304962
C30	C	1.073726	-0.304189	-0.304951
C31	C	1.128597	-0.371462	-0.372014
C32	C	1.518309	-0.778979	-0.506126
C33	C	1.518378	-0.895756	-0.506151
C34	C	1.652824	-0.895763	-0.371881
C35	C	1.720074	-0.950627	-0.304758
C36	C	1.720136	-1.060348	-0.304786
C37	C	1.652942	-1.115208	-0.371947
C38	C	1.585692	-1.060344	-0.439070
C39	C	1.585636	-0.950620	-0.439032
C40	C	1.451253	-1.060338	-0.573343
C41	C	1.451185	-0.950616	-0.573311
C42	C	1.384060	-1.115198	-0.640504
C43	C	1.316803	-1.060334	-0.707623
C44	C	1.316743	-0.950606	-0.707591
C45	C	1.383935	-0.895752	-0.640434
C46	C	1.792406	-0.506026	-0.506170
C47	C	1.909182	-0.506031	-0.506178
C48	C	1.518444	-0.505903	-0.780185
C49	C	1.518474	-0.505857	-0.896962
C50	C	1.518464	-0.231979	-0.506200
C51	C	1.518503	-0.115202	-0.506221
C52	C	1.384148	-0.371462	-0.896996
C53	C	1.317004	-0.304243	-0.951873
C54	C	1.317036	-0.304205	-1.061595
C55	C	1.384216	-0.371395	-1.116441
C56	C	1.451360	-0.438614	-1.061564
C57	C	1.451323	-0.438642	-0.951840
C58	C	1.585679	-0.573013	-1.061530
C59	C	1.585654	-0.573047	-0.951809
C60	C	1.652859	-0.640203	-1.116377
C61	C	1.720010	-0.707418	-1.061500
C62	C	1.719976	-0.707453	-0.951771
C63	C	1.652798	-0.640266	-0.896931
C64	C	1.518362	-0.506044	-0.233184
C65	C	1.518535	-0.505794	-0.116408
H66	H	0.819870	-0.640586	-0.640336
C67	C	1.384123	-0.371495	-0.776305
H68	H	1.433739	-0.421145	-0.751477
H69	H	1.316311	-0.389654	-0.751468
H70	H	1.402326	-0.303702	-0.751510
H71	H	1.384226	-0.371368	-1.205783
H72	H	1.383886	-0.806411	-0.640394
C73	C	1.242902	-1.120674	-0.781495
H74	H	1.202843	-1.072288	-0.821470
H75	H	1.197172	-1.163559	-0.741286
H76	H	1.283108	-1.163394	-0.827322
H77	H	1.774902	-1.105018	-0.250135
C78	C	1.243116	-0.230336	-0.891541
H79	H	1.252717	-0.239975	-0.818335
H80	H	1.172523	-0.245690	-0.909516
H81	H	1.258539	-0.159739	-0.909544
C82	C	1.652585	-0.640480	-1.237066
H83	H	1.702109	-0.690221	-1.261868
H84	H	1.670696	-0.572774	-1.262236
H85	H	1.584688	-0.658730	-1.261552
H86	H	0.919433	-0.762636	-0.761996
C87	C	1.134176	-0.781843	-0.781127
H88	H	1.207378	-0.772209	-0.771510
H89	H	1.116227	-0.766559	-0.851747
H90	H	1.116173	-0.852419	-0.765615
C91	C	0.903638	-0.230199	-0.231203
H92	H	0.952014	-0.190125	-0.191256
H93	H	0.860799	-0.270331	-0.185363
H94	H	0.860871	-0.184470	-0.271493
H95	H	1.262360	-0.249471	-1.106276
H96	H	1.774698	-0.762123	-1.106164
H97	H	1.384119	-1.204539	-0.640527
H98	H	1.261984	-0.905941	-0.762254
H99	H	1.774785	-0.905950	-0.250078
C100	C	0.788461	-0.371481	-0.372053
H101	H	0.763636	-0.321774	-0.322513
H102	H	0.763616	-0.439257	-0.353762
H103	H	0.763673	-0.353395	-0.439891
H104	H	1.118376	-0.249393	-0.250340
C105	C	1.653016	-1.235899	-0.371983
H106	H	1.702689	-1.260716	-0.322387
H107	H	1.671163	-1.260645	-0.439804
H108	H	1.585237	-1.260793	-0.353759
H109	H	1.774656	-0.762187	-0.907096
C110	C	1.652762	-0.640304	-0.776241
H111	H	1.702374	-0.689955	-0.751409
H112	H	1.584947	-0.658465	-0.751414
H113	H	1.670961	-0.572512	-0.751440
C114	C	1.249288	-0.371451	-0.372001
H115	H	1.274096	-0.321752	-0.322448
H116	H	1.274140	-0.353371	-0.439831
H117	H	1.274085	-0.439229	-0.353698
C118	C	1.249347	-0.640548	-0.640283
H119	H	1.274175	-0.690242	-0.689834
H120	H	1.274145	-0.658621	-0.572451
H121	H	1.274181	-0.572764	-0.658585
H122	H	1.652767	-0.806422	-0.371837
