data_functionalizedCrystal
_audit_creation_method	'MofGen! by Chris Wilmer'
_symmetry_space_group_name_H-M	'P1'
_symmetry_Int_Tables_number	1
_symmetry_cell_setting	triclinic
loop_
_symmetry_equiv_pos_as_xyz
  x,y,z
_cell_length_a	14.853567
_cell_length_b	17.038272
_cell_length_c	13.330367
_cell_angle_alpha	89.995338
_cell_angle_beta	89.995418
_cell_angle_gamma	87.373243
loop_
_atom_site_label
_atom_site_type_symbol
_atom_site_fract_x
_atom_site_fract_y
_atom_site_fract_z
O1	O	1.204051	0.102086	-0.083355
O2	O	0.942507	0.114247	-0.083372
O3	O	1.071724	-0.005651	-0.083356
O4	O	1.074833	0.221984	-0.083372
O5	O	1.071704	-0.005654	0.083491
O6	O	0.942486	0.114244	0.083475
O7	O	1.204031	0.102083	0.083492
Cu8	Cu	1.073257	0.108164	0.098718
Cu9	Cu	1.073281	0.108167	-0.098598
O10	O	1.074813	0.221981	0.083476
C11	C	0.908866	0.113695	0.000049
C12	C	0.808658	0.112043	0.000043
C13	C	0.390240	0.033841	0.000071
C14	C	0.379678	0.176283	0.000060
C15	C	0.473828	0.177835	0.000056
C16	C	0.526189	0.107390	0.000059
C17	C	0.484399	0.035392	0.000064
C18	C	0.515626	0.249832	0.000041
C19	C	0.609782	0.251388	0.000036
C20	C	0.662144	0.180941	0.000046
C21	C	0.620349	0.108940	0.000052
C22	C	0.672709	0.038495	0.000055
C23	C	0.630915	-0.033507	0.000068
C24	C	0.536762	-0.035055	0.000074
C25	C	0.756298	0.182489	0.000040
C26	C	0.766869	0.040045	0.000048
C27	C	1.068887	-0.034784	0.000067
C28	C	1.060451	-0.121588	0.000067
C29	C	1.137904	-0.171601	0.000073
C30	C	1.129972	-0.253162	0.000063
C31	C	1.044586	-0.284709	0.000054
C32	C	0.967127	-0.234690	0.000045
C33	C	0.975060	-0.153130	0.000047
C34	C	1.016561	-0.530503	0.000038
C35	C	1.008634	-0.612069	0.000038
C36	C	1.171480	-0.630535	0.000055
C37	C	1.179405	-0.548974	0.000063
C38	C	1.101946	-0.498962	0.000049
C39	C	1.036476	-0.368077	0.000047
C40	C	1.110056	-0.415595	0.000049
C41	C	1.237671	0.102636	0.000068
C42	C	1.337879	0.104287	0.000068
C43	C	1.077651	0.251114	0.000050
C44	C	1.086087	0.337918	0.000044
N45	N	1.073246	0.108161	0.237499
N46	N	1.073298	0.108163	-0.237380
C47	C	1.016059	0.161237	0.710115
C48	C	1.130526	0.055091	0.710098
C49	C	1.130516	0.055088	0.605079
C50	C	1.073277	0.108162	0.552574
C51	C	1.016049	0.161237	0.605087
C52	C	1.187750	0.002019	0.552558
C53	C	1.187743	0.002015	0.447534
C54	C	1.130499	0.055085	0.395026
C55	C	1.073267	0.108162	0.447546
C56	C	1.016028	0.161236	0.395041
C57	C	0.958791	0.214310	0.447558
C58	C	0.958805	0.214308	0.552580
C59	C	1.130485	0.055087	0.290005
C60	C	1.016018	0.161237	0.290012
H61	H	0.337041	0.233636	0.000049
H62	H	0.356207	-0.024781	0.000086
O63	O	1.220830	-0.140923	0.000258
C64	C	1.230277	-0.094289	0.086658
H65	H	1.181676	-0.113629	0.147053
H66	H	1.302377	-0.101537	0.115665
H67	H	1.214420	-0.029994	0.067122
H68	H	0.809495	-0.017321	0.000054
H69	H	1.234542	-0.671263	0.000064
O70	O	0.903256	0.265969	0.603481
C71	C	0.923852	0.343398	0.577822
H72	H	0.958590	0.343358	0.501561
H73	H	0.859031	0.381796	0.574239
H74	H	0.970590	0.367652	0.636917
H75	H	0.673560	-0.090863	0.000063
H76	H	0.966954	-0.393771	0.000041
H77	H	1.177133	0.011884	0.752851
O78	O	0.496120	-0.104971	-0.000099
C79	C	0.441961	-0.110113	-0.086498
H80	H	0.467347	-0.069230	-0.146896
H81	H	0.445560	-0.173120	-0.115501
H82	H	0.369184	-0.092149	-0.066962
O83	O	1.262418	-0.518461	0.000031
C84	C	1.329082	-0.580094	0.000064
H85	H	1.299567	-0.635522	-0.031536
H86	H	1.388330	-0.562981	-0.048361
H87	H	1.353254	-0.591617	0.080113
O88	O	0.903318	0.265898	0.396439
C89	C	0.955302	0.314227	0.335700
H90	H	1.023468	0.283198	0.319969
H91	H	0.918621	0.326535	0.261848
H92	H	0.965853	0.372029	0.376167
O93	O	1.205302	-0.301632	0.000120
C94	C	1.282366	-0.256299	0.000112
H95	H	1.264142	-0.195455	0.031699
H96	H	1.337009	-0.286326	0.048562
H97	H	1.308263	-0.250458	-0.079927
H98	H	0.472987	0.307185	0.000029
H99	H	0.643802	0.310016	0.000025
H100	H	0.969455	0.204447	0.752877
H101	H	0.790322	0.241112	0.000031
O102	O	1.243213	-0.049609	0.603613
C103	C	1.191225	-0.097907	0.664390
H104	H	1.120024	-0.099342	0.632739
H105	H	1.223245	-0.160000	0.665597
H106	H	1.188367	-0.073437	0.743979
H107	H	0.939099	-0.637751	0.000047
H108	H	0.953488	-0.489793	0.000027
O109	O	0.884232	-0.265425	-0.000099
C110	C	0.874774	-0.312030	-0.086523
H111	H	0.944283	-0.332265	-0.115326
H112	H	0.834735	-0.365476	-0.067090
H113	H	0.837658	-0.276038	-0.147035
H114	H	0.911989	-0.112410	0.000042
H115	H	1.179577	-0.389906	0.000034
H116	H	1.177091	0.011879	0.247250
H117	H	1.234347	-0.041201	0.404780
O118	O	0.960541	0.212828	0.238903
C119	C	1.012519	0.261162	0.178163
H120	H	1.080683	0.230133	0.162418
H121	H	0.975830	0.273476	0.104317
H122	H	1.023075	0.318960	0.218636
