data_functionalizedCrystal
_audit_creation_method	'MofGen! by Chris Wilmer'
_symmetry_space_group_name_H-M	'P1'
_symmetry_Int_Tables_number	1
_symmetry_cell_setting	triclinic
loop_
_symmetry_equiv_pos_as_xyz
  x,y,z
_cell_length_a	27.732048
_cell_length_b	27.732048
_cell_length_c	18.366186
_cell_angle_alpha	89.988789
_cell_angle_beta	89.996446
_cell_angle_gamma	82.642655
loop_
_atom_site_label
_atom_site_type_symbol
_atom_site_fract_x
_atom_site_fract_y
_atom_site_fract_z
O1	O	0.640930	0.057518	-0.060464
O2	O	0.974264	0.390851	0.272870
O3	O	1.307597	0.724184	0.606203
O4	O	0.500137	0.066263	-0.060487
O5	O	0.833470	0.399596	0.272847
O6	O	1.166803	0.732930	0.606180
O7	O	0.574906	-0.008506	-0.060461
O8	O	0.908240	0.324827	0.272873
O9	O	1.241573	0.658160	0.606206
O10	O	0.566161	0.132287	-0.060490
O11	O	0.899494	0.465620	0.272844
O12	O	1.232827	0.798954	0.606177
O13	O	0.574894	-0.008510	0.060639
O14	O	0.908227	0.324823	0.393972
O15	O	1.241560	0.658157	0.727305
O16	O	0.500124	0.066260	0.060613
O17	O	0.833458	0.399593	0.393946
O18	O	1.166791	0.732926	0.727279
O19	O	0.640918	0.057514	0.060636
O20	O	0.974251	0.390847	0.393969
O21	O	1.307584	0.724181	0.727302
Zn22	Zn	0.570519	0.061886	0.079851
Zn23	Zn	0.903852	0.395220	0.413185
Zn24	Zn	1.237186	0.728553	0.746518
Zn25	Zn	0.570535	0.061891	-0.079702
Zn26	Zn	0.903869	0.395224	0.253631
Zn27	Zn	1.237202	0.728558	0.586964
O28	O	0.566148	0.132284	0.060610
O29	O	0.899481	0.465617	0.393943
O30	O	1.232815	0.798950	0.727276
C31	C	0.482124	0.066078	0.000060
C32	C	0.815457	0.399411	0.333394
C33	C	1.148790	0.732744	0.666727
C34	C	0.428469	0.065525	0.000052
C35	C	0.761802	0.398858	0.333385
C36	C	1.095135	0.732192	0.666719
C37	C	0.089654	0.106229	0.000075
C38	C	0.422987	0.439562	0.333408
C39	C	0.756320	0.772895	0.666742
C40	C	-0.112006	0.104178	0.000082
C41	C	0.221327	0.437511	0.333415
C42	C	0.554661	0.770844	0.666749
O43	O	-0.143262	0.141398	0.000106
O44	O	0.190072	0.474732	0.333439
O45	O	0.523405	0.808065	0.666773
N46	N	-0.131130	0.059843	0.000090
N47	N	0.202204	0.393176	0.333423
N48	N	0.535537	0.726509	0.666757
C49	C	-0.099835	0.016017	0.000101
C50	C	0.233498	0.349350	0.333434
C51	C	0.566832	0.682684	0.666768
O52	O	-0.120728	-0.021740	0.000115
O53	O	0.212605	0.311593	0.333449
O54	O	0.545938	0.644927	0.666782
C55	C	0.101824	0.018068	0.000099
C56	C	0.435157	0.351402	0.333432
C57	C	0.768490	0.684735	0.666766
C58	C	0.120944	0.062407	0.000084
C59	C	0.454278	0.395740	0.333417
C60	C	0.787611	0.729073	0.666751
C61	C	0.108775	0.150563	0.000061
C62	C	0.442108	0.483897	0.333394
C63	C	0.775442	0.817230	0.666727
C64	C	0.159187	0.151075	0.000055
C65	C	0.492520	0.484409	0.333388
C66	C	0.825853	0.817742	0.666722
C67	C	0.190477	0.107253	0.000064
C68	C	0.523811	0.440587	0.333397
C69	C	0.857144	0.773920	0.666730
C70	C	0.171356	0.062919	0.000078
C71	C	0.504690	0.396252	0.333411
C72	C	0.838023	0.729585	0.666745
C73	C	0.133117	-0.025757	0.000115
C74	C	0.466451	0.307577	0.333449
C75	C	0.799784	0.640910	0.666782
C76	C	0.183535	-0.025240	0.000117
C77	C	0.516868	0.308094	0.333450
C78	C	0.850201	0.641427	0.666783
C79	C	0.202655	0.019098	0.000101
C80	C	0.535989	0.352432	0.333435
C81	C	0.869322	0.685765	0.666768
C82	C	0.253059	0.019609	0.000081
C83	C	0.586392	0.352942	0.333415
C84	C	0.919725	0.686276	0.666748
N85	N	0.272183	0.063944	0.000073
N86	N	0.605516	0.397277	0.333407
N87	N	0.938849	0.730611	0.666740
C88	C	0.240892	0.107766	0.000065
C89	C	0.574225	0.441100	0.333398
C90	C	0.907559	0.774433	0.666731
C91	C	-0.205709	0.014943	0.000100
C92	C	0.127624	0.348276	0.333434
C93	C	0.460957	0.681610	0.666767
C94	C	-0.256124	0.014430	0.000099
C95	C	0.077210	0.347763	0.333433
C96	C	0.410543	0.681097	0.666766
C97	C	-0.268291	0.102591	0.000082
C98	C	0.065042	0.435924	0.333415
C99	C	0.398376	0.769258	0.666749
C100	C	-0.217876	0.103104	0.000078
C101	C	0.115458	0.436437	0.333411
C102	C	0.448791	0.769770	0.666744
C103	C	-0.186585	0.059278	0.000092
C104	C	0.146748	0.392612	0.333426
C105	C	0.480081	0.725945	0.666759
C106	C	0.346761	0.108839	0.000052
C107	C	0.680094	0.442172	0.333385
C108	C	1.013428	0.775505	0.666719
C109	C	0.397178	0.109347	0.000043
C110	C	0.730511	0.442681	0.333377
C111	C	1.063845	0.776014	0.666710
C112	C	0.409341	0.021186	0.000065
C113	C	0.742674	0.354520	0.333398
C114	C	1.076008	0.687853	0.666731
C115	C	0.358929	0.020678	0.000069
C116	C	0.692262	0.354011	0.333403
C117	C	1.025595	0.687344	0.666736
C118	C	0.327639	0.064508	0.000066
C119	C	0.660973	0.397841	0.333399
C120	C	0.994306	0.731175	0.666732
O121	O	0.284343	-0.017592	0.000066
O122	O	0.617676	0.315741	0.333399
O123	O	0.951009	0.649075	0.666732
O124	O	0.261794	0.145518	0.000066
O125	O	0.595128	0.478851	0.333400
O126	O	0.928461	0.812184	0.666733
C127	C	0.039242	0.105716	0.000081
C128	C	0.372575	0.439050	0.333414
C129	C	0.705908	0.772383	0.666747
C130	C	0.020120	0.061382	0.000095
C131	C	0.353454	0.394715	0.333429
C132	C	0.686787	0.728049	0.666762
C133	C	0.051411	0.017560	0.000104
C134	C	0.384744	0.350893	0.333437
C135	C	0.718078	0.684226	0.666771
C136	C	-0.030294	0.060869	0.000094
C137	C	0.303039	0.394202	0.333428
C138	C	0.636373	0.727536	0.666761
C139	C	-0.061585	0.104691	0.000086
C140	C	0.271749	0.438025	0.333419
C141	C	0.605082	0.771358	0.666752
C142	C	-0.042461	0.149026	0.000078
C143	C	0.290872	0.482360	0.333411
C144	C	0.624206	0.815693	0.666744
C145	C	0.007951	0.149539	0.000072
C146	C	0.341284	0.482872	0.333405
C147	C	0.674618	0.816205	0.666739
C148	C	0.032287	-0.026775	0.000112
C149	C	0.365621	0.306558	0.333445
C150	C	0.698954	0.639891	0.666779
C151	C	-0.018125	-0.027284	0.000117
C152	C	0.315208	0.306049	0.333450
C153	C	0.648541	0.639383	0.666783
C154	C	-0.049416	0.016538	0.000108
C155	C	0.283917	0.349871	0.333441
C156	C	0.617251	0.683205	0.666775
C157	C	0.574716	-0.026515	0.000091
C158	C	0.908050	0.306818	0.333424
C159	C	1.241383	0.640152	0.666758
C160	C	0.574164	-0.080170	0.000097
C161	C	0.907497	0.253163	0.333430
C162	C	1.240830	0.586497	0.666764
C163	C	0.614867	-0.418985	0.000066
C164	C	0.948201	-0.085652	0.333400
C165	C	1.281534	0.247682	0.666733
C166	C	0.612816	-0.620645	0.000056
C167	C	0.946150	-0.287311	0.333389
C168	C	1.279483	0.046022	0.666722
O169	O	0.650037	-0.651900	0.000030
O170	O	0.983370	-0.318567	0.333363
O171	O	1.316704	0.014766	0.666697
N172	N	0.568481	-0.639768	0.000049
N173	N	0.901814	-0.306435	0.333383
N174	N	1.235148	0.026898	0.666716
C175	C	0.524656	-0.608474	0.000040
C176	C	0.857989	-0.275140	0.333374
C177	C	1.191322	0.058193	0.666707
O178	O	0.486899	-0.629367	0.000027
O179	O	0.820232	-0.296033	0.333360
O180	O	1.153565	0.037300	0.666694
C181	C	0.526707	-0.406815	0.000046
C182	C	0.860040	-0.073482	0.333379
C183	C	1.193374	0.259852	0.666712
C184	C	0.571045	-0.387694	0.000060
C185	C	0.904378	-0.054361	0.333393
C186	C	1.237712	0.278972	0.666726
C187	C	0.659202	-0.399864	0.000079
C188	C	0.992535	-0.066530	0.333413
C189	C	1.325868	0.266803	0.666746
C190	C	0.659714	-0.349452	0.000086
C191	C	0.993047	-0.016118	0.333419
C192	C	1.326381	0.317215	0.666753
C193	C	0.615892	-0.318161	0.000079
C194	C	0.949225	0.015172	0.333413
C195	C	1.282559	0.348506	0.666746
C196	C	0.571557	-0.337282	0.000066
C197	C	0.904891	-0.003949	0.333400
C198	C	1.238224	0.329384	0.666733
C199	C	0.482882	-0.375521	0.000032
C200	C	0.816215	-0.042188	0.333365
C201	C	1.149549	0.291145	0.666698
C202	C	0.483399	-0.325104	0.000031
C203	C	0.816732	0.008229	0.333365
C204	C	1.150066	0.341563	0.666698
C205	C	0.527737	-0.305983	0.000045
C206	C	0.861070	0.027350	0.333379
C207	C	1.194404	0.360683	0.666712
C208	C	0.528247	-0.255580	0.000066
C209	C	0.861581	0.077754	0.333400
C210	C	1.194914	0.411087	0.666733
N211	N	0.572583	-0.236456	0.000073
N212	N	0.905916	0.096877	0.333406
N213	N	1.239249	0.430211	0.666740
C214	C	0.616405	-0.267747	0.000080
C215	C	0.949738	0.065587	0.333413
C216	C	1.283072	0.398920	0.666746
C217	C	0.523582	-0.714348	0.000039
C218	C	0.856915	-0.381014	0.333372
C219	C	1.190248	-0.047681	0.666706
C220	C	0.523069	-0.764762	0.000039
C221	C	0.856402	-0.431429	0.333372
C222	C	1.189735	-0.098096	0.666706
C223	C	0.611230	-0.776930	0.000053
C224	C	0.944563	-0.443596	0.333386
C225	C	1.277896	-0.110263	0.666720
C226	C	0.611742	-0.726514	0.000058
C227	C	0.945075	-0.393181	0.333392
C228	C	1.278409	-0.059848	0.666725
C229	C	0.567917	-0.695224	0.000046
C230	C	0.901250	-0.361891	0.333379
C231	C	1.234583	-0.028557	0.666712
C232	C	0.617477	-0.161878	0.000094
C233	C	0.950811	0.171456	0.333427
C234	C	1.284144	0.504789	0.666761
C235	C	0.617986	-0.111461	0.000104
C236	C	0.951319	0.221873	0.333437
C237	C	1.284652	0.555206	0.666770
C238	C	0.529825	-0.099298	0.000086
C239	C	0.863158	0.234036	0.333419
C240	C	1.196492	0.567369	0.666752
C241	C	0.529316	-0.149710	0.000080
C242	C	0.862650	0.183623	0.333413
C243	C	1.195983	0.516957	0.666747
C244	C	0.573147	-0.180999	0.000082
C245	C	0.906480	0.152334	0.333415
C246	C	1.239813	0.485667	0.666748
O247	O	0.491047	-0.224296	0.000084
O248	O	0.824380	0.109038	0.333417
O249	O	1.157713	0.442371	0.666751
O250	O	0.654156	-0.246844	0.000077
O251	O	0.987490	0.086489	0.333410
O252	O	1.320823	0.419823	0.666743
C253	C	0.614355	-0.469397	0.000060
C254	C	0.947688	-0.136064	0.333393
C255	C	1.281022	0.197270	0.666726
C256	C	0.570021	-0.488518	0.000047
C257	C	0.903354	-0.155185	0.333380
C258	C	1.236687	0.178148	0.666713
C259	C	0.526198	-0.457228	0.000040
C260	C	0.859532	-0.123894	0.333373
C261	C	1.192865	0.209439	0.666707
C262	C	0.569508	-0.538933	0.000047
C263	C	0.902841	-0.205599	0.333380
C264	C	1.236174	0.127734	0.666713
C265	C	0.613330	-0.570223	0.000053
C266	C	0.946663	-0.236890	0.333386
C267	C	1.279996	0.096443	0.666720
C268	C	0.657665	-0.551100	0.000060
C269	C	0.990998	-0.217766	0.333393
C270	C	1.324332	0.115567	0.666726
C271	C	0.658177	-0.500688	0.000066
C272	C	0.991511	-0.167354	0.333400
C273	C	1.324844	0.165979	0.666733
C274	C	0.481863	-0.476351	0.000033
C275	C	0.815197	-0.143018	0.333367
C276	C	1.148530	0.190315	0.666700
C277	C	0.481355	-0.526764	0.000028
C278	C	0.814688	-0.193430	0.333361
C279	C	1.148021	0.139903	0.666694
C280	C	0.525177	-0.558054	0.000034
C281	C	0.858510	-0.224721	0.333368
C282	C	1.191843	0.108612	0.666701
C283	C	0.658931	0.057699	0.000087
C284	C	0.992264	0.391033	0.333421
C285	C	1.325598	0.724366	0.666754
C286	C	0.712586	0.058252	0.000091
C287	C	1.045919	0.391586	0.333424
C288	C	1.379252	0.724919	0.666757
C289	C	0.566338	0.150292	0.000056
C290	C	0.899671	0.483626	0.333390
C291	C	1.233005	0.816959	0.666723
C292	C	0.566891	0.203947	0.000046
C293	C	0.900224	0.537280	0.333379
C294	C	1.233557	0.870614	0.666712
N295	N	0.570511	0.061883	0.188743
N296	N	0.903844	0.395216	0.522076
N297	N	1.237178	0.728549	0.855409
N298	N	0.570547	0.061891	-0.188593
N299	N	0.903880	0.395224	0.144740
N300	N	1.237214	0.728557	0.478073
C301	C	0.603630	0.028791	0.226854
C302	C	0.936963	0.362124	0.560188
C303	C	1.270296	0.695458	0.893521
C304	C	0.603633	0.028789	0.303082
C305	C	0.936966	0.362122	0.636416
C306	C	1.270299	0.695455	0.969749
C307	C	0.570522	0.061887	0.341195
C308	C	0.903855	0.395220	0.674529
C309	C	1.237188	0.728553	1.007862
C310	C	0.537397	0.094981	0.303074
C311	C	0.870730	0.428314	0.636407
C312	C	1.204064	0.761648	0.969741
C313	C	0.537392	0.094979	0.226848
C314	C	0.870725	0.428312	0.560181
C315	C	1.204058	0.761646	0.893514
C316	C	0.563860	0.105958	0.461946
C317	C	0.897193	0.439292	0.795279
C318	C	1.230526	0.772625	1.128612
C319	C	0.563869	0.105961	0.538171
C320	C	0.897202	0.439294	0.871504
C321	C	1.230535	0.772628	1.204837
C322	C	0.570536	0.061893	0.576303
C323	C	0.903869	0.395226	0.909636
C324	C	1.237202	0.728559	1.242969
C325	C	0.577204	0.017820	0.538200
C326	C	0.910537	0.351153	0.871534
C327	C	1.243871	0.684486	1.204867
C328	C	0.577199	0.017818	0.461974
C329	C	0.910532	0.351151	0.795307
C330	C	1.243865	0.684485	1.128641
C331	C	0.570524	0.061892	0.423850
C332	C	0.903857	0.395226	0.757183
C333	C	1.237190	0.728559	1.090517
C334	C	0.603659	0.028796	0.697070
C335	C	0.936993	0.362129	1.030403
C336	C	1.270326	0.695462	1.363736
C337	C	0.603659	0.028793	0.773299
C338	C	0.936992	0.362126	1.106632
C339	C	1.270326	0.695460	1.439966
C340	C	0.537426	0.094989	0.773289
C341	C	0.870759	0.428323	1.106623
C342	C	1.204092	0.761656	1.439956
C343	C	0.537424	0.094988	0.697061
C344	C	0.870757	0.428321	1.030395
C345	C	1.204090	0.761655	1.363728
C346	C	0.570543	0.061892	0.658956
C347	C	0.903876	0.395225	0.992290
C348	C	1.237210	0.728558	1.325623
H349	H	0.343360	-0.015426	0.000071
H350	H	0.676693	0.317907	0.333405
H351	H	1.010027	0.651241	0.666738
N352	N	0.639361	-0.006900	0.344199
N353	N	0.972694	0.326434	0.677532
N354	N	1.306028	0.659767	1.010865
H355	H	0.634339	-0.001874	0.398270
H356	H	0.967673	0.331459	0.731603
H357	H	1.301006	0.664792	1.064937
H358	H	0.634041	-0.041157	0.330894
H359	H	0.967374	0.292177	0.664227
H360	H	1.300708	0.625510	0.997561
H361	H	0.630626	0.001845	0.666043
H362	H	0.963959	0.335178	0.999377
H363	H	1.297292	0.668512	1.332710
N364	N	0.707534	-0.328829	0.000083
N365	N	1.040867	0.004505	0.333416
N366	N	1.374201	0.337838	0.666750
H367	H	0.709715	-0.308188	0.044973
H368	H	1.043048	0.025145	0.378306
H369	H	1.376381	0.358478	0.711640
H370	H	0.735188	-0.356331	0.000054
H371	H	1.068521	-0.022998	0.333387
H372	H	1.401854	0.310336	0.666721
N373	N	0.501710	0.130685	0.814388
N374	N	0.835043	0.464018	1.147721
N375	N	1.168376	0.797352	1.481055
H376	H	0.480727	0.151649	0.778674
H377	H	0.814061	0.484982	1.112007
H378	H	1.147394	0.818316	1.445340
H379	H	0.480484	0.112321	0.846022
H380	H	0.813818	0.445654	1.179355
H381	H	1.147151	0.778987	1.512688
H382	H	0.434827	-0.014492	0.000069
H383	H	0.768160	0.318841	0.333402
H384	H	1.101494	0.652174	0.666736
H385	H	0.582627	-0.018068	0.430954
H386	H	0.915961	0.315266	0.764288
H387	H	1.249294	0.648599	1.097621
N388	N	0.066033	-0.074043	0.000127
N389	N	0.399366	0.259290	0.333460
N390	N	0.732700	0.592623	0.666793
H391	H	0.046264	-0.102203	0.000134
H392	H	0.379597	0.231130	0.333467
H393	H	0.712930	0.564463	0.666801
H394	H	0.087215	-0.075753	-0.044768
H395	H	0.420549	0.257581	0.288565
H396	H	0.753882	0.590914	0.621899
H397	H	0.209009	-0.060929	0.000129
H398	H	0.542343	0.272405	0.333463
H399	H	0.875676	0.605738	0.666796
H400	H	0.510457	0.121936	0.666029
H401	H	0.843790	0.455270	0.999362
H402	H	1.177124	0.788603	1.332695
H403	H	0.510437	0.121929	0.334109
H404	H	0.843770	0.455262	0.667443
H405	H	1.177103	0.788596	1.000776
H406	H	0.446177	-0.450879	0.000026
H407	H	0.779510	-0.117545	0.333360
H408	H	1.112844	0.215788	0.666693
H409	H	0.445246	-0.542327	0.000023
H410	H	0.778580	-0.208993	0.333356
H411	H	1.111913	0.124340	0.666689
N412	N	0.639389	-0.006893	0.814410
N413	N	0.972723	0.326441	1.147743
N414	N	1.306056	0.659774	1.481076
H415	H	0.660372	-0.027854	0.778700
H416	H	0.993705	0.305480	1.112034
H417	H	1.327039	0.638813	1.445367
H418	H	0.660613	0.011481	0.846017
H419	H	0.993946	0.344814	1.179350
H420	H	1.327280	0.678148	1.512684
N421	N	0.482561	-0.065544	0.000098
N422	N	0.815895	0.267790	0.333432
N423	N	1.149228	0.601123	0.666765
H424	H	0.489618	-0.030706	0.000107
H425	H	0.822951	0.302627	0.333440
H426	H	1.156285	0.635960	0.666773
H427	H	0.463222	-0.071685	-0.044796
H428	H	0.796555	0.261648	0.288538
H429	H	1.129888	0.594982	0.621871
H430	H	0.630596	0.001841	0.195831
H431	H	0.963930	0.335174	0.529165
H432	H	1.297263	0.668507	0.862498
H433	H	0.510422	0.121927	0.195816
H434	H	0.843755	0.455260	0.529150
H435	H	1.177089	0.788594	0.862483
N436	N	-0.171961	-0.032327	0.000105
N437	N	0.161373	0.301007	0.333438
N438	N	0.494706	0.634340	0.666772
H439	H	-0.150774	-0.034086	0.044997
H440	H	0.182560	0.299248	0.378330
H441	H	0.515893	0.632581	0.711663
H442	H	-0.191762	-0.060461	0.000079
H443	H	0.141572	0.272872	0.333413
H444	H	0.474905	0.606205	0.666746
N445	N	0.584398	-0.029716	0.579316
N446	N	0.917732	0.303618	0.912649
N447	N	1.251065	0.636951	1.245982
H448	H	0.583388	-0.023029	0.633386
H449	H	0.916721	0.310304	0.966720
H450	H	1.250054	0.643638	1.300053
H451	H	0.557676	-0.049663	0.566002
H452	H	0.891009	0.283671	0.899336
H453	H	1.224343	0.617004	1.232669
H454	H	0.694282	-0.485125	0.000077
H455	H	1.027615	-0.151791	0.333411
H456	H	1.360949	0.181542	0.666744
N457	N	0.665809	-0.090838	0.000123
N458	N	0.999143	0.242496	0.333456
N459	N	1.332476	0.575829	0.666789
H460	H	0.693491	-0.118313	0.000124
H461	H	1.026825	0.215020	0.333457
H462	H	1.360158	0.548354	0.666791
H463	H	0.667949	-0.070178	-0.044767
H464	H	1.001282	0.263156	0.288567
H465	H	1.334616	0.596489	0.621900
N466	N	0.556674	0.153493	0.579264
N467	N	0.890007	0.486827	0.912597
N468	N	1.223340	0.820160	1.245931
H469	H	0.552441	0.181410	0.543543
H470	H	0.885774	0.514743	0.876876
H471	H	1.219108	0.848077	1.210209
H472	H	0.526752	0.154704	0.610896
H473	H	0.860085	0.488038	0.944229
H474	H	1.193418	0.821371	1.277563
N475	N	0.028571	0.197361	0.000051
N476	N	0.361904	0.530694	0.333384
N477	N	0.695237	0.864027	0.666717
H478	H	0.001092	0.225040	0.000045
H479	H	0.334426	0.558373	0.333378
H480	H	0.667759	0.891707	0.666712
H481	H	0.049222	0.199498	0.044941
H482	H	0.382555	0.532831	0.378274
H483	H	0.715889	0.866165	0.711607
H484	H	0.694889	-0.425336	0.000082
H485	H	1.028223	-0.092003	0.333415
H486	H	1.361556	0.241330	0.666749
N487	N	-0.302035	0.149864	0.000110
N488	N	0.031299	0.483197	0.333443
N489	N	0.364632	0.816531	0.666777
H490	H	-0.295928	0.169242	-0.044773
H491	H	0.037405	0.502575	0.288561
H492	H	0.370739	0.835909	0.621894
H493	H	-0.336862	0.142779	0.000150
H494	H	-0.003528	0.476112	0.333484
H495	H	0.329805	0.809445	0.666817
H496	H	0.486964	-0.780325	0.000040
H497	H	0.820297	-0.446992	0.333374
H498	H	1.153631	-0.113659	0.666707
N499	N	0.556669	0.153493	0.420824
N500	N	0.890003	0.486826	0.754157
N501	N	1.223336	0.820160	1.087490
H502	H	0.583390	0.173459	0.434075
H503	H	0.916724	0.506792	0.767408
H504	H	1.250057	0.840125	1.100742
H505	H	0.557665	0.146764	0.366767
H506	H	0.890998	0.480097	0.700100
H507	H	1.224332	0.813431	1.033434
N508	N	0.417801	0.157171	0.000019
N509	N	0.751134	0.490504	0.333353
N510	N	1.084468	0.823837	0.666686
H511	H	0.390325	0.184853	0.000016
H512	H	0.723659	0.518186	0.333349
H513	H	1.056992	0.851519	0.666682
H514	H	0.438454	0.159306	0.044908
H515	H	0.771788	0.492639	0.378241
H516	H	1.105121	0.825972	0.711575
H517	H	-0.202311	0.139207	0.000069
H518	H	0.131022	0.472541	0.333403
H519	H	0.464355	0.805874	0.666736
H520	H	0.693347	-0.576585	0.000068
H521	H	1.026680	-0.243252	0.333402
H522	H	1.360013	0.090081	0.666735
H523	H	0.117558	-0.061861	0.000128
H524	H	0.450892	0.271472	0.333462
H525	H	0.784225	0.604805	0.666795
H526	H	0.174750	0.187180	0.000042
H527	H	0.508083	0.520513	0.333376
H528	H	0.841417	0.853847	0.666709
N529	N	0.313018	0.156111	0.000065
N530	N	0.646351	0.489445	0.333398
N531	N	0.979685	0.822778	0.666732
H532	H	0.332788	0.184271	0.000059
H533	H	0.666121	0.517604	0.333393
H534	H	0.999454	0.850938	0.666726
H535	H	0.291830	0.157830	-0.044822
H536	H	0.625164	0.491163	0.288512
H537	H	0.958497	0.824496	0.621845
H538	H	-0.067947	0.184708	0.000068
H539	H	0.265386	0.518041	0.333401
H540	H	0.598720	0.851375	0.666734
H541	H	0.447710	-0.299629	0.000020
H542	H	0.781043	0.033704	0.333353
H543	H	1.114377	0.367037	0.666687
H544	H	0.083302	0.186251	0.000056
H545	H	0.416636	0.519584	0.333389
H546	H	0.749969	0.852917	0.666723
N547	N	-0.276747	-0.033390	0.000107
N548	N	0.056586	0.299944	0.333441
N549	N	0.389920	0.633277	0.666774
H550	H	-0.265310	-0.052571	-0.044779
H551	H	0.068024	0.280762	0.288555
H552	H	0.401357	0.614096	0.621888
H553	H	-0.265308	-0.052532	0.045034
H554	H	0.068025	0.280801	0.378367
H555	H	0.401359	0.614135	0.711701
N556	N	-0.038745	-0.075109	0.000129
N557	N	0.294588	0.258224	0.333462
N558	N	0.627922	0.591558	0.666795
H559	H	-0.011268	-0.102790	0.000135
H560	H	0.322065	0.230544	0.333469
H561	H	0.655398	0.563877	0.666802
H562	H	-0.059395	-0.077242	0.045027
H563	H	0.273938	0.256091	0.378360
H564	H	0.607272	0.589424	0.711693
H565	H	0.647846	-0.710950	0.000069
H566	H	0.981179	-0.377617	0.333402
H567	H	1.314513	-0.044283	0.666736
N568	N	0.664748	-0.195624	0.000101
N569	N	0.998081	0.137710	0.333434
N570	N	1.331415	0.471043	0.666767
H571	H	0.684115	-0.189501	-0.044784
H572	H	1.017448	0.143832	0.288550
H573	H	1.350782	0.477166	0.621883
H574	H	0.684061	-0.189498	0.045029
H575	H	1.017394	0.143836	0.378363
H576	H	1.350727	0.477169	0.711696
N577	N	0.658494	-0.810686	0.000061
N578	N	0.991828	-0.477353	0.333394
N579	N	1.325161	-0.144020	0.666728
H580	H	0.660244	-0.831868	-0.044832
H581	H	0.993578	-0.498534	0.288501
H582	H	1.326911	-0.165201	0.621835
H583	H	0.686635	-0.790894	0.000091
H584	H	1.019969	-0.457561	0.333424
H585	H	1.353302	-0.124227	0.666757
H586	H	0.446777	-0.391080	0.000016
H587	H	0.780111	-0.057747	0.333349
H588	H	1.113444	0.275586	0.666683
N589	N	0.476311	-0.680600	0.000031
N590	N	0.809645	-0.347267	0.333365
N591	N	1.142978	-0.013933	0.666698
H592	H	0.456955	-0.686711	-0.044862
H593	H	0.790288	-0.353378	0.288472
H594	H	1.123622	-0.020044	0.621805
H595	H	0.456989	-0.686738	0.044951
H596	H	0.790322	-0.353405	0.378285
H597	H	1.123655	-0.020071	0.711618
N598	N	0.481496	-0.170337	0.000075
N599	N	0.814830	0.162996	0.333408
N600	N	1.148163	0.496330	0.666742
H601	H	0.453813	-0.142863	0.000074
H602	H	0.787147	0.190471	0.333408
H603	H	1.120480	0.523804	0.666741
H604	H	0.479369	-0.190979	-0.044824
H605	H	0.812702	0.142355	0.288509
H606	H	1.146035	0.475688	0.621842
