data_functionalizedCrystal
_audit_creation_method	'MofGen! by Chris Wilmer'
_symmetry_space_group_name_H-M	'P1'
_symmetry_Int_Tables_number	1
_symmetry_cell_setting	triclinic
loop_
_symmetry_equiv_pos_as_xyz
  x,y,z
_cell_length_a	19.188930
_cell_length_b	19.188925
_cell_length_c	17.666332
_cell_angle_alpha	89.993867
_cell_angle_beta	89.976766
_cell_angle_gamma	83.143665
loop_
_atom_site_label
_atom_site_type_symbol
_atom_site_fract_x
_atom_site_fract_y
_atom_site_fract_z
O1	O	0.926148	0.087169	-0.063191
O2	O	1.426148	0.587169	0.436809
O3	O	0.722836	0.098903	-0.063139
O4	O	1.222836	0.598903	0.436861
O5	O	0.830361	-0.008620	-0.063162
O6	O	1.330361	0.491380	0.436838
O7	O	0.818623	0.194692	-0.063168
O8	O	1.318623	0.694692	0.436832
O9	O	0.830342	-0.008625	0.062734
O10	O	1.330342	0.491375	0.562734
O11	O	0.722818	0.098898	0.062758
O12	O	1.222818	0.598898	0.562758
O13	O	0.926129	0.087163	0.062706
O14	O	1.426129	0.587163	0.562706
Cu15	Cu	0.824472	0.093030	0.074227
Cu16	Cu	1.324472	0.593030	0.574227
Cu17	Cu	0.824494	0.093037	-0.074660
Cu18	Cu	1.324494	0.593037	0.425340
O19	O	0.818604	0.194686	0.062729
O20	O	1.318604	0.694686	0.562729
C21	C	0.696816	0.098520	-0.000184
C22	C	1.196816	0.598520	0.499816
C23	C	0.619311	0.097380	-0.000164
C24	C	1.119311	0.597380	0.499836
C25	C	0.829972	-0.034634	-0.000214
C26	C	1.329972	0.465366	0.499786
C27	C	0.828833	-0.112138	-0.000216
C28	C	1.328833	0.387862	0.499784
C29	C	0.884297	-0.673909	-0.000249
C30	C	1.384297	-0.173909	0.499751
C31	C	0.885374	-0.601085	-0.000242
C32	C	1.385374	-0.101085	0.499758
C33	C	0.822282	-0.556151	-0.000226
C34	C	1.322282	-0.056151	0.499774
C35	C	0.758108	-0.584045	-0.000198
C36	C	1.258108	-0.084045	0.499802
C37	C	0.757033	-0.656867	-0.000197
C38	C	1.257033	-0.156867	0.499803
N39	N	0.776612	-0.435468	-0.043067
N40	N	1.276612	0.064532	0.456933
N41	N	0.777637	-0.366291	-0.043069
N42	N	1.277637	0.133709	0.456931
C43	C	0.825516	-0.336742	-0.000228
C44	C	1.325516	0.163258	0.499772
N45	N	0.872341	-0.378984	0.042607
N46	N	1.372341	0.121016	0.542607
N47	N	0.871318	-0.448168	0.042606
N48	N	1.371318	0.051832	0.542606
C49	C	0.823440	-0.477187	-0.000227
C50	C	1.323440	0.022813	0.499773
C51	C	0.890852	-0.229893	-0.000244
C52	C	1.390852	0.270107	0.499756
C53	C	0.891926	-0.157068	-0.000233
C54	C	1.391926	0.342932	0.499767
C55	C	0.764659	-0.140029	-0.000196
C56	C	1.264659	0.359971	0.499804
C57	C	0.763587	-0.212852	-0.000199
C58	C	1.263587	0.287148	0.499801
C59	C	0.826685	-0.257780	-0.000227
C60	C	1.326685	0.242220	0.499773
C61	C	0.574386	0.160471	-0.000178
C62	C	1.074386	0.660471	0.499822
C63	C	0.501563	0.159399	-0.000186
C64	C	1.001563	0.659399	0.499814
C65	C	0.473667	0.095233	-0.000196
C66	C	0.973667	0.595233	0.499804
C67	C	0.518602	0.032134	-0.000178
C68	C	1.018602	0.532134	0.499822
C69	C	0.591424	0.033207	-0.000162
C70	C	1.091424	0.533207	0.499838
N71	N	0.365694	0.046188	-0.043073
N72	N	0.865694	0.546188	0.456927
N73	N	0.296516	0.045172	-0.043090
N74	N	0.796516	0.545172	0.456910
C75	C	0.254259	0.091995	-0.000242
C76	C	0.754259	0.591995	0.499758
N77	N	0.283792	0.139882	0.042613
N78	N	0.783792	0.639882	0.542613
N79	N	0.352977	0.140899	0.042627
N80	N	0.852977	0.640899	0.542627
C81	C	0.394705	0.094062	-0.000213
C82	C	0.894705	0.594062	0.499787
C83	C	0.130369	0.153928	-0.000264
C84	C	0.630369	0.653928	0.499736
C85	C	0.057544	0.152854	-0.000267
C86	C	0.557544	0.652854	0.499733
C87	C	0.074586	0.025586	-0.000267
C88	C	0.574586	0.525586	0.499733
C89	C	0.147409	0.026663	-0.000256
C90	C	0.647409	0.526663	0.499744
C91	C	0.175296	0.090835	-0.000258
C92	C	0.675296	0.590835	0.499742
C93	C	0.952150	0.087546	-0.000251
C94	C	1.452150	0.587546	0.499749
C95	C	1.029654	0.088687	-0.000276
C96	C	1.529654	0.588687	0.499724
C97	C	0.818993	0.220700	-0.000221
C98	C	1.318993	0.720700	0.499779
C99	C	0.820132	0.298205	-0.000224
C100	C	1.320132	0.798205	0.499776
N101	N	0.824461	0.093025	0.178946
N102	N	1.324461	0.593025	0.678946
N103	N	0.824510	0.093036	-0.179380
N104	N	1.324510	0.593036	0.320620
C105	C	0.872088	0.045437	0.218546
C106	C	1.372088	0.545437	0.718546
C107	C	0.872093	0.045433	0.297794
C108	C	1.372093	0.545433	0.797794
C109	C	0.824476	0.093030	0.337439
C110	C	1.324476	0.593030	0.837439
C111	C	0.776840	0.140622	0.297830
C112	C	1.276840	0.640622	0.797830
C113	C	0.776832	0.140619	0.218584
C114	C	1.276832	0.640619	0.718584
N115	N	0.815398	0.154838	0.461857
N116	N	1.315398	0.654838	0.961857
N117	N	0.815410	0.154838	0.537137
N118	N	1.315410	0.654838	1.037137
C119	C	0.824494	0.093040	0.576203
C120	C	1.324494	0.593040	1.076203
N121	N	0.833581	0.031239	0.537143
N122	N	1.333581	0.531239	1.037143
N123	N	0.833573	0.031240	0.461856
N124	N	1.333573	0.531240	0.961856
C125	C	0.824478	0.093038	0.423368
C126	C	1.324478	0.593038	0.923368
C127	C	0.872129	0.045444	0.701731
C128	C	1.372129	0.545444	1.201731
C129	C	0.872128	0.045440	0.780980
C130	C	1.372128	0.545440	1.280980
C131	C	0.776878	0.140634	0.781015
C132	C	1.276878	0.640634	1.281015
C133	C	0.776876	0.140633	0.701767
C134	C	1.276876	0.640633	1.201767
C135	C	0.824505	0.093038	0.662130
C136	C	1.324505	0.593038	1.162130
H137	H	0.935677	-0.710485	-0.000267
H138	H	1.435677	-0.210485	0.499733
H139	H	0.464977	0.210777	-0.000195
H140	H	0.964977	0.710777	0.499805
C141	C	0.924514	-0.006916	0.658128
C142	C	1.424514	0.493084	1.158128
N143	N	0.963971	-0.046356	0.625288
N144	N	1.463971	0.453644	1.125288
H145	H	0.713288	-0.103444	-0.000176
H146	H	1.213288	0.396556	0.499824
H147	H	0.738047	0.179372	0.186341
H148	H	1.238047	0.679372	0.686341
C149	C	0.924475	-0.006925	0.174950
C150	C	1.424475	0.493075	0.674950
N151	N	0.963931	-0.046367	0.142112
N152	N	1.463931	0.453633	0.642112
H153	H	0.910910	0.006684	0.813223
H154	H	1.410910	0.506684	1.313223
H155	H	0.910878	0.006680	0.330041
H156	H	1.410878	0.506680	0.830041
H157	H	0.738068	0.179375	0.330113
H158	H	1.238068	0.679375	0.830113
H159	H	0.738105	0.179386	0.813293
H160	H	1.238105	0.679386	1.313293
H161	H	0.597087	0.212725	-0.000181
H162	H	1.097087	0.712725	0.499819
C163	C	0.487916	-0.038450	-0.000190
C164	C	0.987916	0.461550	0.499810
N165	N	0.464803	-0.091615	-0.000196
N166	N	0.964803	0.408385	0.499804
C167	C	0.692999	-0.243528	-0.000182
C168	C	1.192999	0.256472	0.499818
N169	N	0.639829	-0.266632	-0.000168
N170	N	1.139829	0.233368	0.499832
H171	H	0.738096	0.179386	0.669523
H172	H	1.238096	0.679386	1.169523
C173	C	0.686444	-0.687542	-0.000175
C174	C	1.186444	-0.187542	0.499825
N175	N	0.633275	-0.710648	-0.000162
N176	N	1.133275	-0.210648	0.499838
C177	C	0.962516	-0.126394	-0.000256
C178	C	1.462516	0.373606	0.499744
N179	N	1.015686	-0.103290	-0.000275
N180	N	1.515686	0.396710	0.499725
C181	C	0.161047	0.224519	-0.000256
C182	C	0.661047	0.724519	0.499744
N183	N	0.184152	0.277688	-0.000249
N184	N	0.684152	0.777688	0.499751
H185	H	0.937626	-0.578376	-0.000262
H186	H	1.437626	-0.078376	0.499738
H187	H	0.628003	-0.018171	-0.000152
H188	H	1.128003	0.481829	0.499848
C189	C	0.688707	-0.534616	-0.000183
C190	C	1.188707	-0.034616	0.499817
N191	N	0.636431	-0.497385	-0.000171
N192	N	1.136431	0.002615	0.499829
H193	H	0.942231	-0.266475	-0.000266
H194	H	1.442231	0.233525	0.499734
H195	H	0.051874	-0.026659	-0.000322
H196	H	0.551874	0.473341	0.499678
C197	C	0.196829	-0.042744	-0.000250
C198	C	0.696829	0.457256	0.499750
N199	N	0.234052	-0.095024	-0.000244
N200	N	0.734052	0.404976	0.499756
H201	H	0.020966	0.204232	-0.000274
H202	H	0.520966	0.704232	0.499726
