data_functionalizedCrystal
_audit_creation_method	'MofGen! by Chris Wilmer'
_symmetry_space_group_name_H-M	'P1'
_symmetry_Int_Tables_number	1
_symmetry_cell_setting	triclinic
loop_
_symmetry_equiv_pos_as_xyz
  x,y,z
_cell_length_a	26.809956
_cell_length_b	12.837943
_cell_length_c	12.811415
_cell_angle_alpha	90.588083
_cell_angle_beta	95.426489
_cell_angle_gamma	89.991434
loop_
_atom_site_label
_atom_site_type_symbol
_atom_site_fract_x
_atom_site_fract_y
_atom_site_fract_z
O1	O	0.053816	-1.376643	0.272960
O2	O	0.053209	-1.074779	0.259475
O3	O	0.046633	-1.233303	0.114187
O4	O	0.060392	-1.218118	0.418248
O5	O	-0.036325	-1.233273	0.114208
O6	O	-0.029749	-1.074749	0.259497
O7	O	-0.029142	-1.376613	0.272981
Zn8	Zn	-0.042617	-1.225676	0.266242
Zn9	Zn	0.066684	-1.225715	0.266214
O10	O	-0.022566	-1.218088	0.418270
C11	C	0.011524	-1.036123	0.254931
C12	C	0.010911	-0.920988	0.241345
N13	N	-0.117212	-1.225657	0.266262
C14	C	0.003382	-1.232437	0.075009
C15	C	-0.001899	-1.229886	-0.041763
C16	C	-0.464751	-1.295901	0.201897
C17	C	-0.673630	-1.295926	0.201883
O18	O	-0.703110	-1.355608	0.147160
N19	N	-0.696842	-1.225721	0.266192
C20	C	-0.667833	-1.155501	0.330502
O21	O	-0.692370	-1.095781	0.385192
C22	C	-0.458955	-1.155472	0.330510
C23	C	-0.435745	-1.225688	0.266205
C24	C	-0.441541	-1.366111	0.137597
C25	C	-0.389324	-1.366108	0.137605
C26	C	-0.360318	-1.295895	0.201913
C27	C	-0.383529	-1.225685	0.266213
C28	C	-0.429947	-1.085247	0.394814
C29	C	-0.377724	-1.085245	0.394808
C30	C	-0.354514	-1.155461	0.330504
C31	C	-0.302306	-1.155469	0.330530
N32	N	-0.279093	-1.225674	0.266222
C33	C	-0.308099	-1.295887	0.201914
C34	C	-0.777496	-1.155522	0.330496
C35	C	-0.829715	-1.155530	0.330495
C36	C	-0.835509	-1.295954	0.201875
C37	C	-0.783289	-1.295950	0.201881
C38	C	-0.754283	-1.225727	0.266188
C39	C	-0.198440	-1.295876	0.201937
C40	C	-0.146218	-1.295869	0.201954
C41	C	-0.140430	-1.155442	0.330570
C42	C	-0.192646	-1.155452	0.330557
C43	C	-0.221651	-1.225673	0.266232
O44	O	-0.272795	-1.095811	0.385216
O45	O	-0.283553	-1.355582	0.147215
C46	C	-0.516968	-1.295904	0.201889
C47	C	-0.540179	-1.225694	0.266189
C48	C	-0.511172	-1.155482	0.330497
C49	C	-0.592398	-1.225703	0.266189
C50	C	-0.621404	-1.295915	0.201880
C51	C	-0.598191	-1.366120	0.137572
C52	C	-0.545974	-1.366117	0.137580
C53	C	-0.534385	-1.085277	0.394805
C54	C	-0.586602	-1.085286	0.394792
C55	C	-0.615608	-1.155499	0.330484
N56	N	0.141279	-1.225743	0.266187
C57	C	0.012544	-1.415268	0.277526
C58	C	0.013160	-1.530404	0.291112
C59	C	0.018294	-0.680736	0.404673
C60	C	0.017718	-0.572555	0.391912
C61	C	0.009178	-0.596442	0.203065
C62	C	0.009754	-0.704623	0.215825
C63	C	0.014313	-0.746766	0.316632
C64	C	0.014893	-0.854949	0.329392
C65	C	0.006350	-0.878835	0.140545
C66	C	0.005774	-0.770654	0.127785
C67	C	0.078630	-1.225108	-0.261203
C68	C	0.073671	-1.222712	-0.370920
C69	C	-0.016776	-1.222691	-0.370916
C70	C	-0.011816	-1.225087	-0.261199
C71	C	0.035888	-1.226297	-0.206346
C72	C	0.040847	-1.228701	-0.096627
C73	C	-0.049599	-1.228672	-0.096625
C74	C	-0.054559	-1.226276	-0.206342
C75	C	0.020686	-1.218955	0.457448
C76	C	0.025970	-1.221505	0.574219
H77	H	-0.127323	-1.353052	0.149590
H78	H	-0.753883	-1.098336	0.382864
C79	C	0.023312	-0.727095	0.515560
N80	N	0.027092	-0.762011	0.599082
H81	H	0.002056	-0.736326	0.045710
C82	C	-0.757763	-1.373186	0.131135
N83	N	-0.738540	-1.431360	0.077842
H84	H	0.020958	-0.518796	0.463605
H85	H	0.018605	-0.889259	0.411474
H86	H	0.108476	-1.221741	-0.415580
C87	C	-0.867426	-1.373183	0.131129
N88	N	-0.891468	-1.431343	0.077839
H89	H	0.005425	-0.562111	0.120992
H90	H	-0.848608	-1.098365	0.382870
H91	H	0.079690	-1.229689	-0.051968
C92	C	0.001972	-0.951477	0.043694
N93	N	-0.001323	-1.006193	-0.029252
C94	C	-0.069246	-1.221336	-0.431273
N95	N	-0.108768	-1.220312	-0.476734
H96	H	0.117473	-1.226103	-0.216541
C97	C	-0.107031	-1.224940	-0.266693
N98	N	-0.146554	-1.223936	-0.312148
H99	H	-0.084403	-1.229643	-0.051950
H100	H	-0.222050	-1.353055	0.149556
H101	H	-0.354111	-1.028057	0.447173
C102	C	-0.473441	-1.443350	0.066838
N103	N	-0.497464	-1.501533	0.013539
C104	C	-0.455466	-1.007994	0.465547
N105	N	-0.474687	-0.949799	0.518823
C106	C	-0.363801	-1.443341	0.066852
N107	N	-0.344580	-1.501513	0.013552
H108	H	-0.211544	-1.098286	0.382931
H109	H	-0.116804	-1.098279	0.382932
H110	H	-0.527081	-1.423293	0.085218
H111	H	-0.605495	-1.028110	0.447166
C112	C	-0.630108	-1.443352	0.066830
N113	N	-0.654151	-1.501515	0.013545
H114	H	-0.510772	-1.028100	0.447171
