data_functionalizedCrystal
_audit_creation_method	'MofGen! by Chris Wilmer'
_symmetry_space_group_name_H-M	'P1'
_symmetry_Int_Tables_number	1
_symmetry_cell_setting	triclinic
loop_
_symmetry_equiv_pos_as_xyz
  x,y,z
_cell_length_a	15.995350
_cell_length_b	16.992694
_cell_length_c	15.455313
_cell_angle_alpha	92.857794
_cell_angle_beta	92.667328
_cell_angle_gamma	92.919701
loop_
_atom_site_label
_atom_site_type_symbol
_atom_site_fract_x
_atom_site_fract_y
_atom_site_fract_z
O1	O	0.174116	-1.043823	-0.072015
O2	O	0.674116	-0.543823	0.427985
O3	O	0.172167	-0.815539	-0.072041
O4	O	0.672167	-0.315539	0.427959
O5	O	0.051671	-0.935921	-0.072026
O6	O	0.551671	-0.435921	0.427974
O7	O	0.294611	-0.923440	-0.072029
O8	O	0.794611	-0.423440	0.427971
O9	O	0.058531	-0.929037	0.072235
O10	O	0.558531	-0.429037	0.572235
O11	O	0.179027	-0.808655	0.072221
O12	O	0.679027	-0.308655	0.572221
O13	O	0.180976	-1.036939	0.072246
O14	O	0.680976	-0.536939	0.572246
Cu15	Cu	0.180628	-0.922168	0.085406
Cu16	Cu	0.680628	-0.422168	0.585406
Cu17	Cu	0.172515	-0.930309	-0.085200
Cu18	Cu	0.672515	-0.430309	0.414800
O19	O	0.301471	-0.916556	0.072232
O20	O	0.801471	-0.416556	0.572232
C21	C	0.173091	-0.782884	0.000087
C22	C	0.673091	-0.282884	0.500087
C23	C	0.165614	-0.695840	0.000077
C24	C	0.665614	-0.195840	0.500077
C25	C	0.023872	-0.931963	0.000103
C26	C	0.523872	-0.431963	0.500103
C27	C	-0.069182	-0.930416	0.000098
C28	C	0.430818	-0.430416	0.500098
C29	C	0.180052	-1.069593	0.000117
C30	C	0.680052	-0.569593	0.500117
C31	C	0.187528	-1.156637	0.000121
C32	C	0.687528	-0.656637	0.500121
C33	C	-0.407301	-0.924861	0.000100
C34	C	0.092699	-0.424861	0.500100
C35	C	-0.365620	-0.839142	-0.000233
C36	C	0.134380	-0.339142	0.499767
C37	C	-0.268811	-0.840674	0.000092
C38	C	0.231189	-0.340674	0.500092
C39	C	-0.239556	-0.927617	0.000098
C40	C	0.260444	-0.427617	0.500098
C41	C	-0.273887	-0.965973	0.082482
C42	C	0.226113	-0.465973	0.582482
C43	C	-0.370663	-0.963816	0.082550
C44	C	0.129337	-0.463816	0.582550
C45	C	-0.378704	-0.973415	-0.081501
C46	C	0.121296	-0.473415	0.418499
C47	C	-0.281812	-0.973447	-0.082590
C48	C	0.218188	-0.473447	0.417410
C49	C	-0.144754	-0.929178	0.000100
C50	C	0.355246	-0.429178	0.500100
C51	C	-0.502103	-0.923301	0.000104
C52	C	-0.002103	-0.423301	0.500104
C53	C	0.329271	-0.920514	0.000101
C54	C	0.829271	-0.420514	0.500101
C55	C	0.422324	-0.922061	0.000101
C56	C	0.922324	-0.422061	0.500101
N57	N	0.186334	-0.916448	0.205401
N58	N	0.686334	-0.416448	0.705401
C59	C	0.237750	-0.645600	0.000077
C60	C	0.737750	-0.145600	0.500077
C61	C	0.230720	-0.563813	0.000089
C62	C	0.730720	-0.063813	0.500089
C63	C	0.151555	-0.532268	0.000095
C64	C	0.651555	-0.032268	0.500095
C65	C	0.079414	-0.582515	0.000098
C66	C	0.579414	-0.082515	0.500098
C67	C	0.086445	-0.664300	0.000092
C68	C	0.586445	-0.164300	0.500092
C69	C	0.122418	-0.288669	0.000118
C70	C	0.622418	0.211331	0.500118
C71	C	0.115393	-0.206878	0.000122
C72	C	0.615393	0.293122	0.500122
C73	C	0.266700	-0.188181	0.000114
C74	C	0.766700	0.311819	0.500114
C75	C	0.273723	-0.269969	0.000103
C76	C	0.773723	0.230031	0.500103
C77	C	0.201582	-0.320208	0.000111
C78	C	0.701582	0.179792	0.500111
N79	N	0.144368	-0.448669	0.000104
N80	N	0.644368	0.051331	0.500104
N81	N	0.208770	-0.403806	0.000107
N82	N	0.708770	0.096194	0.500107
N83	N	0.166802	-0.936036	-0.205195
N84	N	0.666802	-0.436036	0.294805
C85	C	0.135164	-0.967608	0.250801
C86	C	0.635164	-0.467608	0.750801
C87	C	0.139488	-0.963289	0.341608
C88	C	0.639488	-0.463289	0.841608
C89	C	0.194986	-0.907813	0.387014
C90	C	0.694986	-0.407813	0.887014
C91	C	0.246157	-0.856647	0.341607
C92	C	0.746157	-0.356647	0.841607
C93	C	0.241829	-0.860963	0.250801
C94	C	0.741829	-0.360963	0.750801
C95	C	0.213646	-0.889185	0.658593
C96	C	0.713646	-0.389185	1.158593
C97	C	0.217972	-0.884875	0.749405
C98	C	0.717972	-0.384875	1.249405
C99	C	0.111301	-0.991517	0.749400
C100	C	0.611301	-0.491517	1.249400
C101	C	0.106981	-0.995831	0.658592
C102	C	0.606981	-0.495831	1.158592
C103	C	0.158150	-0.944662	0.613194
C104	C	0.658150	-0.444662	1.113194
N105	N	0.199408	-0.903399	0.479833
N106	N	0.699408	-0.403399	0.979833
N107	N	0.153722	-0.949073	0.520376
N108	N	0.653722	-0.449073	1.020376
H109	H	-0.245421	-0.810251	-0.058964
H110	H	0.254579	-0.310251	0.441036
O111	O	-0.393773	-0.919076	0.164112
O112	O	0.106227	-0.419076	0.664112
H113	H	-0.365281	-0.858055	0.165546
H114	H	0.134719	-0.358055	0.665546
O115	O	0.306022	-0.796818	0.390581
O116	O	0.806022	-0.296818	0.890581
H117	H	0.340873	-0.761966	0.343753
H118	H	0.840873	-0.261966	0.843753
H119	H	-0.404089	-0.948364	-0.143943
H120	H	0.095911	-0.448364	0.356057
O121	O	0.047116	-1.055659	0.609618
O122	O	0.547116	-0.555659	1.109618
H123	H	0.012253	-1.090504	0.656444
H124	H	0.512253	-0.590504	1.156444
H125	H	-0.384703	-0.802224	0.058509
H126	H	0.115297	-0.302224	0.558509
H127	H	0.338187	-0.295647	0.000088
H128	H	0.838187	0.204353	0.500088
O129	O	-0.407575	-1.046950	0.087529
O130	O	0.092425	-0.546950	0.587529
H131	H	-0.356287	-1.088514	0.089883
H132	H	0.143713	-0.588514	0.589883
O133	O	0.268839	-0.834002	0.609637
O134	O	0.768839	-0.334002	1.109637
H135	H	0.309787	-0.868971	0.568250
H136	H	0.809787	-0.368971	1.068250
H137	H	0.325432	-0.147268	0.000110
H138	H	0.825432	0.352732	0.500110
H139	H	0.069641	-1.033175	0.786372
H140	H	0.569641	-0.533175	1.286372
O141	O	0.297022	-0.805788	0.201827
O142	O	0.797022	-0.305788	0.701827
H143	H	0.336347	-0.766492	0.248654
H144	H	0.836347	-0.266492	0.748654
H145	H	-0.255341	-1.029701	0.085550
H146	H	0.244659	-0.529701	0.585550
O147	O	-0.235039	-0.923202	0.163691
O148	O	0.264961	-0.423202	0.663691
H149	H	-0.191283	-0.874623	0.145585
H150	H	0.308717	-0.374623	0.645585
H151	H	-0.259530	-0.945437	-0.143535
H152	H	0.240470	-0.445437	0.356465
H153	H	0.289461	-0.522910	0.000087
H154	H	0.789461	-0.022910	0.500087
O155	O	0.030001	-0.172856	0.000139
O156	O	0.530001	0.327144	0.500139
H157	H	0.037235	-0.107545	0.000134
H158	H	0.537235	0.392455	0.500134
H159	H	-0.240372	-0.804387	0.059241
H160	H	0.259628	-0.304387	0.559241
O161	O	-0.256168	-1.057749	-0.089180
O162	O	0.243832	-0.557749	0.410820
H163	H	-0.212716	-1.068348	-0.033369
H164	H	0.287284	-0.568348	0.466631
H165	H	0.014957	-0.556824	0.000115
H166	H	0.514957	-0.056824	0.500115
O167	O	-0.396942	-0.797477	-0.078480
O168	O	0.103058	-0.297477	0.421520
H169	H	-0.381218	-0.831096	-0.138441
H170	H	0.118782	-0.331096	0.361559
O171	O	-0.415210	-1.057180	-0.082243
O172	O	0.084790	-0.557180	0.417757
H173	H	-0.453539	-1.064237	-0.024809
H174	H	0.046461	-0.564237	0.475191
O175	O	0.323139	-0.679617	0.000080
O176	O	0.823139	-0.179617	0.500080
H177	H	0.355276	-0.662227	-0.058712
H178	H	0.855276	-0.162227	0.441288
O179	O	0.044613	-0.342852	0.000126
O180	O	0.544613	0.157148	0.500126
H181	H	-0.011614	-0.307174	0.000123
H182	H	0.488386	0.192826	0.500123
H183	H	0.027704	-0.705206	0.000091
H184	H	0.527704	-0.205206	0.500091
O185	O	0.084315	-1.018483	0.390579
O186	O	0.584315	-0.518483	0.890579
H187	H	0.045010	-1.057795	0.343750
H188	H	0.545010	-0.557795	0.843750
O189	O	0.075285	-1.027430	0.201836
O190	O	0.575285	-0.527430	0.701836
H191	H	0.080868	-1.021837	0.131064
H192	H	0.580868	-0.521837	0.631064
O193	O	0.277822	-0.825029	0.798384
O194	O	0.777822	-0.325029	1.298384
H195	H	0.312668	-0.790165	0.751561
H196	H	0.812668	-0.290165	1.251561
