data_functionalizedCrystal
_audit_creation_method	'MofGen! by Chris Wilmer'
_symmetry_space_group_name_H-M	'P1'
_symmetry_Int_Tables_number	1
_symmetry_cell_setting	triclinic
loop_
_symmetry_equiv_pos_as_xyz
  x,y,z
_cell_length_a	17.639664
_cell_length_b	19.805405
_cell_length_c	19.805398
_cell_angle_alpha	90.028511
_cell_angle_beta	78.817901
_cell_angle_gamma	101.257049
loop_
_atom_site_label
_atom_site_type_symbol
_atom_site_fract_x
_atom_site_fract_y
_atom_site_fract_z
Zn1	Zn	-1.208344	0.059989	-0.173880
Zn2	Zn	-1.208256	0.173194	-0.060707
Zn3	Zn	-1.076177	0.082922	-0.083547
Zn4	Zn	-1.076116	0.196065	-0.196692
O5	O	-1.142223	0.128042	-0.128707
O6	O	-1.318945	0.055836	-0.139762
O7	O	-1.190724	0.161246	0.030978
O8	O	-1.093771	-0.014847	-0.095542
O9	O	-1.318881	0.139008	-0.056614
O10	O	-1.190873	-0.031696	-0.161909
O11	O	-1.093686	0.094924	0.014197
O12	O	-0.965555	0.117100	-0.117662
O13	O	-1.093668	0.177987	-0.288381
O14	O	-0.965511	0.200225	-0.200789
O15	O	-1.190815	0.078013	-0.271621
O16	O	-1.190665	0.270955	-0.078734
O17	O	-1.093583	0.287758	-0.178641
C18	C	-0.936852	0.163633	-0.164179
C19	C	-0.848994	0.178876	-0.179371
C20	C	-0.725158	0.243697	-0.243988
C21	C	-0.807715	0.229369	-0.229708
C22	C	-0.807725	0.142687	-0.143296
C23	C	-0.725167	0.157004	-0.157571
C24	C	-0.683890	0.207511	-0.207917
C25	C	-0.683899	0.120818	-0.121500
C26	C	-0.601348	0.135138	-0.135772
C27	C	-0.560065	0.185643	-0.186114
C28	C	-0.601339	0.221830	-0.222189
C29	C	-0.725177	0.070316	-0.071151
C30	C	-0.683909	0.034130	-0.035080
C31	C	-0.601356	0.048446	-0.049355
C32	C	-0.560074	0.098951	-0.099697
C33	C	-0.560082	0.012259	-0.013281
C34	C	-0.477531	0.026578	-0.027552
C35	C	-0.477523	0.113270	-0.113969
C36	C	-1.142129	0.303915	-0.128696
C37	C	-1.142162	0.379141	-0.128701
C38	C	-0.348396	0.092312	-0.093090
C39	C	-0.436254	0.077084	-0.077898
C40	C	-1.192761	0.405705	-0.076718
C41	C	-1.192792	0.476388	-0.076729
C42	C	-1.142220	0.520507	-0.128723
C43	C	-1.091619	0.493938	-0.180711
C44	C	-1.091592	0.423255	-0.180702
C45	C	-1.091728	0.778992	-0.180752
C46	C	-1.091757	0.849679	-0.180756
C47	C	-1.192928	0.832125	-0.076779
C48	C	-1.192901	0.761443	-0.076770
C49	C	-1.142303	0.734879	-0.128760
C50	C	-1.142271	0.658237	-0.128747
C51	C	-1.142248	0.597149	-0.128733
C52	C	-1.142244	0.127993	-0.305246
C53	C	-1.142253	0.127972	-0.380476
C54	C	-1.142332	0.951481	-0.128738
C55	C	-1.142361	0.876244	-0.128775
C56	C	-1.192906	0.162377	-0.833506
C57	C	-1.192884	0.162399	-0.762821
C58	C	-1.142351	0.127879	-0.736221
C59	C	-1.091832	0.093340	-0.780311
C60	C	-1.091850	0.093322	-0.850995
C61	C	-1.091755	0.093411	-0.495251
C62	C	-1.091743	0.093429	-0.424561
C63	C	-1.192789	0.162488	-0.407077
C64	C	-1.192807	0.162470	-0.477761
C65	C	-1.142285	0.127935	-0.521845
C66	C	-1.142309	0.127912	-0.598490
C67	C	-1.142331	0.127897	-0.659578
C68	C	-1.142247	0.128035	0.047153
C69	C	-1.142392	0.127839	0.122410
H70	H	-0.792395	0.058660	-0.059532
C71	C	-0.675625	-0.050116	0.048911
C72	C	-0.729284	-0.021381	0.020263
H73	H	-0.703638	-0.084383	0.083082
H74	H	-0.643455	-0.070389	0.013812
H75	H	-0.643400	-0.015064	0.069279
H76	H	-0.761506	-0.056432	-0.000109
H77	H	-0.761468	-0.001108	0.055369
H78	H	-1.233924	0.190611	-0.371175
C79	C	-1.231331	0.270348	-0.734392
C80	C	-1.248420	0.200358	-0.714367
H81	H	-1.265624	0.293781	-0.704480
H82	H	-1.178222	0.289463	-0.731976
H83	H	-1.238572	0.275265	-0.780297
H84	H	-1.241173	0.195441	-0.668462
H85	H	-1.301542	0.181238	-0.716776
H86	H	-1.234059	0.190483	-0.855157
C87	C	-0.900505	0.304339	-0.222907
C88	C	-0.853075	0.269151	-0.269363
H89	H	-0.928503	0.328902	-0.247389
H90	H	-0.936903	0.272212	-0.190892
H91	H	-0.868271	0.335776	-0.198943
H92	H	-0.885310	0.237710	-0.293324
H93	H	-0.816672	0.301281	-0.301391
H94	H	-1.234079	0.725523	-0.034430
C95	C	-0.485825	-0.060557	0.059293
C96	C	-0.432163	-0.013200	0.012093
H97	H	-0.457815	-0.085115	0.083767
H98	H	-0.518000	-0.036685	0.090801
H99	H	-0.518046	-0.091996	0.035319
H100	H	-0.399946	0.018243	0.036068
H101	H	-0.399975	-0.037073	-0.019419
C102	C	-1.292773	0.395460	0.026059
C103	C	-1.248352	0.357213	-0.019564
H104	H	-1.327097	0.365522	0.061341
H105	H	-1.258365	0.429036	0.046023
H106	H	-1.322992	0.417751	0.001754
H107	H	-1.218127	0.334927	0.004741
H108	H	-1.282763	0.323625	-0.039529
H109	H	-1.050390	0.401628	-0.223033
C110	C	-0.957754	0.538973	-0.236722
C111	C	-1.036029	0.542428	-0.237867
H112	H	-0.923435	0.568905	-0.272011
H113	H	-0.946232	0.552599	-0.193236
H114	H	-0.950509	0.493071	-0.244155
H115	H	-1.043275	0.588329	-0.230429
H116	H	-1.047555	0.528806	-0.281363
C117	C	-1.299285	0.537210	-0.049160
C118	C	-1.248541	0.505503	-0.019625
H119	H	-1.333745	0.555154	-0.013914
H120	H	-1.269178	0.573646	-0.080063
H121	H	-1.329357	0.504328	-0.073522
H122	H	-1.218465	0.538386	0.004734
H123	H	-1.278652	0.469063	0.011291
H124	H	-1.234131	0.853760	-0.034448
C125	C	-0.985432	0.102429	-0.593092
C126	C	-1.036212	0.055454	-0.543696
H127	H	-0.951133	0.078996	-0.622997
H128	H	-1.015525	0.122972	-0.619056
H129	H	-0.955190	0.137170	-0.570721
H130	H	-1.066458	0.020715	-0.566067
H131	H	-1.006115	0.034900	-0.517729
C132	C	-0.991758	0.859934	-0.283552
C133	C	-1.036171	0.898175	-0.237916
H134	H	-0.957448	0.889874	-0.318839
H135	H	-0.961531	0.837646	-0.259262
H136	H	-1.026176	0.826353	-0.303512
H137	H	-1.001753	0.931753	-0.217952
H138	H	-1.066401	0.920474	-0.262210
C139	C	-1.080628	0.701386	-0.273702
C140	C	-1.036103	0.749806	-0.237897
H141	H	-1.046282	0.683371	-0.308986
H142	H	-1.110732	0.664994	-0.242743
H143	H	-1.115056	0.722958	-0.293671
H144	H	-1.001679	0.728232	-0.217924
H145	H	-1.005985	0.786204	-0.268861
H146	H	-1.233959	0.190577	-0.499414
H147	H	-1.050590	0.065317	-0.402907
H148	H	-0.443913	0.154391	-0.154972
H149	H	-1.050684	0.065236	-0.758649
C150	C	-0.958031	0.083537	-0.895891
C151	C	-1.036324	0.055355	-0.899454
H152	H	-0.923751	0.060095	-0.925805
H153	H	-0.946444	0.131014	-0.909468
H154	H	-0.950800	0.078603	-0.849984
H155	H	-1.043557	0.060294	-0.945360
H156	H	-1.047916	0.007866	-0.885881
C157	C	-0.441843	0.141789	-0.223932
C158	C	-0.469323	0.201386	-0.201808
H159	H	-0.385823	0.151511	-0.233625
H160	H	-0.460514	0.106540	-0.188787
H161	H	-0.460546	0.126906	-0.264398
H162	H	-0.450624	0.216266	-0.161338
H163	H	-0.450644	0.236646	-0.236956
H164	H	-0.567729	0.262950	-0.263192
H165	H	-0.691548	0.284817	-0.284991
H166	H	-0.841344	0.101567	-0.102303
H167	H	-0.593702	-0.028858	0.027716
