data_functionalizedCrystal
_audit_creation_method	'MofGen! by Chris Wilmer'
_symmetry_space_group_name_H-M	'P1'
_symmetry_Int_Tables_number	1
_symmetry_cell_setting	triclinic
loop_
_symmetry_equiv_pos_as_xyz
  x,y,z
_cell_length_a	10.654562
_cell_length_b	10.654550
_cell_length_c	9.130313
_cell_angle_alpha	89.999890
_cell_angle_beta	89.996930
_cell_angle_gamma	84.487503
loop_
_atom_site_label
_atom_site_type_symbol
_atom_site_fract_x
_atom_site_fract_y
_atom_site_fract_z
O1	O	1.667825	0.176469	-0.121892
O2	O	1.302348	0.193259	-0.121873
O3	O	1.493490	0.002125	-0.121877
O4	O	1.476683	0.367603	-0.121887
O5	O	1.493487	0.002130	0.121721
O6	O	1.302346	0.193264	0.121726
O7	O	1.667822	0.176474	0.121707
Cu8	Cu	1.485084	0.184869	0.143959
Cu9	Cu	1.485087	0.184863	-0.144125
O10	O	1.476681	0.367608	0.121711
C11	C	1.255549	0.192025	-0.000071
C12	C	1.116107	0.188327	-0.000064
C13	C	1.050575	0.186605	0.132710
C14	C	0.919553	0.183140	0.132686
C15	C	0.919605	0.183125	-0.132899
C16	C	1.050626	0.186580	-0.132873
C17	C	1.050543	0.186619	0.286044
C18	C	0.919521	0.183154	0.286019
C19	C	1.492254	-0.044671	-0.000080
C20	C	1.488563	-0.184114	-0.000085
C21	C	1.601103	-0.263595	-0.000086
C22	C	1.597627	-0.394615	-0.000096
C23	C	1.369059	-0.366662	-0.000097
C24	C	1.372537	-0.235644	-0.000098
C25	C	1.717129	-0.212064	-0.000073
C26	C	1.829680	-0.291546	-0.000072
C27	C	1.826203	-0.422567	-0.000083
C28	C	1.710176	-0.474106	-0.000093
C29	C	1.714621	0.177708	-0.000098
C30	C	1.854064	0.181406	-0.000115
C31	C	1.477916	0.414403	-0.000090
C32	C	1.481608	0.553847	-0.000094
N33	N	1.485091	0.184873	0.346582
N34	N	1.485089	0.184850	-0.346748
C35	C	1.569750	0.100268	0.423232
C36	C	1.569747	0.100253	0.576568
C37	C	1.400421	0.269459	0.576592
C38	C	1.400419	0.269467	0.423258
C39	C	1.667513	0.002582	0.423219
C40	C	1.667510	0.002567	0.576556
H41	H	0.866275	0.181703	-0.241027
H42	H	0.873234	0.269952	0.344882
O43	O	1.309108	0.360708	0.659290
H44	H	1.323336	0.346496	0.778791
O45	O	1.251154	-0.149910	-0.000091
H46	H	1.247278	-0.089544	0.099191
H47	H	1.331472	0.338348	0.360850
H48	H	1.764021	0.024090	0.618167
H49	H	1.096802	0.099826	0.344929
O50	O	1.639097	-0.125275	0.368072
H51	H	1.625174	-0.187876	0.462677
O52	O	1.627091	-0.118265	0.639553
H53	H	1.628744	-0.113288	0.760957
O54	O	1.706427	-0.615423	-0.000110
H55	H	1.656166	-0.643936	0.099174
O56	O	1.788304	0.043079	0.360209
H57	H	1.801100	0.140093	0.397817
O58	O	1.121315	0.188426	-0.276077
H59	H	1.053766	0.186643	-0.368426
H60	H	1.080117	0.278215	0.333618
O61	O	1.243926	-0.422254	-0.000094
H62	H	1.166251	-0.344973	-0.000104
H63	H	0.889932	0.091561	0.333601
H64	H	1.719973	-0.105382	-0.000060
H65	H	1.924144	-0.249574	-0.000101
H66	H	1.917847	-0.487279	-0.000097
