data_functionalizedCrystal
_audit_creation_method	'MofGen! by Chris Wilmer'
_symmetry_space_group_name_H-M	'P1'
_symmetry_Int_Tables_number	1
_symmetry_cell_setting	triclinic
loop_
_symmetry_equiv_pos_as_xyz
  x,y,z
_cell_length_a	16.109301
_cell_length_b	14.586319
_cell_length_c	9.065218
_cell_angle_alpha	89.998049
_cell_angle_beta	95.761317
_cell_angle_gamma	90.000787
loop_
_atom_site_label
_atom_site_type_symbol
_atom_site_fract_x
_atom_site_fract_y
_atom_site_fract_z
O1	O	1.104588	0.076179	-0.189628
O2	O	0.862707	0.076193	-0.213227
O3	O	0.988647	0.076183	0.013335
O4	O	0.978648	0.076188	-0.416191
O5	O	0.988638	-0.076297	0.013339
O6	O	0.862698	-0.076288	-0.213224
O7	O	1.104579	-0.076302	-0.189625
Cu8	Cu	0.983638	-0.090218	-0.201424
Cu9	Cu	0.983648	0.090108	-0.201428
O10	O	0.978639	-0.076293	-0.416188
C11	C	0.831720	-0.000046	-0.212270
C12	C	0.739403	-0.000040	-0.209404
N13	N	0.983636	-0.217050	-0.201421
C14	C	0.518112	-0.000050	-0.337178
C15	C	0.431371	-0.000056	-0.334474
C16	C	0.449180	-0.000055	-0.065664
C17	C	0.535920	-0.000055	-0.068370
C18	C	0.570383	-0.000048	-0.204131
C19	C	0.396903	-0.000053	-0.198721
C20	C	0.302854	-0.000060	-0.195788
C21	C	0.664438	-0.000043	-0.207065
C22	C	1.039422	-0.452060	-0.101132
C23	C	1.039424	-0.548041	-0.101129
C24	C	0.927865	-0.548043	-0.301714
C25	C	0.927859	-0.452063	-0.301709
C26	C	0.983642	-0.404074	-0.201420
C27	C	0.983650	-0.596035	-0.201421
C28	C	0.983652	-0.700102	-0.201418
C29	C	0.983639	-0.300001	-0.201421
C30	C	1.135565	-0.000062	-0.190583
C31	C	1.227883	-0.000061	-0.193449
C32	C	0.987682	-0.000055	0.068300
C33	C	0.984808	-0.000051	0.232074
N34	N	0.983656	0.216940	-0.201420
C35	C	0.979604	-0.000052	-0.471153
C36	C	0.982478	-0.000051	-0.634926
H37	H	0.546169	-0.000051	-0.447723
H38	H	0.388815	-0.000059	-0.442814
H39	H	0.421109	-0.000066	0.044868
H40	H	0.578481	-0.000056	0.039979
C41	C	1.149685	-0.461703	0.097149
C42	C	1.100729	-0.399310	0.009117
H43	H	1.187529	-0.429137	0.165221
H44	H	1.180054	-0.499130	0.035724
H45	H	1.114670	-0.499146	0.150222
H46	H	1.135744	-0.361871	-0.043965
H47	H	1.070357	-0.361867	0.070550
C48	C	0.814974	-0.655999	-0.333677
C49	C	0.866558	-0.600800	-0.411955
H50	H	0.777131	-0.688572	-0.401741
H51	H	0.784604	-0.618563	-0.272267
H52	H	0.848207	-0.698310	-0.273953
H53	H	0.833326	-0.558485	-0.471670
H54	H	0.896930	-0.638240	-0.473390
C55	C	1.088963	-0.695168	-0.012059
C56	C	1.100738	-0.600789	0.009110
H57	H	1.126814	-0.727729	0.056010
H58	H	1.098734	-0.710891	-0.110512
H59	H	1.033356	-0.710891	0.003996
H60	H	1.156344	-0.585064	-0.006956
H61	H	1.090974	-0.585059	0.107587
C62	C	0.817590	-0.461698	-0.499999
C63	C	0.866544	-0.399310	-0.411958
H64	H	0.779741	-0.429128	-0.568060
H65	H	0.787225	-0.499137	-0.438579
H66	H	0.852605	-0.499129	-0.553085
H67	H	0.831529	-0.361883	-0.358863
H68	H	0.896910	-0.361855	-0.473386
