data_functionalizedCrystal
_audit_creation_method	'MofGen! by Chris Wilmer'
_symmetry_space_group_name_H-M	'P1'
_symmetry_Int_Tables_number	1
_symmetry_cell_setting	triclinic
loop_
_symmetry_equiv_pos_as_xyz
  x,y,z
_cell_length_a	8.559649
_cell_length_b	19.188930
_cell_length_c	7.088929
_cell_angle_alpha	83.792352
_cell_angle_beta	95.325015
_cell_angle_gamma	76.461723
loop_
_atom_site_label
_atom_site_type_symbol
_atom_site_fract_x
_atom_site_fract_y
_atom_site_fract_z
O1	O	2.103838	-0.015637	-0.158953
O2	O	1.638380	0.020435	-0.158972
O3	O	1.884545	-0.099961	-0.158924
O4	O	1.857673	0.104759	-0.159000
O5	O	1.917443	-0.116083	0.159057
O6	O	1.671278	0.004313	0.159009
O7	O	2.136736	-0.031759	0.159029
Cu8	Cu	1.907011	-0.015195	0.188053
Cu9	Cu	1.868105	0.003871	-0.187997
O10	O	1.890571	0.088637	0.158981
C11	C	1.595280	0.015108	0.000017
C12	C	1.417842	0.023245	0.000011
C13	C	1.900125	-0.133987	0.000072
C14	C	1.897515	-0.211356	0.000088
C15	C	2.041955	-0.263833	0.000103
C16	C	2.039498	-0.336527	0.000073
C17	C	1.892597	-0.356742	0.000065
C18	C	1.748137	-0.304254	0.000039
C19	C	1.750596	-0.231561	0.000050
N20	N	1.791505	-0.464363	0.108275
N21	N	1.789179	-0.533419	0.108268
C22	C	1.885180	-0.575761	0.000026
N23	N	1.983621	-0.546442	-0.108185
N24	N	1.985952	-0.477380	-0.108170
C25	C	1.889915	-0.435564	0.000051
C26	C	2.026966	-0.707062	0.000005
C27	C	2.024502	-0.779756	-0.000037
C28	C	1.733139	-0.747483	-0.000052
C29	C	1.735605	-0.674789	-0.000028
C30	C	1.882524	-0.654585	0.000009
C31	C	2.179836	-0.026431	0.000036
C32	C	2.357272	-0.034568	0.000029
C33	C	1.874991	0.122664	-0.000019
C34	C	1.877599	0.200034	-0.000048
N35	N	1.934386	-0.028606	0.452547
N36	N	1.840742	0.017276	-0.452490
H37	H	1.333944	0.078971	-0.000020
C38	C	1.711518	0.080774	0.438733
C39	C	1.742187	0.145547	0.487221
C40	C	1.623191	0.204057	0.387022
H41	H	1.608141	0.077405	0.471381
H42	H	1.713392	0.079901	0.305208
H43	H	1.740297	0.146420	0.620715
H44	H	1.845542	0.148940	0.454567
H45	H	1.625065	0.203184	0.253498
H46	H	1.519822	0.200681	0.419679
H47	H	1.643992	0.248012	0.419894
H48	H	1.441159	-0.090289	0.000040
H49	H	1.628528	-0.320718	0.000029
C50	C	2.201471	-0.241920	-0.000269
C51	C	2.271817	-0.261020	-0.163882
C52	C	2.418753	-0.240836	-0.164305
H53	H	2.272571	-0.266079	0.110492
H54	H	2.182316	-0.191107	-0.000368
H55	H	2.290979	-0.311824	-0.163765
H56	H	2.200763	-0.236863	-0.274669
H57	H	2.399598	-0.190022	-0.164404
H58	H	2.489839	-0.264996	-0.053537
H59	H	2.466494	-0.253785	-0.275322
H60	H	2.157122	-0.379261	0.000077
C61	C	2.186471	-0.685137	-0.000384
C62	C	2.256803	-0.704226	-0.164013
C63	C	2.403726	-0.684032	-0.164456
H64	H	2.257586	-0.709295	0.110366
H65	H	2.167302	-0.634323	-0.000474
H66	H	2.275978	-0.755030	-0.163906
H67	H	2.185733	-0.680070	-0.274790
H68	H	2.384557	-0.633218	-0.164546
H69	H	2.474827	-0.708191	-0.053698
H70	H	2.451457	-0.696975	-0.275484
C71	C	1.578789	-0.617760	-0.000417
C72	C	1.554742	-0.566789	-0.164030
C73	C	1.410282	-0.514248	-0.164474
H74	H	1.584994	-0.594280	0.110344
H75	H	1.490891	-0.640178	-0.000529
H76	H	1.642618	-0.544373	-0.163900
H77	H	1.548507	-0.590247	-0.274817
H78	H	1.322383	-0.536665	-0.164586
H79	H	1.416501	-0.490774	-0.053706
H80	H	1.393939	-0.479662	-0.275491
C81	C	2.064055	-0.091940	0.561330
C82	C	2.216111	-0.086644	0.512776
C83	C	2.335597	-0.144968	0.612966
H84	H	2.043732	-0.136003	0.528719
H85	H	2.062301	-0.091024	0.694856
H86	H	2.217862	-0.087566	0.379280
H87	H	2.236486	-0.042593	0.545392
H88	H	2.333843	-0.144052	0.746492
H89	H	2.315259	-0.189027	0.580347
H90	H	2.438782	-0.141379	0.580050
H91	H	1.632971	-0.188832	0.000039
H92	H	2.142127	-0.822484	-0.000035
H93	H	1.613528	-0.763940	-0.000067
