data_functionalizedCrystal
_audit_creation_method	'MofGen! by Chris Wilmer'
_symmetry_space_group_name_H-M	'P1'
_symmetry_Int_Tables_number	1
_symmetry_cell_setting	triclinic
loop_
_symmetry_equiv_pos_as_xyz
  x,y,z
_cell_length_a	19.188930
_cell_length_b	16.109301
_cell_length_c	15.186229
_cell_angle_alpha	90.000638
_cell_angle_beta	89.991143
_cell_angle_gamma	96.696869
loop_
_atom_site_label
_atom_site_type_symbol
_atom_site_fract_x
_atom_site_fract_y
_atom_site_fract_z
O1	O	0.089744	-1.102833	-0.073183
O2	O	0.589744	-0.602833	0.426817
O3	O	0.100912	-0.860734	-0.073198
O4	O	0.600912	-0.360734	0.426802
O5	O	-0.006311	-0.988770	-0.073173
O6	O	0.493689	-0.488770	0.426827
O7	O	0.196967	-0.974797	-0.073208
O8	O	0.696967	-0.474797	0.426792
O9	O	-0.006313	-0.988762	0.073284
O10	O	0.493687	-0.488762	0.573284
O11	O	0.100911	-0.860726	0.073259
O12	O	0.600911	-0.360726	0.573259
O13	O	0.089742	-1.102825	0.073274
O14	O	0.589742	-0.602825	0.573274
Zn15	Zn	0.095326	-0.981774	0.096520
Zn16	Zn	0.595326	-0.481774	0.596520
Zn17	Zn	0.095328	-0.981785	-0.096444
Zn18	Zn	0.595328	-0.481785	0.403556
O19	O	0.196966	-0.974789	0.073249
O20	O	0.696966	-0.474789	0.573249
C21	C	0.100459	-0.829757	0.000029
C22	C	0.600459	-0.329757	0.500029
C23	C	0.099103	-0.737466	0.000024
C24	C	0.599103	-0.237466	0.500024
C25	C	-0.032324	-0.988313	0.000058
C26	C	0.467676	-0.488313	0.500058
C27	C	-0.109832	-0.986955	0.000066
C28	C	0.390168	-0.486955	0.500066
N29	N	0.095325	-0.981772	0.228213
N30	N	0.595325	-0.481772	0.728213
C31	C	-0.154580	-1.062082	0.000075
C32	C	0.345420	-0.562082	0.500075
C33	C	-0.227407	-1.060806	0.000060
C34	C	0.272593	-0.560806	0.500060
C35	C	-0.255482	-0.984399	0.000055
C36	C	0.244518	-0.484399	0.500055
C37	C	-0.210724	-0.909261	0.000041
C38	C	0.289276	-0.409261	0.500041
C39	C	-0.137899	-0.910540	0.000046
C40	C	0.362101	-0.410540	0.500046
N41	N	-0.363624	-0.925991	0.049893
N42	N	0.136376	-0.425991	0.549893
N43	N	-0.432805	-0.924782	0.049890
N44	N	0.067195	-0.424782	0.549890
C45	C	-0.474900	-0.980543	0.000037
C46	C	0.025100	-0.480543	0.500037
N47	N	-0.445200	-1.037571	-0.049802
N48	N	0.054800	-0.537571	0.450198
N49	N	-0.376013	-1.038783	-0.049795
N50	N	0.123987	-0.538783	0.450205
C51	C	-0.334448	-0.983004	0.000049
C52	C	0.165552	-0.483004	0.500049
C53	C	-0.598616	-1.054292	0.000029
C54	C	-0.098616	-0.554292	0.500029
C55	C	-0.671443	-1.053012	0.000010
C56	C	-0.171443	-0.553012	0.500010
C57	C	-0.654759	-0.901465	-0.000001
C58	C	-0.154759	-0.401465	0.499999
C59	C	-0.581933	-0.902747	0.000010
C60	C	-0.081933	-0.402747	0.500010
C61	C	-0.553866	-0.979162	0.000029
C62	C	-0.053866	-0.479162	0.500029
C63	C	0.222979	-0.975246	0.000016
C64	C	0.722979	-0.475246	0.500016
C65	C	0.300486	-0.976604	0.000003
C66	C	0.800486	-0.476604	0.500003
C67	C	0.090196	-1.133802	0.000045
C68	C	0.590196	-0.633802	0.500045
C69	C	0.091552	-1.226093	0.000045
C70	C	0.591552	-0.726093	0.500045
C71	C	0.159573	-0.514993	0.000023
C72	C	0.659573	-0.014993	0.500023
C73	C	0.158294	-0.428277	0.000029
C74	C	0.658294	0.071723	0.500029
C75	C	0.031076	-0.448573	0.000048
C76	C	0.531076	0.051427	0.500048
C77	C	0.032357	-0.535287	0.000048
C78	C	0.532357	-0.035287	0.500048
C79	C	0.096608	-0.568495	0.000031
C80	C	0.596608	-0.068495	0.500031
C81	C	0.094047	-0.395064	0.000037
C82	C	0.594047	0.104936	0.500037
C83	C	0.092659	-0.301043	0.000043
C84	C	0.592659	0.198957	0.500043
C85	C	0.097996	-0.662522	0.000027
C86	C	0.597996	-0.162522	0.500027
N87	N	0.095325	-0.981793	-0.228137
N88	N	0.595325	-0.481793	0.271863
C89	C	0.047862	-1.038486	0.453947
C90	C	0.547862	-0.538486	0.953947
C91	C	0.047860	-1.038488	0.546136
C92	C	0.547860	-0.538488	1.046136
C93	C	0.142790	-0.925074	0.546123
C94	C	0.642790	-0.425074	1.046123
C95	C	0.142787	-0.925068	0.453935
C96	C	0.642787	-0.425068	0.953935
C97	C	0.095324	-0.981779	0.407849
C98	C	0.595324	-0.481779	0.907849
C99	C	0.095325	-0.981787	0.592227
C100	C	0.595325	-0.481787	1.092227
C101	C	0.095323	-0.981790	0.692183
C102	C	0.595323	-0.481790	1.192183
C103	C	0.095325	-0.981775	0.307887
C104	C	0.595325	-0.481775	0.807887
H105	H	-0.263848	-1.121986	0.000064
H106	H	0.236152	-0.621986	0.500064
H107	H	-0.233587	-0.847050	0.000035
H108	H	0.266413	-0.347050	0.500035
O109	O	0.219413	-0.376222	-0.000101
O110	O	0.719413	0.123778	0.499899
C111	C	0.222488	-0.325470	-0.075964
C112	C	0.722488	0.174530	0.424036
H113	H	0.167070	-0.321286	-0.101239
H114	H	0.667070	0.178714	0.398761
H115	H	0.254368	-0.353883	-0.129085
H116	H	0.754368	0.146117	0.370915
C117	C	0.325706	-0.242438	-0.021884
C118	C	0.825706	0.257562	0.478116
C119	C	0.257640	-0.237294	-0.052924
C120	C	0.757640	0.262706	0.447076
H121	H	0.347393	-0.188048	-0.007675
H122	H	0.847393	0.311952	0.492325
H123	H	0.323637	-0.276632	0.029224
H124	H	0.823637	0.223368	0.529224
H125	H	0.352265	-0.266119	-0.066158
H126	H	0.852265	0.233881	0.433842
H127	H	0.231081	-0.213623	-0.008647
H128	H	0.731081	0.286377	0.491353
H129	H	0.259706	-0.203093	-0.104025
H130	H	0.759706	0.296907	0.395975
H131	H	0.009214	-1.084662	0.416426
H132	H	0.509214	-0.584662	0.916426
O133	O	-0.094526	-0.837481	0.000081
O134	O	0.405474	-0.337481	0.500081
C135	C	-0.134917	-0.769764	0.000046
C136	C	0.365083	-0.269764	0.500046
H137	H	-0.189281	-0.791062	0.027768
H138	H	0.310719	-0.291062	0.527768
H139	H	-0.140083	-0.746336	-0.070220
H140	H	0.359917	-0.246336	0.429780
C141	C	-0.031855	-0.672515	0.023430
C142	C	0.468145	-0.172515	0.523430
C143	C	-0.098623	-0.698671	0.057486
C144	C	0.401377	-0.198671	0.557486
H145	H	-0.009466	-0.628659	0.058858
H146	H	0.490534	-0.128659	0.558858
H147	H	-0.004641	-0.718136	0.023451
H148	H	0.495359	-0.218136	0.523451
H149	H	-0.036168	-0.652997	-0.035125
H150	H	0.463832	-0.152997	0.464875
H151	H	-0.094308	-0.718198	0.116035
H152	H	0.405692	-0.218198	0.616035
H153	H	-0.125835	-0.653051	0.057476
H154	H	0.374165	-0.153051	0.557476
O155	O	0.188871	-0.870074	0.591029
O156	O	0.688871	-0.370074	1.091029
C157	C	0.178686	-0.882225	0.682282
C158	C	0.678686	-0.382225	1.182282
H159	H	0.152606	-0.948418	0.694873
H160	H	0.652606	-0.448418	1.194873
H161	H	0.143659	-0.835298	0.708458
H162	H	0.643659	-0.335298	1.208458
C163	C	0.282142	-0.788176	0.714129
C164	C	0.782142	-0.288176	1.214129
C165	C	0.250115	-0.869477	0.729594
C166	C	0.750115	-0.369477	1.229594
H167	H	0.326201	-0.780308	0.743315
H168	H	0.826201	-0.280308	1.243315
H169	H	0.289003	-0.779986	0.652651
H170	H	0.789003	-0.279986	1.152651
H171	H	0.252945	-0.749079	0.735943
H172	H	0.752945	-0.249079	1.235943
H173	H	0.279307	-0.908572	0.707771
H174	H	0.779307	-0.408572	1.207771
H175	H	0.243261	-0.877673	0.791071
H176	H	0.743261	-0.377673	1.291071
H177	H	-0.021234	-0.421524	0.000066
H178	H	0.478766	0.078476	0.500066
H179	H	0.181437	-0.878886	0.416400
H180	H	0.681437	-0.378886	0.916400
H181	H	-0.131733	-1.124306	0.000087
H182	H	0.368267	-0.624306	0.500087
H183	H	-0.575763	-1.116514	0.000041
H184	H	-0.075763	-0.616514	0.500041
H185	H	-0.677617	-0.839253	-0.000010
H186	H	-0.177617	-0.339253	0.499990
H187	H	-0.707878	-1.114193	0.000012
H188	H	-0.207878	-0.614193	0.500012
H189	H	-0.018920	-0.578851	0.000057
H190	H	0.481080	-0.078851	0.500057
H191	H	-0.545497	-0.841570	0.000008
H192	H	-0.045497	-0.341570	0.500008
H193	H	0.211890	-0.542027	0.000016
H194	H	0.711890	-0.042027	0.500016
O195	O	0.001730	-1.093656	0.590778
O196	O	0.501730	-0.593656	1.090778
C197	C	-0.040172	-1.143690	0.530330
C198	C	0.459828	-0.643690	1.030330
H199	H	-0.011544	-1.144520	0.464610
H200	H	0.488456	-0.644520	0.964610
H201	H	-0.092046	-1.116887	0.520536
H202	H	0.407954	-0.616887	1.020536
C203	C	-0.089701	-1.232411	0.647023
C204	C	0.410299	-0.732411	1.147023
C205	C	-0.054537	-1.233436	0.566307
C206	C	0.445463	-0.733436	1.066307
H207	H	-0.098565	-1.287769	0.669216
H208	H	0.401435	-0.787769	1.169216
H209	H	-0.061473	-1.198700	0.687750
H210	H	0.438527	-0.698700	1.187750
H211	H	-0.132925	-1.210071	0.638851
H212	H	0.367075	-0.710071	1.138851
H213	H	-0.011310	-1.255765	0.574482
H214	H	0.488690	-0.755765	1.074482
H215	H	-0.082758	-1.267152	0.525582
H216	H	0.417242	-0.767152	1.025582
