data_functionalizedCrystal
_audit_creation_method	'MofGen! by Chris Wilmer'
_symmetry_space_group_name_H-M	'P1'
_symmetry_Int_Tables_number	1
_symmetry_cell_setting	triclinic
loop_
_symmetry_equiv_pos_as_xyz
  x,y,z
_cell_length_a	10.489741
_cell_length_b	16.109301
_cell_length_c	15.186229
_cell_angle_alpha	90.005167
_cell_angle_beta	89.994657
_cell_angle_gamma	95.999673
loop_
_atom_site_label
_atom_site_type_symbol
_atom_site_fract_x
_atom_site_fract_y
_atom_site_fract_z
O1	O	1.692350	-0.117298	-0.073273
O2	O	2.192350	0.382702	0.426727
O3	O	1.320995	-0.128308	-0.073266
O4	O	1.820995	0.371692	0.426734
O5	O	1.516874	-0.001835	-0.073260
O6	O	2.016874	0.498165	0.426740
O7	O	1.496471	-0.243771	-0.073278
O8	O	1.996471	0.256229	0.426722
O9	O	1.516861	-0.001833	0.073197
O10	O	2.016861	0.498167	0.573197
O11	O	1.320981	-0.128306	0.073192
O12	O	1.820981	0.371694	0.573192
O13	O	1.692337	-0.117296	0.073185
O14	O	2.192337	0.382704	0.573185
Zn15	Zn	1.506657	-0.122801	0.096441
Zn16	Zn	2.006657	0.377199	0.596441
Zn17	Zn	1.506674	-0.122803	-0.096522
Zn18	Zn	2.006674	0.377197	0.403478
O19	O	1.496458	-0.243769	0.073179
O20	O	1.996458	0.256231	0.573179
C21	C	1.516041	0.029146	-0.000031
C22	C	2.016041	0.529146	0.499969
C23	C	1.513563	0.121457	-0.000030
C24	C	2.013563	0.621457	0.499970
C25	C	1.273468	-0.127475	-0.000036
C26	C	1.773468	0.372525	0.499964
C27	C	1.131875	-0.124987	-0.000033
C28	C	1.631875	0.375013	0.499967
C29	C	1.739863	-0.118128	-0.000047
C30	C	2.239863	0.381872	0.499953
C31	C	1.881456	-0.120616	-0.000056
C32	C	2.381456	0.379384	0.499944
C33	C	1.948429	-0.201087	-0.000052
C34	C	2.448429	0.298913	0.499948
C35	C	2.041114	-0.163075	-0.072257
C36	C	2.541114	0.336925	0.427743
C37	C	2.041067	-0.163054	0.072138
C38	C	2.541067	0.336946	0.572138
C39	C	1.972276	-0.082570	-0.072321
C40	C	2.472276	0.417430	0.427679
C41	C	1.972220	-0.082560	0.072140
C42	C	2.472220	0.417440	0.572140
C43	C	2.064878	-0.044489	-0.000083
C44	C	2.564878	0.455511	0.499917
C45	C	1.497291	-0.274750	-0.000052
C46	C	1.997291	0.225250	0.499948
C47	C	1.499769	-0.367060	-0.000059
C48	C	1.999769	0.132940	0.499941
N49	N	1.506655	-0.122798	0.228134
N50	N	2.006655	0.377202	0.728134
C51	C	1.624032	0.343048	-0.000046
C52	C	2.124032	0.843048	0.499954
C53	C	1.621694	0.429783	-0.000053
C54	C	2.121694	0.929783	0.499947
C55	C	1.389290	0.411341	-0.000045
C56	C	1.889290	0.911341	0.499955
C57	C	1.391630	0.324608	-0.000045
C58	C	1.891630	0.824608	0.499955
C59	C	1.509004	0.290464	-0.000040
C60	C	2.009004	0.790464	0.499960
C61	C	1.504327	0.463932	-0.000049
C62	C	2.004327	0.963932	0.499951
C63	C	1.501791	0.557974	-0.000056
C64	C	2.001791	1.057974	0.499944
C65	C	1.511541	0.196417	-0.000034
C66	C	2.011541	0.696417	0.499966
N67	N	1.506687	-0.122799	-0.228215
N68	N	2.006687	0.377201	0.271785
C69	C	1.593419	-0.066815	0.453859
C70	C	2.093419	0.433185	0.953859
C71	C	1.593423	-0.066813	0.546049
C72	C	2.093423	0.433187	1.046049
C73	C	1.419913	-0.178784	0.546053
C74	C	1.919913	0.321216	1.046053
C75	C	1.419904	-0.178782	0.453865
C76	C	1.919904	0.321218	0.953865
C77	C	1.506664	-0.122798	0.407771
C78	C	2.006664	0.377202	0.907771
C79	C	1.506677	-0.122799	0.592148
C80	C	2.006677	0.377201	1.092148
C81	C	1.506681	-0.122797	0.692104
C82	C	2.006681	0.377203	1.192104
C83	C	1.506659	-0.122799	0.307808
C84	C	2.006659	0.377201	0.807808
H85	H	1.897820	-0.267251	-0.000130
H86	H	2.397820	0.232749	0.499870
H87	H	1.293728	0.439152	-0.000047
H88	H	1.793728	0.939152	0.499953
H89	H	1.349276	-0.224366	0.583593
H90	H	1.849276	0.275634	1.083593
O91	O	1.931746	-0.037490	0.153012
O92	O	2.431746	0.462510	0.653012
H93	H	1.884724	0.018073	0.132699
H94	H	2.384724	0.518073	0.632699
H95	H	2.071646	-0.197126	-0.133305
H96	H	2.571646	0.302874	0.366695
O97	O	2.131630	0.043227	-0.000087
O98	O	2.631630	0.543227	0.499913
H99	H	2.102760	0.076797	0.059313
H100	H	2.602760	0.576797	0.559313
H101	H	1.719606	0.315251	-0.000045
H102	H	2.219606	0.815251	0.499955
H103	H	1.715362	0.472594	-0.000060
H104	H	2.215362	0.972594	0.499940
O105	O	1.267559	0.267882	-0.000029
O106	O	1.767559	0.767882	0.499971
H107	H	1.185548	0.306194	-0.000015
H108	H	1.685548	0.806194	0.499985
O109	O	1.686977	-0.006427	0.404138
O110	O	2.186977	0.493573	0.904138
H111	H	1.747293	0.032508	0.451679
H112	H	2.247293	0.532508	0.951679
O113	O	1.932110	-0.037500	-0.153272
O114	O	2.432110	0.462500	0.346728
H115	H	2.018022	-0.016931	-0.193462
H116	H	2.518022	0.483069	0.306538
H117	H	2.071544	-0.197116	0.133184
H118	H	2.571544	0.302884	0.633184
H119	H	1.664066	-0.021226	0.583572
H120	H	2.164066	0.478774	1.083572
O121	O	1.326332	-0.239168	0.404145
O122	O	1.826332	0.260832	0.904145
H123	H	1.266018	-0.278107	0.451683
H124	H	1.766018	0.221893	0.951683
