data_functionalizedCrystal
_audit_creation_method	'MofGen! by Chris Wilmer'
_symmetry_space_group_name_H-M	'P1'
_symmetry_Int_Tables_number	1
_symmetry_cell_setting	triclinic
loop_
_symmetry_equiv_pos_as_xyz
  x,y,z
_cell_length_a	18.050590
_cell_length_b	14.908178
_cell_length_c	14.908694
_cell_angle_alpha	90.159098
_cell_angle_beta	86.699464
_cell_angle_gamma	93.303973
loop_
_atom_site_label
_atom_site_type_symbol
_atom_site_fract_x
_atom_site_fract_y
_atom_site_fract_z
Zn1	Zn	1.140114	-0.387556	-0.487337
Zn2	Zn	1.640114	0.112444	0.012663
Zn3	Zn	1.125753	-0.529264	-0.328301
Zn4	Zn	1.625753	-0.029264	0.171699
Zn5	Zn	1.009197	-0.378889	-0.337038
Zn6	Zn	1.509197	0.121111	0.162962
Zn7	Zn	1.008352	-0.537854	-0.478654
Zn8	Zn	1.508352	-0.037854	0.021346
O9	O	1.070854	-0.458391	-0.407832
O10	O	1.570854	0.041609	0.092168
O11	O	1.242131	-0.406386	-0.466218
O12	O	1.742131	0.093614	0.033782
O13	O	1.104635	-0.502094	-0.203636
O14	O	1.604635	-0.002094	0.296364
O15	O	1.032928	-0.254206	-0.364266
O16	O	1.532928	0.245794	0.135734
O17	O	1.231580	-0.510498	-0.349375
O18	O	1.731580	-0.010498	0.150625
O19	O	1.129112	-0.260574	-0.474690
O20	O	1.629112	0.239426	0.025310
O21	O	1.019002	-0.391614	-0.210055
O22	O	1.519002	0.108386	0.289945
O23	O	0.905163	-0.399943	-0.355846
O24	O	1.405163	0.100057	0.144154
O25	O	1.031487	-0.525139	-0.605629
O26	O	1.531487	-0.025139	-0.105629
O27	O	0.904542	-0.516735	-0.459890
O28	O	1.404542	-0.016735	0.040110
O29	O	1.128292	-0.414716	-0.612009
O30	O	1.628292	0.085284	-0.112009
O31	O	1.103816	-0.656236	-0.340955
O32	O	1.603816	-0.156236	0.159045
O33	O	1.017561	-0.662547	-0.451418
O34	O	1.517561	-0.162547	0.048582
C35	C	0.877907	-0.458331	-0.407875
C36	C	1.377907	0.041669	0.092125
C37	C	0.795363	-0.458329	-0.407913
C38	C	1.295363	0.041671	0.092087
C39	C	1.059059	-0.692020	-0.394316
C40	C	1.559059	-0.192020	0.105684
C41	C	1.054083	-0.791969	-0.388563
C42	C	1.554083	-0.291969	0.111437
C43	C	1.144822	-0.986272	-0.492862
C44	C	1.644822	-0.486272	0.007138
C45	C	1.140149	-1.080184	-0.487460
C46	C	1.640149	-0.580184	0.012540
C47	C	1.040061	-1.073705	-0.372363
C48	C	1.540061	-0.573705	0.127637
C49	C	1.044734	-0.979794	-0.377765
C50	C	1.544734	-0.479794	0.122235
C51	C	1.097117	-0.936081	-0.438016
C52	C	1.597117	-0.436081	0.061984
C53	C	1.101793	-0.842167	-0.443412
C54	C	1.601793	-0.342167	0.056588
C55	C	1.001702	-0.835691	-0.328320
C56	C	1.501702	-0.335691	0.171680
C57	C	0.997029	-0.929602	-0.322918
C58	C	1.497029	-0.429602	0.177082
C59	C	0.595581	-0.522004	-0.464340
C60	C	1.095581	-0.022004	0.035660
C61	C	0.551287	-0.441287	-0.491197
C62	C	1.051287	0.058713	0.008803
C63	C	0.644228	-0.458377	-0.407866
C64	C	1.144228	0.041623	0.092134
C65	C	0.541438	-0.539141	-0.381004
C66	C	1.041438	-0.039141	0.118996
C67	C	0.498238	-0.458430	-0.407822
C68	C	0.998238	0.041570	0.092178
C69	C	0.601025	-0.377619	-0.434769
C70	C	1.101025	0.122381	0.065231
C71	C	0.591176	-0.475525	-0.324535
C72	C	1.091176	0.024475	0.175465
C73	C	0.546906	-0.394750	-0.351365
C74	C	1.046906	0.105250	0.148635
C75	C	0.728329	-0.458347	-0.407893
C76	C	1.228329	0.041653	0.092107
C77	C	0.414140	-0.458450	-0.407795
C78	C	0.914140	0.041550	0.092205
C79	C	1.264555	-0.458451	-0.407790
C80	C	1.764555	0.041549	0.092210
C81	C	1.347098	-0.458476	-0.407772
C82	C	1.847098	0.041524	0.092228
C83	C	1.081397	-0.471853	-0.642356
C84	C	1.581397	0.028147	-0.142356
C85	C	1.085890	-0.477589	-0.742296
C86	C	1.585890	0.022411	-0.242296
C87	C	1.082716	-0.223850	-0.421421
C88	C	1.582716	0.276150	0.078579
C89	C	1.087771	-0.123903	-0.427212
C90	C	1.587771	0.376097	0.072788
C91	C	1.005145	-0.373329	-0.936780
C92	C	1.505145	0.126671	-0.436780
C93	C	1.009364	-0.378716	-1.030683
C94	C	1.509364	0.121284	-0.530683
C95	C	1.098542	-0.493755	-1.024006
C96	C	1.598542	0.006245	-0.524006
C97	C	1.094323	-0.488368	-0.930103
C98	C	1.594323	0.011632	-0.430103
C99	C	1.047624	-0.428152	-0.886494
C100	C	1.547624	0.071848	-0.386494
C101	C	1.043409	-0.422761	-0.792589
C102	C	1.543409	0.077239	-0.292589
C103	C	1.132583	-0.537803	-0.785914
C104	C	1.632583	-0.037803	-0.285914
C105	C	1.136802	-0.543191	-0.879817
C106	C	1.636802	-0.043191	-0.379817
C107	C	1.060398	-0.444916	-0.174224
C108	C	1.560398	0.055084	0.325776
C109	C	1.056062	-0.438926	-0.074299
C110	C	1.556062	0.061074	0.425701
H111	H	1.144448	-0.806577	-0.492469
H112	H	1.644448	-0.306577	0.007531
H113	H	0.967128	-0.324291	-0.901273
H114	H	1.467128	0.175709	-0.401273
H115	H	1.136552	-0.542792	-1.059529
H116	H	1.636552	-0.042792	-0.559529
H117	H	0.974773	-0.334074	-1.071623
H118	H	1.474773	0.165926	-0.571623
H119	H	0.954378	-0.965206	-0.273866
H120	H	1.454378	-0.465206	0.226134
H121	H	1.187479	-0.950680	-0.541914
H122	H	1.687479	-0.450680	-0.041914
Cl123	Cl	0.984704	-0.347060	-0.737767
Cl124	Cl	1.484704	0.152940	-0.237767
Cl125	Cl	1.195504	-0.618889	-0.934649
Cl126	Cl	1.695504	-0.118889	-0.434649
Cl127	Cl	1.185990	-0.606726	-0.722692
Cl128	Cl	1.685990	-0.106726	-0.222692
H129	H	1.178991	-1.121047	-0.532127
H130	H	1.678991	-0.621047	-0.032127
H131	H	0.997410	-1.109313	-0.323314
H132	H	1.497410	-0.609313	0.176686
H133	H	0.962859	-0.794814	-0.283658
H134	H	1.462859	-0.294814	0.216342
H135	H	0.616973	-0.575725	-0.512159
H136	H	1.116973	-0.075725	-0.012159
H137	H	0.626943	-0.309324	-0.457549
H138	H	1.126943	0.190676	0.042451
Cl139	Cl	0.523992	-0.418916	-0.599970
Cl140	Cl	1.023992	0.081084	-0.099970
Cl141	Cl	0.514100	-0.311624	-0.277606
Cl142	Cl	1.014100	0.188376	0.222394
Cl143	Cl	0.501288	-0.644556	-0.345954
Cl144	Cl	1.001288	-0.144556	0.154046
Cl145	Cl	0.618471	-0.497916	-0.215772
Cl146	Cl	1.118471	0.002084	0.284228
