data_functionalizedCrystal
_audit_creation_method	'MofGen! by Chris Wilmer'
_symmetry_space_group_name_H-M	'P1'
_symmetry_Int_Tables_number	1
_symmetry_cell_setting	triclinic
loop_
_symmetry_equiv_pos_as_xyz
  x,y,z
_cell_length_a	23.532361
_cell_length_b	10.654541
_cell_length_c	9.130307
_cell_angle_alpha	90.003083
_cell_angle_beta	90.002768
_cell_angle_gamma	96.343202
loop_
_atom_site_label
_atom_site_type_symbol
_atom_site_fract_x
_atom_site_fract_y
_atom_site_fract_z
O1	O	0.756265	-0.152158	-0.121652
O2	O	0.590542	-0.174276	-0.121687
O3	O	0.677215	0.019645	-0.121660
O4	O	0.669593	-0.346079	-0.121679
O5	O	0.677212	0.019647	0.121939
O6	O	0.590539	-0.174274	0.121912
O7	O	0.756262	-0.152156	0.121947
Cu8	Cu	0.673400	-0.163215	0.144172
Cu9	Cu	0.673404	-0.163217	-0.143912
O10	O	0.669590	-0.346077	0.121920
C11	C	0.569320	-0.173721	0.000108
C12	C	0.506091	-0.172056	0.000095
C13	C	0.232802	-0.164773	-0.132682
C14	C	0.292212	-0.166349	-0.132686
O15	O	0.322944	-0.167122	-0.245612
N16	N	0.321921	-0.167144	0.000101
C17	C	0.292218	-0.166350	0.132899
O18	O	0.322943	-0.167170	0.245844
C19	C	0.232809	-0.164765	0.132902
C20	C	0.203102	-0.163983	0.000107
C21	C	0.203095	-0.163989	-0.265466
C22	C	0.143689	-0.162415	-0.265462
C23	C	0.113989	-0.161625	-0.132673
C24	C	0.143696	-0.162409	0.000111
C25	C	0.203108	-0.163962	0.265699
C26	C	0.143695	-0.162376	0.265689
C27	C	0.113988	-0.161593	0.132894
C28	C	0.054591	-0.160045	0.132903
N29	N	0.024882	-0.159249	0.000117
C30	C	0.054581	-0.160039	-0.132671
C31	C	0.416980	-0.169678	0.132885
C32	C	0.476386	-0.171272	0.132884
C33	C	0.476376	-0.171268	-0.132701
C34	C	0.416968	-0.169683	-0.132699
C35	C	0.387270	-0.168882	0.000098
C36	C	-0.070176	-0.156735	-0.132652
C37	C	-0.129588	-0.155166	-0.132636
C38	C	-0.129572	-0.155164	0.132948
C39	C	-0.070166	-0.156739	0.132933
C40	C	-0.040469	-0.157520	0.000121
O41	O	0.023821	-0.159266	0.245773
O42	O	0.023849	-0.159203	-0.245597
C43	C	0.676654	0.066426	0.000139
C44	C	0.674980	0.205816	0.000136
C45	C	0.777484	-0.152711	0.000149
C46	C	0.840713	-0.154376	0.000152
C47	C	0.670151	-0.392858	0.000118
C48	C	0.671824	-0.532248	0.000111
N49	N	0.673402	-0.163213	0.346795
C50	C	0.778621	0.237108	0.000176
C51	C	0.829653	0.318238	0.000199
C52	C	0.828077	0.449206	0.000194
C53	C	0.775463	0.499045	0.000162
C54	C	0.724432	0.417915	0.000139
C55	C	0.726013	0.286946	0.000148
C56	C	0.620792	0.386623	0.000088
C57	C	0.622367	0.255655	0.000103
C58	C	0.568179	0.436461	0.000056
C59	C	0.517146	0.355331	0.000043
C60	C	0.518724	0.224356	0.000050
C61	C	0.571335	0.174525	0.000080
N62	N	0.673407	-0.163209	-0.346535
C63	C	0.750182	0.008455	0.346809
C64	C	0.788576	0.094286	0.423483
C65	C	0.788582	0.094287	0.576816
C66	C	0.750189	0.008451	0.653479
C67	C	0.711795	-0.077380	0.576805
C68	C	0.711794	-0.077374	0.423468
C69	C	0.635013	-0.249040	0.576791
C70	C	0.635009	-0.249049	0.423458
C71	C	0.596619	-0.334876	0.653454
C72	C	0.558227	-0.420714	0.576781
C73	C	0.558224	-0.420713	0.423438
C74	C	0.596615	-0.334879	0.346784
H75	H	0.392784	-0.169046	-0.240833
H76	H	0.526956	-0.490602	0.361018
C77	C	0.516001	-0.515122	0.661109
H78	H	0.521504	-0.502829	0.763409
H79	H	0.477942	-0.501923	0.635980
H80	H	0.522516	-0.598868	0.635983
C81	C	0.780354	0.093048	0.000200
H82	H	0.742426	0.051868	0.000193
H83	H	0.799856	0.069183	-0.084730
H84	H	0.799842	0.069214	0.085177
H85	H	-0.046004	-0.157373	-0.240801
H86	H	0.596623	-0.334866	0.778307
H87	H	0.566900	0.543103	0.000043
H88	H	0.819844	0.164182	0.639244
H89	H	0.572625	0.067886	0.000095
H90	H	0.872489	0.277645	0.000238
C91	C	-0.162265	-0.154304	-0.278712
H92	H	-0.201901	-0.153265	-0.259701
H93	H	-0.148473	-0.081324	-0.333270
H94	H	-0.156585	-0.227811	-0.333273
C95	C	0.596612	-0.334872	0.178122
H96	H	0.624973	-0.271455	0.143452
H97	H	0.604714	-0.415045	0.143419
H98	H	0.560148	-0.318083	0.143441
C99	C	0.750180	0.008443	0.178147
H100	H	0.721819	-0.054973	0.143463
H101	H	0.742079	0.088617	0.143455
H102	H	0.786644	-0.008346	0.143468
H103	H	0.869631	0.515263	0.000202
H104	H	0.477168	0.158306	0.000025
H105	H	0.819835	0.164176	0.361050
H106	H	0.500568	-0.171930	0.241019
C107	C	0.111020	-0.161522	-0.411538
H108	H	0.137225	-0.162201	-0.490611
H109	H	0.083783	-0.234135	-0.417093
H110	H	0.091909	-0.087649	-0.417041
C111	C	0.235754	-0.164868	-0.411546
H112	H	0.209545	-0.164184	-0.490614
H113	H	0.262990	-0.092253	-0.417089
H114	H	0.254866	-0.238740	-0.417073
C115	C	0.773727	0.643104	0.000131
H116	H	0.735086	0.661167	0.000098
H117	H	0.792507	0.678532	0.085076
H118	H	0.792511	0.678488	-0.084831
H119	H	0.750191	0.008467	0.778331
H120	H	0.500568	-0.171911	-0.240825
H121	H	0.392803	-0.169042	0.241031
H122	H	0.227285	-0.164595	0.373835
C123	C	-0.037485	-0.157560	0.279003
H124	H	-0.063683	-0.156845	0.358086
H125	H	-0.018352	-0.231392	0.284559
H126	H	-0.010264	-0.084905	0.284488
C127	C	0.459278	0.410149	-0.000004
H128	H	0.429110	0.343077	-0.000021
H129	H	0.456503	0.460607	0.084931
H130	H	0.456517	0.460572	-0.084976
C131	C	-0.162243	-0.154188	0.279004
H132	H	-0.201876	-0.153092	0.259976
H133	H	-0.156581	-0.227648	0.333651
H134	H	-0.148430	-0.081162	0.333483
H135	H	0.119518	-0.161735	0.373832
