data_functionalizedCrystal
_audit_creation_method	'MofGen! by Chris Wilmer'
_symmetry_space_group_name_H-M	'P1'
_symmetry_Int_Tables_number	1
_symmetry_cell_setting	triclinic
loop_
_symmetry_equiv_pos_as_xyz
  x,y,z
_cell_length_a	16.109302
_cell_length_b	27.731996
_cell_length_c	14.586319
_cell_angle_alpha	89.990257
_cell_angle_beta	89.994552
_cell_angle_gamma	83.041584
loop_
_atom_site_label
_atom_site_type_symbol
_atom_site_fract_x
_atom_site_fract_y
_atom_site_fract_z
O1	O	1.102341	0.062133	-0.076294
O2	O	1.602341	0.562133	0.423706
O3	O	0.860181	0.069865	-0.076288
O4	O	1.360181	0.569865	0.423712
O5	O	0.988805	-0.004368	-0.076271
O6	O	1.488805	0.495632	0.423729
O7	O	0.973718	0.136366	-0.076311
O8	O	1.473718	0.636366	0.423689
O9	O	0.988796	-0.004369	0.076210
O10	O	1.488796	0.495631	0.576210
O11	O	0.860172	0.069864	0.076193
O12	O	1.360172	0.569864	0.576193
O13	O	1.102332	0.062132	0.076187
O14	O	1.602332	0.562132	0.576187
Cu15	Cu	0.981251	0.065998	0.090113
Cu16	Cu	1.481251	0.565998	0.590113
Cu17	Cu	0.981262	0.065999	-0.090214
Cu18	Cu	1.481262	0.565999	0.409786
O19	O	0.973709	0.136365	0.076170
O20	O	1.473709	0.636365	0.576170
C21	C	0.829206	0.069551	-0.000047
C22	C	1.329206	0.569551	0.499953
C23	C	0.736922	0.068612	-0.000044
C24	C	1.236922	0.568612	0.499956
C25	C	0.524604	0.066440	0.083065
C26	C	1.024604	0.566440	0.583065
C27	C	0.437895	0.065552	0.083062
C28	C	0.937895	0.565552	0.583062
C29	C	0.437916	0.065556	-0.083181
C30	C	0.937916	0.565556	0.416819
C31	C	0.524624	0.066440	-0.083177
C32	C	1.024624	0.566440	0.416823
C33	C	0.567965	0.066885	-0.000051
C34	C	1.067965	0.566885	0.499949
C35	C	0.394548	0.065113	-0.000058
C36	C	0.894548	0.565113	0.499942
C37	C	0.300535	0.064150	-0.000062
C38	C	0.800535	0.564150	0.499938
C39	C	0.661985	0.067846	-0.000047
C40	C	1.161985	0.567846	0.499953
C41	C	0.988490	-0.022377	-0.000028
C42	C	1.488490	0.477623	0.499972
C43	C	0.987557	-0.076037	-0.000018
C44	C	1.487557	0.423963	0.499982
C45	C	0.981688	-0.408777	-0.083180
C46	C	1.481688	0.091223	0.416820
C47	C	0.978144	-0.610451	-0.083196
C48	C	1.478144	-0.110451	0.416804
O49	O	0.977654	-0.636523	-0.153885
O50	O	1.477654	-0.136523	0.346115
N51	N	0.977698	-0.635670	-0.000080
N52	N	1.477698	-0.135670	0.499920
C53	C	0.978134	-0.610468	0.083047
C54	C	1.478134	-0.110468	0.583047
O55	O	0.977666	-0.636546	0.153742
O56	O	1.477666	-0.136546	0.653742
C57	C	0.981673	-0.408795	0.083062
C58	C	1.481673	0.091205	0.583062
C59	C	0.982127	-0.383579	-0.000060
C60	C	1.482127	0.116421	0.499940
C61	C	0.982141	-0.383561	-0.166295
C62	C	1.482141	0.116439	0.333705
C63	C	0.983032	-0.333146	-0.166291
C64	C	1.483032	0.166854	0.333709
C65	C	0.983470	-0.307948	-0.083171
C66	C	1.483470	0.192052	0.416829
C67	C	0.983017	-0.333164	-0.000055
C68	C	1.483017	0.166836	0.499945
C69	C	0.982103	-0.383594	0.166187
C70	C	1.482103	0.116406	0.666187
C71	C	0.982985	-0.333172	0.166184
C72	C	1.482985	0.166828	0.666184
C73	C	0.983439	-0.307956	0.083062
C74	C	1.483439	0.192044	0.583062
C75	C	0.984346	-0.257551	0.083070
C76	C	1.484346	0.242449	0.583070
N77	N	0.984791	-0.232331	-0.000047
N78	N	1.484791	0.267669	0.499953
C79	C	0.984353	-0.257530	-0.083167
C80	C	1.484353	0.242470	0.416833
C81	C	0.976278	-0.716349	0.083033
C82	C	1.476278	-0.216349	0.583033
C83	C	0.975395	-0.766767	0.083029
C84	C	1.475395	-0.266767	0.583029
C85	C	0.975403	-0.766746	-0.083214
C86	C	1.475403	-0.266746	0.416786
C87	C	0.976292	-0.716328	-0.083209
C88	C	1.476292	-0.216328	0.416791
C89	C	0.976723	-0.691130	-0.000084
C90	C	1.476723	-0.191130	0.499916
C91	C	0.986224	-0.151655	-0.083151
C92	C	1.486224	0.348345	0.416849
C93	C	0.987119	-0.101236	-0.083138
C94	C	1.487119	0.398764	0.416862
C95	C	0.987106	-0.101261	0.083104
C96	C	1.487106	0.398739	0.583104
C97	C	0.986216	-0.151676	0.083093
C98	C	1.486216	0.348324	0.583093
C99	C	0.985773	-0.176871	-0.000042
C100	C	1.485773	0.323129	0.499958
O101	O	0.984827	-0.231447	0.153721
O102	O	1.484827	0.268553	0.653721
O103	O	0.984803	-0.231442	-0.153852
O104	O	1.484803	0.268558	0.346148
C105	C	0.980798	-0.459192	-0.083185
C106	C	1.480798	0.040808	0.416815
C107	C	0.980345	-0.484409	-0.000070
C108	C	1.480345	0.015591	0.499930
C109	C	0.980783	-0.459210	0.083050
C110	C	1.480783	0.040790	0.583050
C111	C	0.979462	-0.534827	-0.000073
C112	C	1.479462	-0.034827	0.499927
C113	C	0.979024	-0.560025	-0.083193
C114	C	1.479024	-0.060025	0.416807
C115	C	0.979469	-0.534806	-0.166310
C116	C	1.479469	-0.034806	0.333690
C117	C	0.980360	-0.484391	-0.166305
C118	C	1.480360	0.015609	0.333695
C119	C	0.980338	-0.484430	0.166167
C120	C	1.480338	0.015570	0.666167
C121	C	0.979448	-0.534845	0.166155
C122	C	1.479448	-0.034845	0.666155
C123	C	0.979010	-0.560043	0.083035
C124	C	1.479010	-0.060043	0.583035
C125	C	1.133308	0.062446	-0.000056
C126	C	1.633308	0.562446	0.499944
C127	C	1.225591	0.063385	-0.000065
C128	C	1.725591	0.563385	0.499935
C129	C	0.974023	0.154374	-0.000075
C130	C	1.474023	0.654374	0.499925
C131	C	0.974957	0.208034	-0.000091
C132	C	1.474957	0.708034	0.499909
N133	N	0.981250	0.065997	0.216944
N134	N	1.481250	0.565997	0.716944
N135	N	0.981270	0.065997	-0.217045
N136	N	1.481270	0.565997	0.282955
C137	C	1.038223	0.033137	0.451958
C138	C	1.538223	0.533137	0.951958
C139	C	1.038226	0.033136	0.547940
C140	C	1.538226	0.533136	1.047940
C141	C	0.924291	0.098858	0.547934
C142	C	1.424291	0.598858	1.047934
C143	C	0.924285	0.098856	0.451955
C144	C	1.424285	0.598856	0.951955
C145	C	0.981256	0.065997	0.403969
C146	C	1.481256	0.565997	0.903969
C147	C	0.981264	0.065997	0.595930
C148	C	1.481264	0.565997	1.095930
C149	C	0.981266	0.065996	0.699997
C150	C	1.481266	0.565996	1.199997
C151	C	0.981253	0.065997	0.299895
C152	C	1.481253	0.565997	0.799895
H153	H	0.402595	0.065190	0.150744
H154	H	0.902595	0.565190	0.650744
H155	H	0.976660	-0.695800	-0.150895
H156	H	1.476660	-0.195800	0.349105
F157	F	0.974934	-0.793572	-0.171677
F158	F	1.474934	-0.293572	0.328323
F159	F	0.863646	0.133829	0.400877
F160	F	1.363646	0.633829	0.900877
H161	H	0.559929	0.066801	-0.150864
H162	H	1.059929	0.566801	0.349136
F163	F	0.391783	0.065073	-0.171644
F164	F	0.891783	0.565073	0.328356
F165	F	0.987604	-0.074402	-0.171612
F166	F	1.487604	0.425598	0.328388
H167	H	0.985859	-0.172163	-0.150847
H168	H	1.485859	0.327837	0.349153
H169	H	0.983398	-0.312619	-0.233977
H170	H	1.483398	0.187381	0.266023
H171	H	0.985855	-0.172209	0.150777
H172	H	1.485855	0.327791	0.650777
F173	F	1.098855	-0.001836	0.400892
F174	F	1.598855	0.498164	0.900892
H175	H	0.559890	0.066802	0.150752
H176	H	1.059890	0.566802	0.650752
H177	H	1.084612	0.006379	0.587010
H178	H	1.584612	0.506379	1.087010
H179	H	0.877907	0.125612	0.587013
H180	H	1.377907	0.625612	1.087013
F181	F	0.987574	-0.074434	0.171562
F182	F	1.487574	0.425566	0.671562
F183	F	0.976733	-0.689537	0.171513
F184	F	1.476733	-0.189537	0.671513
H185	H	0.981781	-0.404072	-0.233985
H186	H	1.481781	0.095928	0.266015
H187	H	0.980696	-0.463919	0.233854
H188	H	1.480696	0.036081	0.733854
F189	F	0.981617	-0.410420	0.254659
F190	F	1.481617	0.089580	0.754659
F191	F	0.974927	-0.793600	0.171499
F192	F	1.474927	-0.293600	0.671499
H193	H	0.983324	-0.312657	0.233876
H194	H	1.483324	0.187343	0.733876
H195	H	0.980728	-0.463864	-0.233992
H196	H	1.480728	0.036136	0.266008
F197	F	0.979007	-0.561633	-0.254773
F198	F	1.479007	-0.061633	0.245227
F199	F	0.978971	-0.561677	0.254631
F200	F	1.478971	-0.061677	0.754631
