data_functionalizedCrystal
_audit_creation_method	'MofGen! by Chris Wilmer'
_symmetry_space_group_name_H-M	'P1'
_symmetry_Int_Tables_number	1
_symmetry_cell_setting	triclinic
loop_
_symmetry_equiv_pos_as_xyz
  x,y,z
_cell_length_a	17.699077
_cell_length_b	14.519709
_cell_length_c	16.776229
_cell_angle_alpha	89.992406
_cell_angle_beta	89.993415
_cell_angle_gamma	83.480361
loop_
_atom_site_label
_atom_site_type_symbol
_atom_site_fract_x
_atom_site_fract_y
_atom_site_fract_z
O1	O	1.004415	0.116598	-0.066279
O2	O	1.504415	0.616598	0.433721
O3	O	0.784080	0.131777	-0.066283
O4	O	1.284080	0.631777	0.433717
O5	O	0.900089	-0.010076	-0.066274
O6	O	1.400089	0.489924	0.433726
O7	O	0.888405	0.258451	-0.066289
O8	O	1.388405	0.758451	0.433711
O9	O	0.900074	-0.010085	0.066302
O10	O	1.400074	0.489915	0.566302
O11	O	0.784064	0.131768	0.066293
O12	O	1.284064	0.631768	0.566293
O13	O	1.004400	0.116589	0.066297
O14	O	1.504400	0.616589	0.566297
Zn15	Zn	0.894229	0.124177	0.087345
Zn16	Zn	1.394229	0.624177	0.587345
Zn17	Zn	0.894250	0.124189	-0.087331
Zn18	Zn	1.394250	0.624189	0.412669
O19	O	0.888390	0.258442	0.066288
O20	O	1.388390	0.758442	0.566288
C21	C	0.755873	0.131230	0.000004
C22	C	1.255873	0.631230	0.500004
C23	C	0.671850	0.129601	0.000003
C24	C	1.171850	0.629601	0.500003
C25	C	0.632372	0.128829	0.072271
C26	C	1.132372	0.628829	0.572271
C27	C	0.553425	0.127283	0.072272
C28	C	1.053425	0.627283	0.572272
C29	C	0.513957	0.126517	0.000004
C30	C	1.013957	0.626517	0.500004
C31	C	0.553441	0.127287	-0.072270
C32	C	1.053441	0.627287	0.427730
C33	C	0.632387	0.128825	-0.072270
C34	C	1.132387	0.628825	0.427730
C35	C	0.235060	0.121080	-0.072271
C36	C	0.735060	0.621080	0.427729
C37	C	0.156108	0.119544	-0.072265
C38	C	0.656108	0.619544	0.427735
C39	C	0.156098	0.119539	0.072271
C40	C	0.656098	0.619539	0.572271
C41	C	0.235044	0.121077	0.072271
C42	C	0.735044	0.621077	0.572271
C43	C	0.274522	0.121842	-0.000002
C44	C	0.774522	0.621842	0.499998
C45	C	0.360125	0.123515	-0.000002
C46	C	0.860125	0.623515	0.499998
C47	C	0.428354	0.124850	0.000003
C48	C	0.928354	0.624850	0.500003
C49	C	0.899537	-0.044438	0.000014
C50	C	1.399537	0.455562	0.500014
C51	C	0.897905	-0.146812	0.000015
C52	C	1.397905	0.353188	0.500015
C53	C	0.891898	-0.521682	-0.000006
C54	C	1.391898	-0.021682	0.499994
C55	C	0.893566	-0.417381	-0.000000
C56	C	1.393566	0.082619	0.500000
C57	C	0.894902	-0.334250	0.000005
C58	C	1.394902	0.165750	0.500005
C59	C	0.896570	-0.229943	0.000010
C60	C	1.396570	0.270057	0.500010
C61	C	1.032606	0.117137	0.000008
C62	C	1.532606	0.617137	0.500008
C63	C	1.116629	0.118766	0.000004
C64	C	1.616629	0.618766	0.500004
C65	C	0.888942	0.292804	-0.000002
C66	C	1.388942	0.792804	0.499998
C67	C	0.890574	0.395178	-0.000008
C68	C	1.390574	0.895178	0.499992
N69	N	0.894221	0.124169	0.206556
N70	N	1.394221	0.624169	0.706556
N71	N	0.894264	0.124190	-0.206542
N72	N	1.394264	0.624190	0.293458
C73	C	0.945606	0.061382	0.248277
C74	C	1.445606	0.561382	0.748277
C75	C	0.945610	0.061382	0.331729
C76	C	1.445610	0.561382	0.831729
C77	C	0.894233	0.124173	0.373459
C78	C	1.394233	0.624173	0.873459
C79	C	0.842842	0.186962	0.331732
C80	C	1.342842	0.686962	0.831732
C81	C	0.842835	0.186958	0.248281
C82	C	1.342835	0.686958	0.748281
C83	C	0.842870	0.186980	0.668279
C84	C	1.342870	0.686980	1.168279
C85	C	0.842882	0.186982	0.751735
C86	C	1.342882	0.686982	1.251735
C87	C	0.945645	0.061404	0.751727
C88	C	1.445645	0.561404	1.251727
C89	C	0.945638	0.061400	0.668276
C90	C	1.445638	0.561400	1.168276
C91	C	0.894245	0.124186	0.626557
C92	C	1.394245	0.624186	1.126557
C93	C	0.894240	0.124185	0.536068
C94	C	1.394240	0.624185	1.036068
C95	C	0.894240	0.124179	0.463945
C96	C	1.394240	0.624179	0.963945
H97	H	0.664501	0.129460	0.131121
H98	H	1.164501	0.629460	0.631121
Br99	Br	0.102544	0.118506	-0.170351
Br100	Br	0.602544	0.618506	0.329649
H101	H	0.267193	0.121700	-0.131121
H102	H	0.767193	0.621700	0.368879
Br103	Br	1.015370	-0.023814	0.611646
Br104	Br	1.515370	0.476186	1.111646
H105	H	0.267175	0.121706	0.131119
H106	H	0.767175	0.621706	0.631119
Br107	Br	1.015393	-0.023809	0.808350
Br108	Br	1.515393	0.476191	1.308350
Br109	Br	0.773090	0.272166	0.191659
Br110	Br	1.273090	0.772166	0.691659
H111	H	0.664529	0.129456	-0.131118
H112	H	1.164529	0.629456	0.368882
Br113	Br	0.499882	0.126206	-0.170350
Br114	Br	0.999882	0.626206	0.329650
H115	H	0.987447	0.010254	0.214306
H116	H	1.487447	0.510254	0.714306
Br117	Br	1.015345	-0.023833	0.388354
Br118	Br	1.515345	0.476167	0.888354
H119	H	0.801025	0.238105	0.634317
H120	H	1.301025	0.738105	1.134317
H121	H	0.801042	0.238116	0.785710
H122	H	1.301042	0.738116	1.285710
H123	H	0.801006	0.238085	0.365712
H124	H	1.301006	0.738085	0.865712
H125	H	0.123946	0.118912	0.131120
H126	H	0.623946	0.618912	0.631120
Br127	Br	0.499849	0.126250	0.170355
Br128	Br	0.999849	0.626250	0.670355
