data_functionalizedCrystal
_audit_creation_method	'MofGen! by Chris Wilmer'
_symmetry_space_group_name_H-M	'P1'
_symmetry_Int_Tables_number	1
_symmetry_cell_setting	triclinic
loop_
_symmetry_equiv_pos_as_xyz
  x,y,z
_cell_length_a	15.500227
_cell_length_b	14.853567
_cell_length_c	14.853567
_cell_angle_alpha	83.634930
_cell_angle_beta	92.835912
_cell_angle_gamma	87.154502
loop_
_atom_site_label
_atom_site_type_symbol
_atom_site_fract_x
_atom_site_fract_y
_atom_site_fract_z
O1	O	0.071877	-1.200549	-0.113528
O2	O	0.071891	-0.938091	-0.127549
O3	O	0.071886	-1.076331	0.010692
O4	O	0.071882	-1.062309	-0.251768
O5	O	-0.072002	-1.067942	0.002336
O6	O	-0.071997	-0.929702	-0.135904
O7	O	-0.072011	-1.192160	-0.121884
Cu8	Cu	-0.085143	-1.060165	-0.129657
Cu9	Cu	0.085022	-1.070086	-0.119775
O10	O	-0.072007	-1.053920	-0.260124
C11	C	-0.000051	-0.900308	-0.131091
C12	C	-0.000046	-0.800224	-0.129187
C13	C	-0.000055	-1.071501	0.040103
C14	C	-0.000048	-1.069598	0.140187
N15	N	-0.204827	-1.053194	-0.136607
C16	C	-0.250106	-1.111792	-0.078051
C17	C	-0.340679	-1.106528	-0.083316
C18	C	-0.385971	-1.042670	-0.147140
C19	C	-0.340686	-0.984066	-0.205698
C20	C	-0.250115	-0.989326	-0.200429
C21	C	-0.659437	-1.023721	-0.166107
C22	C	-0.750015	-1.018467	-0.171374
C23	C	-0.750001	-1.140928	-0.048989
C24	C	-0.659428	-1.146186	-0.043729
C25	C	-0.614151	-1.087579	-0.102284
C26	C	-0.478551	-1.037290	-0.152525
C27	C	-0.521573	-1.092955	-0.096895
N28	N	0.204707	-1.077064	-0.112819
C29	C	-0.000067	-1.229944	-0.118341
C30	C	-0.000067	-1.330027	-0.120245
C31	C	-0.000063	-0.387689	-0.039022
C32	C	-0.000065	-0.366408	-0.203255
C33	C	-0.000063	-0.460442	-0.205045
C34	C	-0.000059	-0.518104	-0.123822
C35	C	-0.000058	-0.481732	-0.040810
C36	C	-0.000055	-0.496822	-0.288056
C37	C	-0.000051	-0.590861	-0.289849
C38	C	-0.000054	-0.648524	-0.208626
C39	C	-0.000054	-0.612147	-0.125610
C40	C	-0.000050	-0.669809	-0.044387
C41	C	-0.000056	-0.633434	0.038630
C42	C	-0.000061	-0.539396	0.040414
C43	C	-0.000049	-0.742562	-0.210410
C44	C	-0.000045	-0.763852	-0.046174
C45	C	-0.000063	-1.058750	-0.289535
C46	C	-0.000065	-1.060654	-0.389619
C47	C	-0.000060	-0.979431	0.552720
C48	C	-0.000068	-1.143664	0.574000
C49	C	-0.000063	-1.145454	0.479967
C50	C	-0.000058	-1.064232	0.422305
C51	C	-0.000057	-0.981219	0.458677
C52	C	-0.000072	-1.228465	0.443587
C53	C	-0.000068	-1.230258	0.349548
C54	C	-0.000057	-1.149036	0.291885
C55	C	-0.000055	-1.066020	0.328263
C56	C	-0.000050	-0.984797	0.270601
C57	C	-0.000042	-0.901781	0.306977
C58	C	-0.000045	-0.899996	0.401014
C59	C	-0.000053	-1.150820	0.197848
C60	C	-0.000047	-0.986585	0.176559
H61	H	-0.213235	-1.163795	-0.026082
C62	C	-0.000038	-0.808687	0.441025
H63	H	-0.000024	-0.760569	0.393219
H64	H	-0.050215	-0.801649	0.474351
H65	H	0.050145	-0.807507	0.480183
H66	H	-0.515435	-0.985297	-0.204494
C67	C	-0.000039	-0.782573	-0.301715
H68	H	-0.000043	-0.734764	-0.349832
H69	H	0.050138	-0.821738	-0.302908
H70	H	-0.050222	-0.815892	-0.308745
C71	C	-0.799803	-1.205383	0.015425
H72	H	-0.759856	-1.244169	0.054188
H73	H	-0.835143	-1.170855	0.050957
H74	H	-0.835125	-1.240903	-0.019132
C75	C	-0.390481	-1.170994	-0.018913
H76	H	-0.350535	-1.209787	0.019844
H77	H	-0.425824	-1.136477	0.016627
H78	H	-0.425801	-1.206506	-0.053481
H79	H	-0.000047	-0.680395	0.104761
H80	H	-0.786887	-0.966463	-0.223352
C81	C	-0.000055	-0.888120	0.592728
H82	H	-0.000061	-0.898683	0.656991
H83	H	0.050122	-0.857597	0.575856
H84	H	-0.050238	-0.851752	0.570028
H85	H	-0.000046	-0.620470	-0.357446
C86	C	-0.000063	-0.433395	-0.377392
H87	H	-0.000078	-0.372180	-0.364437
H88	H	0.050115	-0.447345	-0.408515
H89	H	-0.050246	-0.441518	-0.414336
C90	C	-0.609609	-1.216468	0.026436
H91	H	-0.549183	-1.211226	0.021169
H92	H	-0.624435	-1.205791	0.085780
H93	H	-0.624464	-1.275767	0.015619
H94	H	-0.000061	-0.319455	-0.269383
H95	H	-0.000045	-0.810795	0.019968
C96	C	-0.000076	-1.233000	0.637424
H97	H	-0.000074	-1.220046	0.698639
H98	H	-0.050252	-1.264111	0.623468
H99	H	0.050108	-1.269956	0.629306
H100	H	-0.622580	-0.976002	-0.213787
H101	H	-0.000039	-0.920443	0.129616
H102	H	-0.000072	-0.358068	0.028568
H103	H	-0.000044	-0.835650	0.260016
C104	C	-0.390505	-0.913826	-0.275906
H105	H	-0.450931	-0.919091	-0.270665
H106	H	-0.375675	-0.854509	-0.265144
H107	H	-0.375651	-0.924558	-0.335231
H108	H	-0.000085	-1.294591	0.490541
C109	C	-0.000065	-1.321571	0.309543
H110	H	-0.000062	-1.369687	0.357354
H111	H	-0.050237	-1.322763	0.270380
H112	H	0.050124	-1.328604	0.276225
C113	C	-0.000064	-1.242126	0.157837
H114	H	-0.000066	-1.290242	0.205646
H115	H	-0.050239	-1.243307	0.118676
H116	H	0.050122	-1.249166	0.124516
C117	C	-0.200304	-0.924873	-0.264840
H118	H	-0.139877	-0.937145	-0.252556
H119	H	-0.215138	-0.933871	-0.325892
H120	H	-0.215160	-0.863831	-0.255795
H121	H	-0.000086	-0.509769	0.108000
H122	H	-0.484693	-1.144945	-0.044925
