data_functionalizedCrystal
_audit_creation_method	'MofGen! by Chris Wilmer'
_symmetry_space_group_name_H-M	'P1'
_symmetry_Int_Tables_number	1
_symmetry_cell_setting	triclinic
loop_
_symmetry_equiv_pos_as_xyz
  x,y,z
_cell_length_a	25.639242
_cell_length_b	14.908932
_cell_length_c	14.908308
_cell_angle_alpha	89.790170
_cell_angle_beta	93.269512
_cell_angle_gamma	93.294745
loop_
_atom_site_label
_atom_site_type_symbol
_atom_site_fract_x
_atom_site_fract_y
_atom_site_fract_z
Zn1	Zn	0.770105	-0.387409	-0.487995
Zn2	Zn	1.103438	-0.054076	-0.154661
Zn3	Zn	1.436771	0.279258	0.178672
Zn4	Zn	0.770652	-0.529110	-0.328983
Zn5	Zn	1.103985	-0.195776	0.004351
Zn6	Zn	1.437319	0.137557	0.337684
Zn7	Zn	0.687991	-0.378757	-0.337630
Zn8	Zn	1.021324	-0.045423	-0.004296
Zn9	Zn	1.354657	0.287910	0.329037
Zn10	Zn	0.677945	-0.537711	-0.479271
Zn11	Zn	1.011278	-0.204378	-0.145938
Zn12	Zn	1.344611	0.128956	0.187395
O13	O	0.726673	-0.458247	-0.408470
O14	O	1.060006	-0.124913	-0.075136
O15	O	1.393340	0.208420	0.258197
O16	O	0.843341	-0.406227	-0.466933
O17	O	1.176674	-0.072894	-0.133600
O18	O	1.510007	0.260439	0.199733
O19	O	0.764120	-0.501944	-0.204305
O20	O	1.097453	-0.168611	0.129028
O21	O	1.430787	0.164723	0.462361
O22	O	0.702858	-0.254079	-0.364845
O23	O	1.036192	0.079254	-0.031512
O24	O	1.369525	0.412588	0.301821
O25	O	0.843743	-0.510334	-0.350108
O26	O	1.177076	-0.177001	-0.016775
O27	O	1.510409	0.156333	0.316559
O28	O	0.763187	-0.260436	-0.475318
O29	O	1.096521	0.072897	-0.141985
O30	O	1.429854	0.406231	0.191349
O31	O	0.703389	-0.391480	-0.210658
O32	O	1.036722	-0.058147	0.122675
O33	O	1.370056	0.275186	0.456009
O34	O	0.613495	-0.399821	-0.356387
O35	O	0.946828	-0.066488	-0.023053
O36	O	1.280161	0.266846	0.310280
O37	O	0.685737	-0.524994	-0.606253
O38	O	1.019070	-0.191661	-0.272920
O39	O	1.352403	0.141673	0.060414
O40	O	0.606114	-0.516604	-0.460450
O41	O	0.939447	-0.183271	-0.127117
O42	O	1.272781	0.150063	0.206216
O43	O	0.753446	-0.414568	-0.612662
O44	O	1.086780	-0.081234	-0.279329
O45	O	1.420113	0.252099	0.054005
O46	O	0.754379	-0.656076	-0.341649
O47	O	1.087712	-0.322742	-0.008316
O48	O	1.421046	0.010591	0.325017
O49	O	0.686267	-0.662395	-0.452066
O50	O	1.019601	-0.329062	-0.118732
O51	O	1.352934	0.004271	0.214601
C52	C	0.590834	-0.458208	-0.408411
C53	C	0.924167	-0.124874	-0.075077
C54	C	1.257500	0.208459	0.258256
C55	C	0.532720	-0.458214	-0.408406
C56	C	0.866053	-0.124880	-0.075072
C57	C	1.199386	0.208453	0.258261
C58	C	0.734083	-0.223720	-0.422019
C59	C	1.067416	0.109613	-0.088686
C60	C	1.400749	0.442946	0.244647
C61	C	0.737240	-0.123779	-0.427793
C62	C	1.070573	0.209554	-0.094460
C63	C	1.403907	0.542888	0.238873
C64	C	0.718410	-0.471705	-0.642995
C65	C	1.051743	-0.138372	-0.309661
C66	C	1.385077	0.194961	0.023672
C67	C	0.714889	-0.477441	-0.742935
C68	C	1.048222	-0.144108	-0.409602
C69	C	1.381555	0.189226	-0.076268
C70	C	0.168518	-0.519149	-0.462595
C71	C	0.501851	-0.185815	-0.129262
C72	C	0.835185	0.147518	0.204071
C73	C	0.113913	-0.519155	-0.462609
C74	C	0.447246	-0.185822	-0.129276
C75	C	0.780580	0.147512	0.204057
O76	O	0.082416	-0.570917	-0.508634
O77	O	0.415749	-0.237583	-0.175301
O78	O	0.749083	0.095750	0.158032
N79	N	0.090431	-0.458275	-0.408527
N80	N	0.423764	-0.124941	-0.075194
N81	N	0.757098	0.208392	0.258140
C82	C	0.121557	-0.397378	-0.354434
C83	C	0.454891	-0.064045	-0.021100
C84	C	0.788224	0.269288	0.312233
O85	O	0.096570	-0.345595	-0.308434
O86	O	0.429903	-0.012262	0.024899
O87	O	0.763237	0.321072	0.358232
C88	C	0.176161	-0.397368	-0.354425
C89	C	0.509494	-0.064035	-0.021092
C90	C	0.842828	0.269298	0.312241
C91	C	0.199640	-0.458259	-0.408505
C92	C	0.532973	-0.124925	-0.075171
C93	C	0.866307	0.208408	0.258162
C94	C	0.191997	-0.580033	-0.516671
C95	C	0.525331	-0.246700	-0.183338
C96	C	0.858664	0.086634	0.149996
C97	C	0.246599	-0.580028	-0.516656
C98	C	0.579932	-0.246694	-0.183322
C99	C	0.913265	0.086639	0.150011
C100	C	0.277721	-0.519138	-0.462565
C101	C	0.611054	-0.185804	-0.129231
C102	C	0.944387	0.147529	0.204102
C103	C	0.254241	-0.458253	-0.408489
C104	C	0.587575	-0.124920	-0.075156
C105	C	0.920908	0.208414	0.258177
C106	C	0.207286	-0.336468	-0.300338
C107	C	0.540619	-0.003135	0.032996
C108	C	0.873953	0.330198	0.366329
C109	C	0.261893	-0.336463	-0.300334
C110	C	0.595227	-0.003130	0.032999
C111	C	0.928560	0.330204	0.366332
C112	C	0.285372	-0.397353	-0.354414
C113	C	0.618706	-0.064020	-0.021080
C114	C	0.952039	0.269313	0.312253
C115	C	0.339964	-0.397358	-0.354383
C116	C	0.673298	-0.064024	-0.021050
C117	C	1.006631	0.269309	0.312284
N118	N	0.363446	-0.458238	-0.408465
N119	N	0.696780	-0.124904	-0.075132
N120	N	1.030113	0.208429	0.258201
C121	C	0.332324	-0.519128	-0.462556
C122	C	0.665658	-0.185794	-0.129223
C123	C	0.998991	0.147539	0.204110
C124	C	0.006885	-0.397403	-0.354457
C125	C	0.340218	-0.064069	-0.021123
C126	C	0.673552	0.269264	0.312210
C127	C	-0.047718	-0.397416	-0.354460
C128	C	0.285615	-0.064083	-0.021126
C129	C	0.618949	0.269251	0.312207
C130	C	-0.055358	-0.519192	-0.462637
C131	C	0.277975	-0.185858	-0.129303
C132	C	0.611308	0.147475	0.204030
C133	C	-0.000754	-0.519182	-0.462628
C134	C	0.332579	-0.185849	-0.129295
C135	C	0.665912	0.147485	0.204038
C136	C	0.030367	-0.458283	-0.408539
C137	C	0.363700	-0.124949	-0.075206
C138	C	0.697034	0.208384	0.258127
C139	C	0.446991	-0.519112	-0.462519
C140	C	0.780325	-0.185779	-0.129186
C141	C	1.113658	0.147554	0.204147
C142	C	0.501598	-0.519104	-0.462496
C143	C	0.834931	-0.185771	-0.129163
C144	C	1.168264	0.147563	0.204170
C145	C	0.509233	-0.397325	-0.354323
C146	C	0.842567	-0.063992	-0.020990
C147	C	1.175900	0.269341	0.312343
C148	C	0.454632	-0.397336	-0.354342
C149	C	0.787965	-0.064003	-0.021009
C150	C	1.121298	0.269330	0.312324
C151	C	0.423512	-0.458233	-0.408448
C152	C	0.756845	-0.124900	-0.075114
C153	C	1.090178	0.208433	0.258219
O154	O	0.371495	-0.345620	-0.308384
O155	O	0.704828	-0.012286	0.024949
O156	O	1.038161	0.321047	0.358283
O157	O	0.357319	-0.570895	-0.508557
O158	O	0.690652	-0.237561	-0.175224
O159	O	1.023986	0.095772	0.158110
C160	C	0.863043	-0.458286	-0.408529
C161	C	1.196376	-0.124953	-0.075196
C162	C	1.529709	0.208380	0.258137
C163	C	0.921155	-0.458303	-0.408555
C164	C	1.254489	-0.124970	-0.075221
C165	C	1.587822	0.208363	0.258112
C166	C	0.719306	-0.691862	-0.394992
C167	C	1.052639	-0.358528	-0.061659
C168	C	1.385972	-0.025195	0.271674
C169	C	0.716201	-0.791805	-0.389257
C170	C	1.049534	-0.458472	-0.055923
C171	C	1.382868	-0.125138	0.277410
C172	C	0.680341	0.070642	-0.323611
C173	C	1.013674	0.403975	0.009723
C174	C	1.347007	0.737309	0.343056
C175	C	0.683306	0.164546	-0.329033
C176	C	1.016639	0.497879	0.004300
C177	C	1.349972	0.831212	0.337634
C178	C	0.746132	0.157934	-0.444064
C179	C	1.079465	0.491267	-0.110731
C180	C	1.412799	0.824600	0.222603
C181	C	0.743167	0.064030	-0.438642
C182	C	1.076500	0.397363	-0.105308
C183	C	1.409834	0.730697	0.228025
C184	C	0.710271	0.020387	-0.378412
C185	C	1.043604	0.353721	-0.045079
C186	C	1.376937	0.687054	0.288255
C187	C	0.707309	-0.073518	-0.372986
C188	C	1.040642	0.259816	-0.039653
C189	C	1.373975	0.593149	0.293681
C190	C	0.770132	-0.080128	-0.488021
C191	C	1.103466	0.253205	-0.154688
C192	C	1.436799	0.586538	0.178646
C193	C	0.773097	0.013775	-0.493443
C194	C	1.106431	0.347109	-0.160110
C195	C	1.439764	0.680442	0.173223
C196	C	0.778777	-0.373210	-0.937411
C197	C	1.112110	-0.039877	-0.604077
C198	C	1.445444	0.293456	-0.270744
C199	C	0.775470	-0.378596	-1.031314
C200	C	1.108804	-0.045263	-0.697981
C201	C	1.442137	0.288070	-0.364647
C202	C	0.704966	-0.493593	-1.024647
C203	C	1.038299	-0.160260	-0.691314
C204	C	1.371633	0.173074	-0.357980
C205	C	0.708273	-0.488207	-0.930744
C206	C	1.041606	-0.154874	-0.597410
C207	C	1.374940	0.178459	-0.264077
C208	C	0.745180	-0.428015	-0.887129
C209	C	1.078513	-0.094682	-0.553796
C210	C	1.411847	0.238652	-0.220462
C211	C	0.748489	-0.422634	-0.793224
C212	C	1.081822	-0.089301	-0.459890
C213	C	1.415156	0.244032	-0.126557
C214	C	0.677983	-0.537626	-0.786559
C215	C	1.011316	-0.204293	-0.453225
C216	C	1.344649	0.129041	-0.119892
C217	C	0.674676	-0.543012	-0.880462
C218	C	1.008009	-0.209678	-0.547129
C219	C	1.341343	0.123655	-0.213795
C220	C	0.734936	-0.444775	-0.174861
C221	C	1.068269	-0.111442	0.158473
C222	C	1.401603	0.221892	0.491806
C223	C	0.738567	-0.438786	-0.074935
C224	C	1.071900	-0.105453	0.258398
C225	C	1.405233	0.227880	0.591731
H226	H	0.520711	-0.568691	-0.506535
H227	H	0.854045	-0.235358	-0.173201
H228	H	1.187378	0.097975	0.160132
Cl229	Cl	0.628281	-0.618677	-0.935301
Cl230	Cl	0.961614	-0.285344	-0.601967
Cl231	Cl	1.294947	0.047990	-0.268634
H232	H	0.808831	-0.324204	-0.901899
H233	H	1.142164	0.009129	-0.568565
H234	H	1.475497	0.342463	-0.235232
H235	H	0.188179	-0.286887	-0.256298
H236	H	0.521513	0.046446	0.077035
H237	H	0.854846	0.379780	0.410369
H238	H	0.287230	-0.286865	-0.256293
H239	H	0.620563	0.046468	0.077040
H240	H	0.953897	0.379801	0.410373
H241	H	0.650627	-0.582254	-0.745609
H242	H	0.983960	-0.248921	-0.412276
H243	H	1.317294	0.084412	-0.078942
Cl244	Cl	0.425114	-0.320802	-0.286341
Cl245	Cl	0.758448	0.012532	0.046992
Cl246	Cl	1.091781	0.345865	0.380325
Cl247	Cl	0.152882	-0.656592	-0.584680
Cl248	Cl	0.486215	-0.323259	-0.251347
Cl249	Cl	0.819548	0.010075	0.081987
H250	H	0.772912	0.193479	-0.493108
H251	H	1.106245	0.526813	-0.159774
H252	H	1.439578	0.860146	0.173559
H253	H	0.421659	-0.568698	-0.506579
H254	H	0.754993	-0.235365	-0.173246
H255	H	1.088326	0.097968	0.160088
Cl256	Cl	0.817708	-0.309695	-1.094523
Cl257	Cl	1.151041	0.023638	-0.761190
Cl258	Cl	1.484374	0.356972	-0.427856
Cl259	Cl	0.028756	-0.595730	-0.530618
Cl260	Cl	0.362089	-0.262397	-0.197285
Cl261	Cl	0.695423	0.070936	0.136048
H262	H	0.265710	-0.629609	-0.560694
H263	H	0.599043	-0.296276	-0.227361
H264	H	0.932377	0.037058	0.105972
Cl265	Cl	0.638993	0.015774	-0.247886
Cl266	Cl	0.972326	0.349108	0.085448
Cl267	Cl	1.305660	0.682441	0.418781
Cl268	Cl	0.645676	0.227720	-0.260139
Cl269	Cl	0.979009	0.561053	0.073194
Cl270	Cl	1.312343	0.894387	0.406528
Cl271	Cl	0.794887	-0.346967	-0.738394
Cl272	Cl	1.128220	-0.013634	-0.405061
Cl273	Cl	1.461554	0.319700	-0.071728
H274	H	0.799879	0.049320	-0.542483
H275	H	1.133213	0.382653	-0.209150
H276	H	1.466546	0.715986	0.124183
H277	H	0.674918	-0.542598	-1.060174
H278	H	1.008251	-0.209265	-0.726841
H279	H	1.341585	0.124068	-0.393508
H280	H	-0.066829	-0.347841	-0.310414
H281	H	0.266504	-0.014508	0.022920
H282	H	0.599837	0.318825	0.356253
H283	H	-0.080708	-0.568769	-0.506684
H284	H	0.252625	-0.235436	-0.173350
H285	H	0.585959	0.097898	0.159983
Cl286	Cl	0.807765	-0.143311	-0.556912
Cl287	Cl	1.141098	0.190023	-0.223578
Cl288	Cl	1.474432	0.523356	0.109755
H289	H	0.032221	-0.347811	-0.310404
H290	H	0.365555	-0.014478	0.022929
H291	H	0.698888	0.318855	0.356262
Cl292	Cl	0.665955	-0.128381	-0.297267
Cl293	Cl	0.999289	0.204952	0.036066
Cl294	Cl	1.332622	0.538285	0.369399
Cl295	Cl	0.548368	-0.320781	-0.286328
Cl296	Cl	0.881701	0.012552	0.047005
Cl297	Cl	1.215035	0.345886	0.380338
