data_functionalizedCrystal
_audit_creation_method	'MofGen! by Chris Wilmer'
_symmetry_space_group_name_H-M	'P1'
_symmetry_Int_Tables_number	1
_symmetry_cell_setting	triclinic
loop_
_symmetry_equiv_pos_as_xyz
  x,y,z
_cell_length_a	16.625547
_cell_length_b	16.625546
_cell_length_c	10.686551
_cell_angle_alpha	94.409858
_cell_angle_beta	94.401304
_cell_angle_gamma	90.022405
loop_
_atom_site_label
_atom_site_type_symbol
_atom_site_fract_x
_atom_site_fract_y
_atom_site_fract_z
Zn1	Zn	1.267698	-0.285960	0.713627
Zn2	Zn	1.601032	0.047374	1.046961
Zn3	Zn	1.934365	0.380707	1.380294
Zn4	Zn	1.257247	-0.431165	0.502605
Zn5	Zn	1.590580	-0.097831	0.835938
Zn6	Zn	1.923913	0.235502	1.169272
Zn7	Zn	1.122506	-0.296349	0.502618
Zn8	Zn	1.455839	0.036984	0.835951
Zn9	Zn	1.789173	0.370318	1.169285
Zn10	Zn	1.132826	-0.420758	0.713537
Zn11	Zn	1.466160	-0.087425	1.046870
Zn12	Zn	1.799493	0.245908	1.380203
O13	O	1.195069	-0.358558	0.608097
O14	O	1.528403	-0.025225	0.941430
O15	O	1.861736	0.308109	1.274763
O16	O	1.379146	-0.305229	0.685667
O17	O	1.712479	0.028105	1.019001
O18	O	2.045813	0.361438	1.352334
O19	O	1.230680	-0.421984	0.326023
O20	O	1.564013	-0.088651	0.659356
O21	O	1.897347	0.244682	0.992690
O22	O	1.141821	-0.182136	0.530652
O23	O	1.475154	0.151197	0.863985
O24	O	1.808488	0.484530	1.197319
O25	O	1.371467	-0.411910	0.530630
O26	O	1.704800	-0.078577	0.863963
O27	O	2.038134	0.254757	1.197297
O28	O	1.248493	-0.174503	0.685680
O29	O	1.581827	0.158830	1.019013
O30	O	1.915160	0.492163	1.352346
O31	O	1.131686	-0.322936	0.326032
O32	O	1.465020	0.010397	0.659366
O33	O	1.798353	0.343731	0.992699
O34	O	1.011041	-0.312845	0.530564
O35	O	1.344374	0.020488	0.863898
O36	O	1.677708	0.353822	1.197231
O37	O	1.159410	-0.394174	0.890133
O38	O	1.492744	-0.060840	1.223466
O39	O	1.826077	0.272493	1.556799
O40	O	1.018623	-0.404248	0.685525
O41	O	1.351957	-0.070915	1.018859
O42	O	1.685290	0.262419	1.352192
O43	O	1.258501	-0.295138	0.890199
O44	O	1.591834	0.038196	1.223533
O45	O	1.925167	0.371529	1.556866
O46	O	1.240687	-0.542619	0.530542
O47	O	1.574020	-0.209286	0.863876
O48	O	1.907354	0.124048	1.197209
O49	O	1.149276	-0.534973	0.685513
O50	O	1.482609	-0.201640	1.018846
O51	O	1.815943	0.131693	1.352180
C52	C	0.985576	-0.358545	0.608037
C53	C	1.318909	-0.025212	0.941371
C54	C	1.652242	0.308121	1.274704
C55	C	0.895955	-0.358558	0.608042
C56	C	1.229288	-0.025224	0.941375
C57	C	1.562621	0.308109	1.274708
C58	C	0.823173	-0.358558	0.608057
C59	C	1.156506	-0.025225	0.941391
C60	C	1.489840	0.308108	1.274724
C61	C	0.731866	-0.358561	0.608089
C62	C	1.065199	-0.025228	0.941422
C63	C	1.398533	0.308105	1.274755
C64	C	0.659091	-0.358567	0.608121
C65	C	0.992425	-0.025234	0.941454
C66	C	1.325758	0.308100	1.274788
C67	C	0.567778	-0.358571	0.608151
C68	C	0.901112	-0.025238	0.941484
C69	C	1.234445	0.308096	1.274818
C70	C	1.194990	-0.568051	0.608044
C71	C	1.528324	-0.234718	0.941377
C72	C	1.861657	0.098615	1.274711
C73	C	1.195033	-0.657672	0.608064
C74	C	1.528366	-0.324338	0.941397
C75	C	1.861699	0.008995	1.274730
C76	C	1.195180	-0.985841	0.608195
C77	C	1.528513	-0.652507	0.941528
C78	C	1.861846	-0.319174	1.274862
C79	C	1.195136	-0.894534	0.608162
C80	C	1.528470	-0.561200	0.941495
C81	C	1.861803	-0.227867	1.274829
C82	C	1.195105	-0.821759	0.608129
C83	C	1.528439	-0.488426	0.941462
C84	C	1.861772	-0.155092	1.274795
C85	C	1.195063	-0.730446	0.608097
C86	C	1.528397	-0.397113	0.941430
C87	C	1.861730	-0.063780	1.274764
C88	C	1.405381	-0.358571	0.608157
C89	C	1.738715	-0.025238	0.941491
C90	C	2.072048	0.308095	1.274824
C91	C	1.495004	-0.358577	0.608183
C92	C	1.828337	-0.025244	0.941517
C93	C	2.161670	0.308090	1.274850
C94	C	1.211273	-0.342336	0.937232
C95	C	1.544606	-0.009003	1.270566
C96	C	1.877939	0.324331	1.603899
C97	C	1.218177	-0.335423	1.077490
C98	C	1.551511	-0.002090	1.410824
C99	C	1.884844	0.331243	1.744157
C100	C	1.195172	-0.148245	0.608177
C101	C	1.528505	0.185088	0.941511
C102	C	1.861839	0.518422	1.274844
C103	C	1.195216	-0.058622	0.608212
C104	C	1.528549	0.274711	0.941545
C105	C	1.861882	0.608044	1.274878
C106	C	1.178976	-0.374659	0.280242
C107	C	1.512309	-0.041325	0.613575
C108	C	1.845642	0.292008	0.946908
C109	C	1.172227	-0.381344	0.139984
C110	C	1.505560	-0.048011	0.473318
C111	C	1.838894	0.285323	0.806651
H112	H	1.262806	-0.290820	1.131294
H113	H	1.596140	0.042513	1.464628
H114	H	1.929473	0.375846	1.797961
H115	H	1.127607	-0.425950	1.086187
H116	H	1.460940	-0.092617	1.419520
H117	H	1.794273	0.240717	1.752853
