data_functionalizedCrystal
_audit_creation_method	'MofGen! by Chris Wilmer'
_symmetry_space_group_name_H-M	'P1'
_symmetry_Int_Tables_number	1
_symmetry_cell_setting	triclinic
loop_
_symmetry_equiv_pos_as_xyz
  x,y,z
_cell_length_a	15.995350
_cell_length_b	14.519709
_cell_length_c	12.996460
_cell_angle_alpha	90.007090
_cell_angle_beta	90.000784
_cell_angle_gamma	96.413740
loop_
_atom_site_label
_atom_site_type_symbol
_atom_site_fract_x
_atom_site_fract_y
_atom_site_fract_z
O1	O	1.111165	-0.118875	-0.085417
O2	O	0.867411	-0.133554	-0.085453
O3	O	0.995751	0.008036	-0.085425
O4	O	0.982825	-0.260465	-0.085445
O5	O	0.995737	0.008044	0.085709
O6	O	0.867398	-0.133546	0.085681
O7	O	1.111151	-0.118867	0.085717
Cu8	Cu	0.989273	-0.126206	0.101325
Cu9	Cu	0.989289	-0.126215	-0.101061
O10	O	0.982812	-0.260457	0.085689
C11	C	0.836209	-0.132943	0.000110
C12	C	0.743256	-0.131124	0.000096
C13	C	0.995142	0.042398	0.000142
C14	C	0.993337	0.144776	0.000143
C15	C	1.142354	-0.119478	0.000152
C16	C	1.235307	-0.121297	0.000159
C17	C	1.573064	-0.127831	0.000117
C18	C	1.525781	-0.228669	0.000496
C19	C	1.429088	-0.226849	0.000121
C20	C	1.405499	-0.124590	0.000138
C21	C	1.446492	-0.074858	-0.097585
C22	C	1.543132	-0.077391	-0.097678
C23	C	1.543505	-0.075299	0.096933
C24	C	1.446560	-0.075323	0.098235
C25	C	1.310798	-0.122753	0.000147
C26	C	1.667765	-0.129665	0.000101
C27	C	0.983421	-0.294819	0.000120
C28	C	0.985226	-0.397197	0.000113
N29	N	0.989268	-0.126199	0.243672
C30	C	0.986691	0.519660	0.000115
C31	C	0.988537	0.415355	0.000123
C32	C	0.990014	0.332221	0.000130
C33	C	0.991859	0.227910	0.000136
N34	N	0.989301	-0.126215	-0.243408
C35	C	0.989288	-0.126216	0.663486
C36	C	0.989280	-0.126214	0.546681
C37	C	0.989279	-0.126208	0.453583
C38	C	0.989270	-0.126205	0.336770
H39	H	1.400731	-0.265947	0.070170
H40	H	1.432254	0.000269	-0.101207
Cl41	Cl	1.556108	-0.290626	-0.107110
H42	H	1.418132	-0.109382	-0.170311
H43	H	1.544381	-0.268970	0.070568
H44	H	1.401276	-0.266208	-0.070053
H45	H	1.561480	-0.113665	-0.170735
Cl46	Cl	1.592381	0.039481	0.097970
Cl47	Cl	1.592752	0.036907	-0.104534
Cl48	Cl	1.575305	-0.126194	0.211282
Cl49	Cl	1.404507	-0.131385	0.209857
H50	H	1.431089	-0.000751	0.104147
