data_functionalizedCrystal
_audit_creation_method	'MofGen! by Chris Wilmer'
_symmetry_space_group_name_H-M	'P1'
_symmetry_Int_Tables_number	1
_symmetry_cell_setting	triclinic
loop_
_symmetry_equiv_pos_as_xyz
  x,y,z
_cell_length_a	14.519709
_cell_length_b	10.540539
_cell_length_c	12.996460
_cell_angle_alpha	89.996006
_cell_angle_beta	90.000034
_cell_angle_gamma	84.102818
loop_
_atom_site_label
_atom_site_type_symbol
_atom_site_fract_x
_atom_site_fract_y
_atom_site_fract_z
O1	O	1.224765	0.166400	-0.085428
O2	O	0.956394	0.185995	-0.085459
O3	O	1.096702	-0.008571	-0.085441
O4	O	1.084457	0.360967	-0.085445
O5	O	1.096688	-0.008582	0.085693
O6	O	0.956379	0.185985	0.085675
O7	O	1.224751	0.166389	0.085706
Cu8	Cu	1.090563	0.176186	0.101316
Cu9	Cu	1.090581	0.176199	-0.101069
O10	O	1.084442	0.360956	0.085689
C11	C	0.922022	0.185077	0.000104
C12	C	0.819626	0.182340	0.000092
C13	C	1.095777	-0.055870	0.000124
C14	C	1.093029	-0.196790	0.000118
C15	C	0.444676	0.172265	0.000139
C16	C	0.548999	0.175063	0.000126
C17	C	0.632148	0.177303	0.000115
C18	C	0.736477	0.180101	0.000103
C19	C	0.987750	-0.379142	-0.000278
C20	C	0.990535	-0.232553	0.000107
C21	C	1.142346	-0.258958	0.097849
C22	C	1.138848	-0.405467	0.097931
C23	C	1.140949	-0.405994	-0.096680
C24	C	1.141893	-0.259021	-0.097972
C25	C	1.259123	0.167308	0.000141
C26	C	1.361519	0.170044	0.000146
C27	C	1.085368	0.408255	0.000121
C28	C	1.088115	0.549175	0.000120
N29	N	1.090558	0.176176	0.243664
N30	N	1.090594	0.176198	-0.243416
C31	C	1.090580	0.176200	0.663478
C32	C	1.090571	0.176198	0.546673
C33	C	1.090569	0.176189	0.453574
C34	C	1.090560	0.176185	0.336762
H35	H	0.951730	-0.189549	-0.069951
O36	O	1.231037	-0.230970	-0.104828
C37	C	1.251257	-0.154036	-0.020713
H38	H	1.201756	-0.168824	0.045284
H39	H	1.242825	-0.049538	-0.044953
C40	C	1.412399	-0.173017	-0.066294
C41	C	1.351606	-0.191188	0.014767
H42	H	1.474300	-0.195929	-0.044411
H43	H	1.398777	-0.224845	-0.122966
H44	H	1.405361	-0.085935	-0.086487
H45	H	1.358637	-0.278271	0.034949
H46	H	1.365232	-0.139375	0.071444
H47	H	1.108076	-0.216013	0.170570
O48	O	1.099062	-0.209707	-0.184306
C49	C	1.162922	-0.150250	-0.244700
H50	H	1.236293	-0.192202	-0.224948
H51	H	1.155281	-0.043427	-0.228340
C52	C	1.053770	-0.121408	-0.383713
C53	C	1.143887	-0.172942	-0.359459
H54	H	1.042027	-0.135400	-0.454502
H55	H	1.010745	-0.161461	-0.343024
H56	H	1.047414	-0.032393	-0.370072
H57	H	1.150238	-0.261958	-0.373088
H58	H	1.186913	-0.132905	-0.400154
H59	H	0.947268	-0.407325	-0.070364
O60	O	1.101248	-0.443267	-0.184955
C61	C	1.025083	-0.510564	-0.160554
H62	H	0.998729	-0.482207	-0.080323
H63	H	1.047457	-0.617425	-0.162503
C64	C	0.979626	-0.512859	-0.338188
C65	C	0.947254	-0.478022	-0.239650
H66	H	0.931619	-0.492792	-0.386980
H67	H	1.030942	-0.467524	-0.354629
H68	H	0.998271	-0.601908	-0.339798
H69	H	0.928620	-0.388973	-0.238039
H70	H	0.895932	-0.523342	-0.223211
O71	O	0.943786	-0.182392	0.083784
C72	C	0.851115	-0.210978	0.079353
H73	H	0.846505	-0.298555	0.028888
H74	H	0.805965	-0.126399	0.045350
C75	C	0.822767	-0.130590	0.250598
C76	C	0.817106	-0.238161	0.188623
H77	H	0.801786	-0.147353	0.318000
H78	H	0.885200	-0.111326	0.253582
H79	H	0.785142	-0.060118	0.222250
H80	H	0.854739	-0.308627	0.216964
H81	H	0.754679	-0.257438	0.185646
O82	O	0.939779	-0.414774	0.082934
C83	C	0.996512	-0.504276	0.141490
H84	H	1.072359	-0.493179	0.124877
H85	H	0.981088	-0.604836	0.120107
C86	C	0.883705	-0.494823	0.277182
C87	C	0.976862	-0.481186	0.256784
H88	H	0.871583	-0.480585	0.348301
H89	H	0.845481	-0.434527	0.237730
H90	H	0.870864	-0.578623	0.259355
H91	H	0.989699	-0.397382	0.274598
H92	H	1.015088	-0.541467	0.296242
O93	O	1.095491	-0.438771	0.185138
C94	C	1.156189	-0.524092	0.242994
H95	H	1.230788	-0.511536	0.221318
H96	H	1.141531	-0.626196	0.225953
C97	C	1.049895	-0.511749	0.385112
C98	C	1.141520	-0.496320	0.358496
H99	H	1.040845	-0.494624	0.456360
H100	H	1.009000	-0.454271	0.346133
H101	H	1.037692	-0.596836	0.370904
H102	H	1.153719	-0.411231	0.372693
H103	H	1.182417	-0.553784	0.397481
O104	O	1.226827	-0.463461	0.103112
C105	C	1.277614	-0.427646	0.017276
H106	H	1.244212	-0.333090	-0.014484
H107	H	1.277889	-0.504213	-0.044707
C108	C	1.418867	-0.528962	0.089150
C109	C	1.377846	-0.412820	0.050148
H110	H	1.480695	-0.519821	0.109425
H111	H	1.384651	-0.553096	0.146978
H112	H	1.419086	-0.592755	0.037491
H113	H	1.377616	-0.349033	0.101811
H114	H	1.412065	-0.388675	-0.007671
O115	O	1.232120	-0.233152	0.102389
C116	C	1.246710	-0.166051	0.193817
H117	H	1.192133	-0.186058	0.253059
H118	H	1.241258	-0.059411	0.176911
C119	C	1.410770	-0.185208	0.163735
C120	C	1.343742	-0.209789	0.236500
H121	H	1.470624	-0.212182	0.190063
H122	H	1.400941	-0.230411	0.102136
H123	H	1.406214	-0.096341	0.149653
H124	H	1.348290	-0.298656	0.250571
H125	H	1.353574	-0.164602	0.298103
O126	O	1.229209	-0.463439	-0.097517
C127	C	1.227635	-0.596884	-0.101217
H128	H	1.158893	-0.620286	-0.134921
H129	H	1.235841	-0.637736	-0.020126
C130	C	1.392122	-0.627114	-0.127875
C131	C	1.307694	-0.655856	-0.169279
H132	H	1.441508	-0.663493	-0.169854
H133	H	1.393183	-0.537210	-0.125378
H134	H	1.398947	-0.661159	-0.060300
H135	H	1.300865	-0.621798	-0.236847
H136	H	1.306634	-0.745757	-0.171789
