data_functionalizedCrystal
_audit_creation_method	'MofGen! by Chris Wilmer'
_symmetry_space_group_name_H-M	'P1'
_symmetry_Int_Tables_number	1
_symmetry_cell_setting	triclinic
loop_
_symmetry_equiv_pos_as_xyz
  x,y,z
_cell_length_a	19.121112
_cell_length_b	19.121063
_cell_length_c	19.805407
_cell_angle_alpha	87.573559
_cell_angle_beta	92.441902
_cell_angle_gamma	90.126867
loop_
_atom_site_label
_atom_site_type_symbol
_atom_site_fract_x
_atom_site_fract_y
_atom_site_fract_z
Zn1	Zn	1.059725	-0.325040	0.439551
Zn2	Zn	1.559725	0.174960	0.939551
Zn3	Zn	1.054661	-0.442245	0.330968
Zn4	Zn	1.554661	0.057755	0.830968
Zn5	Zn	0.942521	-0.320017	0.321360
Zn6	Zn	1.442521	0.179983	0.821360
Zn7	Zn	0.937450	-0.437230	0.439099
Zn8	Zn	1.437450	0.062770	0.939099
O9	O	0.998589	-0.381133	0.382744
O10	O	1.498589	0.118867	0.882744
O11	O	1.157157	-0.344788	0.429357
O12	O	1.657157	0.155212	0.929357
O13	O	1.039789	-0.426027	0.234977
O14	O	1.539789	0.073973	0.734977
O15	O	0.962309	-0.222579	0.333206
O16	O	1.462309	0.277421	0.833206
O17	O	1.153437	-0.430898	0.349582
O18	O	1.653437	0.069102	0.849582
O19	O	1.048418	-0.226269	0.420041
O20	O	1.548418	0.273731	0.920041
O21	O	0.957399	-0.336227	0.227918
O22	O	1.457399	0.163773	0.727918
O23	O	0.843744	-0.331365	0.332768
O24	O	1.343744	0.168635	0.832768
O25	O	0.953667	-0.422351	0.533876
O26	O	1.453667	0.077649	1.033876
O27	O	0.840019	-0.417481	0.419271
O28	O	1.340019	0.082519	0.919271
O29	O	1.043502	-0.339926	0.534207
O30	O	1.543502	0.160074	1.034207
O31	O	1.034872	-0.539684	0.349144
O32	O	1.534872	-0.039684	0.849144
O33	O	0.948757	-0.536000	0.428587
O34	O	1.448757	-0.036000	0.928587
C35	C	0.816444	-0.373334	0.374928
C36	C	1.316444	0.126666	0.874928
C37	C	0.738521	-0.370015	0.371601
C38	C	1.238521	0.129985	0.871601
C39	C	0.297901	-0.348955	0.350528
C40	C	0.797901	0.151045	0.850528
C41	C	0.371118	-0.352078	0.353657
C42	C	0.871118	0.147922	0.853657
C43	C	0.405800	-0.398549	0.400192
C44	C	0.905800	0.101451	0.900192
C45	C	0.367261	-0.441895	0.443605
C46	C	0.867261	0.058105	0.943605
C47	C	0.294046	-0.438768	0.440478
C48	C	0.794046	0.061232	0.940478
C49	C	0.626767	-0.410234	0.411887
C50	C	1.126767	0.089766	0.911887
C51	C	0.699987	-0.413359	0.415009
C52	C	1.199987	0.086641	0.915009
C53	C	0.703840	-0.323540	0.325062
C54	C	1.203840	0.176460	0.825062
C55	C	0.630622	-0.320421	0.321937
C56	C	1.130622	0.179579	0.821937
C57	C	0.592090	-0.363764	0.365351
C58	C	1.092090	0.136236	0.865351
C59	C	0.480639	-0.401744	0.403391
C60	C	0.980639	0.098256	0.903391
C61	C	0.517252	-0.360565	0.362155
C62	C	1.017252	0.139435	0.862155
C63	C	0.990734	-0.563280	0.389875
C64	C	1.490734	-0.063280	0.889875
C65	C	0.987437	-0.641206	0.392950
C66	C	1.487437	-0.141206	0.892950
C67	C	1.030759	-0.679712	0.353071
C68	C	1.530759	-0.179712	0.853071
C69	C	1.027663	-0.752932	0.355968
C70	C	1.527663	-0.252932	0.855968
C71	C	0.981241	-0.787645	0.398741
C72	C	1.481241	-0.287645	0.898741
C73	C	0.937918	-0.749133	0.438625
C74	C	1.437918	-0.249133	0.938625
C75	C	0.941018	-0.675915	0.435731
C76	C	1.441018	-0.175915	0.935731
C77	C	0.969639	-1.008622	0.409549
C78	C	1.469639	-0.508622	0.909549
C79	C	0.966541	-1.081846	0.412438
C80	C	1.466541	-0.581846	0.912438
C81	C	1.056287	-1.085640	0.329781
C82	C	1.556287	-0.585640	0.829781
C83	C	1.059380	-1.012420	0.326888
C84	C	1.559380	-0.512420	0.826888
C85	C	1.016060	-0.973915	0.366775
C86	C	1.516060	-0.473915	0.866775
C87	C	0.978074	-0.862487	0.401701
C88	C	1.478074	-0.362487	0.901701
C89	C	1.019231	-0.899074	0.363818
C90	C	1.519231	-0.399074	0.863818
C91	C	1.181445	-0.388963	0.390591
C92	C	1.681445	0.111037	0.890591
C93	C	1.259368	-0.392299	0.393935
C94	C	1.759368	0.107701	0.893935
C95	C	0.998583	-0.381139	0.559287
C96	C	1.498583	0.118861	1.059287
C97	C	0.998581	-0.381142	0.634519
C98	C	1.498581	0.118858	1.134519
C99	C	1.006494	-0.198275	0.375602
C100	C	1.506494	0.301725	0.875602
C101	C	1.009863	-0.120352	0.372558
C102	C	1.509863	0.379648	0.872558
C103	C	1.045356	-0.338218	1.096484
C104	C	1.545356	0.161782	1.596484
C105	C	1.045358	-0.338222	1.025796
C106	C	1.545358	0.161778	1.525796
C107	C	0.998586	-0.381137	0.990281
C108	C	1.498586	0.118863	1.490281
C109	C	0.951814	-0.424057	1.025459
C110	C	1.451814	0.075943	1.525459
C111	C	0.951816	-0.424057	1.096146
C112	C	1.451816	0.075943	1.596146
C113	C	0.951807	-0.424059	0.740385
C114	C	1.451807	0.075941	1.240385
C115	C	0.951807	-0.424054	0.669693
C116	C	1.451807	0.075946	1.169693
C117	C	1.045349	-0.338224	0.670035
C118	C	1.545349	0.161776	1.170035
C119	C	1.045351	-0.338224	0.740722
C120	C	1.545351	0.161776	1.240722
C121	C	0.998581	-0.381146	0.775894
C122	C	1.498581	0.118854	1.275894
C123	C	0.998580	-0.381143	0.852542
C124	C	1.498580	0.118857	1.352542
C125	C	0.998583	-0.381137	0.913634
C126	C	1.498583	0.118863	1.413634
C127	C	0.998588	-0.381140	1.206889
C128	C	1.498588	0.118860	1.706889
C129	C	0.998586	-0.381133	1.131656
C130	C	1.498586	0.118867	1.631656
H131	H	0.728223	-0.451201	0.452907
H132	H	1.228223	0.048799	0.952907
Br133	Br	0.470184	-0.297494	0.299007
Br134	Br	0.970184	0.202506	0.799007
H135	H	0.913735	-0.459002	0.996537
H136	H	1.413735	0.040998	1.496537
Br137	Br	1.082234	-0.851964	0.305774
Br138	Br	1.582234	-0.351964	0.805774
Br139	Br	0.903524	-1.128955	0.470480
Br140	Br	1.403524	-0.628955	0.970480
H141	H	0.595402	-0.445530	0.447236
H142	H	1.095402	0.054470	0.947236
Br143	Br	0.527713	-0.464822	0.466533
Br144	Br	1.027713	0.035178	0.966533
H145	H	1.083432	-0.303276	0.641390
H146	H	1.583432	0.196724	1.141390
H147	H	0.940276	-0.890758	0.436526
H148	H	1.440276	-0.390758	0.936526
H149	H	0.934365	-0.977277	0.442025
H150	H	1.434365	-0.477277	0.942025
Br151	Br	0.874922	-0.796242	0.496682
Br152	Br	1.374922	-0.296242	0.996682
H153	H	1.083439	-0.303267	1.125394
H154	H	1.583439	0.196733	1.625394
Br155	Br	1.108835	-0.279986	0.788918
Br156	Br	1.608835	0.220014	1.288918
Br157	Br	0.250840	-0.285890	0.287365
Br158	Br	0.750840	0.214110	0.787365
H159	H	0.602390	-0.282584	0.284039
H160	H	1.102390	0.217416	0.784039
H161	H	1.083445	-0.303278	0.997161
H162	H	1.583445	0.196722	1.497161
Br163	Br	0.882227	-0.623655	0.489860
Br164	Br	1.382227	-0.123655	0.989860
H165	H	0.402489	-0.316785	0.318307
H166	H	0.902489	0.183215	0.818307
H167	H	0.735220	-0.288252	0.289717
H168	H	1.235220	0.211748	0.789717
Br169	Br	1.093757	-0.632610	0.295012
Br170	Br	1.593757	-0.132610	0.795012
Br171	Br	0.888326	-0.482299	0.621494
Br172	Br	1.388326	0.017701	1.121494
H173	H	0.395505	-0.479730	0.481497
H174	H	0.895505	0.020270	0.981497
Br175	Br	0.888339	-0.482316	0.788110
Br176	Br	1.388339	0.017684	1.288110
Br177	Br	1.122393	-0.965316	0.268845
Br178	Br	1.622393	-0.465316	0.768845
H179	H	0.913732	-0.459003	1.124782
H180	H	1.413732	0.040997	1.624782
Br181	Br	1.115080	-1.137900	0.275656
Br182	Br	1.615080	-0.637900	0.775656
H183	H	0.262672	-0.474062	0.475827
H184	H	0.762672	0.025938	0.975827
H185	H	1.062940	-0.784281	0.323493
H186	H	1.562940	-0.284281	0.823493
