data_functionalizedCrystal
_audit_creation_method	'MofGen! by Chris Wilmer'
_symmetry_space_group_name_H-M	'P1'
_symmetry_Int_Tables_number	1
_symmetry_cell_setting	triclinic
loop_
_symmetry_equiv_pos_as_xyz
  x,y,z
_cell_length_a	16.109301
_cell_length_b	14.971486
_cell_length_c	14.586319
_cell_angle_alpha	89.995999
_cell_angle_beta	90.000787
_cell_angle_gamma	96.462195
loop_
_atom_site_label
_atom_site_type_symbol
_atom_site_fract_x
_atom_site_fract_y
_atom_site_fract_z
O1	O	1.103274	-0.114970	0.076183
O2	O	0.861230	-0.129278	0.076197
O3	O	0.988739	0.008085	0.076183
O4	O	0.975765	-0.252334	0.076197
O5	O	0.988731	0.008087	-0.076298
O6	O	0.861221	-0.129276	-0.076283
O7	O	1.103265	-0.114968	-0.076298
Cu8	Cu	0.982242	-0.122122	-0.090213
Cu9	Cu	0.982253	-0.122124	0.090113
O10	O	0.975756	-0.252332	-0.076284
C11	C	0.830250	-0.128698	-0.000041
C12	C	0.737952	-0.126960	-0.000036
C13	C	0.515777	-0.204428	-0.000042
C14	C	0.429054	-0.202789	-0.000048
C15	C	0.448725	-0.039812	-0.000053
C16	C	0.535446	-0.041452	-0.000054
C17	C	0.568969	-0.123763	-0.000044
C18	C	0.395526	-0.120483	-0.000049
C19	C	0.301498	-0.118705	-0.000055
C20	C	0.663003	-0.125542	-0.000039
C21	C	0.988155	0.041410	-0.000057
C22	C	0.986416	0.140705	-0.000056
C23	C	1.134245	-0.115549	-0.000057
C24	C	1.226543	-0.117286	-0.000057
C25	C	0.976340	-0.285657	-0.000042
C26	C	0.978079	-0.384951	-0.000037
N27	N	0.982241	-0.122120	-0.217045
C28	C	1.061324	0.198038	-0.000061
C29	C	1.059685	0.291335	-0.000052
C30	C	0.983137	0.327297	-0.000044
C31	C	0.908223	0.269956	-0.000036
C32	C	0.909863	0.176661	-0.000039
C33	C	0.904811	0.464414	-0.000032
C34	C	0.903171	0.557716	-0.000031
C35	C	1.054633	0.579088	-0.000046
C36	C	1.056273	0.485793	-0.000048
C37	C	0.981359	0.428458	-0.000042
C38	C	1.038721	-0.061316	-0.452058
C39	C	1.038723	-0.061314	-0.548039
C40	C	0.925775	-0.182927	-0.548036
C41	C	0.925769	-0.182924	-0.452056
C42	C	0.982247	-0.122119	-0.404070
C43	C	0.982255	-0.122120	-0.596031
C44	C	0.982257	-0.122118	-0.700098
C45	C	0.982244	-0.122120	-0.299996
N46	N	0.982261	-0.122120	0.216945
H47	H	0.421420	0.027203	-0.000067
H48	H	0.843807	0.417734	-0.000025
H49	H	1.084707	-0.011804	-0.412989
H50	H	1.084709	-0.011801	-0.587108
H51	H	0.578758	0.024239	-0.000057
H52	H	1.123658	0.168766	-0.000073
H53	H	1.120683	0.338013	-0.000058
H54	H	0.848865	0.129980	-0.000034
H55	H	1.118605	0.456516	-0.000061
H56	H	0.879793	-0.232434	-0.587116
H57	H	1.115632	0.625774	-0.000048
H58	H	0.385748	-0.268475	-0.000049
H59	H	0.840839	0.586992	-0.000040
H60	H	0.543068	-0.271451	-0.000041
H61	H	0.845896	0.299244	-0.000024
H62	H	0.879777	-0.232438	-0.412982
