data_functionalizedCrystal
_audit_creation_method	'MofGen! by Chris Wilmer'
_symmetry_space_group_name_H-M	'P1'
_symmetry_Int_Tables_number	1
_symmetry_cell_setting	triclinic
loop_
_symmetry_equiv_pos_as_xyz
  x,y,z
_cell_length_a	14.044220
_cell_length_b	14.044220
_cell_length_c	12.503572
_cell_angle_alpha	93.835250
_cell_angle_beta	93.843168
_cell_angle_gamma	86.811122
loop_
_atom_site_label
_atom_site_type_symbol
_atom_site_fract_x
_atom_site_fract_y
_atom_site_fract_z
O1	O	0.225116	-1.282200	-0.089210
O2	O	0.475116	-1.032200	0.160790
O3	O	0.725116	-0.782200	0.410790
O4	O	0.975116	-0.532200	0.660790
O5	O	0.216809	-1.005530	-0.089237
O6	O	0.466809	-0.755530	0.160763
O7	O	0.716809	-0.505530	0.410763
O8	O	0.966809	-0.255530	0.660763
O9	O	0.082627	-1.139712	-0.089213
O10	O	0.332627	-0.889712	0.160787
O11	O	0.582627	-0.639712	0.410787
O12	O	0.832627	-0.389712	0.660787
O13	O	0.359298	-1.148019	-0.089234
O14	O	0.609298	-0.898019	0.160766
O15	O	0.859298	-0.648019	0.410766
O16	O	1.109298	-0.398019	0.660766
O17	O	0.092737	-1.129622	0.089427
O18	O	0.342737	-0.879622	0.339427
O19	O	0.592737	-0.629622	0.589427
O20	O	0.842737	-0.379622	0.839427
O21	O	0.226918	-0.995440	0.089403
O22	O	0.476918	-0.745440	0.339403
O23	O	0.726918	-0.495440	0.589403
O24	O	0.976918	-0.245440	0.839403
O25	O	0.235226	-1.272110	0.089430
O26	O	0.485226	-1.022110	0.339430
O27	O	0.735226	-0.772110	0.589430
O28	O	0.985226	-0.522110	0.839430
Cu29	Cu	0.231995	-1.132854	0.105728
Cu30	Cu	0.481995	-0.882854	0.355728
Cu31	Cu	0.731995	-0.632854	0.605728
Cu32	Cu	0.981995	-0.382854	0.855728
Cu33	Cu	0.220040	-1.144786	-0.105535
Cu34	Cu	0.470040	-0.894786	0.144465
Cu35	Cu	0.720040	-0.644786	0.394465
Cu36	Cu	0.970040	-0.394786	0.644465
O37	O	0.369407	-1.137929	0.089406
O38	O	0.619407	-0.887929	0.339406
O39	O	0.869407	-0.637929	0.589406
O40	O	1.119407	-0.387929	0.839406
C41	C	0.052060	-1.131031	0.000107
C42	C	0.302060	-0.881031	0.250107
C43	C	0.552060	-0.631031	0.500107
C44	C	0.802060	-0.381031	0.750107
C45	C	-0.054082	-1.120187	0.000107
C46	C	0.195918	-0.870187	0.250107
C47	C	0.445918	-0.620187	0.500107
C48	C	0.695918	-0.370187	0.750107
C49	C	0.218228	-0.964864	0.000080
C50	C	0.468228	-0.714864	0.250080
C51	C	0.718228	-0.464864	0.500080
C52	C	0.968228	-0.214864	0.750080
C53	C	0.207383	-0.858721	0.000070
C54	C	0.457383	-0.608721	0.250070
C55	C	0.707383	-0.358721	0.500070
C56	C	0.957383	-0.108721	0.750070
C57	C	-0.248421	-1.100361	0.000090
C58	C	0.001579	-0.850361	0.250090
C59	C	0.251579	-0.600361	0.500090
C60	C	0.501579	-0.350361	0.750090
C61	C	-0.299551	-1.177275	0.000094
C62	C	-0.049551	-0.927275	0.250094
C63	C	0.200449	-0.677275	0.500094
C64	C	0.450449	-0.427275	0.750094
C65	C	-0.407687	-1.166244	0.000084
C66	C	-0.157687	-0.916244	0.250084
C67	C	0.092313	-0.666244	0.500084
C68	C	0.342313	-0.416244	0.750084
C69	C	-0.140274	-1.111391	0.000099
C70	C	0.109726	-0.861391	0.250099
C71	C	0.359726	-0.611391	0.500099
C72	C	0.609726	-0.361391	0.750099
C73	C	0.233807	-1.312777	0.000111
C74	C	0.483807	-1.062777	0.250111
C75	C	0.733807	-0.812777	0.500111
C76	C	0.983807	-0.562777	0.750111
C77	C	0.244651	-1.418920	0.000114
C78	C	0.494651	-1.168920	0.250114
C79	C	0.744651	-0.918920	0.500114
C80	C	0.994651	-0.668920	0.750114
C81	C	0.399974	-1.146609	0.000084
C82	C	0.649974	-0.896609	0.250084
C83	C	0.899974	-0.646609	0.500084
C84	C	1.149974	-0.396609	0.750084
C85	C	0.506117	-1.157454	0.000077
C86	C	0.756117	-0.907454	0.250077
C87	C	1.006117	-0.657454	0.500077
C88	C	1.256117	-0.407454	0.750077
N89	N	0.240404	-1.124469	0.254319
N90	N	0.490404	-0.874469	0.504319
N91	N	0.740404	-0.624469	0.754319
N92	N	0.990404	-0.374469	1.004319
C93	C	0.187558	-0.664382	0.000092
C94	C	0.437558	-0.414382	0.250092
C95	C	0.687558	-0.164382	0.500092
C96	C	0.937558	0.085618	0.750092
C97	C	0.264472	-0.613253	0.000091
C98	C	0.514472	-0.363253	0.250091
C99	C	0.764472	-0.113253	0.500091
C100	C	1.014472	0.136747	0.750091
C101	C	0.253441	-0.505116	0.000104
C102	C	0.503441	-0.255116	0.250104
C103	C	0.753441	-0.005116	0.500104
C104	C	1.003441	0.244884	0.750104
C105	C	0.198587	-0.772529	0.000080
C106	C	0.448587	-0.522529	0.250080
C107	C	0.698587	-0.272529	0.500080
C108	C	0.948587	-0.022529	0.750080
N109	N	0.211624	-1.153179	-0.254126
N110	N	0.461624	-0.903179	-0.004126
N111	N	0.711624	-0.653179	0.245874
N112	N	0.961624	-0.403179	0.495874
C113	C	0.252782	-1.112134	0.473432
C114	C	0.502782	-0.862134	0.723432
C115	C	0.752782	-0.612134	0.973432
C116	C	1.002782	-0.362134	1.223432
C117	C	0.199249	-1.165511	0.526768
C118	C	0.449249	-0.915511	0.776768
C119	C	0.699249	-0.665511	1.026768
C120	C	0.949249	-0.415511	1.276768
C121	C	0.206136	-1.158648	0.648690
C122	C	0.456136	-0.908648	0.898690
C123	C	0.706136	-0.658648	1.148690
C124	C	0.956136	-0.408648	1.398690
C125	C	0.245896	-1.118996	0.351499
C126	C	0.495896	-0.868996	0.601499
C127	C	0.745896	-0.618996	0.851499
C128	C	0.995896	-0.368996	1.101499
H129	H	-0.262115	-1.251413	0.000029
H130	H	-0.012115	-1.001413	0.250029
H131	H	0.237885	-0.751413	0.500029
H132	H	0.487885	-0.501413	0.750029
H133	H	0.338605	-0.650692	0.000081
H134	H	0.588605	-0.400692	0.250081
H135	H	0.838605	-0.150692	0.500081
H136	H	1.088605	0.099308	0.750081
H137	H	-0.285859	-1.026234	0.000080
H138	H	-0.035859	-0.776234	0.250080
H139	H	0.214141	-0.526234	0.500080
H140	H	0.464141	-0.276234	0.750080
C141	C	0.087413	-0.613806	0.000097
C142	C	0.337413	-0.363806	0.250097
C143	C	0.587413	-0.113806	0.500097
C144	C	0.837413	0.136194	0.750097
N145	N	0.011985	-0.575700	0.000096
N146	N	0.261985	-0.325700	0.250096
N147	N	0.511985	-0.075700	0.500096
N148	N	0.761985	0.174300	0.750096
C149	C	0.130355	-1.234222	0.464757
C150	C	0.380355	-0.984222	0.714757
C151	C	0.630355	-0.734222	0.964757
C152	C	0.880355	-0.484222	1.214757
N153	N	0.078473	-1.285979	0.418045
N154	N	0.328473	-1.035979	0.668045
N155	N	0.578473	-0.785979	0.918045
N156	N	0.828473	-0.535979	1.168045
C157	C	0.321680	-1.043437	0.535443
C158	C	0.571680	-0.793437	0.785443
C159	C	0.821680	-0.543437	1.035443
C160	C	1.071680	-0.293437	1.285443
N161	N	0.373575	-0.991696	0.582162
N162	N	0.623575	-0.741696	0.832162
N163	N	0.873575	-0.491696	1.082162
N164	N	1.123575	-0.241696	1.332162
