data_functionalizedCrystal
_audit_creation_method	'MofGen! by Chris Wilmer'
_symmetry_space_group_name_H-M	'P1'
_symmetry_Int_Tables_number	1
_symmetry_cell_setting	triclinic
loop_
_symmetry_equiv_pos_as_xyz
  x,y,z
_cell_length_a	21.295417
_cell_length_b	19.077105
_cell_length_c	21.295420
_cell_angle_alpha	87.688020
_cell_angle_beta	90.017552
_cell_angle_gamma	92.273328
loop_
_atom_site_label
_atom_site_type_symbol
_atom_site_fract_x
_atom_site_fract_y
_atom_site_fract_z
Zn1	Zn	-0.289439	-1.075919	0.394522
Zn2	Zn	-0.394680	-1.075829	0.289244
Zn3	Zn	-0.285195	-0.958231	0.285043
Zn4	Zn	-0.390436	-0.958178	0.390253
O5	O	-0.339938	-1.017039	0.339766
O6	O	-0.306952	-1.174397	0.384100
O7	O	-0.380157	-1.060213	0.200597
O8	O	-0.197671	-0.973902	0.299594
O9	O	-0.384272	-1.174331	0.306753
O10	O	-0.200789	-1.060367	0.380027
O11	O	-0.299719	-0.973815	0.197511
O12	O	-0.295603	-0.859733	0.295456
O13	O	-0.377038	-0.973812	0.478910
O14	O	-0.372923	-0.859695	0.372753
O15	O	-0.302836	-1.060316	0.482045
O16	O	-0.482205	-1.060162	0.302615
O17	O	-0.479086	-0.973724	0.376826
C18	C	-0.333343	-0.834177	0.333186
C19	C	-0.330536	-0.755947	0.330386
C20	C	-0.503486	-1.016947	0.339727
C21	C	-0.573455	-1.016972	0.339734
C22	C	-0.339937	-1.017068	0.503957
C23	C	-0.339937	-1.017081	0.573925
C24	C	-0.607926	-1.062020	0.301135
C25	C	-0.673670	-1.062053	0.301151
C26	C	-0.704939	-1.017025	0.339758
C27	C	-0.670461	-0.971974	0.378365
C28	C	-0.604718	-0.971947	0.378353
N29	N	-0.805990	-0.955455	0.342341
N30	N	-0.868442	-0.955483	0.342349
C31	C	-0.903017	-1.017104	0.339797
N32	N	-0.872780	-1.078698	0.337225
N33	N	-0.810322	-1.078670	0.337214
C34	C	-0.776226	-1.017049	0.339775
C35	C	-1.008775	-1.062191	0.301212
C36	C	-1.074520	-1.062226	0.301232
C37	C	-1.071309	-0.972141	0.378443
C38	C	-1.005566	-0.972113	0.378427
C39	C	-0.974302	-1.017137	0.339808
C40	C	-0.175752	-1.017151	0.339818
C41	C	-0.105785	-1.017198	0.339841
C42	C	-0.346559	-1.200615	0.346371
C43	C	-0.349381	-1.278845	0.349187
C44	C	-0.369535	-0.719193	0.369252
C45	C	-0.366890	-0.645688	0.366624
C46	C	-0.325249	-0.608939	0.325126
C47	C	-0.286246	-0.645698	0.286259
C48	C	-0.288889	-0.719202	0.288890
C49	C	-0.313020	-0.389108	0.312951
C50	C	-0.310382	-0.315599	0.310321
C51	C	-0.391025	-0.315594	0.390687
C52	C	-0.393667	-0.389099	0.393312
C53	C	-0.354661	-0.425852	0.354447
N54	N	-0.322546	-0.533805	0.322438
N55	N	-0.357362	-0.500984	0.357139
C56	C	-0.298056	-0.972100	0.605175
C57	C	-0.298059	-0.972087	0.670917
C58	C	-0.339937	-1.017068	0.705407
C59	C	-0.381825	-1.062052	0.674150
C60	C	-0.381826	-1.062058	0.608409
N61	N	-0.346985	-1.078662	0.810856
N62	N	-0.346981	-1.078654	0.873307
C63	C	-0.339939	-1.017050	0.903481
N64	N	-0.332889	-0.955452	0.868845
N65	N	-0.332890	-0.955461	0.806389
C66	C	-0.339941	-1.017065	0.776693
C67	C	-0.298059	-0.972051	1.006016
C68	C	-0.298067	-0.972037	1.071760
C69	C	-0.381830	-1.062008	1.074991
C70	C	-0.381826	-1.062016	1.009249
C71	C	-0.339937	-1.017038	0.974765
C72	C	-0.339950	-1.017011	1.176213
C73	C	-0.339945	-1.017017	1.106245
H74	H	-0.582474	-1.098683	0.269691
Br75	Br	-0.253873	-0.265725	0.253992
Br76	Br	-0.260081	-0.438977	0.260208
Br77	Br	-0.958780	-0.910971	0.430813
H78	H	-0.263952	-0.935459	0.696366
Br79	Br	-0.235956	-0.769084	0.236145
H80	H	-0.403446	-0.749109	0.403041
Br81	Br	-0.966342	-1.123292	0.248801
Br82	Br	-0.241215	-0.911009	0.959214
Br83	Br	-0.241244	-0.910962	1.114171
H84	H	-0.422780	-0.285662	0.422329
H85	H	-0.252339	-0.615771	0.252474
Br86	Br	-0.438665	-1.123092	0.720955
Br87	Br	-1.121304	-1.123375	0.248850
H88	H	-0.415930	-1.098690	0.582965
H89	H	-0.398647	-0.615766	0.398272
Br90	Br	-0.450185	-0.438968	0.449628
H91	H	-0.263949	-0.935473	0.577103
H92	H	-0.415928	-1.098646	0.983805
H93	H	-0.701741	-1.098739	0.269719
Br94	Br	-0.557933	-0.910807	0.430743
Br95	Br	-0.712896	-0.910870	0.430766
Br96	Br	-1.113740	-0.911038	0.430847
Br97	Br	-0.438671	-1.123048	1.121791
