data_functionalizedCrystal
_audit_creation_method	'MofGen! by Chris Wilmer'
_symmetry_space_group_name_H-M	'P1'
_symmetry_Int_Tables_number	1
_symmetry_cell_setting	triclinic
loop_
_symmetry_equiv_pos_as_xyz
  x,y,z
_cell_length_a	19.805407
_cell_length_b	15.299816
_cell_length_c	19.805399
_cell_angle_alpha	80.341151
_cell_angle_beta	90.019573
_cell_angle_gamma	80.351020
loop_
_atom_site_label
_atom_site_type_symbol
_atom_site_fract_x
_atom_site_fract_y
_atom_site_fract_z
Zn1	Zn	1.081371	-0.359085	0.429407
Zn2	Zn	1.100873	-0.509910	0.335829
Zn3	Zn	0.968188	-0.359109	0.316235
Zn4	Zn	0.987730	-0.509862	0.448969
O5	O	1.034541	-0.434491	0.382610
O6	O	1.178675	-0.379101	0.417007
O7	O	1.083256	-0.489936	0.238517
O8	O	0.966862	-0.232895	0.314860
O9	O	1.193004	-0.489912	0.348255
O10	O	1.050016	-0.232877	0.398008
O11	O	0.985773	-0.379144	0.224121
O12	O	0.876063	-0.379097	0.333829
O13	O	1.000168	-0.489830	0.541087
O14	O	0.890420	-0.489855	0.431349
O15	O	1.068965	-0.379055	0.526715
O16	O	1.102205	-0.636115	0.367224
O17	O	1.019079	-0.636079	0.450348
C18	C	0.858682	-0.434474	0.382586
C19	C	0.783452	-0.434488	0.382594
C20	C	0.755613	-0.492246	0.433314
C21	C	0.684925	-0.492248	0.433324
C22	C	0.642078	-0.434495	0.382611
C23	C	0.669921	-0.376731	0.331888
C24	C	0.740607	-0.376726	0.331882
C25	C	0.384850	-0.376751	0.331913
C26	C	0.314160	-0.376763	0.331922
C27	C	0.329168	-0.492273	0.433355
C28	C	0.399854	-0.492268	0.433349
C29	C	0.427691	-0.434501	0.382629
C30	C	0.504339	-0.434498	0.382620
C31	C	0.565431	-0.434502	0.382616
C32	C	1.064897	-0.668822	0.413050
C33	C	1.077946	-0.769070	0.426095
C34	C	0.941724	-1.051988	0.289606
C35	C	0.929460	-0.957800	0.277352
C36	C	0.966581	-0.910613	0.314536
C37	C	1.015966	-0.957623	0.363978
C38	C	1.028227	-1.051820	0.376237
C39	C	1.053084	-0.910445	0.401167
C40	C	1.102470	-0.957454	0.450609
C41	C	1.114729	-1.051642	0.462866
C42	C	1.077608	-1.098829	0.425682
C43	C	1.040824	-0.816248	0.388908
C44	C	1.127327	-0.816079	0.475539
C45	C	1.139591	-0.910267	0.487793
C46	C	1.211086	-0.434509	0.382635
C47	C	1.286319	-0.434517	0.382645
C48	C	1.034571	-0.434435	0.559145
C49	C	1.034584	-0.434410	0.634374
C50	C	1.004084	-0.199246	0.352066
C51	C	0.991105	-0.098998	0.339050
C52	C	1.034541	-0.434483	0.206753
C53	C	1.034626	-0.434253	0.131491
C54	C	1.070407	-0.376727	0.662236
C55	C	1.070411	-0.376701	0.732921
C56	C	1.034595	-0.434363	0.775744
C57	C	0.998767	-0.492049	0.747878
C58	C	0.998760	-0.492070	0.677194
C59	C	0.998795	-0.491965	1.032941
C60	C	0.998806	-0.491942	1.103630
C61	C	1.070445	-0.376596	1.088668
C62	C	1.070438	-0.376617	1.017983
C63	C	1.034608	-0.434299	0.990123
C64	C	1.034603	-0.434325	0.913478
C65	C	1.034603	-0.434342	0.852388
H66	H	0.434738	-0.539299	0.474643
H67	H	0.763272	-0.329688	0.290584
H68	H	0.911502	-1.090417	0.259339
C69	C	1.109468	-0.314070	1.118895
C70	C	1.178982	-0.333740	1.104282
C71	C	1.214952	-0.276172	1.132123
H72	H	1.091803	-0.253441	1.099464
H73	H	1.104389	-0.322318	1.167132
H74	H	1.184057	-0.325485	1.056055
H75	H	1.196667	-0.394358	1.123714
H76	H	1.209873	-0.284420	1.180360
H77	H	1.197281	-0.215547	1.112689
H78	H	1.262121	-0.289516	1.122217
C79	C	0.959948	-0.554620	0.794487
C80	C	0.967636	-0.542275	0.862356
C81	C	0.931894	-0.599910	0.905311
H82	H	0.912740	-0.541475	0.781269
H83	H	0.977707	-0.615243	0.790813
H84	H	0.949875	-0.481666	0.866027
H85	H	1.014836	-0.555427	0.875595
H86	H	0.949652	-0.660534	0.901637
H87	H	0.884688	-0.586760	0.892087
H88	H	0.937111	-0.591548	0.951365
H89	H	0.306494	-0.539307	0.474656
H90	H	1.000613	-0.777981	0.348652
H91	H	0.635029	-0.329704	0.290599
H92	H	0.279274	-0.329728	0.290625
H93	H	1.087593	-1.175525	0.435654
C94	C	0.414941	-0.313999	0.276769
C95	C	0.362288	-0.263443	0.232350
C96	C	0.389984	-0.205630	0.181537
H97	H	0.437429	-0.274664	0.297525
H98	H	0.446952	-0.348419	0.251666
H99	H	0.330288	-0.229026	0.257450
H100	H	0.339795	-0.302755	0.211578
H101	H	0.421996	-0.240050	0.156434
H102	H	0.412472	-0.166301	0.202299
H103	H	0.354265	-0.171327	0.151389
H104	H	0.956594	-0.833921	0.304554
C105	C	0.875757	-0.906720	0.223779
C106	C	0.825305	-0.852680	0.255030
C107	C	0.775816	-0.805622	0.205699
H108	H	0.896793	-0.869897	0.189505
H109	H	0.855365	-0.948285	0.203398
H110	H	0.845696	-0.811120	0.275401
H111	H	0.804252	-0.889480	0.289300
H112	H	0.755424	-0.847187	0.185317
H113	H	0.796858	-0.768804	0.171428
H114	H	0.741575	-0.768956	0.226897
H115	H	1.157553	-0.777660	0.505819
H116	H	0.969638	-0.538900	1.138496
H117	H	1.154939	-1.089915	0.503128
C118	C	1.193152	-0.961475	0.541471
C119	C	1.195929	-1.054061	0.544256
C120	C	1.245254	-1.101261	0.593701
H121	H	1.236662	-0.946106	0.529651
H122	H	1.181207	-0.946065	0.584949
H123	H	1.207877	-1.069464	0.500787
H124	H	1.152430	-1.069456	0.556084
H125	H	1.233310	-1.085852	0.637179
H126	H	1.288761	-1.085885	0.581877
H127	H	1.247140	-1.164085	0.595602
C128	C	1.109395	-0.314267	0.615727
C129	C	1.159398	-0.365347	0.581797
C130	C	1.195330	-0.307836	0.538955
H131	H	1.078486	-0.274960	0.582989
H132	H	1.130770	-0.279922	0.642425
H133	H	1.138024	-0.399677	0.555100
H134	H	1.190322	-0.404652	0.614517
H135	H	1.216706	-0.273491	0.565654
H136	H	1.164416	-0.268531	0.506222
H137	H	1.229266	-0.342486	0.515934
C138	C	1.109379	-0.314042	0.763044
C139	C	1.140762	-0.263570	0.710415
C140	C	1.176674	-0.205846	0.738139
H141	H	1.078469	-0.274649	0.785501
H142	H	1.143372	-0.348521	0.795087
H143	H	1.106773	-0.229094	0.678384
H144	H	1.171682	-0.302939	0.687953
H145	H	1.210667	-0.240325	0.770182
H146	H	1.145760	-0.166459	0.760596
H147	H	1.197977	-0.171600	0.702436
C148	C	0.959870	-0.554676	1.002831
C149	C	0.928517	-0.605178	1.055467
C150	C	0.892653	-0.662960	1.027754
H151	H	0.925862	-0.520265	0.970789
H152	H	0.990824	-0.594040	0.980378
H153	H	0.897565	-0.565819	1.077909
H154	H	0.962509	-0.639608	1.087513
H155	H	0.923607	-0.702324	1.005300
H156	H	0.858649	-0.628542	0.995712
H157	H	0.871381	-0.697239	1.063463
C158	C	1.109199	-0.313943	0.971401
C159	C	1.063379	-0.256162	0.923305
C160	C	1.099057	-0.198413	0.880379
H161	H	1.130534	-0.279497	0.998033
H162	H	1.143145	-0.348416	0.948263
H163	H	1.029446	-0.221692	0.946440
H164	H	1.042043	-0.290583	0.896656
H165	H	1.133002	-0.232886	0.857241
H166	H	1.120389	-0.163973	0.907017
H167	H	1.067974	-0.159207	0.847737
C168	C	0.802012	-0.554985	0.488455
C169	C	0.762496	-0.605548	0.532886
C170	C	0.805211	-0.663342	0.583698
H171	H	0.834675	-0.594317	0.467700
H172	H	0.825123	-0.520551	0.513550
H173	H	0.739396	-0.639979	0.507795
H174	H	0.729834	-0.566240	0.553658
H175	H	0.828322	-0.628908	0.608793
H176	H	0.837873	-0.702668	0.562937
H177	H	0.778405	-0.697650	0.613854
C178	C	0.654649	-0.554815	0.488455
C179	C	0.607496	-0.503836	0.525301
C180	C	0.579602	-0.561444	0.576102
H181	H	0.632096	-0.594086	0.467697
H182	H	0.690272	-0.589195	0.518689
H183	H	0.571879	-0.469471	0.495072
H184	H	0.630033	-0.464567	0.546074
H185	H	0.615225	-0.595824	0.606337
H186	H	0.557052	-0.600712	0.555339
H187	H	0.547610	-0.526863	0.601113
H188	H	0.969581	-0.539033	0.654509
