data_functionalizedCrystal
_audit_creation_method	'MofGen! by Chris Wilmer'
_symmetry_space_group_name_H-M	'P1'
_symmetry_Int_Tables_number	1
_symmetry_cell_setting	triclinic
loop_
_symmetry_equiv_pos_as_xyz
  x,y,z
_cell_length_a	11.169417
_cell_length_b	17.077402
_cell_length_c	17.077396
_cell_angle_alpha	90.029784
_cell_angle_beta	90.016250
_cell_angle_gamma	90.023762
loop_
_atom_site_label
_atom_site_type_symbol
_atom_site_fract_x
_atom_site_fract_y
_atom_site_fract_z
Zn1	Zn	-1.834815	0.312490	-0.443768
Zn2	Zn	-1.834673	0.443765	-0.312499
Zn3	Zn	-1.634114	0.312519	-0.312523
Zn4	Zn	-1.634065	0.443720	-0.443730
O5	O	-1.734417	0.378123	-0.378130
O6	O	-2.002746	0.329910	-0.426360
O7	O	-1.808030	0.426386	-0.202655
O8	O	-1.660817	0.202668	-0.329959
O9	O	-2.002642	0.426357	-0.329917
O10	O	-1.808272	0.202647	-0.426384
O11	O	-1.660679	0.329960	-0.202673
O12	O	-1.466158	0.329916	-0.329922
O13	O	-1.660734	0.426281	-0.553582
O14	O	-1.466122	0.426309	-0.426319
O15	O	-1.808224	0.329867	-0.553609
O16	O	-1.807982	0.553606	-0.329881
O17	O	-1.660596	0.553572	-0.426295
C18	C	-1.734301	0.582071	-0.378098
C19	C	-1.734361	0.669321	-0.378111
C20	C	-1.422592	0.378111	-0.378120
C21	C	-1.289192	0.378125	-0.378134
C22	C	-2.047459	0.378136	-0.378140
C23	C	-2.180859	0.378141	-0.378145
C24	C	-1.734489	0.378065	-0.582874
C25	C	-1.734520	0.378041	-0.670124
C26	C	-1.734566	0.173379	-0.378178
C27	C	-1.734629	0.086129	-0.378199
C28	C	-1.811184	0.710302	-0.327962
C29	C	-1.811242	0.792283	-0.327982
C30	C	-1.734472	0.833280	-0.378148
C31	C	-1.657646	0.792293	-0.428303
C32	C	-1.657594	0.710314	-0.428286
C33	C	-1.657757	0.963163	-0.428332
C34	C	-1.657807	1.045148	-0.428348
C35	C	-1.811405	1.045132	-0.328028
C36	C	-1.811353	0.963153	-0.328012
C37	C	-1.734526	0.922171	-0.378166
C38	C	-1.811321	0.327834	-0.711130
C39	C	-1.811336	0.327808	-0.793110
C40	C	-1.734554	0.377993	-0.834083
C41	C	-1.657745	0.428202	-0.793072
C42	C	-1.657725	0.428224	-0.711093
C43	C	-1.657793	0.428155	-0.963942
C44	C	-1.657814	0.428135	-1.045926
C45	C	-1.811404	0.327739	-1.045959
C46	C	-1.811384	0.327760	-0.963980
C47	C	-1.734576	0.377971	-0.922974
C48	C	-1.734414	0.378124	-0.174182
C49	C	-1.734615	0.377928	-0.086932
H50	H	-1.873694	0.676927	-0.287108
H51	H	-1.595200	0.929799	-0.469176
C52	C	-1.895927	1.090213	-0.272865
N53	N	-1.959586	1.124171	-0.231317
C54	C	-1.573193	0.837394	-0.483483
N55	N	-1.509576	0.871362	-0.525043
H56	H	-1.873798	0.825646	-0.287145
H57	H	-1.873913	0.286900	-0.930622
H58	H	-1.873860	0.929773	-0.287159
C59	C	-1.573084	0.665235	-0.483455
N60	N	-1.509432	0.631283	-0.525012
H61	H	-1.873942	0.286854	-1.079350
C62	C	-1.573343	0.483336	-1.090995
N63	N	-1.509716	0.524914	-1.124941
C64	C	-1.573304	0.483392	-0.918837
N65	N	-1.509673	0.525000	-0.884864
C66	C	-1.895788	0.272624	-0.666067
N67	N	-1.959406	0.231036	-0.632128
C68	C	-1.573368	1.090244	-0.483542
N69	N	-1.509771	1.124210	-0.525117
H70	H	-1.873878	0.286926	-0.826494
H71	H	-1.595224	0.469061	-0.826438
H72	H	-1.595174	0.469099	-0.677707
