data_functionalizedCrystal
_audit_creation_method	'MofGen! by Chris Wilmer'
_symmetry_space_group_name_H-M	'P1'
_symmetry_Int_Tables_number	1
_symmetry_cell_setting	triclinic
loop_
_symmetry_equiv_pos_as_xyz
  x,y,z
_cell_length_a	10.654551
_cell_length_b	9.130313
_cell_length_c	9.065218
_cell_angle_alpha	90.008724
_cell_angle_beta	95.249389
_cell_angle_gamma	90.000320
loop_
_atom_site_label
_atom_site_type_symbol
_atom_site_fract_x
_atom_site_fract_y
_atom_site_fract_z
O1	O	1.668654	-0.121807	-0.207234
O2	O	1.303254	-0.121817	-0.226977
O3	O	1.493507	-0.121775	-0.002422
O4	O	1.478402	-0.121850	-0.431789
O5	O	1.493505	0.121824	-0.002428
O6	O	1.303252	0.121782	-0.226983
O7	O	1.668652	0.121791	-0.207240
Cu8	Cu	1.485952	0.144029	-0.217112
Cu9	Cu	1.485954	-0.144055	-0.217105
O10	O	1.478399	0.121749	-0.431795
C11	C	1.256449	-0.000018	-0.225530
C12	C	1.116989	-0.000020	-0.221192
C13	C	0.920432	0.132768	-0.215066
C14	C	1.051468	0.132768	-0.219155
C15	C	1.051465	-0.132817	-0.219156
C16	C	0.920430	-0.132815	-0.215078
C17	C	0.854919	0.265565	-0.213013
C18	C	0.920434	0.398362	-0.215052
C19	C	1.051470	0.398362	-0.219141
C20	C	1.116992	0.265565	-0.221191
N21	N	1.485959	0.346652	-0.217117
C22	C	1.715457	-0.000011	-0.208687
C23	C	1.854917	-0.000018	-0.213025
N24	N	1.485957	-0.346677	-0.217089
C25	C	1.492054	0.000031	0.052554
C26	C	1.487713	0.000050	0.216373
C27	C	1.570225	0.423322	-0.117718
C28	C	1.570221	0.576659	-0.117700
C29	C	1.401682	0.576641	-0.316493
C30	C	1.401680	0.423307	-0.316502
C31	C	1.654503	0.346667	-0.018332
C32	C	1.738777	0.423338	0.081074
C33	C	1.738774	0.576675	0.081092
C34	C	1.654496	0.653341	-0.018296
C35	C	1.479852	-0.000020	0.513229
C36	C	1.484193	0.000072	0.349410
H37	H	1.104807	0.506492	-0.220816
H38	H	0.867076	0.506481	-0.213395
H39	H	1.807386	0.360909	0.162001
H40	H	1.223689	0.265575	-0.224538
C41	C	0.849189	-0.276935	-0.213161
C42	C	0.761298	-0.284717	-0.337556
C43	C	0.695657	-0.417467	-0.335859
H44	H	0.806557	-0.282578	-0.125781
H45	H	0.906921	-0.356070	-0.215036
H46	H	0.703574	-0.205604	-0.335668
H47	H	0.803897	-0.279099	-0.424956
H48	H	0.753389	-0.496603	-0.337734
H49	H	0.653033	-0.423099	-0.248473
H50	H	0.636024	-0.422771	-0.420265
H51	H	1.104823	-0.240934	-0.220824
C52	C	1.830402	0.659655	0.189081
C53	C	1.904224	0.559698	0.276087
C54	C	1.988663	0.636083	0.375567
H55	H	1.784678	0.719479	0.251146
H56	H	1.883349	0.719438	0.135470
H57	H	1.851283	0.499941	0.329694
H58	H	1.949975	0.499872	0.214062
H59	H	2.041610	0.695865	0.321956
H60	H	1.942928	0.695903	0.437622
H61	H	2.038769	0.568274	0.434603
C62	C	1.309989	0.659799	-0.424228
C63	C	1.186303	0.622538	-0.398924
C64	C	1.101804	0.699127	-0.498131
H65	H	1.324571	0.634727	-0.522917
H66	H	1.321978	0.762114	-0.409977
H67	H	1.174320	0.520246	-0.413187
H68	H	1.171682	0.647614	-0.300254
H69	H	1.113792	0.801442	-0.483880
H70	H	1.116396	0.674049	-0.596814
H71	H	1.017873	0.673867	-0.480967
C72	C	1.310344	0.340127	-0.424662
C73	C	1.332371	0.377375	-0.569878
C74	C	1.248263	0.300762	-0.669551
H75	H	1.226290	0.365190	-0.407919
H76	H	1.322422	0.237816	-0.410526
H77	H	1.320282	0.479663	-0.584009
H78	H	1.416408	0.352308	-0.586668
H79	H	1.260341	0.198451	-0.655415
H80	H	1.164215	0.325831	-0.652794
H81	H	1.263204	0.326013	-0.768091
H82	H	0.748223	0.265580	-0.209681
H83	H	1.654516	0.221813	-0.018340
H84	H	1.654492	0.778198	-0.018264
