data_functionalizedCrystal
_audit_creation_method	'MofGen! by Chris Wilmer'
_symmetry_space_group_name_H-M	'P1'
_symmetry_Int_Tables_number	1
_symmetry_cell_setting	triclinic
loop_
_symmetry_equiv_pos_as_xyz
  x,y,z
_cell_length_a	19.188905
_cell_length_b	19.188924
_cell_length_c	13.101039
_cell_angle_alpha	93.348752
_cell_angle_beta	86.647018
_cell_angle_gamma	83.138260
loop_
_atom_site_label
_atom_site_type_symbol
_atom_site_fract_x
_atom_site_fract_y
_atom_site_fract_z
O1	O	0.930014	0.083211	-0.085389
O2	O	1.430014	0.583211	0.414611
O3	O	0.726699	0.094965	-0.085354
O4	O	1.226699	0.594965	0.414646
O5	O	0.834226	-0.012568	-0.085360
O6	O	1.334226	0.487432	0.414640
O7	O	0.822487	0.190744	-0.085382
O8	O	1.322487	0.690744	0.414618
O9	O	0.826511	-0.004840	0.085070
O10	O	1.326511	0.495160	0.585070
O11	O	0.718984	0.102693	0.085076
O12	O	1.218984	0.602693	0.585076
O13	O	0.922300	0.090939	0.085042
O14	O	1.422300	0.590939	0.585042
Zn15	Zn	0.819417	0.098043	0.112118
Zn16	Zn	1.319417	0.598043	0.612118
Zn17	Zn	0.829582	0.087861	-0.112431
Zn18	Zn	1.329582	0.587861	0.387569
O19	O	0.814772	0.198472	0.085048
O20	O	1.314772	0.698472	0.585048
C21	C	0.696830	0.098452	-0.000134
C22	C	1.196830	0.598452	0.499866
C23	C	0.619324	0.097319	-0.000121
C24	C	1.119324	0.597319	0.499879
C25	C	0.587138	0.092561	-0.093025
C26	C	1.087138	0.592561	0.406975
C27	C	0.514315	0.091488	-0.093038
C28	C	1.014315	0.591488	0.406962
C29	C	0.473682	0.095158	-0.000141
C30	C	0.973682	0.595158	0.499859
C31	C	0.505876	0.099920	0.092776
C32	C	1.005876	0.599920	0.592776
C33	C	0.578697	0.101000	0.092786
C34	C	1.078697	0.601000	0.592786
N35	N	0.361533	0.056864	0.068998
N36	N	0.861533	0.556864	0.568998
N37	N	0.292357	0.055836	0.068982
N38	N	0.792357	0.555836	0.568982
C39	C	0.254277	0.091904	-0.000165
C40	C	0.754277	0.591904	0.499835
N41	N	0.287988	0.129030	-0.069312
N42	N	0.787988	0.629030	0.430688
N43	N	0.357171	0.130055	-0.069299
N44	N	0.857171	0.630055	0.430701
C45	C	0.394720	0.093987	-0.000141
C46	C	0.894720	0.593987	0.499859
C47	C	0.143128	0.085983	-0.093090
C48	C	0.643128	0.585983	0.406910
C49	C	0.070303	0.084914	-0.093098
C50	C	0.570303	0.584914	0.406902
C51	C	0.061866	0.093339	0.092718
C52	C	0.561866	0.593339	0.592718
C53	C	0.134689	0.094415	0.092724
C54	C	0.634689	0.594415	0.592724
C55	C	0.175316	0.090734	-0.000183
C56	C	0.675316	0.590734	0.499817
C57	C	0.829989	-0.034715	-0.000144
C58	C	1.329989	0.465285	0.499856
C59	C	0.828850	-0.112219	-0.000141
C60	C	1.328850	0.387781	0.499859
C61	C	0.832524	-0.152831	-0.093043
C62	C	1.332524	0.347169	0.406957
C63	C	0.831444	-0.225654	-0.093050
C64	C	1.331444	0.274346	0.406950
C65	C	0.826705	-0.257864	-0.000151
C66	C	1.326705	0.242136	0.499849
C67	C	0.823026	-0.217243	0.092763
C68	C	1.323026	0.282757	0.592763
C69	C	0.824099	-0.144420	0.092768
C70	C	1.324099	0.355580	0.592768
N71	N	0.861623	-0.374396	0.068985
N72	N	1.361623	0.125604	0.568985
N73	N	0.860606	-0.443574	0.068974
N74	N	1.360606	0.056426	0.568974
C75	C	0.823471	-0.477273	-0.000160
C76	C	1.323471	0.022727	0.499840
N77	N	0.787401	-0.439182	-0.069299
N78	N	1.287401	0.060818	0.430701
N79	N	0.788422	-0.369998	-0.069291
N80	N	1.288422	0.130002	0.430709
C81	C	0.825541	-0.336827	-0.000146
C82	C	1.325541	0.163173	0.499854
C83	C	0.825974	-0.596848	-0.093077
C84	C	1.325974	-0.096848	0.406923
C85	C	0.824890	-0.669671	-0.093081
C86	C	1.324890	-0.169671	0.406919
C87	C	0.816478	-0.661260	0.092736
C88	C	1.316478	-0.161260	0.592736
C89	C	0.817556	-0.588437	0.092737
C90	C	1.317556	-0.088437	0.592737
C91	C	0.822307	-0.556236	-0.000172
C92	C	1.322307	-0.056236	0.499828
C93	C	0.952169	0.087453	-0.000180
C94	C	1.452169	0.587453	0.499820
C95	C	1.029675	0.088585	-0.000200
C96	C	1.529675	0.588585	0.499800
C97	C	0.819009	0.220619	-0.000171
C98	C	1.319009	0.720619	0.499829
C99	C	0.820149	0.298123	-0.000180
C100	C	1.320149	0.798123	0.499820
N101	N	0.812485	0.104992	0.265367
N102	N	1.312485	0.604992	0.765367
N103	N	0.836519	0.080907	-0.265680
N104	N	1.336519	0.580907	0.234320
C105	C	0.803053	0.114452	0.474410
C106	C	1.303053	0.614452	0.974410
C107	C	0.845948	0.071449	0.525284
C108	C	1.345948	0.571449	1.025284
C109	C	0.840701	0.076713	0.641602
C110	C	1.340701	0.576713	1.141602
C111	C	0.808300	0.109189	0.358081
C112	C	1.308300	0.609189	0.858081
H113	H	0.488103	0.087615	-0.168694
H114	H	0.988103	0.587615	0.331306
H115	H	0.829838	-0.570628	-0.168729
H116	H	1.329838	-0.070628	0.331271
H117	H	0.814570	-0.555371	0.168387
H118	H	1.314570	-0.055371	0.668387
H119	H	0.176207	0.082993	-0.168740
H120	H	0.676207	0.582993	0.331260
H121	H	0.472788	0.102909	0.168413
H122	H	0.972788	0.602909	0.668413
O123	O	0.820412	-0.104920	0.182990
O124	O	1.320412	0.395080	0.682990
C125	C	0.760336	-0.054430	0.188547
C126	C	1.260336	0.445570	0.688547
H127	H	0.720143	-0.073100	0.135832
H128	H	1.220143	0.426900	0.635832
H129	H	0.736335	-0.047162	0.270719
H130	H	1.236335	0.452838	0.770719
H131	H	0.775951	-0.002203	0.163584
H132	H	1.275951	0.497797	0.663584
O133	O	0.754451	0.163018	0.526615
O134	O	1.254451	0.663018	1.026615
C135	C	0.686496	0.150822	0.500503
C136	C	1.186496	0.650822	1.000503
H137	H	0.687539	0.093619	0.470928
H138	H	1.187539	0.593619	0.970928
H139	H	0.648308	0.162145	0.571136
H140	H	1.148308	0.662145	1.071136
H141	H	0.668689	0.186839	0.438334
H142	H	1.168689	0.686839	0.938334
H143	H	0.620212	0.089564	-0.168677
H144	H	1.120212	0.589564	0.331323
H145	H	0.886614	0.030681	0.481479
H146	H	1.386614	0.530681	0.981479
H147	H	0.604902	0.104875	0.168442
H148	H	1.104902	0.604875	0.668442
O149	O	0.811769	-0.692599	0.182920
O150	O	1.311769	-0.192599	0.682920
C151	C	0.750423	-0.726344	0.188486
C152	C	1.250423	-0.226344	0.688486
H153	H	0.733771	-0.738212	0.107820
H154	H	1.233771	-0.238212	0.607820
H155	H	0.761469	-0.777590	0.227819
H156	H	1.261469	-0.277590	0.727819
H157	H	0.706426	-0.690520	0.234319
H158	H	1.206426	-0.190520	0.734319
H159	H	0.044098	0.081044	-0.168755
H160	H	0.544098	0.581044	0.331245
O161	O	0.828502	-0.709025	-0.183422
O162	O	1.328502	-0.209025	0.316578
C163	C	0.832913	-0.664982	-0.265418
C164	C	1.332913	-0.164982	0.234582
H165	H	0.854538	-0.614798	-0.238174
H166	H	1.354538	-0.114798	0.261826
H167	H	0.869446	-0.693504	-0.330390
H168	H	1.369446	-0.193504	0.169610
H169	H	0.778324	-0.651030	-0.293995
H170	H	1.278324	-0.151030	0.206005
H171	H	0.028783	0.096331	0.168356
H172	H	0.528783	0.596331	0.668356
H173	H	0.834432	-0.258725	-0.168705
H174	H	1.334432	0.241275	0.331295
O175	O	0.165852	0.099000	0.183064
O176	O	0.665852	0.599000	0.683064
C177	C	0.114374	0.102027	0.265057
C178	C	0.614374	0.602027	0.765057
H179	H	0.066664	0.077923	0.237817
H180	H	0.566664	0.577923	0.737817
H181	H	0.137007	0.071395	0.330040
H182	H	0.637007	0.571395	0.830040
H183	H	0.097825	0.159209	0.293617
H184	H	0.597825	0.659209	0.793617
H185	H	0.836391	-0.126617	-0.168697
H186	H	1.336391	0.373383	0.331303
O187	O	0.818330	-0.248594	0.182941
O188	O	1.318330	0.251406	0.682941
C189	C	0.756993	-0.282353	0.188515
C190	C	1.256993	0.217647	0.688515
H191	H	0.740332	-0.294215	0.107853
H192	H	1.240332	0.205785	0.607853
H193	H	0.768054	-0.333602	0.227833
H194	H	1.268054	0.166398	0.727833
H195	H	0.712995	-0.246540	0.234366
H196	H	1.212995	0.253460	0.734366
