data_functionalizedCrystal
_audit_creation_method	'MofGen! by Chris Wilmer'
_symmetry_space_group_name_H-M	'P1'
_symmetry_Int_Tables_number	1
_symmetry_cell_setting	triclinic
loop_
_symmetry_equiv_pos_as_xyz
  x,y,z
_cell_length_a	19.077105
_cell_length_b	14.908520
_cell_length_c	19.076919
_cell_angle_alpha	84.570994
_cell_angle_beta	89.923776
_cell_angle_gamma	91.150228
loop_
_atom_site_label
_atom_site_type_symbol
_atom_site_fract_x
_atom_site_fract_y
_atom_site_fract_z
Zn1	Zn	1.037881	-0.436364	0.459234
Zn2	Zn	1.035744	-0.581390	0.347980
Zn3	Zn	0.925663	-0.424281	0.336506
Zn4	Zn	0.913591	-0.580846	0.460710
O5	O	0.978220	-0.505720	0.401107
O6	O	1.135682	-0.460886	0.448660
O7	O	1.025299	-0.555720	0.247919
O8	O	0.946495	-0.299666	0.347366
O9	O	1.134112	-0.567437	0.366923
O10	O	1.028941	-0.308543	0.437534
O11	O	0.944423	-0.440292	0.239489
O12	O	0.825977	-0.439765	0.348797
O13	O	0.925920	-0.566510	0.559053
O14	O	0.817107	-0.554793	0.440049
O15	O	1.017235	-0.460359	0.557969
O16	O	1.013594	-0.707536	0.368354
O17	O	0.923848	-0.707136	0.451175
C18	C	0.796110	-0.495910	0.393339
C19	C	0.718201	-0.491735	0.390033
C20	C	0.676998	-0.549746	0.435923
C21	C	0.603795	-0.545812	0.432820
C22	C	0.571795	-0.483870	0.383823
C23	C	0.613003	-0.425853	0.337931
C24	C	0.686205	-0.429783	0.341038
C25	C	0.353358	-0.465680	0.369446
C26	C	0.280150	-0.461756	0.366341
C27	C	0.270947	-0.581715	0.461231
C28	C	0.344151	-0.585643	0.464331
C29	C	0.385353	-0.527623	0.418441
N30	N	0.496969	-0.479850	0.380648
N31	N	0.460177	-0.531640	0.421620
C32	C	0.967198	-0.740065	0.411186
C33	C	0.962545	-0.840323	0.415524
C34	C	1.047344	-1.029082	0.337510
C35	C	1.042976	-1.123283	0.341584
C36	C	0.949443	-1.122929	0.427749
C37	C	0.953812	-1.028727	0.423675
C38	C	1.002763	-0.981807	0.378553
C39	C	1.007128	-0.887604	0.374476
C40	C	0.913600	-0.887251	0.460644
C41	C	0.909231	-0.981453	0.464718
C42	C	1.161040	-0.515570	0.408907
C43	C	1.238948	-0.519767	0.412230
C44	C	0.970470	-0.514721	0.584776
C45	C	0.967167	-0.518557	0.663044
C46	C	0.989303	-0.270463	0.391006
C47	C	0.994026	-0.170210	0.386701
C48	C	0.985983	-0.496691	0.218153
C49	C	0.989433	-0.492609	0.139879
C50	C	1.013156	-0.465095	0.699251
C51	C	1.010044	-0.468695	0.772793
C52	C	0.960947	-0.525763	0.810125
C53	C	0.914953	-0.579227	0.773913
C54	C	0.918062	-0.575622	0.700373
C55	C	0.946548	-0.542468	1.030127
C56	C	0.943444	-0.546071	1.103672
C57	C	1.038535	-0.435537	1.102547
C58	C	1.041642	-0.431941	1.029006
C59	C	0.995646	-0.485402	0.992799
N60	N	0.957767	-0.529446	0.885296
N61	N	0.998824	-0.481713	0.917629
H62	H	0.254099	-0.411305	0.326445
H63	H	0.877297	-0.848750	0.494062
O64	O	0.867197	-0.634684	0.810065
C65	C	0.827284	-0.681115	0.762336
H66	H	0.828811	-0.641468	0.708226
H67	H	0.770708	-0.688806	0.781639
H68	H	0.850056	-0.750616	0.758550
O69	O	1.086391	-1.169098	0.301748
C70	C	1.156649	-1.150502	0.319203
H71	H	1.160089	-1.083501	0.343386
H72	H	1.190424	-1.146448	0.269618
H73	H	1.176247	-1.206520	0.358720
H74	H	1.046985	-0.849402	0.337734
O75	O	1.054696	-0.416628	0.807875
C76	C	1.044362	-0.325028	0.785394
H77	H	1.019759	-0.319098	0.730770
H78	H	1.096961	-0.287189	0.783296
H79	H	1.008012	-0.294727	0.823938
O80	O	1.094925	-0.983407	0.293773
C81	C	1.141013	-0.933263	0.333471
H82	H	1.114654	-0.920437	0.385149
H83	H	1.154710	-0.866124	0.302332
H84	H	1.190941	-0.972679	0.345031
H85	H	0.903461	-0.592545	1.134066
O86	O	0.873492	-0.627603	0.665123
C87	C	0.912455	-0.685934	0.626804
H88	H	0.967538	-0.656443	0.616698
H89	H	0.885526	-0.693944	0.574387
H90	H	0.915808	-0.754582	0.658341
H91	H	0.570251	-0.593052	0.470187
O92	O	0.707967	-0.609943	0.483583
C93	C	0.655900	-0.660315	0.523409
H94	H	0.605351	-0.620695	0.522089
H95	H	0.674262	-0.673899	0.580195
H96	H	0.645983	-0.727081	0.500150
H97	H	1.081624	-0.385472	0.998614
H98	H	0.909594	-1.161148	0.464489
O99	O	0.230955	-0.638191	0.505745
C100	C	0.245281	-0.728259	0.494884
H101	H	0.267551	-0.731033	0.439667
H102	H	0.194794	-0.770543	0.500777
H103	H	0.285081	-0.756034	0.535426
H104	H	1.053138	-0.418626	0.668861
O105	O	0.393340	-0.409410	0.324770
C106	C	0.377466	-0.424564	0.254644
H107	H	0.354118	-0.495358	0.253240
H108	H	0.427433	-0.417592	0.221567
H109	H	0.338012	-0.372997	0.232419
O110	O	0.375199	-0.645720	0.512026
C111	C	0.355268	-0.628643	0.580631
H112	H	0.338381	-0.555691	0.580326
H113	H	0.401578	-0.640774	0.617793
H114	H	0.309730	-0.675652	0.599252
H115	H	1.075982	-0.392011	1.132034
H116	H	0.586943	-0.375415	0.298039
O117	O	0.726127	-0.373398	0.296384
C118	C	0.682188	-0.317871	0.252481
H119	H	0.628374	-0.351885	0.249371
H120	H	0.706125	-0.306559	0.197491
H121	H	0.676536	-0.250268	0.275079
H122	H	0.909104	-0.586013	1.000657
O123	O	0.861773	-1.027142	0.508588
C124	C	0.897194	-1.085923	0.558172
H125	H	0.950729	-1.101627	0.536262
H126	H	0.865166	-1.151120	0.569229
H127	H	0.904328	-1.052555	0.609118
