data_functionalizedCrystal
_audit_creation_method	'MofGen! by Chris Wilmer'
_symmetry_space_group_name_H-M	'P1'
_symmetry_Int_Tables_number	1
_symmetry_cell_setting	triclinic
loop_
_symmetry_equiv_pos_as_xyz
  x,y,z
_cell_length_a	9.730223
_cell_length_b	10.654550
_cell_length_c	10.489746
_cell_angle_alpha	95.486884
_cell_angle_beta	90.001063
_cell_angle_gamma	90.000242
loop_
_atom_site_label
_atom_site_type_symbol
_atom_site_fract_x
_atom_site_fract_y
_atom_site_fract_z
O1	O	-0.114174	-1.667927	0.179159
O2	O	0.385826	-1.167927	0.679159
O3	O	-0.114198	-1.302457	0.196228
O4	O	0.385802	-0.802457	0.696228
O5	O	-0.114190	-1.493504	0.002092
O6	O	0.385810	-0.993504	0.502092
O7	O	-0.114181	-1.476879	0.373295
O8	O	0.385819	-0.976879	0.873295
O9	O	0.114390	-1.493491	0.002092
O10	O	0.614390	-0.993491	0.502092
O11	O	0.114382	-1.302443	0.196228
O12	O	0.614382	-0.802443	0.696228
O13	O	0.114406	-1.667913	0.179159
O14	O	0.614406	-1.167913	0.679159
Zn15	Zn	0.150686	-1.485176	0.187694
Zn16	Zn	0.650686	-0.985176	0.687694
Zn17	Zn	-0.150478	-1.485194	0.187693
Zn18	Zn	0.349522	-0.985194	0.687693
O19	O	0.114399	-1.476865	0.373295
O20	O	0.614399	-0.976865	0.873295
C21	C	0.000089	-1.255651	0.194975
C22	C	0.500089	-0.755651	0.694975
C23	C	0.000079	-1.116206	0.191225
C24	C	0.500079	-0.616206	0.691225
C25	C	0.000096	-1.492241	-0.045439
C26	C	0.500096	-0.992241	0.454561
C27	C	0.000083	-1.488480	-0.187066
C28	C	0.500083	-0.988480	0.312934
N29	N	0.356223	-1.485173	0.187693
N30	N	0.856223	-0.985173	0.687693
N31	N	-0.356014	-1.485207	0.187684
N32	N	0.143986	-0.985207	0.687684
C33	C	0.428151	-1.562042	0.265779
C34	C	0.928151	-1.062042	0.765779
C35	C	0.572034	-1.562063	0.265772
C36	C	1.072034	-1.062063	0.765772
C37	C	0.572048	-1.408334	0.109589
C38	C	1.072048	-0.908334	0.609589
C39	C	0.428167	-1.408321	0.109590
C40	C	0.928167	-0.908321	0.609590
C41	C	0.000116	-1.714719	0.180412
C42	C	0.500116	-1.214719	0.680412
C43	C	0.000117	-1.854164	0.184162
C44	C	0.500117	-1.354164	0.684162
C45	C	0.000086	-1.036776	0.305529
C46	C	0.500086	-0.536776	0.805529
C47	C	0.000110	-0.905754	0.301998
C48	C	0.500110	-0.405754	0.801998
C49	C	0.000115	-0.933604	0.069849
C50	C	0.500115	-0.433604	0.569849
C51	C	0.000101	-1.064624	0.073381
C52	C	0.500101	-0.564624	0.573381
C53	C	0.000110	-1.478129	0.420826
C54	C	0.500110	-0.978129	0.920826
C55	C	0.000113	-1.481890	0.562453
C56	C	0.500113	-0.981890	1.062453
C57	C	0.000104	-1.605674	0.715251
C58	C	0.500104	-1.105674	1.215251
C59	C	-0.112599	-1.543794	0.637891
C60	C	0.387401	-1.043794	1.137891
C61	C	0.112763	-1.543752	0.637928
C62	C	0.612763	-1.043752	1.137928
C63	C	-0.112713	-1.426648	0.737440
C64	C	0.387287	-0.926648	1.237440
C65	C	0.112750	-1.426622	0.737481
C66	C	0.612750	-0.926622	1.237481
C67	C	0.000019	-1.364656	0.660170
C68	C	0.500019	-0.864656	1.160170
H69	H	0.369577	-1.624620	0.329375
H70	H	0.869577	-1.124620	0.829375
C71	C	0.651200	-1.323789	0.023694
C72	C	1.151200	-0.823789	0.523694
N73	N	0.710817	-1.260102	-0.040998
N74	N	1.210817	-0.760102	0.459002
C75	C	0.000094	-1.152003	-0.052369
C76	C	0.500094	-0.652003	0.447631
N77	N	0.000092	-1.217817	-0.147080
N78	N	0.500092	-0.717817	0.352920
C79	C	-0.241306	-1.610641	0.579114
C80	C	0.258694	-1.110641	1.079114
N81	N	-0.338242	-1.660998	0.534842
N82	N	0.161758	-1.160998	1.034842
H83	H	-0.000002	-1.707580	0.739923
H84	H	0.499998	-1.207580	1.239923
H85	H	0.000140	-0.891589	-0.026096
H86	H	0.500140	-0.391589	0.473904
H87	H	0.369602	-1.345724	0.045997
H88	H	0.869602	-0.845724	0.545997
H89	H	0.630591	-1.624659	0.329356
H90	H	1.130591	-1.124659	0.829356
C91	C	-0.241588	-1.359872	0.795940
C92	C	0.258412	-0.859872	1.295940
N93	N	-0.338659	-1.309583	0.840004
N94	N	0.161341	-0.809583	1.340004
H95	H	-0.000049	-1.262674	0.635745
H96	H	0.499951	-0.762674	1.135745
H97	H	0.000079	-1.078770	0.401485
H98	H	0.500079	-0.578770	0.901485
H99	H	0.000118	-0.841086	0.395077
H100	H	0.500118	-0.341086	0.895077
C101	C	0.241472	-1.359830	0.796270
C102	C	0.741472	-0.859830	1.296270
N103	N	0.338437	-1.309528	0.840547
N104	N	0.838437	-0.809528	1.340547
C105	C	0.241491	-1.610607	0.579208
C106	C	0.741491	-1.110607	1.079208
N107	N	0.338444	-1.660970	0.534985
N108	N	0.838444	-1.160970	1.034985
