data_functionalizedCrystal
_audit_creation_method	'MofGen! by Chris Wilmer'
_symmetry_space_group_name_H-M	'P1'
_symmetry_Int_Tables_number	1
_symmetry_cell_setting	triclinic
loop_
_symmetry_equiv_pos_as_xyz
  x,y,z
_cell_length_a	16.959455
_cell_length_b	16.959453
_cell_length_c	16.959447
_cell_angle_alpha	89.970483
_cell_angle_beta	90.014322
_cell_angle_gamma	89.973564
loop_
_atom_site_label
_atom_site_type_symbol
_atom_site_fract_x
_atom_site_fract_y
_atom_site_fract_z
Zn1	Zn	1.208332	0.314730	0.446913
Zn2	Zn	1.208233	0.446923	0.314736
Zn3	Zn	1.076160	0.314755	0.314751
Zn4	Zn	1.076103	0.446864	0.446875
O5	O	1.142207	0.380818	0.380819
O6	O	1.318930	0.332280	0.429390
O7	O	1.190696	0.429426	0.204127
O8	O	1.093759	0.204141	0.332304
O9	O	1.318857	0.429402	0.332280
O10	O	1.190865	0.204123	0.429403
O11	O	1.093663	0.332323	0.204138
O12	O	0.965542	0.332265	0.332267
O13	O	1.093662	0.429301	0.557491
O14	O	0.965500	0.429325	0.429338
O15	O	1.190809	0.332223	0.557519
O16	O	1.190640	0.557526	0.332243
O17	O	1.093565	0.557482	0.429325
C18	C	0.936841	0.380792	0.380801
C19	C	0.848984	0.380800	0.380812
C20	C	0.477506	0.330238	0.330379
C21	C	0.477511	0.431463	0.431303
C22	C	0.560057	0.431452	0.431299
C23	C	0.601331	0.380834	0.380833
C24	C	0.560060	0.330226	0.330371
C25	C	0.601335	0.482064	0.481753
C26	C	0.683886	0.482055	0.481750
C27	C	0.725162	0.431432	0.431287
C28	C	0.683885	0.380822	0.380824
C29	C	0.725159	0.330204	0.330358
C30	C	0.683884	0.279590	0.279899
C31	C	0.601335	0.279603	0.279909
C32	C	0.807710	0.431418	0.431278
C33	C	0.807713	0.330193	0.330350
C34	C	1.142107	0.586184	0.380795
C35	C	1.142137	0.674041	0.380812
C36	C	1.192725	1.045449	0.431492
C37	C	1.091690	1.045584	0.330299
C38	C	1.091674	0.963039	0.330279
C39	C	1.142184	0.921694	0.380866
C40	C	1.192709	0.962895	0.431475
C41	C	1.041145	0.921831	0.279677
C42	C	1.041126	0.839280	0.279655
C43	C	1.091640	0.797934	0.330240
C44	C	1.142168	0.839140	0.380849
C45	C	1.192678	0.797796	0.431437
C46	C	1.243210	0.839000	0.482043
C47	C	1.243223	0.921549	0.482059
C48	C	1.091627	0.715386	0.330224
C49	C	1.192662	0.715242	0.431420
C50	C	1.348375	0.380845	0.380837
C51	C	1.436232	0.380856	0.380845
C52	C	1.142240	0.380753	0.586987
C53	C	1.142254	0.380725	0.674844
C54	C	1.142287	1.174650	0.380866
C55	C	1.142215	1.086793	0.380904
C56	C	1.142220	0.380826	0.175453
C57	C	1.142359	0.380631	0.087596
C58	C	1.091768	0.431185	1.046307
C59	C	1.192929	0.330097	1.046332
C60	C	1.192908	0.330114	0.963786
C61	C	1.142317	0.380668	0.922497
C62	C	1.091747	0.431205	0.963754
C63	C	1.243483	0.279584	0.922523
C64	C	1.243464	0.279599	0.839972
C65	C	1.192869	0.330149	0.798681
C66	C	1.142296	0.380688	0.839943
C67	C	1.091705	0.431242	0.798654
C68	C	1.041128	0.481777	0.839915
C69	C	1.041152	0.481756	0.922463
C70	C	1.192845	0.330171	0.716133
C71	C	1.091684	0.431262	0.716101
H72	H	0.717500	0.238379	0.238806
C73	C	1.248477	0.274586	0.670750
N74	N	1.290381	0.232716	0.636568
H75	H	0.999977	0.522901	0.956065
H76	H	1.284647	0.238450	0.806384
C77	C	0.555927	0.223936	0.224405
N78	N	0.521721	0.182009	0.182599
C79	C	0.853108	0.274507	0.274832
N80	N	0.887299	0.232565	0.233015
H81	H	1.233869	1.079001	0.472692
C82	C	0.985681	0.967315	0.223942
N83	N	0.943940	1.001577	0.181924
H84	H	1.284332	0.805328	0.523236
C85	C	1.299120	0.223970	0.967945
N86	N	1.341023	0.182074	1.002161
H87	H	0.443896	0.289027	0.289299
C88	C	0.985533	0.793963	0.223995
N89	N	0.943659	0.759829	0.182073
H90	H	1.050587	0.472328	1.079905
C91	C	1.036047	0.670064	0.274559
N92	N	0.994182	0.635929	0.232628
H93	H	0.443901	0.472679	0.472386
H94	H	0.567724	0.523280	0.522834
H95	H	1.050479	0.472423	0.682489
C96	C	1.298799	0.966880	0.537725
N97	N	1.340656	1.001027	0.579655
C98	C	0.985480	0.537385	0.794487
N99	N	0.943566	0.579266	0.760266
C100	C	1.248571	0.274486	1.091752
N101	N	1.290478	0.232593	1.125966
C102	C	0.729281	0.537729	0.537258
N103	N	0.763474	0.579661	0.579070
C104	C	0.853109	0.487091	0.486779
N105	N	0.887303	0.529024	0.528588
C106	C	1.036194	1.091066	0.274595
N107	N	0.994417	1.125327	0.232611
H108	H	1.233796	0.681584	0.472612
