data_functionalizedCrystal
_audit_creation_method	'MofGen! by Chris Wilmer'
_symmetry_space_group_name_H-M	'P1'
_symmetry_Int_Tables_number	1
_symmetry_cell_setting	triclinic
loop_
_symmetry_equiv_pos_as_xyz
  x,y,z
_cell_length_a	16.120484
_cell_length_b	16.959455
_cell_length_c	16.959447
_cell_angle_alpha	89.985678
_cell_angle_beta	92.866538
_cell_angle_gamma	92.922454
loop_
_atom_site_label
_atom_site_type_symbol
_atom_site_fract_x
_atom_site_fract_y
_atom_site_fract_z
Zn1	Zn	-0.331957	1.192394	-0.462851
Zn2	Zn	-0.471386	1.185600	-0.337369
Zn3	Zn	-0.331984	1.060221	-0.330690
Zn4	Zn	-0.471323	1.053474	-0.469504
O5	O	-0.401662	1.122922	-0.400103
O6	O	-0.350468	1.302103	-0.446216
O7	O	-0.452931	1.168949	-0.225874
O8	O	-0.215315	1.083421	-0.342642
O9	O	-0.452905	1.297112	-0.354025
O10	O	-0.215296	1.180528	-0.439740
O11	O	-0.350513	1.076833	-0.220967
O12	O	-0.350452	0.948716	-0.349093
O13	O	-0.452799	1.071921	-0.579231
O14	O	-0.452824	0.943759	-0.451079
O15	O	-0.350408	1.173985	-0.574343
O16	O	-0.588043	1.162407	-0.360476
O17	O	-0.587997	1.065334	-0.457556
C18	C	-0.401635	0.917557	-0.400084
C19	C	-0.401643	0.829700	-0.400095
C20	C	-0.618270	1.112422	-0.410480
C21	C	-0.710935	1.108003	-0.414945
C22	C	-0.348314	0.460783	-0.347103
C23	C	-0.455080	0.455662	-0.453153
C24	C	-0.455068	0.538208	-0.453147
C25	C	-0.401679	0.582046	-0.400118
C26	C	-0.348302	0.543337	-0.347094
C27	C	-0.508450	0.576923	-0.506165
C28	C	-0.508441	0.659474	-0.506161
C29	C	-0.455047	0.703314	-0.453135
C30	C	-0.401667	0.664600	-0.400109
C31	C	-0.348278	0.708437	-0.347080
C32	C	-0.294893	0.669725	-0.294058
C33	C	-0.294908	0.587176	-0.294068
C34	C	-0.455032	0.785863	-0.453125
C35	C	-0.348266	0.790991	-0.347071
C36	C	-0.880596	1.099938	-0.423114
C37	C	-0.921888	1.146048	-0.377106
C38	C	-1.016293	1.141561	-0.381651
C39	C	-0.786182	1.104424	-0.418570
C40	C	-0.184209	1.133485	-0.389704
C41	C	-0.091544	1.137986	-0.385272
C42	C	-0.401593	1.122959	-0.606268
C43	C	-0.401564	1.122974	-0.694124
C44	C	-0.401691	1.329089	-0.400123
C45	C	-0.401703	1.416945	-0.400132
C46	C	-0.454787	1.069933	-1.068143
C47	C	-0.348166	1.176213	-1.063048
C48	C	-0.348183	1.176191	-0.980503
C49	C	-0.401504	1.123040	-0.941774
C50	C	-0.454808	1.069911	-0.985590
C51	C	-0.294887	1.229324	-0.936681
C52	C	-0.294903	1.229305	-0.854130
C53	C	-0.348221	1.176150	-0.815400
C54	C	-0.401525	1.123018	-0.859221
C55	C	-0.454846	1.069867	-0.820492
C56	C	-0.508148	1.016731	-0.864312
C57	C	-0.508125	1.016755	-0.946860
C58	C	-0.348243	1.176125	-0.732853
C59	C	-0.454867	1.069845	-0.737940
C60	C	-0.401671	1.122935	-0.194738
C61	C	-0.401466	1.123084	-0.106872
H62	H	-0.304784	0.826679	-0.303892
H63	H	-0.886339	1.188892	-0.334302
F64	F	-0.238079	0.716389	-0.237618
H65	H	-0.916143	1.057096	-0.465913
F66	F	-0.511616	1.013269	-0.696728
F67	F	-0.291525	1.232677	-0.686221
F68	F	-0.511508	1.013382	-1.114778
F69	F	-0.564898	0.960169	-0.823085
H70	H	-0.551523	0.973497	-0.982545
F71	F	-0.511912	0.409004	-0.509574
F72	F	-0.291427	1.232781	-1.104268
H73	H	-0.251481	1.272602	-0.968220
H74	H	-0.251446	0.555649	-0.250899
H75	H	-0.251501	1.272571	-0.818459
H76	H	-0.304847	0.429260	-0.303935
F77	F	-0.511849	0.827059	-0.509547
H78	H	-0.551923	0.541224	-0.549333
H79	H	-0.551910	0.690987	-0.549336
