data_functionalizedCrystal
_audit_creation_method	'MofGen! by Chris Wilmer'
_symmetry_space_group_name_H-M	'P1'
_symmetry_Int_Tables_number	1
_symmetry_cell_setting	triclinic
loop_
_symmetry_equiv_pos_as_xyz
  x,y,z
_cell_length_a	34.408637
_cell_length_b	34.407814
_cell_length_c	34.404193
_cell_angle_alpha	60.004510
_cell_angle_beta	60.009006
_cell_angle_gamma	59.994604
loop_
_atom_site_label
_atom_site_type_symbol
_atom_site_fract_x
_atom_site_fract_y
_atom_site_fract_z
O1	O	0.053973	-0.567860	0.474801
O2	O	0.553973	-0.067860	0.974801
O3	O	0.020377	-0.442124	0.382567
O4	O	0.520377	0.057876	0.882567
O5	O	0.100004	-0.521670	0.382483
O6	O	0.600004	-0.021670	0.882483
O7	O	-0.025653	-0.488314	0.474886
O8	O	0.474347	0.011686	0.974886
O9	O	0.126426	-0.495253	0.408816
O10	O	0.626426	0.004747	0.908816
O11	O	0.046800	-0.415707	0.408900
O12	O	0.546800	0.084293	0.908900
O13	O	0.080396	-0.541443	0.501134
O14	O	0.580396	-0.041443	1.001134
Zn15	Zn	0.067793	-0.474381	0.459198
Zn16	Zn	0.567793	0.025619	0.959198
Zn17	Zn	0.032980	-0.509186	0.424503
Zn18	Zn	0.532980	-0.009186	0.924503
O19	O	0.000769	-0.461897	0.501219
O20	O	0.500769	0.038103	1.001219
N21	N	0.091552	-0.450631	0.482879
N22	N	0.591552	0.049369	0.982879
N23	N	0.009225	-0.532940	0.400823
N24	N	0.509225	-0.032940	0.900823
C25	C	0.142848	-0.268847	0.534081
C26	C	0.642848	0.231153	1.034081
C27	C	0.142979	-0.399386	0.664559
C28	C	0.642979	0.100614	1.164559
C29	C	0.142862	-0.399365	0.534081
C30	C	0.642862	0.100635	1.034081
C31	C	0.273409	-0.399338	0.533986
C32	C	0.773409	0.100662	1.033986
C33	C	0.157225	-0.311914	0.548422
C34	C	0.657225	0.188086	1.048422
C35	C	0.157300	-0.385019	0.621491
C36	C	0.657300	0.114981	1.121491
C37	C	0.230339	-0.384991	0.548370
C38	C	0.730339	0.115009	1.048370
C39	C	0.157235	-0.385007	0.548422
C40	C	0.657235	0.114993	1.048422
C41	C	0.124548	-0.214028	0.515827
C42	C	0.624548	0.285972	1.015827
C43	C	0.124571	-0.417639	0.515827
C44	C	0.624571	0.082361	1.015827
C45	C	0.175526	-0.366733	0.566676
C46	C	0.675526	0.133267	1.066676
C47	C	0.353121	-0.385580	0.491988
C48	C	0.853121	0.114420	0.991988
C49	C	0.402952	-0.402180	0.475348
C50	C	0.902952	0.097820	0.975348
C51	C	0.402981	-0.482812	0.506096
C52	C	0.902981	0.017188	1.006096
C53	C	0.353151	-0.466211	0.522737
C54	C	0.853151	0.033789	1.022737
C55	C	0.136544	-0.189099	0.466839
C56	C	0.636544	0.310901	0.966839
C57	C	0.119905	-0.139265	0.450247
C58	C	0.619905	0.360735	0.950247
C59	C	0.079280	-0.139291	0.531632
C60	C	0.579280	0.360709	1.031632
C61	C	0.095918	-0.189125	0.548224
C62	C	0.595918	0.310875	1.048224
C63	C	0.075577	-0.405615	0.527900
C64	C	0.575577	0.094385	1.027900
C65	C	0.058953	-0.422228	0.511301
C66	C	0.558953	0.077772	1.011301
C67	C	0.140315	-0.462889	0.470566
C68	C	0.640315	0.037111	0.970566
C69	C	0.156941	-0.446276	0.487159
C70	C	0.656941	0.053724	0.987159
C71	C	0.075772	-0.405653	0.744326
C72	C	0.575772	0.094347	1.244326
C73	C	0.059206	-0.422280	0.794159
C74	C	0.559206	0.077720	1.294159
C75	C	0.140607	-0.462951	0.794094
C76	C	0.640607	0.037049	1.294094
C77	C	0.157172	-0.446325	0.744260
C78	C	0.657172	0.053675	1.244260
C79	C	0.124753	-0.417674	0.719377
C80	C	0.624753	0.082326	1.219377
C81	C	0.328223	-0.417595	0.515681
C82	C	0.828223	0.082405	1.015681
C83	C	-0.172390	-0.583988	0.349141
C84	C	0.327610	-0.083988	0.849141
C85	C	-0.041751	-0.584138	0.218783
C86	C	0.458249	-0.084138	0.718783
C87	C	-0.041941	-0.584130	0.349402
C88	C	0.458059	-0.084130	0.849402
C89	C	-0.041957	-0.714607	0.349338
C90	C	0.458043	-0.214607	0.849338
C91	C	-0.129326	-0.598388	0.334853
C92	C	0.370674	-0.098388	0.834853
C93	C	-0.056165	-0.598473	0.261852
C94	C	0.443835	-0.098473	0.761852
C95	C	-0.056282	-0.671535	0.334962
C96	C	0.443718	-0.171535	0.834962
C97	C	-0.056272	-0.598469	0.334999
C98	C	0.443728	-0.098469	0.834999
C99	C	-0.227205	-0.565659	0.367327
C100	C	0.272795	-0.065659	0.867327
C101	C	-0.023703	-0.565882	0.367734
C102	C	0.476297	-0.065882	0.867734
C103	C	-0.074511	-0.616717	0.316667
C104	C	0.425489	-0.116717	0.816667
C105	C	-0.055754	-0.794298	0.391257
C106	C	0.444246	-0.294298	0.891257
C107	C	-0.039181	-0.844132	0.407888
C108	C	0.460819	-0.344132	0.907888
C109	C	0.041447	-0.844215	0.377269
C110	C	0.541447	-0.344215	0.877269
C111	C	0.024873	-0.794381	0.360637
C112	C	0.524873	-0.294381	0.860637
C113	C	-0.252183	-0.577666	0.416302
C114	C	0.247817	-0.077666	0.916302
C115	C	-0.302014	-0.561001	0.432833
C116	C	0.197986	-0.061001	0.932833
C117	C	-0.301886	-0.520329	0.351410
C118	C	0.198114	-0.020329	0.851410
C119	C	-0.252055	-0.536994	0.334880
C120	C	0.247945	-0.036994	0.834880
C121	C	-0.035709	-0.516892	0.355682
C122	C	0.464291	-0.016892	0.855682
C123	C	-0.019129	-0.500308	0.372353
C124	C	0.480871	-0.000308	0.872353
C125	C	0.021465	-0.581700	0.413115
C126	C	0.521465	-0.081700	0.913115
C127	C	0.004884	-0.598286	0.396450
C128	C	0.504884	-0.098286	0.896450
C129	C	-0.035389	-0.516907	0.139026
C130	C	0.464611	-0.016907	0.639026
C131	C	-0.018707	-0.500324	0.089193
C132	C	0.481293	-0.000324	0.589193
C133	C	0.021949	-0.581721	0.089240
C134	C	0.521949	-0.081721	0.589240
C135	C	0.005268	-0.598303	0.139074
C136	C	0.505268	-0.098303	0.639074
C137	C	-0.023402	-0.565894	0.163965
C138	C	0.476598	-0.065894	0.663965
C139	C	-0.023728	-0.769425	0.367633
C140	C	0.476272	-0.269425	0.867633
N141	N	0.427173	-0.450553	0.482630
N142	N	0.927173	0.049447	0.982630
O143	O	0.589997	-0.458460	0.365361
O144	O	1.089997	0.041540	0.865361
O145	O	0.590185	-0.550997	0.490963
O146	O	1.090185	-0.050997	0.990963
O147	O	0.590104	-0.550786	0.411309
O148	O	1.090104	-0.050786	0.911309
O149	O	0.590077	-0.458671	0.445016
O150	O	1.090077	0.041329	0.945016
O151	O	0.510940	-0.524462	0.437777
O152	O	1.010940	-0.024462	0.937777
O153	O	0.511020	-0.524674	0.517432
O154	O	1.011020	-0.024674	1.017432
O155	O	0.510832	-0.432136	0.391830
O156	O	1.010832	0.067864	0.891830
Zn157	Zn	0.498357	-0.474225	0.458833
Zn158	Zn	0.998357	0.025775	0.958833
Zn159	Zn	0.602660	-0.508908	0.423960
Zn160	Zn	1.102660	-0.008908	0.923960
O161	O	0.510913	-0.432348	0.471484
O162	O	1.010913	0.067652	0.971484
N163	N	0.673844	-0.532580	0.400158
N164	N	1.173844	-0.032580	0.900158
N165	N	0.091520	-0.115070	0.482873
N166	N	0.591520	0.384930	0.982873
O167	O	-0.025663	0.047841	0.474857
O168	O	0.474337	0.547841	0.974857
O169	O	0.099940	0.047877	0.382299
O170	O	0.599940	0.547877	0.882299
O171	O	0.020247	0.047844	0.382560
O172	O	0.520247	0.547844	0.882560
O173	O	0.054030	0.047874	0.474596
O174	O	0.554030	0.547874	0.974596
O175	O	0.046674	-0.031326	0.408942
O176	O	0.546674	0.468674	0.908942
O177	O	0.126367	-0.031293	0.408680
O178	O	0.626367	0.468707	0.908680
O179	O	0.000764	-0.031329	0.501238
O180	O	0.500764	0.468671	1.001238
Zn181	Zn	0.067761	-0.043881	0.459148
Zn182	Zn	0.567761	0.456119	0.959148
Zn183	Zn	0.032943	0.060429	0.424389
Zn184	Zn	0.532943	0.560429	0.924389
O185	O	0.080457	-0.031296	0.500977
O186	O	0.580457	0.468704	1.000977
N187	N	0.009178	0.131618	0.400665
N188	N	0.509178	0.631618	0.900665
N189	N	0.091852	-0.450680	0.818332
N190	N	0.591852	0.049320	1.318332
O191	O	0.083862	-0.567845	0.981235
O192	O	0.583862	-0.067845	1.481235
O193	O	-0.008657	-0.442198	0.981276
O194	O	0.491343	0.057802	1.481276
O195	O	-0.008441	-0.521875	0.981252
O196	O	0.491559	-0.021875	1.481252
O197	O	0.083646	-0.488168	0.981258
O198	O	0.583646	0.011832	1.481258
O199	O	0.017919	-0.495468	0.902085
O200	O	0.517919	0.004532	1.402085
O201	O	0.017703	-0.415791	0.902109
O202	O	0.517703	0.084209	1.402109
O203	O	0.110222	-0.541438	0.902067
O204	O	0.610222	-0.041438	1.402067
Zn205	Zn	0.068148	-0.474422	0.889518
Zn206	Zn	0.568148	0.025578	1.389518
Zn207	Zn	0.033417	-0.509214	0.993825
Zn208	Zn	0.533417	-0.009214	1.493825
O209	O	0.110006	-0.461761	0.902091
O210	O	0.610006	0.038239	1.402091
N211	N	0.009712	-0.532961	1.065011
N212	N	0.509712	-0.032961	1.565011
C213	C	0.030439	-0.413071	0.383027
C214	C	0.530439	0.086929	0.883027
C215	C	0.129046	-0.511580	0.382922
C216	C	0.629046	-0.011580	0.882922
C217	C	0.070334	-0.570496	0.500675
C218	C	0.570334	-0.070496	1.000675
C219	C	-0.028274	-0.471987	0.500780
C220	C	0.471726	0.028013	1.000780
C221	C	0.550625	-0.550579	0.520021
C222	C	1.050625	-0.050579	1.020021
C223	C	0.550527	-0.550317	0.421379
C224	C	1.050527	-0.050317	0.921379
C225	C	0.550389	-0.432554	0.362773
C226	C	1.050389	0.067446	0.862773
C227	C	0.550491	-0.432816	0.461414
C228	C	1.050491	0.067184	0.961414
C229	C	0.128944	0.008394	0.382712
C230	C	0.628944	0.508394	0.882712
C231	C	0.030287	0.008256	0.383068
C232	C	0.530287	0.508256	0.883068
C233	C	-0.028273	0.008252	0.500793
C234	C	0.471727	0.508252	1.000793
C235	C	0.070417	0.008292	0.500470
C236	C	0.570417	0.508292	1.000470
C237	C	-0.008218	-0.413165	0.941698
C238	C	0.491782	0.086835	1.441698
C239	C	-0.007945	-0.511830	0.941653
C240	C	0.492055	-0.011830	1.441653
C241	C	0.109783	-0.570471	0.941646
C242	C	0.609783	-0.070471	1.441646
C243	C	0.109516	-0.471800	0.941673
C244	C	0.609516	0.028200	1.441673
H245	H	0.049370	-0.382321	0.724071
H246	H	0.549370	0.117679	1.224071
H247	H	0.550540	-0.579254	0.414165
H248	H	1.050540	-0.079254	0.914165
H249	H	-0.036863	-0.519031	0.941619
H250	H	0.463137	-0.019031	1.441619
H251	H	0.138832	-0.606554	0.941627
H252	H	0.638832	-0.106554	1.441627
O253	O	0.550300	-0.397832	0.319774
O254	O	1.050300	0.102168	0.819774
C255	C	0.550285	-0.356854	0.319786
C256	C	1.050285	0.143146	0.819786
H257	H	0.535336	-0.357433	0.357974
H258	H	1.035336	0.142567	0.857974
H259	H	0.588251	-0.356261	0.302739
H260	H	1.088251	0.143739	0.802739
C261	C	0.537536	-0.311398	0.244340
C262	C	1.037536	0.188602	0.744340
C263	C	0.519172	-0.312107	0.291243
C264	C	1.019172	0.187893	0.791243
H265	H	0.518346	-0.283795	0.226731
H266	H	1.018346	0.216205	0.726731
H267	H	0.537547	-0.339006	0.244331
H268	H	1.037547	0.160994	0.744331
H269	H	0.569174	-0.310905	0.230140
H270	H	1.069174	0.189095	0.730140
H271	H	0.487537	-0.312605	0.305444
H272	H	0.987537	0.187395	0.805444
H273	H	0.519154	-0.284498	0.291254
H274	H	1.019154	0.215502	0.791254
O275	O	-0.071309	-0.463598	0.535442
O276	O	0.428691	0.036402	1.035442
C277	C	-0.071332	-0.504535	0.576459
C278	C	0.428668	-0.004535	1.076459
H279	H	-0.043164	-0.537202	0.565961
H280	H	0.456836	-0.037202	1.065961
H281	H	-0.063017	-0.500710	0.602315
H282	H	0.436983	-0.000710	1.102315
C283	C	-0.155241	-0.470170	0.613410
C284	C	0.344759	0.029830	1.113410
C285	C	-0.120646	-0.510293	0.600516
C286	C	0.379354	-0.010293	1.100516
H287	H	-0.185660	-0.473721	0.628251
H288	H	0.314340	0.026279	1.128251
H289	H	-0.155225	-0.442590	0.585778
H290	H	0.344775	0.057410	1.085778
H291	H	-0.148305	-0.466987	0.634955
H292	H	0.351695	0.033013	1.134955
H293	H	-0.127579	-0.513472	0.578967
H294	H	0.372421	-0.013472	1.078967
H295	H	-0.120664	-0.537874	0.628145
H296	H	0.379336	-0.037874	1.128145
O297	O	0.079095	0.008209	0.534984
O298	O	0.579095	0.508209	1.034984
C299	C	0.117667	-0.032781	0.545888
C300	C	0.617667	0.467219	1.045888
H301	H	0.121411	-0.061440	0.535433
H302	H	0.621411	0.438560	1.035433
H303	H	0.151789	-0.023499	0.525335
H304	H	0.651789	0.476501	1.025335
C305	C	0.104053	-0.016182	0.612522
C306	C	0.604053	0.483818	1.112522
C307	C	0.108649	-0.051383	0.599686
C308	C	0.608649	0.448617	1.099686
H309	H	0.098492	-0.027656	0.645707
H310	H	0.598492	0.472344	1.145707
H311	H	0.078068	0.011435	0.605176
H312	H	0.578068	0.511435	1.105176
H313	H	0.132489	-0.008451	0.595391
H314	H	0.632489	0.491549	1.095391
H315	H	0.080211	-0.059109	0.616812
H316	H	0.580211	0.440891	1.116812
H317	H	0.134629	-0.079001	0.607036
H318	H	0.634629	0.420999	1.107036
H319	H	0.164941	0.008624	0.353583
H320	H	0.664941	0.508624	0.853583
H321	H	0.550485	-0.403881	0.468626
H322	H	1.050485	0.096119	0.968626
O323	O	0.021592	0.008212	0.348634
O324	O	0.521592	0.508212	0.848634
C325	C	-0.025199	0.008201	0.365994
C326	C	0.474801	0.508201	0.865994
H327	H	-0.037701	-0.006775	0.406540
H328	H	0.462299	0.493225	0.906540
H329	H	-0.049843	0.046175	0.353953
H330	H	0.450157	0.546175	0.853953
C331	C	-0.010777	-0.004482	0.296650
C332	C	0.489223	0.495518	0.796650
C333	C	-0.026131	-0.022880	0.346450
C334	C	0.473869	0.477120	0.846450
H335	H	-0.011353	-0.023653	0.284593
H336	H	0.488647	0.476347	0.784593
H337	H	0.020747	-0.004473	0.284954
H338	H	0.520747	0.495527	0.784954
H339	H	-0.031316	0.027162	0.286623
H340	H	0.468684	0.527162	0.786623
H341	H	-0.005588	-0.054522	0.356476
H342	H	0.494412	0.445478	0.856476
H343	H	-0.057651	-0.022895	0.358147
H344	H	0.442349	0.477105	0.858147
H345	H	-0.064344	0.008241	0.529850
H346	H	0.435656	0.508241	1.029850
H347	H	0.550674	-0.579628	0.556096
H348	H	1.050674	-0.079628	1.056096
O349	O	0.172133	-0.520128	0.348362
O350	O	0.672133	-0.020128	0.848362
C351	C	0.201716	-0.566904	0.365557
C352	C	0.701716	-0.066904	0.865557
H353	H	0.188808	-0.579512	0.406103
H354	H	0.688808	-0.079512	0.906103
H355	H	0.200405	-0.591521	0.353502
H356	H	0.700405	-0.091521	0.853502
C357	C	0.269095	-0.552227	0.296055
C358	C	0.769095	-0.052227	0.796055
C359	C	0.253243	-0.567711	0.345853
C360	C	0.753243	-0.067711	0.845853
H361	H	0.300880	-0.552726	0.283899
H362	H	0.800880	-0.052726	0.783899
H363	H	0.249164	-0.520713	0.284469
H364	H	0.749164	-0.020713	0.784469
H365	H	0.267999	-0.572744	0.286015
H366	H	0.767999	-0.072744	0.786015
H367	H	0.254334	-0.547191	0.355892
H368	H	0.754334	-0.047191	0.855892
H369	H	0.273175	-0.599221	0.357440
H370	H	0.773175	-0.099221	0.857440
H371	H	0.049217	-0.382297	0.551240
H372	H	0.549217	0.117703	1.051240
H373	H	-0.037264	-0.377079	0.941710
H374	H	0.462736	0.122921	1.441710
H375	H	0.077514	-0.606615	0.529644
H376	H	0.577514	-0.106615	1.029644
O377	O	0.144046	-0.463147	0.941583
O378	O	0.644046	0.036853	1.441583
C379	C	0.154950	-0.424587	0.900594
C380	C	0.654950	0.075413	1.400594
H381	H	0.144482	-0.420836	0.871939
H382	H	0.644482	0.079164	1.371939
H383	H	0.134411	-0.390458	0.909875
H384	H	0.634411	0.109542	1.409875
C385	C	0.221604	-0.438243	0.917183
C386	C	0.721604	0.061757	1.417183
C387	C	0.208750	-0.433639	0.881987
C388	C	0.708750	0.066361	1.381987
H389	H	0.254790	-0.443825	0.905707
H390	H	0.754790	0.056175	1.405707
H391	H	0.214256	-0.464221	0.944800
H392	H	0.714256	0.035779	1.444800
H393	H	0.204484	-0.409801	0.924914
H394	H	0.704484	0.090199	1.424914
H395	H	0.225865	-0.462083	0.874261
H396	H	0.725865	0.037917	1.374261
H397	H	0.216101	-0.407666	0.854369
H398	H	0.716101	0.092334	1.354369
O399	O	0.011612	-0.410614	0.818337
O400	O	0.511612	0.089386	1.318337
C401	C	-0.009097	-0.427664	0.806186
C402	C	0.490903	0.072336	1.306186
H403	H	0.014505	-0.432538	0.769996
H404	H	0.514505	0.067462	1.269996
H405	H	-0.012782	-0.463282	0.834228
H406	H	0.487218	0.036718	1.334228
C407	C	-0.087614	-0.385605	0.848369
C408	C	0.412386	0.114395	1.348369
C409	C	-0.058627	-0.391588	0.803918
C410	C	0.441373	0.108412	1.303918
H411	H	-0.118167	-0.363353	0.846971
H412	H	0.381833	0.136647	1.346971
H413	H	-0.073662	-0.374119	0.856557
H414	H	0.426338	0.125881	1.356557
H415	H	-0.090679	-0.415290	0.871732
H416	H	0.409321	0.084710	1.371732
H417	H	-0.055558	-0.361905	0.780557
H418	H	0.444442	0.138095	1.280557
H419	H	-0.072580	-0.403068	0.795726
H420	H	0.427420	0.096932	1.295726
O421	O	0.172115	-0.490845	0.818247
O422	O	0.672115	0.009155	1.318247
C423	C	0.200934	-0.532626	0.806040
C424	C	0.700934	-0.032626	1.306040
H425	H	0.181678	-0.539554	0.792354
H426	H	0.681678	-0.039554	1.292354
H427	H	0.235928	-0.528087	0.777098
H428	H	0.735928	-0.028087	1.277098
C429	C	0.234804	-0.566529	0.867096
C430	C	0.734804	-0.066529	1.367096
C431	C	0.211152	-0.575040	0.850291
C432	C	0.711152	-0.075040	1.350291
H433	H	0.241109	-0.592692	0.894392
H434	H	0.741109	-0.092692	1.394392
H435	H	0.215389	-0.538380	0.875319
H436	H	0.715389	-0.038380	1.375319
H437	H	0.263963	-0.562745	0.842974
H438	H	0.763963	-0.062745	1.342974
H439	H	0.181991	-0.578818	0.874412
H440	H	0.681991	-0.078818	1.374412
H441	H	0.230562	-0.603192	0.842073
H442	H	0.730562	-0.103192	1.342073
O443	O	0.204751	-0.458059	0.720006
O444	O	0.704751	0.041941	1.220006
C445	C	0.216773	-0.483129	0.691170
C446	C	0.716773	0.016871	1.191170
H447	H	0.188688	-0.500001	0.706204
H448	H	0.688688	-0.000001	1.206204
H449	H	0.218394	-0.457498	0.653411
H450	H	0.718394	0.042502	1.153411
C451	C	0.300148	-0.501626	0.671903
C452	C	0.800148	-0.001626	1.171903
C453	C	0.265656	-0.522352	0.690371
C454	C	0.765656	-0.022352	1.190371
H455	H	0.330302	-0.525819	0.671408
H456	H	0.830302	-0.025819	1.171408
H457	H	0.292049	-0.484734	0.691329
H458	H	0.792049	0.015266	1.191329
H459	H	0.301493	-0.480267	0.640439
H460	H	0.801493	0.019733	1.140439
H461	H	0.264307	-0.543706	0.721836
H462	H	0.764307	-0.043706	1.221836
H463	H	0.273756	-0.539248	0.670950
H464	H	0.773756	-0.039248	1.170950
H465	H	0.019058	-0.412426	0.521121
H466	H	0.519058	0.087574	1.021121
H467	H	0.166679	-0.486211	0.447227
H468	H	0.666679	0.013789	0.947227
H469	H	0.332881	-0.492283	0.542031
H470	H	0.832881	0.007717	1.042031
O471	O	0.204545	-0.457928	0.475347
O472	O	0.704545	0.042072	0.975347
C473	C	0.225190	-0.440853	0.425432
C474	C	0.725190	0.059147	0.925432
H475	H	0.201542	-0.435977	0.408018
H476	H	0.701542	0.064023	0.908018
H477	H	0.228874	-0.405233	0.414163
H478	H	0.728874	0.094767	0.914163
C479	C	0.303755	-0.482896	0.431044
C480	C	0.803755	0.017104	0.931044
C481	C	0.274712	-0.476911	0.409655
C482	C	0.774712	0.023089	0.909655
H483	H	0.334304	-0.505136	0.421311
H484	H	0.834304	-0.005136	0.921311
H485	H	0.289847	-0.494398	0.464673
H486	H	0.789847	0.005602	0.964673
H487	H	0.306820	-0.453209	0.421651
H488	H	0.806820	0.046791	0.921651
H489	H	0.271643	-0.506596	0.419053
H490	H	0.771643	-0.006596	0.919053
H491	H	0.288622	-0.465414	0.376027
H492	H	0.788622	0.034586	0.876027
O493	O	0.427123	-0.530054	0.513005
O494	O	0.927123	-0.030054	1.013005
C495	C	0.394461	-0.554752	0.537474
C496	C	0.894461	-0.054752	1.037474
H497	H	0.358947	-0.533020	0.557911
H498	H	0.858947	-0.033020	1.057911
H499	H	0.389137	-0.560518	0.510825
H500	H	0.889137	-0.060518	1.010825
C501	C	0.457568	-0.629986	0.547496
C502	C	0.957568	-0.129986	1.047496
C503	C	0.413950	-0.603297	0.572600
C504	C	0.913950	-0.103297	1.072600
H505	H	0.469590	-0.659932	0.569161
H506	H	0.969590	-0.159932	1.069161
H507	H	0.479574	-0.613347	0.531008
H508	H	0.979574	-0.113347	1.031008
H509	H	0.453126	-0.634787	0.525289
H510	H	0.953126	-0.134787	1.025289
H511	H	0.418394	-0.598492	0.594801
H512	H	0.918394	-0.098492	1.094801
H513	H	0.391946	-0.619936	0.589091
H514	H	0.891946	-0.119936	1.089091
O515	O	0.427068	-0.371013	0.452321
O516	O	0.927068	0.128987	0.952321
C517	C	0.394381	-0.324544	0.449671
C518	C	0.894381	0.175456	0.949671
H519	H	0.358851	-0.322609	0.452963
H520	H	0.858851	0.177391	0.952963
H521	H	0.389109	-0.315243	0.479856
H522	H	0.889109	0.184757	0.979856
C523	C	0.457431	-0.291340	0.397512
C524	C	0.957431	0.208660	0.897512
C525	C	0.413794	-0.288962	0.401551
C526	C	0.913794	0.211038	0.901551
H527	H	0.469406	-0.269390	0.367830
H528	H	0.969406	0.230610	0.867830
H529	H	0.479453	-0.322647	0.399298
H530	H	0.979453	0.177353	0.899298
H531	H	0.453032	-0.283589	0.422668
H532	H	0.953032	0.216411	0.922668
H533	H	0.418195	-0.296718	0.376398
H534	H	0.918195	0.203282	0.876398
H535	H	0.391773	-0.257655	0.399759
H536	H	0.891773	0.242345	0.899759
O537	O	0.328830	-0.338366	0.485158
O538	O	0.828830	0.161634	0.985158
C539	C	0.279509	-0.330578	0.504934
C540	C	0.779509	0.169422	1.004934
H541	H	0.272703	-0.361038	0.507338
H542	H	0.772703	0.138962	1.007338
H543	H	0.265395	-0.328818	0.542072
H544	H	0.765395	0.171182	1.042072
C545	C	0.262250	-0.245887	0.470165
C546	C	0.762250	0.254113	0.970165
C547	C	0.253891	-0.283297	0.473115
C548	C	0.753891	0.216703	0.973115
H549	H	0.246447	-0.216721	0.450540
H550	H	0.746447	0.283279	0.950540
H551	H	0.295479	-0.251134	0.456843
H552	H	0.795479	0.248866	0.956843
H553	H	0.250488	-0.244427	0.501116
H554	H	0.750488	0.255573	1.001116
H555	H	0.265658	-0.284761	0.442165
H556	H	0.765658	0.215239	0.942165
H557	H	0.220664	-0.278049	0.486431
H558	H	0.720664	0.221951	0.986431
O559	O	0.164331	-0.213214	0.435303
O560	O	0.664331	0.286786	0.935303
C561	C	0.171356	-0.180524	0.388506
C562	C	0.671356	0.319476	0.888506
H563	H	0.141301	-0.145008	0.388617
H564	H	0.641301	0.354992	0.888617
H565	H	0.206850	-0.175210	0.374203
H566	H	0.706850	0.324790	0.874203
C567	C	0.208595	-0.243591	0.356421
C568	C	0.708595	0.256409	0.856421
C569	C	0.171680	-0.199971	0.356557
C570	C	0.671680	0.300029	0.856557
H571	H	0.208797	-0.255586	0.336712
H572	H	0.708797	0.244414	0.836712
H573	H	0.203864	-0.265615	0.387949
H574	H	0.703864	0.234385	0.887949
H575	H	0.238170	-0.239157	0.344503
H576	H	0.738170	0.260843	0.844503
H577	H	0.142106	-0.204406	0.368480
H578	H	0.642106	0.295594	0.868480
H579	H	0.176406	-0.177947	0.325030
H580	H	0.676406	0.322053	0.825030
O581	O	0.084239	-0.213373	0.595804
O582	O	0.584239	0.286627	1.095804
C583	C	0.059183	-0.242237	0.607880
C584	C	0.559183	0.257763	1.107880
H585	H	0.042261	-0.227219	0.579830
H586	H	0.542261	0.272781	1.079830
H587	H	0.084834	-0.279991	0.609492
H588	H	0.584834	0.220009	1.109492
C589	C	0.040806	-0.261500	0.691236
C590	C	0.540806	0.238500	1.191236
C591	C	0.020019	-0.243052	0.656786
C592	C	0.520019	0.256948	1.156786
H593	H	0.016649	-0.262005	0.721404
H594	H	0.516649	0.237995	1.221404
H595	H	0.057688	-0.242055	0.683100
H596	H	0.557688	0.257945	1.183100
H597	H	0.062182	-0.292959	0.692573
H598	H	0.562182	0.207041	1.192573
H599	H	-0.001351	-0.211592	0.655445
H600	H	0.498649	0.288408	1.155445
H601	H	0.003133	-0.262492	0.664923
H602	H	0.503133	0.237508	1.164923
H603	H	0.055974	-0.119015	0.558014
H604	H	0.555974	0.380985	1.058014
O605	O	0.131474	-0.115024	0.402664
O606	O	0.631474	0.384976	0.902664
C607	C	0.089580	-0.086199	0.390659
C608	C	0.589580	0.413801	0.890659
H609	H	0.059665	-0.101233	0.418768
H610	H	0.559665	0.398767	0.918768
H611	H	0.079082	-0.048432	0.389013
H612	H	0.579082	0.451568	0.889013
C613	C	0.135150	-0.066954	0.307273
C614	C	0.635150	0.433046	0.807273
C615	C	0.098409	-0.085422	0.341796
C616	C	0.598409	0.414578	0.841796
H617	H	0.140596	-0.066472	0.277132
H618	H	0.640596	0.433528	0.777132
H619	H	0.163375	-0.086372	0.315361
H620	H	0.663375	0.413628	0.815361
H621	H	0.126398	-0.035483	0.305908
H622	H	0.626398	0.464517	0.805908
H623	H	0.107164	-0.116893	0.343165
H624	H	0.607164	0.383107	0.843165
H625	H	0.070185	-0.066008	0.333707
H626	H	0.570185	0.433992	0.833707
O627	O	-0.063173	-0.485404	0.163180
O628	O	0.436827	0.014596	0.663180
C629	C	-0.038009	-0.456617	0.151046
C630	C	0.461991	0.043383	0.651046
H631	H	0.001858	-0.475896	0.137411
H632	H	0.501858	0.024104	0.637411
H633	H	-0.048566	-0.421610	0.122088
H634	H	0.451434	0.078390	0.622088
C635	C	-0.099083	-0.422741	0.212073
C636	C	0.400917	0.077259	0.712073
C637	C	-0.050116	-0.446421	0.195331
C638	C	0.449884	0.053579	0.695331
H639	H	-0.106552	-0.416449	0.239389
H640	H	0.393448	0.083551	0.739389
H641	H	-0.116037	-0.442133	0.220247
H642	H	0.383963	0.057867	0.720247
H643	H	-0.107874	-0.393571	0.187937
H644	H	0.392126	0.106429	0.687937
H645	H	-0.041327	-0.475593	0.219464
H646	H	0.458673	0.024407	0.719464
H647	H	-0.033161	-0.427033	0.187162
H648	H	0.466839	0.072967	0.687162
O649	O	-0.030443	-0.452731	0.064992
O650	O	0.469557	0.047269	0.564992
C651	C	-0.080348	-0.431994	0.077098
C652	C	0.419652	0.068006	0.577098
H653	H	-0.096421	-0.460344	0.090762
H654	H	0.403579	0.039656	0.590762
H655	H	-0.095143	-0.416253	0.106026
H656	H	0.404857	0.083747	0.606026
C657	C	-0.073422	-0.357488	0.016007
C658	C	0.426578	0.142512	0.516007
C659	C	-0.093163	-0.392308	0.032785
C660	C	0.406837	0.107692	0.532785
H661	H	-0.081327	-0.333007	-0.011327
H662	H	0.418673	0.166993	0.488673
H663	H	-0.039800	-0.371458	0.007851
H664	H	0.460200	0.128542	0.507851
H665	H	-0.085753	-0.344376	0.040118
H666	H	0.414247	0.155624	0.540118
H667	H	-0.080827	-0.405423	0.008676
H668	H	0.419173	0.094577	0.508676
H669	H	-0.126783	-0.378339	0.040935
H670	H	0.373217	0.121661	0.540935
H671	H	0.015032	-0.638195	0.159378
H672	H	0.515032	-0.138195	0.659378
O673	O	0.049802	-0.613268	0.065135
O674	O	0.549802	-0.113268	0.565135
C675	C	0.056791	-0.660062	0.097833
C676	C	0.556791	-0.160062	0.597833
H677	H	0.051176	-0.659967	0.133372
H678	H	0.551176	-0.159967	0.633372
H679	H	0.030267	-0.674301	0.103078
H680	H	0.530267	-0.174301	0.603078
C681	C	0.114737	-0.692189	0.034807
C682	C	0.614737	-0.192189	0.534807
C683	C	0.107845	-0.692073	0.078456
C684	C	0.607845	-0.192073	0.578456
H685	H	0.146228	-0.711936	0.022854
H686	H	0.646228	-0.211936	0.522854
H687	H	0.110027	-0.660663	0.012777
H688	H	0.610027	-0.160663	0.512777
H689	H	0.092630	-0.704054	0.039184
H690	H	0.592630	-0.204054	0.539184
H691	H	0.129947	-0.680203	0.074078
H692	H	0.629947	-0.180203	0.574078
H693	H	0.112560	-0.723598	0.100485
H694	H	0.612560	-0.223598	0.600485
H695	H	-0.058984	-0.490504	0.332300
H696	H	0.441016	0.009496	0.832300
H697	H	-0.028907	-0.460416	0.362542
H698	H	0.471093	0.039584	0.862542
H699	H	0.044746	-0.608091	0.436494
H700	H	0.544746	-0.108091	0.936494
H701	H	0.014660	-0.638178	0.406265
H702	H	0.514660	-0.138178	0.906265
H703	H	0.081021	-0.864532	0.371574
H704	H	0.581021	-0.364532	0.871574
O705	O	0.056040	-0.770275	0.337640
O706	O	0.556040	-0.270275	0.837640
C707	C	0.089902	-0.782477	0.296577
C708	C	0.589902	-0.282477	0.796577
H709	H	0.092234	-0.818649	0.301067
H710	H	0.592234	-0.318649	0.801067
H711	H	0.078695	-0.754428	0.264262
H712	H	0.578695	-0.254428	0.764262
C713	C	0.136016	-0.740409	0.283792
C714	C	0.636016	-0.240409	0.783792
C715	C	0.138883	-0.784838	0.289309
C716	C	0.638883	-0.284838	0.789309
H717	H	0.166229	-0.741863	0.279308
H718	H	0.666229	-0.241863	0.779308
H719	H	0.113202	-0.732186	0.311457
H720	H	0.613202	-0.232186	0.811457
H721	H	0.126675	-0.717039	0.256864
H722	H	0.626675	-0.217039	0.756864
H723	H	0.148218	-0.808205	0.316240
H724	H	0.648218	-0.308205	0.816240
H725	H	0.161700	-0.793065	0.261649
H726	H	0.661700	-0.293065	0.761649
O727	O	-0.070358	-0.868224	0.430846
O728	O	0.429642	-0.368224	0.930846
C729	C	-0.116809	-0.835512	0.433445
C730	C	0.383191	-0.335512	0.933445
H731	H	-0.118743	-0.799997	0.430190
H732	H	0.381257	-0.299997	0.930190
H733	H	-0.126065	-0.830207	0.403214
H734	H	0.373935	-0.330207	0.903214
C735	C	-0.150058	-0.898540	0.485514
C736	C	0.349942	-0.398540	0.985514
C737	C	-0.152434	-0.854920	0.481520
C738	C	0.347566	-0.354920	0.981520
H739	H	-0.172034	-0.910512	0.515168
H740	H	0.327966	-0.410512	1.015168
H741	H	-0.118763	-0.920579	0.483762
H742	H	0.381237	-0.420579	0.983762
H743	H	-0.157770	-0.894113	0.460319
H744	H	0.342230	-0.394113	0.960319
H745	H	-0.144716	-0.859348	0.506711
H746	H	0.355284	-0.359348	1.006711
H747	H	-0.183728	-0.832882	0.483278
H748	H	0.316272	-0.332882	0.983278
H749	H	-0.231954	-0.601008	0.442726
H750	H	0.268046	-0.101008	0.942726
O751	O	-0.102946	-0.769995	0.397961
O752	O	0.397054	-0.269995	0.897961
C753	C	-0.109644	-0.741183	0.353443
C754	C	0.390356	-0.241183	0.853443
H755	H	-0.075356	-0.733763	0.325726
H756	H	0.424644	-0.233763	0.825726
H757	H	-0.119445	-0.760370	0.342330
H758	H	0.380555	-0.260370	0.842330
C759	C	-0.192152	-0.702929	0.391310
C760	C	0.307848	-0.202929	0.891310
C761	C	-0.150040	-0.693812	0.357268
C762	C	0.349960	-0.193812	0.857268
H763	H	-0.217072	-0.673709	0.393670
H764	H	0.282928	-0.173709	0.893670
H765	H	-0.187641	-0.722342	0.421303
H766	H	0.312359	-0.222342	0.921303
H767	H	-0.200313	-0.718919	0.382045
H768	H	0.299687	-0.218919	0.882045
H769	H	-0.141877	-0.677828	0.366537
H770	H	0.358123	-0.177828	0.866537
H771	H	-0.154551	-0.674395	0.327277
H772	H	0.345449	-0.174395	0.827277
H773	H	-0.322352	-0.570775	0.472713
H774	H	0.177648	-0.070775	0.972713
H775	H	0.023260	-0.376951	0.354059
H776	H	0.523260	0.123049	0.854059
H777	H	-0.231721	-0.527215	0.295000
H778	H	0.268279	-0.027215	0.795000
O779	O	-0.325953	-0.492475	0.319827
O780	O	0.174047	0.007525	0.819827
C781	C	-0.293220	-0.485469	0.273054
C782	C	0.206780	0.014531	0.773054
H783	H	-0.257714	-0.491074	0.273208
H784	H	0.242286	0.008926	0.773208
H785	H	-0.287908	-0.511993	0.258769
H786	H	0.212092	-0.011993	0.758769
C787	C	-0.356209	-0.427531	0.240860
C788	C	0.143791	0.072469	0.740860
C789	C	-0.312601	-0.434411	0.241049
C790	C	0.187399	0.065589	0.741049
H791	H	-0.368164	-0.396037	0.221117
H792	H	0.131836	0.103963	0.721117
H793	H	-0.378262	-0.432253	0.272372
H794	H	0.121738	0.067747	0.772372
H795	H	-0.351776	-0.449638	0.228957
H796	H	0.148224	0.050362	0.728957
H797	H	-0.317035	-0.412309	0.252957
H798	H	0.182965	0.087691	0.752957
H799	H	-0.290549	-0.429685	0.209538
H800	H	0.209451	0.070315	0.709538
