data_functionalizedCrystal
_audit_creation_method	'MofGen! by Chris Wilmer'
_symmetry_space_group_name_H-M	'P1'
_symmetry_Int_Tables_number	1
_symmetry_cell_setting	triclinic
loop_
_symmetry_equiv_pos_as_xyz
  x,y,z
_cell_length_a	19.188930
_cell_length_b	19.188924
_cell_length_c	14.185292
_cell_angle_alpha	103.112153
_cell_angle_beta	76.899887
_cell_angle_gamma	83.143372
loop_
_atom_site_label
_atom_site_type_symbol
_atom_site_fract_x
_atom_site_fract_y
_atom_site_fract_z
O1	O	0.910189	0.103110	0.083744
O2	O	1.410189	0.603110	0.583744
O3	O	0.706891	0.114831	0.083676
O4	O	1.206891	0.614831	0.583676
O5	O	0.814411	0.007313	0.083701
O6	O	1.314411	0.507313	0.583701
O7	O	0.802668	0.210628	0.083720
O8	O	1.302668	0.710628	0.583720
O9	O	0.846185	-0.024450	-0.083135
O10	O	1.346185	0.475550	0.416865
O11	O	0.738664	0.083068	-0.083159
O12	O	1.238664	0.583068	0.416841
O13	O	0.941962	0.071347	-0.083091
O14	O	1.441962	0.571347	0.416909
Cu15	Cu	0.843214	0.074308	-0.098358
Cu16	Cu	1.343214	0.574308	0.401642
Cu17	Cu	0.805639	0.111871	0.098944
Cu18	Cu	1.305639	0.611871	0.598944
O19	O	0.834441	0.178866	-0.083115
O20	O	1.334441	0.678866	0.416885
C21	C	0.696768	0.098568	0.000250
C22	C	1.196768	0.598568	0.500250
C23	C	0.619268	0.097422	0.000223
C24	C	1.119268	0.597422	0.500223
C25	C	0.829919	-0.034580	0.000282
C26	C	1.329919	0.465420	0.500282
C27	C	0.828781	-0.112085	0.000279
C28	C	1.328781	0.387915	0.500279
C29	C	0.810930	-0.131170	0.091221
C30	C	1.310930	0.368830	0.591221
C31	C	0.809848	-0.203992	0.091228
C32	C	1.309848	0.296008	0.591228
C33	C	0.826633	-0.257728	0.000288
C34	C	1.326633	0.242272	0.500288
C35	C	0.844483	-0.238636	-0.090666
C36	C	1.344483	0.261364	0.409334
C37	C	0.845556	-0.165815	-0.090670
C38	C	1.345556	0.334185	0.409330
N39	N	0.877569	-0.390275	-0.067383
N40	N	1.377569	0.109725	0.432617
N41	N	0.876549	-0.459451	-0.067373
N42	N	1.376549	0.040549	0.432627
C43	C	0.823397	-0.477136	0.000297
C44	C	1.323397	0.022864	0.500297
N45	N	0.771310	-0.423029	0.067970
N46	N	1.271310	0.076971	0.567970
N47	N	0.772332	-0.353846	0.067963
N48	N	1.272332	0.146154	0.567963
C49	C	0.825470	-0.336693	0.000283
C50	C	1.325470	0.163307	0.500283
C51	C	0.804372	-0.575181	0.091253
C52	C	1.304372	-0.075181	0.591253
C53	C	0.803287	-0.648003	0.091256
C54	C	1.303287	-0.148003	0.591256
C55	C	0.837929	-0.682648	-0.090640
C56	C	1.337929	-0.182648	0.409360
C57	C	0.839006	-0.609825	-0.090641
C58	C	1.339006	-0.109825	0.409359
C59	C	0.822230	-0.556096	0.000308
C60	C	1.322230	-0.056096	0.500308
C61	C	0.574339	0.160518	0.000245
C62	C	1.074339	0.660518	0.500245
C63	C	0.501513	0.159448	0.000256
C64	C	1.001513	0.659448	0.500256
C65	C	0.473616	0.095283	0.000265
C66	C	0.973616	0.595283	0.500265
C67	C	0.518557	0.032179	0.000238
C68	C	1.018557	0.532179	0.500238
C69	C	0.591383	0.033248	0.000217
C70	C	1.091383	0.533248	0.500217
N71	N	0.354817	0.057053	0.057082
N72	N	0.854817	0.557053	0.557082
N73	N	0.285634	0.056042	0.057104
N74	N	0.785634	0.556042	0.557104
C75	C	0.254196	0.092057	0.000326
C76	C	0.754196	0.592057	0.500326
N77	N	0.294551	0.129134	-0.056462
N78	N	0.794551	0.629134	0.443538
N79	N	0.363739	0.130148	-0.056479
N80	N	0.863739	0.630148	0.443521
C81	C	0.394649	0.094117	0.000288
C82	C	0.894649	0.594117	0.500288
C83	C	0.130300	0.153996	0.000359
C84	C	0.630300	0.653996	0.500359
C85	C	0.057474	0.152923	0.000363
C86	C	0.557474	0.652923	0.500363
C87	C	0.074518	0.025654	0.000355
C88	C	0.574518	0.525654	0.500355
C89	C	0.147344	0.026727	0.000340
C90	C	0.647344	0.526727	0.500340
C91	C	0.175229	0.090901	0.000347
C92	C	0.675229	0.590901	0.500347
C93	C	0.952085	0.087611	0.000338
C94	C	1.452085	0.587611	0.500338
C95	C	1.029583	0.088758	0.000371
C96	C	1.529583	0.588758	0.500371
C97	C	0.818934	0.220759	0.000306
C98	C	1.318934	0.720759	0.500306
C99	C	0.820071	0.298265	0.000316
C100	C	1.320071	0.798265	0.500316
N101	N	0.869648	0.047887	-0.237130
N102	N	1.369648	0.547887	0.262870
C103	C	0.947284	-0.029692	-0.394638
C104	C	1.447284	0.470308	0.105362
C105	C	0.927263	-0.009691	-0.289616
C106	C	1.427263	0.490309	0.210384
C107	C	0.832028	0.085484	-0.289653
C108	C	1.332028	0.585484	0.210347
C109	C	0.852038	0.065488	-0.394677
C110	C	1.352038	0.565488	0.105323
C111	C	0.909667	0.007900	-0.447161
C112	C	1.409667	0.507900	0.052839
C113	C	0.814422	0.103081	-0.447201
C114	C	1.314422	0.603081	0.052799
C115	C	0.834433	0.083089	-0.552216
C116	C	1.334433	0.583089	-0.052216
C117	C	0.892061	0.025504	-0.604707
C118	C	1.392061	0.525504	-0.104707
C119	C	0.929679	-0.012092	-0.552176
C120	C	1.429679	0.487908	-0.052176
C121	C	0.756796	0.160672	-0.394715
C122	C	1.256796	0.660672	0.105285
C123	C	0.719180	0.198264	-0.447238
C124	C	1.219180	0.698264	0.052762
C125	C	0.739188	0.178269	-0.552255
C126	C	1.239188	0.678269	-0.052255
C127	C	0.796816	0.120685	-0.604746
C128	C	1.296816	0.620685	-0.104746
C129	C	0.701570	0.215865	-0.604786
C130	C	1.201570	0.715865	-0.104786
C131	C	0.721582	0.195873	-0.709801
C132	C	1.221582	0.695873	-0.209801
C133	C	0.816827	0.100693	-0.709761
C134	C	1.316827	0.600693	-0.209761
N135	N	0.779211	0.138285	0.237715
N136	N	1.279211	0.638285	0.737715
H137	H	0.797268	-0.087427	0.165279
H138	H	1.297268	0.412573	0.665279
H139	H	0.740508	0.176949	-0.309205
H140	H	1.240508	0.676949	0.190795
C141	C	0.043836	-0.044928	0.000364
C142	C	0.543836	0.455072	0.500364
N143	N	0.020723	-0.098093	0.000369
N144	N	0.520723	0.401907	0.500369
H145	H	0.153008	0.206248	0.000349
H146	H	0.653008	0.706248	0.500349
C147	C	0.655787	0.261608	-0.389494
C148	C	1.155787	0.761608	0.110506
N149	N	0.608037	0.309318	-0.346002
N150	N	1.108037	0.809318	0.153998
C151	C	0.785908	-0.516074	0.191298
C152	C	1.285908	-0.016074	0.691298
N153	N	0.771999	-0.471557	0.266653
N154	N	1.271999	0.028443	0.766653
C155	C	0.768635	0.148828	-0.231909
C156	C	1.268635	0.648828	0.268091
N157	N	0.720885	0.196538	-0.188417
N158	N	1.220885	0.696538	0.311583
C159	C	0.790206	-0.224991	0.191275
C160	C	1.290206	0.275009	0.691275
N161	N	0.775410	-0.240805	0.266631
N162	N	1.275410	0.259195	0.766631
C163	C	0.862944	-0.297747	-0.190700
C164	C	1.362944	0.202253	0.309300
N165	N	0.876848	-0.342270	-0.266049
N166	N	1.376848	0.157730	0.233951
H167	H	0.464925	0.210829	0.000271
H168	H	0.964925	0.710829	0.500271
H169	H	0.994206	-0.076591	-0.437373
H170	H	1.494206	0.423409	0.062627
C171	C	0.865199	-0.144823	-0.190718
C172	C	1.365199	0.355177	0.309282
N173	N	0.879996	-0.129011	-0.266076
N174	N	1.379996	0.370989	0.233924
C175	C	0.638183	0.279214	-0.547039
C176	C	1.138183	0.779214	-0.047039
N177	N	0.590438	0.326928	-0.503544
N178	N	1.090438	0.826928	-0.003544
C179	C	0.605012	0.231107	0.000232
C180	C	1.105012	0.731107	0.500232
N181	N	0.628118	0.284275	0.000216
N182	N	1.128118	0.784275	0.500216
H183	H	0.788746	-0.663538	0.165315
H184	H	1.288746	-0.163538	0.665315
H185	H	0.690951	0.226486	-0.752566
H186	H	1.190951	0.726486	-0.252566
H187	H	0.627965	-0.018133	0.000200
H188	H	1.127965	0.481867	0.500200
H189	H	0.851590	-0.726399	-0.164685
H190	H	1.351590	-0.226399	0.335315
H191	H	0.495836	-0.020062	0.000259
H192	H	0.995836	0.479938	0.500259
H193	H	0.020894	0.204304	0.000375
H194	H	0.520894	0.704304	0.500375
H195	H	0.863750	0.053794	-0.752496
H196	H	1.363750	0.553794	-0.252496
C197	C	0.196766	-0.042681	0.000328
C198	C	0.696766	0.457319	0.500328
N199	N	0.233992	-0.094963	0.000317
N200	N	0.733992	0.405037	0.500317
C201	C	0.858651	-0.588832	-0.190686
C202	C	1.358651	-0.088832	0.309314
N203	N	0.873448	-0.573022	-0.266044
N204	N	1.373448	-0.073022	0.233956
H205	H	0.908356	0.009230	-0.690217
H206	H	1.408356	0.509230	-0.190217
C207	C	0.968647	-0.051052	-0.231844
C208	C	1.468647	0.448948	0.268156
N209	N	0.999818	-0.082205	-0.188330
N210	N	1.499818	0.417795	0.311670
C211	C	0.993077	-0.075439	-0.609915
C212	C	1.493077	0.424561	-0.109915
N213	N	1.040830	-0.123146	-0.653403
N214	N	1.540830	0.376854	-0.153403
