data_functionalizedCrystal
_audit_creation_method	'MofGen! by Chris Wilmer'
_symmetry_space_group_name_H-M	'P1'
_symmetry_Int_Tables_number	1
_symmetry_cell_setting	triclinic
loop_
_symmetry_equiv_pos_as_xyz
  x,y,z
_cell_length_a	15.944499
_cell_length_b	15.944493
_cell_length_c	15.021413
_cell_angle_alpha	90.009890
_cell_angle_beta	89.990095
_cell_angle_gamma	83.476327
loop_
_atom_site_label
_atom_site_type_symbol
_atom_site_fract_x
_atom_site_fract_y
_atom_site_fract_z
O1	O	1.114533	0.108117	-0.074074
O2	O	1.364533	0.358117	0.175926
O3	O	1.614533	0.608117	0.425926
O4	O	1.864533	0.858117	0.675926
O5	O	0.869975	0.121519	-0.074062
O6	O	1.119975	0.371519	0.175938
O7	O	1.369975	0.621519	0.425938
O8	O	1.619975	0.871519	0.675938
O9	O	0.998958	-0.007461	-0.074076
O10	O	1.248958	0.242539	0.175924
O11	O	1.498958	0.492539	0.425924
O12	O	1.748958	0.742539	0.675924
O13	O	0.985551	0.237097	-0.074060
O14	O	1.235551	0.487097	0.175940
O15	O	1.485551	0.737097	0.425940
O16	O	1.735551	0.987097	0.675940
O17	O	0.998937	-0.007443	0.073989
O18	O	1.248937	0.242557	0.323989
O19	O	1.498937	0.492557	0.573989
O20	O	1.748937	0.742557	0.823989
O21	O	0.869955	0.121537	0.074002
O22	O	1.119955	0.371537	0.324002
O23	O	1.369955	0.621537	0.574002
O24	O	1.619955	0.871537	0.824002
O25	O	1.114513	0.108135	0.073991
O26	O	1.364513	0.358135	0.323991
O27	O	1.614513	0.608135	0.573991
O28	O	1.864513	0.858135	0.823991
Zn29	Zn	0.992230	0.114839	0.097505
Zn30	Zn	1.242230	0.364839	0.347505
Zn31	Zn	1.492230	0.614839	0.597505
Zn32	Zn	1.742230	0.864839	0.847505
Zn33	Zn	0.992257	0.114815	-0.097576
Zn34	Zn	1.242257	0.364815	0.152424
Zn35	Zn	1.492257	0.614815	0.402424
Zn36	Zn	1.742257	0.864815	0.652424
O37	O	0.985530	0.237116	0.074004
O38	O	1.235530	0.487116	0.324004
O39	O	1.485530	0.737116	0.574004
O40	O	1.735530	0.987116	0.824004
C41	C	0.838670	0.120979	-0.000029
C42	C	1.088670	0.370979	0.249971
C43	C	1.338670	0.620979	0.499971
C44	C	1.588670	0.870979	0.749971
C45	C	0.745422	0.119334	-0.000025
C46	C	0.995422	0.369334	0.249975
C47	C	1.245422	0.619334	0.499975
C48	C	1.495422	0.869334	0.749975
C49	C	0.998400	-0.038747	-0.000047
C50	C	1.248400	0.211253	0.249953
C51	C	1.498400	0.461253	0.499953
C52	C	1.748400	0.711253	0.749953
C53	C	0.996757	-0.131995	-0.000059
C54	C	1.246757	0.118005	0.249941
C55	C	1.496757	0.368005	0.499941
C56	C	1.746757	0.618005	0.749941
C57	C	0.453871	0.194269	-0.000034
C58	C	0.703871	0.444269	0.249966
C59	C	0.953871	0.694269	0.499966
C60	C	1.203871	0.944269	0.749966
C61	C	0.514918	0.155307	-0.073041
C62	C	0.764918	0.405307	0.176959
C63	C	1.014918	0.655307	0.426959
C64	C	1.264918	0.905307	0.676959
C65	C	0.409787	0.113358	-0.000046
C66	C	0.659787	0.363358	0.249954
C67	C	0.909787	0.613358	0.499954
C68	C	1.159787	0.863358	0.749954
C69	C	0.514884	0.155303	0.072939
C70	C	0.764884	0.405303	0.322939
C71	C	1.014884	0.655303	0.572939
C72	C	1.264884	0.905303	0.822939
C73	C	0.574695	0.116299	-0.000034
C74	C	0.824695	0.366299	0.249966
C75	C	1.074695	0.616299	0.499966
C76	C	1.324695	0.866299	0.749966
C77	C	0.469606	0.074374	-0.073114
C78	C	0.719606	0.324374	0.176886
C79	C	0.969606	0.574374	0.426886
C80	C	1.219606	0.824374	0.676886
C81	C	0.469565	0.074382	0.072931
C82	C	0.719565	0.324382	0.322931
C83	C	0.969565	0.574382	0.572931
C84	C	1.219565	0.824382	0.822931
C85	C	0.530595	0.035361	-0.000094
C86	C	0.780595	0.285361	0.249906
C87	C	1.030595	0.535361	0.499906
C88	C	1.280595	0.785361	0.749906
C89	C	0.314787	0.111666	-0.000054
C90	C	0.564787	0.361666	0.249946
C91	C	0.814787	0.611666	0.499946
C92	C	1.064787	0.861666	0.749946
C93	C	0.669694	0.117984	-0.000033
C94	C	0.919694	0.367984	0.249967
C95	C	1.169694	0.617984	0.499967
C96	C	1.419694	0.867984	0.749967
C97	C	1.072679	-0.367769	-0.000045
C98	C	1.322679	-0.117769	0.249955
C99	C	1.572679	0.132231	0.499955
C100	C	1.822679	0.382231	0.749955
C101	C	1.031747	-0.418339	-0.073046
C102	C	1.281747	-0.168339	0.176954
C103	C	1.531747	0.081661	0.426954
C104	C	1.781747	0.331661	0.676954
C105	C	0.993713	-0.302716	-0.000048
C106	C	1.243713	-0.052716	0.249952
C107	C	1.493713	0.197284	0.499952
C108	C	1.743713	0.447284	0.749952
C109	C	1.031709	-0.418297	0.072933
C110	C	1.281709	-0.168297	0.322933
C111	C	1.531709	0.081703	0.572933
C112	C	1.781709	0.331703	0.822933
C113	C	0.990778	-0.467625	-0.000033
C114	C	1.240778	-0.217625	0.249967
C115	C	1.490778	0.032375	0.499967
C116	C	1.740778	0.282375	0.749967
C117	C	0.952802	-0.352057	-0.073109
C118	C	1.202802	-0.102057	0.176891
C119	C	1.452802	0.147943	0.426891
C120	C	1.702802	0.397943	0.676891
C121	C	0.952775	-0.352012	0.072936
C122	C	1.202775	-0.102012	0.322936
C123	C	1.452775	0.147988	0.572936
C124	C	1.702775	0.397988	0.822936
C125	C	0.911785	-0.402548	-0.000082
C126	C	1.161785	-0.152548	0.249918
C127	C	1.411785	0.097452	0.499918
C128	C	1.661785	0.347452	0.749918
C129	C	0.995405	-0.207716	-0.000057
C130	C	1.245405	0.042284	0.249943
C131	C	1.495405	0.292284	0.499943
C132	C	1.745405	0.542284	0.749943
C133	C	0.989079	-0.562622	-0.000030
C134	C	1.239079	-0.312622	0.249970
C135	C	1.489079	-0.062622	0.499970
C136	C	1.739079	0.187378	0.749970
C137	C	1.145818	0.108675	-0.000045
C138	C	1.395818	0.358675	0.249955
C139	C	1.645818	0.608675	0.499955
C140	C	1.895818	0.858675	0.749955
C141	C	1.239066	0.110320	-0.000054
C142	C	1.489066	0.360320	0.249946
C143	C	1.739066	0.610320	0.499946
C144	C	1.989066	0.860320	0.749946
C145	C	0.986088	0.268401	-0.000026
C146	C	1.236088	0.518401	0.249974
C147	C	1.486088	0.768401	0.499974
C148	C	1.736088	1.018401	0.749974
C149	C	0.987731	0.361650	-0.000021
C150	C	1.237731	0.611650	0.249979
C151	C	1.487731	0.861650	0.499979
C152	C	1.737731	1.111650	0.749979
N153	N	0.992218	0.114855	0.230642
N154	N	1.242218	0.364855	0.480642
N155	N	1.492218	0.614855	0.730642
N156	N	1.742218	0.864855	0.980642
N157	N	0.992276	0.114792	-0.230714
N158	N	1.242276	0.364792	0.019286
N159	N	1.492276	0.614792	0.269286
N160	N	1.742276	0.864792	0.519286
C161	C	0.932567	0.174468	0.470332
C162	C	1.182567	0.424468	0.720332
C163	C	1.432567	0.674468	0.970332
C164	C	1.682567	0.924468	1.220332
C165	C	1.008466	0.190761	0.529664
C166	C	1.258466	0.440761	0.779664
C167	C	1.508466	0.690761	1.029664
C168	C	1.758466	0.940761	1.279664
C169	C	0.992240	0.114834	0.412249
C170	C	1.242240	0.364834	0.662249
C171	C	1.492240	0.614834	0.912249
C172	C	1.742240	0.864834	1.162249
C173	C	0.916361	0.098560	0.529659
C174	C	1.166361	0.348560	0.779659
C175	C	1.416361	0.598560	1.029659
C176	C	1.666361	0.848560	1.279659
C177	C	0.992254	0.114816	0.587673
C178	C	1.242254	0.364816	0.837673
C179	C	1.492254	0.614816	1.087673
C180	C	1.742254	0.864816	1.337673
C181	C	1.068177	0.131165	0.470275
C182	C	1.318177	0.381165	0.720275
C183	C	1.568177	0.631165	0.970275
C184	C	1.818177	0.881165	1.220275
C185	C	0.976022	0.038931	0.470264
C186	C	1.226022	0.288931	0.720264
C187	C	1.476022	0.538931	0.970264
C188	C	1.726022	0.788931	1.220264
C189	C	1.051976	0.055192	0.529570
C190	C	1.301976	0.305192	0.779570
C191	C	1.551976	0.555192	1.029570
C192	C	1.801976	0.805192	1.279570
C193	C	0.992230	0.114847	0.311192
C194	C	1.242230	0.364847	0.561192
C195	C	1.492230	0.614847	0.811192
C196	C	1.742230	0.864847	1.061192
C197	C	0.992272	0.114803	0.688728
C198	C	1.242272	0.364803	0.938728
C199	C	1.492272	0.614803	1.188728
C200	C	1.742272	0.864803	1.438728
H201	H	0.420527	0.261416	-0.000100
H202	H	0.670527	0.511416	0.249900
H203	H	0.920527	0.761416	0.499900
H204	H	1.170527	1.011416	0.749900
Cl205	Cl	0.545858	0.208171	0.168227
Cl206	Cl	0.795858	0.458171	0.418227
Cl207	Cl	1.045858	0.708171	0.668227
Cl208	Cl	1.295858	0.958171	0.918227
Cl209	Cl	0.954788	-0.060130	0.429946
Cl210	Cl	1.204788	0.189870	0.679946
Cl211	Cl	1.454788	0.439870	0.929946
Cl212	Cl	1.704788	0.689870	1.179946
H213	H	1.102500	0.004751	0.555417
H214	H	1.352500	0.254751	0.805417
H215	H	1.602500	0.504751	1.055417
H216	H	1.852500	0.754751	1.305417
H217	H	0.919481	-0.323239	-0.134892
H218	H	1.169481	-0.073239	0.115108
H219	H	1.419481	0.176761	0.365108
H220	H	1.669481	0.426761	0.615108
H221	H	1.065104	-0.447298	-0.134767
H222	H	1.315104	-0.197298	0.115233
H223	H	1.565104	0.052702	0.365233
H224	H	1.815104	0.302702	0.615233
Cl225	Cl	0.438500	0.021600	0.168223
Cl226	Cl	0.688500	0.271600	0.418223
Cl227	Cl	0.938500	0.521600	0.668223
Cl228	Cl	1.188500	0.771600	0.918223
H229	H	0.852187	0.084803	0.555746
H230	H	1.102187	0.334803	0.805746
H231	H	1.352187	0.584803	1.055746
H232	H	1.602187	0.834803	1.305746
Cl233	Cl	1.177694	-0.343655	-0.000160
Cl234	Cl	1.427694	-0.093655	0.249840
Cl235	Cl	1.677694	0.156345	0.499840
Cl236	Cl	1.927694	0.406345	0.749840
H237	H	0.843713	-0.418002	-0.000119
H238	H	1.093713	-0.168002	0.249881
H239	H	1.343713	0.081998	0.499881
H240	H	1.593713	0.331998	0.749881
H241	H	0.535018	0.189524	-0.134755
H242	H	0.785018	0.439524	0.115245
H243	H	1.035018	0.689524	0.365245
H244	H	1.285018	0.939524	0.615245
Cl245	Cl	1.083205	-0.462960	0.168215
Cl246	Cl	1.333205	-0.212960	0.418215
Cl247	Cl	1.583205	0.037040	0.668215
Cl248	Cl	1.833205	0.287040	0.918215
Cl249	Cl	0.438791	0.021566	-0.168511
Cl250	Cl	0.688791	0.271566	0.081489
Cl251	Cl	0.938791	0.521566	0.331489
Cl252	Cl	1.188791	0.771566	0.581489
Cl253	Cl	0.581851	-0.068398	-0.000161
Cl254	Cl	0.831851	0.181602	0.249839
Cl255	Cl	1.081851	0.431602	0.499839
Cl256	Cl	1.331851	0.681602	0.749839
H257	H	1.022196	0.254943	0.555754
H258	H	1.272196	0.504943	0.805754
H259	H	1.522196	0.754943	1.055754
H260	H	1.772196	1.004943	1.305754
H261	H	0.882155	0.224939	0.444321
H262	H	1.132155	0.474939	0.694321
H263	H	1.382155	0.724939	0.944321
H264	H	1.632155	0.974939	1.194321
Cl265	Cl	0.901336	-0.307254	0.168234
Cl266	Cl	1.151336	-0.057254	0.418234
Cl267	Cl	1.401336	0.192746	0.668234
Cl268	Cl	1.651336	0.442746	0.918234
H269	H	1.132365	0.144999	0.444300
H270	H	1.382365	0.394999	0.694300
H271	H	1.632365	0.644999	0.944300
H272	H	1.882365	0.894999	1.194300
