data_functionalizedCrystal
_audit_creation_method	'MofGen! by Chris Wilmer'
_symmetry_space_group_name_H-M	'P1'
_symmetry_Int_Tables_number	1
_symmetry_cell_setting	triclinic
loop_
_symmetry_equiv_pos_as_xyz
  x,y,z
_cell_length_a	19.121102
_cell_length_b	19.121063
_cell_length_c	19.121175
_cell_angle_alpha	94.951770
_cell_angle_beta	85.212968
_cell_angle_gamma	90.126902
loop_
_atom_site_label
_atom_site_type_symbol
_atom_site_fract_x
_atom_site_fract_y
_atom_site_fract_z
Zn1	Zn	1.078480	-0.345237	-0.457776
Zn2	Zn	1.411813	-0.011903	-0.124442
Zn3	Zn	1.745147	0.321430	0.208891
Zn4	Zn	1.068784	-0.457452	-0.344694
Zn5	Zn	1.402117	-0.124119	-0.011360
Zn6	Zn	1.735451	0.209214	0.321973
Zn7	Zn	0.956233	-0.334783	-0.334686
Zn8	Zn	1.289566	-0.001450	-0.001353
Zn9	Zn	1.622900	0.331884	0.331980
Zn10	Zn	0.956186	-0.457406	-0.457304
Zn11	Zn	1.289519	-0.124073	-0.123971
Zn12	Zn	1.622852	0.209261	0.209363
O13	O	1.014921	-0.398719	-0.398615
O14	O	1.348254	-0.065386	-0.065282
O15	O	1.681587	0.267947	0.268052
O16	O	1.175477	-0.364516	-0.447161
O17	O	1.508811	-0.031183	-0.113827
O18	O	1.842144	0.302150	0.219506
O19	O	1.049816	-0.436824	-0.244725
O20	O	1.383149	-0.103491	0.088608
O21	O	1.716482	0.229842	0.421941
O22	O	0.976527	-0.237889	-0.347024
O23	O	1.309860	0.095444	-0.013690
O24	O	1.643193	0.428778	0.319643
O25	O	1.168354	-0.446961	-0.364080
O26	O	1.501687	-0.113627	-0.030747
O27	O	1.835020	0.219706	0.302587
O28	O	1.066341	-0.245569	-0.437457
O29	O	1.399674	0.087764	-0.104124
O30	O	1.733008	0.421097	0.229210
O31	O	0.967125	-0.346700	-0.237373
O32	O	1.300458	-0.013367	0.095961
O33	O	1.633792	0.319967	0.429294
O34	O	0.857943	-0.346655	-0.346566
O35	O	1.191276	-0.013322	-0.013233
O36	O	1.524610	0.320012	0.320100
O37	O	0.976446	-0.446882	-0.556008
O38	O	1.309780	-0.113549	-0.222674
O39	O	1.643113	0.219785	0.110659
O40	O	0.857908	-0.436746	-0.436653
O41	O	1.191242	-0.103412	-0.103320
O42	O	1.524575	0.229921	0.230014
O43	O	1.066295	-0.364472	-0.556354
O44	O	1.399629	-0.031138	-0.223021
O45	O	1.732962	0.302195	0.110312
O46	O	1.049770	-0.555727	-0.363622
O47	O	1.383103	-0.222393	-0.030289
O48	O	1.716436	0.110940	0.303044
O49	O	0.967044	-0.555693	-0.446357
O50	O	1.300378	-0.222359	-0.113023
O51	O	1.633711	0.110974	0.220310
C52	C	0.832442	-0.390561	-0.390473
C53	C	1.165775	-0.057228	-0.057140
C54	C	1.499109	0.276105	0.276194
C55	C	0.754377	-0.387089	-0.387007
C56	C	1.087710	-0.053756	-0.053674
C57	C	1.421043	0.279578	0.279660
C58	C	0.717696	-0.432428	-0.432214
C59	C	1.051029	-0.099094	-0.098881
C60	C	1.384363	0.234239	0.234453
C61	C	0.644346	-0.429156	-0.428961
C62	C	0.977679	-0.095823	-0.095627
C63	C	1.311013	0.237511	0.237706
C64	C	0.607678	-0.380548	-0.380496
C65	C	0.941011	-0.047215	-0.047163
C66	C	1.274344	0.286118	0.286170
C67	C	0.644364	-0.335205	-0.335287
C68	C	0.977697	-0.001872	-0.001954
C69	C	1.311030	0.331462	0.331379
C70	C	0.717713	-0.338474	-0.338545
C71	C	1.051046	-0.005141	-0.005211
C72	C	1.384379	0.328193	0.328122
C73	C	0.386212	-0.368326	-0.368321
C74	C	0.719545	-0.034992	-0.034988
C75	C	1.052878	0.298341	0.298346
C76	C	0.312858	-0.365061	-0.365066
C77	C	0.646191	-0.031728	-0.031732
C78	C	0.979524	0.301605	0.301601
C79	C	0.312845	-0.459012	-0.458740
C80	C	0.646179	-0.125679	-0.125407
C81	C	0.979512	0.207655	0.207926
C82	C	0.386195	-0.462279	-0.461990
C83	C	0.719529	-0.128946	-0.128657
C84	C	1.052862	0.204387	0.204676
C85	C	0.422875	-0.416933	-0.416784
C86	C	0.756208	-0.083600	-0.083451
C87	C	1.089542	0.249733	0.249883
C88	C	0.532702	-0.377205	-0.377168
C89	C	0.866035	-0.043871	-0.043835
C90	C	1.199369	0.289462	0.289499
C91	C	0.497850	-0.420275	-0.420116
C92	C	0.831183	-0.086941	-0.086783
C93	C	1.164516	0.246392	0.246550
C94	C	1.007370	-0.581194	-0.406040
C95	C	1.340703	-0.247861	-0.072707
C96	C	1.674036	0.085472	0.260626
C97	C	1.004204	-0.659262	-0.409244
C98	C	1.337538	-0.325928	-0.075910
C99	C	1.670871	0.007405	0.257423
C100	C	1.045825	-0.695936	-0.367712
C101	C	1.379158	-0.362602	-0.034379
C102	C	1.712491	-0.029269	0.298955
C103	C	1.042852	-0.769289	-0.370729
C104	C	1.376185	-0.435955	-0.037396
C105	C	1.709519	-0.102622	0.295938
C106	C	0.998255	-0.805966	-0.415274
C107	C	1.331589	-0.472633	-0.081941
C108	C	1.664922	-0.139300	0.251393
C109	C	0.956634	-0.769287	-0.456810
C110	C	1.289967	-0.435954	-0.123477
C111	C	1.623300	-0.102621	0.209856
C112	C	0.959610	-0.695936	-0.453797
C113	C	1.292943	-0.362603	-0.120463
C114	C	1.626277	-0.029269	0.212870
C115	C	0.987115	-1.027440	-0.426530
C116	C	1.320448	-0.694107	-0.093196
C117	C	1.653781	-0.360774	0.240137
C118	C	0.984139	-1.100797	-0.429539
C119	C	1.317473	-0.767463	-0.096205
C120	C	1.650806	-0.434130	0.237128
C121	C	1.070359	-1.100793	-0.343458
C122	C	1.403693	-0.767460	-0.010124
C123	C	1.737026	-0.434126	0.323209
C124	C	1.073329	-1.027440	-0.340445
C125	C	1.406662	-0.694107	-0.007112
C126	C	1.739996	-0.360773	0.326222
C127	C	1.031710	-0.990768	-0.381984
C128	C	1.365043	-0.657435	-0.048651
C129	C	1.698377	-0.324101	0.284683
C130	C	0.995214	-0.880945	-0.418357
C131	C	1.328548	-0.547611	-0.085024
C132	C	1.661881	-0.214278	0.248310
C133	C	1.034755	-0.915791	-0.378904
C134	C	1.368088	-0.582458	-0.045571
C135	C	1.701422	-0.249124	0.287763
C136	C	1.198112	-0.406910	-0.406789
C137	C	1.531445	-0.073577	-0.073456
C138	C	1.864778	0.259757	0.259877
C139	C	1.276177	-0.410400	-0.410273
C140	C	1.609510	-0.077067	-0.076939
C141	C	1.942844	0.256267	0.256394
C142	C	1.022447	-0.406838	-0.582473
C143	C	1.355780	-0.073504	-0.249139
C144	C	1.689114	0.259829	0.084194
C145	C	1.025654	-0.410297	-0.660822
C146	C	1.358988	-0.076964	-0.327488
C147	C	1.692321	0.256369	0.005845
C148	C	1.022521	-0.215534	-0.391177
C149	C	1.355854	0.117800	-0.057843
C150	C	1.689187	0.451133	0.275490
C151	C	1.025760	-0.137471	-0.388007
C152	C	1.359093	0.195863	-0.054674
C153	C	1.692426	0.529196	0.278660
C154	C	0.984110	-0.365001	-0.693802
C155	C	1.317444	-0.031667	-0.360469
C156	C	1.650777	0.301666	-0.027135
C157	C	0.987121	-0.368257	-0.767419
C158	C	1.320455	-0.034924	-0.434086
C159	C	1.653788	0.298410	-0.100753
C160	C	1.031680	-0.416807	-0.808055
C161	C	1.365013	-0.083474	-0.474722
C162	C	1.698347	0.249860	-0.141389
C163	C	1.073225	-0.462109	-0.775070
C164	C	1.406559	-0.128775	-0.441737
C165	C	1.739892	0.204558	-0.108404
C166	C	1.070210	-0.458855	-0.701454
C167	C	1.403544	-0.125522	-0.368121
C168	C	1.736877	0.207812	-0.034787
C169	C	1.042933	-0.428981	-1.030520
C170	C	1.376267	-0.095647	-0.697187
C171	C	1.709600	0.237686	-0.363854
C172	C	1.045947	-0.432229	-1.104141
C173	C	1.379280	-0.098896	-0.770808
C174	C	1.712613	0.234437	-0.437475
C175	C	0.959841	-0.338378	-1.096485
C176	C	1.293174	-0.005045	-0.763152
C177	C	1.626508	0.328289	-0.429819
C178	C	0.956833	-0.335126	-1.022868
C179	C	1.290167	-0.001793	-0.689535
C180	C	1.623500	0.331540	-0.356201
C181	C	0.998376	-0.380430	-0.989889
C182	C	1.331709	-0.047097	-0.656556
C183	C	1.665043	0.286237	-0.323223
C184	C	1.034760	-0.420135	-0.883304
C185	C	1.368093	-0.086802	-0.549971
C186	C	1.701427	0.246532	-0.216638
C187	C	0.995292	-0.377105	-0.914642
C188	C	1.328625	-0.043772	-0.581308
C189	C	1.661958	0.289562	-0.247975
C190	C	1.007466	-0.390584	-0.215472
C191	C	1.340799	-0.057251	0.117861
C192	C	1.674133	0.276083	0.451194
C193	C	1.004403	-0.386933	-0.137122
C194	C	1.337736	-0.053599	0.196212
C195	C	1.671069	0.279734	0.529545
H196	H	0.282973	-0.495929	-0.495546
H197	H	0.616306	-0.162596	-0.162212
H198	H	0.949639	0.170738	0.171121
Br199	Br	1.133692	-0.528005	-0.830218
Br200	Br	1.467025	-0.194672	-0.496885
Br201	Br	1.800359	0.138662	-0.163552
H202	H	0.416067	-0.331407	-0.331506
H203	H	0.749400	0.001927	0.001828
H204	H	1.082734	0.335260	0.335161
H205	H	0.527708	-0.459848	-0.459579
H206	H	0.861042	-0.126514	-0.126245
H207	H	1.194375	0.206819	0.207088
H208	H	1.076752	-0.465878	-1.003678
H209	H	1.410086	-0.132545	-0.670345
H210	H	1.743419	0.200789	-0.337011
H211	H	1.109643	-0.997579	-0.304173
H212	H	1.442976	-0.664245	0.029161
H213	H	1.776310	-0.330912	0.362494
H214	H	1.104244	-1.130660	-0.309640
H215	H	1.437577	-0.797326	0.023693
H216	H	1.770911	-0.463993	0.357026
Br217	Br	0.923599	-1.150572	-0.489984
Br218	Br	1.256932	-0.817239	-0.156651
Br219	Br	1.590265	-0.483906	0.176682
Br220	Br	0.903128	-0.646164	-0.510168
Br221	Br	1.236461	-0.312830	-0.176835
Br222	Br	1.569795	0.020503	0.156499
H223	H	0.502838	-0.337630	-0.337707
H224	H	0.836172	-0.004296	-0.004373
H225	H	1.169505	0.329037	0.328960
H226	H	1.076743	-0.799145	-0.336909
H227	H	1.410076	-0.465812	-0.003576
H228	H	1.743410	-0.132479	0.329758
H229	H	0.283005	-0.325472	-0.325604
H230	H	0.616338	0.007862	0.007729
H231	H	0.949671	0.341195	0.341063
H232	H	1.082235	-0.471766	-1.137226
H233	H	1.415568	-0.138432	-0.803892
H234	H	1.748901	0.194901	-0.470559
H235	H	1.071039	-0.459665	-0.916398
H236	H	1.404373	-0.126332	-0.583065
H237	H	1.737706	0.207001	-0.249732
Br238	Br	1.126588	-0.520337	-0.656694
Br239	Br	1.459921	-0.187003	-0.323361
Br240	Br	1.793255	0.146330	0.009972
H241	H	0.947830	-0.325462	-0.660721
H242	H	1.281163	0.007871	-0.327388
H243	H	1.614497	0.341205	0.005946
Br244	Br	0.896362	-0.269231	-0.967724
Br245	Br	1.229695	0.064102	-0.634391
Br246	Br	1.563029	0.397436	-0.301057
H247	H	0.959010	-0.337578	-0.881553
H248	H	1.292343	-0.004245	-0.548219
H249	H	1.625676	0.329089	-0.214886
H250	H	0.747546	-0.472011	-0.471677
H251	H	1.080879	-0.138678	-0.138343
H252	H	1.414213	0.194655	0.194990
H253	H	0.614484	-0.466076	-0.465772
H254	H	0.947817	-0.132743	-0.132439
H255	H	1.281151	0.200591	0.200894
Br256	Br	0.930632	-0.977680	-0.482905
Br257	Br	1.263965	-0.644347	-0.149571
Br258	Br	1.597298	-0.311013	0.183762
H259	H	0.926019	-0.301495	-1.123345
H260	H	1.259352	0.031838	-0.790011
H261	H	1.592685	0.365172	-0.456678
Br262	Br	0.896115	-0.819064	-0.517272
Br263	Br	1.229448	-0.485730	-0.183938
Br264	Br	1.562781	-0.152397	0.149395
H265	H	0.416046	-0.501862	-0.501454
H266	H	0.749379	-0.168529	-0.168120
H267	H	1.082712	0.164804	0.165213
Br268	Br	1.095282	-0.866014	-0.318456
Br269	Br	1.428615	-0.532681	0.014877
Br270	Br	1.761949	-0.199347	0.348210
Br271	Br	1.106345	-0.646166	-0.307248
Br272	Br	1.439678	-0.312832	0.026085
Br273	Br	1.773012	0.020501	0.359419
H274	H	0.953289	-0.331374	-0.794268
H275	H	1.286622	0.001959	-0.460935
H276	H	1.619956	0.335293	-0.127602
Br277	Br	0.594601	-0.269230	-0.269520
Br278	Br	0.927934	0.064103	0.063814
Br279	Br	1.261267	0.397436	0.397147
H280	H	0.747577	-0.301551	-0.301736
H281	H	1.080911	0.031782	0.031597
H282	H	1.414244	0.365116	0.364931
H283	H	0.958902	-0.910816	-0.454624
H284	H	1.292235	-0.577482	-0.121291
H285	H	1.625569	-0.244149	0.212042
