data_functionalizedCrystal
_audit_creation_method	'MofGen! by Chris Wilmer'
_symmetry_space_group_name_H-M	'P1'
_symmetry_Int_Tables_number	1
_symmetry_cell_setting	triclinic
loop_
_symmetry_equiv_pos_as_xyz
  x,y,z
_cell_length_a	18.050590
_cell_length_b	18.050589
_cell_length_c	16.959447
_cell_angle_alpha	89.973357
_cell_angle_beta	90.000229
_cell_angle_gamma	90.017386
loop_
_atom_site_label
_atom_site_type_symbol
_atom_site_fract_x
_atom_site_fract_y
_atom_site_fract_z
Zn1	Zn	1.135296	-0.295860	-0.446622
Zn2	Zn	1.635296	0.204140	0.053378
Zn3	Zn	1.135206	-0.420061	-0.314452
Zn4	Zn	1.635206	0.079939	0.185548
Zn5	Zn	1.011114	-0.295866	-0.314493
Zn6	Zn	1.511114	0.204134	0.185507
Zn7	Zn	1.011064	-0.419989	-0.446624
Zn8	Zn	1.511064	0.080011	0.053376
O9	O	1.073170	-0.357944	-0.380548
O10	O	1.573170	0.142056	0.119452
O11	O	1.239209	-0.312363	-0.429071
O12	O	1.739209	0.187637	0.070929
O13	O	1.118728	-0.403619	-0.203846
O14	O	1.618728	0.096381	0.296154
O15	O	1.027647	-0.191941	-0.332037
O16	O	1.527647	0.308059	0.167963
O17	O	1.239142	-0.403613	-0.331966
O18	O	1.739142	0.096387	0.168034
O19	O	1.118883	-0.191936	-0.429111
O20	O	1.618883	0.308064	0.070889
O21	O	1.027559	-0.312374	-0.203877
O22	O	1.527559	0.187626	0.296123
O23	O	0.907183	-0.312304	-0.332039
O24	O	1.407183	0.187696	0.167961
O25	O	1.027560	-0.403490	-0.557235
O26	O	1.527560	0.096510	-0.057235
O27	O	0.907146	-0.403496	-0.429115
O28	O	1.407146	0.096504	0.070885
O29	O	1.118833	-0.312293	-0.557233
O30	O	1.618833	0.187707	-0.057233
O31	O	1.118679	-0.523976	-0.331968
O32	O	1.618679	-0.023976	0.168032
O33	O	1.027472	-0.523923	-0.429075
O34	O	1.527472	-0.023923	0.070925
C35	C	0.880218	-0.357893	-0.380582
C36	C	1.380218	0.142107	0.119418
C37	C	0.797672	-0.357889	-0.380615
C38	C	1.297672	0.142111	0.119385
C39	C	0.598223	-0.407622	-0.433280
C40	C	1.098223	0.092378	0.066720
C41	C	0.548830	-0.339904	-0.452725
C42	C	1.048830	0.160096	0.047275
C43	C	0.646542	-0.357931	-0.380576
C44	C	1.146542	0.142069	0.119424
C45	C	0.548853	-0.425687	-0.361130
C46	C	1.048853	0.074313	0.138870
C47	C	0.500557	-0.357977	-0.380541
C48	C	1.000557	0.142023	0.119459
C49	C	0.598236	-0.290177	-0.400060
C50	C	1.098236	0.209823	0.099940
C51	C	0.598264	-0.376006	-0.308431
C52	C	1.098264	0.123994	0.191569
C53	C	0.548893	-0.308242	-0.327849
C54	C	1.048893	0.191758	0.172151
C55	C	0.730640	-0.357905	-0.380599
C56	C	1.230640	0.142095	0.119401
C57	C	0.416460	-0.357995	-0.380518
C58	C	0.916460	0.142005	0.119482
C59	C	1.073080	-0.550896	-0.380535
C60	C	1.573080	-0.050896	0.119465
C61	C	1.073110	-0.633442	-0.380555
C62	C	1.573110	-0.133442	0.119445
C63	C	1.023561	-0.832891	-0.433343
C64	C	1.523561	-0.332891	0.066657
C65	C	1.005462	-0.882331	-0.361221
C66	C	1.505462	-0.382331	0.138779
C67	C	1.073183	-0.784572	-0.380566
C68	C	1.573183	-0.284572	0.119434
C69	C	1.091318	-0.882213	-0.452696
C70	C	1.591318	-0.382213	0.047304
C71	C	1.073252	-0.930557	-0.380582
C72	C	1.573252	-0.430557	0.119418
C73	C	1.055049	-0.832925	-0.308405
C74	C	1.555049	-0.332925	0.191595
C75	C	1.140936	-0.832803	-0.399929
C76	C	1.640936	-0.332803	0.100071
C77	C	1.122864	-0.882222	-0.327757
C78	C	1.622864	-0.382222	0.172243
C79	C	1.073141	-0.700474	-0.380557
C80	C	1.573141	-0.200474	0.119443
C81	C	1.073294	-1.014654	-0.380582
C82	C	1.573294	-0.514654	0.119418
C83	C	1.266876	-0.357995	-0.380514
C84	C	1.766876	0.142005	0.119486
C85	C	1.349421	-0.358017	-0.380500
C86	C	1.849421	0.141983	0.119500
C87	C	1.073201	-0.357882	-0.586716
C88	C	1.573201	0.142118	-0.086716
C89	C	1.073214	-0.357856	-0.674573
C90	C	1.573214	0.142144	-0.174573
C91	C	1.073280	-0.164238	-0.380578
C92	C	1.573280	0.335762	0.119422
C93	C	1.073327	-0.081693	-0.380591
C94	C	1.573327	0.418307	0.119409
C95	C	1.025781	-0.405260	-1.046052
C96	C	1.525781	0.094740	-0.546052
C97	C	1.120825	-0.310296	-1.046045
C98	C	1.620825	0.189704	-0.546045
C99	C	1.120805	-0.310312	-0.963499
C100	C	1.620805	0.189688	-0.463499
C101	C	1.073273	-0.357803	-0.922226
C102	C	1.573273	0.142197	-0.422226
C103	C	1.025761	-0.405279	-0.963498
C104	C	1.525761	0.094721	-0.463498
C105	C	1.168321	-0.262842	-0.922221
C106	C	1.668321	0.237158	-0.422221
C107	C	1.168304	-0.262856	-0.839670
C108	C	1.668304	0.237144	-0.339670
C109	C	1.120768	-0.310345	-0.798395
C110	C	1.620768	0.189655	-0.298395
C111	C	1.073254	-0.357822	-0.839672
C112	C	1.573254	0.142178	-0.339672
C113	C	1.025722	-0.405313	-0.798399
C114	C	1.525722	0.094687	-0.298399
C115	C	0.978203	-0.452787	-0.839675
C116	C	1.478203	0.047213	-0.339675
C117	C	0.978225	-0.452767	-0.922223
C118	C	1.478225	0.047233	-0.422223
C119	C	1.120746	-0.310365	-0.715846
C120	C	1.620746	0.189635	-0.215846
C121	C	1.025702	-0.405332	-0.715845
C122	C	1.525702	0.094668	-0.215845
C123	C	1.073182	-0.357952	-0.175181
C124	C	1.573182	0.142048	0.324819
C125	C	1.073313	-0.357769	-0.087325
C126	C	1.573313	0.142231	0.412675
H127	H	0.619837	-0.232879	-0.416561
H128	H	1.119837	0.267121	0.083439
H129	H	0.939506	-0.491458	-0.806059
H130	H	1.439506	0.008542	-0.306059
H131	H	1.207024	-0.224182	-0.955832
H132	H	1.707024	0.275818	-0.455832
H133	H	1.206996	-0.224200	-0.806070
H134	H	1.706996	0.275800	-0.306070
H135	H	0.527157	-0.482968	-0.344700
H136	H	1.027157	0.017032	0.155300
H137	H	1.159527	-0.271635	-1.079655
H138	H	1.659527	0.228365	-0.579655
H139	H	0.986989	-0.443999	-0.682246
H140	H	1.486989	0.056001	-0.182246
C141	C	0.519808	-0.251439	-0.267622
C142	C	1.019808	0.248561	0.232378
H143	H	0.536809	-0.203368	-0.281553
H144	H	1.036809	0.296632	0.218447
H145	H	0.537483	-0.263852	-0.216540
H146	H	1.037483	0.236148	0.283460
H147	H	0.467182	-0.252045	-0.267633
H148	H	0.967182	0.247955	0.232367
H149	H	0.527116	-0.324631	-0.513722
H150	H	1.027116	0.175369	-0.013722
C151	C	0.925966	-0.504987	-0.967627
C152	C	1.425966	-0.004987	-0.467627
H153	H	0.932793	-0.498179	-1.022701
H154	H	1.432793	0.001821	-0.522701
H155	H	0.876069	-0.494111	-0.954120
H156	H	1.376069	0.005889	-0.454120
H157	H	0.936809	-0.554894	-0.954083
H158	H	1.436809	-0.054894	-0.454083
C159	C	1.179591	-0.911307	-0.267407
C160	C	1.679591	-0.411307	0.232593
H161	H	1.166611	-0.894340	-0.216221
H162	H	1.666611	-0.394340	0.283779
H163	H	1.227551	-0.893600	-0.280719
H164	H	1.727551	-0.393600	0.219281
H165	H	1.179592	-0.963934	-0.268040
H166	H	1.679592	-0.463934	0.231960
C167	C	1.112035	-0.911424	-0.535096
C168	C	1.612035	-0.411424	-0.035096
H169	H	1.155878	-0.940339	-0.531556
H170	H	1.655878	-0.440339	-0.031556
H171	H	1.120220	-0.870810	-0.569656
H172	H	1.620220	-0.370810	-0.069656
H173	H	1.072789	-0.941147	-0.554908
H174	H	1.572789	-0.441147	-0.054908
H175	H	0.987090	-0.443910	-1.079662
H176	H	1.487090	0.056090	-0.579662
C177	C	1.173005	-0.258147	-0.670446
C178	C	1.673005	0.241853	-0.170446
H179	H	1.201314	-0.229858	-0.706850
H180	H	1.701314	0.270142	-0.206850
H181	H	1.205338	-0.286568	-0.638222
H182	H	1.705338	0.213432	-0.138222
H183	H	1.144600	-0.225784	-0.638265
H184	H	1.644600	0.274216	-0.138265
C185	C	1.218290	-0.803417	-0.422064
C186	C	1.718290	-0.303417	0.077936
H187	H	1.231083	-0.820270	-0.473346
H188	H	1.731083	-0.320270	0.026654
H189	H	1.253669	-0.821060	-0.385091
H190	H	1.753669	-0.321060	0.114909
H191	H	1.217839	-0.750793	-0.421426
H192	H	1.717839	-0.250793	0.078574
C193	C	0.627626	-0.396665	-0.226057
C194	C	1.127626	0.103335	0.273943
H195	H	0.610749	-0.444831	-0.212329
H196	H	1.110749	0.055169	0.287671
H197	H	0.610002	-0.361875	-0.188472
H198	H	1.110002	0.138125	0.311528
H199	H	0.680251	-0.396054	-0.226556
H200	H	1.180251	0.103946	0.273444
H201	H	0.619885	-0.449570	-0.477899
H202	H	1.119885	0.050430	0.022101
C203	C	0.966792	-0.803621	-0.493550
C204	C	1.466792	-0.303621	0.006450
H205	H	0.918699	-0.820581	-0.479665
H206	H	1.418699	-0.320581	0.020335
H207	H	0.979177	-0.821221	-0.544654
H208	H	1.479177	-0.321221	-0.044654
H209	H	0.967469	-0.750995	-0.493458
H210	H	1.467469	-0.250995	0.006542
H211	H	1.039672	-0.811365	-0.247395
H212	H	1.539672	-0.311365	0.252605
C213	C	0.928102	-0.911724	-0.339099
C214	C	1.428102	-0.411724	0.160901
H215	H	0.892876	-0.894838	-0.376643
H216	H	1.392876	-0.394838	0.123357
H217	H	0.914902	-0.894123	-0.288227
H218	H	1.414902	-0.394123	0.211773
H219	H	0.928801	-0.964348	-0.338798
H220	H	1.428801	-0.464348	0.161202
