data_functionalizedCrystal
_audit_creation_method	'MofGen! by Chris Wilmer'
_symmetry_space_group_name_H-M	'P1'
_symmetry_Int_Tables_number	1
_symmetry_cell_setting	triclinic
loop_
_symmetry_equiv_pos_as_xyz
  x,y,z
_cell_length_a	14.519731
_cell_length_b	14.519731
_cell_length_c	16.776229
_cell_angle_alpha	89.992369
_cell_angle_beta	89.992771
_cell_angle_gamma	83.688853
loop_
_atom_site_label
_atom_site_type_symbol
_atom_site_fract_x
_atom_site_fract_y
_atom_site_fract_z
O1	O	1.223868	0.120986	-0.066292
O2	O	1.723868	0.620986	0.433708
O3	O	0.955395	0.135202	-0.066293
O4	O	1.455395	0.635202	0.433707
O5	O	1.096739	-0.006143	-0.066285
O6	O	1.596739	0.493857	0.433715
O7	O	1.082523	0.262330	-0.066300
O8	O	1.582523	0.762330	0.433700
O9	O	1.096720	-0.006152	0.066291
O10	O	1.596720	0.493848	0.566291
O11	O	0.955376	0.135193	0.066283
O12	O	1.455376	0.635193	0.566283
O13	O	1.223849	0.120977	0.066285
O14	O	1.723849	0.620977	0.566285
Zn15	Zn	1.089610	0.128084	0.087333
Zn16	Zn	1.589610	0.628084	0.587333
Zn17	Zn	1.089634	0.128095	-0.087342
Zn18	Zn	1.589634	0.628095	0.412658
O19	O	1.082505	0.262322	0.066277
O20	O	1.582505	0.762322	0.566277
C21	C	0.921026	0.134531	-0.000005
C22	C	1.421026	0.634531	0.499995
C23	C	0.818645	0.132535	-0.000005
C24	C	1.318645	0.632535	0.499995
C25	C	0.735501	0.130913	-0.000008
C26	C	1.235501	0.630913	0.499992
C27	C	0.631192	0.128887	-0.000009
C28	C	1.131192	0.628887	0.499991
C29	C	0.548053	0.127278	-0.000009
C30	C	1.048053	0.627278	0.499991
C31	C	0.443738	0.125252	-0.000010
C32	C	0.943738	0.625252	0.499990
C33	C	1.096064	-0.040507	0.000003
C34	C	1.596064	0.459493	0.500003
C35	C	1.094068	-0.142887	0.000004
C36	C	1.594068	0.357113	0.500004
C37	C	1.092446	-0.226031	0.000002
C38	C	1.592446	0.273969	0.500002
C39	C	1.090419	-0.330340	-0.000004
C40	C	1.590419	0.169660	0.499996
C41	C	1.088811	-0.413479	-0.000009
C42	C	1.588811	0.086521	0.499991
C43	C	1.086785	-0.517795	-0.000014
C44	C	1.586785	-0.017795	0.499986
C45	C	1.258218	0.121648	-0.000005
C46	C	1.758218	0.621648	0.499995
C47	C	1.360598	0.123644	-0.000010
C48	C	1.860598	0.623644	0.499990
C49	C	1.083180	0.296685	-0.000013
C50	C	1.583180	0.796685	0.499987
C51	C	1.085176	0.399066	-0.000019
C52	C	1.585176	0.899066	0.499981
N53	N	1.089599	0.128075	0.206545
N54	N	1.589599	0.628075	0.706545
N55	N	1.089652	0.128096	-0.206553
N56	N	1.589652	0.628096	0.293447
C57	C	1.152206	0.065514	0.248265
C58	C	1.652206	0.565514	0.748265
C59	C	1.152211	0.065513	0.331717
C60	C	1.652211	0.565513	0.831717
C61	C	1.089613	0.128079	0.373448
C62	C	1.589613	0.628079	0.873448
C63	C	1.027000	0.190643	0.331721
C64	C	1.527000	0.690643	0.831721
C65	C	1.026991	0.190639	0.248270
C66	C	1.526991	0.690639	0.748270
C67	C	1.027033	0.190662	0.668268
C68	C	1.527033	0.690662	1.168268
C69	C	1.027049	0.190663	0.751725
C70	C	1.527049	0.690663	1.251725
C71	C	1.152253	0.065535	0.751715
C72	C	1.652253	0.565535	1.251715
C73	C	1.152244	0.065531	0.668265
C74	C	1.652244	0.565531	1.168265
C75	C	1.089628	0.128092	0.626545
C76	C	1.589628	0.628092	1.126545
C77	C	1.089622	0.128091	0.536057
C78	C	1.589622	0.628091	1.036057
C79	C	1.089623	0.128085	0.463934
C80	C	1.589623	0.628085	0.963934
H81	H	1.203184	0.014569	0.214294
H82	H	1.703184	0.514569	0.714294
N83	N	1.216165	0.001598	0.374321
N84	N	1.716165	0.501598	0.874321
N85	N	1.272053	-0.054257	0.337053
N86	N	1.772053	0.445743	0.837053
H87	H	1.317223	-0.099402	0.367141
H88	H	1.817223	0.400598	0.867141
H89	H	1.203220	0.014587	0.634291
H90	H	1.703220	0.514587	1.134291
N91	N	1.216206	0.001631	0.794344
N92	N	1.716206	0.501631	1.294344
N93	N	1.216207	0.001636	0.868853
N94	N	1.716207	0.501636	1.368853
H95	H	1.261373	-0.043495	0.898959
H96	H	1.761373	0.456505	1.398959
N97	N	0.963097	0.254583	0.794340
N98	N	1.463097	0.754583	1.294340
N99	N	0.907195	0.310435	0.757083
N100	N	1.407195	0.810435	1.257083
H101	H	0.862032	0.355577	0.787179
H102	H	1.362032	0.855577	1.287179
H103	H	0.976027	0.241583	0.365702
H104	H	1.476027	0.741583	0.865702
N105	N	0.963066	0.254566	0.625673
N106	N	1.463066	0.754566	1.125673
N107	N	0.907181	0.310421	0.662944
N108	N	1.407181	0.810421	1.162944
H109	H	0.862000	0.355557	0.632859
H110	H	1.362000	0.855557	1.132859
N111	N	0.963030	0.254547	0.205663
N112	N	1.463030	0.754547	0.705663
N113	N	0.907143	0.310405	0.242929
N114	N	1.407143	0.810405	0.742929
H115	H	0.861965	0.355540	0.212840
H116	H	1.361965	0.855540	0.712840
