data_functionalizedCrystal
_audit_creation_method	'MofGen! by Chris Wilmer'
_symmetry_space_group_name_H-M	'P1'
_symmetry_Int_Tables_number	1
_symmetry_cell_setting	triclinic
loop_
_symmetry_equiv_pos_as_xyz
  x,y,z
_cell_length_a	14.519709
_cell_length_b	13.596369
_cell_length_c	10.654550
_cell_angle_alpha	89.994175
_cell_angle_beta	95.917462
_cell_angle_gamma	89.999709
loop_
_atom_site_label
_atom_site_type_symbol
_atom_site_fract_x
_atom_site_fract_y
_atom_site_fract_z
O1	O	1.224722	0.081663	-0.164625
O2	O	0.956346	0.081693	-0.184012
O3	O	1.096704	0.081671	0.008480
O4	O	1.084363	0.081685	-0.357117
O5	O	1.096690	-0.081912	0.008490
O6	O	0.956331	-0.081890	-0.184001
O7	O	1.224708	-0.081920	-0.164615
Zn8	Zn	1.090517	-0.107877	-0.174307
Zn9	Zn	1.090536	0.107650	-0.174320
O10	O	1.084349	-0.081898	-0.357107
C11	C	0.921974	-0.000095	-0.183103
C12	C	0.819579	-0.000083	-0.180396
N13	N	1.090511	-0.254969	-0.174297
C14	C	1.090535	-0.656260	-0.174321
C15	C	1.090526	-0.544609	-0.174319
C16	C	1.090524	-0.455618	-0.174310
C17	C	1.090513	-0.343960	-0.174305
C18	C	0.444631	-0.000128	-0.170428
C19	C	0.548954	-0.000116	-0.173196
C20	C	0.632102	-0.000105	-0.175412
C21	C	0.736431	-0.000094	-0.178180
C22	C	1.259079	-0.000130	-0.165524
C23	C	1.361475	-0.000135	-0.168231
C24	C	1.095791	-0.000120	0.055275
C25	C	1.093080	-0.000118	0.194692
N26	N	1.090549	0.254742	-0.174320
C27	C	1.085262	-0.000105	-0.403901
C28	C	1.087973	-0.000100	-0.543318
C29	C	1.175721	-0.000127	0.274972
C30	C	1.173168	-0.000115	0.405968
C31	C	1.005326	-0.000089	0.376391
C32	C	1.007880	-0.000094	0.245397
C33	C	1.270504	0.057191	0.602745
C34	C	1.353150	0.057165	0.683031
C35	C	1.428065	-0.000170	0.653583
C36	C	1.420339	-0.057502	0.543852
C37	C	1.337692	-0.057485	0.463573
C38	C	1.262780	-0.000128	0.493020
C39	C	0.910550	-0.057407	0.048619
C40	C	0.827902	-0.057397	-0.031663
C41	C	0.752979	-0.000069	-0.002218
C42	C	0.760696	0.057249	0.107515
C43	C	0.843344	0.057239	0.187797
C44	C	0.918267	-0.000088	0.158343
H45	H	1.245096	-0.000144	0.233692
H46	H	0.971565	-0.104071	0.024616
C47	C	0.819418	-0.120444	-0.152379
N48	N	0.813030	-0.167925	-0.243306
H49	H	1.359435	0.103852	0.772372
H50	H	1.331400	-0.104167	0.374235
H51	H	0.685678	-0.000078	-0.067587
C52	C	0.851833	0.120299	0.308502
N53	N	0.858229	0.167796	0.399415
C54	C	1.502751	-0.120583	0.511476
N55	N	1.564826	-0.168094	0.487088
H56	H	0.699679	0.103910	0.131507
H57	H	1.495357	-0.000189	0.718961
H58	H	1.209511	0.103891	0.626725
H59	H	0.935959	-0.000071	0.417692
