data_functionalizedCrystal
_audit_creation_method	'MofGen! by Chris Wilmer'
_symmetry_space_group_name_H-M	'P1'
_symmetry_Int_Tables_number	1
_symmetry_cell_setting	triclinic
loop_
_symmetry_equiv_pos_as_xyz
  x,y,z
_cell_length_a	15.995292
_cell_length_b	8.965430
_cell_length_c	15.995350
_cell_angle_alpha	90.002652
_cell_angle_beta	96.519505
_cell_angle_gamma	90.004981
loop_
_atom_site_label
_atom_site_type_symbol
_atom_site_fract_x
_atom_site_fract_y
_atom_site_fract_z
O1	O	1.111016	0.124072	-0.107688
O2	O	0.867234	0.124065	-0.121067
O3	O	0.995789	0.124068	0.007511
O4	O	0.982461	0.124070	-0.236267
O5	O	0.995778	-0.124011	0.007503
O6	O	0.867223	-0.124013	-0.121075
O7	O	1.111005	-0.124007	-0.107697
Cu8	Cu	0.989113	-0.146662	-0.114387
Cu9	Cu	0.989126	0.146720	-0.114377
O10	O	0.982450	-0.124009	-0.236275
C11	C	0.836033	0.000025	-0.120527
C12	C	0.743080	0.000023	-0.118894
C13	C	0.405341	0.000040	-0.112893
C14	C	0.428654	0.000594	-0.205697
C15	C	0.525329	0.000029	-0.207461
C16	C	0.572897	0.000032	-0.115871
C17	C	0.543789	-0.141628	-0.069478
C18	C	0.446999	-0.141741	-0.068361
C19	C	0.447156	0.140371	-0.066456
C20	C	0.543648	0.142237	-0.069895
C21	C	0.667593	0.000023	-0.117549
C22	C	0.310646	0.000039	-0.111212
N23	N	0.989110	-0.353011	-0.114394
C24	C	0.929639	-0.450318	-0.173837
C25	C	1.005304	-0.549729	-0.190069
C26	C	0.913477	-0.549727	-0.098169
C27	C	1.064813	-0.450233	-0.130663
C28	C	0.972936	-0.450222	-0.038730
C29	C	1.048656	-0.549589	-0.054930
C30	C	1.142206	0.000037	-0.108237
C31	C	1.235159	0.000049	-0.109870
C32	C	0.995232	0.000031	0.038702
C33	C	0.993580	0.000039	0.131652
N34	N	0.989135	0.353069	-0.114364
C35	C	0.983006	0.000031	-0.267466
C36	C	0.984658	0.000032	-0.360416
C37	C	0.987648	0.000034	0.469398
C38	C	0.896094	0.000588	0.421945
C39	C	0.897746	0.000029	0.325255
C40	C	0.990591	0.000038	0.301838
C41	C	1.035742	-0.141624	0.342920
C42	C	1.033442	-0.141742	0.439555
C43	C	1.035346	0.140370	0.439924
C44	C	1.035324	0.142242	0.342978
C45	C	0.992259	0.000035	0.207141
C46	C	0.985983	0.000027	0.564095
H47	H	0.420177	-0.247637	-0.100498
Br48	Br	0.835104	0.169912	0.452820
Br49	Br	0.806855	-0.622577	-0.075317
Br50	Br	0.985455	0.319331	0.474141
H51	H	0.543728	-0.101691	-0.244021
H52	H	0.433163	0.141331	0.001854
Br53	Br	0.577212	-0.317351	-0.123183
H54	H	1.103953	-0.146886	0.328808
H55	H	1.099014	-0.592903	-0.004644
H56	H	0.959215	-0.406480	0.025223
H57	H	0.400662	0.102186	-0.241465
H58	H	0.575657	-0.146894	-0.002080
Br59	Br	0.835189	-0.167276	0.454983
Br60	Br	0.399959	0.319332	-0.114804
H61	H	1.019002	-0.593437	-0.254042
H62	H	1.002313	0.247039	0.315726
Br63	Br	0.574647	0.316919	-0.126165
H64	H	0.576619	0.150796	-0.003043
H65	H	0.879393	-0.406730	-0.224153
Br66	Br	0.838590	0.169284	0.277872
H67	H	0.862006	-0.101695	0.297379
Br68	Br	0.978548	-0.318245	0.470046
H69	H	0.432448	-0.148174	-0.000317
Br70	Br	1.148174	0.156525	0.317393
H71	H	1.100660	-0.148164	0.471817
H72	H	0.399631	-0.100426	-0.241273
Br73	Br	1.171464	-0.377710	-0.153636
H74	H	1.004373	-0.247049	0.314528
Br75	Br	1.147854	0.141971	0.492883
H76	H	0.544360	0.101581	-0.243790
