data_functionalizedCrystal
_audit_creation_method	'MofGen! by Chris Wilmer'
_symmetry_space_group_name_H-M	'P1'
_symmetry_Int_Tables_number	1
_symmetry_cell_setting	triclinic
loop_
_symmetry_equiv_pos_as_xyz
  x,y,z
_cell_length_a	12.827893
_cell_length_b	12.759400
_cell_length_c	12.827885
_cell_angle_alpha	90.030494
_cell_angle_beta	90.019272
_cell_angle_gamma	90.014655
loop_
_atom_site_label
_atom_site_type_symbol
_atom_site_fract_x
_atom_site_fract_y
_atom_site_fract_z
Zn1	Zn	1.597675	-0.418216	0.590844
Zn2	Zn	1.597571	-0.593932	0.416102
Zn3	Zn	1.422916	-0.418267	0.416117
Zn4	Zn	1.422904	-0.593854	0.590802
O5	O	1.510266	-0.506067	0.503466
O6	O	1.743897	-0.441537	0.567675
O7	O	1.574365	-0.570684	0.269868
O8	O	1.446147	-0.271240	0.439319
O9	O	1.743821	-0.570634	0.439293
O10	O	1.574541	-0.271202	0.567690
O11	O	1.446046	-0.441624	0.269879
O12	O	1.276678	-0.441548	0.439278
O13	O	1.446125	-0.570501	0.737043
O14	O	1.276669	-0.570550	0.567618
O15	O	1.574529	-0.441461	0.737074
O16	O	1.574352	-0.740942	0.439252
O17	O	1.446025	-0.740885	0.567603
C18	C	1.238756	-0.506047	0.503446
C19	C	1.122603	-0.506064	0.503462
C20	C	1.510204	-0.779035	0.503444
C21	C	1.510273	-0.895811	0.503470
C22	C	1.070842	-0.569998	0.566871
C23	C	0.950791	-0.570017	0.566889
C24	C	1.577168	-0.950668	0.436711
C25	C	1.577232	-1.060392	0.436743
C26	C	1.443499	-1.060393	0.570296
C27	C	1.443440	-0.950671	0.570268
C28	C	1.644001	-0.895809	0.369913
C29	C	1.710899	-0.950666	0.303148
C30	C	1.710964	-1.060390	0.303180
C31	C	1.644129	-1.115257	0.369977
C32	C	1.782836	-0.506088	0.503487
C33	C	1.898990	-0.506097	0.503495
C34	C	1.510337	-0.505966	0.776036
C35	C	1.510368	-0.505923	0.892190
C36	C	1.510357	-0.232034	0.503511
C37	C	1.510396	-0.115257	0.503530
C38	C	1.510256	-0.506092	0.231956
C39	C	1.510428	-0.505839	0.115803
C40	C	1.573913	-0.442058	0.943989
C41	C	1.573946	-0.442012	1.064040
H42	H	1.115403	-0.624717	0.621148
H43	H	1.765320	-0.905988	0.248770
H44	H	0.906277	-0.624756	0.621173
H45	H	0.943497	-0.451362	0.449202
O46	O	1.639000	-0.376889	1.117129
C47	C	1.816749	-0.325873	1.150703
C48	C	1.743194	-0.399709	1.090530
H49	H	1.901003	-0.344281	1.129203
H50	H	1.805301	-0.337464	1.238068
H51	H	1.798382	-0.241151	1.129330
H52	H	1.761514	-0.484459	1.111816
H53	H	1.754655	-0.388027	1.003180
O54	O	1.638679	-0.376716	0.890921
C55	C	1.689472	-0.198056	0.857394
C56	C	1.616041	-0.271936	0.917537
H57	H	1.671211	-0.113327	0.878908
H58	H	1.677880	-0.209619	0.770025
H59	H	1.773749	-0.216541	0.878781
H60	H	1.531737	-0.253497	0.896238
H61	H	1.627724	-0.260360	1.004892
O62	O	1.775982	-1.113517	0.238234
C63	C	1.908661	-1.101930	0.105806
C64	C	1.835066	-1.041637	0.179294
H65	H	1.956465	-1.043841	0.058149
H66	H	1.860789	-1.153355	0.051068
H67	H	1.963264	-1.153244	0.153860
H68	H	1.780448	-0.990267	0.131325
H69	H	1.883002	-0.990278	0.234035
H70	H	1.456025	-0.560523	1.071264
O71	O	1.644385	-1.221843	0.370019
C72	C	1.744630	-1.379193	0.397067
C73	C	1.744494	-1.258489	0.397038
H74	H	1.825553	-1.408857	0.418930
H75	H	1.723075	-1.409128	0.316128
H76	H	1.685326	-1.408953	0.456240
H77	H	1.803798	-1.228638	0.337916
H78	H	1.766002	-1.228625	0.478014
O79	O	1.069411	-0.440932	0.438589
C80	C	0.945954	-0.426779	0.297681
C81	C	1.006139	-0.500658	0.371077
H82	H	0.894768	-0.475037	0.243093
H83	H	1.003557	-0.378665	0.249859
H84	H	0.894924	-0.371925	0.345814
H85	H	1.057171	-0.555575	0.323024
H86	H	0.948480	-0.548699	0.418902
O87	O	1.378608	-1.113850	0.635074
C88	C	1.319471	-1.282885	0.694342
C89	C	1.392999	-1.222478	0.620913
H90	H	1.331096	-1.370721	0.682934
H91	H	1.235182	-1.261471	0.675910
H92	H	1.337752	-1.261170	0.778606
H93	H	1.374812	-1.244160	0.536625
H94	H	1.477266	-1.243897	0.639436
O95	O	1.445642	-0.571232	0.945347
C96	C	1.431686	-0.712880	1.068726
C97	C	1.505108	-0.638995	1.008578
H98	H	1.479733	-0.767670	1.119880
H99	H	1.383857	-0.761051	1.011099
H100	H	1.377096	-0.664557	1.119785
H101	H	1.559761	-0.687237	0.957518
H102	H	1.552863	-0.590821	1.066262
H103	H	1.388970	-0.906006	0.624630
H104	H	1.643953	-0.806466	0.369876
