data_functionalizedCrystal
_audit_creation_method	'MofGen! by Chris Wilmer'
_symmetry_space_group_name_H-M	'P1'
_symmetry_Int_Tables_number	1
_symmetry_cell_setting	triclinic
loop_
_symmetry_equiv_pos_as_xyz
  x,y,z
_cell_length_a	17.077404
_cell_length_b	16.625545
_cell_length_c	17.077396
_cell_angle_alpha	89.971239
_cell_angle_beta	89.980813
_cell_angle_gamma	90.023805
loop_
_atom_site_label
_atom_site_type_symbol
_atom_site_fract_x
_atom_site_fract_y
_atom_site_fract_z
Zn1	Zn	1.200023	-0.321033	-0.443886
Zn2	Zn	1.700023	0.178967	0.056114
Zn3	Zn	1.199929	-0.455877	-0.312622
Zn4	Zn	1.699929	0.044123	0.187378
Zn5	Zn	1.068760	-0.321058	-0.312630
Zn6	Zn	1.568760	0.178942	0.187370
Zn7	Zn	1.068716	-0.455823	-0.443841
Zn8	Zn	1.568716	0.044177	0.056159
O9	O	1.134357	-0.388448	-0.378245
O10	O	1.634357	0.111552	0.121755
O11	O	1.309857	-0.338932	-0.426490
O12	O	1.809857	0.161068	0.073510
O13	O	1.182508	-0.438027	-0.202776
O14	O	1.682508	0.061973	0.297224
O15	O	1.086229	-0.208222	-0.330064
O16	O	1.586229	0.291778	0.169936
O17	O	1.309788	-0.438002	-0.330050
O18	O	1.809788	0.061998	0.169950
O19	O	1.182668	-0.208204	-0.426497
O20	O	1.682668	0.291796	0.073503
O21	O	1.086138	-0.338976	-0.202782
O22	O	1.586138	0.161024	0.297218
O23	O	0.958907	-0.338923	-0.330020
O24	O	1.458907	0.161077	0.169980
O25	O	1.086155	-0.437909	-0.553694
O26	O	1.586155	0.062091	-0.053694
O27	O	0.958875	-0.437934	-0.426420
O28	O	1.458875	0.062066	0.073580
O29	O	1.182626	-0.338879	-0.553727
O30	O	1.682626	0.161121	-0.053727
O31	O	1.182466	-0.568703	-0.330006
O32	O	1.682466	-0.068703	0.169994
O33	O	1.086064	-0.568663	-0.426412
O34	O	1.586064	-0.068663	0.073588
C35	C	0.930409	-0.388426	-0.378216
C36	C	1.430409	0.111574	0.121784
C37	C	0.843159	-0.388436	-0.378223
C38	C	1.343159	0.111564	0.121777
C39	C	0.467378	-0.336977	-0.428570
C40	C	0.967378	0.163023	0.071430
C41	C	0.549358	-0.336971	-0.428561
C42	C	1.049358	0.163029	0.071439
C43	C	0.590310	-0.388465	-0.378264
C44	C	1.090310	0.111535	0.121736
C45	C	0.549278	-0.439973	-0.327979
C46	C	1.049278	0.060027	0.172021
C47	C	0.467299	-0.439983	-0.327992
C48	C	0.967299	0.060017	0.172008
C49	C	0.720148	-0.439949	-0.327954
C50	C	1.220148	0.060051	0.172046
C51	C	0.802132	-0.439939	-0.327939
C52	C	1.302132	0.060061	0.172061
C53	C	0.802207	-0.336938	-0.428523
C54	C	1.302207	0.163062	0.071477
C55	C	0.720228	-0.336947	-0.428536
C56	C	1.220228	0.163053	0.071464
C57	C	0.679201	-0.388455	-0.378249
C58	C	1.179201	0.111545	0.121751
C59	C	1.134271	-0.597939	-0.378220
C60	C	1.634271	-0.097939	0.121780
C61	C	1.134307	-0.687560	-0.378236
C62	C	1.634307	-0.187560	0.121764
C63	C	1.134337	-0.760342	-0.378251
C64	C	1.634337	-0.260342	0.121749
C65	C	1.134383	-0.851651	-0.378269
C66	C	1.634383	-0.351651	0.121731
C67	C	1.134424	-0.924427	-0.378279
C68	C	1.634424	-0.424427	0.121721
C69	C	1.134469	-1.015741	-0.378295
C70	C	1.634469	-0.515741	0.121705
C71	C	1.339101	-0.388470	-0.378274
C72	C	1.839101	0.111530	0.121726
C73	C	1.426351	-0.388480	-0.378286
C74	C	1.926351	0.111520	0.121714
C75	C	1.134396	-0.388385	-0.582989
C76	C	1.634396	0.111615	-0.082989
C77	C	1.134413	-0.388359	-0.670239
C78	C	1.634413	0.111641	-0.170239
C79	C	1.134464	-0.178139	-0.378287
C80	C	1.634464	0.321861	0.121713
C81	C	1.134509	-0.088518	-0.378305
C82	C	1.634509	0.411482	0.121695
C83	C	1.084249	-0.336777	-0.711232
C84	C	1.584249	0.163223	-0.211232
C85	C	1.084262	-0.336758	-0.793212
C86	C	1.584262	0.163242	-0.293212
C87	C	1.134443	-0.388319	-0.834198
C88	C	1.634443	0.111681	-0.334198
C89	C	1.184610	-0.439906	-0.793200
C90	C	1.684610	0.060094	-0.293200
C91	C	1.184592	-0.439928	-0.711221
C92	C	1.684592	0.060072	-0.211221
C93	C	1.184644	-0.439856	-0.964070
C94	C	1.684644	0.060144	-0.464070
C95	C	1.184662	-0.439833	-1.046055
C96	C	1.684662	0.060167	-0.546055
C97	C	1.084313	-0.336686	-1.046061
C98	C	1.584313	0.163314	-0.546061
C99	C	1.084296	-0.336708	-0.964082
C100	C	1.584296	0.163292	-0.464082
C101	C	1.134463	-0.388295	-0.923089
C102	C	1.634463	0.111705	-0.423089
C103	C	1.134363	-0.388452	-0.174297
C104	C	1.634363	0.111548	0.325703
C105	C	1.134498	-0.388251	-0.087047
C106	C	1.634498	0.111749	0.412953
H107	H	0.835615	-0.294997	-0.469467
H108	H	1.335615	0.205003	0.030533
O109	O	0.427321	-0.489985	-0.279219
O110	O	0.927321	0.010015	0.220781
C111	C	0.300992	-0.535616	-0.234631
C112	C	0.800992	-0.035616	0.265369
C113	C	0.346167	-0.478957	-0.289917
C114	C	0.846167	0.021043	0.210083
H115	H	0.235372	-0.526708	-0.243250
H116	H	0.735372	-0.026708	0.256750
H117	H	0.317041	-0.600666	-0.248302
H118	H	0.817041	-0.100666	0.251698
H119	H	0.317129	-0.521381	-0.171366
H120	H	0.817129	-0.021381	0.328634
H121	H	0.330055	-0.493119	-0.353201
H122	H	0.830055	0.006881	0.146799
H123	H	0.330115	-0.413923	-0.276179
H124	H	0.830115	0.086077	0.223821
O125	O	1.035659	-0.286466	-1.085847
O126	O	1.535659	0.213534	-0.585847
C127	C	0.997599	-0.149306	-1.110939
C128	C	1.497599	0.350694	-0.610939
C129	C	1.052754	-0.206086	-1.065839
C130	C	1.552754	0.293914	-0.565839
H131	H	1.011389	-0.084308	-1.094766
H132	H	1.511389	0.415692	-0.594766
H133	H	1.006234	-0.158085	-1.176579
H134	H	1.506234	0.341915	-0.676579
H135	H	0.934298	-0.163502	-1.094817
H136	H	1.434298	0.336498	-0.594817
H137	H	1.116076	-0.191925	-1.081895
H138	H	1.616076	0.308075	-0.581895
H139	H	1.044051	-0.197297	-1.000209
H140	H	1.544051	0.302703	-0.500209
O141	O	1.233273	-0.490108	-0.832975
O142	O	1.733273	0.009892	-0.332975
C143	C	1.271346	-0.627258	-0.857994
C144	C	1.771346	-0.127258	-0.357994
C145	C	1.216170	-0.570497	-0.812917
C146	C	1.716170	-0.070497	-0.312917
H147	H	1.257549	-0.692263	-0.841781
H148	H	1.757549	-0.192263	-0.341781
H149	H	1.262743	-0.618452	-0.923638
H150	H	1.762743	-0.118452	-0.423638
H151	H	1.334640	-0.613067	-0.841893
H152	H	1.834640	-0.113067	-0.341893
H153	H	1.152855	-0.584652	-0.828953
H154	H	1.652855	-0.084652	-0.328953
H155	H	1.224841	-0.579313	-0.747284
H156	H	1.724841	-0.079313	-0.247284
H157	H	0.686746	-0.481896	-0.287008
H158	H	1.186746	0.018104	0.212992
H159	H	1.043410	-0.294758	-0.826585
H160	H	1.543410	0.205242	-0.326585
H161	H	1.225525	-0.481818	-1.079424
H162	H	1.725525	0.018182	-0.579424
O163	O	1.233210	-0.490119	-0.671361
O164	O	1.733210	0.009881	-0.171361
C165	C	1.243687	-0.598974	-0.578744
C166	C	1.743687	-0.098974	-0.078744
C167	C	1.188541	-0.542191	-0.623849
C168	C	1.688541	-0.042191	-0.123849
H169	H	1.207596	-0.641076	-0.540306
H170	H	1.707596	-0.141076	-0.040306
H171	H	1.279545	-0.635882	-0.622081
H172	H	1.779545	-0.135882	-0.122081
H173	H	1.284758	-0.561955	-0.540410
H174	H	1.784758	-0.061955	-0.040410
H175	H	1.147423	-0.579147	-0.662184
H176	H	1.647423	-0.079147	-0.162184
H177	H	1.152739	-0.505280	-0.580470
H178	H	1.652739	-0.005280	-0.080470
H179	H	0.582627	-0.481903	-0.287030
H180	H	1.082627	0.018097	0.212970
H181	H	0.434040	-0.295040	-0.469522
H182	H	0.934040	0.204960	0.030478
H183	H	1.043389	-0.294786	-0.677866
H184	H	1.543389	0.205214	-0.177866
O185	O	1.035439	-0.286707	-0.924303
O186	O	1.535439	0.213293	-0.424303
C187	C	0.901932	-0.247525	-0.899241
C188	C	1.401932	0.252475	-0.399241
C189	C	0.957174	-0.304212	-0.944325
C190	C	1.457174	0.195788	-0.444325
H191	H	0.838645	-0.261646	-0.915425
H192	H	1.338645	0.238354	-0.415425
H193	H	0.910471	-0.256405	-0.833598
H194	H	1.410471	0.243595	-0.333598
H195	H	0.915795	-0.182511	-0.915366
H196	H	1.415795	0.317489	-0.415366
H197	H	0.943346	-0.369247	-0.928266
H198	H	1.443346	0.130753	-0.428266
H199	H	0.948626	-0.295262	-1.009957
H200	H	1.448626	0.204738	-0.509957
O201	O	1.233416	-0.489856	-0.924165
O202	O	1.733416	0.010144	-0.424165
C203	C	1.339407	-0.500738	-0.831659
C204	C	1.839407	-0.000738	-0.331659
C205	C	1.284208	-0.444028	-0.876788
C206	C	1.784208	0.055972	-0.376788
H207	H	1.380497	-0.463708	-0.793356
H208	H	1.880497	0.036292	-0.293356
H209	H	1.303383	-0.542894	-0.793211
H210	H	1.803383	-0.042894	-0.293211
H211	H	1.375240	-0.537601	-0.875051
H212	H	1.875240	-0.037601	-0.375051
H213	H	1.248363	-0.407113	-0.833453
H214	H	1.748363	0.092887	-0.333453
H215	H	1.320277	-0.401925	-0.915247
H216	H	1.820277	0.098075	-0.415247
H217	H	0.835473	-0.481872	-0.286986
H218	H	1.335473	0.018128	0.213014
H219	H	0.686887	-0.295013	-0.469488
H220	H	1.186887	0.204987	0.030512
O221	O	0.589090	-0.286859	-0.477426
O222	O	1.089090	0.213141	0.022574
C223	C	0.580513	-0.184719	-0.577212
C224	C	1.080513	0.315281	-0.077212
C225	C	0.535420	-0.241420	-0.521899
C226	C	1.035420	0.258580	-0.021899
H227	H	0.537141	-0.147978	-0.613195
H228	H	1.037141	0.352022	-0.113195
H229	H	0.618866	-0.142456	-0.541273
H230	H	1.118866	0.357544	-0.041273
H231	H	0.618925	-0.221794	-0.618158
H232	H	1.118925	0.278206	-0.118158
H233	H	0.496966	-0.204410	-0.480942
H234	H	0.996966	0.295590	0.019058
H235	H	0.497117	-0.283685	-0.557887
H236	H	0.997117	0.216315	-0.057887
