data_functionalizedCrystal
_audit_creation_method	'MofGen! by Chris Wilmer'
_symmetry_space_group_name_H-M	'P1'
_symmetry_Int_Tables_number	1
_symmetry_cell_setting	triclinic
loop_
_symmetry_equiv_pos_as_xyz
  x,y,z
_cell_length_a	17.000383
_cell_length_b	17.038272
_cell_length_c	12.503583
_cell_angle_alpha	86.217978
_cell_angle_beta	86.762133
_cell_angle_gamma	96.644071
loop_
_atom_site_label
_atom_site_type_symbol
_atom_site_fract_x
_atom_site_fract_y
_atom_site_fract_z
O1	O	1.053719	-0.032868	0.089395
O2	O	1.303719	0.217132	0.339395
O3	O	1.553719	0.467132	0.589395
O4	O	1.803719	0.717132	0.839395
O5	O	0.823900	-0.061110	0.089382
O6	O	1.073900	0.188890	0.339382
O7	O	1.323900	0.438890	0.589382
O8	O	1.573900	0.688890	0.839382
O9	O	0.937444	0.066733	0.089380
O10	O	1.187444	0.316733	0.339380
O11	O	1.437444	0.566733	0.589380
O12	O	1.687444	0.816733	0.839380
O13	O	0.940175	-0.160711	0.089397
O14	O	1.190175	0.089289	0.339397
O15	O	1.440175	0.339289	0.589397
O16	O	1.690175	0.589289	0.839397
O17	O	0.945988	0.076360	-0.089262
O18	O	1.195988	0.326360	0.160738
O19	O	1.445988	0.576360	0.410738
O20	O	1.695988	0.826360	0.660738
O21	O	0.832443	-0.051484	-0.089261
O22	O	1.082443	0.198516	0.160739
O23	O	1.332443	0.448516	0.410739
O24	O	1.582443	0.698516	0.660739
O25	O	1.062263	-0.023242	-0.089247
O26	O	1.312263	0.226758	0.160753
O27	O	1.562263	0.476758	0.410753
O28	O	1.812263	0.726758	0.660753
Cu29	Cu	0.948133	-0.036484	-0.105565
Cu30	Cu	1.198133	0.213516	0.144435
Cu31	Cu	1.448133	0.463516	0.394435
Cu32	Cu	1.698133	0.713516	0.644435
Cu33	Cu	0.938029	-0.047868	0.105700
Cu34	Cu	1.188029	0.202132	0.355700
Cu35	Cu	1.438029	0.452132	0.605700
Cu36	Cu	1.688029	0.702132	0.855700
O37	O	0.948719	-0.151085	-0.089245
O38	O	1.198719	0.098915	0.160755
O39	O	1.448719	0.348915	0.410755
O40	O	1.698719	0.598915	0.660755
C41	C	0.798621	-0.057814	0.000059
C42	C	1.048621	0.192186	0.250059
C43	C	1.298621	0.442186	0.500059
C44	C	1.548621	0.692186	0.750059
C45	C	0.710568	-0.062324	0.000053
C46	C	0.960568	0.187676	0.250053
C47	C	1.210568	0.437676	0.500053
C48	C	1.460568	0.687676	0.750053
C49	C	0.212321	-0.091450	0.000096
C50	C	0.462321	0.158550	0.250096
C51	C	0.712321	0.408550	0.500096
C52	C	0.962321	0.658550	0.750096
C53	C	0.295057	-0.087206	0.000094
C54	C	0.545057	0.162794	0.250094
C55	C	0.795057	0.412794	0.500094
C56	C	1.045057	0.662794	0.750094
C57	C	0.341064	-0.013539	0.000081
C58	C	0.591064	0.236461	0.250081
C59	C	0.841064	0.486461	0.500081
C60	C	1.091064	0.736461	0.750081
C61	C	0.304331	0.055888	0.000079
C62	C	0.554331	0.305888	0.250079
C63	C	0.804331	0.555888	0.500079
C64	C	1.054331	0.805888	0.750079
C65	C	0.221597	0.051642	0.000088
C66	C	0.471597	0.301642	0.250088
C67	C	0.721597	0.551642	0.500088
C68	C	0.971597	0.801642	0.750088
C69	C	0.591101	0.002858	0.000061
C70	C	0.841101	0.252858	0.250061
C71	C	1.091101	0.502858	0.500061
C72	C	1.341101	0.752858	0.750061
C73	C	0.673841	0.007098	0.000048
C74	C	0.923841	0.257098	0.250048
C75	C	1.173841	0.507098	0.500048
C76	C	1.423841	0.757098	0.750048
C77	C	0.664560	-0.135996	0.000066
C78	C	0.914560	0.114004	0.250066
C79	C	1.164560	0.364004	0.500066
C80	C	1.414560	0.614004	0.750066
C81	C	0.581825	-0.140235	0.000068
C82	C	0.831825	0.109765	0.250068
C83	C	1.081825	0.359765	0.500068
C84	C	1.331825	0.609765	0.750068
C85	C	0.545099	-0.070808	0.000072
C86	C	0.795099	0.179192	0.250072
C87	C	1.045099	0.429192	0.500072
C88	C	1.295099	0.679192	0.750072
C89	C	0.425633	-0.009199	0.000076
C90	C	0.675633	0.240801	0.250076
C91	C	0.925633	0.490801	0.500076
C92	C	1.175633	0.740801	0.750076
C93	C	0.460531	-0.075150	0.000084
C94	C	0.710531	0.174850	0.250084
C95	C	0.960531	0.424850	0.500084
C96	C	1.210531	0.674850	0.750084
C97	C	0.939231	0.100505	0.000059
C98	C	1.189231	0.350505	0.250059
C99	C	1.439231	0.600505	0.500059
C100	C	1.689231	0.850505	0.750059
C101	C	0.931818	0.186790	0.000059
C102	C	1.181818	0.436790	0.250059
C103	C	1.431818	0.686790	0.500059
C104	C	1.681818	0.936790	0.750059
C105	C	1.087541	-0.026538	0.000078
C106	C	1.337541	0.223462	0.250078
C107	C	1.587541	0.473462	0.500078
C108	C	1.837541	0.723462	0.750078
C109	C	1.175594	-0.022029	0.000091
C110	C	1.425594	0.227971	0.250091
C111	C	1.675594	0.477971	0.500091
C112	C	1.925594	0.727971	0.750091
C113	C	0.946931	-0.184856	0.000078
C114	C	1.196931	0.065144	0.250078
C115	C	1.446931	0.315144	0.500078
C116	C	1.696931	0.565144	0.750078
C117	C	0.954344	-0.271142	0.000085
C118	C	1.204344	-0.021142	0.250085
C119	C	1.454344	0.228858	0.500085
C120	C	1.704344	0.478858	0.750085
C121	C	0.999876	0.241565	0.000061
C122	C	1.249876	0.491565	0.250061
C123	C	1.499876	0.741565	0.500061
C124	C	1.749876	0.991565	0.750061
C125	C	0.992906	0.322637	0.000071
C126	C	1.242906	0.572637	0.250071
C127	C	1.492906	0.822637	0.500071
C128	C	1.742906	1.072637	0.750071
C129	C	0.917877	0.348934	0.000070
C130	C	1.167877	0.598934	0.250070
C131	C	1.417877	0.848934	0.500070
C132	C	1.667877	1.098934	0.750070
C133	C	0.849814	0.294152	0.000071
C134	C	1.099814	0.544152	0.250071
C135	C	1.349814	0.794152	0.500071
C136	C	1.599814	1.044152	0.750071
C137	C	0.856784	0.213081	0.000069
C138	C	1.106784	0.463081	0.250069
C139	C	1.356784	0.713081	0.500069
C140	C	1.606784	0.963081	0.750069
C141	C	0.893251	0.593005	0.000084
C142	C	1.143251	0.843005	0.250084
C143	C	1.393251	1.093005	0.500084
C144	C	1.643251	1.343005	0.750084
C145	C	0.886285	0.674083	0.000083
C146	C	1.136285	0.924083	0.250083
C147	C	1.386285	1.174083	0.500083
C148	C	1.636285	1.424083	0.750083
C149	C	1.029378	0.702563	0.000085
C150	C	1.279378	0.952563	0.250085
C151	C	1.529378	1.202563	0.500085
C152	C	1.779378	1.452563	0.750085
C153	C	1.036343	0.621489	0.000076
C154	C	1.286343	0.871489	0.250076
C155	C	1.536343	1.121489	0.500076
C156	C	1.786343	1.371489	0.750076
C157	C	0.968279	0.566714	0.000082
C158	C	1.218279	0.816714	0.250082
C159	C	1.468279	1.066714	0.500082
C160	C	1.718279	1.316714	0.750082
C161	C	0.910751	0.431803	0.000077
C162	C	1.160751	0.681803	0.250077
C163	C	1.410751	0.931803	0.500077
C164	C	1.660751	1.181803	0.750077
C165	C	0.975406	0.483846	0.000084
C166	C	1.225406	0.733846	0.250084
C167	C	1.475406	0.983846	0.500084
C168	C	1.725406	1.233846	0.750084
N169	N	0.930923	-0.055869	0.254292
N170	N	1.180923	0.194131	0.504292
N171	N	1.430923	0.444131	0.754292
N172	N	1.680923	0.694131	1.004292
C173	C	0.920462	-0.067640	0.473408
C174	C	1.170462	0.182360	0.723408
C175	C	1.420462	0.432360	0.973408
C176	C	1.670462	0.682360	1.223408
C177	C	0.965696	-0.016711	0.526734
C178	C	1.215696	0.233289	0.776734
C179	C	1.465696	0.483289	1.026734
C180	C	1.715696	0.733289	1.276734
C181	C	0.959875	-0.023260	0.648657
C182	C	1.209875	0.226740	0.898657
C183	C	1.459875	0.476740	1.148657
C184	C	1.709875	0.726740	1.398657
C185	C	0.926281	-0.061092	0.351473
C186	C	1.176281	0.188908	0.601473
C187	C	1.426281	0.438908	0.851473
C188	C	1.676281	0.688908	1.101473
N189	N	0.955238	-0.028479	0.745842
N190	N	1.205238	0.221521	0.995842
N191	N	1.455238	0.471521	1.245842
N192	N	1.705238	0.721521	1.495842
H193	H	0.174868	-0.151437	0.000099
H194	H	0.424868	0.098563	0.250099
H195	H	0.674868	0.348563	0.500099
H196	H	0.924868	0.598563	0.750099
H197	H	0.788723	0.315569	0.000077
H198	H	1.038723	0.565569	0.250077
H199	H	1.288723	0.815569	0.500077
H200	H	1.538723	1.065569	0.750077
Br201	Br	0.488079	0.090775	0.000049
Br202	Br	0.738079	0.340775	0.250049
Br203	Br	0.988079	0.590775	0.500049
Br204	Br	1.238079	0.840775	0.750049
Br205	Br	0.764416	0.138741	0.000073
Br206	Br	1.014416	0.388741	0.250073
Br207	Br	1.264416	0.638741	0.500073
Br208	Br	1.514416	0.888741	0.750073
H209	H	1.036493	0.462430	0.000108
H210	H	1.286493	0.712430	0.250108
H211	H	1.536493	0.962430	0.500108
H212	H	1.786493	1.212430	0.750108
H213	H	0.837828	0.548416	0.000088
H214	H	1.087828	0.798416	0.250088
H215	H	1.337828	1.048416	0.500088
H216	H	1.587828	1.298416	0.750088
Br217	Br	1.037527	0.064163	0.450212
Br218	Br	1.287527	0.314163	0.700212
Br219	Br	1.537527	0.564163	0.950212
Br220	Br	1.787527	0.814163	1.200212
H221	H	0.711298	0.067089	0.000043
H222	H	0.961298	0.317089	0.250043
H223	H	1.211298	0.567089	0.500043
H224	H	1.461298	0.817089	0.750043
H225	H	1.084792	0.747168	0.000082
H226	H	1.334792	0.997168	0.250082
H227	H	1.584792	1.247168	0.500082
H228	H	1.834792	1.497168	0.750082
Br229	Br	0.848632	-0.148508	0.549926
Br230	Br	1.098632	0.101492	0.799926
Br231	Br	1.348632	0.351492	1.049926
Br232	Br	1.598632	0.601492	1.299926
H233	H	0.849662	0.453223	0.000074
H234	H	1.099662	0.703223	0.250074
H235	H	1.349662	0.953223	0.500074
H236	H	1.599662	1.203223	0.750074
H237	H	1.048327	0.367233	0.000071
H238	H	1.298327	0.617233	0.250071
H239	H	1.548327	0.867233	0.500071
H240	H	1.798327	1.117233	0.750071
Br241	Br	0.344897	-0.181426	0.000111
Br242	Br	0.594897	0.068574	0.250111
Br243	Br	0.844897	0.318574	0.500111
Br244	Br	1.094897	0.568574	0.750111
H245	H	0.341797	0.115868	0.000074
H246	H	0.591797	0.365868	0.250074
H247	H	0.841797	0.615868	0.500074
H248	H	1.091797	0.865868	0.750074
Br249	Br	0.519392	-0.240215	0.000092
Br250	Br	0.769392	0.009785	0.250092
Br251	Br	1.019392	0.259785	0.500092
Br252	Br	1.269392	0.509785	0.750092
H253	H	0.694472	-0.192519	0.000064
H254	H	0.944472	0.057481	0.250064
H255	H	1.194472	0.307481	0.500064
H256	H	1.444472	0.557481	0.750064
H257	H	0.561209	0.059390	0.000061
H258	H	0.811209	0.309390	0.250061
H259	H	1.061209	0.559390	0.500061
H260	H	1.311209	0.809390	0.750061
Br261	Br	1.101707	0.205886	0.000047
Br262	Br	1.351707	0.455886	0.250047
Br263	Br	1.601707	0.705886	0.500047
Br264	Br	1.851707	0.955886	0.750047
H265	H	1.097439	0.600085	0.000077
H266	H	1.347439	0.850085	0.250077
H267	H	1.597439	1.100085	0.500077
H268	H	1.847439	1.350085	0.750077
H269	H	0.191695	0.108173	0.000086
H270	H	0.441695	0.358173	0.250086
H271	H	0.691695	0.608173	0.500086
H272	H	0.941695	0.858173	0.750086
H273	H	0.825186	0.695490	0.000065
H274	H	1.075186	0.945490	0.250065
H275	H	1.325186	1.195490	0.500065
H276	H	1.575186	1.445490	0.750065
H277	H	0.423068	-0.135129	0.000101
H278	H	0.673068	0.114871	0.250101
H279	H	0.923068	0.364871	0.500101
H280	H	1.173068	0.614871	0.750101
