data_functionalizedCrystal
_audit_creation_method	'MofGen! by Chris Wilmer'
_symmetry_space_group_name_H-M	'P1'
_symmetry_Int_Tables_number	1
_symmetry_cell_setting	triclinic
loop_
_symmetry_equiv_pos_as_xyz
  x,y,z
_cell_length_a	10.654538
_cell_length_b	11.792241
_cell_length_c	9.730223
_cell_angle_alpha	89.998500
_cell_angle_beta	90.000761
_cell_angle_gamma	95.663284
loop_
_atom_site_label
_atom_site_type_symbol
_atom_site_fract_x
_atom_site_fract_y
_atom_site_fract_z
O1	O	-1.667392	0.159350	-0.114308
O2	O	-1.301869	0.174553	-0.114307
O3	O	-1.493501	0.001801	-0.114298
O4	O	-1.475760	0.332102	-0.114317
O5	O	-1.493498	0.001806	0.114282
O6	O	-1.301866	0.174557	0.114273
O7	O	-1.667390	0.159355	0.114272
Zn8	Zn	-1.484628	0.166957	0.150564
Zn9	Zn	-1.484631	0.166951	-0.150600
O10	O	-1.475758	0.332106	0.114263
C11	C	-1.255072	0.173442	-0.000017
C12	C	-1.115638	0.170111	-0.000016
C13	C	-0.919117	0.165405	0.124588
C14	C	-1.050129	0.168546	0.124586
C15	C	-1.050126	0.168547	-0.124624
C16	C	-0.919115	0.165415	-0.124621
C17	C	-0.853617	0.163829	0.249199
C18	C	-0.919119	0.165395	0.373807
C19	C	-1.050132	0.168535	0.373805
C20	C	-1.115641	0.170109	0.249194
C21	C	-1.492385	-0.040490	-0.000009
C22	C	-1.489050	-0.166511	-0.000010
C23	C	-1.482916	-0.397237	-0.000033
C24	C	-1.486324	-0.268845	-0.000020
C25	C	-0.714185	0.160476	-0.000016
C26	C	-0.853615	0.163839	-0.000010
C27	C	-1.476873	0.374398	-0.000030
C28	C	-1.480209	0.500419	-0.000038
N29	N	-1.484635	0.166960	0.356101
N30	N	-1.484633	0.166939	-0.356136
C31	C	-1.569511	0.090492	0.428031
C32	C	-1.569508	0.090478	0.571914
C33	C	-1.399748	0.243411	0.571924
C34	C	-1.399746	0.243418	0.428043
C35	C	-1.654400	0.014033	0.356088
C36	C	-1.739285	-0.062440	0.428018
C37	C	-1.739281	-0.062454	0.571901
C38	C	-1.654394	0.014006	0.643854
H39	H	-1.222318	0.172679	0.249202
H40	H	-1.654413	0.014040	0.238931
H41	H	-0.865772	0.164122	0.475261
Cl42	Cl	-1.132483	0.170518	-0.281266
Cl43	Cl	-1.845984	-0.158566	0.337567
H44	H	-0.865781	0.164142	-0.226080
H45	H	-1.330637	0.305662	0.630517
H46	H	-1.330631	0.305685	0.369477
H47	H	-1.808389	-0.124729	0.630465
H48	H	-0.746940	0.161270	0.249215
Cl49	Cl	-1.654385	0.013973	0.824737
Cl50	Cl	-1.132473	0.170517	0.530452
