data_functionalizedCrystal
_audit_creation_method	'MofGen! by Chris Wilmer'
_symmetry_space_group_name_H-M	'P1'
_symmetry_Int_Tables_number	1
_symmetry_cell_setting	triclinic
loop_
_symmetry_equiv_pos_as_xyz
  x,y,z
_cell_length_a	12.759399
_cell_length_b	19.077236
_cell_length_c	12.759393
_cell_angle_alpha	87.677022
_cell_angle_beta	89.967969
_cell_angle_gamma	92.308008
loop_
_atom_site_label
_atom_site_type_symbol
_atom_site_fract_x
_atom_site_fract_y
_atom_site_fract_z
Zn1	Zn	-0.353799	1.076066	-0.658709
Zn2	Zn	-0.529523	1.075994	-0.483024
Zn3	Zn	-0.360899	0.958362	-0.475968
Zn4	Zn	-0.536482	0.958353	-0.651588
O5	O	-0.445176	1.017194	-0.567322
O6	O	-0.371226	1.174549	-0.641337
O7	O	-0.507213	1.060364	-0.335065
O8	O	-0.212934	0.974009	-0.500236
O9	O	-0.500329	1.174497	-0.512261
O10	O	-0.207718	1.060486	-0.634495
O11	O	-0.383326	0.973940	-0.329881
O12	O	-0.390074	0.859868	-0.493332
O13	O	-0.512190	0.973995	-0.799556
O14	O	-0.519074	0.859862	-0.622359
O15	O	-0.377974	1.060478	-0.804787
O16	O	-0.677469	1.060356	-0.505357
O17	O	-0.682582	0.973925	-0.629201
C18	C	-0.456101	0.834327	-0.556308
C19	C	-0.460800	0.756095	-0.551620
C20	C	-0.395897	0.719370	-0.616724
C21	C	-0.400307	0.645863	-0.612310
C22	C	-0.469626	0.609083	-0.542799
C23	C	-0.534531	0.645813	-0.477688
C24	C	-0.530115	0.719319	-0.482097
C25	C	-0.490025	0.389242	-0.522391
C26	C	-0.494439	0.315732	-0.517990
C27	C	-0.360212	0.315787	-0.652611
C28	C	-0.355807	0.389294	-0.657018
C29	C	-0.420708	0.426018	-0.591904
N30	N	-0.474138	0.533947	-0.538288
N31	N	-0.416190	0.501152	-0.596409
C32	C	-0.718146	1.017151	-0.567296
C33	C	-0.834920	1.017197	-0.567323
C34	C	-0.887081	1.062252	-0.502917
C35	C	-0.996802	1.062298	-0.502955
C36	C	-1.002191	0.972225	-0.631808
C37	C	-0.892472	0.972184	-0.631775
C38	C	-0.171139	1.017256	-0.567373
C39	C	-0.054360	1.017283	-0.567395
C40	C	-0.445067	1.017243	-0.841359
C41	C	-0.445020	1.017264	-0.958137
C42	C	-0.434209	1.200775	-0.578380
C43	C	-0.429536	1.279007	-0.583093
C44	C	-0.380499	0.972279	-1.010300
C45	C	-0.380465	0.972295	-1.120025
C46	C	-0.509477	1.062288	-1.125414
C47	C	-0.509515	1.062267	-1.015691
C48	C	-0.445206	1.017185	-0.294354
C49	C	-0.444949	1.017301	-0.177585
H50	H	-0.347458	0.615965	-0.665326
C51	C	-0.823777	1.111770	-0.432035
H52	H	-0.870561	1.138615	-0.393691
H53	H	-0.782655	1.084850	-0.384590
H54	H	-0.779072	1.142409	-0.474104
H55	H	-0.327983	0.935634	-0.963442
H56	H	-0.562060	1.098901	-0.973219
H57	H	-0.339452	0.749311	-0.673330
C58	C	-0.570685	0.275272	-0.441519
H59	H	-0.564025	0.226235	-0.448230
H60	H	-0.554500	0.287294	-0.371676
H61	H	-0.640576	0.287317	-0.457494
H62	H	-0.542874	0.419134	-0.469372
C63	C	-0.309487	0.922815	-1.177401
H64	H	-0.271079	0.896016	-1.127406
H65	H	-0.351489	0.892144	-1.218347
H66	H	-0.262085	0.949764	-1.221836
C67	C	-0.580406	1.111794	-1.188727
H68	H	-0.571135	1.105369	-1.261546
H69	H	-0.651620	1.101476	-1.170111
H70	H	-0.562202	1.159086	-1.173594
H71	H	-0.299363	0.419235	-0.713626
H72	H	-0.582965	0.749220	-0.429082
H73	H	-0.307372	0.285878	-0.705622
C74	C	-0.835090	0.922620	-0.702623
H75	H	-0.885079	0.895811	-0.741002
H76	H	-0.790606	0.949512	-0.750037
H77	H	-0.794196	0.891949	-0.660530
H78	H	-1.039267	1.098987	-0.450511
C79	C	-0.610782	0.605357	-0.401228
H80	H	-0.604126	0.556320	-0.407934
H81	H	-0.594604	0.617382	-0.331385
H82	H	-0.680670	0.617405	-0.417214
C83	C	-1.065502	0.922709	-0.702687
H84	H	-1.138319	0.929180	-0.693475
H85	H	-1.046838	0.932974	-0.773905
H86	H	-1.050418	0.875416	-0.684391
