data_functionalizedCrystal
_audit_creation_method	'MofGen! by Chris Wilmer'
_symmetry_space_group_name_H-M	'P1'
_symmetry_Int_Tables_number	1
_symmetry_cell_setting	triclinic
loop_
_symmetry_equiv_pos_as_xyz
  x,y,z
_cell_length_a	15.944551
_cell_length_b	14.971487
_cell_length_c	14.048226
_cell_angle_alpha	90.005694
_cell_angle_beta	89.998030
_cell_angle_gamma	96.443430
loop_
_atom_site_label
_atom_site_type_symbol
_atom_site_fract_x
_atom_site_fract_y
_atom_site_fract_z
O1	O	1.114636	-0.115362	-0.079060
O2	O	1.614636	0.384638	0.420940
O3	O	0.870100	-0.129584	-0.079083
O4	O	1.370100	0.370416	0.420917
O5	O	0.998922	0.007734	-0.079066
O6	O	1.498922	0.507734	0.420934
O7	O	0.985814	-0.252680	-0.079077
O8	O	1.485814	0.247320	0.420923
O9	O	0.998907	0.007742	0.079255
O10	O	1.498907	0.507742	0.579255
O11	O	0.870085	-0.129576	0.079238
O12	O	1.370085	0.370424	0.579238
O13	O	1.114621	-0.115354	0.079262
O14	O	1.614621	0.384646	0.579262
Zn15	Zn	0.992350	-0.122464	0.104387
Zn16	Zn	1.492350	0.377536	0.604387
Zn17	Zn	0.992371	-0.122474	-0.104208
Zn18	Zn	1.492371	0.377526	0.395792
O19	O	0.985799	-0.252672	0.079245
O20	O	1.485799	0.247328	0.579245
C21	C	0.838798	-0.128990	0.000074
C22	C	1.338798	0.371010	0.500074
C23	C	0.745550	-0.127220	0.000065
C24	C	1.245550	0.372780	0.500065
C25	C	0.998328	0.041062	0.000093
C26	C	1.498328	0.541062	0.500093
C27	C	0.996571	0.140357	0.000091
C28	C	1.496571	0.640357	0.500091
N29	N	0.992343	-0.122456	0.246747
N30	N	1.492343	0.377544	0.746747
C31	C	0.530608	-0.037872	0.000087
C32	C	1.030608	0.462128	0.500087
C33	C	0.469636	-0.079366	-0.077975
C34	C	0.969636	0.420634	0.422025
C35	C	0.574821	-0.124017	0.000077
C36	C	1.074821	0.375983	0.500077
C37	C	0.469642	-0.079379	0.078117
C38	C	0.969642	0.420621	0.578117
C39	C	0.409906	-0.120918	0.000092
C40	C	0.909906	0.379082	0.500092
C41	C	0.515077	-0.165535	-0.078050
C42	C	1.015077	0.334465	0.421950
C43	C	0.515090	-0.165535	0.078113
C44	C	1.015090	0.334465	0.578113
C45	C	0.454135	-0.207092	0.000031
C46	C	0.954135	0.292908	0.500031
C47	C	0.669825	-0.125801	0.000067
C48	C	1.169825	0.374199	0.500067
C49	C	0.314903	-0.119141	0.000095
C50	C	0.814903	0.380859	0.500095
C51	C	1.145923	-0.115948	0.000102
C52	C	1.645923	0.384052	0.500102
C53	C	1.239171	-0.117718	0.000104
C54	C	1.739171	0.382282	0.500104
C55	C	1.072251	0.197664	0.000098
C56	C	1.572251	0.697664	0.500098
C57	C	1.070595	0.290962	0.000086
C58	C	1.570595	0.790962	0.500086
C59	C	0.993259	0.326951	0.000075
C60	C	1.493259	0.826951	0.500075
C61	C	0.917573	0.269636	0.000065
C62	C	1.417573	0.769636	0.500065
C63	C	0.919230	0.176341	0.000069
C64	C	1.419230	0.676341	0.500069
C65	C	0.914125	0.464095	0.000058
C66	C	1.414125	0.964095	0.500058
C67	C	0.912468	0.557397	0.000055
C68	C	1.412468	1.057397	0.500055
C69	C	1.065490	0.578716	0.000074
C70	C	1.565490	1.078716	0.500074
C71	C	1.067147	0.485421	0.000079
C72	C	1.567147	0.985421	0.500079
C73	C	0.991461	0.428113	0.000071
C74	C	1.491461	0.928113	0.500071
C75	C	0.986392	0.714000	0.000078
C76	C	1.486392	1.214000	0.500078
C77	C	0.988148	0.614704	0.000062
C78	C	1.488148	1.114704	0.500062
N79	N	0.992385	-0.122475	-0.246569
N80	N	1.492385	0.377525	0.253431
C81	C	1.049403	-0.061676	0.296573
C82	C	1.549403	0.438324	0.796573
C83	C	1.049409	-0.061676	0.396231
C84	C	1.549409	0.438324	0.896231
C85	C	0.992357	-0.122460	0.446061
C86	C	1.492357	0.377540	0.946061
C87	C	0.935291	-0.183242	0.396228
C88	C	1.435291	0.316758	0.896228
C89	C	0.935282	-0.183238	0.296573
C90	C	1.435282	0.316762	0.796573
C91	C	0.935315	-0.183249	0.603943
C92	C	1.435315	0.316751	1.103943
C93	C	0.935325	-0.183255	0.703605
C94	C	1.435325	0.316745	1.203605
C95	C	1.049442	-0.061687	0.703601
C96	C	1.549442	0.438313	1.203601
C97	C	1.049433	-0.061682	0.603945
C98	C	1.549433	0.438318	1.103945
C99	C	0.992367	-0.122466	0.554119
C100	C	1.492367	0.377534	1.054119
H101	H	0.563873	0.033621	-0.000006
H102	H	1.063873	0.533621	0.499994
C103	C	1.218237	0.515860	0.000094
C104	C	1.718237	1.015860	0.500094
C105	C	1.152155	0.445859	0.000093
C106	C	1.652155	0.945859	0.500093
H107	H	1.270717	0.491434	0.000096
H108	H	1.770717	0.991434	0.500096
H109	H	1.214406	0.551810	0.055299
H110	H	1.714406	1.051810	0.555299
H111	H	1.214411	0.551800	-0.055122
H112	H	1.714411	1.051800	0.444878
H113	H	1.155978	0.409923	0.055313
H114	H	1.655978	0.909923	0.555313
H115	H	1.155989	0.409894	-0.055118
H116	H	1.655989	0.909894	0.444882
C117	C	0.387001	-0.088922	0.221391
C118	C	0.887001	0.411078	0.721391
C119	C	0.442469	-0.030173	0.167210
C120	C	0.942469	0.469827	0.667210
H121	H	0.370225	-0.058537	0.276385
H122	H	0.870225	0.441463	0.776385
H123	H	0.414510	-0.139181	0.240152
H124	H	0.914510	0.360819	0.740152
H125	H	0.338642	-0.108879	0.184382
H126	H	0.838642	0.391121	0.684382
H127	H	0.490831	-0.010222	0.204216
H128	H	0.990831	0.489778	0.704216
H129	H	0.414961	0.020102	0.148450
H130	H	0.914961	0.520102	0.648450
C131	C	1.162887	0.105134	0.081502
C132	C	1.662887	0.605134	0.581502
C133	C	1.157264	0.158113	0.000111
C134	C	1.657264	0.658113	0.500111
H135	H	1.215375	0.080725	0.081508
H136	H	1.715375	0.580725	0.581508
H137	H	1.118060	0.057652	0.081493
H138	H	1.618060	0.557652	0.581493
H139	H	1.159053	0.141103	0.136703
H140	H	1.659053	0.641103	0.636703
H141	H	1.161091	0.122142	-0.055091
H142	H	1.661091	0.622142	0.444909
H143	H	1.202103	0.205601	0.000110
H144	H	1.702103	0.705601	0.500110
H145	H	0.888817	-0.232729	0.256006
H146	H	1.388817	0.267271	0.756006
H147	H	0.888843	-0.232743	0.563378
H148	H	1.388843	0.267257	1.063378
C149	C	0.821018	-0.202576	0.508326
C150	C	1.321018	0.297424	1.008326
C151	C	0.872579	-0.250056	0.451004
C152	C	1.372579	0.249944	0.951004
H153	H	0.782307	-0.243827	0.542145
H154	H	1.282307	0.256173	1.042145
H155	H	0.790766	-0.165330	0.469461
H156	H	1.290766	0.334670	0.969461
H157	H	0.855014	-0.166380	0.552258
H158	H	1.355014	0.333620	1.052258
H159	H	0.838584	-0.286246	0.407067
H160	H	1.338584	0.213754	0.907067
H161	H	0.902834	-0.287317	0.489873
H162	H	1.402834	0.212683	0.989873
H163	H	0.449497	-0.042934	-0.143968
H164	H	0.949497	0.457066	0.356032
C165	C	0.917206	-0.304985	0.815654
C166	C	1.417206	0.195015	1.315654
C167	C	0.872606	-0.250066	0.758374
C168	C	1.372606	0.249934	1.258374
H169	H	0.878482	-0.346235	0.849458
H170	H	1.378482	0.153765	1.349458
H171	H	0.951185	-0.268794	0.859589
H172	H	1.451185	0.231206	1.359589
H173	H	0.952187	-0.337185	0.776754
H174	H	1.452187	0.162815	1.276754
H175	H	0.837629	-0.217861	0.797274
H176	H	1.337629	0.282139	1.297274
H177	H	0.838612	-0.286262	0.714433
H178	H	1.338612	0.213738	1.214433
C179	C	1.130905	0.731195	0.000049
C180	C	1.630905	1.231195	0.500049
C181	C	1.148687	0.641706	0.000068
C182	C	1.648687	1.141706	0.500068
H183	H	1.182266	0.770083	0.000040
H184	H	1.682266	1.270083	0.500040
H185	H	1.099200	0.742113	0.055252
H186	H	1.599200	1.242113	0.555252
H187	H	1.099200	0.742083	-0.055169
H188	H	1.599200	1.242083	0.444831
H189	H	1.180386	0.630817	0.055290
H190	H	1.680386	1.130817	0.555290
H191	H	1.180405	0.630784	-0.055140
H192	H	1.680405	1.130784	0.444860
H193	H	0.854605	0.298946	0.000049
H194	H	1.354605	0.798946	0.500049
C195	C	0.629794	-0.215855	-0.166466
C196	C	1.129794	0.284145	0.333534
C197	C	0.542108	-0.214682	-0.167246
C198	C	1.042108	0.285318	0.332754
H199	H	0.646482	-0.246189	-0.221536
H200	H	1.146482	0.253811	0.278464
H201	H	0.645708	-0.246247	-0.111111
H202	H	1.145708	0.253753	0.388889
H203	H	0.656659	-0.155920	-0.166240
H204	H	1.156659	0.344080	0.333760
H205	H	0.515243	-0.274618	-0.167466
H206	H	1.015243	0.225382	0.332534
H207	H	0.526185	-0.184292	-0.222617
H208	H	1.026185	0.315708	0.277383
C209	C	0.761378	0.526958	-0.000002
C210	C	1.261378	1.026958	0.499998
C211	C	0.827460	0.596959	0.000021
C212	C	1.327460	1.096959	0.500021
H213	H	0.708898	0.551384	-0.000032
H214	H	1.208898	1.051384	0.499968
H215	H	0.765185	0.491022	0.055209
H216	H	1.265185	0.991022	0.555209
H217	H	0.765228	0.491004	-0.055211
H218	H	1.265228	0.991004	0.444789
H219	H	0.823613	0.632909	0.055234
H220	H	1.323613	1.132909	0.555234
H221	H	0.823651	0.632910	-0.055196
H222	H	1.323651	1.132910	0.444804
H223	H	0.421045	-0.278659	-0.000015
H224	H	0.921045	0.221341	0.499985
H225	H	0.535250	-0.201938	0.144109
H226	H	1.035250	0.298062	0.644109
H227	H	1.095892	-0.012192	0.563373
H228	H	1.595892	0.487808	1.063373
H229	H	1.132221	0.337618	0.000094
H230	H	1.632221	0.837618	0.500094
H231	H	0.852494	0.417437	0.000048
H232	H	1.352494	0.917437	0.500048
H233	H	0.857604	0.129681	0.000063
H234	H	1.357604	0.629681	0.500063
H235	H	1.095864	-0.012183	0.256008
H236	H	1.595864	0.487817	0.756008
C237	C	1.067548	0.060051	0.508303
C238	C	1.567548	0.560051	1.008303
C239	C	1.112137	0.005135	0.450992
C240	C	1.612137	0.505135	0.950992
H241	H	1.106278	0.101302	0.542102
H242	H	1.606278	0.601302	1.042102
H243	H	1.033581	0.023857	0.552243
H244	H	1.533581	0.523857	1.052243
H245	H	1.032556	0.092249	0.469426
H246	H	1.532556	0.592249	0.969426
H247	H	1.147125	-0.027068	0.489870
H248	H	1.647125	0.472932	0.989870
H249	H	1.146119	0.041333	0.407046
H250	H	1.646119	0.541333	0.907046
C251	C	1.067575	0.060049	0.815669
C252	C	1.567575	0.560049	1.315669
C253	C	1.112169	0.005135	0.758360
C254	C	1.612169	0.505135	1.258360
H255	H	1.106303	0.101301	0.849471
H256	H	1.606303	0.601301	1.349471
H257	H	1.033608	0.023853	0.859607
H258	H	1.533608	0.523853	1.359607
H259	H	1.032583	0.092246	0.776790
H260	H	1.532583	0.592246	1.276790
H261	H	1.147157	-0.027067	0.797239
H262	H	1.647157	0.472933	1.297239
H263	H	1.146151	0.041336	0.714416
H264	H	1.646151	0.541336	1.214416
