data_functionalizedCrystal
_audit_creation_method	'MofGen! by Chris Wilmer'
_symmetry_space_group_name_H-M	'P1'
_symmetry_Int_Tables_number	1
_symmetry_cell_setting	triclinic
loop_
_symmetry_equiv_pos_as_xyz
  x,y,z
_cell_length_a	27.732048
_cell_length_b	16.992695
_cell_length_c	16.053802
_cell_angle_alpha	87.258926
_cell_angle_beta	87.437704
_cell_angle_gamma	93.344561
loop_
_atom_site_label
_atom_site_type_symbol
_atom_site_fract_x
_atom_site_fract_y
_atom_site_fract_z
O1	O	0.646871	-0.089927	-0.069478
O2	O	0.506690	-0.104106	-0.069469
O3	O	0.576219	0.017119	-0.069467
O4	O	0.577343	-0.211152	-0.069480
O5	O	0.572391	0.010474	0.069392
O6	O	0.502862	-0.110752	0.069389
O7	O	0.643043	-0.096572	0.069381
Zn8	Zn	0.572345	-0.104717	0.091432
Zn9	Zn	0.577389	-0.095962	-0.091520
O10	O	0.573515	-0.217797	0.069379
C11	C	0.486757	-0.107132	-0.000039
C12	C	0.433063	-0.106235	-0.000035
C13	C	0.572859	0.042991	-0.000038
C14	C	0.568545	0.129983	-0.000038
C15	C	0.662977	-0.093547	-0.000051
C16	C	0.716671	-0.094443	-0.000060
C17	C	1.052632	-0.028450	-0.000028
C18	C	1.254435	-0.031776	-0.000025
O19	O	1.283080	0.028569	0.000014
N20	N	1.276667	-0.103657	-0.000032
C21	C	1.248444	-0.174713	-0.000034
O22	O	1.271984	-0.235929	-0.000031
C23	C	1.046642	-0.171387	-0.000030
C24	C	1.024413	-0.099500	-0.000032
C25	C	1.030403	0.043430	-0.000029
C26	C	0.979955	0.044261	-0.000034
C27	C	0.951736	-0.026789	-0.000038
C28	C	0.973965	-0.098669	-0.000037
C29	C	1.018420	-0.242441	-0.000026
C30	C	0.967966	-0.241604	-0.000023
C31	C	0.945738	-0.169717	-0.000025
C32	C	0.895299	-0.168888	-0.000047
N33	N	0.873067	-0.097007	-0.000040
C34	C	0.901286	-0.025957	-0.000036
C35	C	1.354394	-0.176454	-0.000037
C36	C	1.404844	-0.177285	-0.000040
C37	C	1.410831	-0.034348	-0.000030
C38	C	1.360380	-0.033517	-0.000033
C39	C	1.332162	-0.104572	-0.000031
C40	C	0.795342	-0.024218	-0.000047
C41	C	0.744889	-0.023393	-0.000056
C42	C	0.738907	-0.166330	-0.000062
C43	C	0.789355	-0.167155	-0.000057
C44	C	0.817571	-0.096092	-0.000048
O45	O	0.866623	-0.229201	-0.000077
O46	O	0.877737	0.035249	-0.000020
C47	C	1.103079	-0.029281	-0.000023
C48	C	1.125308	-0.101162	-0.000022
C49	C	1.097090	-0.172211	-0.000026
C50	C	1.175759	-0.101993	-0.000024
C51	C	1.203978	-0.030944	-0.000020
C52	C	1.181746	0.040938	-0.000013
C53	C	1.131298	0.041769	-0.000018
C54	C	1.119322	-0.244093	-0.000033
C55	C	1.169770	-0.244918	-0.000028
C56	C	1.197988	-0.173868	-0.000024
C57	C	0.576875	-0.243670	-0.000053
C58	C	0.581189	-0.330661	-0.000058
N59	N	0.568906	-0.110692	0.216292
C60	C	0.610168	0.180728	-0.000039
C61	C	0.606112	0.262466	-0.000047
C62	C	0.560432	0.293457	-0.000047
C63	C	0.518806	0.242706	-0.000048
C64	C	0.522862	0.160970	-0.000046
C65	C	0.543619	0.536851	-0.000057
C66	C	0.539565	0.618594	-0.000057
C67	C	0.626872	0.638348	-0.000057
C68	C	0.630925	0.556610	-0.000051
C69	C	0.589299	0.505866	-0.000056
N70	N	0.556285	0.377006	-0.000052
N71	N	0.593446	0.422319	-0.000057
N72	N	0.580831	-0.089980	-0.216381
C73	C	0.598503	-0.059128	0.259987
C74	C	0.596102	-0.063315	0.347394
C75	C	0.564107	-0.119070	0.391104
C76	C	0.534507	-0.170636	0.347403
C77	C	0.536906	-0.166445	0.259998
C78	C	0.553629	-0.137355	0.652513
C79	C	0.551234	-0.141544	0.739924
C80	C	0.612829	-0.034222	0.739909
C81	C	0.615226	-0.030039	0.652503
C82	C	0.585625	-0.081602	0.608809
N83	N	0.561654	-0.123353	0.480448
N84	N	0.588076	-0.077315	0.519467
H85	H	0.726794	0.035148	-0.000060
O86	O	1.428814	-0.254822	-0.000037
H87	H	1.419251	-0.286231	-0.056628
O88	O	0.680197	0.523194	-0.000069
H89	H	0.698795	0.540920	0.056519
H90	H	0.509724	0.495545	-0.000061
H91	H	1.331423	-0.234319	-0.000036
O92	O	0.490291	0.652013	-0.000058
H93	H	0.484792	0.686064	0.056546
O94	O	0.825768	0.052430	-0.000041
H95	H	0.847330	0.052775	0.056561
O96	O	1.193737	-0.322463	-0.000022
H97	H	1.218141	-0.323571	-0.056616
O98	O	0.649741	0.030098	0.605372
H99	H	0.675591	-0.000729	0.565546
O100	O	1.088888	-0.320728	-0.000041
H101	H	1.112828	-0.370845	-0.000050
H102	H	0.525179	-0.186949	0.775509
H103	H	0.508454	-0.216030	0.382997
H104	H	0.660762	0.679672	-0.000055
H105	H	0.481612	0.267945	-0.000053
H106	H	0.636928	0.007759	0.775493
H107	H	0.647365	0.155502	-0.000034
O108	O	0.708466	-0.242961	-0.000066
H109	H	0.715154	-0.280096	0.056530
H110	H	0.640006	0.303780	-0.000046
H111	H	0.512805	-0.208432	0.224422
H112	H	1.433816	0.023503	-0.000029
O113	O	0.633002	0.001021	0.212841
H114	H	0.658854	-0.029784	0.172997
H115	H	0.488968	0.119653	-0.000045
O116	O	0.955981	0.121794	-0.000015
H117	H	0.984085	0.171052	0.000002
H118	H	0.620202	-0.021328	0.382970
H119	H	1.053373	0.101291	-0.000023
H120	H	0.529527	-0.179341	0.616945
O121	O	1.336407	0.044017	-0.000019
H122	H	1.349090	0.080840	-0.056609
O123	O	1.042383	-0.319982	-0.000004
H124	H	1.032819	-0.351397	-0.056591
O125	O	0.937529	-0.318242	-0.000019
H126	H	0.947336	-0.349963	-0.056618
O127	O	0.813335	-0.244686	-0.000058
H128	H	0.785235	-0.293951	-0.000059
O129	O	1.107328	0.119305	-0.000004
H130	H	1.120014	0.156128	-0.056592
O131	O	1.212186	0.117573	0.000000
H132	H	1.251000	0.104908	0.000012
