data_functionalizedCrystal
_audit_creation_method	'MofGen! by Chris Wilmer'
_symmetry_space_group_name_H-M	'P1'
_symmetry_Int_Tables_number	1
_symmetry_cell_setting	triclinic
loop_
_symmetry_equiv_pos_as_xyz
  x,y,z
_cell_length_a	14.853558
_cell_length_b	13.930277
_cell_length_c	14.971486
_cell_angle_alpha	90.004432
_cell_angle_beta	96.377369
_cell_angle_gamma	90.006081
loop_
_atom_site_label
_atom_site_type_symbol
_atom_site_fract_x
_atom_site_fract_y
_atom_site_fract_z
O1	O	1.196353	0.079820	-0.116727
O2	O	1.696353	0.579820	0.383273
O3	O	0.933889	0.079824	-0.130647
O4	O	1.433889	0.579824	0.369353
O5	O	1.072156	0.079815	0.006512
O6	O	1.572156	0.579815	0.506512
O7	O	1.058086	0.079829	-0.253886
O8	O	1.558086	0.579829	0.246114
O9	O	1.072135	-0.079847	0.006491
O10	O	1.572135	0.420153	0.506491
O11	O	0.933869	-0.079838	-0.130668
O12	O	1.433869	0.420162	0.369332
O13	O	1.196332	-0.079842	-0.116748
O14	O	1.696332	0.420158	0.383252
Zn15	Zn	1.065097	-0.105190	-0.123712
Zn16	Zn	1.565097	0.394810	0.376288
Zn17	Zn	1.065124	0.105172	-0.123684
Zn18	Zn	1.565124	0.605172	0.376316
O19	O	1.058066	-0.079833	-0.253907
O20	O	1.558066	0.420167	0.246093
C21	C	0.900291	-0.000006	-0.130029
C22	C	1.400291	0.499994	0.369971
C23	C	0.800207	-0.000005	-0.128143
C24	C	1.300207	0.499995	0.371857
C25	C	0.753198	0.087031	-0.127247
C26	C	1.253198	0.587031	0.372753
C27	C	0.753174	-0.087039	-0.127259
C28	C	1.253174	0.412961	0.372741
C29	C	0.659141	-0.087041	-0.125483
C30	C	1.159141	0.412959	0.374517
C31	C	0.612132	-0.000005	-0.124587
C32	C	1.112132	0.499995	0.375413
C33	C	0.659156	0.087032	-0.125468
C34	C	1.159156	0.587032	0.374532
C35	C	0.612110	-0.174076	-0.124593
C36	C	1.112110	0.325924	0.375407
C37	C	0.518071	-0.174081	-0.122816
C38	C	1.018071	0.325919	0.377184
C39	C	0.471060	-0.087045	-0.121926
C40	C	0.971060	0.412955	0.378074
C41	C	0.518090	-0.000004	-0.122808
C42	C	1.018090	0.499996	0.377192
C43	C	0.471081	0.087031	-0.121912
C44	C	0.971081	0.587031	0.378088
C45	C	0.518109	0.174072	-0.122801
C46	C	1.018109	0.674072	0.377199
C47	C	0.612145	0.174068	-0.124579
C48	C	1.112145	0.674068	0.375421
C49	C	0.377024	-0.087040	-0.120148
C50	C	0.877024	0.412960	0.379852
C51	C	0.377039	0.087032	-0.120133
C52	C	0.877039	0.587032	0.379867
N53	N	1.065086	-0.248756	-0.123730
N54	N	1.565086	0.251244	0.376270
C55	C	1.119870	-0.701013	-0.178015
C56	C	1.619870	-0.201013	0.321985
C57	C	1.010406	-0.701007	-0.069316
C58	C	1.510406	-0.201007	0.430684
C59	C	1.010392	-0.600511	-0.069331
C60	C	1.510392	-0.100511	0.430669
C61	C	1.065119	-0.550262	-0.123687
C62	C	1.565119	-0.050262	0.376313
C63	C	1.119860	-0.600508	-0.178029
C64	C	1.619860	-0.100508	0.321971
C65	C	0.955659	-0.550257	-0.014983
C66	C	1.455659	-0.050257	0.485017
C67	C	0.955644	-0.449755	-0.014995
C68	C	1.455644	0.050245	0.485005
C69	C	1.010367	-0.399504	-0.069357
C70	C	1.510367	0.100496	0.430643
C71	C	1.065109	-0.449757	-0.123701
C72	C	1.565109	0.050243	0.376299
C73	C	1.119837	-0.399507	-0.178058
C74	C	1.619837	0.100493	0.321942
C75	C	1.174575	-0.449758	-0.232408
C76	C	1.674575	0.050242	0.267592
C77	C	1.174583	-0.550257	-0.232391
C78	C	1.674583	-0.050257	0.267609
C79	C	1.010359	-0.299005	-0.069374
C80	C	1.510359	0.200995	0.430626
C81	C	1.119827	-0.299002	-0.178072
C82	C	1.619827	0.200998	0.321928
C83	C	1.229931	-0.000010	-0.117367
C84	C	1.729931	0.499990	0.382633
C85	C	1.330015	-0.000005	-0.119253
C86	C	1.830015	0.499995	0.380747
C87	C	1.071516	-0.000016	0.039826
C88	C	1.571516	0.499984	0.539826
C89	C	1.069631	-0.000015	0.139123
C90	C	1.569631	0.499985	0.639123
N91	N	1.065143	0.248738	-0.123658
N92	N	1.565143	0.748738	0.376342
C93	C	1.058705	-0.000000	-0.287222
C94	C	1.558705	0.500000	0.212778
C95	C	1.060591	0.000005	-0.386519
C96	C	1.560591	0.500005	0.113481
C97	C	1.150859	-0.000017	0.196337
C98	C	1.650859	0.499983	0.696337
C99	C	1.149081	-0.000007	0.289636
C100	C	1.649081	0.499993	0.789636
C101	C	1.066076	-0.000002	0.325721
C102	C	1.566076	0.499998	0.825721
C103	C	0.984842	0.000003	0.268500
C104	C	1.484842	0.500003	0.768500
C105	C	0.986620	-0.000000	0.175203
C106	C	1.486620	0.500000	0.675203
C107	C	0.981142	0.000006	0.462963
C108	C	1.481142	0.500006	0.962963
C109	C	0.979363	0.000007	0.556268
C110	C	1.479363	0.500007	1.056268
C111	C	1.143603	-0.000001	0.577397
C112	C	1.643603	0.499999	1.077397
C113	C	1.145381	-0.000004	0.484099
C114	C	1.645381	0.499996	0.984099
C115	C	1.064147	-0.000000	0.426885
C116	C	1.564147	0.500000	0.926885
H117	H	0.791491	0.157898	-0.127974
H118	H	1.291491	0.657898	0.372026
C119	C	0.888053	0.000025	0.595959
C120	C	1.388053	0.500025	1.095959
N121	N	0.819276	0.000041	0.625853
N122	N	1.319276	0.500041	1.125853
H123	H	1.219150	-0.591180	-0.276638
H124	H	1.719150	-0.091180	0.223362
C125	C	1.180033	-0.243736	-0.237869
C126	C	1.680033	0.256264	0.262131
N127	N	1.225382	-0.202110	-0.282907
N128	N	1.725382	0.297890	0.217093
H129	H	0.338771	0.157908	-0.119409
H130	H	0.838771	0.657908	0.380591
C131	C	0.466387	0.269808	-0.121812
C132	C	0.966387	0.769808	0.378188
N133	N	0.427426	0.341914	-0.121067
N134	N	0.927426	0.841914	0.378933
C135	C	0.950151	-0.243734	-0.009592
C136	C	1.450151	0.256266	0.490408
N137	N	0.904798	-0.202105	0.035437
N138	N	1.404798	0.297895	0.535437
H139	H	0.914992	0.000011	0.416381
H140	H	1.414992	0.500011	0.916381
C141	C	0.897263	-0.000000	0.112268
C142	C	1.397263	0.500000	0.612268
N143	N	0.829956	0.000002	0.064866
N144	N	1.329956	0.500002	0.564866
C145	C	1.238439	-0.000025	0.352568
C146	C	1.738439	0.499975	0.852568
N147	N	1.305747	-0.000043	0.399967
N148	N	1.805747	0.499957	0.899967
C149	C	0.893534	0.000000	0.308197
C150	C	1.393534	0.500000	0.808197
N151	N	0.824760	-0.000009	0.338095
N152	N	1.324760	0.499991	0.838095
H153	H	1.218451	-0.000027	0.166965
H154	H	1.718451	0.499973	0.666965
C155	C	1.232962	0.000003	0.640335
C156	C	1.732962	0.500003	1.140335
N157	N	1.300265	0.000004	0.687743
N158	N	1.800265	0.500004	1.187743
H159	H	0.791455	-0.157899	-0.127982
H160	H	1.291455	0.342101	0.372018
H161	H	0.965856	-0.741926	-0.025056
H162	H	1.465856	-0.241926	0.474944
C163	C	0.663883	0.269805	-0.125544
C164	C	1.163883	0.769805	0.374456
N165	N	0.702857	0.341913	-0.126266
N166	N	1.202857	0.841913	0.373734
C167	C	0.325298	-0.182780	-0.119170
C168	C	0.825298	0.317220	0.380830
N169	N	0.286339	-0.254896	-0.118435
N170	N	0.786339	0.245104	0.381565
H171	H	0.650393	-0.244935	-0.125314
H172	H	1.150393	0.255065	0.374686
H173	H	1.219137	-0.408832	-0.276661
H174	H	1.719137	0.091168	0.223339
C175	C	0.895424	-0.394489	0.044784
C176	C	1.395424	0.105511	0.544784
N177	N	0.850063	-0.352861	0.089806
N178	N	1.350063	0.147139	0.589806
C179	C	0.466348	-0.269828	-0.121857
C180	C	0.966348	0.230172	0.378143
N181	N	0.427387	-0.341945	-0.121143
N182	N	0.927387	0.158055	0.378857
C183	C	1.180080	-0.756289	-0.237796
C184	C	1.680080	-0.256289	0.262204
N185	N	1.225433	-0.797924	-0.282822
N186	N	1.725433	-0.297924	0.217178
C187	C	0.895462	-0.605537	0.044802
C188	C	1.395462	-0.105537	0.544802
N189	N	0.850115	-0.647179	0.089832
N190	N	1.350115	-0.147179	0.589832
H191	H	1.212972	-0.000015	0.454723
H192	H	1.712972	0.499985	0.954723
