data_functionalizedCrystal
_audit_creation_method	'MofGen! by Chris Wilmer'
_symmetry_space_group_name_H-M	'P1'
_symmetry_Int_Tables_number	1
_symmetry_cell_setting	triclinic
loop_
_symmetry_equiv_pos_as_xyz
  x,y,z
_cell_length_a	14.971482
_cell_length_b	11.792254
_cell_length_c	13.448316
_cell_angle_alpha	89.993237
_cell_angle_beta	89.993798
_cell_angle_gamma	83.905603
loop_
_atom_site_label
_atom_site_type_symbol
_atom_site_fract_x
_atom_site_fract_y
_atom_site_fract_z
O1	O	1.187547	0.147888	-0.082679
O2	O	0.927218	0.165605	-0.082684
O3	O	1.063694	-0.008464	-0.082675
O4	O	1.051071	0.321957	-0.082689
O5	O	1.063677	-0.008474	0.082709
O6	O	0.927201	0.165594	0.082700
O7	O	1.187530	0.147878	0.082704
Cu8	Cu	1.057364	0.156735	0.097803
Cu9	Cu	1.057384	0.156748	-0.097783
O10	O	1.051054	0.321946	0.082695
C11	C	0.893882	0.164808	0.000007
C12	C	0.794575	0.162436	0.000005
C13	C	0.747916	0.161313	0.090157
C14	C	0.654609	0.159066	0.090158
C15	C	0.607961	0.157950	0.000007
C16	C	0.654626	0.159070	-0.090152
C17	C	0.747933	0.161309	-0.090152
C18	C	0.460145	0.154407	-0.090146
C19	C	0.366832	0.152170	-0.090146
C20	C	0.366821	0.152164	0.090165
C21	C	0.460128	0.154402	0.090165
C22	C	0.506787	0.155524	0.000006
C23	C	1.062891	-0.050755	0.000017
C24	C	1.060510	-0.176752	0.000016
C25	C	1.058577	-0.279076	0.000012
C26	C	1.056159	-0.407447	0.000003
C27	C	1.220867	0.148675	0.000011
C28	C	1.320173	0.151047	0.000006
C29	C	1.051858	0.364237	0.000001
C30	C	1.054238	0.490235	-0.000005
N31	N	1.057356	0.156725	0.235367
N32	N	1.057399	0.156748	-0.235347
C33	C	1.117807	0.079679	0.287412
C34	C	1.117812	0.079679	0.391515
C35	C	1.057371	0.156730	0.443572
C36	C	0.996914	0.233779	0.391520
C37	C	0.996905	0.233774	0.287418
C38	C	0.996939	0.233787	0.608500
C39	C	0.996949	0.233794	0.712608
C40	C	1.117846	0.079692	0.712596
C41	C	1.117837	0.079686	0.608495
C42	C	1.057381	0.156738	0.556450
H43	H	0.328854	0.151262	-0.163555
O44	O	0.505413	0.155704	-0.177750
C45	C	0.524280	0.254636	-0.331880
C46	C	0.472960	0.253309	-0.232700
H47	H	0.498049	0.333528	-0.376344
H48	H	0.598984	0.256503	-0.316450
H49	H	0.513760	0.174799	-0.376301
H50	H	0.483407	0.333130	-0.188229
H51	H	0.398275	0.251383	-0.248200
O52	O	1.176507	0.004689	0.441956
C53	C	1.227963	-0.192548	0.473856
C54	C	1.161448	-0.107745	0.416657
H55	H	1.215799	-0.283469	0.453439
H56	H	1.299684	-0.177684	0.453342
H57	H	1.217608	-0.179261	0.557198
H58	H	1.171721	-0.120981	0.333302
H59	H	1.089751	-0.122631	0.437254
H60	H	0.947678	0.296511	0.245045
H61	H	0.785889	0.162231	0.163569
O62	O	0.609376	0.157791	-0.177754
C63	C	0.590538	0.058914	-0.331893
C64	C	0.641834	0.060200	-0.232708
H65	H	0.616773	-0.019967	-0.376360
H66	H	0.515829	0.057054	-0.316471
H67	H	0.601077	0.138763	-0.376307
H68	H	0.631368	-0.019632	-0.188244
H69	H	0.716524	0.062120	-0.248199
O70	O	1.176456	0.004879	0.557766
C71	C	1.298127	-0.019453	0.439784
C72	C	1.231929	0.065472	0.497264
H73	H	1.342981	0.029503	0.390839
H74	H	1.341416	-0.074684	0.494683
H75	H	1.258938	-0.076060	0.391223
H76	H	1.271045	0.122153	0.545826
H77	H	1.188640	0.120623	0.442312
H78	H	1.167071	0.016954	0.754977
O79	O	0.321519	0.151267	0.177770
C80	C	0.283327	0.248790	0.331899
C81	C	0.334664	0.249957	0.232720
H82	H	0.293952	0.328560	0.376362
H83	H	0.208609	0.247064	0.316468
H84	H	0.309466	0.169827	0.376321
H85	H	0.308601	0.328909	0.188248
H86	H	0.409374	0.251624	0.248220
O87	O	0.938181	0.308746	0.558096
C88	C	0.818241	0.461561	0.569088
C89	C	0.884742	0.376748	0.626294
H90	H	0.775006	0.516546	0.624201
H91	H	0.857085	0.518415	0.520362
H92	H	0.773357	0.412446	0.520339
H93	H	0.929643	0.425770	0.675097
H94	H	0.845843	0.319894	0.674957
O95	O	0.793318	0.162204	-0.177701
C96	C	0.908366	0.066520	-0.282317
C97	C	0.857026	0.065358	-0.183140
H98	H	0.959899	-0.011758	-0.286738
H99	H	0.859046	0.065269	-0.346790
H100	H	0.944206	0.146971	-0.286816
H101	H	0.821184	-0.015079	-0.178544
H102	H	0.906389	0.066670	-0.118714
H103	H	1.167029	0.016940	0.245034
H104	H	0.947697	0.296512	0.433910
H105	H	0.616625	0.158133	0.163569
H106	H	0.498106	0.155318	0.163574
H107	H	0.947730	0.296536	0.754988
