data_functionalizedCrystal
_audit_creation_method	'MofGen! by Chris Wilmer'
_symmetry_space_group_name_H-M	'P1'
_symmetry_Int_Tables_number	1
_symmetry_cell_setting	triclinic
loop_
_symmetry_equiv_pos_as_xyz
  x,y,z
_cell_length_a	16.109301
_cell_length_b	17.699083
_cell_length_c	15.186229
_cell_angle_alpha	89.995368
_cell_angle_beta	89.999362
_cell_angle_gamma	83.372248
loop_
_atom_site_label
_atom_site_type_symbol
_atom_site_fract_x
_atom_site_fract_y
_atom_site_fract_z
O1	O	1.102963	0.097285	-0.073175
O2	O	0.860880	0.109391	-0.073189
O3	O	0.988761	-0.006841	-0.073174
O4	O	0.975082	0.213517	-0.073190
O5	O	0.988753	-0.006843	0.073284
O6	O	0.860872	0.109390	0.073268
O7	O	1.102955	0.097283	0.073283
Zn8	Zn	0.981912	0.103336	0.096529
Zn9	Zn	0.981923	0.103338	-0.096435
O10	O	0.975074	0.213516	0.073267
C11	C	0.829902	0.108900	0.000038
C12	C	0.737609	0.107430	0.000033
C13	C	0.515224	0.172981	0.000038
C14	C	0.428506	0.171594	0.000044
C15	C	0.448618	0.033688	0.000050
C16	C	0.535334	0.035076	0.000051
C17	C	0.568635	0.104725	0.000040
C18	C	0.395200	0.101949	0.000046
C19	C	0.301177	0.100445	0.000052
C20	C	0.662664	0.106230	0.000036
C21	C	0.988267	-0.035040	0.000055
C22	C	0.986796	-0.119060	0.000055
C23	C	1.061860	-0.167574	0.000061
C24	C	1.060473	-0.246519	0.000053
C25	C	0.984022	-0.276949	0.000046
C26	C	0.908953	-0.228429	0.000038
C27	C	0.910341	-0.149485	0.000039
C28	C	0.903356	-0.546800	0.000030
C29	C	0.901974	-0.625750	0.000031
C30	C	1.053488	-0.643834	0.000044
C31	C	1.054876	-0.564890	0.000046
C32	C	0.979807	-0.516377	0.000033
C33	C	0.981312	-0.430776	0.000040
C34	C	0.982517	-0.362549	0.000045
C35	C	1.133933	0.097774	0.000054
C36	C	1.226226	0.099244	0.000053
C37	C	0.975568	0.241714	0.000037
C38	C	0.977039	0.325734	0.000031
N39	N	0.981910	0.103334	0.228221
N40	N	0.981931	0.103334	-0.228128
C41	C	1.038555	0.051884	0.453951
C42	C	1.038558	0.051882	0.546141
C43	C	0.925280	0.154787	0.546136
C44	C	0.925274	0.154785	0.453948
C45	C	0.981916	0.103334	0.407858
C46	C	0.981925	0.103334	0.592236
C47	C	0.981927	0.103333	0.692192
C48	C	0.981913	0.103334	0.307896
H49	H	1.124115	-0.142805	0.000072
H50	H	1.117130	-0.540119	0.000056
Cl51	Cl	1.147862	-0.704827	0.000057
H52	H	0.839715	-0.650523	0.000027
H53	H	1.121597	-0.286017	0.000060
Cl54	Cl	1.109759	-0.012801	0.396013
H55	H	0.849216	-0.109986	0.000034
H56	H	0.385022	0.227175	0.000044
Cl57	Cl	1.109762	-0.012803	0.604084
Cl58	Cl	0.406748	-0.053866	0.000058
H59	H	0.879148	0.196682	0.416417
Cl60	Cl	0.854080	0.219468	0.604082
H61	H	0.842230	-0.507310	0.000020
Cl62	Cl	0.557085	0.260540	0.000030
H63	H	0.578824	-0.020510	0.000055
H64	H	0.846705	-0.253211	0.000026
