data_functionalizedCrystal
_audit_creation_method	'MofGen! by Chris Wilmer'
_symmetry_space_group_name_H-M	'P1'
_symmetry_Int_Tables_number	1
_symmetry_cell_setting	triclinic
loop_
_symmetry_equiv_pos_as_xyz
  x,y,z
_cell_length_a	19.121424
_cell_length_b	19.120786
_cell_length_c	19.120915
_cell_angle_alpha	89.863545
_cell_angle_beta	94.749638
_cell_angle_gamma	95.008527
loop_
_atom_site_label
_atom_site_type_symbol
_atom_site_fract_x
_atom_site_fract_y
_atom_site_fract_z
Zn1	Zn	1.048453	-0.249444	-0.341889
Zn2	Zn	1.548453	0.250556	0.158111
Zn3	Zn	1.048803	-0.361679	-0.219634
Zn4	Zn	1.548803	0.138321	0.280366
Zn5	Zn	0.935818	-0.249473	-0.229242
Zn6	Zn	1.435818	0.250527	0.270758
Zn7	Zn	0.925740	-0.372103	-0.341829
Zn8	Zn	1.425740	0.127897	0.158171
O9	O	0.989704	-0.308175	-0.283148
O10	O	1.489704	0.191825	0.216852
O11	O	1.147140	-0.259958	-0.321676
O12	O	1.647140	0.240042	0.178324
O13	O	1.038180	-0.342444	-0.122626
O14	O	1.538180	0.157556	0.377374
O15	O	0.954831	-0.151178	-0.248231
O16	O	1.454831	0.348822	0.251769
O17	O	1.147398	-0.342416	-0.231855
O18	O	1.647398	0.157584	0.268145
O19	O	1.037583	-0.151157	-0.330992
O20	O	1.537583	0.348843	0.169008
O21	O	0.955170	-0.260007	-0.129685
O22	O	1.455170	0.239993	0.370315
O23	O	0.835841	-0.270115	-0.248173
O24	O	1.335841	0.229885	0.251827
O25	O	0.937654	-0.360183	-0.440119
O26	O	1.437654	0.139817	0.059881
O27	O	0.828437	-0.360211	-0.330890
O28	O	1.328437	0.139789	0.169110
O29	O	1.027811	-0.270066	-0.440163
O30	O	1.527811	0.229934	0.059837
O31	O	1.028408	-0.461354	-0.231797
O32	O	1.528408	0.038646	0.268203
O33	O	0.937994	-0.469012	-0.321573
O34	O	1.437994	0.030988	0.178427
C35	C	0.806562	-0.316298	-0.290568
C36	C	1.306562	0.183702	0.209432
C37	C	0.728212	-0.319791	-0.293758
C38	C	1.228212	0.180209	0.206242
C39	C	0.982164	-0.490669	-0.275650
C40	C	1.482164	0.009331	0.224350
C41	C	0.979001	-0.568738	-0.272464
C42	C	1.479001	-0.068738	0.227536
C43	C	0.284886	-0.341881	-0.314013
C44	C	0.784886	0.158119	0.185987
C45	C	0.358504	-0.338604	-0.311002
C46	C	0.858504	0.161396	0.188998
C47	C	0.399145	-0.289988	-0.266508
C48	C	0.899145	0.210012	0.233492
C49	C	0.366164	-0.244652	-0.225017
C50	C	0.866164	0.255348	0.274983
C51	C	0.292547	-0.247933	-0.228024
C52	C	0.792547	0.252067	0.271976
C53	C	0.621614	-0.277735	-0.255274
C54	C	1.121614	0.222265	0.244726
C55	C	0.695236	-0.274456	-0.252271
C56	C	1.195236	0.225544	0.247729
C57	C	0.687571	-0.368410	-0.338256
C58	C	1.187571	0.131590	0.161744
C59	C	0.613953	-0.371683	-0.341263
C60	C	1.113953	0.128317	0.158737
C61	C	0.580978	-0.326349	-0.299769
C62	C	1.080978	0.173651	0.200231
C63	C	0.474395	-0.286636	-0.263432
C64	C	0.974395	0.213364	0.236568
C65	C	0.505729	-0.329705	-0.302842
C66	C	1.005729	0.170295	0.197158
C67	C	1.020565	-0.605347	-0.314094
C68	C	1.520565	-0.105347	0.185906
C69	C	1.017591	-0.678702	-0.311101
C70	C	1.517591	-0.178702	0.188899
C71	C	0.973056	-0.715447	-0.266473
C72	C	1.473056	-0.215447	0.233527
C73	C	0.931487	-0.678833	-0.224842
C74	C	1.431487	-0.178833	0.275158
C75	C	0.934458	-0.605479	-0.227839
C76	C	1.434458	-0.105479	0.272161
C77	C	0.961928	-0.936930	-0.255270
C78	C	1.461928	-0.436930	0.244730
C79	C	0.958962	-1.010288	-0.252274
C80	C	1.458962	-0.510288	0.247726
C81	C	1.045065	-1.010153	-0.338534
C82	C	1.545065	-0.510153	0.161466
C83	C	1.048035	-0.936798	-0.341524
C84	C	1.548035	-0.436798	0.158476
C85	C	1.006464	-0.900190	-0.299895
C86	C	1.506464	-0.400190	0.200105
C87	C	0.970016	-0.790427	-0.263411
C88	C	1.470016	-0.290427	0.236589
C89	C	1.009500	-0.825212	-0.302962
C90	C	1.509500	-0.325212	0.197038
C91	C	1.173560	-0.300021	-0.275700
C92	C	1.673560	0.199979	0.224300
C93	C	1.251909	-0.296546	-0.272526
C94	C	1.751909	0.203454	0.227474
C95	C	0.981570	-0.316284	-0.466337
C96	C	1.481570	0.183716	0.033663
C97	C	0.978103	-0.319739	-0.544401
C98	C	1.478103	0.180261	-0.044401
C99	C	0.997292	-0.124969	-0.290690
C100	C	1.497292	0.375031	0.209310
C101	C	1.000526	-0.046897	-0.293904
C102	C	1.500526	0.453103	0.206096
C103	C	0.956149	-0.341676	-0.985912
C104	C	1.456149	0.158324	-0.485912
C105	C	0.959403	-0.338419	-0.912563
C106	C	1.459403	0.161581	-0.412563
C107	C	1.007974	-0.289875	-0.875915
C108	C	1.507974	0.210125	-0.375915
C109	C	1.053288	-0.244580	-0.912620
C110	C	1.553288	0.255420	-0.412620
C111	C	1.050029	-0.247834	-0.985968
C112	C	1.550029	0.252166	-0.485968
C113	C	1.020158	-0.277699	-0.654454
C114	C	1.520158	0.222301	-0.154454
C115	C	1.023415	-0.274450	-0.581100
C116	C	1.523415	0.225550	-0.081100
C117	C	0.929529	-0.368288	-0.581049
C118	C	1.429529	0.131712	-0.081049
C119	C	0.926278	-0.371540	-0.654398
C120	C	1.426278	0.128460	-0.154398
C121	C	0.971589	-0.326243	-0.691097
C122	C	1.471589	0.173757	-0.191097
C123	C	1.011303	-0.286546	-0.800941
C124	C	1.511303	0.213454	-0.300941
C125	C	0.968256	-0.329569	-0.766070
C126	C	1.468256	0.170431	-0.266070
C127	C	0.997849	-0.300045	-0.100673
C128	C	1.497849	0.199955	0.399327
C129	C	1.001460	-0.296386	-0.022612
C130	C	1.501460	0.203614	0.477388
H131	H	0.251800	-0.381465	-0.350249
H132	H	0.751800	0.118535	0.149751
O133	O	0.461925	-0.382161	-0.350829
O134	O	0.961925	0.117839	0.149171
H135	H	0.428099	-0.353880	-0.389289
H136	H	0.928099	0.146120	0.110711
O137	O	1.089890	-1.049635	-0.383444
O138	O	1.589890	-0.549635	0.116556
H139	H	1.080338	-1.106816	-0.373871
H140	H	1.580338	-0.606816	0.126129
O141	O	0.723142	-0.417293	-0.383014
O142	O	1.223142	0.082707	0.116986
H143	H	0.756601	-0.450096	-0.348692
H144	H	1.256601	0.049904	0.151308
H145	H	0.728324	-0.234859	-0.216044
H146	H	1.228324	0.265141	0.283956
H147	H	0.594775	-0.240824	-0.221484
H148	H	1.094775	0.259176	0.278516
H149	H	0.399260	-0.205071	-0.188786
H150	H	0.899260	0.294929	0.311214
H151	H	0.265699	-0.211015	-0.194243
H152	H	0.765699	0.288985	0.305757
O153	O	0.921994	-0.830068	-0.215273
O154	O	1.421994	-0.330068	0.284727
H155	H	0.866693	-0.819034	-0.230084
H156	H	1.366693	-0.319034	0.269916
H157	H	0.928081	-0.907130	-0.221372
H158	H	1.428081	-0.407130	0.278628
H159	H	0.895223	-0.708756	-0.188508
H160	H	1.395223	-0.208756	0.311492
H161	H	0.507493	-0.247052	-0.227205
H162	H	1.007493	0.252948	0.272795
H163	H	1.092832	-0.205052	-0.882775
H164	H	1.592832	0.294948	-0.382775
O165	O	0.873892	-0.423903	-0.693921
O166	O	1.373892	0.076097	-0.193921
H167	H	0.879245	-0.418563	-0.751089
H168	H	1.379245	0.081437	-0.251089
O169	O	0.903755	-0.394031	-1.025435
O170	O	1.403755	0.105969	-0.525435
H171	H	0.932332	-0.429859	-1.056098
H172	H	1.432332	0.070141	-0.556098
O173	O	1.068606	-0.565716	-0.362221
O174	O	1.568606	-0.065716	0.137779
H175	H	1.097005	-0.603499	-0.390668
H176	H	1.597005	-0.103499	0.109332
O177	O	1.062421	-0.718190	-0.356000
O178	O	1.562421	-0.218190	0.144000
H179	H	1.093894	-0.680316	-0.387529
H180	H	1.593894	-0.180316	0.112471
H181	H	1.084299	-0.906882	-0.377863
H182	H	1.584299	-0.406882	0.122137
H183	H	0.922693	-1.040204	-0.215933
H184	H	1.422693	-0.540204	0.284067
O185	O	0.889636	-0.565988	-0.182933
O186	O	1.389636	-0.065988	0.317067
H187	H	0.858174	-0.603860	-0.151391
H188	H	1.358174	-0.103860	0.348609
O189	O	1.057541	-0.785586	-0.351088
O190	O	1.557541	-0.285586	0.148912
H191	H	1.025737	-0.755157	-0.389439
H192	H	1.525737	-0.255157	0.110561
H193	H	0.922513	-0.375305	-0.882685
H194	H	1.422513	0.124695	-0.382685
H195	H	0.892639	-0.405165	-0.551161
H196	H	1.392639	0.094835	-0.051161
H197	H	1.062967	-0.234916	-0.551264
H198	H	1.562967	0.265084	-0.051264
O199	O	1.069034	-0.228853	-0.694032
O200	O	1.569034	0.271147	-0.194032
H201	H	1.103360	-0.194559	-0.656223
H202	H	1.603360	0.305441	-0.156223
H203	H	1.086924	-0.210952	-1.015848
H204	H	1.586924	0.289048	-0.515848
O205	O	0.915866	-0.381921	-0.805596
O206	O	1.415866	0.118079	-0.305596
H207	H	0.926291	-0.435890	-0.788757
H208	H	1.426291	0.064110	-0.288757
O209	O	0.394074	-0.387494	-0.355755
O210	O	0.894074	0.112506	0.144245
H211	H	0.353446	-0.421842	-0.387208
H212	H	0.853446	0.078158	0.112792
O213	O	0.570118	-0.424265	-0.389092
O214	O	1.070118	0.075735	0.110908
H215	H	0.605418	-0.455296	-0.417373
H216	H	1.105418	0.044704	0.082627
O217	O	1.063698	-0.234199	-0.761408
O218	O	1.563698	0.265801	-0.261408
H219	H	1.035118	-0.198382	-0.730736
H220	H	1.535118	0.301618	-0.230736
