data_functionalizedCrystal
_audit_creation_method	'MofGen! by Chris Wilmer'
_symmetry_space_group_name_H-M	'P1'
_symmetry_Int_Tables_number	1
_symmetry_cell_setting	triclinic
loop_
_symmetry_equiv_pos_as_xyz
  x,y,z
_cell_length_a	10.967874
_cell_length_b	15.944493
_cell_length_c	9.482900
_cell_angle_alpha	99.338736
_cell_angle_beta	68.707142
_cell_angle_gamma	84.107032
loop_
_atom_site_label
_atom_site_type_symbol
_atom_site_fract_x
_atom_site_fract_y
_atom_site_fract_z
O1	O	1.745495	0.057611	-0.558168
O2	O	1.366932	0.079117	-0.463329
O3	O	1.566593	-0.054139	-0.513361
O4	O	1.545835	0.190867	-0.508136
O5	O	1.526037	-0.026966	-0.261406
O6	O	1.326377	0.106289	-0.211374
O7	O	1.704939	0.084784	-0.306213
Cu8	Cu	1.511955	0.098018	-0.235788
Cu9	Cu	1.559917	0.065883	-0.533754
O10	O	1.505279	0.218039	-0.256181
C11	C	1.298212	0.093191	-0.325216
C12	C	1.153870	0.094636	-0.289056
C13	C	1.110526	0.081204	-0.403455
C14	C	0.961341	0.082697	-0.366084
C15	C	1.545468	-0.071830	-0.387177
C16	C	1.542928	-0.165026	-0.386560
C17	C	1.660446	-0.403312	-0.415973
C18	C	1.617066	-0.465913	-0.524322
C19	C	1.538212	-0.335643	-0.385360
C20	C	1.577053	-0.439099	-0.275907
C21	C	1.533666	-0.500452	-0.384198
C22	C	1.494882	-0.397028	-0.493820
C23	C	1.454869	-0.370199	-0.245298
C24	C	1.411404	-0.432768	-0.353655
C25	C	1.540835	-0.240701	-0.386032
C26	C	1.531035	-0.595392	-0.383534
C27	C	1.773660	0.070709	-0.444329
C28	C	1.918004	0.069263	-0.480500
C29	C	1.526404	0.235730	-0.382368
C30	C	1.528946	0.328925	-0.382996
N31	N	1.478231	0.120619	-0.026217
N32	N	1.593651	0.043275	-0.743328
C33	C	1.549960	0.072545	0.028008
C34	C	1.521911	0.091356	0.202454
H35	H	1.080530	0.107246	-0.163448
O36	O	0.873884	0.097888	-0.216191
C37	C	0.878754	0.179584	-0.137149
H38	H	0.918748	0.221589	-0.224226
H39	H	0.946909	0.171535	-0.071923
C40	C	0.688857	0.171365	0.085660
C41	C	0.737969	0.222959	-0.021288
H42	H	0.602017	0.198120	0.157134
H43	H	0.685579	0.116324	0.032411
H44	H	0.745666	0.164662	0.139999
H45	H	0.681170	0.229652	-0.075638
H46	H	0.741234	0.278002	0.031954
O47	O	1.423697	0.156988	0.301103
C48	C	1.301078	0.142157	0.294731
H49	H	1.307166	0.070257	0.251257
H50	H	1.277771	0.179713	0.212347
C51	C	1.182921	0.260658	0.511182
C52	C	1.190394	0.172348	0.457798
H53	H	1.114644	0.279285	0.611767
H54	H	1.265531	0.270652	0.515472
H55	H	1.163503	0.291943	0.442514
H56	H	1.209828	0.141064	0.526455
H57	H	1.107784	0.162349	0.453523
O58	O	1.786010	-0.387308	-0.447308
C59	C	1.787312	-0.326874	-0.321814
H60	H	1.699100	-0.328276	-0.212127
H61	H	1.780202	-0.259484	-0.347288
C62	C	2.025840	-0.348276	-0.433208
C63	C	1.917504	-0.350004	-0.298486
H64	H	2.106151	-0.362540	-0.418821
H65	H	2.024964	-0.388989	-0.517759
H66	H	2.019897	-0.292116	-0.454422
H67	H	1.923439	-0.406165	-0.277285
H68	H	1.918384	-0.309300	-0.213930
H69	H	1.396050	0.175699	0.056506
O70	O	1.699005	-0.515261	-0.664982
C71	C	1.830134	-0.500659	-0.697434
H72	H	1.841711	-0.475211	-0.584320
H73	H	1.852002	-0.451162	-0.773572
C74	C	1.913974	-0.617199	-0.921757
C75	C	1.928196	-0.585951	-0.782828
H76	H	1.974466	-0.669810	-0.974438
H77	H	1.825630	-0.627036	-0.899898
H78	H	1.932196	-0.575944	-0.985187
H79	H	1.909959	-0.627201	-0.719393
H80	H	2.016540	-0.576124	-0.804678
O81	O	1.618698	-0.461501	-0.166250
C82	C	1.731537	-0.527425	-0.237314
H83	H	1.782602	-0.525491	-0.364774
H84	H	1.699751	-0.592818	-0.227580
C85	C	1.766032	-0.516091	0.000637
C86	C	1.828758	-0.513710	-0.155909
H87	H	1.826001	-0.507634	0.050854
H88	H	1.690008	-0.471678	0.048517
H89	H	1.739547	-0.570586	0.008727
H90	H	1.855228	-0.459212	-0.163997
H91	H	1.904790	-0.558113	-0.203789
H92	H	1.183864	0.068604	-0.529062
O93	O	1.453634	-0.374724	-0.603829
C94	C	1.456602	-0.286468	-0.603148
H95	H	1.529477	-0.264366	-0.550738
H96	H	1.353093	-0.247176	-0.531144
C97	C	1.411717	-0.300143	-0.834837
C98	C	1.501233	-0.272998	-0.770479
H99	H	1.439242	-0.291831	-0.938053
H100	H	1.409712	-0.359602	-0.835294
H101	H	1.325467	-0.267396	-0.774818
H102	H	1.587477	-0.305752	-0.830486
H103	H	1.503253	-0.213544	-0.770036
O104	O	1.005396	0.054370	-0.630380
C105	C	0.971038	0.118690	-0.702017
H106	H	0.910438	0.178763	-0.609764
H107	H	0.909544	0.093718	-0.768908
C108	C	1.172869	0.067753	-0.927836
C109	C	1.098448	0.141538	-0.814530
H110	H	1.251460	0.081845	-0.997245
H111	H	1.196015	0.024417	-0.879577
H112	H	1.121609	0.046950	-0.983562
H113	H	1.149702	0.162333	-0.758794
H114	H	1.075314	0.184879	-0.862782
H115	H	1.306042	-0.445973	-0.327325
H116	H	1.675828	-0.011815	0.173956
H117	H	1.386385	-0.328801	-0.127348
O118	O	1.647878	0.006809	-0.070829
C119	C	1.592741	-0.053259	-0.145069
H120	H	1.494844	-0.020040	-0.143140
H121	H	1.573965	-0.108598	-0.081851
C122	C	1.810359	-0.129791	-0.316540
C123	C	1.690125	-0.088989	-0.314182
H124	H	1.870430	-0.151835	-0.420854
H125	H	1.847506	-0.089325	-0.266520
H126	H	1.794694	-0.175902	-0.263850
H127	H	1.705788	-0.042873	-0.366854
H128	H	1.652982	-0.129449	-0.364215
