data_functionalizedCrystal
_audit_creation_method	'MofGen! by Chris Wilmer'
_symmetry_space_group_name_H-M	'P1'
_symmetry_Int_Tables_number	1
_symmetry_cell_setting	triclinic
loop_
_symmetry_equiv_pos_as_xyz
  x,y,z
_cell_length_a	14.044202
_cell_length_b	12.503572
_cell_length_c	17.699083
_cell_angle_alpha	86.484775
_cell_angle_beta	91.762142
_cell_angle_gamma	86.162225
loop_
_atom_site_label
_atom_site_type_symbol
_atom_site_fract_x
_atom_site_fract_y
_atom_site_fract_z
O1	O	-1.262759	0.089270	0.178468
O2	O	-0.986806	0.089284	0.171877
O3	O	-1.132578	0.089267	0.065522
O4	O	-1.116987	0.089287	0.284823
O5	O	-1.121615	-0.089374	0.073535
O6	O	-0.975843	-0.089357	0.179890
O7	O	-1.251796	-0.089371	0.186481
Cu8	Cu	-1.112818	-0.105675	0.183917
Cu9	Cu	-1.125783	0.105588	0.174441
O10	O	-1.106024	-0.089354	0.292836
C11	C	-1.126538	-0.000053	0.041293
C12	C	-1.124862	-0.000054	-0.042841
C13	C	-0.946017	-0.000035	0.173001
C14	C	-0.840811	-0.000030	0.164402
N15	N	-1.103706	-0.254266	0.190582
C16	C	-0.590420	-0.000036	0.209661
C17	C	-0.648189	-0.000040	0.148694
C18	C	-0.755374	-0.000034	0.157436
C19	C	-0.483225	-0.000041	0.200920
C20	C	-0.292586	-0.000049	0.185356
C21	C	-0.397793	-0.000046	0.193950
C22	C	-1.090302	-0.473380	0.200394
C23	C	-1.148304	-0.526714	0.157962
C24	C	-1.140846	-0.648636	0.163421
C25	C	-1.097759	-0.351447	0.194935
N26	N	-1.134903	0.254179	0.167770
C27	C	-1.210427	-0.000060	-0.085557
C28	C	-1.208847	-0.000050	-0.164610
C29	C	-1.121700	-0.000042	-0.200945
C30	C	-1.036128	-0.000033	-0.158223
C31	C	-1.037710	-0.000035	-0.079172
C32	C	-1.029749	-0.000024	-0.477027
C33	C	-1.028174	-0.000025	-0.556083
C34	C	-1.200886	-0.000039	-0.562464
C35	C	-1.202468	-0.000041	-0.483413
C36	C	-1.116897	-0.000026	-0.440699
C37	C	-1.118611	-0.000035	-0.354981
C38	C	-1.119984	-0.000042	-0.286661
C39	C	-1.112064	-0.000031	0.317065
C40	C	-1.113741	-0.000024	0.401199
H41	H	-0.617153	0.000031	0.089930
H42	H	-0.957204	-0.000021	-0.585665
H43	H	-0.621459	-0.000027	0.268417
Br44	Br	-1.240805	-0.450207	0.090927
H45	H	-1.035048	-0.519281	0.240818
Br46	Br	-1.328704	-0.000086	-0.036252
Br47	Br	-1.324977	-0.000058	-0.222579
H48	H	-1.273431	-0.000053	-0.453833
H49	H	-1.270563	-0.000046	-0.597252
Br50	Br	-0.913617	0.000003	-0.419067
Br51	Br	-0.917857	-0.000005	-0.207535
Br52	Br	-0.921581	-0.000019	-0.021200
