data_functionalizedCrystal
_audit_creation_method	'MofGen! by Chris Wilmer'
_symmetry_space_group_name_H-M	'P1'
_symmetry_Int_Tables_number	1
_symmetry_cell_setting	triclinic
loop_
_symmetry_equiv_pos_as_xyz
  x,y,z
_cell_length_a	16.109318
_cell_length_b	16.109304
_cell_length_c	9.730223
_cell_angle_alpha	89.998411
_cell_angle_beta	90.000291
_cell_angle_gamma	83.465600
loop_
_atom_site_label
_atom_site_type_symbol
_atom_site_fract_x
_atom_site_fract_y
_atom_site_fract_z
O1	O	1.103123	0.106935	-0.114167
O2	O	0.861063	0.120220	-0.114194
O3	O	0.988741	-0.007453	-0.114180
O4	O	0.975444	0.234608	-0.114180
O5	O	0.988733	-0.007456	0.114400
O6	O	0.861055	0.120216	0.114386
O7	O	1.103114	0.106932	0.114413
Zn8	Zn	0.982083	0.113573	0.150692
Zn9	Zn	0.982094	0.113578	-0.150472
O10	O	0.975436	0.234604	0.114400
C11	C	0.830084	0.119677	0.000093
C12	C	0.737789	0.118056	0.000082
C13	C	0.438720	0.112823	-0.124492
C14	C	0.525441	0.114341	-0.124501
C15	C	0.525451	0.114326	0.124710
C16	C	0.438732	0.112802	0.124716
C17	C	0.395368	0.112055	0.000111
C18	C	0.568809	0.115096	0.000096
C19	C	0.662836	0.116741	0.000088
C20	C	0.301336	0.110408	0.000119
C21	C	0.988198	-0.038430	0.000107
C22	C	0.986582	-0.130725	0.000097
C23	C	0.982853	-0.343061	-0.124497
C24	C	0.981327	-0.429781	-0.124496
C25	C	0.981322	-0.429782	0.124714
C26	C	0.982842	-0.343062	0.124712
C27	C	0.983612	-0.299704	0.000102
C28	C	0.980565	-0.473144	0.000106
C29	C	0.978911	-0.567170	0.000108
C30	C	0.985265	-0.205672	0.000099
C31	C	1.134093	0.107474	0.000124
C32	C	1.226388	0.109095	0.000125
C33	C	0.975979	0.265581	0.000110
C34	C	0.977595	0.357876	0.000110
N35	N	0.982082	0.113570	0.356228
N36	N	0.982102	0.113575	-0.356009
C37	C	1.038637	0.057060	0.428160
C38	C	1.038645	0.057060	0.572043
C39	C	0.925541	0.170087	0.572049
C40	C	0.925529	0.170083	0.428169
H41	H	0.403435	0.112176	0.226190
H42	H	0.983477	-0.307761	-0.225963
O43	O	0.391957	0.111993	-0.258889
H44	H	0.401181	0.168911	-0.318655
O45	O	0.572202	0.115174	-0.258894
H46	H	0.527475	0.114405	-0.345532
H47	H	0.980697	-0.465094	0.226167
O48	O	1.099618	-0.003912	0.350581
H49	H	1.064617	-0.044330	0.285051
H50	H	0.980707	-0.465077	-0.225957
H51	H	0.983455	-0.307760	0.226181
H52	H	1.084696	0.011044	0.630606
H53	H	0.560768	0.114935	0.226158
O54	O	0.864555	0.231049	0.649641
H55	H	0.874070	0.221567	0.761775
O56	O	0.864531	0.231038	0.350569
H57	H	0.825217	0.270344	0.424763
