data_functionalizedCrystal
_audit_creation_method	'MofGen! by Chris Wilmer'
_symmetry_space_group_name_H-M	'P1'
_symmetry_Int_Tables_number	1
_symmetry_cell_setting	triclinic
loop_
_symmetry_equiv_pos_as_xyz
  x,y,z
_cell_length_a	10.654550
_cell_length_b	10.868271
_cell_length_c	10.654550
_cell_angle_alpha	90.003964
_cell_angle_beta	84.484903
_cell_angle_gamma	90.007832
loop_
_atom_site_label
_atom_site_type_symbol
_atom_site_fract_x
_atom_site_fract_y
_atom_site_fract_z
O1	O	1.667841	0.102420	0.176399
O2	O	1.302362	0.102400	0.193206
O3	O	1.493505	0.102406	0.002063
O4	O	1.476698	0.102414	0.367542
O5	O	1.493489	-0.102239	0.002056
O6	O	1.302346	-0.102245	0.193198
O7	O	1.667825	-0.102225	0.176392
Zn8	Zn	1.485083	-0.134726	0.184794
Zn9	Zn	1.485104	0.134902	0.184804
O10	O	1.476683	-0.102230	0.367534
C11	C	1.255556	0.000075	0.191968
C12	C	1.116113	0.000068	0.188276
N13	N	1.485078	-0.318740	0.184786
C14	C	1.036627	0.000088	0.300817
C15	C	0.905607	0.000109	0.297341
C16	C	0.933570	0.000095	0.068771
C17	C	1.064588	0.000065	0.072249
C18	C	1.020482	0.000102	0.432780
C19	C	0.889461	0.000123	0.429304
C20	C	1.485098	-0.569746	0.184801
C21	C	1.485083	-0.430069	0.184796
C22	C	1.714631	0.000103	0.177630
C23	C	1.854074	0.000119	0.181321
C24	C	1.492263	0.000085	-0.044739
C25	C	1.488571	0.000089	-0.184182
N26	N	1.485119	0.318916	0.184801
C27	C	1.601112	0.000092	-0.263668
C28	C	1.597636	0.000100	-0.394688
C29	C	1.369066	0.000098	-0.366725
C30	C	1.372544	0.000099	-0.235707
C31	C	1.733075	0.000087	-0.279813
C32	C	1.729599	0.000096	-0.410834
C33	C	1.477925	0.000093	0.414336
C34	C	1.481616	0.000097	0.553779
H35	H	0.891602	0.000111	-0.025694
C36	C	1.059352	-0.114201	0.501569
C37	C	0.952145	-0.184090	0.540171
C38	C	0.987906	-0.289399	0.603524
H39	H	1.100106	-0.090582	0.573302
H40	H	1.115570	-0.161863	0.446609
H41	H	0.895949	-0.136437	0.595128
H42	H	0.911378	-0.207741	0.468463
H43	H	1.044123	-0.337061	0.548564
H44	H	1.028660	-0.265768	0.675251
H45	H	0.915173	-0.336837	0.629713
H46	H	1.056144	0.088456	0.474803
H47	H	0.843783	-0.088227	0.469181
H48	H	1.274601	0.000107	-0.408693
H49	H	0.847735	0.085774	0.479029
H50	H	1.784697	0.085728	-0.250452
H51	H	1.129302	0.000030	-0.019393
C52	C	1.250217	0.000044	-0.149616
C53	C	1.147868	0.000018	-0.222787
C54	C	1.035157	-0.000048	-0.143524
H55	H	1.246657	0.071389	-0.097894
H56	H	1.246740	-0.071348	-0.097947
H57	H	1.151344	0.071404	-0.274434
H58	H	1.151386	-0.071321	-0.274507
H59	H	1.031679	-0.071441	-0.091855
H60	H	1.031610	0.071298	-0.091806
H61	H	0.965700	-0.000077	-0.193158
C62	C	1.788742	-0.117782	-0.232029
C63	C	1.699131	-0.175803	-0.147188
C64	C	1.750307	-0.284388	-0.103079
H65	H	1.861376	-0.098761	-0.190580
H66	H	1.811591	-0.171117	-0.301114
H67	H	1.676301	-0.122480	-0.078114
H68	H	1.626493	-0.194854	-0.188608
H69	H	1.773155	-0.337723	-0.172164
H70	H	1.822941	-0.265356	-0.061636
H71	H	1.689511	-0.323775	-0.045519
H72	H	1.769487	0.088458	-0.456474
H73	H	1.779314	-0.085543	-0.452597
