data_functionalizedCrystal
_audit_creation_method	'MofGen! by Chris Wilmer'
_symmetry_space_group_name_H-M	'P1'
_symmetry_Int_Tables_number	1
_symmetry_cell_setting	triclinic
loop_
_symmetry_equiv_pos_as_xyz
  x,y,z
_cell_length_a	12.759401
_cell_length_b	16.120484
_cell_length_c	12.759386
_cell_angle_alpha	92.830534
_cell_angle_beta	89.960085
_cell_angle_gamma	92.925560
loop_
_atom_site_label
_atom_site_type_symbol
_atom_site_fract_x
_atom_site_fract_y
_atom_site_fract_z
Zn1	Zn	1.585220	-0.331568	-0.615128
Zn2	Zn	1.576104	-0.471083	-0.448346
Zn3	Zn	1.409448	-0.331693	-0.439475
Zn4	Zn	1.400576	-0.470937	-0.623978
O5	O	1.492837	-0.401320	-0.531732
O6	O	1.731031	-0.350083	-0.593013
O7	O	1.553895	-0.452706	-0.300155
O8	O	1.440293	-0.215014	-0.455360
O9	O	1.724334	-0.452584	-0.470479
O10	O	1.569432	-0.214923	-0.584411
O11	O	1.431454	-0.350297	-0.293638
O12	O	1.261251	-0.350155	-0.463942
O13	O	1.425171	-0.452336	-0.769818
O14	O	1.254732	-0.452458	-0.599495
O15	O	1.560828	-0.349942	-0.763316
O16	O	1.545292	-0.587725	-0.479060
O17	O	1.416331	-0.587618	-0.608096
C18	C	1.219871	-0.401305	-0.531717
C19	C	1.103093	-0.401318	-0.531736
C20	C	1.044859	-0.454672	-0.602213
C21	C	0.935134	-0.454683	-0.602226
C22	C	0.941888	-0.347983	-0.461274
C23	C	1.051611	-0.347969	-0.461268
C24	C	1.040958	-0.516278	-0.683588
C25	C	0.931234	-0.516288	-0.683600
C26	C	1.478888	-0.617921	-0.545524
C27	C	1.473017	-0.710583	-0.551460
C28	C	1.462303	-0.880239	-0.562318
C29	C	1.523559	-0.921560	-0.501164
C30	C	1.517598	-1.015963	-0.507205
C31	C	1.468263	-0.785828	-0.556278
C32	C	1.766869	-0.401336	-0.531748
C33	C	1.883645	-0.401343	-0.531755
C34	C	1.493027	-0.401109	-0.805752
C35	C	1.493107	-0.401019	-0.922523
C36	C	1.506869	-0.183874	-0.517909
C37	C	1.512849	-0.091211	-0.512019
C38	C	1.492713	-0.401470	-0.258774
C39	C	1.492850	-0.401325	-0.141988
C40	C	1.422877	-0.454790	0.019504
C41	C	1.422751	-0.454946	-0.090229
C42	C	1.563088	-0.347552	-0.084008
C43	C	1.563219	-0.347401	0.025723
C44	C	1.341851	-0.516790	0.015912
C45	C	1.341724	-0.516946	-0.093822
H46	H	1.071903	-0.499021	-0.763894
H47	H	0.897291	-0.580849	-0.665785
N48	N	1.111111	-0.293462	-0.389298
N49	N	1.175776	-0.240351	-0.422999
H50	H	1.217799	-0.201852	-0.372168
H51	H	0.898745	-0.493206	-0.759480
N52	N	1.078693	-0.593187	-0.651743
N53	N	1.056457	-0.618191	-0.562850
H54	H	1.083108	-0.672508	-0.540355
H55	H	1.580478	-0.886038	-0.444270
H56	H	1.367440	-0.578162	-0.131587
H57	H	1.405387	-0.915759	-0.619205
N58	N	1.634981	-0.292484	0.084924
N59	N	1.697575	-0.244621	0.038699
H60	H	1.748263	-0.205835	0.080509
H61	H	1.620171	-0.303899	-0.126159
H62	H	1.360122	-0.581188	0.041773
N63	N	1.246512	-0.488267	0.060490
N64	N	1.175006	-0.467034	0.002111
H65	H	1.107673	-0.446887	0.033594
H66	H	1.261250	-0.500154	-0.122445
H67	H	0.899958	-0.304547	-0.403903
