data_functionalizedCrystal
_audit_creation_method	'MofGen! by Chris Wilmer'
_symmetry_space_group_name_H-M	'P1'
_symmetry_Int_Tables_number	1
_symmetry_cell_setting	triclinic
loop_
_symmetry_equiv_pos_as_xyz
  x,y,z
_cell_length_a	19.805407
_cell_length_b	21.295417
_cell_length_c	19.805399
_cell_angle_alpha	89.967749
_cell_angle_beta	89.983114
_cell_angle_gamma	90.030507
loop_
_atom_site_label
_atom_site_type_symbol
_atom_site_fract_x
_atom_site_fract_y
_atom_site_fract_z
Zn1	Zn	1.034698	-0.250615	-0.382704
Zn2	Zn	1.284698	-0.000615	-0.132704
Zn3	Zn	1.534698	0.249385	0.117296
Zn4	Zn	1.784698	0.499385	0.367296
Zn5	Zn	1.034611	-0.355886	-0.269510
Zn6	Zn	1.284611	-0.105886	-0.019510
Zn7	Zn	1.534611	0.144114	0.230490
Zn8	Zn	1.784611	0.394114	0.480490
Zn9	Zn	0.921518	-0.250635	-0.269529
Zn10	Zn	1.171518	-0.000635	-0.019529
Zn11	Zn	1.421518	0.249365	0.230471
Zn12	Zn	1.671518	0.499365	0.480471
Zn13	Zn	0.921469	-0.355850	-0.382656
Zn14	Zn	1.171469	-0.105850	-0.132656
Zn15	Zn	1.421469	0.144150	0.117344
Zn16	Zn	1.671469	0.394150	0.367344
O17	O	0.978074	-0.303247	-0.326100
O18	O	1.228074	-0.053247	-0.076100
O19	O	1.478074	0.196753	0.173900
O20	O	1.728074	0.446753	0.423900
O21	O	1.129403	-0.264586	-0.367701
O22	O	1.379403	-0.014586	-0.117701
O23	O	1.629403	0.235414	0.132299
O24	O	1.879403	0.485414	0.382299
O25	O	1.019593	-0.341948	-0.174796
O26	O	1.269593	-0.091948	0.075204
O27	O	1.519593	0.158052	0.325204
O28	O	1.769593	0.408052	0.575204
O29	O	0.936590	-0.162543	-0.284570
O30	O	1.186590	0.087457	-0.034570
O31	O	1.436590	0.337457	0.215430
O32	O	1.686590	0.587457	0.465430
O33	O	1.129339	-0.341929	-0.284537
O34	O	1.379339	-0.091929	-0.034537
O35	O	1.629339	0.158071	0.215463
O36	O	1.879339	0.408071	0.465463
O37	O	1.019743	-0.162528	-0.367719
O38	O	1.269743	0.087472	-0.117719
O39	O	1.519743	0.337472	0.132281
O40	O	1.769743	0.587472	0.382281
O41	O	0.936504	-0.264620	-0.174810
O42	O	1.186504	-0.014620	0.075190
O43	O	1.436504	0.235380	0.325190
O44	O	1.686504	0.485380	0.575190
O45	O	0.826795	-0.264585	-0.284523
O46	O	1.076795	-0.014585	-0.034523
O47	O	1.326795	0.235415	0.215477
O48	O	1.576795	0.485415	0.465477
O49	O	0.936505	-0.341867	-0.477379
O50	O	1.186505	-0.091867	-0.227379
O51	O	1.436505	0.158133	0.022621
O52	O	1.686505	0.408133	0.272621
O53	O	0.826759	-0.341887	-0.367638
O54	O	1.076759	-0.091887	-0.117638
O55	O	1.326759	0.158113	0.132362
O56	O	1.576759	0.408113	0.382362
O57	O	1.019694	-0.264551	-0.477415
O58	O	1.269694	-0.014551	-0.227415
O59	O	1.519694	0.235449	0.022585
O60	O	1.769694	0.485449	0.272585
O61	O	1.019544	-0.443971	-0.284491
O62	O	1.269544	-0.193971	-0.034491
O63	O	1.519544	0.056029	0.215509
O64	O	1.769544	0.306029	0.465509
O65	O	0.936419	-0.443945	-0.367619
O66	O	1.186419	-0.193945	-0.117619
O67	O	1.436419	0.056055	0.132381
O68	O	1.686419	0.306055	0.382381
C69	C	0.802218	-0.303235	-0.326078
C70	C	1.052218	-0.053235	-0.076078
C71	C	1.302218	0.196765	0.173922
C72	C	1.552218	0.446765	0.423922
C73	C	0.726986	-0.303245	-0.326085
C74	C	0.976986	-0.053245	-0.076085
C75	C	1.226986	0.196755	0.173915
C76	C	1.476986	0.446755	0.423915
C77	C	0.691640	-0.343556	-0.369292
C78	C	0.941640	-0.093556	-0.119292
C79	C	1.191640	0.156444	0.130708
C80	C	1.441640	0.406444	0.380708
C81	C	0.620952	-0.343557	-0.369302
C82	C	0.870952	-0.093557	-0.119302
C83	C	1.120952	0.156443	0.130698
C84	C	1.370952	0.406443	0.380698
C85	C	0.585610	-0.303250	-0.326100
C86	C	0.835610	-0.053250	-0.076100
C87	C	1.085610	0.196750	0.173900
C88	C	1.335610	0.446750	0.423900
C89	C	0.620961	-0.262934	-0.282890
C90	C	0.870961	-0.012934	-0.032890
C91	C	1.120961	0.237066	0.217110
C92	C	1.370961	0.487066	0.467110
C93	C	0.691648	-0.262930	-0.282885
C94	C	0.941648	-0.012930	-0.032885
C95	C	1.191648	0.237070	0.217115
C96	C	1.441648	0.487070	0.467115
C97	C	0.335888	-0.262948	-0.282913
C98	C	0.585888	-0.012948	-0.032913
C99	C	0.835888	0.237052	0.217087
C100	C	1.085888	0.487052	0.467087
C101	C	0.265195	-0.262956	-0.282920
C102	C	0.515195	-0.012956	-0.032920
C103	C	0.765195	0.237044	0.217080
C104	C	1.015195	0.487044	0.467080
C105	C	0.265192	-0.343575	-0.369330
C106	C	0.515192	-0.093575	-0.119330
C107	C	0.765192	0.156425	0.130670
C108	C	1.015192	0.406425	0.380670
C109	C	0.335879	-0.343571	-0.369324
C110	C	0.585879	-0.093571	-0.119324
C111	C	0.835879	0.156429	0.130676
C112	C	1.085879	0.406429	0.380676
C113	C	0.371223	-0.303253	-0.326117
C114	C	0.621223	-0.053253	-0.076117
C115	C	0.871223	0.196747	0.173883
C116	C	1.121223	0.446747	0.423883
C117	C	0.447871	-0.303252	-0.326109
C118	C	0.697871	-0.053252	-0.076109
C119	C	0.947871	0.196748	0.173891
C120	C	1.197871	0.446748	0.423891
C121	C	0.508963	-0.303254	-0.326105
C122	C	0.758963	-0.053254	-0.076105
C123	C	1.008963	0.196746	0.173895
C124	C	1.258963	0.446746	0.423895
C125	C	0.977985	-0.466798	-0.326062
C126	C	1.227985	-0.216798	-0.076062
C127	C	1.477985	0.033202	0.173938
C128	C	1.727985	0.283202	0.423938
C129	C	0.978009	-0.536766	-0.326069
C130	C	1.228009	-0.286766	-0.076069
C131	C	1.478009	-0.036766	0.173931
C132	C	1.728009	0.213234	0.423931
C133	C	1.021331	-0.569626	-0.282828
C134	C	1.271331	-0.319626	-0.032828
C135	C	1.521331	-0.069626	0.217172
C136	C	1.771331	0.180374	0.467172
C137	C	1.021363	-0.635368	-0.282844
C138	C	1.271363	-0.385368	-0.032844
C139	C	1.521363	-0.135368	0.217156
C140	C	1.771363	0.114632	0.467156
C141	C	0.978061	-0.668249	-0.326092
C142	C	1.228061	-0.418249	-0.076092
C143	C	1.478061	-0.168249	0.173908
C144	C	1.728061	0.081751	0.423908
C145	C	0.934736	-0.635381	-0.369341
C146	C	1.184736	-0.385381	-0.119341
C147	C	1.434736	-0.135381	0.130659
C148	C	1.684736	0.114619	0.380659
C149	C	0.934710	-0.569640	-0.369330
C150	C	1.184710	-0.319640	-0.119330
C151	C	1.434710	-0.069640	0.130670
C152	C	1.684710	0.180360	0.380670
N153	N	0.918850	-0.771515	-0.331245
N154	N	1.168850	-0.521515	-0.081245
N155	N	1.418850	-0.271515	0.168755
N156	N	1.668850	-0.021515	0.418755
N157	N	0.918876	-0.833966	-0.331252
N158	N	1.168876	-0.583966	-0.081252
N159	N	1.418876	-0.333966	0.168748
N160	N	1.668876	-0.083966	0.418748
C161	C	0.978136	-0.866324	-0.326131
C162	C	1.228136	-0.616324	-0.076131
C163	C	1.478136	-0.366324	0.173869
C164	C	1.728136	-0.116324	0.423869
N165	N	1.037371	-0.833870	-0.320989
N166	N	1.287371	-0.583870	-0.070989
N167	N	1.537371	-0.333870	0.179011
N168	N	1.787371	-0.083870	0.429011
N169	N	1.037343	-0.771413	-0.320979
N170	N	1.287343	-0.521413	-0.070979
N171	N	1.537343	-0.271413	0.179021
N172	N	1.787343	-0.021413	0.429021
C173	C	0.978084	-0.739534	-0.326110
C174	C	1.228084	-0.489534	-0.076110
C175	C	1.478084	-0.239534	0.173890
C176	C	1.728084	0.010466	0.423890
C177	C	1.021496	-0.970469	-0.282905
C178	C	1.271496	-0.720469	-0.032905
C179	C	1.521496	-0.470469	0.217095
C180	C	1.771496	-0.220469	0.467095
C181	C	1.021529	-1.036212	-0.282925
C182	C	1.271529	-0.786212	-0.032925
C183	C	1.521529	-0.536212	0.217075
C184	C	1.771529	-0.286212	0.467075
C185	C	0.934896	-1.036224	-0.369419
C186	C	1.184896	-0.786224	-0.119419
C187	C	1.434896	-0.536224	0.130581
C188	C	1.684896	-0.286224	0.380581
C189	C	0.934869	-0.970482	-0.369402
C190	C	1.184869	-0.720482	-0.119402
C191	C	1.434869	-0.470482	0.130598
C192	C	1.684869	-0.220482	0.380598
C193	C	0.978168	-0.937608	-0.326142
C194	C	1.228168	-0.687608	-0.076142
C195	C	1.478168	-0.437608	0.173858
C196	C	1.728168	-0.187608	0.423858
C197	C	1.154617	-0.303259	-0.326122
C198	C	1.404617	-0.053259	-0.076122
C199	C	1.654617	0.196741	0.173878
C200	C	1.904617	0.446741	0.423878
C201	C	1.229849	-0.303265	-0.326132
C202	C	1.479849	-0.053265	-0.076132
C203	C	1.729849	0.196735	0.173868
C204	C	1.979849	0.446735	0.423868
C205	C	0.978104	-0.303203	-0.502643
C206	C	1.228104	-0.053203	-0.252643
C207	C	1.478104	0.196797	-0.002643
C208	C	1.728104	0.446797	0.247357
C209	C	0.978116	-0.303184	-0.577875
C210	C	1.228116	-0.053184	-0.327875
C211	C	1.478116	0.196816	-0.077875
C212	C	1.728116	0.446816	0.172125
C213	C	0.978181	-0.139056	-0.326152
C214	C	1.228181	0.110944	-0.076152
C215	C	1.478181	0.360944	0.173848
C216	C	1.728181	0.610944	0.423848
C217	C	0.978227	-0.069088	-0.326175
C218	C	1.228227	0.180912	-0.076175
C219	C	1.478227	0.430912	0.173825
C220	C	1.728227	0.680912	0.423825
C221	C	0.934865	-0.262916	-0.613226
C222	C	1.184865	-0.012916	-0.363226
C223	C	1.434865	0.237084	-0.113226
C224	C	1.684865	0.487084	0.136774
C225	C	0.934874	-0.262904	-0.683914
C226	C	1.184874	-0.012904	-0.433914
C227	C	1.434874	0.237096	-0.183914
C228	C	1.684874	0.487096	0.066086
C229	C	0.978139	-0.303157	-0.719250
C230	C	1.228139	-0.053157	-0.469250
C231	C	1.478139	0.196843	-0.219250
C232	C	1.728139	0.446843	0.030750
C233	C	1.021393	-0.343430	-0.683894
C234	C	1.271393	-0.093430	-0.433894
C235	C	1.521393	0.156570	-0.183894
C236	C	1.771393	0.406570	0.066106
C237	C	1.021379	-0.343445	-0.613207
C238	C	1.271379	-0.093445	-0.363207
C239	C	1.521379	0.156555	-0.113207
C240	C	1.771379	0.406555	0.136793
C241	C	1.021446	-0.343371	-0.968968
C242	C	1.271446	-0.093371	-0.718968
C243	C	1.521446	0.156629	-0.468968
C244	C	1.771446	0.406629	-0.218968
C245	C	1.021458	-0.343352	-1.039660
C246	C	1.271458	-0.093352	-0.789660
C247	C	1.521458	0.156648	-0.539660
C248	C	1.771458	0.406648	-0.289660
C249	C	0.934941	-0.262830	-1.039675
C250	C	1.184941	-0.012830	-0.789675
C251	C	1.434941	0.237170	-0.539675
C252	C	1.684941	0.487170	-0.289675
C253	C	0.934928	-0.262845	-0.968988
C254	C	1.184928	-0.012845	-0.718988
C255	C	1.434928	0.237155	-0.468988
C256	C	1.684928	0.487155	-0.218988
C257	C	0.978178	-0.303120	-0.933638
C258	C	1.228178	-0.053120	-0.683638
C259	C	1.478178	0.196880	-0.433638
C260	C	1.728178	0.446880	-0.183638
C261	C	0.978167	-0.303133	-0.856989
C262	C	1.228167	-0.053133	-0.606989
C263	C	1.478167	0.196867	-0.356989
C264	C	1.728167	0.446867	-0.106989
C265	C	0.978154	-0.303141	-0.795897
C266	C	1.228154	-0.053141	-0.545897
C267	C	1.478154	0.196859	-0.295897
C268	C	1.728154	0.446859	-0.045897
C269	C	0.978083	-0.303245	-0.150244
C270	C	1.228083	-0.053245	0.099756
C271	C	1.478083	0.196755	0.349756
C272	C	1.728083	0.446755	0.599756
C273	C	0.978202	-0.303086	-0.075012
C274	C	1.228202	-0.053086	0.174988
C275	C	1.478202	0.196914	0.424988
C276	C	1.728202	0.446914	0.674988
H277	H	0.364650	-0.376396	-0.404501
H278	H	0.614650	-0.126396	-0.154501
H279	H	0.864650	0.123604	0.095499
H280	H	1.114650	0.373604	0.345499
H281	H	1.056643	-0.662128	-0.247632
H282	H	1.306643	-0.412128	0.002368
H283	H	1.556643	-0.162128	0.252368
H284	H	1.806643	0.087872	0.502368
Br285	Br	0.876136	-0.208286	-0.731888
Br286	Br	1.126136	0.041714	-0.481888
Br287	Br	1.376136	0.291714	-0.231888
Br288	Br	1.626136	0.541714	0.018112
H289	H	0.899480	-0.662157	-0.404556
H290	H	1.149480	-0.412157	-0.154556
H291	H	1.399480	-0.162157	0.095444
H292	H	1.649480	0.087843	0.345444
Br293	Br	1.080255	-0.925850	-0.224193
Br294	Br	1.330255	-0.675850	0.025807
Br295	Br	1.580255	-0.425850	0.275807
Br296	Br	1.830255	-0.175850	0.525807
H297	H	1.056811	-1.062965	-0.247714
H298	H	1.306811	-0.812965	0.002286
H299	H	1.556811	-0.562965	0.252286
H300	H	1.806811	-0.312965	0.502286
H301	H	1.056589	-0.542862	-0.247605
H302	H	1.306589	-0.292862	0.002395
H303	H	1.556589	-0.042862	0.252395
H304	H	1.806589	0.207138	0.502395
H305	H	0.236422	-0.230129	-0.247740
H306	H	0.486422	0.019871	0.002260
H307	H	0.736422	0.269871	0.252260
H308	H	0.986422	0.519871	0.502260
Br309	Br	0.876150	-0.208279	-0.565276
Br310	Br	1.126150	0.041721	-0.315276
Br311	Br	1.376150	0.291721	-0.065276
Br312	Br	1.626150	0.541721	0.184724
H313	H	0.899432	-0.542885	-0.404542
H314	H	1.149432	-0.292885	-0.154542
H315	H	1.399432	-0.042885	0.095458
H316	H	1.649432	0.207115	0.345458
Br317	Br	0.876135	-1.080840	-0.428122
Br318	Br	1.126135	-0.830840	-0.178122
Br319	Br	1.376135	-0.580840	0.071878
Br320	Br	1.626135	-0.330840	0.321878
H321	H	0.899590	-0.943726	-0.404610
H322	H	1.149590	-0.693726	-0.154610
H323	H	1.399590	-0.443726	0.095390
H324	H	1.649590	-0.193726	0.345390
Br325	Br	0.572985	-0.398266	-0.427945
Br326	Br	0.822985	-0.148266	-0.177945
Br327	Br	1.072985	0.101734	0.072055
Br328	Br	1.322985	0.351734	0.322055
H329	H	0.899699	-0.230064	-0.940220
H330	H	1.149699	0.019936	-0.690220
H331	H	1.399699	0.269936	-0.440220
H332	H	1.649699	0.519936	-0.190220
H333	H	1.056604	-0.376231	-0.584425
H334	H	1.306604	-0.126231	-0.334425
H335	H	1.556604	0.123769	-0.084425
H336	H	1.806604	0.373769	0.165575
Br337	Br	0.876241	-0.208171	-1.087653
Br338	Br	1.126241	0.041829	-0.837653
Br339	Br	1.376241	0.291829	-0.587653
Br340	Br	1.626241	0.541829	-0.337653
Br341	Br	1.080104	-0.398066	-0.731850
Br342	Br	1.330104	-0.148066	-0.481850
Br343	Br	1.580104	0.101934	-0.231850
Br344	Br	1.830104	0.351934	0.018150
H345	H	1.056691	-0.376133	-1.068429
H346	H	1.306691	-0.126133	-0.818429
H347	H	1.556691	0.123867	-0.568429
H348	H	1.806691	0.373867	-0.318429
H349	H	1.056656	-0.376172	-0.940194
H350	H	1.306656	-0.126172	-0.690194
H351	H	1.556656	0.123828	-0.440194
H352	H	1.806656	0.373828	-0.190194
H353	H	0.720411	-0.376381	-0.404470
H354	H	0.970411	-0.126381	-0.154470
H355	H	1.220411	0.123619	0.095530
H356	H	1.470411	0.373619	0.345530
Br357	Br	0.217221	-0.398294	-0.427967
Br358	Br	0.467221	-0.148294	-0.177967
Br359	Br	0.717221	0.101706	0.072033
Br360	Br	0.967221	0.351706	0.322033
H361	H	0.720425	-0.230101	-0.247704
H362	H	0.970425	0.019899	0.002296
H363	H	1.220425	0.269899	0.252296
H364	H	1.470425	0.519899	0.502296
Br365	Br	0.383846	-0.208227	-0.224279
Br366	Br	0.633846	0.041773	0.025721
Br367	Br	0.883846	0.291773	0.275721
Br368	Br	1.133846	0.541773	0.525721
Br369	Br	0.572998	-0.208224	-0.224265
Br370	Br	0.822998	0.041776	0.025735
Br371	Br	1.072998	0.291776	0.275735
Br372	Br	1.322998	0.541776	0.525735
