data_functionalizedCrystal
_audit_creation_method	'MofGen! by Chris Wilmer'
_symmetry_space_group_name_H-M	'P1'
_symmetry_Int_Tables_number	1
_symmetry_cell_setting	triclinic
loop_
_symmetry_equiv_pos_as_xyz
  x,y,z
_cell_length_a	12.837943
_cell_length_b	23.532407
_cell_length_c	11.892095
_cell_angle_alpha	93.859970
_cell_angle_beta	85.689438
_cell_angle_gamma	88.838809
loop_
_atom_site_label
_atom_site_type_symbol
_atom_site_fract_x
_atom_site_fract_y
_atom_site_fract_z
O1	O	1.380592	0.144688	-0.094007
O2	O	1.078862	0.137379	-0.094012
O3	O	1.238824	0.058625	-0.093989
O4	O	1.220630	0.223442	-0.094030
O5	O	1.225487	0.065180	0.094017
O6	O	1.065525	0.143934	0.093993
O7	O	1.367255	0.151243	0.093999
Zn8	Zn	1.214272	0.148629	0.123846
Zn9	Zn	1.231845	0.139993	-0.123859
O10	O	1.207293	0.229998	0.093975
C11	C	1.033599	0.138187	-0.000010
C12	C	0.918597	0.130823	-0.000011
C13	C	0.676728	0.219356	-0.000017
C14	C	0.568673	0.212439	-0.000017
C15	C	0.594431	0.110073	-0.000004
C16	C	0.702485	0.116990	-0.000003
C17	C	0.743630	0.171633	-0.000012
C18	C	0.851687	0.178549	-0.000020
C19	C	0.877442	0.076184	0.000002
C20	C	0.769387	0.069267	0.000002
C21	C	1.231692	0.040660	0.000017
C22	C	1.230298	-0.022637	0.000026
C23	C	1.316227	-0.416812	-0.000035
C24	C	1.314934	-0.476287	-0.000043
O25	O	1.394590	-0.508463	-0.000084
N26	N	1.219835	-0.504370	-0.000044
C27	C	1.126025	-0.472975	-0.000048
O28	O	1.045018	-0.502322	-0.000051
C29	C	1.127321	-0.413501	-0.000047
C30	C	1.222424	-0.385421	-0.000035
C31	C	1.411324	-0.388732	-0.000024
C32	C	1.412617	-0.329261	-0.000013
C33	C	1.318813	-0.297871	-0.000013
C34	C	1.223717	-0.325951	-0.000024
C35	C	1.033512	-0.382108	-0.000059
C36	C	1.034816	-0.322631	-0.000060
C37	C	1.129920	-0.294551	-0.000047
C38	C	1.131207	-0.235089	-0.000014
N39	N	1.226306	-0.207006	-0.000013
C40	C	1.320109	-0.238397	-0.000013
C41	C	1.123312	-0.597873	-0.000051
C42	C	1.122015	-0.657345	-0.000043
C43	C	1.310925	-0.660653	-0.000041
C44	C	1.312220	-0.601180	-0.000040
C45	C	1.218411	-0.569790	-0.000050
C46	C	1.322817	-0.113504	0.000011
C47	C	1.324101	-0.054028	0.000026
C48	C	1.135193	-0.050725	0.000018
C49	C	1.133908	-0.110196	0.000008
C50	C	1.227729	-0.141584	0.000001
O51	O	1.051594	-0.202877	0.000022
O52	O	1.401104	-0.209042	-0.000025
C53	C	1.412519	0.150435	-0.000006
C54	C	1.527521	0.157799	-0.000012
C55	C	1.214425	0.247962	-0.000033
C56	C	1.215820	0.311259	-0.000049
N57	N	1.202287	0.154524	0.292898
N58	N	1.243838	0.134094	-0.292912
C59	C	1.327236	0.093046	0.529565
C60	C	1.318866	0.097171	0.647905
C61	C	1.177173	0.166894	0.647922
C62	C	1.185543	0.162770	0.529582
C63	C	1.260578	0.125845	0.470407
C64	C	1.268952	0.121724	0.352064
C65	C	1.127255	0.191444	0.352084
C66	C	1.118885	0.195569	0.470424
H67	H	0.560905	0.065588	0.000097
O68	O	0.729378	0.016194	-0.000193
C69	C	0.674527	0.005747	-0.097547
H70	H	0.704608	0.034507	-0.165604
H71	H	0.687007	-0.040737	-0.130230
H72	H	0.587614	0.015023	-0.075531
H73	H	1.389662	-0.578321	-0.000031
O74	O	1.505044	-0.302023	-0.000213
C75	C	1.569094	-0.320969	-0.097571
H76	H	1.518290	-0.338711	-0.165625
H77	H	1.615122	-0.283751	-0.130256
H78	H	1.625662	-0.355764	-0.075560
H79	H	1.046916	-0.572319	-0.000049
O80	O	1.502373	-0.419276	0.000129
C81	C	1.500386	-0.450376	0.097515
H82	H	1.415884	-0.456727	0.129970
H83	H	1.541021	-0.493656	0.075622
H84	H	1.542647	-0.425893	0.165700
H85	H	0.885184	0.223042	-0.000025
H86	H	0.958423	-0.297076	-0.000069
H87	H	1.116074	0.196954	0.696118
O88	O	0.716527	0.272474	0.000017
C89	C	0.634307	0.313113	-0.000026
H90	H	0.558531	0.294421	0.035573
H91	H	0.652652	0.352811	0.054544
H92	H	0.625255	0.324968	-0.090227
H93	H	1.401549	-0.031168	0.000039
O94	O	0.503591	0.258748	-0.000179
C95	C	0.447244	0.254425	-0.097565
H96	H	0.444540	0.207819	-0.130021
H97	H	0.364256	0.271986	-0.075672
H98	H	0.487371	0.279972	-0.165751
O99	O	1.029618	-0.684599	-0.000244
C100	C	0.979373	-0.672427	-0.097598
H101	H	1.039826	-0.659417	-0.165650
H102	H	0.937988	-0.711921	-0.130290
H103	H	0.919677	-0.636104	-0.075580
H104	H	1.388340	0.062984	0.481384
H105	H	1.056465	-0.133059	0.000030
H106	H	0.931927	0.037324	-0.000001
O107	O	1.414044	-0.143901	0.000058
C108	C	1.498247	-0.106354	0.000043
H109	H	1.468938	-0.062239	0.035638
H110	H	1.560063	-0.122791	0.054630
H111	H	1.533828	-0.103672	-0.090150
O112	O	0.941040	-0.409287	-0.000127
C113	C	0.858538	-0.368816	-0.000106
H114	H	0.889695	-0.328147	-0.035688
H115	H	0.795976	-0.386732	-0.054702
H116	H	0.823227	-0.358843	0.090086
H117	H	1.387304	-0.686223	-0.000045
O118	O	1.044176	-0.020142	-0.000034
C119	C	1.065721	0.038372	-0.000000
H120	H	1.149602	0.043828	-0.035582
H121	H	1.009775	0.060138	-0.054590
H122	H	1.055209	0.058466	0.090196
O123	O	1.341729	0.085763	0.294655
C124	C	1.323401	0.029519	0.323647
H125	H	1.238148	0.025867	0.356180
H126	H	1.341119	-0.001125	0.245848
H127	H	1.376114	0.018333	0.392354
H128	H	1.373145	0.070462	0.696068
H129	H	1.057790	0.225631	0.518618
O130	O	1.062555	0.223252	0.294442
C131	C	1.086054	0.211710	0.177301
H132	H	1.126372	0.168004	0.161133
H133	H	1.010717	0.212204	0.132336
H134	H	1.140070	0.245589	0.143712
