data_functionalizedCrystal
_audit_creation_method	'MofGen! by Chris Wilmer'
_symmetry_space_group_name_H-M	'P1'
_symmetry_Int_Tables_number	1
_symmetry_cell_setting	triclinic
loop_
_symmetry_equiv_pos_as_xyz
  x,y,z
_cell_length_a	16.120530
_cell_length_b	25.639239
_cell_length_c	16.120297
_cell_angle_alpha	87.131881
_cell_angle_beta	89.871860
_cell_angle_gamma	87.134624
loop_
_atom_site_label
_atom_site_type_symbol
_atom_site_fract_x
_atom_site_fract_y
_atom_site_fract_z
Zn1	Zn	1.247326	-0.264883	0.534532
Zn2	Zn	1.580659	0.068451	0.867865
Zn3	Zn	1.913992	0.401784	1.201198
Zn4	Zn	1.254240	-0.348114	0.395464
Zn5	Zn	1.587574	-0.014781	0.728797
Zn6	Zn	1.920907	0.318553	1.062130
Zn7	Zn	1.115320	-0.256048	0.388451
Zn8	Zn	1.448653	0.077286	0.721784
Zn9	Zn	1.781986	0.410619	1.055117
Zn10	Zn	1.108197	-0.347633	0.527433
Zn11	Zn	1.441530	-0.014299	0.860766
Zn12	Zn	1.774864	0.319034	1.194100
O13	O	1.181271	-0.304169	0.461470
O14	O	1.514604	0.029164	0.794803
O15	O	1.847937	0.362497	1.128136
O16	O	1.364607	-0.279822	0.521990
O17	O	1.697941	0.053511	0.855323
O18	O	2.031274	0.386844	1.188656
O19	O	1.241687	-0.332405	0.278168
O20	O	1.575020	0.000928	0.611502
O21	O	1.908354	0.334261	0.944835
O22	O	1.132918	-0.184058	0.407865
O23	O	1.466251	0.149275	0.741198
O24	O	1.799584	0.482608	1.074531
O25	O	1.369688	-0.340972	0.419817
O26	O	1.703021	-0.007639	0.753150
O27	O	2.036354	0.325694	1.086484
O28	O	1.229902	-0.190549	0.515190
O29	O	1.563235	0.142784	0.848523
O30	O	1.896569	0.476117	1.181856
O31	O	1.139623	-0.264765	0.273016
O32	O	1.472956	0.068569	0.606349
O33	O	1.806289	0.401902	0.939683
O34	O	0.998010	-0.264298	0.400981
O35	O	1.331344	0.069036	0.734315
O36	O	1.664677	0.402369	1.067648
O37	O	1.120778	-0.340152	0.644740
O38	O	1.454111	-0.006818	0.978073
O39	O	1.787445	0.326515	1.311406
O40	O	0.992777	-0.331585	0.503091
O41	O	1.326111	0.001749	0.836424
O42	O	1.659444	0.335082	1.169758
O43	O	1.222995	-0.279356	0.649955
O44	O	1.556328	0.053978	0.983288
O45	O	1.889662	0.387311	1.316622
O46	O	1.234780	-0.421212	0.412934
O47	O	1.568114	-0.087878	0.746267
O48	O	1.901447	0.245455	1.079600
O49	O	1.127483	-0.420858	0.509891
O50	O	1.460816	-0.087524	0.843224
O51	O	1.794149	0.245809	1.176558
C52	C	0.965222	-0.296931	0.450505
C53	C	1.298555	0.036403	0.783839
C54	C	1.631888	0.369736	1.117172
C55	C	0.872794	-0.293847	0.445834
C56	C	1.206127	0.039486	0.779168
C57	C	1.539461	0.372820	1.112501
C58	C	1.181131	-0.440006	0.461422
C59	C	1.514464	-0.106673	0.794756
C60	C	1.847797	0.226661	1.128089
C61	C	1.181145	-0.498121	0.461434
C62	C	1.514479	-0.164787	0.794767
C63	C	1.847812	0.168546	1.128100
C64	C	0.703567	-0.288205	0.437314
C65	C	1.036900	0.045128	0.770647
C66	C	1.370234	0.378461	1.103980
C67	C	0.659812	-0.320173	0.485686
C68	C	0.993145	0.013160	0.819020
C69	C	1.326478	0.346493	1.152353
C70	C	0.565648	-0.317034	0.480946
C71	C	0.898981	0.016299	0.814279
C72	C	1.232315	0.349632	1.147612
C73	C	0.797739	-0.291344	0.442054
C74	C	1.131073	0.041990	0.775387
C75	C	1.464406	0.375323	1.108720
C76	C	1.125392	-0.749147	0.511938
C77	C	1.458725	-0.415813	0.845271
C78	C	1.792058	-0.082480	1.178605
C79	C	1.125361	-0.694541	0.511927
C80	C	1.458695	-0.361208	0.845260
C81	C	1.792028	-0.027874	1.178593
O82	O	1.077822	-0.666157	0.554833
O83	O	1.411156	-0.332823	0.888166
O84	O	1.744489	0.000510	1.221499
N85	N	1.181248	-0.667399	0.461483
N86	N	1.514581	-0.334066	0.794816
N87	N	1.847914	-0.000733	1.128149
C88	C	1.237174	-0.694867	0.411053
C89	C	1.570507	-0.361533	0.744386
C90	C	1.903840	-0.028200	1.077719
O91	O	1.284707	-0.666766	0.368145
O92	O	1.618041	-0.333433	0.701479
O93	O	1.951374	-0.000100	1.034812
C94	C	1.237207	-0.749471	0.411069
C95	C	1.570541	-0.416138	0.744402
C96	C	1.903874	-0.082805	1.077735
C97	C	1.181312	-0.776610	0.461510
C98	C	1.514645	-0.443277	0.794843
C99	C	1.847978	-0.109943	1.128177
C100	C	1.069501	-0.776285	0.562376
C101	C	1.402834	-0.442952	0.895709
C102	C	1.736168	-0.109619	1.229042
C103	C	1.069531	-0.830887	0.562386
C104	C	1.402864	-0.497554	0.895719
C105	C	1.736197	-0.164220	1.229052
C106	C	1.125451	-0.858350	0.511958
C107	C	1.458784	-0.525017	0.845291
C108	C	1.792117	-0.191684	1.178624
C109	C	1.181341	-0.831212	0.461520
C110	C	1.514675	-0.497878	0.794853
C111	C	1.848008	-0.164545	1.128187
C112	C	1.293137	-0.776938	0.360644
C113	C	1.626470	-0.443605	0.693977
C114	C	1.959803	-0.110271	1.027310
C115	C	1.293166	-0.831547	0.360665
C116	C	1.626499	-0.498213	0.693998
C117	C	1.959833	-0.164880	1.027331
C118	C	1.237270	-0.858685	0.411106
C119	C	1.570604	-0.525352	0.744439
C120	C	1.903937	-0.192018	1.077773
C121	C	1.237291	-0.913277	0.411102
C122	C	1.570624	-0.579943	0.744435
C123	C	1.903957	-0.246610	1.077768
N124	N	1.181404	-0.940418	0.461546
N125	N	1.514738	-0.607085	0.794879
N126	N	1.848071	-0.273752	1.128213
C127	C	1.125484	-0.912955	0.511974
C128	C	1.458818	-0.579622	0.845307
C129	C	1.792151	-0.246288	1.178641
C130	C	1.237100	-0.580193	0.411023
C131	C	1.570433	-0.246859	0.744357
C132	C	1.903766	0.086474	1.077690
C133	C	1.237063	-0.525589	0.411002
C134	C	1.570396	-0.192255	0.744335
C135	C	1.903730	0.141078	1.077669
C136	C	1.125251	-0.525267	0.511878
C137	C	1.458585	-0.191934	0.845211
C138	C	1.791918	0.141400	1.178544
C139	C	1.125285	-0.579872	0.511894
C140	C	1.458618	-0.246538	0.845227
C141	C	1.791952	0.086795	1.178561
C142	C	1.181213	-0.607334	0.461468
C143	C	1.514547	-0.274001	0.794801
C144	C	1.847880	0.059332	1.128134
C145	C	1.125550	-1.027623	0.511990
C146	C	1.458883	-0.694289	0.845324
C147	C	1.792217	-0.360956	1.178657
C148	C	1.125582	-1.082229	0.511993
C149	C	1.458915	-0.748896	0.845326
C150	C	1.792249	-0.415563	1.178660
C151	C	1.237396	-1.082546	0.411121
C152	C	1.570730	-0.749213	0.744454
C153	C	1.904063	-0.415880	1.077788
C154	C	1.237362	-1.027945	0.411115
C155	C	1.570695	-0.694611	0.744448
C156	C	1.904028	-0.361278	1.077781
C157	C	1.181435	-1.000484	0.461556
C158	C	1.514769	-0.667151	0.794889
C159	C	1.848102	-0.333817	1.128223
O160	O	1.284808	-0.941696	0.368220
O161	O	1.618141	-0.608363	0.701554
O162	O	1.951474	-0.275029	1.034887
O163	O	1.077966	-0.941062	0.554882
O164	O	1.411299	-0.607729	0.888215
O165	O	1.744633	-0.274396	1.221549
C166	C	1.398163	-0.311437	0.472477
C167	C	1.731497	0.021897	0.805811
C168	C	2.064830	0.355230	1.139144
C169	C	1.490590	-0.314533	0.477168
C170	C	1.823923	0.018800	0.810502
C171	C	2.157257	0.352133	1.143835
C172	C	1.170321	-0.310685	0.678363
C173	C	1.503654	0.022648	1.011696
C174	C	1.836987	0.355981	1.345030
C175	C	1.165654	-0.313462	0.770790
C176	C	1.498988	0.019871	1.104123
C177	C	1.832321	0.353205	1.437457
C178	C	1.181433	-0.167803	0.461537
C179	C	1.514766	0.165530	0.794870
C180	C	1.848100	0.498863	1.128203
C181	C	1.181502	-0.109693	0.461565
C182	C	1.514836	0.223641	0.794898
C183	C	1.848169	0.556974	1.128232
C184	C	1.192226	-0.297642	0.245423
C185	C	1.525559	0.035691	0.578756
C186	C	1.858893	0.369024	0.912089
C187	C	1.197053	-0.294724	0.153004
C188	C	1.530387	0.038610	0.486338
C189	C	1.863720	0.371943	0.819671
C190	C	1.157105	-0.318519	0.940014
C191	C	1.490438	0.014814	1.273347
C192	C	1.823771	0.348147	1.606681
C193	C	1.205601	-0.289668	0.983785
C194	C	1.538934	0.043665	1.317119
C195	C	1.872267	0.376999	1.650452
C196	C	1.200844	-0.292482	1.077948
C197	C	1.534177	0.040851	1.411281
C198	C	1.867510	0.374185	1.744614
C199	C	1.161861	-0.315706	0.845843
C200	C	1.495194	0.017627	1.179177
C201	C	1.828527	0.350961	1.512510
H202	H	0.670310	-0.258482	0.392343
H203	H	1.003643	0.074852	0.725676
H204	H	1.336976	0.408185	1.059010
H205	H	1.282869	-1.005847	0.370032
H206	H	1.616202	-0.672514	0.703365
H207	H	1.949536	-0.339181	1.036699
H208	H	1.112017	-0.345331	0.973256
H209	H	1.445351	-0.011998	1.306590
H210	H	1.778684	0.321336	1.639923
H211	H	1.079774	-0.601965	0.552973
H212	H	1.413107	-0.268631	0.886306
H213	H	1.746441	0.064702	1.219639
H214	H	1.282922	-1.104917	0.370061
H215	H	1.616256	-0.771583	0.703394
H216	H	1.949589	-0.438250	1.036727
C217	C	0.957013	-0.711560	0.568147
C218	C	1.290347	-0.378226	0.901480
C219	C	1.623680	-0.044893	1.234814
C220	C	1.008025	-0.746102	0.617809
C221	C	1.341358	-0.412768	0.951142
C222	C	1.674692	-0.079435	1.284476
H223	H	0.919059	-0.692927	0.602370
H224	H	1.252392	-0.359593	0.935704
H225	H	1.585726	-0.026260	1.269037
H226	H	0.927089	-0.730743	0.530287
H227	H	1.260423	-0.397409	0.863621
H228	H	1.593756	-0.064076	1.196954
H229	H	0.990298	-0.687578	0.538114
H230	H	1.323631	-0.354245	0.871447
H231	H	1.656964	-0.020912	1.204781
H232	H	0.974741	-0.770086	0.647838
H233	H	1.308074	-0.436753	0.981171
H234	H	1.641407	-0.103419	1.314505
H235	H	1.037951	-0.726918	0.655684
H236	H	1.371285	-0.393584	0.989017
H237	H	1.704618	-0.060251	1.322350
H238	H	1.079719	-0.502896	0.552940
H239	H	1.413052	-0.169563	0.886274
H240	H	1.746386	0.163770	1.219607
C241	C	1.436063	-0.851760	0.327429
C242	C	1.769397	-0.518427	0.660763
C243	C	2.102730	-0.185093	0.994096
C244	C	1.354649	-0.861728	0.305230
C245	C	1.687983	-0.528395	0.638563
C246	C	2.021316	-0.195061	0.971897
H247	H	1.474019	-0.870389	0.293201
H248	H	1.807352	-0.537055	0.626535
H249	H	2.140685	-0.203722	0.959868
H250	H	1.445363	-0.862778	0.383919
H251	H	1.778697	-0.529444	0.717252
H252	H	2.112030	-0.196111	1.050586
H253	H	1.444025	-0.815353	0.320209
H254	H	1.777358	-0.482019	0.653542
H255	H	2.110691	-0.148686	0.986875
H256	H	1.346686	-0.898135	0.312457
H257	H	1.680019	-0.564802	0.645790
H258	H	2.013353	-0.231468	0.979123
H259	H	1.345346	-0.850713	0.248726
H260	H	1.678679	-0.517380	0.582060
H261	H	2.012013	-0.184047	0.915393
H262	H	1.250692	-0.262854	0.950541
H263	H	1.584025	0.070479	1.283875
H264	H	1.917358	0.403812	1.617208
H265	H	0.693071	-0.349899	0.530661
H266	H	1.026405	-0.016566	0.863995
H267	H	1.359738	0.316768	1.197328
C268	C	1.077866	-1.101903	0.650715
C269	C	1.411199	-0.768569	0.984049
C270	C	1.744533	-0.435236	1.317382
C271	C	1.064142	-1.112060	0.567446
C272	C	1.397476	-0.778727	0.900780
C273	C	1.730809	-0.445394	1.234113
H274	H	1.039940	-1.120321	0.684948
H275	H	1.373274	-0.786987	1.018282
H276	H	1.706607	-0.453654	1.351615
H277	H	1.069845	-1.065456	0.657918
H278	H	1.403179	-0.732122	0.991251
H279	H	1.736512	-0.398789	1.324584
H280	H	1.133118	-1.113052	0.665755
H281	H	1.466451	-0.779719	0.999088
H282	H	1.799784	-0.446386	1.332421
H283	H	1.008892	-1.100907	0.552405
H284	H	1.342225	-0.767574	0.885738
H285	H	1.675558	-0.434240	1.219072
H286	H	1.072156	-1.148515	0.560240
H287	H	1.405489	-0.815182	0.893573
H288	H	1.738823	-0.481849	1.226907
C289	C	1.013063	-0.962897	0.517776
C290	C	1.346396	-0.629564	0.851109
C291	C	1.679729	-0.296230	1.184442
C292	C	1.064073	-0.997443	0.567432
C293	C	1.397406	-0.664110	0.900765
C294	C	1.730740	-0.330777	1.234099
H295	H	0.975112	-0.944264	0.552002
H296	H	1.308445	-0.610931	0.885336
H297	H	1.641778	-0.277598	1.218669
H298	H	0.983136	-0.982077	0.479914
H299	H	1.316469	-0.648743	0.813247
H300	H	1.649802	-0.315410	1.146581
H301	H	1.046349	-0.938916	0.487744
H302	H	1.379682	-0.605582	0.821078
H303	H	1.713016	-0.272249	1.154411
H304	H	1.030787	-1.021428	0.597459
H305	H	1.364120	-0.688094	0.930792
H306	H	1.697454	-0.354761	1.264126
H307	H	1.094003	-0.978263	0.605309
H308	H	1.427336	-0.644929	0.938642
H309	H	1.760669	-0.311596	1.271975
C310	C	1.021827	-0.850548	0.701108
C311	C	1.355160	-0.517214	1.034441
C312	C	1.688493	-0.183881	1.367775
C313	C	1.008097	-0.860713	0.617843
C314	C	1.341430	-0.527380	0.951177
C315	C	1.674763	-0.194046	1.284510
H316	H	0.983902	-0.868961	0.735348
H317	H	1.317235	-0.535628	1.068682
H318	H	1.650569	-0.202294	1.402015
H319	H	1.013810	-0.814099	0.708301
H320	H	1.347143	-0.480766	1.041635
H321	H	1.680476	-0.147433	1.374968
H322	H	1.077079	-0.861697	0.716146
H323	H	1.410412	-0.528364	1.049480
H324	H	1.743746	-0.195031	1.382813
H325	H	0.952846	-0.849560	0.602803
H326	H	1.286179	-0.516226	0.936137
H327	H	1.619513	-0.182893	1.269470
H328	H	1.016107	-0.897169	0.610646
H329	H	1.349440	-0.563836	0.943980
H330	H	1.682774	-0.230503	1.277313
C331	C	1.284781	-0.505925	0.272280
C332	C	1.618114	-0.172591	0.605613
C333	C	1.951448	0.160742	0.938946
C334	C	1.298499	-0.495762	0.355548
C335	C	1.631833	-0.162429	0.688881
C336	C	1.965166	0.170904	1.022214
H337	H	1.322717	-0.487515	0.238047
H338	H	1.656050	-0.154181	0.571381
H339	H	1.989384	0.179152	0.904714
H340	H	1.229540	-0.494774	0.257233
H341	H	1.562873	-0.161440	0.590567
H342	H	1.896207	0.171893	0.923900
H343	H	1.292797	-0.542378	0.265085
H344	H	1.626130	-0.209045	0.598419
H345	H	1.959463	0.124289	0.931752
H346	H	1.290478	-0.459309	0.362743
H347	H	1.623811	-0.125976	0.696076
H348	H	1.957144	0.207357	1.029410
H349	H	1.353754	-0.506910	0.370598
H350	H	1.687087	-0.173577	0.703932
H351	H	2.020420	0.159756	1.037265
C352	C	1.254483	-0.638682	0.299818
C353	C	1.587816	-0.305349	0.633151
C354	C	1.921150	0.027984	0.966484
C355	C	1.298593	-0.610395	0.355624
C356	C	1.631927	-0.277062	0.688957
C357	C	1.965260	0.056272	1.022290
H358	H	1.292454	-0.657333	0.265635
H359	H	1.625788	-0.324000	0.598968
H360	H	1.959121	0.009334	0.932301
H361	H	1.219900	-0.615255	0.266105
H362	H	1.553233	-0.281922	0.599439
H363	H	1.886567	0.051412	0.932772
H364	H	1.221190	-0.662651	0.329869
H365	H	1.554523	-0.329317	0.663203
H366	H	1.887857	0.004016	0.996536
H367	H	1.331882	-0.586424	0.325572
H368	H	1.665215	-0.253090	0.658905
H369	H	1.998548	0.080243	0.992238
H370	H	1.333191	-0.633825	0.389340
H371	H	1.666524	-0.300492	0.722673
H372	H	1.999858	0.032842	1.056007
C373	C	1.340885	-0.757285	0.221932
C374	C	1.674219	-0.423951	0.555266
C375	C	2.007552	-0.090618	0.888599
C376	C	1.354589	-0.747120	0.305202
C377	C	1.687922	-0.413787	0.638535
C378	C	2.021256	-0.080453	0.971869
H379	H	1.378832	-0.738880	0.187706
H380	H	1.712165	-0.405546	0.521040
H381	H	2.045499	-0.072213	0.854373
H382	H	1.285649	-0.746130	0.206874
H383	H	1.618982	-0.412796	0.540207
H384	H	1.952316	-0.079463	0.873541
H385	H	1.348895	-0.793739	0.214743
H386	H	1.682229	-0.460406	0.548077
H387	H	2.015562	-0.127072	0.881410
H388	H	1.346573	-0.710666	0.312392
H389	H	1.679906	-0.377333	0.645726
H390	H	2.013240	-0.043999	0.979059
H391	H	1.409839	-0.758272	0.320265
H392	H	1.743172	-0.424939	0.653599
H393	H	2.076505	-0.091605	0.986932
