data_functionalizedCrystal
_audit_creation_method	'MofGen! by Chris Wilmer'
_symmetry_space_group_name_H-M	'P1'
_symmetry_Int_Tables_number	1
_symmetry_cell_setting	triclinic
loop_
_symmetry_equiv_pos_as_xyz
  x,y,z
_cell_length_a	11.792241
_cell_length_b	11.792241
_cell_length_c	9.130313
_cell_angle_alpha	89.995332
_cell_angle_beta	90.000683
_cell_angle_gamma	84.193416
loop_
_atom_site_label
_atom_site_type_symbol
_atom_site_fract_x
_atom_site_fract_y
_atom_site_fract_z
O1	O	1.506907	0.155568	-0.121658
O2	O	2.006907	0.655568	0.378342
O3	O	1.176566	0.171601	-0.121692
O4	O	1.676566	0.671601	0.378308
O5	O	1.349753	-0.001586	-0.121664
O6	O	1.849753	0.498414	0.378336
O7	O	1.333720	0.328755	-0.121686
O8	O	1.833720	0.828755	0.378314
O9	O	1.349741	-0.001592	0.121935
O10	O	1.849741	0.498408	0.621935
O11	O	1.176554	0.171595	0.121907
O12	O	1.676554	0.671595	0.621907
O13	O	1.506895	0.155563	0.121941
O14	O	2.006895	0.655563	0.621941
Cu15	Cu	1.341724	0.163579	0.144167
Cu16	Cu	1.841724	0.663579	0.644167
Cu17	Cu	1.341738	0.163585	-0.143917
Cu18	Cu	1.841738	0.663585	0.356083
O19	O	1.333708	0.328750	0.121913
O20	O	1.833708	0.828750	0.621913
C21	C	1.134269	0.170591	0.000103
C22	C	1.634269	0.670591	0.500103
C23	C	1.008255	0.167576	0.000090
C24	C	1.508255	0.667576	0.500090
C25	C	1.348740	-0.043880	0.000135
C26	C	1.848740	0.456120	0.500135
C27	C	1.345726	-0.169894	0.000133
C28	C	1.845726	0.330106	0.500133
C29	C	1.340183	-0.400606	0.000108
C30	C	1.840183	0.099394	0.500108
C31	C	1.343262	-0.272221	0.000122
C32	C	1.843262	0.227779	0.500122
C33	C	0.777543	0.162034	0.000133
C34	C	1.277543	0.662034	0.500133
C35	C	0.905928	0.165113	0.000110
C36	C	1.405928	0.665113	0.500110
C37	C	1.549192	0.156572	0.000143
C38	C	2.049192	0.656572	0.500143
C39	C	1.675206	0.159587	0.000146
C40	C	2.175206	0.659587	0.500146
C41	C	1.334721	0.371043	0.000111
C42	C	1.834721	0.871043	0.500111
C43	C	1.337736	0.497057	0.000103
C44	C	1.837736	0.997057	0.500103
N45	N	1.341722	0.163574	0.346789
N46	N	1.841722	0.663574	0.846789
N47	N	1.341748	0.163580	-0.346540
N48	N	1.841748	0.663580	0.153460
C49	C	1.418435	0.086919	0.423454
C50	C	1.918435	0.586919	0.923454
C51	C	1.418446	0.086919	0.576790
C52	C	1.918446	0.586919	1.076790
C53	C	1.265027	0.240239	0.576785
C54	C	1.765027	0.740239	1.076785
C55	C	1.265011	0.240232	0.423451
C56	C	1.765011	0.740232	0.923451
H57	H	1.480911	0.024499	0.639206
H58	H	1.980911	0.524499	1.139206
N59	N	1.182272	0.322923	0.340755
N60	N	1.682272	0.822923	0.840755
H61	H	1.193902	0.311282	0.231987
H62	H	1.693902	0.811282	0.731987
H63	H	1.101680	0.309268	0.367570
H64	H	1.601680	0.809268	0.867570
N65	N	1.182293	0.322918	0.659470
N66	N	1.682293	0.822918	1.159470
H67	H	1.193943	0.311294	0.768241
H68	H	1.693943	0.811294	1.268241
H69	H	1.195888	0.403526	0.632649
H70	H	1.695888	0.903526	1.132649
H71	H	1.480896	0.024497	0.361039
H72	H	1.980896	0.524497	0.861039
