data_functionalizedCrystal
_audit_creation_method	'MofGen! by Chris Wilmer'
_symmetry_space_group_name_H-M	'P1'
_symmetry_Int_Tables_number	1
_symmetry_cell_setting	triclinic
loop_
_symmetry_equiv_pos_as_xyz
  x,y,z
_cell_length_a	17.077404
_cell_length_b	17.077402
_cell_length_c	18.101379
_cell_angle_alpha	90.088401
_cell_angle_beta	90.063685
_cell_angle_gamma	90.021987
loop_
_atom_site_label
_atom_site_type_symbol
_atom_site_fract_x
_atom_site_fract_y
_atom_site_fract_z
Zn1	Zn	-1.200382	0.312073	-0.418767
Zn2	Zn	-0.700382	0.812073	0.081233
Zn3	Zn	-1.200192	0.443482	-0.294924
Zn4	Zn	-0.700192	0.943482	0.205076
Zn5	Zn	-1.069017	0.312232	-0.294936
Zn6	Zn	-0.569017	0.812232	0.205064
Zn7	Zn	-1.069082	0.443298	-0.418720
Zn8	Zn	-0.569082	0.943298	0.081280
O9	O	-1.134668	0.377771	-0.356837
O10	O	-0.634668	0.877771	0.143163
O11	O	-1.310204	0.329514	-0.402354
O12	O	-0.810204	0.829514	0.097646
O13	O	-1.182685	0.426215	-0.191292
O14	O	-0.682685	0.926215	0.308708
O15	O	-1.086495	0.202364	-0.311387
O16	O	-0.586495	0.702364	0.188613
O17	O	-1.310064	0.426060	-0.311367
O18	O	-0.810064	0.926060	0.188633
O19	O	-1.183008	0.202247	-0.402366
O20	O	-0.683008	0.702247	0.097634
O21	O	-1.086311	0.329786	-0.191301
O22	O	-0.586311	0.829786	0.308699
O23	O	-0.959179	0.329608	-0.311341
O24	O	-0.459179	0.829608	0.188659
O25	O	-1.086605	0.425748	-0.522360
O26	O	-0.586605	0.925748	-0.022360
O27	O	-0.959226	0.425902	-0.402285
O28	O	-0.459226	0.925902	0.097715
O29	O	-1.183071	0.329337	-0.522394
O30	O	-0.683071	0.829337	-0.022394
O31	O	-1.182748	0.553304	-0.311321
O32	O	-0.682748	1.053304	0.188679
O33	O	-1.086422	0.553170	-0.402274
O34	O	-0.586422	1.053170	0.097726
C35	C	-0.930720	0.377753	-0.356810
C36	C	-0.430720	0.877753	0.143190
C37	C	-0.843471	0.377764	-0.356816
C38	C	-0.343471	0.877764	0.143184
C39	C	-1.134592	0.581719	-0.356807
C40	C	-0.634592	1.081719	0.143193
C41	C	-1.134632	0.668969	-0.356819
C42	C	-0.634632	1.168969	0.143181
C43	C	-0.802526	0.427979	-0.404093
C44	C	-0.302526	0.927979	0.095907
C45	C	-0.720545	0.427980	-0.404102
C46	C	-0.220545	0.927980	0.095898
C47	C	-0.679511	0.377768	-0.356830
C48	C	-0.179511	0.877768	0.143170
C49	C	-0.720462	0.327547	-0.309551
C50	C	-0.220462	0.827547	0.190449
C51	C	-0.802441	0.327543	-0.309546
C52	C	-0.302441	0.827543	0.190454
C53	C	-0.549592	0.327559	-0.309563
C54	C	-0.049592	0.827559	0.190437
C55	C	-0.467607	0.327563	-0.309567
C56	C	0.032393	0.827563	0.190433
C57	C	-0.467696	0.427995	-0.404120
C58	C	0.032304	0.927995	0.095880
C59	C	-0.549675	0.427992	-0.404115
C60	C	-0.049675	0.927992	0.095885
C61	C	-0.590620	0.377772	-0.356834
C62	C	-0.090620	0.877772	0.143166
C63	C	-1.134867	0.377504	-0.549999
C64	C	-0.634867	0.877504	-0.049999
C65	C	-1.134951	0.377390	-0.632314
C66	C	-0.634951	0.877390	-0.132314
C67	C	-0.339412	0.377785	-0.356856
C68	C	0.160588	0.877785	0.143144
C69	C	-0.426662	0.377779	-0.356844
C70	C	0.073338	0.877779	0.143156
C71	C	-1.134766	0.173027	-0.356883
C72	C	-0.634766	0.673027	0.143117
C73	C	-1.134807	0.085777	-0.356902
C74	C	-0.634807	0.585777	0.143098
C75	C	-1.184840	0.710003	-0.309511
C76	C	-0.684840	1.210003	0.190489
C77	C	-1.184879	0.791984	-0.309530
C78	C	-0.684879	1.291984	0.190470
C79	C	-1.134704	0.832928	-0.356854
C80	C	-0.634704	1.332928	0.143146
C81	C	-1.084493	0.791888	-0.404167
C82	C	-0.584493	1.291888	0.095833
C83	C	-1.084460	0.709909	-0.404152
C84	C	-0.584460	1.209909	0.095848
C85	C	-1.084566	0.962758	-0.404196
C86	C	-0.584566	1.462758	0.095804
C87	C	-1.084599	1.044743	-0.404211
C88	C	-0.584599	1.544743	0.095789
C89	C	-1.184985	1.044832	-0.309574
C90	C	-0.684985	1.544832	0.190426
C91	C	-1.184951	0.962853	-0.309558
C92	C	-0.684951	1.462853	0.190442
C93	C	-1.134740	0.921819	-0.356871
C94	C	-0.634740	1.421819	0.143129
C95	C	-1.134516	0.377981	-0.164426
C96	C	-0.634516	0.877981	0.335574
C97	C	-1.134583	0.377874	-0.082112
C98	C	-0.634583	0.877874	0.417888
C99	C	-1.134707	0.377712	0.068596
C100	C	-0.634707	0.877712	0.568596
C101	C	-1.073661	0.317450	0.099901
C102	C	-0.573661	0.817450	0.599901
C103	C	-1.073494	0.317538	0.185520
C104	C	-0.573494	0.817538	0.685520
C105	C	-1.134828	0.377552	0.216978
C106	C	-0.634828	0.877552	0.716978
C107	C	-1.113180	0.460530	0.186136
C108	C	-0.613180	0.960530	0.686136
C109	C	-1.112667	0.460275	0.100491
C110	C	-0.612667	0.960275	0.600491
C111	C	-1.217584	0.355684	0.099955
C112	C	-0.717584	0.855684	0.599955
C113	C	-1.217197	0.353769	0.185601
C114	C	-0.717197	0.853769	0.685601
C115	C	-1.134898	0.377466	0.300838
C116	C	-0.634898	0.877466	0.800838
C117	C	-1.134635	0.377803	-0.015263
C118	C	-0.634635	0.877803	0.484737
H119	H	-0.835930	0.468870	-0.442585
H120	H	-0.335930	0.968870	0.057415
Br121	Br	-0.664980	0.496130	-0.468269
Br122	Br	-0.164980	0.996130	0.031731
H123	H	-1.233530	0.292699	0.205732
H124	H	-0.733530	0.792699	0.705732
Br125	Br	-1.016405	0.847455	-0.468400
Br126	Br	-0.516405	1.347455	0.031600
Br127	Br	-1.253044	0.907286	-0.245331
Br128	Br	-0.753044	1.407286	0.254669
H129	H	-1.053328	0.479353	0.207743
H130	H	-0.553328	0.979353	0.707743
H131	H	-0.835777	0.286649	-0.271052
H132	H	-0.335777	0.786649	0.228948
H133	H	-0.434199	0.286667	-0.271082
H134	H	0.065801	0.786667	0.228918
H135	H	-1.263060	0.399562	0.079708
H136	H	-0.763060	0.899562	0.579708
Br137	Br	-0.971181	0.341877	0.219926
Br138	Br	-0.471181	0.841877	0.719926
H139	H	-1.043681	0.929351	-0.442725
H140	H	-0.543681	1.429351	0.057275
Br141	Br	-1.016322	0.654219	-0.468363
Br142	Br	-0.516322	1.154219	0.031637
Br143	Br	-0.605364	0.496144	-0.468263
Br144	Br	-0.105364	0.996144	0.031737
H145	H	-1.012589	0.331925	0.078529
H146	H	-0.512589	0.831925	0.578529
H147	H	-1.156339	0.506635	0.206524
H148	H	-0.656339	1.006635	0.706524
Br149	Br	-1.016492	1.100311	-0.468425
Br150	Br	-0.516492	1.600311	0.031575
Br151	Br	-1.252931	0.654443	-0.245275
Br152	Br	-0.752931	1.154443	0.254725
H153	H	-1.086949	0.256037	0.206362
H154	H	-0.586949	0.756037	0.706362
H155	H	-1.237405	0.296218	0.078173
H156	H	-0.737405	0.796218	0.578173
Br157	Br	-1.095749	0.214696	0.065283
Br158	Br	-0.595749	0.714696	0.565283
Br159	Br	-1.253027	0.847670	-0.245328
Br160	Br	-0.753027	1.347670	0.254672
H161	H	-1.265087	0.394345	0.207004
H162	H	-0.765087	0.894345	0.707004
H163	H	-1.052113	0.478835	0.080673
H164	H	-0.552113	0.978835	0.580673
H165	H	-1.155244	0.506747	0.079794
H166	H	-0.655244	1.006747	0.579794
H167	H	-0.434355	0.468884	-0.442619
H168	H	0.065645	0.968884	0.057381
Br169	Br	-0.664774	0.259394	-0.245401
Br170	Br	-0.164774	0.759394	0.254599
Br171	Br	-0.605160	0.259401	-0.245398
Br172	Br	-0.105160	0.759401	0.254602
H173	H	-1.225872	1.078246	-0.271053
H174	H	-0.725872	1.578246	0.228947
