data_functionalizedCrystal
_audit_creation_method	'MofGen! by Chris Wilmer'
_symmetry_space_group_name_H-M	'P1'
_symmetry_Int_Tables_number	1
_symmetry_cell_setting	triclinic
loop_
_symmetry_equiv_pos_as_xyz
  x,y,z
_cell_length_a	14.560438
_cell_length_b	14.560438
_cell_length_c	14.560438
_cell_angle_alpha	60.000084
_cell_angle_beta	90.000977
_cell_angle_gamma	60.001166
loop_
_atom_site_label
_atom_site_type_symbol
_atom_site_fract_x
_atom_site_fract_y
_atom_site_fract_z
Zr1	Zr	0.884754	1.005292	-0.120493
O2	O	0.738109	1.196893	-0.267140
O3	O	0.929709	0.813691	-0.075540
O4	O	0.929709	1.005295	-0.267141
O5	O	0.738108	1.005286	0.075601
O6	O	1.080847	1.005298	-0.267138
O7	O	0.738108	1.005289	-0.075540
O8	O	1.080847	0.662553	0.075600
O9	O	0.738109	1.348031	-0.267138
O10	O	1.061675	0.892501	-0.056364
O11	O	0.948882	0.892497	0.056429
O12	O	0.948882	1.118086	-0.169156
O13	O	0.836090	1.118083	-0.056363
Zr14	Zr	1.125803	1.005292	0.120563
Zr15	Zr	1.125802	1.005296	-0.120489
Zr16	Zr	0.884755	1.005288	0.120559
Zr17	Zr	0.884755	1.246340	-0.120488
Zr18	Zr	1.125802	0.764244	0.120559
O19	O	1.080848	1.196893	0.075610
O20	O	1.080848	1.196899	-0.267135
O21	O	0.738109	1.196887	0.075605
O22	O	1.272449	0.813691	0.267210
O23	O	1.272448	0.813697	-0.075535
O24	O	0.929709	0.813685	0.267205
O25	O	1.272449	1.005298	-0.075531
O26	O	1.080848	1.005289	0.267211
O27	O	0.929710	1.005286	0.267209
O28	O	1.272449	1.005295	0.075610
O29	O	0.929710	1.348034	-0.267134
O30	O	1.080847	0.662550	0.267205
O31	O	1.272448	0.662553	0.267208
O32	O	1.272448	0.662557	0.075603
O33	O	0.738109	1.348027	-0.075533
O34	O	0.929710	1.348031	-0.075530
O35	O	1.061675	0.892497	0.169226
O36	O	1.174468	0.892501	0.056433
O37	O	1.061675	1.118086	-0.056359
O38	O	0.948882	1.118083	0.056434
C39	C	1.005278	0.703778	0.000029
C40	C	1.005278	0.601447	0.000027
C41	C	1.064152	0.553373	-0.058849
C42	C	1.064157	0.457214	-0.058839
C43	C	0.946403	0.457215	0.058927
C44	C	0.946406	0.553366	0.058922
C45	C	0.703764	1.005287	0.000030
C46	C	0.601433	1.005285	0.000029
C47	C	0.612231	0.887534	0.058905
C48	C	0.516076	0.887540	0.058915
C49	C	0.398328	1.123059	-0.058836
C50	C	0.494482	1.123051	-0.058839
C51	C	0.719182	0.769768	0.117772
C52	C	0.729984	0.652007	0.176652
C53	C	0.633830	0.652014	0.176662
C54	C	0.526872	0.769780	0.117793
C55	C	1.306793	1.005297	0.000040
C56	C	1.409124	1.005299	0.000042
C57	C	1.005278	1.005297	-0.301484
C58	C	1.005278	1.005299	-0.403817
C59	C	1.005279	1.306806	0.000041
C60	C	1.005279	1.409137	0.000043
C61	C	0.946397	1.123050	-0.510770
C62	C	0.946400	1.123044	-0.606919
C63	C	1.064167	0.887525	-0.489149
C64	C	1.064170	0.887533	-0.393002
C65	C	0.887505	1.240816	-0.521585
C66	C	0.828618	1.358576	-0.628543
C67	C	0.828622	1.358570	-0.724692
C68	C	0.887512	1.240804	-0.713883
C69	C	1.005279	1.005287	0.301555
C70	C	1.005279	1.005285	0.403888
C71	C	1.306792	0.703783	0.000034
C72	C	1.409123	0.601454	0.000034
C73	C	1.005278	0.703773	0.301549
C74	C	1.005278	0.601440	0.403880
C75	C	1.306793	0.703778	0.301554
C76	C	1.409124	0.601447	0.403886
C77	C	0.703765	1.306806	-0.301484
C78	C	0.601433	1.409137	-0.403816
C79	C	0.703765	1.306801	0.000036
C80	C	0.601434	1.409130	0.000036
C81	C	1.005279	1.306811	-0.301479
C82	C	1.005279	1.409144	-0.403810
C83	C	1.398325	0.553377	-0.058842
C84	C	1.494480	0.457236	-0.058846
C85	C	1.612228	0.457253	0.058911
C86	C	1.516074	0.553399	0.058908
C87	C	1.064154	0.553362	0.510834
C88	C	1.064141	0.457219	0.606981
C89	C	0.946375	0.457236	0.489206
C90	C	0.946382	0.553384	0.393062
C91	C	1.516076	0.553372	0.393089
C92	C	1.612223	0.457229	0.489245
C93	C	1.494452	0.457242	0.606993
C94	C	1.398308	0.553390	0.510838
H95	H	0.898471	0.418057	0.106875
C96	C	0.280684	1.252589	-0.123597
H97	H	0.224965	1.235728	-0.115172
H98	H	0.272252	1.300976	-0.094525
H99	H	0.272250	1.300968	-0.201064
H100	H	1.485660	0.418101	0.694083
H101	H	1.112082	0.418079	0.694064
H102	H	1.524875	0.592547	0.106852
H103	H	0.887522	1.240808	-0.792178
H104	H	1.112099	0.418073	-0.106780
H105	H	0.898426	0.418095	0.480412
H106	H	1.112106	0.592491	0.519649
C107	C	0.881610	0.606280	0.275405
H108	H	0.846544	0.563879	0.282731
H109	H	0.825901	0.697055	0.235458
H110	H	0.932435	0.590517	0.235449
H111	H	1.311244	0.592512	-0.106793
C112	C	1.729869	0.404309	0.477370
H113	H	1.785583	0.340164	0.549952
H114	H	1.738280	0.366795	0.437428
H115	H	1.738330	0.473319	0.437415
H116	H	1.524888	0.592500	0.306007
H117	H	1.485677	0.418097	-0.106791
H118	H	0.485686	1.218934	-0.106760
C119	C	1.729871	0.404377	0.123679
H120	H	1.785592	0.340220	0.115259
H121	H	1.738307	0.473402	0.094607
H122	H	1.738298	0.366863	0.201144
C123	C	1.280654	0.606274	0.522715
H124	H	1.287980	0.563871	0.600182
H125	H	1.240700	0.697050	0.487650
H126	H	1.240703	0.590505	0.487652
C127	C	1.128928	0.757995	-0.477263
H128	H	1.120483	0.774856	-0.549843
H129	H	1.206389	0.709607	-0.437316
H130	H	1.099842	0.709617	-0.437310
H131	H	0.898463	0.592507	0.106872
C132	C	1.128915	0.606255	-0.123619
H133	H	1.120478	0.670413	-0.115200
H134	H	1.206374	0.537230	-0.094544
H135	H	1.099831	0.643768	-0.201085
C136	C	0.847628	0.522476	0.241406
H137	H	0.903348	0.539333	0.232961
H138	H	0.856071	0.474086	0.318868
H139	H	0.856047	0.474100	0.212319
C140	C	0.824951	0.769756	0.117769
H141	H	0.890194	0.682757	0.161267
H142	H	0.824950	0.813255	0.042754
H143	H	0.824969	0.813234	0.149307
C144	C	1.128932	0.758010	-0.275352
H145	H	1.163991	0.687872	-0.282680
H146	H	1.184646	0.753121	-0.235400
H147	H	1.078103	0.753121	-0.235399
H148	H	0.642630	0.556128	0.224614
C149	C	0.421104	0.769786	0.117810
H150	H	0.442852	0.682790	0.161304
H151	H	0.377617	0.813278	0.149334
H152	H	0.377602	0.813276	0.042793
H153	H	0.780679	1.454457	-0.637335
H154	H	0.887493	1.240834	-0.443303
H155	H	0.780682	1.454456	-0.811777
