data_functionalizedCrystal
_audit_creation_method	'MofGen! by Chris Wilmer'
_symmetry_space_group_name_H-M	'P1'
_symmetry_Int_Tables_number	1
_symmetry_cell_setting	triclinic
loop_
_symmetry_equiv_pos_as_xyz
  x,y,z
_cell_length_a	19.288874
_cell_length_b	19.288864
_cell_length_c	14.048226
_cell_angle_alpha	89.979690
_cell_angle_beta	89.993046
_cell_angle_gamma	83.138236
loop_
_atom_site_label
_atom_site_type_symbol
_atom_site_fract_x
_atom_site_fract_y
_atom_site_fract_z
O1	O	0.086649	0.921353	-0.079467
O2	O	0.586649	1.421353	0.420533
O3	O	0.098337	0.719093	-0.079402
O4	O	0.598337	1.219093	0.420598
O5	O	-0.008637	0.826064	-0.079429
O6	O	0.491363	1.326064	0.420571
O7	O	0.193623	0.814382	-0.079440
O8	O	0.693623	1.314382	0.420560
O9	O	-0.008643	0.826051	0.078892
O10	O	0.491357	1.326051	0.578892
O11	O	0.098331	0.719080	0.078919
O12	O	0.598331	1.219080	0.578919
O13	O	0.086643	0.921340	0.078854
O14	O	0.586643	1.421340	0.578854
Zn15	Zn	0.092486	0.820208	0.104024
Zn16	Zn	0.592486	1.320208	0.604024
Zn17	Zn	0.092494	0.820225	-0.104571
Zn18	Zn	0.592494	1.320225	0.395429
O19	O	0.193617	0.814369	0.078881
O20	O	0.693617	1.314369	0.578881
C21	C	-0.034516	0.825680	-0.000268
C22	C	0.465484	1.325680	0.499732
C23	C	-0.111619	0.824549	-0.000268
C24	C	0.388381	1.324549	0.499732
C25	C	0.097958	0.693210	-0.000233
C26	C	0.597958	1.193210	0.499767
C27	C	0.096829	0.616106	-0.000208
C28	C	0.596829	1.116106	0.499792
C29	C	-0.667192	0.816416	0.086012
C30	C	-0.167192	1.316416	0.586012
C31	C	-0.594744	0.817472	0.086017
C32	C	-0.094744	1.317472	0.586017
C33	C	-0.558510	0.818010	-0.000283
C34	C	-0.058510	1.318010	0.499717
C35	C	-0.594727	0.817474	-0.086594
C36	C	-0.094727	1.317474	0.413406
C37	C	-0.667172	0.816412	-0.086597
C38	C	-0.167172	1.316412	0.413403
C39	C	-0.449176	0.860381	-0.066412
C40	C	0.050824	1.360381	0.433588
C41	C	-0.376732	0.861448	-0.066406
C42	C	0.123268	1.361448	0.433594
C43	C	-0.335064	0.821285	-0.000279
C44	C	0.164936	1.321285	0.499721
C45	C	-0.365849	0.780064	0.065857
C46	C	0.134151	1.280064	0.565857
C47	C	-0.438294	0.779001	0.065855
C48	C	0.061706	1.279001	0.565855
C49	C	-0.479955	0.819162	-0.000290
C50	C	0.020045	1.319162	0.499710
C51	C	-0.220299	0.822960	0.086032
C52	C	0.279701	1.322960	0.586032
C53	C	-0.147849	0.824012	0.086033
C54	C	0.352151	1.324012	0.586033
C55	C	-0.147834	0.824021	-0.086581
C56	C	0.352166	1.324021	0.413419
C57	C	-0.220281	0.822963	-0.086580
C58	C	0.279719	1.322963	0.413420
C59	C	-0.256510	0.822436	-0.000271
C60	C	0.243490	1.322436	0.499729
C61	C	0.159597	0.571412	-0.000226
C62	C	0.659597	1.071412	0.499774
C63	C	0.158536	0.498965	-0.000237
C64	C	0.658536	0.998965	0.499763
C65	C	0.094704	0.471215	-0.000248
C66	C	0.594704	0.971215	0.499752
C67	C	0.031928	0.515919	-0.000224
C68	C	0.531928	1.015919	0.499776
C69	C	0.032991	0.588365	-0.000204
C70	C	0.532991	1.088365	0.499796
C71	C	0.044528	0.362956	-0.055744
C72	C	0.544528	0.862956	0.444256
C73	C	0.043468	0.290512	-0.055770
C74	C	0.543468	0.790512	0.444230
C75	C	0.091425	0.247770	-0.000305
C76	C	0.591425	0.747770	0.499695
C77	C	0.140453	0.277480	0.055173
C78	C	0.640453	0.777480	0.555173
C79	C	0.141516	0.349925	0.055193
C80	C	0.641516	0.849925	0.555193
C81	C	0.093545	0.392661	-0.000269
C82	C	0.593545	0.892661	0.499731
C83	C	0.153046	0.124520	-0.000334
C84	C	0.653046	0.624520	0.499666
C85	C	0.151983	0.052072	-0.000338
C86	C	0.651983	0.552072	0.499662
C87	C	0.025374	0.069027	-0.000335
C88	C	0.525374	0.569027	0.499665
C89	C	0.026439	0.141474	-0.000321
C90	C	0.526439	0.641474	0.499679
C91	C	0.090277	0.169215	-0.000325
C92	C	0.590277	0.669215	0.499675
C93	C	0.219496	0.814753	-0.000281
C94	C	0.719496	1.314753	0.499719
C95	C	0.296599	0.815884	-0.000288
C96	C	0.796599	1.315884	0.499712
C97	C	0.087022	0.947223	-0.000317
C98	C	0.587022	1.447223	0.499683
C99	C	0.088151	1.024327	-0.000348
C100	C	0.588151	1.524327	0.499652
N101	N	0.092480	0.820202	0.246384
N102	N	0.592480	1.320202	0.746384
N103	N	0.092495	0.820237	-0.246932
N104	N	0.592495	1.320237	0.253068
C105	C	0.045131	0.867583	0.296191
C106	C	0.545131	1.367583	0.796191
C107	C	0.045131	0.867588	0.395848
C108	C	0.545131	1.367588	0.895848
C109	C	0.092483	0.820214	0.445698
C110	C	0.592483	1.320214	0.945698
C111	C	0.139834	0.772827	0.395885
C112	C	0.639834	1.272827	0.895885
C113	C	0.139830	0.772820	0.296229
C114	C	0.639830	1.272820	0.796229
C115	C	0.139839	0.772847	0.603599
C116	C	0.639839	1.272847	1.103599
C117	C	0.139843	0.772856	0.703262
C118	C	0.639843	1.272856	1.203262
C119	C	0.045139	0.867615	0.703218
C120	C	0.545139	1.367615	1.203218
C121	C	0.045136	0.867608	0.603563
C122	C	0.545136	1.367608	1.103563
C123	C	0.092488	0.820222	0.553756
C124	C	0.592488	1.320222	1.053756
H125	H	-0.696685	0.815986	0.156292
H126	H	-0.196685	1.315986	0.656292
H127	H	0.006583	0.906198	0.743776
H128	H	0.506583	1.406198	1.243776
H129	H	0.178387	0.734251	0.436478
H130	H	0.678387	1.234251	0.936478
H131	H	0.205027	0.147108	-0.000323
H132	H	0.705027	0.647108	0.499677
H133	H	0.203098	0.015682	-0.000348
H134	H	0.703098	0.515682	0.499652
H135	H	0.006581	0.906187	0.562975
H136	H	0.506581	1.406187	1.062975
Br137	Br	-0.023061	0.250197	-0.131074
Br138	Br	0.476939	0.750197	0.368926
H139	H	0.005474	0.397752	-0.100916
H140	H	0.505474	0.897752	0.399084
H141	H	-0.565219	0.817910	-0.156861
H142	H	-0.065219	1.317910	0.343139
Br143	Br	-0.269425	0.822246	-0.203708
Br144	Br	0.230575	1.322246	0.296292
Br145	Br	-0.061257	0.031375	-0.000334
Br146	Br	0.438743	0.531375	0.499666
H147	H	-0.118369	0.824443	0.156312
H148	H	0.381631	1.324443	0.656312
Br149	Br	-0.019132	0.931886	0.228548
Br150	Br	0.480868	1.431886	0.728548
Br151	Br	0.204110	0.708559	0.770908
Br152	Br	0.704110	1.208559	1.270908
Br153	Br	0.204088	0.708509	0.228635
Br154	Br	0.704088	1.208509	0.728635
H155	H	-0.696652	0.815978	-0.156875
H156	H	-0.196652	1.315978	0.343125
H157	H	0.181434	0.374112	0.100368
H158	H	0.681434	0.874112	0.600368
Br159	Br	-0.052201	0.649026	-0.000177
Br160	Br	0.447799	1.149026	0.499823
H161	H	-0.463356	0.745438	0.119705
H162	H	0.036644	1.245438	0.619705
Br163	Br	-0.545594	0.818199	0.203147
Br164	Br	-0.045594	1.318199	0.703147
Br165	Br	-0.309308	0.725559	0.155614
Br166	Br	0.190692	1.225559	0.655614
Br167	Br	-0.054701	0.478261	-0.000229
Br168	Br	0.445299	0.978261	0.499771
Br169	Br	0.204101	0.708533	0.536008
Br170	Br	0.704101	1.208533	1.036008
H171	H	-0.024674	0.177865	-0.000311
H172	H	0.475326	0.677865	0.499689
Br173	Br	0.246234	0.609059	-0.000230
Br174	Br	0.746234	1.109059	0.499770
H175	H	-0.249797	0.822525	0.156310
H176	H	0.250203	1.322525	0.656310
H177	H	0.006575	0.906169	0.436400
H178	H	0.506575	1.406169	0.936400
Br179	Br	0.243727	0.438297	-0.000256
Br180	Br	0.743727	0.938297	0.499744
H181	H	-0.118331	0.824451	-0.156848
H182	H	0.381669	1.324451	0.343152
Br183	Br	-0.334960	0.917394	-0.156155
Br184	Br	0.165040	1.417394	0.343845
Br185	Br	-0.505717	0.914874	-0.156184
Br186	Br	-0.005717	1.414874	0.343816
H187	H	0.179504	0.242680	0.100338
H188	H	0.679504	0.742680	0.600338
