data_functionalizedCrystal
_audit_creation_method	'MofGen! by Chris Wilmer'
_symmetry_space_group_name_H-M	'P1'
_symmetry_Int_Tables_number	1
_symmetry_cell_setting	triclinic
loop_
_symmetry_equiv_pos_as_xyz
  x,y,z
_cell_length_a	21.606444
_cell_length_b	14.395555
_cell_length_c	14.395555
_cell_angle_alpha	89.996384
_cell_angle_beta	120.002458
_cell_angle_gamma	60.002563
loop_
_atom_site_label
_atom_site_type_symbol
_atom_site_fract_x
_atom_site_fract_y
_atom_site_fract_z
Zr1	Zr	0.677471	0.894925	0.122019
O2	O	0.806591	0.746602	0.270376
O3	O	0.548344	0.940393	0.076517
O4	O	0.677455	0.940402	0.270333
O5	O	0.677495	0.746586	-0.076299
O6	O	0.677450	1.093276	0.270325
O7	O	0.677480	0.746593	0.076560
O8	O	0.446494	1.093260	-0.076376
O9	O	0.908451	0.746602	0.270401
O10	O	0.601455	1.073874	0.057133
O11	O	0.601469	0.959781	-0.056939
O12	O	0.753481	0.959792	0.171254
O13	O	0.753496	0.845699	0.057183
Zr14	Zr	0.677487	1.138731	-0.121787
Zr15	Zr	0.677464	1.138741	0.122006
Zr16	Zr	0.677495	0.894915	-0.121774
Zr17	Zr	0.839926	0.894926	0.122060
Zr18	Zr	0.515032	1.138730	-0.121828
O19	O	0.806615	1.093263	-0.076285
O20	O	0.806581	1.093277	0.270357
O21	O	0.806625	0.746587	-0.076267
O22	O	0.548367	1.287055	-0.270143
O23	O	0.548333	1.287069	0.076499
O24	O	0.548378	0.940379	-0.270125
O25	O	0.677464	1.287070	0.076531
O26	O	0.677503	1.093254	-0.270101
O27	O	0.677508	0.940380	-0.270093
O28	O	0.677479	1.287064	-0.076328
O29	O	0.908445	0.940404	0.270391
O30	O	0.446513	1.093252	-0.270159
O31	O	0.446507	1.287054	-0.270169
O32	O	0.446488	1.287062	-0.076386
O33	O	0.908470	0.746595	0.076618
O34	O	0.908464	0.940396	0.076608
O35	O	0.601477	1.073865	-0.171022
O36	O	0.601463	1.187957	-0.056951
O37	O	0.753489	1.073875	0.057171
O38	O	0.753504	0.959782	-0.056900
C39	C	0.474273	1.016826	0.000065
C40	C	0.405306	1.016826	0.000048
C41	C	0.429035	0.932607	0.084288
C42	C	0.364246	0.932609	0.084311
C43	C	0.275728	1.016828	0.000089
C44	C	0.251999	1.101056	-0.084155
C45	C	0.316788	1.101057	-0.084173
C46	C	-0.009287	1.101055	-0.084084
C47	C	-0.074076	1.101046	-0.084061
C48	C	0.038171	0.932608	0.084401
C49	C	0.102959	0.932609	0.084383
C50	C	0.079225	1.016840	0.000142
C51	C	0.149478	1.016837	0.000119
C52	C	0.205476	1.016827	0.000107
C53	C	0.677488	0.711851	0.000132
C54	C	0.677491	0.608344	0.000138
C55	C	0.760383	0.485553	0.062352
C56	C	0.718938	0.454719	0.107414
C57	C	0.718933	0.454755	-0.044916
C58	C	0.636046	0.578874	0.045262
C59	C	0.636053	0.578907	-0.107127
C60	C	0.594547	0.548146	-0.062092
C61	C	0.880686	1.016830	0.000167
C62	C	0.949652	1.016830	0.000184
C63	C	0.677449	1.016841	0.305064
C64	C	0.677439	1.016845	0.408561
C65	C	0.677470	1.321805	0.000100
C66	C	0.677467	1.425312	0.000094
C67	C	0.594556	1.079058	0.468842
C68	C	0.635974	1.124150	0.437978
C69	C	0.636000	0.971805	0.438033
C70	C	0.718883	1.062009	0.562130
C71	C	0.718896	0.909604	0.562182
C72	C	0.760375	0.954670	0.531391
C73	C	0.677495	1.016826	0.695158
C74	C	0.677464	1.016854	0.591630
C75	C	0.474263	1.321804	0.000049
C76	C	0.405294	1.425310	0.000026
C77	C	0.474302	1.016814	-0.304883
C78	C	0.405346	1.016809	-0.408397
C79	C	0.474293	1.321791	-0.304899
C80	C	0.405334	1.425293	-0.408419
C81	C	0.880665	0.711865	0.305131
C82	C	0.949625	0.608363	0.408651
C83	C	0.880695	0.711853	0.000183
C84	C	0.949665	0.608347	0.000206
C85	C	0.880656	1.016842	0.305115
C86	C	0.949612	1.016847	0.408629
C87	C	0.372901	1.414367	0.059576
C88	C	0.308106	1.511612	0.059577
C89	C	0.275700	1.619800	0.000021
C90	C	0.308099	1.630740	-0.059530
C91	C	0.372898	1.533496	-0.059524
C92	C	0.372967	1.076357	-0.516569
C93	C	0.308185	1.076348	-0.613840
C94	C	0.275777	1.016797	-0.602938
C95	C	0.308162	0.957242	-0.494754
C96	C	0.372948	0.957245	-0.397485
C97	C	0.372942	1.533464	-0.397488
C98	C	0.308156	1.630724	-0.494747
C99	C	0.275759	1.619811	-0.602934
C100	C	0.308157	1.511628	-0.613862
C101	C	0.372946	1.414371	-0.516605
C102	C	0.982024	0.500192	0.397721
C103	C	1.046830	0.402932	0.494979
C104	C	1.079231	0.413845	0.603166
C105	C	1.046828	0.522028	0.614094
C106	C	0.982028	0.619286	0.516837
C107	C	0.982064	0.619290	-0.059334
C108	C	1.046877	0.522044	-0.059308
C109	C	1.079285	0.413857	0.000251
C110	C	1.046883	0.402916	0.059798
C111	C	0.982075	0.500160	0.059779
C112	C	0.981999	1.076410	0.397690
C113	C	1.046782	1.076437	0.494943
C114	C	1.079182	1.016893	0.603134
C115	C	1.046789	0.957329	0.614071
C116	C	0.982002	0.957309	0.516819
H117	H	0.501108	0.864014	0.152859
H118	H	1.073179	0.908850	0.702173
H119	H	0.399302	0.908757	-0.309411
C120	C	0.588637	1.246667	0.365671
H121	H	0.529746	1.290770	0.342660
H122	H	0.617513	1.279096	0.409444
H123	H	0.589433	1.245717	0.300282
C124	C	0.946394	0.891771	0.528866
H125	H	0.974980	0.856306	0.607231
H126	H	0.885217	0.943151	0.493394
H127	H	0.957037	0.835400	0.493424
H128	H	0.955697	0.491234	0.108260
C129	C	0.154633	1.193693	-0.176799
H130	H	0.119444	1.181625	-0.164732
H131	H	0.142192	1.266399	-0.173322
H132	H	0.142191	1.190188	-0.249507
C133	C	-0.171449	1.193691	-0.176704
H134	H	-0.206633	1.181616	-0.164632
H135	H	-0.183890	1.266396	-0.173221
H136	H	-0.183897	1.190196	-0.249416
H137	H	0.399311	1.326297	-0.525520
H138	H	0.399310	1.542372	-0.309406
C139	C	0.204486	1.726801	-0.709906
H140	H	0.189832	1.792783	-0.687892
H141	H	0.225720	1.726821	-0.753903
H142	H	0.153923	1.726814	-0.753908
C143	C	0.588784	0.651208	-0.229611
H144	H	0.618334	0.607874	-0.261507
H145	H	0.530198	0.673079	-0.274146
H146	H	0.588682	0.717270	-0.228740
H147	H	0.281784	1.718802	-0.485829
C148	C	0.408541	1.295371	0.125094
H149	H	0.451769	1.239012	0.116571
H150	H	0.433817	1.286845	0.203443
H151	H	0.362019	1.286840	0.095676
C152	C	1.150452	1.016914	0.710101
H153	H	1.165102	1.060908	0.688080
H154	H	1.129217	1.048799	0.754096
H155	H	1.201018	0.941038	0.754106
H156	H	1.073249	0.530974	-0.107803
H157	H	0.281766	0.908757	-0.485894
H158	H	0.281705	1.718839	-0.108018
C159	C	0.272506	1.499638	-0.732871
H160	H	0.229274	1.573060	-0.789219
H161	H	0.319015	1.459231	-0.741412
H162	H	0.247214	1.459243	-0.741409
C163	C	0.390346	0.839961	0.176963
H164	H	0.339085	0.852025	0.164920
H165	H	0.424015	0.767262	0.173465
H166	H	0.424032	0.843451	0.249671
H167	H	0.281824	1.124850	-0.701918
C168	C	1.150570	0.306898	0.000260
H169	H	1.165214	0.328920	-0.043742
H170	H	1.201128	0.262899	0.076138
H171	H	1.129333	0.262900	-0.031639
H172	H	0.600946	0.933706	0.384538
C173	C	0.855065	0.451201	0.133524
H174	H	0.864689	0.480299	0.086598
H175	H	0.864272	0.481500	0.194046
H176	H	0.894648	0.370605	0.163823
H177	H	0.281734	1.502682	0.108071
H178	H	0.175033	0.864026	0.152961
H179	H	0.830517	0.902075	0.557027
C180	C	0.946396	0.488171	0.278725
H181	H	0.903156	0.561580	0.222356
H182	H	0.992918	0.447769	0.270209
H183	H	0.921120	0.447754	0.270193
C184	C	0.946368	1.141917	0.278693
H185	H	0.974936	1.177399	0.286123
H186	H	0.956996	1.090518	0.238282
H187	H	0.885188	1.198272	0.238268
H188	H	0.057490	0.864027	0.152997
C189	C	0.766172	1.113630	0.634187
H190	H	0.765864	1.113357	0.699948
H191	H	0.824894	1.069787	0.656571
H192	H	0.736913	1.189612	0.590493
H193	H	1.073201	0.314855	0.486059
C194	C	1.082413	1.141945	0.482892
H195	H	1.053847	1.177382	0.404527
H196	H	1.071785	1.198317	0.518328
H197	H	1.143594	1.090535	0.518371
H198	H	1.131995	0.334643	0.682350
C199	C	1.082468	0.534018	0.733103
H200	H	1.125692	0.460597	0.789451
H201	H	1.107748	0.574427	0.741659
H202	H	1.035945	0.574411	0.741626
H203	H	0.753909	0.818927	0.615699
H204	H	0.955649	0.707361	0.525750
H205	H	-0.028623	1.169641	-0.152677
C206	C	1.082532	0.283907	0.125298
H207	H	1.125760	0.227568	0.116764
H208	H	1.107808	0.275357	0.203651
H209	H	1.036013	0.275368	0.095864
H210	H	0.955683	0.707372	-0.107841
C211	C	0.204415	1.726758	0.000012
H212	H	0.189762	1.704736	0.044000
H213	H	0.225640	1.770767	0.031896
H214	H	0.153854	1.770747	-0.075874
C215	C	0.766279	0.382500	-0.096386
H216	H	0.825169	0.359501	-0.052079
H217	H	0.765474	0.317123	-0.096688
H218	H	0.737410	0.426318	-0.172144
H219	H	0.297461	1.169636	-0.152770
C220	C	0.766253	0.382420	0.229928
H221	H	0.825150	0.359394	0.274051
H222	H	0.737376	0.426201	0.262348
H223	H	0.765439	0.317045	0.228966
C224	C	0.408513	1.545547	-0.125049
H225	H	0.379922	1.623909	-0.160525
H226	H	0.469688	1.510092	-0.073654
H227	H	0.397881	1.510094	-0.181414
H228	H	0.601031	0.632234	0.083452
C229	C	0.408615	1.141851	-0.528584
H230	H	0.380055	1.177296	-0.606945
H231	H	0.397993	1.198217	-0.493139
H232	H	0.469795	1.090430	-0.493101
H233	H	0.524398	0.573801	-0.114710
C234	C	0.204511	1.016804	-0.709937
H235	H	0.189847	0.972804	-0.687959
H236	H	0.153960	1.092680	-0.753944
H237	H	0.225770	0.984912	-0.753913
C238	C	0.499884	1.150203	0.434515
H239	H	0.470559	1.226401	0.391287
H240	H	0.470144	1.118951	0.390095
H241	H	0.500546	1.149166	0.500999
