data_functionalizedCrystal
_audit_creation_method	'MofGen! by Chris Wilmer'
_symmetry_space_group_name_H-M	'P1'
_symmetry_Int_Tables_number	1
_symmetry_cell_setting	triclinic
loop_
_symmetry_equiv_pos_as_xyz
  x,y,z
_cell_length_a	21.395362
_cell_length_b	18.050589
_cell_length_c	21.395355
_cell_angle_alpha	89.987098
_cell_angle_beta	89.956060
_cell_angle_gamma	90.044101
loop_
_atom_site_label
_atom_site_type_symbol
_atom_site_fract_x
_atom_site_fract_y
_atom_site_fract_z
Zn1	Zn	0.957870	-0.295431	-0.354610
Zn2	Zn	1.291204	0.037903	-0.021277
Zn3	Zn	1.624537	0.371236	0.312057
Zn4	Zn	0.957777	-0.419603	-0.249843
Zn5	Zn	1.291111	-0.086269	0.083491
Zn6	Zn	1.624444	0.247064	0.416824
Zn7	Zn	0.853085	-0.295465	-0.249811
Zn8	Zn	1.186419	0.037868	0.083522
Zn9	Zn	1.519752	0.371201	0.416855
Zn10	Zn	0.853059	-0.419618	-0.354548
Zn11	Zn	1.186392	-0.086285	-0.021214
Zn12	Zn	1.519726	0.247049	0.312119
O13	O	0.905448	-0.357529	-0.302203
O14	O	1.238781	-0.024196	0.031130
O15	O	1.572115	0.309138	0.364464
O16	O	1.045536	-0.311882	-0.340752
O17	O	1.378869	0.021452	-0.007418
O18	O	1.712203	0.354785	0.325915
O19	O	0.943862	-0.403144	-0.162161
O20	O	1.277195	-0.069810	0.171173
O21	O	1.610528	0.263523	0.504506
O22	O	0.867035	-0.191536	-0.263726
O23	O	1.200368	0.141797	0.069607
O24	O	1.533702	0.475131	0.402941
O25	O	1.045468	-0.403110	-0.263780
O26	O	1.378801	-0.069777	0.069554
O27	O	1.712134	0.263557	0.402887
O28	O	0.944020	-0.191511	-0.340721
O29	O	1.277354	0.141823	-0.007388
O30	O	1.610687	0.475156	0.325945
O31	O	0.866945	-0.311940	-0.162138
O32	O	1.200278	0.021393	0.171196
O33	O	1.533612	0.354726	0.504529
O34	O	0.765404	-0.311955	-0.263665
O35	O	1.098737	0.021378	0.069668
O36	O	1.432071	0.354711	0.403001
O37	O	0.866990	-0.403136	-0.442234
O38	O	1.200324	-0.069803	-0.108900
O39	O	1.533657	0.263531	0.224433
O40	O	0.765385	-0.403170	-0.340615
O41	O	1.098718	-0.069836	-0.007281
O42	O	1.432051	0.263497	0.326052
O43	O	0.943995	-0.311896	-0.442280
O44	O	1.277328	0.021437	-0.108946
O45	O	1.610661	0.354770	0.224387
O46	O	0.943836	-0.523529	-0.263719
O47	O	1.277170	-0.190196	0.069614
O48	O	1.610503	0.143137	0.402948
O49	O	0.866900	-0.523540	-0.340645
O50	O	1.200234	-0.190207	-0.007312
O51	O	1.533567	0.143126	0.326021
C52	C	0.742660	-0.357568	-0.302130
C53	C	1.075994	-0.024235	0.031203
C54	C	1.409327	0.309098	0.364536
C55	C	0.673019	-0.357603	-0.302114
C56	C	1.006352	-0.024270	0.031219
C57	C	1.339686	0.309064	0.364553
C58	C	0.640312	-0.405161	-0.342121
C59	C	0.973646	-0.071828	-0.008788
C60	C	1.306979	0.261505	0.324545
C61	C	0.574877	-0.405143	-0.342149
C62	C	0.908210	-0.071810	-0.008816
C63	C	1.241544	0.261524	0.324517
C64	C	0.542151	-0.357574	-0.302159
C65	C	0.875484	-0.024241	0.031175
C66	C	1.208817	0.309092	0.364508
C67	C	0.574865	-0.310007	-0.262148
C68	C	0.908199	0.023326	0.071185
C69	C	1.241532	0.356660	0.404518
C70	C	0.640300	-0.310021	-0.262126
C71	C	0.973633	0.023312	0.071207
C72	C	1.306966	0.356645	0.404541
C73	C	0.438426	-0.351592	-0.245753
C74	C	0.771759	-0.018258	0.087580
C75	C	1.105092	0.315075	0.420914
C76	C	0.372993	-0.351583	-0.245774
C77	C	0.706326	-0.018249	0.087559
C78	C	1.039660	0.315084	0.420893
C79	C	0.340330	-0.357526	-0.302228
C80	C	0.673663	-0.024193	0.031106
C81	C	1.006997	0.309141	0.364439
C82	C	0.373108	-0.363494	-0.358662
C83	C	0.706442	-0.030161	-0.025329
C84	C	1.039775	0.303173	0.308005
C85	C	0.438542	-0.363508	-0.358640
C86	C	0.771876	-0.030175	-0.025306
C87	C	1.105209	0.303158	0.308027
C88	C	0.471198	-0.357553	-0.302179
C89	C	0.804532	-0.024220	0.031155
C90	C	1.137865	0.309113	0.364488
C91	C	0.236671	-0.405067	-0.342269
C92	C	0.570004	-0.071734	-0.008936
C93	C	0.903337	0.261600	0.324398
C94	C	0.171234	-0.405044	-0.342298
C95	C	0.504568	-0.071710	-0.008965
C96	C	0.837901	0.261623	0.324369
C97	C	0.171224	-0.309911	-0.262291
C98	C	0.504557	0.023422	0.071042
C99	C	0.837891	0.356755	0.404375
C100	C	0.236659	-0.309931	-0.262268
C101	C	0.569993	0.023402	0.071065
C102	C	0.903326	0.356736	0.404399
C103	C	0.269379	-0.357513	-0.302256
C104	C	0.602712	-0.024179	0.031077
C105	C	0.936045	0.309154	0.364411
C106	C	0.905372	-0.550481	-0.302192
C107	C	1.238706	-0.217148	0.031141
C108	C	1.572039	0.116185	0.364474
C109	C	0.905397	-0.633027	-0.302209
C110	C	1.238731	-0.299694	0.031124
C111	C	1.572064	0.033640	0.364458
C112	C	0.863601	-0.832511	-0.344027
C113	C	1.196934	-0.499177	-0.010693
C114	C	1.530267	-0.165844	0.322640
C115	C	0.848322	-0.881943	-0.286848
C116	C	1.181656	-0.548610	0.046485
C117	C	1.514989	-0.215277	0.379818
C118	C	0.905459	-0.784157	-0.302217
C119	C	1.238792	-0.450824	0.031116
C120	C	1.572126	-0.117491	0.364449
C121	C	0.920768	-0.881806	-0.359402
C122	C	1.254101	-0.548473	-0.026069
C123	C	1.587435	-0.215140	0.307265
C124	C	0.905517	-0.930142	-0.302230
C125	C	1.238850	-0.596809	0.031103
C126	C	1.572184	-0.263476	0.364437
C127	C	0.890151	-0.832503	-0.245009
C128	C	1.223484	-0.499170	0.088325
C129	C	1.556817	-0.165836	0.421658
C130	C	0.962623	-0.832361	-0.317601
C131	C	1.295956	-0.499028	0.015733
C132	C	1.629289	-0.165695	0.349066
C133	C	0.947366	-0.881772	-0.260383
C134	C	1.280700	-0.548438	0.072950
C135	C	1.614033	-0.215105	0.406284
C136	C	0.905424	-0.700059	-0.302211
C137	C	1.238757	-0.366726	0.031123
C138	C	1.572090	-0.033392	0.364456
C139	C	0.905552	-1.014239	-0.302230
C140	C	1.238886	-0.680906	0.031103
C141	C	1.572219	-0.347572	0.364436
C142	C	1.068871	-0.357490	-0.302276
C143	C	1.402205	-0.024157	0.031057
C144	C	1.735538	0.309176	0.364390
C145	C	1.138513	-0.357474	-0.302307
C146	C	1.471846	-0.024140	0.031026
C147	C	1.805179	0.309193	0.364359
C148	C	0.905500	-0.357514	-0.465626
C149	C	1.238833	-0.024181	-0.132293
C150	C	1.572167	0.309153	0.201040
C151	C	0.905522	-0.357508	-0.535268
C152	C	1.238856	-0.024174	-0.201934
C153	C	1.572189	0.309159	0.131399
C154	C	0.905541	-0.163823	-0.302227
C155	C	1.238874	0.169510	0.031106
C156	C	1.572208	0.502843	0.364440
C157	C	0.905581	-0.081278	-0.302237
C158	C	1.238914	0.252056	0.031096
C159	C	1.572247	0.585389	0.364429
C160	C	0.945617	-0.309997	-0.568006
C161	C	1.278950	0.023336	-0.234672
C162	C	1.612283	0.356670	0.098661
C163	C	0.945616	-0.309965	-0.633441
C164	C	1.278949	0.023368	-0.300108
C165	C	1.612282	0.356701	0.033226
C166	C	0.905527	-0.357457	-0.666136
C167	C	1.238860	-0.024124	-0.332803
C168	C	1.572194	0.309210	0.000531
C169	C	0.865425	-0.404971	-0.633390
C170	C	1.198758	-0.071638	-0.300057
C171	C	1.532091	0.261696	0.033277
C172	C	0.865422	-0.404996	-0.567956
C173	C	1.198756	-0.071663	-0.234622
C174	C	1.532089	0.261670	0.098711
C175	C	0.900554	-0.424328	-0.769805
C176	C	1.233887	-0.090994	-0.436472
C177	C	1.567220	0.242339	-0.103139
C178	C	0.900560	-0.424304	-0.835238
C179	C	1.233894	-0.090970	-0.501905
C180	C	1.567227	0.242363	-0.168572
C181	C	0.905531	-0.357379	-0.867957
C182	C	1.238864	-0.024045	-0.534623
C183	C	1.572198	0.309288	-0.201290
C184	C	0.910508	-0.290475	-0.835234
C185	C	1.243841	0.042858	-0.501901
C186	C	1.577174	0.376191	-0.168568
C187	C	0.910505	-0.290501	-0.769800
C188	C	1.243839	0.042833	-0.436467
C189	C	1.577172	0.376166	-0.103133
C190	C	0.905525	-0.357435	-0.737088
C191	C	1.238858	-0.024101	-0.403755
C192	C	1.572192	0.309232	-0.070422
C193	C	0.945627	-0.309829	-0.971647
C194	C	1.278960	0.023504	-0.638314
C195	C	1.612293	0.356837	-0.304981
C196	C	0.945621	-0.309796	-1.037084
C197	C	1.278955	0.023537	-0.703751
C198	C	1.612288	0.356870	-0.370417
C199	C	0.865434	-0.404809	-1.037032
C200	C	1.198767	-0.071475	-0.703698
C201	C	1.532100	0.261858	-0.370365
C202	C	0.865436	-0.404835	-0.971596
C203	C	1.198769	-0.071502	-0.638263
C204	C	1.532102	0.261832	-0.304930
C205	C	0.905535	-0.357347	-0.938908
C206	C	1.238869	-0.024013	-0.605575
C207	C	1.572202	0.309320	-0.272241
C208	C	0.905432	-0.357490	-0.139415
C209	C	1.238766	-0.024157	0.193918
C210	C	1.572099	0.309176	0.527251
C211	C	0.905531	-0.357288	-0.069774
C212	C	1.238865	-0.023954	0.263559
C213	C	1.572198	0.309379	0.596892
H214	H	0.263312	-0.443807	-0.374833
H215	H	0.596646	-0.110474	-0.041499
H216	H	0.929979	0.222860	0.291834
H217	H	0.978264	-0.271272	-0.660102
H218	H	1.311598	0.062061	-0.326768
H219	H	1.644931	0.395394	0.006565
H220	H	0.465228	-0.368366	-0.404590
H221	H	0.798561	-0.035032	-0.071257
H222	H	1.131894	0.298301	0.262076
C223	C	0.915972	-0.216916	-0.733804
C224	C	1.249305	0.116418	-0.400471
C225	C	1.582638	0.449751	-0.067138
H226	H	0.915262	-0.226520	-0.690149
H227	H	1.248595	0.106814	-0.356816
H228	H	1.581929	0.440147	-0.023483
H229	H	0.881904	-0.185681	-0.744500
H230	H	1.215237	0.147652	-0.411166
H231	H	1.548570	0.480986	-0.077833
H232	H	0.954131	-0.193154	-0.744551
H233	H	1.287464	0.140179	-0.411217
H234	H	1.620797	0.473512	-0.077884
H235	H	0.832782	-0.443637	-0.660014
H236	H	1.166116	-0.110303	-0.326681
H237	H	1.499449	0.223030	0.006652
H238	H	0.465014	-0.346749	-0.199778
H239	H	0.798348	-0.013415	0.133555
H240	H	1.131681	0.319918	0.466888
H241	H	0.548242	-0.443870	-0.374731
H242	H	0.881575	-0.110537	-0.041397
H243	H	1.214908	0.222796	0.291936
C244	C	0.821320	-0.457262	-0.531940
C245	C	1.154654	-0.123928	-0.198606
C246	C	1.487987	0.209405	0.134727
H247	H	0.827059	-0.450473	-0.488287
H248	H	1.160393	-0.117139	-0.154954
H249	H	1.493726	0.216194	0.178379
H250	H	0.830463	-0.507154	-0.542675
H251	H	1.163797	-0.173820	-0.209342
H252	H	1.497130	0.159513	0.123991
H253	H	0.779226	-0.446392	-0.542629
H254	H	1.112559	-0.113059	-0.209296
H255	H	1.445892	0.220275	0.124038
H256	H	0.933693	-0.903463	-0.407758
H257	H	1.267026	-0.570130	-0.074424
H258	H	1.600360	-0.236797	0.258909
C259	C	0.538870	-0.257683	-0.218160
C260	C	0.872203	0.075650	0.115174
C261	C	1.205536	0.408984	0.448507
H262	H	0.495215	-0.264491	-0.223898
H263	H	0.828548	0.068843	0.109435
H264	H	1.161881	0.402176	0.442768
H265	H	0.549643	-0.207803	-0.227398
H266	H	0.882976	0.125530	0.105936
H267	H	1.216309	0.458863	0.439269
H268	H	0.549539	-0.268484	-0.176040
H269	H	0.882872	0.064850	0.157293
H270	H	1.216206	0.398183	0.490626
C271	C	0.989728	-0.257591	-0.935685
C272	C	1.323061	0.075742	-0.602351
C273	C	1.656394	0.409075	-0.269018
H274	H	0.983990	-0.264418	-0.892025
H275	H	1.317324	0.068915	-0.558692
H276	H	1.650657	0.402249	-0.225359
H277	H	0.980583	-0.207690	-0.946395
H278	H	1.313916	0.125643	-0.613061
H279	H	1.647249	0.458976	-0.279728
H280	H	1.031822	-0.268450	-0.946443
H281	H	1.365155	0.064883	-0.613110
H282	H	1.698489	0.398217	-0.279776
C283	C	0.989734	-0.257542	-1.073099
C284	C	1.323067	0.075792	-0.739766
C285	C	1.656400	0.409125	-0.406432
H286	H	0.983990	-0.264323	-1.116751
H287	H	1.317324	0.069010	-0.783418
H288	H	1.650657	0.402343	-0.450085
H289	H	1.031823	-0.268418	-1.062405
H290	H	1.365156	0.064916	-0.729072
H291	H	1.698489	0.398249	-0.395739
H292	H	0.980595	-0.207643	-1.062366
H293	H	1.313929	0.125690	-0.729033
H294	H	1.647262	0.459023	-0.395700
H295	H	0.666948	-0.443905	-0.374684
H296	H	1.000282	-0.110572	-0.041350
H297	H	1.333615	0.222762	0.291983
C298	C	0.989720	-0.257756	-0.532052
C299	C	1.323053	0.075577	-0.198719
C300	C	1.656386	0.408911	0.134615
H301	H	1.013595	-0.229451	-0.560925
H302	H	1.346928	0.103882	-0.227592
H303	H	1.680262	0.437215	0.105741
H304	H	1.017004	-0.286166	-0.506547
H305	H	1.350337	0.047167	-0.173213
H306	H	1.683670	0.380500	0.160120
H307	H	0.965763	-0.225408	-0.506508
H308	H	1.299096	0.107925	-0.173175
H309	H	1.632430	0.441258	0.160158
C310	C	0.915975	-0.216852	-0.871212
C311	C	1.249308	0.116482	-0.537879
C312	C	1.582642	0.449815	-0.204546
H313	H	0.918943	-0.177014	-0.842353
H314	H	1.252276	0.156319	-0.509020
H315	H	1.585609	0.489653	-0.175686
H316	H	0.880071	-0.210320	-0.896710
H317	H	1.213404	0.123013	-0.563377
H318	H	1.546737	0.456346	-0.230043
H319	H	0.952297	-0.217799	-0.896766
H320	H	1.285631	0.115535	-0.563433
H321	H	1.618964	0.448868	-0.230099
C322	C	0.337188	-0.370029	-0.420765
C323	C	0.670522	-0.036696	-0.087431
C324	C	1.003855	0.296637	0.245902
H325	H	0.293524	-0.369157	-0.412699
H326	H	0.626857	-0.035824	-0.079365
H327	H	0.960191	0.297509	0.253968
H328	H	0.347895	-0.415278	-0.440732
H329	H	0.681229	-0.081944	-0.107398
H330	H	1.014562	0.251389	0.225935
H331	H	0.347977	-0.329673	-0.447172
H332	H	0.681311	0.003660	-0.113839
H333	H	1.014644	0.336993	0.219495
H334	H	0.828150	-0.810879	-0.379334
H335	H	1.161484	-0.477546	-0.046000
H336	H	1.494817	-0.144213	0.287333
C337	C	0.135254	-0.457357	-0.386309
C338	C	0.468587	-0.124024	-0.052976
C339	C	0.801920	0.209309	0.280358
H340	H	0.091597	-0.450529	-0.380602
H341	H	0.424930	-0.117195	-0.047268
H342	H	0.758263	0.216138	0.286065
H343	H	0.145924	-0.507242	-0.377062
H344	H	0.479257	-0.173908	-0.043728
H345	H	0.812591	0.159425	0.289605
H346	H	0.146035	-0.446563	-0.428421
H347	H	0.479369	-0.113230	-0.095087
H348	H	0.812702	0.220103	0.238246
H349	H	0.144579	-0.271177	-0.229733
H350	H	0.477912	0.062157	0.103600
H351	H	0.811246	0.395490	0.436934
H352	H	0.832786	-0.443470	-1.063651
H353	H	1.166120	-0.110137	-0.730318
H354	H	1.499453	0.223197	-0.396985
H355	H	0.800008	-0.903738	-0.273849
H356	H	1.133341	-0.570405	0.059485
H357	H	1.466675	-0.237071	0.392818
H358	H	0.896338	-0.478812	-0.743171
H359	H	1.229672	-0.145479	-0.409838
H360	H	1.563005	0.187854	-0.076505
C361	C	0.272639	-0.257626	-0.218251
C362	C	0.605972	0.075708	0.115082
C363	C	0.939305	0.409041	0.448415
H364	H	0.243778	-0.229297	-0.194433
H365	H	0.577112	0.104037	0.138900
H366	H	0.910445	0.437370	0.472233
H367	H	0.298219	-0.225315	-0.242253
H368	H	0.631553	0.108019	0.091080
H369	H	0.964886	0.441352	0.424413
H370	H	0.298108	-0.286000	-0.190900
H371	H	0.631442	0.047333	0.142433
H372	H	0.964775	0.380666	0.475766
H373	H	0.832790	-0.443528	-0.944941
H374	H	1.166123	-0.110195	-0.611607
H375	H	1.499457	0.223139	-0.278274
H376	H	0.666929	-0.271291	-0.229547
H377	H	1.000262	0.062042	0.103786
H378	H	1.333596	0.395375	0.437120
H379	H	1.010926	-0.810569	-0.330628
H380	H	1.344259	-0.477235	0.002705
H381	H	1.677593	-0.143902	0.336039
C382	C	0.895094	-0.497891	-0.871230
C383	C	1.228427	-0.164558	-0.537897
C384	C	1.561761	0.168775	-0.204563
H385	H	0.895817	-0.488293	-0.914886
H386	H	1.229151	-0.154960	-0.581552
H387	H	1.562484	0.178373	-0.248219
H388	H	0.856939	-0.521653	-0.860485
H389	H	1.190272	-0.188320	-0.527151
H390	H	1.523606	0.145013	-0.193818
H391	H	0.929166	-0.529124	-0.860530
H392	H	1.262500	-0.195791	-0.527196
H393	H	1.595833	0.137543	-0.193863
C394	C	0.336940	-0.345071	-0.183698
C395	C	0.670273	-0.011737	0.149635
C396	C	1.003607	0.321596	0.482968
H397	H	0.293292	-0.345938	-0.191794
H398	H	0.626625	-0.012605	0.141539
H399	H	0.959959	0.320728	0.474873
H400	H	0.347660	-0.299837	-0.163699
H401	H	0.680993	0.033496	0.169634
H402	H	1.014327	0.366829	0.502968
H403	H	0.347620	-0.385447	-0.157306
H404	H	0.680953	-0.052113	0.176028
H405	H	1.014286	0.281220	0.509361
C406	C	0.995217	-0.910817	-0.212575
C407	C	1.328551	-0.577484	0.120759
C408	C	1.661884	-0.244151	0.454092
H409	H	0.984261	-0.893845	-0.171994
H410	H	1.317594	-0.560512	0.161339
H411	H	1.650927	-0.227178	0.494673
H412	H	1.035682	-0.893090	-0.223151
H413	H	1.369015	-0.559757	0.110182
H414	H	1.702349	-0.226424	0.443515
H415	H	0.995219	-0.963444	-0.213076
H416	H	1.328552	-0.630110	0.120257
H417	H	1.661885	-0.296777	0.453590
C418	C	0.872608	-0.803373	-0.179668
C419	C	1.205941	-0.470040	0.153665
C420	C	1.539274	-0.136707	0.486998
H421	H	0.872671	-0.750744	-0.180068
H422	H	1.206004	-0.417410	0.153265
H423	H	1.539338	-0.084077	0.486598
H424	H	0.902174	-0.820633	-0.149948
H425	H	1.235507	-0.487299	0.183385
H426	H	1.568840	-0.153966	0.516719
H427	H	0.832144	-0.820764	-0.168685
H428	H	1.165477	-0.487430	0.164649
H429	H	1.498811	-0.154097	0.497982
