data_functionalizedCrystal
_audit_creation_method	'MofGen! by Chris Wilmer'
_symmetry_space_group_name_H-M	'P1'
_symmetry_Int_Tables_number	1
_symmetry_cell_setting	triclinic
loop_
_symmetry_equiv_pos_as_xyz
  x,y,z
_cell_length_a	17.699083
_cell_length_b	7.088906
_cell_length_c	17.699083
_cell_angle_alpha	96.211154
_cell_angle_beta	83.283015
_cell_angle_gamma	83.803343
loop_
_atom_site_label
_atom_site_type_symbol
_atom_site_fract_x
_atom_site_fract_y
_atom_site_fract_z
O1	O	-0.996307	-0.158708	-0.103491
O2	O	-0.775925	-0.158775	-0.115947
O3	O	-0.892343	-0.158723	0.000471
O4	O	-0.879889	-0.158760	-0.219909
O5	O	-0.907899	0.159260	0.016062
O6	O	-0.791481	0.159207	-0.100356
O7	O	-1.011863	0.159275	-0.087900
Cu8	Cu	-0.903092	0.188275	-0.092704
Cu9	Cu	-0.884695	-0.187776	-0.111143
O10	O	-0.895445	0.159222	-0.204318
C11	C	-0.755506	0.000208	-0.107706
C12	C	-0.671486	0.000182	-0.106368
C13	C	-0.622865	0.000171	-0.174702
C14	C	-0.543923	0.000194	-0.173439
C15	C	-0.513603	0.000216	-0.103841
C16	C	-0.562231	0.000233	-0.035502
C17	C	-0.641172	0.000224	-0.036765
C18	C	-0.243870	0.000275	-0.030404
C19	C	-0.164922	0.000280	-0.029146
C20	C	-0.146620	0.000246	-0.167078
C21	C	-0.225562	0.000236	-0.168341
C22	C	-0.274183	0.000264	-0.100002
C23	C	-0.359781	0.000242	-0.101372
C24	C	-0.428006	0.000224	-0.102470
N25	N	-0.916037	0.452769	-0.079735
C26	C	-0.032282	0.000283	-0.096142
C27	C	-0.116300	0.000281	-0.097480
C28	C	-0.899675	0.000269	0.036464
C29	C	-0.898336	0.000269	0.120482
N30	N	-0.871750	0.547731	-0.124112
C31	C	-0.888113	0.000227	-0.240311
C32	C	-0.889451	0.000214	-0.324329
C33	C	-0.966671	0.000293	0.169104
C34	C	-0.965408	0.000275	0.248046
C35	C	-0.895810	0.000248	0.278366
C36	C	-0.827470	0.000219	0.229737
C37	C	-0.828733	0.000222	0.150796
C38	C	-0.822374	0.000202	0.548099
C39	C	-0.821116	0.000204	0.627048
C40	C	-0.959048	0.000255	0.645350
C41	C	-0.960312	0.000258	0.566409
C42	C	-0.891971	0.000219	0.517786
C43	C	-0.893342	0.000234	0.432188
C44	C	-0.894439	0.000247	0.363963
H45	H	-0.107023	0.000234	-0.222723
H46	H	-1.014694	0.000277	0.684948
H47	H	-0.961943	0.534446	-0.033751
H48	H	-0.250243	0.000210	-0.225015
O49	O	-0.753433	0.000076	0.656370
C50	C	-0.616754	0.000105	0.629893
C51	C	-0.693343	0.000203	0.596582
H52	H	-0.568153	0.000247	0.581573
H53	H	-0.606161	-0.133003	0.659839
H54	H	-0.619262	0.133147	0.672946
H55	H	-0.690892	-0.132750	0.553499
H56	H	-0.703908	0.133398	0.566684
H57	H	-1.023346	0.000326	0.144425
O58	O	-1.031863	0.000396	0.295175
C59	C	-1.168807	0.000364	0.304994
C60	C	-1.093602	0.000271	0.251538
H61	H	-1.218741	0.000222	0.269733
H62	H	-1.178223	0.133469	0.348927
H63	H	-1.165120	-0.132681	0.335898
H64	H	-1.097234	0.133226	0.220582
H65	H	-1.084213	-0.132922	0.207652
O66	O	-0.755993	-0.000163	0.500831
C67	C	-0.669317	-0.164875	0.392979
C68	C	-0.744505	-0.164723	0.446470
H69	H	-0.660013	-0.297886	0.349005
H70	H	-0.619327	-0.165010	0.428173
H71	H	-0.672977	-0.031743	0.362127
H72	H	-0.740920	-0.297832	0.477334
H73	H	-0.794464	-0.164488	0.411236
H74	H	-1.016986	0.000290	0.541728
O75	O	-0.759826	-0.000151	0.259135
C76	C	-0.633472	-0.164877	0.259528
C77	C	-0.710047	-0.164723	0.226188
H78	H	-0.593199	-0.297899	0.232892
H79	H	-0.644257	-0.164994	0.324299
H80	H	-0.606253	-0.031755	0.246037
H81	H	-0.737306	-0.297823	0.239622
H82	H	-0.699213	-0.164507	0.161425
H83	H	-0.140240	0.000300	0.027532
O84	O	-0.817069	0.450402	-0.179072
C85	C	-0.769627	0.388858	-0.313769
C86	C	-0.831612	0.499180	-0.251606
H87	H	-0.781354	0.428284	-0.372426
H88	H	-0.770682	0.228626	-0.312771
H89	H	-0.710919	0.428089	-0.302120
H90	H	-0.890351	0.460109	-0.263213
H91	H	-0.830490	0.659385	-0.252619
H92	H	-0.647544	0.000152	-0.231377
H93	H	-0.504337	0.000182	-0.229083
H94	H	-0.537540	0.000278	0.021167
O95	O	-0.290981	0.000210	0.036043
C96	C	-0.300803	0.000365	0.172996
C97	C	-0.247356	0.000392	0.097795
H98	H	-0.265555	0.000553	0.222944
H99	H	-0.331689	-0.132739	0.169385
H100	H	-0.344748	0.133411	0.182335
H101	H	-0.203367	-0.132564	0.088410
H102	H	-0.216526	0.133584	0.101442
H103	H	-0.680760	0.000232	0.018879
H104	H	-0.773088	0.000203	0.111208
