data_functionalizedCrystal
_audit_creation_method	'MofGen! by Chris Wilmer'
_symmetry_space_group_name_H-M	'P1'
_symmetry_Int_Tables_number	1
_symmetry_cell_setting	triclinic
loop_
_symmetry_equiv_pos_as_xyz
  x,y,z
_cell_length_a	15.995350
_cell_length_b	15.995350
_cell_length_c	14.472310
_cell_angle_alpha	89.998838
_cell_angle_beta	90.009379
_cell_angle_gamma	83.492375
loop_
_atom_site_label
_atom_site_type_symbol
_atom_site_fract_x
_atom_site_fract_y
_atom_site_fract_z
O1	O	-1.110997	-0.107921	-0.076758
O2	O	-0.867221	-0.121248	-0.076776
O3	O	-0.995773	0.007303	-0.076766
O4	O	-0.982445	-0.236472	-0.076769
O5	O	-0.995740	0.007296	0.076916
O6	O	-0.867188	-0.121256	0.076906
O7	O	-1.110963	-0.107928	0.076924
Cu8	Cu	-0.989073	-0.114593	0.090947
Cu9	Cu	-0.989112	-0.114584	-0.090800
O10	O	-0.982412	-0.236480	0.076913
C11	C	-0.836010	-0.120701	0.000062
C12	C	-0.743060	-0.119049	0.000055
C13	C	-0.995205	0.038494	0.000073
C14	C	-0.993553	0.131444	0.000068
C15	C	-1.142175	-0.108476	0.000083
C16	C	-1.235125	-0.110127	0.000084
C17	C	-0.405312	-0.113117	0.000074
C18	C	-0.452746	-0.021565	0.000418
C19	C	-0.549436	-0.023217	0.000065
C20	C	-0.572873	-0.116060	0.000065
C21	C	-0.531804	-0.161212	-0.087692
C22	C	-0.435169	-0.158912	-0.087759
C23	C	-0.434792	-0.160812	0.087007
C24	C	-0.531737	-0.160790	0.088160
C25	C	-0.667570	-0.117727	0.000057
C26	C	-0.310614	-0.111452	0.000076
C27	C	-0.982980	-0.267671	0.000072
C28	C	-0.984631	-0.360621	0.000071
N29	N	-0.989051	-0.114598	0.218778
C30	C	-0.987621	0.469192	0.000071
C31	C	-0.896069	0.421758	-0.000281
C32	C	-0.897721	0.325068	0.000066
C33	C	-0.990564	0.301631	0.000069
C34	C	-1.035701	0.342705	0.087831
C35	C	-1.033401	0.439340	0.087904
C36	C	-1.035330	0.439707	-0.086861
C37	C	-1.035309	0.342762	-0.088021
C38	C	-0.992231	0.206934	0.000071
C39	C	-0.985956	0.563890	0.000075
N40	N	-0.989140	-0.114572	-0.218631
C41	C	-0.989111	-0.114581	0.592869
C42	C	-0.920095	-0.183135	0.553698
C43	C	-0.920254	-0.183385	0.446610
C44	C	-0.989081	-0.114590	0.407278
C45	C	-1.076445	-0.133671	0.446122
C46	C	-1.076057	-0.134159	0.553243
C47	C	-0.971542	-0.026741	0.553398
C48	C	-0.969538	-0.027327	0.446270
C49	C	-0.989069	-0.114593	0.302390
C50	C	-0.989128	-0.114579	0.697757
H51	H	-0.577852	0.012275	0.062973
N52	N	-1.031802	0.043420	0.410827
H53	H	-1.073748	0.019801	0.368805
H54	H	-1.062380	0.073060	0.464724
H55	H	-0.560193	-0.129845	-0.153002
N56	N	-1.124996	0.322424	-0.095037
H57	H	-1.152103	0.349666	-0.152233
H58	H	-1.125433	0.259432	-0.098913
N59	N	-1.124744	0.481770	-0.087635
H60	H	-1.164976	0.437486	-0.085579
H61	H	-1.134253	0.519743	-0.031976
H62	H	-0.434210	0.015027	0.063352
H63	H	-0.931473	-0.248569	0.420976
N64	N	-0.989764	0.463580	0.174797
H65	H	-0.930526	0.434036	0.176277
H66	H	-0.987896	0.526477	0.175665
H67	H	-0.433166	0.014865	-0.062168
H68	H	-1.129029	-0.085068	0.420643
H69	H	-0.414242	-0.130885	0.153524
H70	H	-0.559040	-0.127830	0.153082
H71	H	-0.416874	-0.125979	-0.153359
N72	N	-0.550523	-0.251558	-0.092032
H73	H	-0.527196	-0.282572	-0.035185
H74	H	-0.613404	-0.253206	-0.094868
H75	H	-1.100617	0.471588	0.091888
H76	H	-0.402921	-0.226128	-0.091741
N77	N	-0.850726	0.287423	-0.083271
H78	H	-0.889951	0.257348	-0.122766
H79	H	-0.828756	0.333682	-0.120484
N80	N	-0.934771	-0.269003	0.589294
H81	H	-0.985928	-0.263688	0.630689
H82	H	-0.944211	-0.306955	0.535419
H83	H	-0.547101	-0.228494	0.093461
N84	N	-0.847789	0.447700	0.082611
H85	H	-0.884963	0.490045	0.120389
H86	H	-0.829523	0.396588	0.121727
H87	H	-0.403031	-0.228313	0.087600
H88	H	-1.103909	0.328579	0.091097
H89	H	-0.859490	0.440293	-0.063217
H90	H	-0.861973	0.297200	0.063079
H91	H	-1.004324	0.314320	0.153137
N92	N	-1.096565	-0.219011	0.586337
H93	H	-1.105770	-0.255747	0.531339
H94	H	-1.048312	-0.246533	0.624664
H95	H	-0.909219	-0.008392	0.580461
N96	N	-1.146099	-0.070509	0.587575
H97	H	-1.177095	-0.042265	0.533119
H98	H	-1.186444	-0.099913	0.626260
N99	N	-0.995702	0.466917	-0.174972
H100	H	-0.975489	0.415702	-0.213097
H101	H	-1.038682	0.504658	-0.211350
N102	N	-0.991646	0.306607	-0.174020
H103	H	-0.994016	0.243796	-0.175773
H104	H	-1.020725	0.333357	-0.230403
H105	H	-0.855314	-0.172016	0.420349
N106	N	-1.097446	-0.217558	0.410575
H107	H	-1.052646	-0.263390	0.431107
H108	H	-1.153790	-0.229197	0.435963
H109	H	-0.854945	-0.171953	0.579481
H110	H	-0.905272	-0.012845	0.420883
N111	N	-0.586366	0.024123	-0.083403
H112	H	-0.539824	0.046142	-0.120114
H113	H	-0.616222	-0.014946	-0.123326
H114	H	-1.021872	0.024275	0.578728
