data_functionalizedCrystal
_audit_creation_method	'MofGen! by Chris Wilmer'
_symmetry_space_group_name_H-M	'P1'
_symmetry_Int_Tables_number	1
_symmetry_cell_setting	triclinic
loop_
_symmetry_equiv_pos_as_xyz
  x,y,z
_cell_length_a	27.731994
_cell_length_b	27.732048
_cell_length_c	16.776229
_cell_angle_alpha	89.988391
_cell_angle_beta	89.998937
_cell_angle_gamma	82.631595
loop_
_atom_site_label
_atom_site_type_symbol
_atom_site_fract_x
_atom_site_fract_y
_atom_site_fract_z
O1	O	0.640946	0.057393	-0.066183
O2	O	1.140946	0.557393	0.433817
O3	O	0.500149	0.066166	-0.066211
O4	O	1.000149	0.566166	0.433789
O5	O	0.574920	-0.008618	-0.066181
O6	O	1.074920	0.491382	0.433819
O7	O	0.566175	0.132177	-0.066213
O8	O	1.066175	0.632177	0.433787
O9	O	0.574910	-0.008622	0.066396
O10	O	1.074910	0.491378	0.566396
O11	O	0.500139	0.066162	0.066366
O12	O	1.000139	0.566162	0.566366
O13	O	0.640936	0.057389	0.066393
O14	O	1.140936	0.557389	0.566393
Zn15	Zn	0.570536	0.061775	0.087429
Zn16	Zn	1.070536	0.561775	0.587429
Zn17	Zn	0.570549	0.061781	-0.087246
Zn18	Zn	1.070549	0.561781	0.412754
O19	O	0.566165	0.132173	0.066364
O20	O	1.066165	0.632173	0.566364
C21	C	0.482137	0.065984	0.000074
C22	C	0.982137	0.565984	0.500074
C23	C	0.428480	0.065442	0.000064
C24	C	0.928480	0.565442	0.500064
C25	C	0.095756	0.062023	0.072363
C26	C	0.595756	0.562023	0.572363
C27	C	-0.105902	0.059962	0.072373
C28	C	0.394098	0.559962	0.572373
O29	O	-0.131979	0.059672	0.133833
O30	O	0.368021	0.559672	0.633833
N31	N	-0.131111	0.059708	0.000105
N32	N	0.368889	0.559708	0.500105
C33	C	-0.105903	0.059967	-0.072169
C34	C	0.394097	0.559967	0.427831
O35	O	-0.131971	0.059699	-0.133637
O36	O	0.368029	0.559699	0.366363
C37	C	0.095755	0.062025	-0.072178
C38	C	0.595755	0.562025	0.427822
C39	C	0.120961	0.062283	0.000094
C40	C	0.620961	0.562283	0.500094
C41	C	0.120963	0.062281	0.144629
C42	C	0.620963	0.562281	0.644629
C43	C	0.171374	0.062799	0.144626
C44	C	0.671374	0.562799	0.644626
C45	C	0.196579	0.063059	0.072357
C46	C	0.696579	0.563059	0.572357
C47	C	0.171372	0.062801	0.000091
C48	C	0.671372	0.562801	0.500091
C49	C	0.120963	0.062280	-0.144452
C50	C	0.620963	0.562280	0.355548
C51	C	0.171381	0.062793	-0.144448
C52	C	0.671381	0.562793	0.355552
C53	C	0.196587	0.063052	-0.072176
C54	C	0.696587	0.563052	0.427824
C55	C	0.246988	0.063580	-0.072182
C56	C	0.746988	0.563580	0.427818
N57	N	0.272198	0.063833	0.000086
N58	N	0.772198	0.563833	0.500086
C59	C	0.246993	0.063573	0.072355
C60	C	0.746993	0.563573	0.572355
C61	C	-0.211776	0.058887	-0.072160
C62	C	0.288224	0.558887	0.427840
C63	C	-0.262190	0.058374	-0.072158
C64	C	0.237810	0.558374	0.427842
C65	C	-0.262186	0.058368	0.072385
C66	C	0.237814	0.558368	0.572385
C67	C	-0.211771	0.058885	0.072382
C68	C	0.288229	0.558885	0.572382
C69	C	-0.186566	0.059141	0.000108
C70	C	0.313434	0.559141	0.500108
C71	C	0.352860	0.064661	0.072343
C72	C	0.852860	0.564661	0.572343
C73	C	0.403275	0.065181	0.072334
C74	C	0.903275	0.565181	0.572334
C75	C	0.403267	0.065185	-0.072208
C76	C	0.903267	0.565185	0.427792
C77	C	0.352856	0.064667	-0.072199
C78	C	0.852856	0.564667	0.427801
C79	C	0.327654	0.064404	0.000083
C80	C	0.827654	0.564404	0.500083
O81	O	0.273097	0.063864	-0.133610
O82	O	0.773097	0.563864	0.366390
O83	O	0.273072	0.063830	0.133813
O84	O	0.773072	0.563830	0.633813
C85	C	0.045345	0.061505	0.072366
C86	C	0.545345	0.561505	0.572366
C87	C	0.020139	0.061247	0.000100
C88	C	0.520139	0.561247	0.500100
C89	C	0.045344	0.061507	-0.072169
C90	C	0.545344	0.561507	0.427831
C91	C	-0.030275	0.060734	0.000102
C92	C	0.469725	0.560734	0.500102
C93	C	-0.055480	0.060474	0.072371
C94	C	0.444520	0.560474	0.572371
C95	C	-0.030271	0.060727	0.144639
C96	C	0.469729	0.560727	0.644639
C97	C	0.020140	0.061245	0.144636
C98	C	0.520140	0.561245	0.644636
C99	C	0.020134	0.061254	-0.144436
C100	C	0.520134	0.561254	0.355564
C101	C	-0.030277	0.060736	-0.144427
C102	C	0.469723	0.560736	0.355573
C103	C	-0.055482	0.060476	-0.072158
C104	C	0.444518	0.560476	0.427842
C105	C	0.574732	-0.026627	0.000110
C106	C	1.074732	0.473373	0.500110
C107	C	0.574179	-0.080282	0.000116
C108	C	1.074179	0.419718	0.500116
C109	C	0.614884	-0.419105	0.000083
C110	C	1.114884	0.080895	0.500083
C111	C	0.612833	-0.620764	0.000072
C112	C	1.112833	-0.120764	0.500072
O113	O	0.650055	-0.652027	0.000044
O114	O	1.150055	-0.152027	0.500044
N115	N	0.568496	-0.639879	0.000064
N116	N	1.068496	-0.139879	0.500064
C117	C	0.524670	-0.608576	0.000053
C118	C	1.024670	-0.108576	0.500053
O119	O	0.486912	-0.629462	0.000038
O120	O	0.986912	-0.129462	0.500038
C121	C	0.526721	-0.406918	0.000059
C122	C	1.026721	0.093082	0.500059
C123	C	0.571061	-0.387805	0.000075
C124	C	1.071061	0.112195	0.500075
C125	C	0.659220	-0.399992	0.000098
C126	C	1.159220	0.100008	0.500098
C127	C	0.659732	-0.349580	0.000106
C128	C	1.159732	0.150420	0.500106
C129	C	0.615908	-0.318281	0.000098
C130	C	1.115908	0.181719	0.500098
C131	C	0.571573	-0.337394	0.000082
C132	C	1.071573	0.162606	0.500082
C133	C	0.482895	-0.375615	0.000043
C134	C	0.982895	0.124385	0.500043
C135	C	0.483412	-0.325198	0.000042
C136	C	0.983412	0.174802	0.500042
C137	C	0.527751	-0.306086	0.000059
C138	C	1.027751	0.193914	0.500059
C139	C	0.528262	-0.255683	0.000082
C140	C	1.028262	0.244317	0.500082
N141	N	0.572598	-0.236567	0.000090
N142	N	1.072598	0.263433	0.500090
C143	C	0.616421	-0.267867	0.000098
C144	C	1.116421	0.232133	0.500098
C145	C	0.523596	-0.714450	0.000052
C146	C	1.023596	-0.214450	0.500052
C147	C	0.523083	-0.764864	0.000052
C148	C	1.023083	-0.264864	0.500052
C149	C	0.611246	-0.777049	0.000069
C150	C	1.111246	-0.277049	0.500069
C151	C	0.611759	-0.726633	0.000074
C152	C	1.111759	-0.226633	0.500074
C153	C	0.567932	-0.695335	0.000060
C154	C	1.067932	-0.195335	0.500060
C155	C	0.617494	-0.161998	0.000113
C156	C	1.117494	0.338002	0.500113
C157	C	0.618002	-0.111581	0.000124
C158	C	1.118002	0.388419	0.500124
C159	C	0.529839	-0.099401	0.000103
C160	C	1.029839	0.400599	0.500103
C161	C	0.529331	-0.149813	0.000097
C162	C	1.029331	0.350187	0.500097
C163	C	0.573162	-0.181111	0.000099
C164	C	1.073162	0.318889	0.500099
O165	O	0.491060	-0.224391	0.000100
O166	O	0.991060	0.275609	0.500100
O167	O	0.654174	-0.246971	0.000095
O168	O	1.154174	0.253029	0.500095
C169	C	0.614372	-0.469517	0.000076
C170	C	1.114372	0.030483	0.500076
C171	C	0.570036	-0.488629	0.000061
C172	C	1.070036	0.011371	0.500061
C173	C	0.526213	-0.457330	0.000053
C174	C	1.026213	0.042670	0.500053
C175	C	0.569523	-0.539043	0.000061
C176	C	1.069523	-0.039043	0.500061
C177	C	0.613346	-0.570343	0.000069
C178	C	1.113346	-0.070343	0.500069
C179	C	0.657683	-0.551228	0.000077
C180	C	1.157683	-0.051228	0.500077
C181	C	0.658195	-0.500816	0.000084
C182	C	1.158195	-0.000816	0.500084
C183	C	0.481876	-0.476445	0.000045
C184	C	0.981876	0.023555	0.500045
C185	C	0.481367	-0.526857	0.000038
C186	C	0.981367	-0.026857	0.500038
C187	C	0.525191	-0.558157	0.000046
C188	C	1.025191	-0.058157	0.500046
C189	C	0.658949	0.057571	0.000107
C190	C	1.158949	0.557571	0.500107
C191	C	0.712605	0.058114	0.000111
C192	C	1.212605	0.558114	0.500111
C193	C	0.566353	0.150182	0.000071
C194	C	1.066353	0.650182	0.500071
C195	C	0.566906	0.203837	0.000060
C196	C	1.066906	0.703837	0.500060
N197	N	0.570531	0.061770	0.206640
N198	N	1.070531	0.561770	0.706640
N199	N	0.570558	0.061781	-0.206457
N200	N	1.070558	0.561781	0.293543
C201	C	0.603650	0.028669	0.248371
C202	C	1.103650	0.528669	0.748371
C203	C	0.603652	0.028669	0.331823
C204	C	1.103652	0.528669	0.831823
C205	C	0.570538	0.061772	0.373543
C206	C	1.070538	0.561772	0.873543
C207	C	0.537416	0.094875	0.331807
C208	C	1.037416	0.594875	0.831807
C209	C	0.537411	0.094872	0.248356
C210	C	1.037411	0.594872	0.748356
C211	C	0.537433	0.094884	0.668354
C212	C	1.037433	0.594884	1.168354
C213	C	0.537441	0.094885	0.751811
C214	C	1.037441	0.594885	1.251811
C215	C	0.603674	0.028680	0.751821
C216	C	1.103674	0.528680	1.251821
C217	C	0.603670	0.028678	0.668370
C218	C	1.103670	0.528678	1.168370
C219	C	0.570546	0.061779	0.626641
C220	C	1.070546	0.561779	1.126641
C221	C	0.570543	0.061778	0.536153
C222	C	1.070543	0.561778	1.036153
C223	C	0.570543	0.061775	0.464030
C224	C	1.070543	0.561775	0.964030
H225	H	-0.282710	0.058171	-0.131009
H226	H	0.217290	0.558171	0.368991
H227	H	0.653186	-0.187475	0.000112
H228	H	1.153186	0.312525	0.500112
H229	H	0.510451	0.121826	0.365780
H230	H	1.010451	0.621826	0.865780
H231	H	0.695837	-0.334024	0.000115
H232	H	1.195837	0.165976	0.500115
H233	H	-0.282716	0.058157	0.131229
H234	H	0.217284	0.558157	0.631229
H235	H	0.630620	0.001715	0.365799
H236	H	1.130620	0.501715	0.865799
H237	H	0.100446	0.062068	0.203483
H238	H	0.600446	0.562068	0.703483
H239	H	0.646929	-0.802541	0.000075
H240	H	1.146929	-0.302541	0.500075
H241	H	0.630636	0.001724	0.634404
H242	H	1.130636	0.501724	1.134404
H243	H	0.510442	0.121826	0.214380
H244	H	1.010442	0.621826	0.714380
H245	H	-0.191252	0.059096	0.131232
H246	H	0.308748	0.559096	0.631232
H247	H	0.191893	0.063007	0.203478
H248	H	0.691893	0.563007	0.703478
H249	H	0.630644	0.001727	0.785805
H250	H	1.130644	0.501727	1.285805
H251	H	0.694908	-0.425472	0.000102
H252	H	1.194908	0.074528	0.500102
H253	H	-0.191259	0.059095	-0.131018
H254	H	0.308741	0.559095	0.368982
H255	H	0.100449	0.062069	-0.203304
H256	H	0.600449	0.562069	0.296696
H257	H	0.191900	0.063002	-0.203304
H258	H	0.691900	0.563002	0.296696
H259	H	0.510464	0.121836	0.634385
H260	H	1.010464	0.621836	1.134385
H261	H	0.493226	-0.165375	0.000106
H262	H	0.993226	0.334625	0.500106
H263	H	0.423796	0.065394	0.131189
H264	H	0.923796	0.565394	0.631189
H265	H	0.332331	0.064465	-0.131049
H266	H	0.832331	0.564465	0.368951
H267	H	0.040659	0.061456	0.203487
H268	H	0.540659	0.561456	0.703487
H269	H	0.630617	0.001715	0.214407
H270	H	1.130617	0.501715	0.714407
H271	H	0.486977	-0.780420	0.000053
H272	H	0.986977	-0.280420	0.500053
H273	H	0.423797	0.065399	-0.131048
H274	H	0.923797	0.565399	0.368952
H275	H	0.693365	-0.576720	0.000087
H276	H	1.193365	-0.076720	0.500087
H277	H	0.332346	0.064451	0.131202
H278	H	0.832346	0.564451	0.631202
H279	H	0.654110	-0.096023	0.000139
H280	H	1.154110	0.403977	0.500139
H281	H	0.647863	-0.711076	0.000087
H282	H	1.147863	-0.211076	0.500087
H283	H	0.510474	0.121842	0.785778
H284	H	1.010474	0.621842	1.285778
H285	H	0.446189	-0.450966	0.000037
H286	H	0.946189	0.049034	0.500037
H287	H	0.487905	-0.688970	0.000040
H288	H	0.987905	-0.188970	0.500040
H289	H	0.447722	-0.299716	0.000029
H290	H	0.947722	0.200284	0.500029
H291	H	-0.050802	0.060518	0.203483
H292	H	0.449198	0.560518	0.703483
H293	H	0.446789	-0.391167	0.000025
H294	H	0.946789	0.108833	0.500025
H295	H	-0.050796	0.060530	-0.203285
H296	H	0.449204	0.560530	0.296715
H297	H	0.694301	-0.485260	0.000097
H298	H	1.194301	0.014740	0.500097
H299	H	0.040651	0.061464	-0.203288
H300	H	0.540651	0.561464	0.296712
H301	H	0.494160	-0.073908	0.000099
H302	H	0.994160	0.426092	0.500099
H303	H	0.445258	-0.542413	0.000032
H304	H	0.945258	-0.042413	0.500032
