data_functionalizedCrystal
_audit_creation_method	'MofGen! by Chris Wilmer'
_symmetry_space_group_name_H-M	'P1'
_symmetry_Int_Tables_number	1
_symmetry_cell_setting	triclinic
loop_
_symmetry_equiv_pos_as_xyz
  x,y,z
_cell_length_a	12.645331
_cell_length_b	12.645330
_cell_length_c	12.645323
_cell_angle_alpha	90.026844
_cell_angle_beta	90.014855
_cell_angle_gamma	90.016927
loop_
_atom_site_label
_atom_site_type_symbol
_atom_site_fract_x
_atom_site_fract_y
_atom_site_fract_z
Zn1	Zn	1.620722	-0.422032	0.599250
Zn2	Zn	1.620606	-0.599326	0.421990
Zn3	Zn	1.443439	-0.422075	0.422016
Zn4	Zn	1.443418	-0.599252	0.599227
O5	O	1.532046	-0.510671	0.510621
O6	O	1.769054	-0.445564	0.575735
O7	O	1.597065	-0.575862	0.273646
O8	O	1.467013	-0.273722	0.445547
O9	O	1.768969	-0.575821	0.445503
O10	O	1.597262	-0.273690	0.575760
O11	O	1.466901	-0.445637	0.273665
O12	O	1.295089	-0.445564	0.445524
O13	O	1.466978	-0.575694	0.747577
O14	O	1.295074	-0.575735	0.575721
O15	O	1.597242	-0.445492	0.747594
O16	O	1.597045	-0.747663	0.445481
O17	O	1.466866	-0.747609	0.575696
C18	C	1.256617	-0.510647	0.510623
C19	C	1.138787	-0.510662	0.510650
C20	C	0.971248	-0.593002	0.592129
C21	C	1.093808	-0.592736	0.592470
C22	C	1.094308	-0.399007	0.541171
C23	C	0.971710	-0.399509	0.541745
C24	C	0.971543	-0.539079	0.398390
C25	C	1.094149	-0.541521	0.398996
C26	C	1.531969	-0.786101	0.510606
C27	C	1.532033	-0.903931	0.510635
C28	C	1.450475	-1.071504	0.592806
C29	C	1.450058	-0.948945	0.592542
C30	C	1.501789	-0.948528	0.398917
C31	C	1.501291	-1.071127	0.399415
C32	C	1.644334	-1.071021	0.539276
C33	C	1.643645	-0.948414	0.541719
C34	C	1.808552	-0.510696	0.510619
C35	C	1.926382	-0.510707	0.510618
C36	C	1.532120	-0.510580	0.787126
C37	C	1.532152	-0.510541	0.904956
C38	C	1.532153	-0.234166	0.510659
C39	C	1.532198	-0.116336	0.510675
C40	C	1.532034	-0.510686	0.235191
C41	C	1.532208	-0.510426	0.117361
C42	C	1.450207	-0.592434	0.949828
C43	C	1.449919	-0.592126	1.072388
C44	C	1.502283	-0.398642	1.072862
C45	C	1.501655	-0.399182	0.950264
C46	C	1.644240	-0.539430	0.950134
C47	C	1.643672	-0.541828	1.072740
H48	H	0.942527	-0.479136	0.337657
H49	H	1.124766	-0.485930	0.335006
H50	H	1.560155	-0.335923	1.101992
N51	N	1.345761	-0.568040	1.109218
N52	N	1.327447	-0.563623	1.206252
H53	H	1.253883	-0.546605	1.232264
H54	H	1.558232	-1.100787	0.336136
N55	N	1.473311	-0.696097	1.110163
N56	N	1.407984	-0.743926	1.166848
H57	H	1.424493	-0.817359	1.193531
H58	H	1.366926	-0.919710	0.573594
H59	H	1.558765	-0.336061	0.920579
N60	N	1.400664	-0.367414	1.111396
N61	N	1.350107	-0.427291	1.171618
H62	H	1.278336	-0.405242	1.198833
N63	N	1.400016	-0.910158	0.367977
N64	N	1.326607	-0.973830	0.349739
H65	H	1.254725	-0.946733	0.327894
H66	H	1.468654	-0.675605	0.920349
N67	N	1.473797	-0.911123	0.696465
N68	N	1.490788	-0.975271	0.769698
H69	H	1.507551	-0.948565	0.843099
H70	H	0.940456	-0.574468	0.674802
N71	N	1.678937	-1.109722	0.639732
N72	N	1.621364	-1.171181	0.691471
H73	H	1.645792	-1.198517	0.762421
N74	N	1.474061	-1.108384	0.697058
N75	N	1.474380	-1.205341	0.716258
H76	H	1.491066	-1.231383	0.789887
H77	H	1.705220	-1.100012	0.479457
N78	N	1.130617	-0.569182	0.696792
N79	N	1.065762	-0.552879	0.769573
H80	H	1.091756	-0.536242	0.843256
H81	H	0.942030	-0.335995	0.485098
N82	N	1.678477	-0.639991	0.911334
N83	N	1.620672	-0.691594	0.849905
H84	H	1.644842	-0.762618	0.822498
N85	N	1.131561	-0.696601	0.568491
N86	N	1.228753	-0.714175	0.564647
H87	H	1.255413	-0.787534	0.547714
N88	N	1.346843	-1.110279	0.569338
N89	N	1.332914	-1.170786	0.492388
H90	H	1.259725	-1.198173	0.475810
N91	N	0.935831	-0.369326	0.644658
N92	N	0.879185	-0.289088	0.655707
H93	H	0.853847	-0.267774	0.728392
N94	N	1.574101	-0.911954	0.320060
N95	N	1.648910	-0.852467	0.345379
H96	H	1.699983	-0.826635	0.289688
N97	N	1.672249	-0.911838	0.644863
N98	N	1.610721	-0.853224	0.695349
H99	H	1.630918	-0.827388	0.768196
N100	N	1.671979	-0.645033	1.109229
N101	N	1.610350	-0.695331	1.167882
H102	H	1.630339	-0.768221	1.193659
N103	N	1.724341	-0.472458	1.111159
N104	N	1.700889	-0.398410	1.172319
H105	H	1.757859	-0.349411	1.199456
H106	H	1.705289	-0.479779	0.921122
H107	H	1.123442	-0.336024	0.483657
N108	N	1.130607	-0.644594	0.370088
N109	N	1.065556	-0.716967	0.352589
H110	H	1.091312	-0.789761	0.332167
N111	N	1.724056	-0.909962	0.472146
N112	N	1.740554	-0.812792	0.464589
H113	H	1.797341	-0.785637	0.415443
N114	N	1.398468	-1.107130	0.369003
N115	N	1.361669	-1.082687	0.280580
H116	H	1.289047	-1.108111	0.259099
H117	H	1.367625	-0.573517	0.919025
N118	N	1.398884	-0.368513	0.914409
N119	N	1.328121	-0.346861	0.979929
H120	H	1.255535	-0.325201	0.954612
H121	H	0.941757	-0.676075	0.573212
H122	H	0.940621	-0.619111	0.370649
N123	N	1.132858	-0.368273	0.642976
N124	N	1.193076	-0.428408	0.693228
H125	H	1.220303	-0.406708	0.765130
