data_functionalizedCrystal
_audit_creation_method	'MofGen! by Chris Wilmer'
_symmetry_space_group_name_H-M	'P1'
_symmetry_Int_Tables_number	1
_symmetry_cell_setting	triclinic
loop_
_symmetry_equiv_pos_as_xyz
  x,y,z
_cell_length_a	10.654545
_cell_length_b	10.654550
_cell_length_c	9.730223
_cell_angle_alpha	89.996328
_cell_angle_beta	90.002141
_cell_angle_gamma	95.515995
loop_
_atom_site_label
_atom_site_type_symbol
_atom_site_fract_x
_atom_site_fract_y
_atom_site_fract_z
O1	O	1.667841	-0.176371	0.114276
O2	O	1.302362	-0.193183	0.114282
O3	O	1.493505	-0.002037	0.114270
O4	O	1.476699	-0.367516	0.114287
O5	O	1.493495	-0.002034	-0.114310
O6	O	1.302352	-0.193179	-0.114298
O7	O	1.667831	-0.176367	-0.114304
Zn8	Zn	1.485090	-0.184773	-0.150593
Zn9	Zn	1.485103	-0.184777	0.150571
O10	O	1.476688	-0.367513	-0.114292
C11	C	1.255559	-0.191948	-0.000008
C12	C	1.116115	-0.188258	-0.000006
C13	C	1.050605	-0.186519	-0.124606
C14	C	0.919586	-0.183032	-0.124606
C15	C	0.919597	-0.183027	0.124605
C16	C	1.050616	-0.186506	0.124603
C17	C	1.492266	0.044762	-0.000019
C18	C	1.488574	0.184206	-0.000017
C19	C	1.714634	-0.177602	-0.000012
C20	C	1.854078	-0.181292	-0.000005
C21	C	1.477927	-0.414312	-0.000000
C22	C	1.481619	-0.553755	0.000007
N23	N	1.485090	-0.184769	-0.356130
C24	C	1.601115	0.263693	-0.000018
C25	C	1.597639	0.394714	-0.000002
C26	C	1.369069	0.366747	0.000012
C27	C	1.372547	0.235729	0.000005
C28	C	1.569763	-0.100162	-0.571953
C29	C	1.569755	-0.100163	-0.428070
C30	C	1.400436	-0.269387	-0.428080
C31	C	1.400451	-0.269391	-0.571960
N32	N	1.485113	-0.184771	0.356107
H33	H	1.695592	0.221748	-0.000033
H34	H	1.103931	-0.187946	-0.226070
H35	H	0.866253	-0.181616	-0.226067
H36	H	0.866251	-0.181601	0.226057
C37	C	1.178797	0.171542	0.117512
C38	C	1.248829	0.148348	0.000005
H39	H	1.102420	0.117601	0.117509
H40	H	1.226330	0.155804	0.197204
H41	H	1.160128	0.256948	0.117500
H42	H	1.267506	0.062944	0.000022
H43	H	1.201286	0.164076	-0.079707
H44	H	1.331504	-0.338281	-0.369498
H45	H	1.103956	-0.187918	0.226074
C46	C	1.823916	0.409188	-0.000036
C47	C	1.721349	0.482087	-0.000012
H48	H	1.900291	0.463131	-0.000050
H49	H	1.820528	0.357499	0.079666
H50	H	1.820498	0.357510	-0.079757
H51	H	1.724762	0.533758	0.079714
H52	H	1.724739	0.533798	-0.079723
C53	C	1.262247	0.555172	0.000011
C54	C	1.241537	0.423386	0.000016
H55	H	1.183510	0.590133	0.000001
H56	H	1.308626	0.582376	0.079718
H57	H	1.308633	0.582380	-0.079705
H58	H	1.195158	0.396177	0.079738
H59	H	1.195137	0.396171	-0.079698
C60	C	1.737127	0.067106	-0.557486
C61	C	1.662827	-0.007154	-0.651023
H62	H	1.794586	0.124520	-0.606301
H63	H	1.684454	0.112765	-0.501382
H64	H	1.782746	0.014394	-0.501355
H65	H	1.617201	0.045558	-0.707148
H66	H	1.715507	-0.052816	-0.707151
C67	C	1.595252	0.070693	-0.266545
C68	C	1.662696	-0.006954	-0.349114
H69	H	1.652605	0.128291	-0.217833
H70	H	1.542487	0.116143	-0.322771
H71	H	1.544941	0.020299	-0.203015
H72	H	1.713001	0.043439	-0.412651
H73	H	1.715483	-0.052408	-0.292883
H74	H	1.331518	-0.338296	-0.630537
