data_functionalizedCrystal
_audit_creation_method	'MofGen! by Chris Wilmer'
_symmetry_space_group_name_H-M	'P1'
_symmetry_Int_Tables_number	1
_symmetry_cell_setting	triclinic
loop_
_symmetry_equiv_pos_as_xyz
  x,y,z
_cell_length_a	19.188905
_cell_length_b	10.540539
_cell_length_c	17.666332
_cell_angle_alpha	90.000523
_cell_angle_beta	90.013693
_cell_angle_gamma	96.169976
loop_
_atom_site_label
_atom_site_type_symbol
_atom_site_fract_x
_atom_site_fract_y
_atom_site_fract_z
O1	O	0.927214	-0.158312	0.063070
O2	O	1.427214	0.341688	0.563070
O3	O	0.724042	-0.179678	0.063043
O4	O	1.224042	0.320322	0.563043
O5	O	0.830263	0.015815	0.063056
O6	O	1.330263	0.515815	0.563056
O7	O	0.820993	-0.353804	0.063057
O8	O	1.320993	0.146196	0.563057
O9	O	0.830249	0.015808	-0.062841
O10	O	1.330249	0.515808	0.437159
O11	O	0.724028	-0.179684	-0.062853
O12	O	1.224028	0.320316	0.437147
O13	O	0.927200	-0.158318	-0.062827
O14	O	1.427200	0.341682	0.437173
Cu15	Cu	0.825613	-0.169002	-0.074336
Cu16	Cu	1.325613	0.330998	0.425664
Cu17	Cu	0.825629	-0.168994	0.074552
Cu18	Cu	1.325629	0.331006	0.574552
O19	O	0.820979	-0.353811	-0.062840
O20	O	1.320979	0.146189	0.437160
C21	C	0.698019	-0.178994	0.000092
C22	C	1.198019	0.321006	0.500092
C23	C	0.620500	-0.176933	0.000082
C24	C	1.120500	0.323067	0.500082
C25	C	0.584110	-0.175940	0.068710
C26	C	1.084110	0.324060	0.568710
C27	C	0.511273	-0.173989	0.068720
C28	C	1.011273	0.326011	0.568720
C29	C	0.474831	-0.173006	0.000097
C30	C	0.974831	0.326994	0.500097
C31	C	0.511230	-0.174007	-0.068541
C32	C	1.011230	0.325993	0.431459
C33	C	0.584065	-0.175971	-0.068548
C34	C	1.084065	0.324029	0.431452
N35	N	0.365303	-0.097692	-0.050973
N36	N	0.865303	0.402308	0.449027
N37	N	0.296114	-0.095824	-0.050961
N38	N	0.796114	0.404176	0.449039
C39	C	0.255385	-0.167093	0.000115
C40	C	0.755385	0.332907	0.500115
N41	N	0.286461	-0.240284	0.051190
N42	N	0.786461	0.259716	0.551190
N43	N	0.355657	-0.242147	0.051181
N44	N	0.855657	0.257853	0.551181
C45	C	0.395855	-0.170878	0.000097
C46	C	0.895855	0.329122	0.500097
C47	C	0.140017	-0.163986	0.068758
C48	C	0.640017	0.336014	0.568758
C49	C	0.067178	-0.162043	0.068765
C50	C	0.567178	0.337957	0.568765
C51	C	0.067138	-0.162049	-0.068497
C52	C	0.567138	0.337951	0.431503
C53	C	0.139974	-0.164004	-0.068502
C54	C	0.639974	0.335996	0.431498
C55	C	0.176410	-0.164967	0.000128
C56	C	0.676410	0.335033	0.500128
C57	C	0.829561	0.063099	0.000109
C58	C	1.329561	0.563099	0.500109
C59	C	0.827481	0.204001	0.000113
C60	C	1.327481	0.704001	0.500113
C61	C	0.953223	-0.159002	0.000126
C62	C	1.453223	0.340998	0.500126
C63	C	1.030742	-0.161063	0.000141
C64	C	1.530742	0.338937	0.500141
C65	C	0.821681	-0.401095	0.000109
C66	C	1.321681	0.098905	0.500109
C67	C	0.823761	-0.541997	0.000110
C68	C	1.323761	-0.041997	0.500110
C69	C	0.747779	0.385658	0.000385
C70	C	1.247779	0.885658	0.500385
C71	C	0.749887	0.239087	0.000102
C72	C	1.249887	0.739087	0.500102
C73	C	0.864814	0.266484	-0.071775
C74	C	1.364814	0.766484	0.428225
C75	C	0.862166	0.412969	-0.071836
C76	C	1.362166	0.912969	0.428164
C77	C	0.863761	0.413530	0.071332
C78	C	1.363761	0.913530	0.571332
C79	C	0.864475	0.266564	0.072283
C80	C	1.364475	0.766564	0.572283
N81	N	0.825606	-0.169007	-0.179055
N82	N	1.325606	0.330993	0.320945
C83	C	0.868368	-0.245756	-0.781098
C84	C	1.368368	0.254244	-0.281098
C85	C	0.868361	-0.245769	-0.701851
C86	C	1.368361	0.254231	-0.201851
C87	C	0.825636	-0.168981	-0.662236
C88	C	1.325636	0.331019	-0.162236
C89	C	0.782901	-0.092200	-0.701876
C90	C	1.282901	0.407800	-0.201876
C91	C	0.782904	-0.092199	-0.781122
C92	C	1.282904	0.407801	-0.281122
N93	N	0.823204	-0.057793	-0.537813
N94	N	1.323204	0.442207	-0.037813
N95	N	0.823205	-0.057797	-0.462532
N96	N	1.323205	0.442203	0.037468
C97	C	0.825623	-0.168981	-0.423472
C98	C	1.325623	0.331019	0.076528
N99	N	0.828054	-0.280162	-0.462537
N100	N	1.328054	0.219838	0.037463
N101	N	0.828056	-0.280157	-0.537824
N102	N	1.328056	0.219843	-0.037824
C103	C	0.825628	-0.168974	-0.576307
C104	C	1.325628	0.331026	-0.076307
C105	C	0.868345	-0.245778	-0.297913
C106	C	1.368345	0.254222	0.202087
C107	C	0.868333	-0.245793	-0.218664
C108	C	1.368333	0.254207	0.281336
C109	C	0.782876	-0.092212	-0.218691
C110	C	1.282876	0.407788	0.281309
C111	C	0.782884	-0.092209	-0.297938
C112	C	1.282884	0.407791	0.202062
C113	C	0.825622	-0.168990	-0.337545
C114	C	1.325622	0.331010	0.162455
N115	N	0.825642	-0.168980	0.179271
N116	N	1.325642	0.331020	0.679271
H117	H	0.037550	-0.161242	0.124652
H118	H	0.537550	0.338758	0.624652
H119	H	0.037468	-0.161256	-0.124371
H120	H	0.537468	0.338744	0.375629
O121	O	0.828344	0.211539	0.142731
O122	O	1.328344	0.711539	0.642731
H123	H	0.854796	0.256244	0.193484
H124	H	1.354796	0.756244	0.693484
O125	O	0.914438	-0.328582	-0.340642
O126	O	1.414438	0.171418	0.159358
H127	H	0.881313	-0.396948	-0.376768
H128	H	1.381313	0.103052	0.123232
O129	O	0.736817	-0.009382	-0.659150
O130	O	1.236817	0.490618	-0.159150
H131	H	0.707101	0.044001	-0.700025
H132	H	1.207101	0.544001	-0.200025
O133	O	0.179327	-0.165035	0.142772
O134	O	0.679327	0.334965	0.642772
H135	H	0.159569	-0.251160	0.175680
H136	H	0.659569	0.248840	0.675680
O137	O	0.623406	-0.176984	0.142730
O138	O	1.123406	0.323016	0.642730
H139	H	0.650794	-0.264369	0.146010
H140	H	1.150794	0.235631	0.646010
H141	H	0.921047	0.243599	0.076631
H142	H	1.421047	0.743599	0.576631
O143	O	0.472011	-0.172892	0.142742
O144	O	0.972011	0.327108	0.642742
H145	H	0.509584	-0.173878	0.190462
H146	H	1.009584	0.326122	0.690462
O147	O	0.710974	0.181775	0.068357
O148	O	1.210974	0.681775	0.568357
H149	H	0.666688	0.112654	0.049395
H150	H	1.166688	0.612654	0.549395
O151	O	0.736831	-0.009344	-0.340691
O152	O	1.236831	0.490656	0.159309
H153	H	0.707131	0.044075	-0.299833
H154	H	1.207131	0.544075	0.200167
H155	H	0.717133	0.413581	0.051937
H156	H	1.217133	0.913581	0.551937
H157	H	0.748109	-0.029676	-0.813389
H158	H	1.248109	0.470324	-0.313389
O159	O	0.179231	-0.165095	-0.142523
O160	O	0.679231	0.334905	0.357477
H161	H	0.141656	-0.164087	-0.190241
H162	H	0.641656	0.335913	0.309759
H163	H	0.481555	-0.173210	-0.124414
H164	H	0.981555	0.326790	0.375586
O165	O	0.707331	0.424741	-0.067533
O166	O	1.207331	0.924741	0.432467
H167	H	0.741110	0.495466	-0.101486
H168	H	1.241110	0.995466	0.398514
H169	H	0.838653	0.444528	0.125819
H170	H	1.338653	0.944528	0.625819
O171	O	0.623322	-0.177039	-0.142571
O172	O	1.123322	0.322961	0.357429
H173	H	0.650699	-0.264435	-0.145852
H174	H	1.150699	0.235565	0.354148
H175	H	0.903124	-0.308322	-0.186398
H176	H	1.403124	0.191678	0.313602
O177	O	0.914458	-0.328573	-0.823818
O178	O	1.414458	0.171427	-0.323818
H179	H	0.899769	-0.430099	-0.808617
H180	H	1.399769	0.069901	-0.308617
H181	H	0.919806	0.462000	0.071823
H182	H	1.419806	0.962000	0.571823
H183	H	0.720293	0.196672	-0.051524
H184	H	1.220293	0.696672	0.448476
O185	O	0.825596	0.449523	-0.143021
O186	O	1.325596	0.949523	0.356979
H187	H	0.809963	0.362613	-0.177075
H188	H	1.309963	0.862613	0.322925
O189	O	0.936078	0.478168	-0.076171
O190	O	1.436078	0.978168	0.423829
H191	H	0.966400	0.450276	-0.026485
H192	H	1.466400	0.950276	0.473515
O193	O	0.940292	0.238543	-0.075322
O194	O	1.440292	0.738543	0.424678
H195	H	0.952024	0.179681	-0.025767
H196	H	1.452024	0.679681	0.474233
O197	O	0.830455	0.209298	-0.142654
O198	O	1.330455	0.709298	0.357346
H199	H	0.786794	0.136395	-0.126861
H200	H	1.286794	0.636395	0.373139
O201	O	0.914451	-0.328571	-0.659091
O202	O	1.414451	0.171429	-0.159091
H203	H	0.944173	-0.381954	-0.699946
H204	H	1.444173	0.118046	-0.199946
H205	H	0.748084	-0.029698	-0.186438
H206	H	1.248084	0.470302	0.313562
