data_functionalizedCrystal
_audit_creation_method	'MofGen! by Chris Wilmer'
_symmetry_space_group_name_H-M	'P1'
_symmetry_Int_Tables_number	1
_symmetry_cell_setting	triclinic
loop_
_symmetry_equiv_pos_as_xyz
  x,y,z
_cell_length_a	15.944545
_cell_length_b	10.654546
_cell_length_c	9.730223
_cell_angle_alpha	89.998853
_cell_angle_beta	89.996566
_cell_angle_gamma	83.989828
loop_
_atom_site_label
_atom_site_type_symbol
_atom_site_fract_x
_atom_site_fract_y
_atom_site_fract_z
O1	O	0.117959	1.666306	-0.114327
O2	O	0.129202	1.300681	-0.114324
O3	O	0.001363	1.493482	-0.114309
O4	O	0.245798	1.473505	-0.114342
O5	O	0.001367	1.493480	0.114271
O6	O	0.129206	1.300679	0.114256
O7	O	0.117962	1.666304	0.114253
Zn8	Zn	0.123585	1.483491	0.150546
Zn9	Zn	0.123580	1.483494	-0.150618
O10	O	0.245801	1.473503	0.114238
C11	C	0.128379	1.253893	-0.000033
C12	C	0.125911	1.114482	-0.000032
C13	C	0.124741	1.049003	-0.124637
C14	C	0.122416	0.918013	-0.124647
C15	C	0.122426	0.917991	0.124563
C16	C	0.124758	1.048978	0.124572
C17	C	0.125895	1.114507	-0.249241
C18	C	0.124724	1.049028	-0.373856
C19	C	0.122398	0.918038	-0.373867
C20	C	0.121243	0.852526	-0.249262
C21	C	-0.029934	1.492653	-0.000018
C22	C	-0.123195	1.490171	-0.000014
C23	C	-0.394561	1.363247	-0.000041
C24	C	-0.343623	1.424441	-0.112744
C25	C	-0.458890	1.481319	-0.000053
C26	C	-0.343647	1.424470	0.112618
C27	C	-0.293951	1.485662	-0.000032
C28	C	-0.409180	1.542481	-0.112849
C29	C	-0.409208	1.542493	0.112614
C30	C	-0.358302	1.603774	-0.000117
C31	C	-0.553906	1.478814	-0.000067
C32	C	-0.198937	1.488176	-0.000028
C33	C	0.277099	1.474332	-0.000056
C34	C	0.370359	1.476814	-0.000069
C35	C	0.118786	1.713093	-0.000041
C36	C	0.121254	1.852504	-0.000052
N37	N	0.123587	1.483498	0.356083
N38	N	0.123571	1.483497	-0.356154
C39	C	0.066999	1.568892	0.428015
C40	C	0.066989	1.568889	0.571898
C41	C	0.180162	1.398094	0.571903
C42	C	0.180167	1.398092	0.428023
C43	C	0.010419	1.654299	0.356075
C44	C	-0.046173	1.739701	0.428008
C45	C	-0.046183	1.739697	0.571891
C46	C	0.010398	1.654292	0.643841
H47	H	0.127787	1.221166	-0.249246
H48	H	-0.314978	1.374577	-0.208025
H49	H	0.010424	1.654311	0.238918
H50	H	-0.315020	1.374584	0.207897
H51	H	0.121454	0.864727	-0.475334
H52	H	0.125672	1.102375	-0.475304
N53	N	0.118747	0.711240	-0.249269
H54	H	0.118185	0.679696	-0.347114
H55	H	0.066210	0.689964	-0.200279
N56	N	-0.107215	1.831785	0.350415
H57	H	-0.098627	1.818827	0.248351
H58	H	-0.096972	1.920875	0.375556
H59	H	0.121484	0.864641	0.226010
H60	H	-0.437700	1.592310	-0.208236
N61	N	0.126024	1.119612	0.258964
H62	H	0.124933	1.058243	0.337898
H63	H	0.075014	1.184149	0.264404
H64	H	-0.410801	1.261562	-0.000150
N65	N	0.241204	1.305990	0.350437
H66	H	0.278695	1.353972	0.290735
H67	H	0.208697	1.250414	0.290825
N68	N	-0.107210	1.831813	0.649479
H69	H	-0.143045	1.885919	0.582068
H70	H	-0.074693	1.887314	0.709166
H71	H	-0.342223	1.705537	-0.000181
H72	H	-0.437868	1.592314	0.207899
N73	N	0.010392	1.654297	0.799029
H74	H	0.054826	1.587244	0.833689
H75	H	-0.046823	1.636075	0.833580
H76	H	0.226229	1.328562	0.630495
