data_functionalizedCrystal
_audit_creation_method	'MofGen! by Chris Wilmer'
_symmetry_space_group_name_H-M	'P1'
_symmetry_Int_Tables_number	1
_symmetry_cell_setting	triclinic
loop_
_symmetry_equiv_pos_as_xyz
  x,y,z
_cell_length_a	29.839131
_cell_length_b	16.625548
_cell_length_c	16.625539
_cell_angle_alpha	89.979432
_cell_angle_beta	89.967906
_cell_angle_gamma	90.042488
loop_
_atom_site_label
_atom_site_type_symbol
_atom_site_fract_x
_atom_site_fract_y
_atom_site_fract_z
Zn1	Zn	-0.178840	1.232574	-0.455888
Zn2	Zn	-0.253971	1.232433	-0.321046
Zn3	Zn	-0.178857	1.097736	-0.321069
Zn4	Zn	-0.253945	1.097662	-0.455836
O5	O	-0.216403	1.165101	-0.388460
O6	O	-0.188810	1.345388	-0.438013
O7	O	-0.244025	1.214537	-0.208217
O8	O	-0.115987	1.115713	-0.338984
O9	O	-0.244008	1.345284	-0.338946
O10	O	-0.115975	1.214778	-0.438035
O11	O	-0.188839	1.115576	-0.208233
O12	O	-0.188814	0.984894	-0.338933
O13	O	-0.243964	1.115586	-0.568676
O14	O	-0.243981	0.984839	-0.437947
O15	O	-0.188785	1.214706	-0.568714
O16	O	-0.316834	1.214465	-0.338896
O17	O	-0.316815	1.115449	-0.437925
C18	C	-0.216397	0.955610	-0.388437
C19	C	-0.216405	0.865989	-0.388447
C20	C	-0.216408	0.537814	-0.388481
C21	C	-0.216406	0.629122	-0.388469
C22	C	-0.216406	0.701899	-0.388463
C23	C	-0.216404	0.793213	-0.388452
C24	C	-0.333126	1.164956	-0.388420
C25	C	-0.383060	1.164967	-0.388430
C26	C	-0.692701	1.216752	-0.336971
C27	C	-0.880374	1.216852	-0.337002
O28	O	-0.904636	1.260766	-0.293219
N29	N	-0.903845	1.165268	-0.388521
C30	C	-0.880395	1.113660	-0.440039
O31	O	-0.904665	1.069793	-0.483866
C32	C	-0.692723	1.113565	-0.440011
C33	C	-0.669254	1.165146	-0.388483
C34	C	-0.669232	1.268330	-0.285447
C35	C	-0.622316	1.268302	-0.285437
C36	C	-0.598870	1.216695	-0.336950
C37	C	-0.622339	1.165118	-0.388473
C38	C	-0.669274	1.061962	-0.491533
C39	C	-0.622353	1.061944	-0.491523
C40	C	-0.598884	1.113525	-0.439995
C41	C	-0.551977	1.113483	-0.439975
N42	N	-0.528505	1.165067	-0.388456
C43	C	-0.551952	1.216673	-0.336944
C44	C	-0.978926	1.113712	-0.440049
C45	C	-1.025844	1.113735	-0.440055
C46	C	-1.025819	1.216928	-0.337019
C47	C	-0.978900	1.216901	-0.337009
C48	C	-0.955455	1.165296	-0.388530
C49	C	-0.453426	1.216609	-0.336925
C50	C	-0.406506	1.216573	-0.336917
C51	C	-0.406535	1.113383	-0.439956
C52	C	-0.453451	1.113416	-0.439962
C53	C	-0.476895	1.165035	-0.388443
O54	O	-0.527685	1.069599	-0.483742
O55	O	-0.527674	1.260546	-0.293136
C56	C	-0.739616	1.216781	-0.336981
C57	C	-0.763085	1.165203	-0.388504
C58	C	-0.739639	1.113597	-0.440017
C59	C	-0.810003	1.165226	-0.388510
C60	C	-0.833449	1.216832	-0.336997
C61	C	-0.809978	1.268416	-0.285479
C62	C	-0.763062	1.268387	-0.285468
C63	C	-0.763110	1.062014	-0.491536
C64	C	-0.810026	1.062046	-0.491541
C65	C	-0.833472	1.113652	-0.440028
C66	C	-0.099225	1.165269	-0.388518
C67	C	-0.049290	1.165341	-0.388542
C68	C	-0.216370	1.165154	-0.598769
C69	C	-0.216355	1.165176	-0.688390
C70	C	-0.216410	1.375410	-0.388483
C71	C	-0.216413	1.465031	-0.388493
C72	C	-0.216305	1.165213	-1.016566
C73	C	-0.216320	1.165201	-0.925257
C74	C	-0.216330	1.165195	-0.852481
C75	C	-0.216345	1.165182	-0.761167
C76	C	-0.216404	1.165095	-0.178969
C77	C	-0.216292	1.165229	-0.089348
H78	H	-0.472509	1.258644	-0.294976
H79	H	-0.829130	1.020035	-0.533501
N80	N	-0.597063	1.006283	-0.547089
H81	H	-0.605200	1.018780	-0.604712
H82	H	-0.605277	0.948707	-0.534448
N83	N	-0.737828	1.006341	-0.547095
H84	H	-0.718399	0.968982	-0.514286
H85	H	-0.718353	1.039123	-0.584483
H86	H	-0.387438	1.071364	-0.481895
N87	N	-0.381192	1.272213	-0.281344
H88	H	-0.389388	1.259731	-0.223723
H89	H	-0.389330	1.329797	-0.293996
N90	N	-0.597007	1.323949	-0.229873
H91	H	-0.605201	1.311473	-0.172251
H92	H	-0.605151	1.381528	-0.242534
N93	N	-0.694516	1.323996	-0.229883
H94	H	-0.672522	1.356662	-0.197248
H95	H	-0.714012	1.291206	-0.192538
N96	N	-0.953589	1.272537	-0.281436
H97	H	-0.975566	1.305229	-0.248806
H98	H	-0.934092	1.309826	-0.314289
H99	H	-1.044948	1.071725	-0.482007
N100	N	-1.051112	1.272588	-0.281455
H101	H	-1.084394	1.264770	-0.289282
H102	H	-1.042876	1.330163	-0.294061
N103	N	-0.835276	1.324075	-0.229923
H104	H	-0.827076	1.381675	-0.242497
H105	H	-0.827135	1.311517	-0.172318
N106	N	-0.953641	1.058045	-0.495617
H107	H	-0.975634	1.025373	-0.528248
H108	H	-0.934209	1.020739	-0.462758
N109	N	-0.737753	1.324026	-0.229896
H110	H	-0.759731	1.356720	-0.197272
H111	H	-0.718255	1.361313	-0.262750
N112	N	-0.478767	1.057775	-0.495527
H113	H	-0.456793	1.025077	-0.528156
H114	H	-0.498198	1.090589	-0.532879
H115	H	-0.688375	1.019955	-0.533489
