data_functionalizedCrystal
_audit_creation_method	'MofGen! by Chris Wilmer'
_symmetry_space_group_name_H-M	'P1'
_symmetry_Int_Tables_number	1
_symmetry_cell_setting	triclinic
loop_
_symmetry_equiv_pos_as_xyz
  x,y,z
_cell_length_a	14.971486
_cell_length_b	19.288857
_cell_length_c	13.448316
_cell_angle_alpha	89.991240
_cell_angle_beta	89.998199
_cell_angle_gamma	83.373619
loop_
_atom_site_label
_atom_site_type_symbol
_atom_site_fract_x
_atom_site_fract_y
_atom_site_fract_z
O1	O	1.186455	0.090518	-0.082582
O2	O	0.925996	0.101357	-0.082610
O3	O	1.063755	-0.005169	-0.082583
O4	O	1.048696	0.197044	-0.082609
O5	O	1.063738	-0.005175	0.082800
O6	O	0.925978	0.101351	0.082774
O7	O	1.186438	0.090511	0.082801
Cu8	Cu	1.056206	0.095930	0.097888
Cu9	Cu	1.056227	0.095938	-0.097697
O10	O	1.048678	0.197037	0.082775
C11	C	0.892665	0.100869	0.000078
C12	C	0.793376	0.099417	0.000068
C13	C	0.735810	0.161998	0.000062
C14	C	0.642518	0.160629	0.000077
C15	C	0.606794	0.096678	0.000091
C16	C	0.664367	0.034092	0.000101
C17	C	0.757657	0.035462	0.000093
C18	C	0.469920	0.031241	0.000115
C19	C	0.376623	0.029871	0.000121
C20	C	0.354781	0.156408	0.000099
C21	C	0.448071	0.157778	0.000091
C22	C	0.505638	0.095192	0.000099
C23	C	1.063263	-0.031050	0.000109
C24	C	1.061812	-0.108159	0.000112
C25	C	1.061144	-0.144368	-0.090039
C26	C	1.059768	-0.216818	-0.090046
C27	C	1.059077	-0.253059	0.000102
C28	C	1.059740	-0.216840	0.090265
C29	C	1.061107	-0.144390	0.090270
C30	C	1.109294	-0.373129	0.069167
C31	C	1.107932	-0.445578	0.069158
C32	C	1.054856	-0.476518	0.000090
C33	C	1.003154	-0.435001	-0.068985
C34	C	1.004521	-0.362551	-0.068980
C35	C	1.057594	-0.331618	0.000107
C36	C	1.052695	-0.591286	-0.090075
C37	C	1.051313	-0.663738	-0.090079
C38	C	1.051295	-0.663759	0.090235
C39	C	1.052668	-0.591308	0.090236
C40	C	1.053372	-0.555077	0.000079
C41	C	1.219768	0.090999	0.000111
C42	C	1.319057	0.092452	0.000114
C43	C	1.049170	0.222919	0.000080
C44	C	1.050622	0.300027	0.000071
N45	N	1.056199	0.095924	0.235453
N46	N	1.056242	0.095939	-0.235261
C47	C	1.117217	0.048774	0.287505
C48	C	1.117223	0.048774	0.391608
C49	C	1.056213	0.095927	0.443657
C50	C	0.995188	0.143080	0.391598
C51	C	0.995179	0.143076	0.287497
C52	C	0.995213	0.143084	0.608578
C53	C	0.995223	0.143089	0.712686
C54	C	1.117257	0.048782	0.712690
C55	C	1.117248	0.048778	0.608588
C56	C	1.056223	0.095932	0.556536
H57	H	0.635273	-0.017978	0.000127
H58	H	0.945518	0.181480	0.566200
Cl59	Cl	0.282412	0.235088	0.000091
Cl60	Cl	1.050422	-0.709311	0.203566
H61	H	0.804527	-0.015499	0.000098
H62	H	0.347540	-0.022204	0.000134
Cl63	Cl	0.918520	0.202369	0.778112
Cl64	Cl	1.053573	-0.545734	-0.203414
H65	H	0.477154	0.209852	0.000070
Cl66	Cl	1.058928	-0.262348	-0.203388
Cl67	Cl	0.918463	0.202352	0.222060
H68	H	0.764889	0.214074	0.000049
Cl69	Cl	1.193950	-0.010496	0.543153
Cl70	Cl	0.570153	0.239306	0.000063
Cl71	Cl	1.058865	-0.262398	0.203595
Cl72	Cl	1.061946	-0.098867	0.203612
Cl73	Cl	1.172932	-0.497764	0.155991
H74	H	0.945509	0.181471	0.433982
H75	H	1.050765	-0.693218	-0.163494
Cl76	Cl	0.542288	-0.047440	0.000126
Cl77	Cl	1.053507	-0.545785	0.203576
Cl78	Cl	1.193972	-0.010495	0.778130
Cl79	Cl	1.062023	-0.098823	-0.203380
H80	H	1.152514	-0.347944	0.125417
H81	H	1.166902	0.010379	0.245133
Cl82	Cl	0.936421	-0.473888	-0.155815
Cl83	Cl	0.939523	-0.310360	-0.155809
H84	H	1.166908	0.010380	0.433988
