data_functionalizedCrystal
_audit_creation_method	'MofGen! by Chris Wilmer'
_symmetry_space_group_name_H-M	'P1'
_symmetry_Int_Tables_number	1
_symmetry_cell_setting	triclinic
loop_
_symmetry_equiv_pos_as_xyz
  x,y,z
_cell_length_a	10.654554
_cell_length_b	10.654550
_cell_length_c	9.130313
_cell_angle_alpha	89.996647
_cell_angle_beta	89.995736
_cell_angle_gamma	84.485873
loop_
_atom_site_label
_atom_site_type_symbol
_atom_site_fract_x
_atom_site_fract_y
_atom_site_fract_z
O1	O	1.667836	0.176427	-0.121821
O2	O	1.302358	0.193227	-0.121818
O3	O	1.493500	0.002088	-0.121814
O4	O	1.476694	0.367566	-0.121825
O5	O	1.493487	0.002082	0.121784
O6	O	1.302345	0.193221	0.121781
O7	O	1.667823	0.176421	0.121777
Cu8	Cu	1.485083	0.184821	0.144022
Cu9	Cu	1.485098	0.184827	-0.144062
O10	O	1.476681	0.367560	0.121774
C11	C	1.255554	0.191989	-0.000018
C12	C	1.116111	0.188295	-0.000017
C13	C	0.933549	0.068808	-0.000033
C14	C	1.064571	0.072279	-0.000018
C15	C	1.036622	0.300848	-0.000016
C16	C	0.905603	0.297376	-0.000021
C17	C	0.949686	-0.063154	-0.000040
C18	C	1.080708	-0.059684	-0.000025
C19	C	1.492260	-0.044713	-0.000017
C20	C	1.488568	-0.184156	-0.000022
C21	C	1.601109	-0.263640	-0.000018
C22	C	1.597632	-0.394661	-0.000029
C23	C	1.369063	-0.366702	-0.000040
C24	C	1.372541	-0.235683	-0.000040
C25	C	1.733072	-0.279784	-0.000006
C26	C	1.729595	-0.410805	-0.000016
C27	C	1.714627	0.177659	-0.000026
C28	C	1.854070	0.181353	-0.000036
C29	C	1.477921	0.414361	-0.000027
C30	C	1.481613	0.553804	-0.000032
N31	N	1.485081	0.184815	0.346644
N32	N	1.485110	0.184823	-0.346685
C33	C	1.569747	0.100215	0.423298
C34	C	1.569759	0.100215	0.576634
C35	C	1.400434	0.269427	0.576651
C36	C	1.400417	0.269420	0.423317
H37	H	1.280899	-0.170971	-0.000063
O38	O	1.243923	-0.422275	-0.000036
H39	H	1.260409	-0.526734	-0.000025
O40	O	1.136037	-0.125549	-0.135048
H41	H	1.239909	-0.122772	-0.134938
O42	O	1.092205	0.425984	0.000007
H43	H	1.060362	0.480132	-0.099273
H44	H	1.784692	-0.250422	-0.101945
O45	O	1.788746	-0.232589	0.139304
H46	H	1.731051	-0.257771	0.234189
O47	O	1.309139	0.360687	0.659357
H48	H	1.325986	0.458739	0.629892
O49	O	1.141158	-0.112487	0.139311
H50	H	1.121134	-0.212202	0.152358
H51	H	1.769482	-0.456444	-0.105196
H52	H	1.331466	0.338312	0.360901
H53	H	1.638701	0.031324	0.639042
O54	O	0.819883	0.418768	-0.000001
H55	H	0.720118	0.396867	0.000009
O56	O	1.795428	-0.466139	0.135022
H57	H	1.830403	-0.389321	0.201149
H58	H	0.920318	-0.114769	0.101900
H59	H	1.638684	0.031323	0.360874
H60	H	0.914063	-0.105173	-0.105221
