data_functionalizedCrystal
_audit_creation_method	'MofGen! by Chris Wilmer'
_symmetry_space_group_name_H-M	'P1'
_symmetry_Int_Tables_number	1
_symmetry_cell_setting	triclinic
loop_
_symmetry_equiv_pos_as_xyz
  x,y,z
_cell_length_a	12.759401
_cell_length_b	18.101395
_cell_length_c	12.759393
_cell_angle_alpha	90.032533
_cell_angle_beta	90.017176
_cell_angle_gamma	90.031265
loop_
_atom_site_label
_atom_site_type_symbol
_atom_site_fract_x
_atom_site_fract_y
_atom_site_fract_z
Zn1	Zn	1.606122	-0.294789	0.593968
Zn2	Zn	1.605970	-0.418649	0.418282
Zn3	Zn	1.430428	-0.294826	0.418307
Zn4	Zn	1.430362	-0.418594	0.593923
O5	O	1.518221	-0.356715	0.506120
O6	O	1.753123	-0.311227	0.570671
O7	O	1.582648	-0.402262	0.271264
O8	O	1.453825	-0.191188	0.441638
O9	O	1.753011	-0.402226	0.441595
O10	O	1.582907	-0.191161	0.570695
O11	O	1.453678	-0.311290	0.271283
O12	O	1.283398	-0.311237	0.441595
O13	O	1.453713	-0.402133	0.740950
O14	O	1.283350	-0.402168	0.570619
O15	O	1.582843	-0.311174	0.740983
O16	O	1.582584	-0.522275	0.441552
O17	O	1.453566	-0.522234	0.570595
C18	C	1.245253	-0.356701	0.506106
C19	C	1.128477	-0.356713	0.506125
C20	C	1.073617	-0.404137	0.573197
C21	C	0.963893	-0.404146	0.573208
C22	C	0.963898	-0.309306	0.439066
C23	C	1.073620	-0.309293	0.439061
C24	C	1.073613	-0.458895	0.650639
C25	C	0.963889	-0.458904	0.650650
C26	C	1.518080	-0.549125	0.506089
C27	C	1.518116	-0.631439	0.506111
C28	C	1.518347	-0.930530	0.506168
C29	C	1.437360	-0.899210	0.587559
C30	C	1.436975	-0.813593	0.587305
C31	C	1.518232	-0.782148	0.506140
C32	C	1.488254	-0.813306	0.395415
C33	C	1.487732	-0.898951	0.395903
C34	C	1.629488	-0.898872	0.534526
C35	C	1.628835	-0.813221	0.536954
C36	C	1.518169	-0.698288	0.506118
C37	C	1.518407	-1.014390	0.506182
C38	C	1.792254	-0.356729	0.506135
C39	C	1.909030	-0.356735	0.506141
C40	C	1.518288	-0.356643	0.780153
C41	C	1.518316	-0.356613	0.896930
C42	C	1.518390	-0.163553	0.506174
C43	C	1.518463	-0.081239	0.506197
C44	C	1.518214	-0.356733	0.233153
C45	C	1.518389	-0.356555	0.116376
C46	C	1.451101	-0.403952	0.951777
C47	C	1.451140	-0.403926	1.061501
C48	C	1.585612	-0.309213	1.061522
C49	C	1.585578	-0.309244	0.951800
C50	C	1.373461	-0.458632	0.951766
C51	C	1.373500	-0.458605	1.061490
H52	H	1.455731	-0.792523	0.669407
H53	H	1.544160	-0.919673	0.333192
N54	N	1.461940	-0.926424	0.696668
H55	H	1.534555	-0.909658	0.717414
H56	H	1.458627	-0.982163	0.697943
N57	N	0.904726	-0.258174	0.366725
H58	H	0.923850	-0.205270	0.383167
H59	H	0.826913	-0.265444	0.376942
N60	N	1.658089	-0.258195	0.892641
H61	H	1.700700	-0.228184	0.944053
H62	H	1.615349	-0.223930	0.847123
H63	H	1.355480	-0.920798	0.569012
H64	H	1.395205	-0.515996	0.921976
H65	H	1.545385	-0.792940	0.333119
N66	N	1.709417	-0.925703	0.456012
H67	H	1.780664	-0.905189	0.474625
H68	H	1.688954	-0.908434	0.383591
H69	H	1.296176	-0.438092	0.917739
N70	N	1.132788	-0.258142	0.366719
H71	H	1.210621	-0.265328	0.376890
H72	H	1.113644	-0.205269	0.383211
H73	H	1.640374	-0.270647	1.106210
N74	N	1.265804	-0.438164	1.101014
H75	H	1.236965	-0.479840	1.145020
H76	H	1.217738	-0.429043	1.039469
N77	N	1.412049	-0.530764	1.106562
H78	H	1.430645	-0.565651	1.047637
H79	H	1.355149	-0.553494	1.151135
N80	N	1.113112	-0.438639	0.758468
H81	H	1.086789	-0.387847	0.777963
H82	H	1.192266	-0.438669	0.758431
N83	N	1.118653	-0.531019	0.611841
H84	H	1.059713	-0.565877	0.593102
H85	H	1.163239	-0.553814	0.668671
H86	H	0.929898	-0.438432	0.728003
H87	H	1.354594	-0.793171	0.568521
N88	N	0.924382	-0.534851	0.621572
H89	H	0.845225	-0.534888	0.621569
H90	H	0.950817	-0.572078	0.674236
N91	N	1.380121	-0.925511	0.364078
H92	H	1.333468	-0.881583	0.349867
H93	H	1.349076	-0.956134	0.422488
H94	H	1.407870	-0.791923	0.370962
N95	N	1.665695	-0.927423	0.639642
H96	H	1.733269	-0.955752	0.630612
H97	H	1.610342	-0.961138	0.669875
H98	H	1.651441	-0.792852	0.618442
N99	N	1.712999	-0.784862	0.464163
H100	H	1.680479	-0.751323	0.409934
H101	H	1.748000	-0.827945	0.428053
