data_functionalizedCrystal
_audit_creation_method	'MofGen! by Chris Wilmer'
_symmetry_space_group_name_H-M	'P1'
_symmetry_Int_Tables_number	1
_symmetry_cell_setting	triclinic
loop_
_symmetry_equiv_pos_as_xyz
  x,y,z
_cell_length_a	21.395361
_cell_length_b	12.827893
_cell_length_c	21.395356
_cell_angle_alpha	90.023519
_cell_angle_beta	89.969319
_cell_angle_gamma	89.971273
loop_
_atom_site_label
_atom_site_type_symbol
_atom_site_fract_x
_atom_site_fract_y
_atom_site_fract_z
Zn1	Zn	-0.249488	-1.597582	-0.354247
Zn2	Zn	-0.354264	-1.597423	-0.249464
Zn3	Zn	-0.249501	-1.422817	-0.249484
Zn4	Zn	-0.354228	-1.422762	-0.354204
O5	O	-0.301870	-1.510146	-0.301850
O6	O	-0.263396	-1.743797	-0.340357
O7	O	-0.340388	-1.574217	-0.161789
O8	O	-0.161821	-1.446089	-0.263407
O9	O	-0.340375	-1.743680	-0.263373
O10	O	-0.161811	-1.574489	-0.340376
O11	O	-0.263419	-1.445934	-0.161803
O12	O	-0.263383	-1.276573	-0.263366
O13	O	-0.340313	-1.445997	-0.441888
O14	O	-0.340326	-1.276534	-0.340304
O15	O	-0.263361	-1.574436	-0.441919
O16	O	-0.441937	-1.574164	-0.263332
O17	O	-0.441910	-1.445842	-0.340284
C18	C	-0.301852	-1.238636	-0.301833
C19	C	-0.301860	-1.122483	-0.301840
C20	C	-0.339992	-1.070706	-0.339851
C21	C	-0.340001	-0.950656	-0.339860
C22	C	-0.464658	-1.510008	-0.301815
C23	C	-0.534299	-1.510045	-0.301821
C24	C	-0.567005	-1.576921	-0.261793
C25	C	-0.632441	-1.576970	-0.261807
C26	C	-0.665167	-1.510123	-0.301843
C27	C	-0.632453	-1.443242	-0.341878
C28	C	-0.567019	-1.443203	-0.341868
C29	C	-0.768880	-1.416030	-0.306753
C30	C	-0.834313	-1.416068	-0.306759
C31	C	-0.866988	-1.510245	-0.301879
C32	C	-0.834222	-1.604387	-0.296980
C33	C	-0.768788	-1.604348	-0.296970
C34	C	-0.736120	-1.510159	-0.301859
C35	C	-0.970647	-1.577180	-0.261864
C36	C	-1.036083	-1.577230	-0.261883
C37	C	-1.036094	-1.443493	-0.341951
C38	C	-0.970659	-1.443452	-0.341936
C39	C	-0.937939	-1.510294	-0.301889
C40	C	-0.138447	-1.510313	-0.301899
C41	C	-0.068805	-1.510384	-0.301919
C42	C	-0.301831	-1.510228	-0.465273
C43	C	-0.301815	-1.510263	-0.534915
C44	C	-0.301883	-0.782716	-0.301863
C45	C	-0.301875	-0.898869	-0.301855
C46	C	-0.261732	-1.443485	-0.567625
C47	C	-0.261721	-1.443481	-0.633061
C48	C	-0.301785	-1.510275	-0.665783
C49	C	-0.341875	-1.577058	-0.633064
C50	C	-0.341890	-1.577052	-0.567630
C51	C	-0.306713	-1.604430	-0.769469
C52	C	-0.306693	-1.604437	-0.834902
C53	C	-0.301743	-1.510292	-0.867604
C54	C	-0.296798	-1.416136	-0.834865
C55	C	-0.296813	-1.416130	-0.769430
C56	C	-0.301773	-1.510288	-0.736735
C57	C	-0.261645	-1.443504	-0.971267
C58	C	-0.261638	-1.443498	-1.036704
C59	C	-0.341789	-1.577085	-1.036706
C60	C	-0.341800	-1.577081	-0.971271
C61	C	-0.301725	-1.510292	-0.938555
C62	C	-0.301863	-1.510124	-0.139062
C63	C	-0.301704	-1.510292	-0.069421
H64	H	-0.269230	-0.943389	-0.269308
H65	H	-0.944005	-1.631610	-0.229258
H66	H	-0.269218	-1.077934	-0.269306
H67	H	-0.944028	-1.388990	-0.374528
Cl68	Cl	-0.211314	-1.359547	-0.674192
H69	H	-0.374409	-1.631472	-1.063348
H70	H	-0.310717	-1.681105	-0.861553
H71	H	-0.540366	-1.631350	-0.229186
Cl72	Cl	-0.392282	-1.661012	-0.526506
H73	H	-0.372629	-1.115255	-0.372390
H74	H	-0.310739	-1.681101	-0.742848
H75	H	-0.659075	-1.631432	-0.229212
Cl76	Cl	-1.077201	-1.661319	-0.211562
Cl77	Cl	-1.077230	-1.359463	-0.392286
H78	H	-0.292788	-1.339466	-0.742777
Cl79	Cl	-0.392188	-1.661044	-0.930146
H80	H	-0.374496	-1.631442	-0.659711
H81	H	-0.860825	-1.681076	-0.293007
Cl82	Cl	-0.390410	-0.881916	-0.390103
Cl83	Cl	-0.727599	-1.722693	-0.290817
Cl84	Cl	-0.875497	-1.297719	-0.312916
Cl85	Cl	-0.673594	-1.359211	-0.392212
Cl86	Cl	-0.727809	-1.297624	-0.312888
H87	H	-0.540389	-1.388743	-0.374464
H88	H	-0.229000	-1.389112	-1.063336
Cl89	Cl	-0.211355	-1.359516	-0.526501
H90	H	-0.292762	-1.339475	-0.861489
Cl91	Cl	-0.211270	-1.359536	-0.930136
