data_functionalizedCrystal
_audit_creation_method	'MofGen! by Chris Wilmer'
_symmetry_space_group_name_H-M	'P1'
_symmetry_Int_Tables_number	1
_symmetry_cell_setting	triclinic
loop_
_symmetry_equiv_pos_as_xyz
  x,y,z
_cell_length_a	13.897449
_cell_length_b	18.101395
_cell_length_c	13.897441
_cell_angle_alpha	89.970274
_cell_angle_beta	89.981404
_cell_angle_gamma	90.032384
loop_
_atom_site_label
_atom_site_type_symbol
_atom_site_fract_x
_atom_site_fract_y
_atom_site_fract_z
Zn1	Zn	1.474592	-0.294788	-0.545380
Zn2	Zn	1.474455	-0.418641	-0.384082
Zn3	Zn	1.313288	-0.294821	-0.384099
Zn4	Zn	1.313225	-0.418595	-0.545334
O5	O	1.393890	-0.356711	-0.464724
O6	O	1.609556	-0.311223	-0.523996
O7	O	1.453044	-0.402250	-0.249102
O8	O	1.334769	-0.191184	-0.405520
O9	O	1.609455	-0.402218	-0.405490
O10	O	1.453279	-0.191159	-0.524013
O11	O	1.334635	-0.311279	-0.249115
O12	O	1.178298	-0.311234	-0.405475
O13	O	1.334663	-0.402138	-0.680322
O14	O	1.178252	-0.402170	-0.523934
O15	O	1.453218	-0.311178	-0.680356
O16	O	1.452984	-0.522268	-0.405445
O17	O	1.334529	-0.522234	-0.523917
C18	C	1.143276	-0.356701	-0.464702
C19	C	1.036062	-0.356715	-0.464715
C20	C	0.839767	-0.356718	-0.464741
C21	C	0.948999	-0.356714	-0.464724
C22	C	1.393761	-0.549122	-0.464695
C23	C	1.393794	-0.631436	-0.464716
C24	C	1.394006	-0.930527	-0.464767
C25	C	1.319650	-0.899211	-0.539492
C26	C	1.319297	-0.813593	-0.539258
C27	C	1.393901	-0.782144	-0.464743
C28	C	1.366379	-0.813299	-0.363084
C29	C	1.365899	-0.898945	-0.363531
C30	C	1.496046	-0.898868	-0.490807
C31	C	1.495446	-0.813217	-0.493037
C32	C	1.393843	-0.698285	-0.464722
C33	C	1.394061	-1.014386	-0.464781
C34	C	1.645483	-0.356722	-0.464746
C35	C	1.752697	-0.356726	-0.464756
C36	C	1.393949	-0.356649	-0.716317
C37	C	1.393974	-0.356623	-0.823531
C38	C	1.394046	-0.163549	-0.464773
C39	C	1.394112	-0.081235	-0.464795
C40	C	1.393994	-0.356602	-0.910601
C41	C	1.394022	-0.356568	-1.019833
C42	C	1.393887	-0.356720	-0.214109
C43	C	1.394048	-0.356538	-0.106896
H44	H	1.336699	-0.919756	-0.615115
H45	H	1.244475	-0.920799	-0.522460
H46	H	1.291308	-0.918990	-0.341472
O47	O	1.526035	-0.924439	-0.577783
C48	C	1.575153	-0.893476	-0.739149
C49	C	1.541233	-0.864415	-0.640688
H50	H	1.587431	-0.844962	-0.790041
H51	H	1.645221	-0.925407	-0.729837
H52	H	1.517847	-0.931586	-0.770480
H53	H	1.598471	-0.826277	-0.609302
H54	H	1.471141	-0.832526	-0.650061
O55	O	1.339861	-0.788330	-0.629117
C56	C	1.362753	-0.681932	-0.730874
C57	C	1.339480	-0.710437	-0.629054
H58	H	1.362432	-0.618953	-0.730861
H59	H	1.436777	-0.702665	-0.753650
H60	H	1.306206	-0.703084	-0.783513
H61	H	1.395964	-0.689297	-0.576346
H62	H	1.265429	-0.689710	-0.606359
H63	H	1.243662	-0.793172	-0.522009
O64	O	1.427700	-0.923543	-0.294770
C65	C	1.540123	-0.890650	-0.169949
C66	C	1.470158	-0.862697	-0.247775
H67	H	1.574485	-0.841471	-0.131945
H68	H	1.499108	-0.925574	-0.115322
H69	H	1.598626	-0.925610	-0.205017
H70	H	1.411640	-0.827708	-0.212791
H71	H	1.511240	-0.827814	-0.302394
O72	O	1.520383	-0.788919	-0.582241
C73	C	1.634332	-0.720128	-0.677524
C74	C	1.606216	-0.747595	-0.576443
H75	H	1.703719	-0.686700	-0.672868
H76	H	1.645679	-0.769498	-0.727141
H77	H	1.574363	-0.683809	-0.707390
H78	H	1.666151	-0.783902	-0.546491
H79	H	1.594836	-0.698193	-0.526892
H80	H	1.551443	-0.919119	-0.436383
O81	O	1.428820	-0.788997	-0.294731
C82	C	1.449059	-0.720986	-0.147104
C83	C	1.378229	-0.748459	-0.224436
H84	H	1.408187	-0.688192	-0.090262
H85	H	1.485819	-0.770326	-0.111794
H86	H	1.505628	-0.684056	-0.182052
H87	H	1.321604	-0.785376	-0.189563
H88	H	1.341542	-0.699085	-0.259739
O89	O	1.278284	-0.787926	-0.336244
C90	C	1.115808	-0.819326	-0.291445
C91	C	1.215535	-0.848158	-0.321804
H92	H	1.065042	-0.868008	-0.279781
H93	H	1.122672	-0.786556	-0.221750
H94	H	1.085861	-0.782056	-0.350402
H95	H	1.245539	-0.885458	-0.262912
H96	H	1.208611	-0.880886	-0.391525
O97	O	1.565100	-0.787804	-0.432824
C98	C	1.688679	-0.819082	-0.318271
C99	C	1.609848	-0.847961	-0.386454
H100	H	1.724866	-0.867703	-0.280747
H101	H	1.744560	-0.786946	-0.361406
H102	H	1.654919	-0.781206	-0.262128
H103	H	1.643522	-0.885866	-0.442609
H104	H	1.553977	-0.880055	-0.343254
