data_functionalizedCrystal
_audit_creation_method	'MofGen! by Chris Wilmer'
_symmetry_space_group_name_H-M	'P1'
_symmetry_Int_Tables_number	1
_symmetry_cell_setting	triclinic
loop_
_symmetry_equiv_pos_as_xyz
  x,y,z
_cell_length_a	19.288840
_cell_length_b	15.944493
_cell_length_c	17.766277
_cell_angle_alpha	89.999511
_cell_angle_beta	89.983415
_cell_angle_gamma	83.300531
loop_
_atom_site_label
_atom_site_type_symbol
_atom_site_fract_x
_atom_site_fract_y
_atom_site_fract_z
O1	O	0.921622	0.104686	-0.062710
O2	O	1.421622	0.604686	0.437290
O3	O	0.719394	0.118844	-0.062683
O4	O	1.219394	0.618844	0.437317
O5	O	0.826051	-0.010535	-0.062704
O6	O	1.326051	0.489465	0.437296
O7	O	0.814964	0.234065	-0.062690
O8	O	1.314964	0.734065	0.437310
O9	O	0.826032	-0.010542	0.062485
O10	O	1.326032	0.489458	0.562485
O11	O	0.719375	0.118837	0.062506
O12	O	1.219375	0.618837	0.562506
O13	O	0.921603	0.104680	0.062478
O14	O	1.421603	0.604680	0.562478
Cu15	Cu	0.820487	0.111758	0.073923
Cu16	Cu	1.320487	0.611758	0.573923
Cu17	Cu	0.820509	0.111766	-0.074127
Cu18	Cu	1.320509	0.611766	0.425873
O19	O	0.814946	0.234059	0.062499
O20	O	1.314946	0.734059	0.562499
C21	C	0.693506	0.118389	-0.000085
C22	C	1.193506	0.618389	0.499915
C23	C	0.616398	0.117032	-0.000075
C24	C	1.116398	0.617032	0.499925
C25	C	0.580204	0.116383	-0.068318
C26	C	1.080204	0.616383	0.431682
C27	C	0.507754	0.115099	-0.068327
C28	C	1.007754	0.615099	0.431673
C29	C	0.471503	0.114446	-0.000090
C30	C	0.971503	0.614446	0.499910
C31	C	0.507706	0.115099	0.068161
C32	C	1.007706	0.615099	0.568161
C33	C	0.580154	0.116392	0.068168
C34	C	1.080154	0.616392	0.568168
C35	C	0.362041	0.063195	0.052175
C36	C	0.862041	0.563195	0.552175
C37	C	0.289595	0.061897	0.052165
C38	C	0.789595	0.561897	0.552165
C39	C	0.248050	0.110462	-0.000110
C40	C	0.748050	0.610462	0.499890
C41	C	0.278960	0.160315	-0.052388
C42	C	0.778960	0.660315	0.447612
C43	C	0.351407	0.161608	-0.052380
C44	C	0.851407	0.661608	0.447620
C45	C	0.392945	0.113045	-0.000091
C46	C	0.892945	0.613045	0.499909
C47	C	0.133296	0.108423	-0.068367
C48	C	0.633296	0.608423	0.431633
C49	C	0.060844	0.107143	-0.068373
C50	C	0.560844	0.607143	0.431627
C51	C	0.060799	0.107135	0.068117
C52	C	0.560799	0.607135	0.568117
C53	C	0.133248	0.108423	0.068121
C54	C	0.633248	0.608423	0.568121
C55	C	0.169493	0.109062	-0.000123
C56	C	0.669493	0.609062	0.499877
C57	C	0.825589	-0.041831	-0.000113
C58	C	1.325589	0.458169	0.499887
C59	C	0.824230	-0.135075	-0.000122
C60	C	1.324230	0.364925	0.499878
C61	C	0.887011	-0.371083	-0.000116
C62	C	1.387011	0.128917	0.499884
C63	C	0.853165	-0.421514	-0.061836
C64	C	1.353165	0.078486	0.438164
C65	C	0.821713	-0.305786	-0.000112
C66	C	1.321713	0.194214	0.499888
C67	C	0.853131	-0.421496	0.061590
C68	C	1.353131	0.078504	0.561590
C69	C	0.819286	-0.470686	-0.000100
C70	C	1.319286	0.029314	0.499900
C71	C	0.787884	-0.354988	-0.061883
C72	C	1.287884	0.145012	0.438117
C73	C	0.787860	-0.354967	0.061599
C74	C	1.287860	0.145033	0.561599
C75	C	0.753966	-0.405365	-0.000136
C76	C	1.253966	0.094635	0.499864
C77	C	0.823113	-0.210791	-0.000120
C78	C	1.323113	0.289209	0.499880
C79	C	0.817881	-0.565677	-0.000097
C80	C	1.317881	-0.065677	0.499903
C81	C	0.947490	0.105135	-0.000121
C82	C	1.447490	0.605135	0.499879
C83	C	1.024598	0.106492	-0.000136
C84	C	1.524598	0.606492	0.499864
C85	C	0.815408	0.265355	-0.000094
C86	C	1.315408	0.765355	0.499906
C87	C	0.816767	0.358598	-0.000089
C88	C	1.316767	0.858598	0.499911
N89	N	0.820477	0.111752	0.178053
N90	N	1.320477	0.611752	0.678053
N91	N	0.820525	0.111765	-0.178258
N92	N	1.320525	0.611765	0.321742
C93	C	0.867720	0.054491	0.217431
C94	C	1.367720	0.554491	0.717431
C95	C	0.867724	0.054487	0.296232
C96	C	1.367724	0.554487	0.796232
C97	C	0.820491	0.111759	0.335653
C98	C	1.320491	0.611759	0.835653
C99	C	0.773239	0.169024	0.296266
C100	C	1.273239	0.669024	0.796266
C101	C	0.773232	0.169021	0.217466
C102	C	1.273232	0.669021	0.717466
C103	C	0.811381	0.188295	0.460497
C104	C	1.311381	0.688295	0.960497
C105	C	0.811393	0.188299	0.539295
C106	C	1.311393	0.688299	1.039295
C107	C	0.820510	0.111769	0.578700
C108	C	1.320510	0.611769	1.078700
C109	C	0.829629	0.035230	0.539296
C110	C	1.329629	0.535230	1.039296
C111	C	0.829622	0.035227	0.460495
C112	C	1.329622	0.535227	0.960495
C113	C	0.820494	0.111768	0.421099
C114	C	1.320494	0.611768	0.921099
C115	C	0.867760	0.054499	0.703523
C116	C	1.367760	0.554499	1.203523
C117	C	0.867759	0.054494	0.782327
C118	C	1.367759	0.554494	1.282327
C119	C	0.773278	0.169038	0.782359
C120	C	1.273278	0.669038	1.282359
C121	C	0.773275	0.169036	0.703557
C122	C	1.273275	0.669036	1.203557
C123	C	0.820520	0.111767	0.664144
C124	C	1.320520	0.611767	1.164144
H125	H	0.478278	0.114572	-0.123900
H126	H	0.978278	0.614572	0.376100
H127	H	0.245134	0.199865	-0.094953
H128	H	0.745134	0.699865	0.405047
N129	N	0.802075	0.266483	0.420262
N130	N	1.302075	0.766483	0.920262
N131	N	0.793949	0.334812	0.455450
N132	N	1.293949	0.834812	0.955450
H133	H	0.787381	0.390031	0.427035
H134	H	1.287381	0.890031	0.927035
H135	H	0.760300	-0.325900	0.113788
H136	H	1.260300	0.174100	0.613788
H137	H	0.734818	0.215666	0.814455
H138	H	1.234818	0.715666	1.314455
H139	H	0.162807	0.108952	-0.123935
H140	H	0.662807	0.608952	0.376065
N141	N	0.258037	0.010963	0.105561
N142	N	0.758037	0.510963	0.605561
N143	N	0.295136	-0.032389	0.152237
N144	N	0.795136	0.467611	0.652237
H145	H	0.272850	-0.068364	0.189949
H146	H	0.772850	0.431636	0.689949
N147	N	0.838932	-0.042944	0.579547
N148	N	1.338932	0.457056	1.079547
N149	N	0.838925	-0.042934	0.649903
N150	N	1.338925	0.457066	1.149903
H151	H	0.845492	-0.098143	0.678335
H152	H	1.345492	0.401857	1.178335
N153	N	0.753323	-0.318689	-0.127410
N154	N	1.253323	0.181311	0.372590
N155	N	0.748827	-0.240741	-0.138003
N156	N	1.248827	0.259259	0.361997
H157	H	0.724421	-0.215102	-0.184282
H158	H	1.224421	0.284898	0.315718
H159	H	0.906196	0.007857	0.328300
H160	H	1.406196	0.507857	0.828300
N161	N	0.683350	-0.424482	-0.000173
N162	N	1.183350	0.075518	0.499827
N163	N	0.643497	-0.399918	-0.053212
N164	N	1.143497	0.100082	0.446788
H165	H	0.593625	-0.413419	-0.053242
H166	H	1.093625	0.086581	0.446758
H167	H	0.734760	0.215650	0.185404
H168	H	1.234760	0.715650	0.685404
H169	H	0.880713	-0.450539	0.113766
H170	H	1.380713	0.049461	0.613766
N171	N	0.957573	-0.351765	-0.000192
N172	N	1.457573	0.148235	0.499808
N173	N	1.006855	-0.410095	-0.000792
N174	N	1.506855	0.089905	0.499208
H175	H	1.056689	-0.396452	-0.000848
H176	H	1.556689	0.103548	0.499152
N177	N	0.802083	0.266468	0.579557
N178	N	1.302083	0.766468	1.079557
N179	N	0.848478	0.285186	0.623509
N180	N	1.348478	0.785186	1.123509
H181	H	0.841902	0.340393	0.651945
H182	H	1.341902	0.840393	1.151945
N183	N	0.916041	-0.003941	0.177184
N184	N	1.416041	0.496059	0.677184
N185	N	0.958258	-0.055017	0.212359
N186	N	1.458258	0.444983	0.712359
H187	H	0.992407	-0.096259	0.183934
H188	H	1.492407	0.403741	0.683934
N189	N	0.724983	0.227514	0.336531
N190	N	1.224983	0.727514	0.836531
N191	N	0.681881	0.200996	0.380521
N192	N	1.181881	0.700996	0.880521
H193	H	0.647795	0.242303	0.408958
H194	H	1.147795	0.742303	0.908958
N195	N	0.887773	-0.457951	-0.127305
N196	N	1.387773	0.042049	0.372695
N197	N	0.950727	-0.450263	-0.138314
N198	N	1.450727	0.049737	0.361686
H199	H	0.975173	-0.475993	-0.184550
H200	H	1.475173	0.024007	0.315450
H201	H	0.837046	-0.027093	0.428416
H202	H	1.337046	0.472907	0.928416
N203	N	0.915934	-0.004107	0.663270
N204	N	1.415934	0.495893	1.163270
N205	N	0.958052	-0.055306	0.698443
N206	N	1.458052	0.444694	1.198443
H207	H	0.992043	-0.096737	0.670016
H208	H	1.492043	0.403263	1.170016
N209	N	0.617214	0.117037	-0.138031
N210	N	1.117214	0.617037	0.361969
N211	N	0.584883	0.116459	-0.198958
N212	N	1.084883	0.616459	0.301042
H213	H	0.611022	0.116922	-0.248195
H214	H	1.111022	0.616922	0.251805
N215	N	0.170229	0.109055	0.137829
N216	N	0.670229	0.609055	0.637829
N217	N	0.217067	0.050573	0.153052
N218	N	0.717067	0.550573	0.653052
H219	H	0.243186	0.051020	0.202286
H220	H	0.743186	0.551020	0.702286
H221	H	0.376571	0.202202	-0.094945
H222	H	0.876571	0.702202	0.405055
N223	N	0.725013	0.227533	0.663341
N224	N	1.225013	0.727533	1.163341
N225	N	0.682840	0.278662	0.698544
N226	N	1.182840	0.778662	1.198544
H227	H	0.648750	0.319978	0.670142
H228	H	1.148750	0.819978	1.170142
N229	N	0.023882	0.106475	-0.138093
N230	N	0.523882	0.606475	0.361907
N231	N	0.038410	0.047418	-0.183784
N232	N	0.538410	0.547418	0.316216
H233	H	0.012307	0.046945	-0.233026
H234	H	0.512307	0.546945	0.266974
H235	H	0.906228	0.007861	0.814389
H236	H	1.406228	0.507861	1.314389
H237	H	0.031284	0.106609	0.123676
H238	H	0.531284	0.606609	0.623676
H239	H	0.395863	0.023644	0.094748
H240	H	0.895863	0.523644	0.594748
N241	N	0.617131	0.117031	0.137880
N242	N	1.117131	0.617031	0.637880
N243	N	0.663967	0.058548	0.153107
N244	N	1.163967	0.558548	0.653107
H245	H	0.690084	0.058997	0.202343
H246	H	1.190084	0.558997	0.702343
H247	H	0.478186	0.114570	0.123720
H248	H	0.978186	0.614570	0.623720
