data_functionalizedCrystal
_audit_creation_method	'MofGen! by Chris Wilmer'
_symmetry_space_group_name_H-M	'P1'
_symmetry_Int_Tables_number	1
_symmetry_cell_setting	triclinic
loop_
_symmetry_equiv_pos_as_xyz
  x,y,z
_cell_length_a	12.759401
_cell_length_b	11.169416
_cell_length_c	12.759393
_cell_angle_alpha	89.971305
_cell_angle_beta	89.980163
_cell_angle_gamma	90.011865
loop_
_atom_site_label
_atom_site_type_symbol
_atom_site_fract_x
_atom_site_fract_y
_atom_site_fract_z
Zn1	Zn	1.606287	-0.477687	-0.594041
Zn2	Zn	2.106287	0.022313	-0.094041
Zn3	Zn	1.606195	-0.678420	-0.418371
Zn4	Zn	2.106195	-0.178420	0.081629
Zn5	Zn	1.430589	-0.477755	-0.418377
Zn6	Zn	1.930589	0.022245	0.081623
Zn7	Zn	1.430591	-0.678332	-0.594008
Zn8	Zn	1.930591	-0.178332	-0.094008
O9	O	1.518415	-0.578048	-0.506199
O10	O	2.018415	-0.078048	-0.006199
O11	O	1.753296	-0.504323	-0.570750
O12	O	2.253296	-0.004323	-0.070750
O13	O	1.582861	-0.651866	-0.271350
O14	O	2.082861	-0.151866	0.228650
O15	O	1.453933	-0.309796	-0.441696
O16	O	1.953933	0.190204	0.058304
O17	O	1.753228	-0.651801	-0.441685
O18	O	2.253228	-0.151801	0.058315
O19	O	1.583018	-0.309746	-0.570756
O20	O	2.083018	0.190254	-0.070756
O21	O	1.453844	-0.504438	-0.271355
O22	O	1.953844	-0.004438	0.228645
O23	O	1.283568	-0.504353	-0.441663
O24	O	1.783568	-0.004353	0.058337
O25	O	1.453937	-0.651651	-0.741033
O26	O	1.953937	-0.151651	-0.241033
O27	O	1.283570	-0.651717	-0.570698
O28	O	1.783570	-0.151717	-0.070698
O29	O	1.583020	-0.504238	-0.741058
O30	O	2.083020	-0.004238	-0.241058
O31	O	1.582863	-0.846358	-0.441653
O32	O	2.082863	-0.346358	0.058347
O33	O	1.453847	-0.846293	-0.570692
O34	O	1.953847	-0.346293	-0.070692
C35	C	1.245448	-0.578034	-0.506178
C36	C	1.745448	-0.078034	-0.006178
C37	C	1.128671	-0.578056	-0.506194
C38	C	1.628671	-0.078056	-0.006194
C39	C	1.073838	-0.654905	-0.573277
C40	C	1.573838	-0.154905	-0.073277
C41	C	0.964114	-0.654910	-0.573298
C42	C	1.464114	-0.154910	-0.073298
C43	C	0.964067	-0.501213	-0.439144
C44	C	1.464067	-0.001213	0.060856
C45	C	1.073789	-0.501204	-0.439129
C46	C	1.573789	-0.001204	0.060871
C47	C	1.518374	-0.889873	-0.506191
C48	C	2.018374	-0.389873	-0.006191
C49	C	1.518452	-1.023273	-0.506223
C50	C	2.018452	-0.523273	-0.006223
C51	C	1.792449	-0.578064	-0.506221
C52	C	2.292449	-0.078064	-0.006221
C53	C	1.909225	-0.578071	-0.506230
C54	C	2.409225	-0.078071	-0.006230
C55	C	1.518489	-0.577927	-0.780233
C56	C	2.018489	-0.077927	-0.280233
C57	C	1.518520	-0.577875	-0.897009
C58	C	2.018520	-0.077875	-0.397009
C59	C	1.518486	-0.265006	-0.506230
C60	C	2.018486	0.234994	-0.006230
C61	C	1.518516	-0.131606	-0.506243
C62	C	2.018516	0.368394	-0.006243
C63	C	1.451365	-0.501096	-0.951873
C64	C	1.951365	-0.001096	-0.451873
C65	C	1.451389	-0.501059	-1.061597
C66	C	1.951389	-0.001059	-0.561597
C67	C	1.585733	-0.654584	-1.061584
C68	C	2.085733	-0.154584	-0.561584
C69	C	1.585702	-0.654626	-0.951862
C70	C	2.085702	-0.154626	-0.451862
C71	C	1.518403	-0.578083	-0.233232
C72	C	2.018403	-0.078083	0.266768
C73	C	1.518575	-0.577796	-0.116456
C74	C	2.018575	-0.077796	0.383544
H75	H	1.118435	-0.438617	-0.384502
H76	H	1.618435	0.061383	0.115498
H77	H	1.640390	-0.717154	-0.907191
H78	H	2.140390	-0.217154	-0.407191
Cl79	Cl	1.366903	-0.404614	-0.882919
Cl80	Cl	1.866903	0.095386	-0.382919
H81	H	1.118520	-0.717481	-0.627889
H82	H	1.618520	-0.217481	-0.127889
H83	H	0.919473	-0.717486	-0.627925
H84	H	1.419473	-0.217486	-0.127925
H85	H	1.396704	-0.438538	-1.106263
H86	H	1.896704	0.061462	-0.606263
H87	H	0.919368	-0.438644	-0.384540
H88	H	1.419368	0.061356	0.115460
H89	H	1.640431	-0.717072	-1.106258
H90	H	2.140431	-0.217072	-0.606258
