data_functionalizedCrystal
_audit_creation_method	'MofGen! by Chris Wilmer'
_symmetry_space_group_name_H-M	'P1'
_symmetry_Int_Tables_number	1
_symmetry_cell_setting	triclinic
loop_
_symmetry_equiv_pos_as_xyz
  x,y,z
_cell_length_a	12.645331
_cell_length_b	18.050589
_cell_length_c	12.645323
_cell_angle_alpha	90.025443
_cell_angle_beta	90.015738
_cell_angle_gamma	90.027456
loop_
_atom_site_label
_atom_site_type_symbol
_atom_site_fract_x
_atom_site_fract_y
_atom_site_fract_z
Zn1	Zn	1.620654	-0.295669	0.599246
Zn2	Zn	1.620503	-0.419868	0.421984
Zn3	Zn	1.443368	-0.295694	0.422012
Zn4	Zn	1.443317	-0.419820	0.599221
O5	O	1.531960	-0.357763	0.510616
O6	O	1.768981	-0.312153	0.575731
O7	O	1.596964	-0.403427	0.273640
O8	O	1.466970	-0.191766	0.445544
O9	O	1.768870	-0.403402	0.445497
O10	O	1.597221	-0.191748	0.575757
O11	O	1.466824	-0.312197	0.273661
O12	O	1.295014	-0.312151	0.445520
O13	O	1.466883	-0.403320	0.747572
O14	O	1.294977	-0.403345	0.575715
O15	O	1.597171	-0.312107	0.747590
O16	O	1.596914	-0.523786	0.445473
O17	O	1.466737	-0.523751	0.575688
C18	C	1.256531	-0.357746	0.510618
C19	C	1.138701	-0.357757	0.510645
C20	C	0.971149	-0.415442	0.592123
C21	C	1.093709	-0.415255	0.592464
C22	C	1.094243	-0.279537	0.541167
C23	C	0.971645	-0.279889	0.541741
C24	C	0.971450	-0.377661	0.398385
C25	C	1.094055	-0.379372	0.398991
C26	C	1.531833	-0.550715	0.510598
C27	C	1.531875	-0.633261	0.510626
C28	C	1.461154	-0.832719	0.581412
C29	C	1.435307	-0.882161	0.484681
C30	C	1.531979	-0.784391	0.510640
C31	C	1.557878	-0.882030	0.607382
C32	C	1.532077	-0.930376	0.510662
C33	C	1.506081	-0.832746	0.413857
C34	C	1.628697	-0.832611	0.536624
C35	C	1.602887	-0.882031	0.439826
C36	C	1.531919	-0.700293	0.510629
C37	C	1.532137	-1.014473	0.510662
C38	C	1.808466	-0.357780	0.510614
C39	C	1.926296	-0.357788	0.510613
C40	C	1.532039	-0.357705	0.787121
C41	C	1.532072	-0.357681	0.904951
C42	C	1.532118	-0.164057	0.510656
C43	C	1.532185	-0.081511	0.510674
C44	C	1.531944	-0.357766	0.235186
C45	C	1.532116	-0.357582	0.117356
C46	C	1.449855	-0.414793	1.072504
C47	C	1.450070	-0.415075	0.949944
C48	C	1.643766	-0.378921	0.949457
C49	C	1.643315	-0.379280	1.072056
C50	C	1.503651	-0.279009	1.072154
C51	C	1.501159	-0.279480	0.949547
H52	H	0.943075	-0.263032	0.623784
H53	H	1.579743	-0.903679	0.689188
N54	N	1.476997	-0.804198	0.305463
H55	H	1.477108	-0.748246	0.306130
H56	H	1.404232	-0.822714	0.285748
H57	H	1.366784	-0.401629	1.101988
H58	H	1.124682	-0.340426	0.335001
N59	N	1.134935	-0.256805	0.648670
H60	H	1.073311	-0.248857	0.698182
H61	H	1.176612	-0.209292	0.642014
N62	N	1.574724	-0.220027	0.908990
H63	H	1.571007	-0.218219	0.829247
H64	H	1.649490	-0.231614	0.931677
H65	H	1.662823	-0.903546	0.379916
N66	N	1.736954	-0.803759	0.565761
H67	H	1.756418	-0.821652	0.638883
H68	H	1.736200	-0.747814	0.564790
H69	H	1.123387	-0.235413	0.483653
N70	N	0.932337	-0.221078	0.466508
H71	H	0.852467	-0.220856	0.466282
H72	H	0.959109	-0.232033	0.392906
H73	H	1.123766	-0.473260	0.573335
H74	H	1.468859	-0.473325	0.920627
H75	H	1.367244	-0.401784	0.919852
H76	H	0.941642	-0.473638	0.573205
H77	H	1.123123	-0.436930	0.375970
H78	H	0.940513	-0.433727	0.370643
H79	H	1.401171	-0.811066	0.641177
N80	N	0.933033	-0.322039	0.317932
H81	H	0.886608	-0.284147	0.353944
H82	H	0.891107	-0.348435	0.261309
N83	N	1.327024	-0.910985	0.455556
H84	H	1.273534	-0.893051	0.509046
H85	H	1.328127	-0.966930	0.455085
N86	N	1.474515	-0.491476	1.113282
H87	H	1.538738	-0.489316	1.160688
H88	H	1.489147	-0.525560	1.051645
H89	H	1.667445	-0.436718	1.100663
H90	H	1.706683	-0.339419	1.101727
H91	H	1.423623	-0.259648	1.103068
N92	N	0.930374	-0.398252	0.701637
H93	H	0.882975	-0.353280	0.698679
H94	H	0.992004	-0.388008	0.750319
H95	H	1.706699	-0.338570	0.920315
N96	N	1.676281	-0.454206	0.908804
H97	H	1.622980	-0.492499	0.932289
H98	H	1.748267	-0.467314	0.937893
N99	N	1.583010	-0.222544	1.110569
H100	H	1.637142	-0.247695	1.157026
H101	H	1.545310	-0.182904	1.152463
H102	H	1.418962	-0.263462	0.920458
H103	H	1.123061	-0.402103	0.675620
