data_functionalizedCrystal
_audit_creation_method	'MofGen! by Chris Wilmer'
_symmetry_space_group_name_H-M	'P1'
_symmetry_Int_Tables_number	1
_symmetry_cell_setting	triclinic
loop_
_symmetry_equiv_pos_as_xyz
  x,y,z
_cell_length_a	17.699104
_cell_length_b	17.699083
_cell_length_c	18.366186
_cell_angle_alpha	89.992864
_cell_angle_beta	89.990066
_cell_angle_gamma	83.287266
loop_
_atom_site_label
_atom_site_type_symbol
_atom_site_fract_x
_atom_site_fract_y
_atom_site_fract_z
O1	O	1.004071	0.095787	-0.060566
O2	O	0.783695	0.108223	-0.060564
O3	O	0.900109	-0.008183	-0.060559
O4	O	0.887656	0.212194	-0.060571
O5	O	0.900089	-0.008189	0.060541
O6	O	0.783675	0.108218	0.060535
O7	O	1.004051	0.095782	0.060534
Zn8	Zn	0.893860	0.101999	0.079762
Zn9	Zn	0.893886	0.102006	-0.079792
O10	O	0.887637	0.212188	0.060528
C11	C	0.755488	0.107772	-0.000014
C12	C	0.671471	0.106427	-0.000013
C13	C	0.146600	0.167171	-0.000025
C14	C	0.225543	0.168430	-0.000027
C15	C	0.274161	0.100095	-0.000023
C16	C	0.243831	0.030496	-0.000024
C17	C	0.164889	0.029238	-0.000027
C18	C	0.562197	0.035569	-0.000012
C19	C	0.641144	0.036833	-0.000007
C20	C	0.622852	0.174762	-0.000012
C21	C	0.543909	0.173503	-0.000015
C22	C	0.513587	0.103905	-0.000020
C23	C	0.427987	0.102541	-0.000019
C24	C	0.359759	0.101459	-0.000018
C25	C	0.899653	-0.036383	-0.000009
C26	C	0.898314	-0.120402	-0.000009
C27	C	0.966647	-0.169017	-0.000008
C28	C	0.965385	-0.247961	-0.000014
C29	C	0.895789	-0.278287	-0.000016
C30	C	0.827451	-0.229665	-0.000019
C31	C	0.828714	-0.150723	-0.000018
C32	C	0.822356	-0.548028	-0.000025
C33	C	0.821098	-0.626976	-0.000024
C34	C	0.959026	-0.645266	-0.000022
C35	C	0.960289	-0.566324	-0.000020
C36	C	0.891952	-0.517709	-0.000027
C37	C	0.893321	-0.432110	-0.000021
C38	C	0.894419	-0.363885	-0.000017
C39	C	1.032258	0.096233	-0.000018
C40	C	1.116275	0.097578	-0.000024
C41	C	0.888093	0.240388	-0.000023
C42	C	0.889431	0.324406	-0.000028
N43	N	0.893847	0.101993	0.188653
N44	N	0.893904	0.102006	-0.188683
C45	C	0.945413	0.050473	0.226755
C46	C	0.945417	0.050470	0.302983
C47	C	0.893864	0.101999	0.341105
C48	C	0.842290	0.153523	0.302993
C49	C	0.842281	0.153520	0.226767
C50	C	0.883822	0.170948	0.461862
C51	C	0.883835	0.170952	0.538087
C52	C	0.893886	0.102009	0.576213
C53	C	0.903939	0.033059	0.538105
C54	C	0.903930	0.033056	0.461878
C55	C	0.893867	0.102008	0.423760
C56	C	0.945459	0.050481	0.696971
C57	C	0.945458	0.050477	0.773200
C58	C	0.842334	0.153536	0.773208
C59	C	0.842331	0.153534	0.696981
C60	C	0.893897	0.102007	0.658866
H61	H	0.283422	-0.025143	-0.000025
F62	F	1.000337	-0.004361	0.656406
F63	F	1.034362	-0.534054	-0.000019
H64	H	0.800356	0.195489	0.804247
H65	H	0.680728	-0.018817	-0.000006
F66	F	0.873179	0.244333	0.421292
F67	F	0.914641	-0.040321	0.578675
H68	H	0.537518	-0.021102	-0.000014
F69	F	0.755985	-0.098982	-0.000020
H70	H	0.987409	0.008515	0.334012
H71	H	0.140200	-0.027432	-0.000027
F72	F	1.000339	-0.004364	0.813753
F73	F	0.094864	0.239904	-0.000023
H74	H	0.766711	-0.508455	-0.000030
H75	H	1.021028	-0.287541	-0.000012
H76	H	1.023320	-0.144333	-0.000002
H77	H	0.250230	0.225100	-0.000034
F78	F	1.031758	-0.697012	-0.000017
F79	F	0.492171	0.246235	-0.000017
F80	F	0.787452	0.208372	0.656426
H81	H	0.912114	-0.023086	0.430854
F82	F	0.747021	-0.659249	-0.000027
F83	F	0.873141	0.244333	0.578637
F84	F	0.787420	0.208362	0.343566
F85	F	0.753381	-0.261942	-0.000029
F86	F	0.787396	0.208356	0.186213
F87	F	1.000290	-0.004368	0.186193
F88	F	0.655130	0.248835	-0.000012
