data_functionalizedCrystal
_audit_creation_method	'MofGen! by Chris Wilmer'
_symmetry_space_group_name_H-M	'P1'
_symmetry_Int_Tables_number	1
_symmetry_cell_setting	triclinic
loop_
_symmetry_equiv_pos_as_xyz
  x,y,z
_cell_length_a	12.759401
_cell_length_b	12.759399
_cell_length_c	12.759393
_cell_angle_alpha	90.027289
_cell_angle_beta	89.979062
_cell_angle_gamma	89.982944
loop_
_atom_site_label
_atom_site_type_symbol
_atom_site_fract_x
_atom_site_fract_y
_atom_site_fract_z
Zn1	Zn	1.606260	0.418173	-0.594044
Zn2	Zn	1.606149	0.593888	-0.418373
Zn3	Zn	1.430559	0.418229	-0.418379
Zn4	Zn	1.430548	0.593815	-0.594011
O5	O	1.518379	0.506026	-0.506202
O6	O	1.753267	0.441489	-0.570752
O7	O	1.582814	0.570641	-0.271353
O8	O	1.453917	0.271200	-0.441697
O9	O	1.753185	0.570587	-0.441688
O10	O	1.583004	0.271159	-0.570757
O11	O	1.453809	0.441584	-0.271357
O12	O	1.283537	0.441513	-0.441665
O13	O	1.453899	0.570461	-0.741036
O14	O	1.283529	0.570516	-0.570701
O15	O	1.582994	0.441418	-0.741060
O16	O	1.582804	0.740900	-0.441656
O17	O	1.453791	0.740846	-0.570696
C18	C	1.245412	0.506013	-0.506181
C19	C	1.128635	0.506033	-0.506197
C20	C	1.073797	0.573307	-0.573280
C21	C	0.964073	0.573311	-0.573301
C22	C	0.964035	0.438764	-0.439146
C23	C	1.073757	0.438756	-0.439131
C24	C	1.518313	0.778994	-0.506195
C25	C	1.518380	0.895770	-0.506227
C26	C	1.585631	0.950625	-0.439113
C27	C	1.585694	1.060349	-0.439152
C28	C	1.451247	1.060353	-0.573421
C29	C	1.451190	0.950631	-0.573387
C30	C	1.652822	0.895764	-0.371954
C31	C	1.720077	0.950619	-0.304834
C32	C	1.720140	1.060343	-0.304872
C33	C	1.652948	1.115212	-0.372031
C34	C	1.792412	0.506040	-0.506223
C35	C	1.909189	0.506046	-0.506232
C36	C	1.518458	0.505925	-0.780235
C37	C	1.518491	0.505882	-0.897012
C38	C	1.518471	1.231993	-0.506245
C39	C	1.518500	1.115216	-0.506300
C40	C	1.585716	0.438679	-0.951888
C41	C	1.585734	0.438633	-1.061612
C42	C	1.451299	0.573004	-1.061574
C43	C	1.451277	0.573044	-0.951852
C44	C	1.518361	0.506051	-0.233234
C45	C	1.518531	0.505798	-0.116458
H46	H	0.919340	0.383991	-0.384542
O47	O	1.386008	1.113812	-0.638550
C48	C	1.326553	1.282849	-0.698145
C49	C	1.400475	1.222440	-0.624319
H50	H	1.338239	1.370685	-0.686681
H51	H	1.241812	1.261437	-0.679612
H52	H	1.344935	1.261134	-0.782860
H53	H	1.382187	1.244123	-0.539579
H54	H	1.485194	1.243856	-0.642942
H55	H	1.396429	0.905968	-0.628038
H56	H	1.396578	0.627687	-1.106238
O57	O	1.385860	0.638181	-0.898492
C58	C	1.244029	0.652345	-0.774535
C59	C	1.318030	0.578466	-0.834918
H60	H	1.189184	0.604096	-0.723105
H61	H	1.195923	0.700328	-0.832530
H62	H	1.292257	0.707321	-0.723213
H63	H	1.269883	0.523427	-0.886242
H64	H	1.366140	0.530557	-0.776867
H65	H	1.640443	0.383989	-0.907240
H66	H	1.653013	1.204557	-0.372065
H67	H	1.118475	0.628086	-0.627892
O68	O	1.785248	0.897163	-0.239636
C69	C	1.844786	0.728129	-0.180114
C70	C	1.770907	0.788534	-0.253986
H71	H	1.833232	0.640292	-0.191706
H72	H	1.826389	0.749711	-0.095366
H73	H	1.929493	0.749677	-0.198634
H74	H	1.686175	0.767018	-0.235562
H75	H	1.789394	0.766947	-0.338712
H76	H	0.919428	0.628090	-0.627928
O77	O	1.785645	1.113484	-0.239733
C78	C	1.964432	1.146886	-0.188971
C79	C	1.890351	1.086646	-0.262796
H80	H	2.049104	1.125227	-0.207605
H81	H	1.946107	1.125362	-0.104217
H82	H	1.952924	1.234736	-0.200485
H83	H	1.901818	0.998783	-0.251375
H84	H	1.908694	1.108258	-0.347523
O85	O	1.126987	0.373515	-0.373810
C86	C	1.160444	0.322254	-0.195185
C87	C	1.100115	0.396218	-0.269031
H88	H	1.138724	0.340568	-0.110457
H89	H	1.248304	0.333807	-0.206608
H90	H	1.138913	0.237568	-0.213834
H91	H	1.121559	0.480932	-0.250428
H92	H	1.012270	0.384575	-0.257595
O93	O	1.651137	0.373321	-1.114756
C94	C	1.784435	0.240006	-1.103207
C95	C	1.710434	0.313941	-1.042893
H96	H	1.832380	0.191963	-1.045132
H97	H	1.839430	0.288176	-1.154554
H98	H	1.736214	0.185090	-1.154600
H99	H	1.758570	0.368873	-0.991443
H100	H	1.655436	0.265706	-0.991612
H101	H	1.652775	0.806421	-0.371912
