data_functionalizedCrystal
_audit_creation_method	'MofGen! by Chris Wilmer'
_symmetry_space_group_name_H-M	'P1'
_symmetry_Int_Tables_number	1
_symmetry_cell_setting	triclinic
loop_
_symmetry_equiv_pos_as_xyz
  x,y,z
_cell_length_a	11.792254
_cell_length_b	10.868271
_cell_length_c	11.792253
_cell_angle_alpha	89.993028
_cell_angle_beta	95.801402
_cell_angle_gamma	90.004308
loop_
_atom_site_label
_atom_site_type_symbol
_atom_site_fract_x
_atom_site_fract_y
_atom_site_fract_z
O1	O	1.506908	0.102338	-0.155630
O2	O	2.006908	0.602338	0.344370
O3	O	1.176569	0.102342	-0.171648
O4	O	1.676569	0.602342	0.328352
O5	O	1.349747	0.102314	0.001530
O6	O	1.849747	0.602314	0.501530
O7	O	1.333729	0.102366	-0.328808
O8	O	1.833729	0.602366	0.171192
O9	O	1.349732	-0.102330	0.001525
O10	O	1.849732	0.397670	0.501525
O11	O	1.176553	-0.102303	-0.171653
O12	O	1.676553	0.397697	0.328347
O13	O	1.506892	-0.102307	-0.155635
O14	O	2.006892	0.397693	0.344365
Zn15	Zn	1.341720	-0.134797	-0.163645
Zn16	Zn	1.841720	0.365203	0.336355
Zn17	Zn	1.341741	0.134832	-0.163638
Zn18	Zn	1.841741	0.634832	0.336362
O19	O	1.333714	-0.102279	-0.328814
O20	O	1.833714	0.397721	0.171186
C21	C	1.134271	0.000020	-0.170642
C22	C	1.634271	0.500020	0.329358
C23	C	1.008257	0.000020	-0.167621
C24	C	1.508257	0.500020	0.332379
N25	N	1.341714	-0.318811	-0.163650
N26	N	1.841714	0.181189	0.336350
C27	C	0.905921	0.000025	-0.165168
C28	C	1.405921	0.500025	0.334832
C29	C	0.777534	0.000026	-0.162099
C30	C	1.277534	0.500026	0.337901
C31	C	1.341723	-0.430148	-0.163650
C32	C	1.841723	0.069852	0.336350
C33	C	1.341738	-0.569826	-0.163640
C34	C	1.841738	-0.069826	0.336360
C35	C	1.549190	0.000018	-0.156642
C36	C	2.049190	0.500018	0.343358
C37	C	1.675204	0.000025	-0.159662
C38	C	2.175204	0.500025	0.340338
C39	C	1.348730	-0.000012	0.043818
C40	C	1.848730	0.499988	0.543818
C41	C	1.345710	-0.000024	0.169832
C42	C	1.845710	0.499976	0.669832
N43	N	1.341756	0.318846	-0.163625
N44	N	1.841756	0.818846	0.336375
C45	C	1.343256	-0.000030	0.272168
C46	C	1.843256	0.499970	0.772168
C47	C	1.340188	-0.000031	0.400555
C48	C	1.840188	0.499969	0.900555
C49	C	1.334731	0.000024	0.628898
C50	C	1.834731	0.500024	1.128898
C51	C	1.337751	-0.000032	0.502885
C52	C	1.837751	0.499968	1.002885
