data_functionalizedCrystal
_audit_creation_method	'MofGen! by Chris Wilmer'
_symmetry_space_group_name_H-M	'P1'
_symmetry_Int_Tables_number	1
_symmetry_cell_setting	triclinic
loop_
_symmetry_equiv_pos_as_xyz
  x,y,z
_cell_length_a	19.288840
_cell_length_b	15.995292
_cell_length_c	18.366186
_cell_angle_alpha	89.996953
_cell_angle_beta	89.983729
_cell_angle_gamma	83.297316
loop_
_atom_site_label
_atom_site_type_symbol
_atom_site_fract_x
_atom_site_fract_y
_atom_site_fract_z
O1	O	0.921617	0.104354	-0.060666
O2	O	1.421617	0.604354	0.439334
O3	O	0.719388	0.118467	-0.060640
O4	O	1.219388	0.618467	0.439360
O5	O	0.826051	-0.010502	-0.060655
O6	O	1.326051	0.489498	0.439345
O7	O	0.814953	0.233323	-0.060651
O8	O	1.314953	0.733323	0.439349
O9	O	0.826033	-0.010508	0.060444
O10	O	1.326033	0.489492	0.560444
O11	O	0.719370	0.118461	0.060459
O12	O	1.219370	0.618461	0.560459
O13	O	0.921599	0.104348	0.060433
O14	O	1.421599	0.604348	0.560433
Zn15	Zn	0.820481	0.111403	0.079673
Zn16	Zn	1.320481	0.611403	0.579673
Zn17	Zn	0.820505	0.111412	-0.079880
Zn18	Zn	1.320505	0.611412	0.420120
O19	O	0.814935	0.233317	0.060448
O20	O	1.314935	0.733317	0.560448
C21	C	0.693501	0.118013	-0.000087
C22	C	1.193501	0.618013	0.499913
C23	C	0.616393	0.116661	-0.000078
C24	C	1.116393	0.616661	0.499922
C25	C	0.580198	0.116014	-0.066091
C26	C	1.080198	0.616014	0.433909
C27	C	0.507748	0.114734	-0.066100
C28	C	1.007748	0.614734	0.433900
C29	C	0.471498	0.114083	-0.000092
C30	C	0.971498	0.614083	0.499908
C31	C	0.507701	0.114735	0.065930
C32	C	1.007701	0.614735	0.565930
C33	C	0.580149	0.116023	0.065937
C34	C	1.080149	0.616023	0.565937
C35	C	0.362039	0.062995	0.050469
C36	C	0.862039	0.562995	0.550469
C37	C	0.289593	0.061701	0.050459
C38	C	0.789593	0.561701	0.550459
C39	C	0.248044	0.110112	-0.000111
C40	C	0.748044	0.610112	0.499889
C41	C	0.278952	0.159807	-0.050683
C42	C	0.778952	0.659807	0.449317
C43	C	0.351400	0.161096	-0.050676
C44	C	0.851400	0.661096	0.449324
C45	C	0.392940	0.112686	-0.000092
C46	C	0.892940	0.612686	0.499908
C47	C	0.133290	0.108079	-0.066138
C48	C	0.633290	0.608079	0.433862
C49	C	0.060839	0.106804	-0.066144
C50	C	0.560839	0.606804	0.433856
C51	C	0.060794	0.106796	0.065887
C52	C	0.560794	0.606796	0.565887
C53	C	0.133244	0.108079	0.065892
C54	C	0.633244	0.608079	0.565892
C55	C	0.169488	0.108717	-0.000123
C56	C	0.669488	0.608717	0.499877
C57	C	0.825591	-0.041699	-0.000107
C58	C	1.325591	0.458301	0.499893
C59	C	0.824236	-0.134646	-0.000112
C60	C	1.324236	0.365354	0.499888
C61	C	0.819258	-0.472366	-0.000105
C62	C	1.319258	0.027634	0.499895
C63	C	0.896245	-0.449352	0.000155
C64	C	1.396245	0.050648	0.500155
C65	C	0.897708	-0.352682	-0.000120
C66	C	1.397708	0.147318	0.499880
C67	C	0.821728	-0.304819	-0.000108
C68	C	1.321728	0.195181	0.499892
C69	C	0.783249	-0.333767	-0.069255
C70	C	1.283249	0.166233	0.430745
C71	C	0.782322	-0.430554	-0.069310
C72	C	1.282322	0.069446	0.430690
C73	C	0.780729	-0.430412	0.068403
C74	C	1.280729	0.069588	0.568403
C75	C	0.783582	-0.333931	0.069314
C76	C	1.283582	0.166069	0.569314
C77	C	0.823120	-0.210129	-0.000113
C78	C	1.323120	0.289871	0.499887
C79	C	0.817864	-0.567056	-0.000106
C80	C	1.317864	-0.067056	0.499894
C81	C	0.947485	0.104802	-0.000121
C82	C	1.447485	0.604802	0.499879
C83	C	1.024593	0.106155	-0.000136
C84	C	1.524593	0.606155	0.499864
C85	C	0.815396	0.264514	-0.000102
C86	C	1.315396	0.764514	0.499898
C87	C	0.816750	0.357462	-0.000101
C88	C	1.316750	0.857462	0.499899
N89	N	0.820470	0.111397	0.188564
N90	N	1.320470	0.611397	0.688564
N91	N	0.820522	0.111411	-0.188772
N92	N	1.320522	0.611411	0.311228
C93	C	0.867716	0.054318	0.226658
C94	C	1.367716	0.554318	0.726658
C95	C	0.867720	0.054314	0.302886
C96	C	1.367720	0.554314	0.802886
C97	C	0.820485	0.111404	0.341017
C98	C	1.320485	0.611404	0.841017
C99	C	0.773230	0.168488	0.302914
C100	C	1.273230	0.668488	0.802914
C101	C	0.773223	0.168484	0.226688
C102	C	1.273223	0.668484	0.726688
C103	C	0.811372	0.187698	0.461779
C104	C	1.311372	0.687698	0.961779
C105	C	0.811384	0.187703	0.538004
C106	C	1.311384	0.687703	1.038004
C107	C	0.820505	0.111415	0.576125
C108	C	1.320505	0.611415	1.076125
C109	C	0.829628	0.035119	0.538011
C110	C	1.329628	0.535119	1.038011
C111	C	0.829620	0.035115	0.461784
C112	C	1.329620	0.535115	0.961784
C113	C	0.820488	0.111414	0.423672
C114	C	1.320488	0.611414	0.923672
C115	C	0.867759	0.054326	0.696873
C116	C	1.367759	0.554326	1.196873
C117	C	0.867758	0.054322	0.773103
C118	C	1.367758	0.554322	1.273103
C119	C	0.773271	0.168503	0.773129
C120	C	1.273271	0.668503	1.273129
C121	C	0.773269	0.168500	0.696901
C122	C	1.273269	0.668500	1.196901
C123	C	0.820516	0.111413	0.658778
C124	C	1.320516	0.611413	1.158778
H125	H	0.245124	0.199232	-0.091859
H126	H	0.745124	0.699232	0.408141
Cl127	Cl	0.178749	0.108887	0.148885
Cl128	Cl	0.678749	0.608887	0.648885
Cl129	Cl	0.941820	-0.494323	-0.075986
Cl130	Cl	1.441820	0.005677	0.424014
H131	H	0.837047	-0.027007	0.430755
H132	H	1.337047	0.472993	0.930755
Cl133	Cl	0.817903	-0.474250	0.149321
Cl134	Cl	1.317903	0.025750	0.649321
Cl135	Cl	0.625654	0.116835	0.148932
Cl136	Cl	1.125654	0.616835	0.648932
Cl137	Cl	0.944220	-0.323487	0.076416
Cl138	Cl	1.444220	0.176513	0.576416
Cl139	Cl	0.799921	0.283616	0.585911
Cl140	Cl	1.299921	0.783616	1.085911
Cl141	Cl	0.693239	-0.451675	0.069138
Cl142	Cl	1.193239	0.048325	0.569138
Cl143	Cl	0.697956	-0.282701	0.075776
Cl144	Cl	1.197956	0.217299	0.575776
H145	H	0.162801	0.108607	-0.119891
H146	H	0.662801	0.608607	0.380109
Cl147	Cl	0.826834	-0.305432	0.148295
Cl148	Cl	1.326834	0.194568	0.648295
H149	H	0.376561	0.201561	-0.091852
H150	H	0.876561	0.701561	0.408148
Cl151	Cl	0.250743	-0.000751	0.114049
Cl152	Cl	0.750743	0.499249	0.614049
Cl153	Cl	0.927108	-0.017451	0.178732
Cl154	Cl	1.427108	0.482549	0.678732
H155	H	0.803933	0.249825	0.430748
H156	H	1.303933	0.749825	0.930748
Cl157	Cl	0.414264	0.002129	0.114049
Cl158	Cl	0.914264	0.502129	0.614049
Cl159	Cl	0.713885	0.240267	0.821060
Cl160	Cl	1.213885	0.740267	1.321060
Cl161	Cl	0.713846	0.240255	0.350848
Cl162	Cl	1.213846	0.740255	0.850848
Cl163	Cl	0.823495	-0.472117	-0.149122
Cl164	Cl	1.323495	0.027883	0.350878
Cl165	Cl	0.713874	0.240265	0.649007
Cl166	Cl	1.213874	0.740265	1.149007
H167	H	0.734748	0.214966	0.195671
H168	H	1.234748	0.714966	0.695671
H169	H	0.928038	-0.334393	-0.049781
H170	H	1.428038	0.165607	0.450219
H171	H	0.478181	0.114207	0.119674
H172	H	0.978181	0.614207	0.619674
H173	H	0.609703	0.116533	-0.119845
H174	H	1.109703	0.616533	0.380155
Cl175	Cl	0.942053	-0.492758	0.076716
Cl176	Cl	1.442053	0.007242	0.576716
Cl177	Cl	0.927122	-0.017449	0.350784
Cl178	Cl	1.427122	0.482551	0.850784
H179	H	0.837055	-0.027003	0.569047
H180	H	1.337055	0.472997	1.069047
Cl181	Cl	0.015334	0.105998	-0.149141
Cl182	Cl	0.515334	0.605998	0.350859
H183	H	0.906228	0.007840	0.665832
H184	H	1.406228	0.507840	1.165832
Cl185	Cl	0.695176	-0.452685	-0.074148
Cl186	Cl	1.195176	0.047315	0.425852
Cl187	Cl	0.696928	-0.284228	-0.073218
Cl188	Cl	1.196928	0.215772	0.426782
H189	H	0.906230	0.007836	0.804119
H190	H	1.406230	0.507836	1.304119
H191	H	0.031279	0.106271	0.119632
H192	H	0.531279	0.606271	0.619632
Cl193	Cl	0.462236	0.113921	-0.149094
Cl194	Cl	0.962236	0.613921	0.350906
Cl195	Cl	0.824528	-0.302959	-0.148718
Cl196	Cl	1.324528	0.197041	0.351282
