data_functionalizedCrystal
_audit_creation_method	'MofGen! by Chris Wilmer'
_symmetry_space_group_name_H-M	'P1'
_symmetry_Int_Tables_number	1
_symmetry_cell_setting	triclinic
loop_
_symmetry_equiv_pos_as_xyz
  x,y,z
_cell_length_a	15.995288
_cell_length_b	15.072220
_cell_length_c	15.995350
_cell_angle_alpha	90.007147
_cell_angle_beta	96.520422
_cell_angle_gamma	89.993785
loop_
_atom_site_label
_atom_site_type_symbol
_atom_site_fract_x
_atom_site_fract_y
_atom_site_fract_z
O1	O	-1.111017	0.073824	0.107683
O2	O	-0.867234	0.073815	0.121065
O3	O	-0.995790	0.073819	-0.007515
O4	O	-0.982462	0.073821	0.236263
O5	O	-0.995781	-0.073746	-0.007531
O6	O	-0.867226	-0.073750	0.121049
O7	O	-1.111008	-0.073741	0.107667
Zn8	Zn	-0.989116	-0.097174	0.114356
Zn9	Zn	-0.989127	0.097249	0.114376
O10	O	-0.982453	-0.073745	0.236247
C11	C	-0.836035	0.000032	0.120513
C12	C	-0.743081	0.000029	0.118882
N13	N	-0.989114	-0.229863	0.114341
C14	C	-0.572897	0.000033	0.115870
C15	C	-0.525431	0.000031	0.207420
C16	C	-0.428743	0.000367	0.205754
C17	C	-0.405340	0.000037	0.112906
C18	C	-0.446478	0.084138	0.067493
C19	C	-0.543112	0.084207	0.069805
C20	C	-0.543381	-0.083608	0.068432
C21	C	-0.446436	-0.084712	0.068445
C22	C	-0.310644	0.000042	0.111226
C23	C	-0.667594	0.000034	0.117548
C24	C	-0.989128	-0.589065	0.114370
C25	C	-1.058138	-0.551428	0.045799
C26	C	-1.057958	-0.448602	0.045546
C27	C	-0.989122	-0.410861	0.114356
C28	C	-0.901762	-0.448207	0.095295
C29	C	-0.902171	-0.551065	0.094810
C30	C	-1.006690	-0.551140	0.202204
C31	C	-1.008673	-0.448276	0.201615
C32	C	-0.989113	-0.310147	0.114349
C33	C	-0.989131	-0.689778	0.114374
C34	C	-0.142207	0.000042	0.108230
C35	C	-0.235156	0.000042	0.109894
C36	C	-0.995234	0.000038	-0.038718
C37	C	-0.993583	0.000043	-0.131668
N38	N	-0.989135	0.229938	0.114384
C39	C	-0.987650	0.000040	-0.469414
C40	C	-0.896096	0.000368	-0.421959
C41	C	-0.897748	0.000035	-0.325269
C42	C	-0.990593	0.000042	-0.301854
C43	C	-1.035746	-0.084221	-0.342951
C44	C	-1.033446	-0.084292	-0.439586
C45	C	-1.035347	0.083517	-0.439927
C46	C	-1.035325	0.084631	-0.342981
C47	C	-0.992261	0.000041	-0.207157
C48	C	-0.985985	0.000036	-0.564111
C49	C	-0.983009	0.000038	0.267450
C50	C	-0.984660	0.000039	0.360400
H51	H	-0.400276	-0.059906	0.241439
F52	F	-1.143305	-0.583741	0.060392
F53	F	-0.426383	-0.091682	-0.020035
F54	F	-0.947232	-0.414695	0.271436
H55	H	-0.956366	-0.575484	0.253233
F56	F	-0.833020	-0.416256	0.158835
F57	F	-0.851355	0.078987	-0.288099
F58	F	-0.584933	-0.084676	-0.019788
H59	H	-0.545043	0.060250	0.243668
H60	H	-0.561434	0.147312	0.102545
F61	F	-1.123577	0.084266	-0.481461
H62	H	-0.543919	-0.060268	0.244204
H63	H	-1.002312	0.146967	-0.315719
F64	F	-1.142834	-0.415594	0.060388
H65	H	-0.400898	0.061005	0.241298
H66	H	-0.418096	0.146961	0.098640
F67	F	-0.585298	0.088899	-0.018062
F68	F	-0.848350	-0.077962	-0.447849
H69	H	-1.046737	-0.424006	-0.019638
H70	H	-0.432378	0.087029	-0.000730
F71	F	-1.123822	0.091294	-0.322918
F72	F	-0.570171	-0.166952	0.107816
F73	F	-0.410696	-0.166039	0.111789
F74	F	-0.881940	-0.582438	0.011084
H75	H	-0.862009	-0.060474	-0.297403
F76	F	-0.881032	-0.414552	0.012521
H77	H	-1.047081	-0.577287	-0.019015
F78	F	-0.848267	0.079351	-0.446160
H79	H	-1.004378	-0.146932	-0.314569
H80	H	-0.849276	-0.575963	0.142856
F81	F	-1.088178	-0.585026	0.226153
F82	F	-1.092668	-0.416365	0.220528
F83	F	-0.990397	-0.166626	-0.463508
H84	H	-1.100664	-0.088110	-0.471849
F85	F	-1.124903	-0.088314	-0.324509
H86	H	-1.005417	0.147384	-0.460453
