data_functionalizedCrystal
_audit_creation_method	'MofGen! by Chris Wilmer'
_symmetry_space_group_name_H-M	'P1'
_symmetry_Int_Tables_number	1
_symmetry_cell_setting	triclinic
loop_
_symmetry_equiv_pos_as_xyz
  x,y,z
_cell_length_a	10.654547
_cell_length_b	16.992695
_cell_length_c	15.455313
_cell_angle_alpha	87.152573
_cell_angle_beta	87.292117
_cell_angle_gamma	92.422861
loop_
_atom_site_label
_atom_site_type_symbol
_atom_site_fract_x
_atom_site_fract_y
_atom_site_fract_z
O1	O	1.682528	-0.106798	-0.072147
O2	O	1.317956	-0.117294	-0.072146
O3	O	1.498780	0.002104	-0.072139
O4	O	1.501704	-0.226196	-0.072153
O5	O	1.488437	-0.004695	0.072122
O6	O	1.307613	-0.124093	0.072116
O7	O	1.672184	-0.113597	0.072115
Cu8	Cu	1.488954	-0.119466	0.085288
Cu9	Cu	1.501186	-0.111425	-0.085319
O10	O	1.491361	-0.232996	0.072109
C11	C	1.265920	-0.119923	-0.000014
C12	C	1.126277	-0.117616	-0.000014
C13	C	0.875159	-0.105853	-0.157303
C14	C	0.946409	-0.103232	-0.235941
C15	C	1.077614	-0.105406	-0.235938
C16	C	1.137572	-0.110199	-0.157290
C17	C	1.066322	-0.112820	-0.078653
C18	C	0.935114	-0.110649	-0.078664
C19	C	1.055028	-0.120237	0.078624
C20	C	0.923822	-0.118069	0.078623
C21	C	1.114985	-0.125030	0.157272
C22	C	1.043735	-0.127657	0.235911
C23	C	0.912522	-0.125484	0.235905
C24	C	0.852572	-0.120690	0.157261
C25	C	1.489848	0.027938	-0.000009
C26	C	1.478629	0.115043	-0.000009
C27	C	1.724221	-0.110969	-0.000018
C28	C	1.863864	-0.113276	-0.000025
C29	C	1.500293	-0.258829	-0.000024
C30	C	1.511512	-0.345934	-0.000030
N31	N	1.480360	-0.125121	0.205283
C32	C	1.586880	0.164694	-0.000008
C33	C	1.576331	0.246538	-0.000016
C34	C	1.457530	0.278730	-0.000019
C35	C	1.349271	0.229072	-0.000022
C36	C	1.359822	0.147230	-0.000020
C37	C	1.413804	0.522566	-0.000031
C38	C	1.403262	0.604415	-0.000030
C39	C	1.630322	0.621875	-0.000026
C40	C	1.640862	0.540030	-0.000019
C41	C	1.532603	0.490380	-0.000027
N42	N	1.446745	0.362388	-0.000025
N43	N	1.543390	0.406724	-0.000027
N44	N	1.509790	-0.105764	-0.205314
C45	C	1.557211	-0.074416	0.250680
C46	C	1.550724	-0.078700	0.341487
C47	C	1.467391	-0.133694	0.386897
C48	C	1.390532	-0.184402	0.341494
C49	C	1.397014	-0.180113	0.250688
C50	C	1.439412	-0.152183	0.658477
C51	C	1.432939	-0.156470	0.749290
C52	C	1.593130	-0.050766	0.749277
C53	C	1.599609	-0.046486	0.658469
C54	C	1.522745	-0.097191	0.613074
N55	N	1.460761	-0.138076	0.479717
N56	N	1.529370	-0.092804	0.520256
H57	H	1.135626	-0.103270	-0.299972
H58	H	1.737602	0.513826	-0.000017
C59	C	1.695407	0.301151	-0.000007
H60	H	1.767669	0.270257	0.000007
H61	H	1.699630	0.335810	-0.050314
H62	H	1.692393	0.331070	0.050307
C63	C	1.281894	-0.112585	-0.157289
H64	H	1.315740	-0.110339	-0.215386
H65	H	1.314486	-0.068779	-0.128237
H66	H	1.304494	-0.160121	-0.128253
H67	H	1.221821	-0.126795	0.157268
C68	C	0.834142	-0.128452	0.322406
H69	H	0.747410	-0.126493	0.311144
H70	H	0.848384	-0.176022	0.354656
H71	H	0.858265	-0.084683	0.354778
C72	C	1.109689	-0.132930	0.322411
H73	H	1.198033	-0.133850	0.311149
H74	H	1.090859	-0.088433	0.354731
H75	H	1.080877	-0.179775	0.354714
C76	C	1.691267	0.014012	0.608525
H77	H	1.736100	0.043603	0.648568
H78	H	1.748929	-0.012838	0.573086
H79	H	1.645308	0.048607	0.573118
C80	C	1.677659	0.005011	0.799213
H81	H	1.661860	-0.005412	0.859798
H82	H	1.763435	-0.003288	0.784317
H83	H	1.659810	0.058154	0.784341
C84	C	1.717558	0.129286	-0.000003
H85	H	1.708341	0.073432	0.000007
H86	H	1.766086	0.148655	-0.050309
H87	H	1.758863	0.143921	0.050312
H88	H	1.718460	0.662309	-0.000022
H89	H	1.306514	0.630621	-0.000018
H90	H	1.325652	0.482150	-0.000037
H91	H	1.613300	-0.037411	0.378449
C92	C	0.708250	-0.118301	0.157255
H93	H	0.674399	-0.120553	0.215351
H94	H	0.685652	-0.070773	0.128211
H95	H	0.675660	-0.162115	0.128209
H96	H	1.271672	0.106804	-0.000021
H97	H	1.365077	-0.201256	0.786258
C98	C	1.218593	0.264481	-0.000022
H99	H	1.227811	0.320334	-0.000014
H100	H	1.177278	0.249849	-0.050328
H101	H	1.170073	0.245110	0.050293
H102	H	1.625074	-0.029637	0.213713
C103	C	1.354877	-0.207963	0.608554
H104	H	1.304333	-0.241335	0.648606
H105	H	1.302265	-0.177769	0.573144
H106	H	1.405888	-0.239214	0.573118
H107	H	1.322675	-0.229177	0.378471
H108	H	1.334432	-0.221402	0.213726
H109	H	0.897577	-0.099326	-0.299974
C110	C	0.730834	-0.103494	-0.157309
H111	H	0.705330	-0.100268	-0.215408
H112	H	0.694102	-0.150048	-0.128268
H113	H	0.704032	-0.058704	-0.128267
