data_functionalizedCrystal
_audit_creation_method	'MofGen! by Chris Wilmer'
_symmetry_space_group_name_H-M	'P1'
_symmetry_Int_Tables_number	1
_symmetry_cell_setting	triclinic
loop_
_symmetry_equiv_pos_as_xyz
  x,y,z
_cell_length_a	16.120297
_cell_length_b	13.897449
_cell_length_c	16.120484
_cell_angle_alpha	92.925700
_cell_angle_beta	84.385569
_cell_angle_gamma	87.125908
loop_
_atom_site_label
_atom_site_type_symbol
_atom_site_fract_x
_atom_site_fract_y
_atom_site_fract_z
Zn1	Zn	-0.489546	-1.424978	0.356754
Zn2	Zn	-0.156213	-1.091645	0.690088
Zn3	Zn	0.177121	-0.758311	1.023421
Zn4	Zn	-0.356856	-1.424857	0.489444
Zn5	Zn	-0.023523	-1.091523	0.822777
Zn6	Zn	0.309810	-0.758190	1.156111
Zn7	Zn	-0.349782	-1.272288	0.349690
Zn8	Zn	-0.016449	-0.938954	0.683023
Zn9	Zn	0.316885	-0.605621	1.016356
Zn10	Zn	-0.496568	-1.255017	0.496484
Zn11	Zn	-0.163235	-0.921684	0.829818
Zn12	Zn	0.170099	-0.588351	1.163151
O13	O	-0.423188	-1.344285	0.423093
O14	O	-0.089855	-1.010952	0.756426
O15	O	0.243479	-0.677618	1.089760
O16	O	-0.471966	-1.559942	0.374366
O17	O	-0.138633	-1.226608	0.707699
O18	O	0.194700	-0.893275	1.041033
O19	O	-0.238957	-1.411795	0.465002
O20	O	0.094377	-1.078462	0.798335
O21	O	0.427710	-0.745128	1.131669
O22	O	-0.362423	-1.299821	0.233661
O23	O	-0.029089	-0.966488	0.566995
O24	O	0.304244	-0.633154	0.900328
O25	O	-0.374480	-1.559852	0.471853
O26	O	-0.041146	-1.226519	0.805186
O27	O	0.292187	-0.893186	1.138519
O28	O	-0.465107	-1.412002	0.238852
O29	O	-0.131773	-1.078669	0.572185
O30	O	0.201560	-0.745335	0.905519
O31	O	-0.233759	-1.299703	0.362325
O32	O	0.099574	-0.966370	0.695659
O33	O	0.432908	-0.633037	1.028992
O34	O	-0.369232	-1.135017	0.369152
O35	O	-0.035898	-0.801684	0.702485
O36	O	0.297435	-0.468350	1.035819
O37	O	-0.612598	-1.270386	0.483852
O38	O	-0.279264	-0.937053	0.817185
O39	O	0.054069	-0.603720	1.150519
O40	O	-0.477075	-1.122329	0.477001
O41	O	-0.143741	-0.788995	0.810335
O42	O	0.189592	-0.455662	1.143668
O43	O	-0.607439	-1.395256	0.381193
O44	O	-0.274105	-1.061922	0.714526
O45	O	0.059228	-0.728589	1.047859
O46	O	-0.381289	-1.395048	0.607343
O47	O	-0.047955	-1.061715	0.940676
O48	O	0.285378	-0.728382	1.274010
O49	O	-0.483934	-1.270268	0.612516
O50	O	-0.150601	-0.936935	0.945849
O51	O	0.182732	-0.603602	1.279182
C52	C	-0.423148	-1.093674	0.423075
C53	C	-0.089815	-0.760341	0.756408
C54	C	0.243519	-0.427007	1.089741
C55	C	-0.423152	-0.986459	0.423088
C56	C	-0.089818	-0.653126	0.756421
C57	C	0.243515	-0.319792	1.089755
C58	C	-0.423162	-0.899389	0.423090
C59	C	-0.089829	-0.566055	0.756424
C60	C	0.243505	-0.232722	1.089757
C61	C	-0.423183	-0.790155	0.423096
C62	C	-0.089850	-0.456821	0.756429
C63	C	0.243483	-0.123488	1.089762
C64	C	-0.641193	-1.330908	0.434096
C65	C	-0.307860	-0.997575	0.767429
C66	C	0.025474	-0.664241	1.100762
C67	C	-0.734094	-1.325208	0.438784
C68	C	-0.400760	-0.991874	0.772118
C69	C	-0.067427	-0.658541	1.105451
C70	C	-0.904183	-1.314766	0.447326
C71	C	-0.570850	-0.981432	0.780659
C72	C	-0.237517	-0.648099	1.113993
C73	C	-0.943032	-1.374010	0.398609
C74	C	-0.609699	-1.040676	0.731943
C75	C	-0.276365	-0.707343	1.065276
C76	C	-1.037676	-1.368200	0.403362
C77	C	-0.704342	-1.034867	0.736695
C78	C	-0.371009	-0.701533	1.070029
C79	C	-0.809531	-1.320574	0.442575
C80	C	-0.476198	-0.987241	0.775908
C81	C	-0.142865	-0.653908	1.109241
C82	C	-0.206028	-1.357669	0.412073
C83	C	0.127305	-1.024336	0.745406
C84	C	0.460639	-0.691002	1.078739
C85	C	-0.113116	-1.363571	0.407149
C86	C	0.220217	-1.030238	0.740482
C87	C	0.553551	-0.696904	1.073815
C88	C	-0.434159	-1.330796	0.640258
C89	C	-0.100826	-0.997463	0.973591
C90	C	0.232507	-0.664130	1.306925
C91	C	-0.438881	-1.325112	0.733164
C92	C	-0.105548	-0.991779	1.066497
C93	C	0.227786	-0.658446	1.399830
C94	C	-0.423219	-0.595875	0.423108
C95	C	-0.089885	-0.262542	0.756441
C96	C	0.243448	0.070791	1.089775
C97	C	-0.423205	-0.703090	0.423104
C98	C	-0.089872	-0.369757	0.756438
C99	C	0.243462	-0.036424	1.089771
C100	C	-0.412192	-1.357852	0.205081
C101	C	-0.078859	-1.024518	0.538414
C102	C	0.254474	-0.691185	0.871748
C103	C	-0.407506	-1.363633	0.112177
C104	C	-0.074173	-1.030300	0.445511
C105	C	0.259160	-0.696966	0.778844
C106	C	-0.447518	-1.314739	0.903264
C107	C	-0.114185	-0.981406	1.236597
C108	C	0.219148	-0.648073	1.569930
C109	C	-0.398872	-1.374003	0.942083
C110	C	-0.065538	-1.040669	1.275416
C111	C	0.267795	-0.707336	1.608749
C112	C	-0.403678	-1.368231	1.036732
C113	C	-0.070344	-1.034898	1.370065
C114	C	0.262989	-0.701565	1.703399
C115	C	-0.442713	-1.320509	0.808606
C116	C	-0.109380	-0.987176	1.141939
C117	C	0.223953	-0.653843	1.475272
H118	H	-0.905212	-1.429093	0.353331
H119	H	-0.571879	-1.095759	0.686665
H120	H	-0.238545	-0.762426	1.019998
H121	H	-0.942001	-1.259687	0.492600
H122	H	-0.608668	-0.926354	0.825934
H123	H	-0.275334	-0.593021	1.159267
H124	H	-0.353614	-1.429074	0.904232
H125	H	-0.020281	-1.095740	1.237566
H126	H	0.313053	-0.762407	1.570899
H127	H	-0.492771	-1.259671	0.941111
H128	H	-0.159438	-0.926338	1.274444
H129	H	0.173896	-0.593005	1.607778
