data_functionalizedCrystal
_audit_creation_method	'MofGen! by Chris Wilmer'
_symmetry_space_group_name_H-M	'P1'
_symmetry_Int_Tables_number	1
_symmetry_cell_setting	triclinic
loop_
_symmetry_equiv_pos_as_xyz
  x,y,z
_cell_length_a	6.394989
_cell_length_b	9.065218
_cell_length_c	7.540329
_cell_angle_alpha	90.001757
_cell_angle_beta	90.002442
_cell_angle_gamma	85.756798
loop_
_atom_site_label
_atom_site_type_symbol
_atom_site_fract_x
_atom_site_fract_y
_atom_site_fract_z
O1	O	-2.776065	-0.241774	-0.147455
O2	O	-2.276065	0.258226	0.352545
O3	O	-2.168166	-0.253954	-0.147462
O4	O	-1.668166	0.246046	0.352538
O5	O	-2.484681	-0.033337	-0.147455
O6	O	-1.984681	0.466663	0.352545
O7	O	-2.459550	-0.462392	-0.147463
O8	O	-1.959550	0.037608	0.352537
O9	O	-2.484662	-0.033334	0.147510
O10	O	-1.984662	0.466666	0.647510
O11	O	-2.168147	-0.253951	0.147503
O12	O	-1.668147	0.246049	0.647503
O13	O	-2.776045	-0.241771	0.147510
O14	O	-2.276045	0.258229	0.647510
Cu15	Cu	-2.472095	-0.247861	0.174439
Cu16	Cu	-1.972095	0.252139	0.674439
Cu17	Cu	-2.472117	-0.247865	-0.174392
Cu18	Cu	-1.972117	0.252135	0.325608
O19	O	-2.459531	-0.462389	0.147502
O20	O	-1.959531	0.037611	0.647502
C21	C	-2.482256	0.021673	0.000024
C22	C	-1.982256	0.521673	0.500024
C23	C	-2.475034	0.185582	0.000016
C24	C	-1.975034	0.685582	0.500016
C25	C	-2.461956	-0.517399	0.000019
C26	C	-1.961956	-0.017399	0.500019
C27	C	-2.469177	-0.681308	0.000016
C28	C	-1.969177	-0.181308	0.500016
N29	N	-2.472094	-0.247858	0.419787
N30	N	-1.972094	0.252142	0.919787
C31	C	-2.090290	-0.251545	0.000029
C32	C	-1.590290	0.248455	0.500029
C33	C	-1.853916	-0.244185	0.000036
C34	C	-1.353916	0.255815	0.500036
N35	N	-2.472134	-0.247856	-0.419740
N36	N	-1.972134	0.252144	0.080260
