data_functionalizedCrystal
_audit_creation_method	'MofGen! by Chris Wilmer'
_symmetry_space_group_name_H-M	'P1'
_symmetry_Int_Tables_number	1
_symmetry_cell_setting	triclinic
loop_
_symmetry_equiv_pos_as_xyz
  x,y,z
_cell_length_a	14.853569
_cell_length_b	13.330367
_cell_length_c	8.559649
_cell_angle_alpha	89.996655
_cell_angle_beta	103.292885
_cell_angle_gamma	90.005581
loop_
_atom_site_label
_atom_site_type_symbol
_atom_site_fract_x
_atom_site_fract_y
_atom_site_fract_z
O1	O	1.181778	0.083373	-0.208592
O2	O	0.917581	0.083385	-0.233437
O3	O	1.072956	0.083377	0.011535
O4	O	1.026404	0.083381	-0.453565
O5	O	1.072936	-0.083470	0.011541
O6	O	0.917562	-0.083462	-0.233431
O7	O	1.181759	-0.083474	-0.208587
Cu8	Cu	1.049658	-0.098703	-0.221009
Cu9	Cu	1.049682	0.098613	-0.221015
O10	O	1.026384	-0.083466	-0.453559
C11	C	0.884062	-0.000037	-0.232308
C12	C	0.784214	-0.000033	-0.228933
C13	C	0.758126	-0.000030	-0.081831
C14	C	0.716481	-0.000039	-0.372865
C15	C	0.622668	-0.000040	-0.369699
C16	C	0.596580	-0.000038	-0.222597
C17	C	0.664305	-0.000035	-0.078661
C18	C	0.554937	-0.000054	-0.513633
C19	C	0.461117	-0.000056	-0.510473
C20	C	0.435028	-0.000047	-0.363369
C21	C	0.502760	-0.000042	-0.219427
C22	C	0.476672	-0.000040	-0.072325
C23	C	0.544402	-0.000028	0.071620
C24	C	0.638216	-0.000025	0.068443
C25	C	0.341214	-0.000050	-0.360193
C26	C	0.382851	-0.000044	-0.069154
N27	N	1.049649	-0.237484	-0.221003
C28	C	0.980882	-0.710104	-0.329446
C29	C	1.118506	-0.710078	-0.112572
C30	C	1.118496	-0.605060	-0.112567
C31	C	1.049679	-0.552559	-0.221005
C32	C	0.980872	-0.605075	-0.329448
C33	C	1.187308	-0.552535	-0.004137
C34	C	1.187301	-0.447511	-0.004128
C35	C	1.118480	-0.395007	-0.112560
C36	C	1.049669	-0.447531	-0.221006
C37	C	0.980852	-0.395029	-0.329445
C38	C	0.912036	-0.447550	-0.437884
C39	C	0.912050	-0.552572	-0.437880
C40	C	1.118466	-0.289986	-0.112565
C41	C	0.980841	-0.290001	-0.329446
C42	C	1.215278	-0.000050	-0.209716
C43	C	1.315126	-0.000048	-0.213091
C44	C	1.076474	-0.000045	0.071060
C45	C	1.086975	-0.000040	0.248417
N46	N	1.049699	0.237395	-0.221008
C47	C	1.022866	-0.000042	-0.513084
C48	C	1.012365	-0.000041	-0.690441
H49	H	0.523149	-0.000020	0.191390
Cl50	Cl	1.198008	-0.000058	0.377085
Cl51	Cl	0.901337	-0.000038	0.180898
H52	H	0.361620	-0.000037	0.050636
H53	H	0.693369	-0.000018	0.185634
H54	H	1.174498	-0.247228	-0.024282
H55	H	1.243341	-0.595285	0.084143
H56	H	0.924799	-0.247261	-0.417744
H57	H	0.737728	-0.000048	-0.492629
H58	H	0.576185	-0.000062	-0.633396
H59	H	0.405978	-0.000064	-0.627681
Cl60	Cl	0.825531	-0.381537	-0.574212
H61	H	0.813276	-0.000017	0.035364
Cl62	Cl	0.825549	-0.618601	-0.574198
H63	H	0.286072	-0.000068	-0.477390
Cl64	Cl	1.273806	-0.381491	0.132196
H65	H	1.174539	-0.752829	-0.024292
Cl66	Cl	0.894372	-0.776125	-0.465759
