data_functionalizedCrystal
_audit_creation_method	'MofGen! by Chris Wilmer'
_symmetry_space_group_name_H-M	'P1'
_symmetry_Int_Tables_number	1
_symmetry_cell_setting	triclinic
loop_
_symmetry_equiv_pos_as_xyz
  x,y,z
_cell_length_a	14.519709
_cell_length_b	10.654550
_cell_length_c	9.130313
_cell_angle_alpha	89.999218
_cell_angle_beta	89.994726
_cell_angle_gamma	84.082524
loop_
_atom_site_label
_atom_site_type_symbol
_atom_site_fract_x
_atom_site_fract_y
_atom_site_fract_z
O1	O	-1.224716	-0.164616	-0.121605
O2	O	-0.956340	-0.184002	-0.121649
O3	O	-1.096698	0.008490	-0.121620
O4	O	-1.084357	-0.357108	-0.121633
O5	O	-1.096696	0.008481	0.121978
O6	O	-0.956337	-0.184011	0.121950
O7	O	-1.224714	-0.164624	0.121994
Cu8	Cu	-1.090525	-0.174318	0.144215
Cu9	Cu	-1.090528	-0.174308	-0.143869
O10	O	-1.084355	-0.357116	0.121966
C11	C	-0.921974	-0.183103	0.000145
C12	C	-0.819579	-0.180396	0.000128
C13	C	-1.095791	0.055275	0.000177
C14	C	-1.093080	0.194692	0.000172
C15	C	-1.259079	-0.165524	0.000197
C16	C	-1.361475	-0.168231	0.000205
C17	C	-0.444631	-0.170428	0.000195
C18	C	-0.548954	-0.173196	0.000176
C19	C	-0.632102	-0.175412	0.000160
C20	C	-0.736431	-0.178180	0.000144
C21	C	-1.085262	-0.403901	0.000165
C22	C	-1.087973	-0.543318	0.000161
N23	N	-1.090530	-0.174325	0.346837
C24	C	-1.175721	0.274972	0.000190
C25	C	-1.173168	0.405968	0.000179
C26	C	-1.005326	0.376391	0.000138
C27	C	-1.007880	0.245397	0.000138
C28	C	-1.260921	0.224266	0.000223
C29	C	-1.343569	0.304548	0.000242
C30	C	-1.341016	0.435544	0.000232
C31	C	-1.255815	0.486259	0.000201
C32	C	-1.152697	-0.089119	0.423502
C33	C	-1.152694	-0.089106	0.576839
C34	C	-1.028355	-0.259515	0.576833
C35	C	-1.028354	-0.259521	0.423499
C36	C	-1.214873	-0.003923	0.346840
C37	C	-1.277046	0.081289	0.423505
C38	C	-1.277043	0.081302	0.576842
C39	C	-1.214868	-0.003897	0.653514
N40	N	-1.090528	-0.174306	0.653508
H41	H	-1.263009	0.117604	0.000236
C42	C	-1.295975	0.252180	0.749253
C43	C	-1.345376	0.174969	0.661113
H44	H	-1.338167	0.310009	0.801268
H45	H	-1.258960	0.201444	0.816853
H46	H	-1.257307	0.297465	0.689407
H47	H	-1.384040	0.129676	0.720961
H48	H	-1.382408	0.225711	0.593505
C49	C	-1.301929	-0.029541	0.127216
C50	C	-1.214881	-0.003929	0.178292
H51	H	-1.301934	-0.029539	0.023161
H52	H	-1.315042	-0.109842	0.161911
H53	H	-1.347845	0.033403	0.161919
H54	H	-1.168965	-0.066879	0.143597
H55	H	-1.201757	0.076382	0.143581
H56	H	-1.214864	-0.003870	0.778371
C57	C	-0.869175	-0.332761	0.624046
C58	C	-0.960019	-0.353163	0.661112
H59	H	-0.826990	-0.390573	0.676084
H60	H	-0.860280	-0.344967	0.521767
H61	H	-0.858643	-0.248908	0.649172
H62	H	-0.970554	-0.437014	0.635975
H63	H	-0.968918	-0.340967	0.763413
H64	H	-0.940586	0.180030	0.000126
H65	H	-1.327662	0.150662	0.361071
H66	H	-1.253743	0.592926	0.000177
H67	H	-0.935960	0.417694	0.000116
H68	H	-0.977731	-0.328902	0.361078
H69	H	-1.408312	0.500907	0.000233
C70	C	-1.422010	0.116876	0.000285
C71	C	-1.437218	0.248807	0.000273
H72	H	-1.479828	0.082469	0.000311
H73	H	-1.387957	0.089336	-0.084664
H74	H	-1.387943	0.089348	0.085233
H75	H	-1.471279	0.276335	-0.084681
H76	H	-1.471285	0.276358	0.085231
