data_functionalizedCrystal
_audit_creation_method	'MofGen! by Chris Wilmer'
_symmetry_space_group_name_H-M	'P1'
_symmetry_Int_Tables_number	1
_symmetry_cell_setting	triclinic
loop_
_symmetry_equiv_pos_as_xyz
  x,y,z
_cell_length_a	20.919309
_cell_length_b	19.851628
_cell_length_c	20.919309
_cell_angle_alpha	62.589073
_cell_angle_beta	90.173912
_cell_angle_gamma	57.445553
loop_
_atom_site_label
_atom_site_type_symbol
_atom_site_fract_x
_atom_site_fract_y
_atom_site_fract_z
Zr1	Zr	0.644111	0.679853	-0.056744
O2	O	0.541893	0.820384	-0.158974
O3	O	0.675440	0.539322	-0.025401
O4	O	0.680651	0.668899	-0.153765
O5	O	0.532579	0.699447	0.070641
O6	O	0.790113	0.660259	-0.149660
O7	O	0.536681	0.690807	-0.030610
O8	O	0.780792	0.428469	0.079959
O9	O	0.541900	0.931237	-0.158978
O10	O	0.770500	0.590676	-0.008975
O11	O	0.685747	0.603573	0.063524
O12	O	0.691883	0.756133	-0.087608
O13	O	0.607130	0.769029	-0.015109
Zr14	Zr	0.812148	0.679852	0.111286
Zr15	Zr	0.818691	0.666072	-0.050198
Zr16	Zr	0.637567	0.693633	0.104739
Zr17	Zr	0.644124	0.856651	-0.056751
Zr18	Zr	0.812135	0.503055	0.111293
O19	O	0.780819	0.820383	0.079943
O20	O	0.790123	0.800789	-0.149666
O21	O	0.532588	0.839978	0.070635
O22	O	0.914366	0.539321	0.213515
O23	O	0.923670	0.519728	-0.016093
O24	O	0.666135	0.558916	0.204207
O25	O	0.923680	0.660258	-0.016099
O26	O	0.775608	0.690806	0.208306
O27	O	0.666145	0.699446	0.204202
O28	O	0.919577	0.668899	0.085152
O29	O	0.680669	0.920283	-0.153775
O30	O	0.775590	0.439422	0.208317
O31	O	0.914358	0.428468	0.213520
O32	O	0.919560	0.417515	0.085162
O33	O	0.536699	0.942190	-0.030621
O34	O	0.675467	0.931236	-0.025417
O35	O	0.764376	0.603572	0.142149
O36	O	0.849129	0.590676	0.069650
O37	O	0.770512	0.756133	-0.008982
O38	O	0.685759	0.769029	0.063517
C39	C	0.728114	0.458706	0.027280
C40	C	0.728108	0.383650	0.027283
C41	C	0.681912	0.209321	0.066806
C42	C	0.652511	0.216144	-0.005457
C43	C	0.728122	0.246228	0.027273
C44	C	0.757499	0.105690	0.099518
C45	C	0.728135	0.113482	0.027269
C46	C	0.698678	0.254085	-0.045034
C47	C	0.803706	0.143587	0.059994
C48	C	0.774326	0.150438	-0.012312
C49	C	0.728113	0.322701	0.027276
C50	C	0.728143	0.037016	0.027259
C51	C	0.509756	0.697090	0.019082
C52	C	0.435642	0.702941	0.016303
C53	C	0.441858	0.619324	0.056039
C54	C	0.372218	0.624827	0.053426
C55	C	0.296362	0.713947	0.011073
C56	C	0.290147	0.797569	-0.028664
C57	C	0.359787	0.792066	-0.026047
C58	C	0.084042	0.734884	0.001119
C59	C	0.014400	0.740381	-0.001498
C60	C	0.096476	0.567638	0.080594
C61	C	0.166114	0.562142	0.083205
C62	C	0.159893	0.645765	0.043471
C63	C	0.225177	0.719573	0.008399
C64	C	0.231077	0.640138	0.046150
C65	C	0.946503	0.662615	0.035459
C66	C	1.020617	0.656765	0.038238
C67	C	0.736314	0.662616	-0.174720
C68	C	0.739092	0.656766	-0.243274
C69	C	0.728145	0.901000	0.027262
C70	C	0.728150	0.976055	0.027259
C71	C	0.699361	0.740382	-0.316526
C72	C	0.701982	0.734879	-0.380937
C73	C	0.744329	0.645759	-0.372094
C74	C	0.784065	0.562136	-0.298835
C75	C	0.781449	0.567640	-0.234425
C76	C	0.754286	0.624821	-0.564515
C77	C	0.756897	0.619323	-0.628932
C78	C	0.674815	0.792066	-0.711030
C79	C	0.672199	0.797562	-0.646616
C80	C	0.711938	0.713940	-0.573362
C81	C	0.747007	0.640132	-0.437932
C82	C	0.709265	0.719567	-0.507526
C83	C	0.719944	0.697090	0.229262
C84	C	0.717166	0.702940	0.297816
C85	C	0.946487	0.441468	0.035468
C86	C	1.020596	0.360562	0.038250
C87	C	0.719929	0.475943	0.229271
C88	C	0.717145	0.406737	0.297828
C89	C	0.938302	0.458705	0.237459
C90	C	1.009633	0.383649	0.308795
C91	C	0.517957	0.901000	-0.182918
C92	C	0.446626	0.976056	-0.254254
C93	C	0.509772	0.918237	0.019073
C94	C	0.435663	0.999143	0.016291
C95	C	0.736330	0.883763	-0.174729
C96	C	0.739113	0.952968	-0.243286
C97	C	1.014355	0.322568	-0.001492
C98	C	1.083982	0.246557	0.001107
C99	C	1.159849	0.208538	0.043453
C100	C	1.166088	0.246540	0.083196
C101	C	1.096462	0.322554	0.080592
C102	C	0.756882	0.374238	0.371072
C103	C	0.754263	0.309223	0.435494
C104	C	0.711913	0.276703	0.426672
C105	C	0.672172	0.309209	0.353420
C106	C	0.674786	0.374228	0.288999
C107	C	1.087378	0.341670	0.304452
C108	C	1.154408	0.271156	0.371474
C109	C	1.143691	0.242618	0.442838
C110	C	1.065937	0.284605	0.447180
C111	C	0.998909	0.355122	0.380159
C112	C	0.368881	1.018044	-0.249911
C113	C	0.301851	1.088580	-0.316932
C114	C	0.312568	1.117121	-0.388297
C115	C	0.390321	1.075130	-0.392639
C116	C	0.457349	1.004600	-0.325617
C117	C	0.441904	1.037144	0.056027
C118	C	0.372278	1.113173	0.053410
C119	C	0.296411	1.151194	0.011062
C120	C	0.290172	1.113189	-0.028678
C121	C	0.359797	1.037166	-0.026065
C122	C	0.781471	0.985467	-0.234440
C123	C	0.784102	1.050482	-0.298849
C124	C	0.744370	1.083003	-0.372106
C125	C	0.702011	1.050497	-0.380951
C126	C	0.699385	0.985478	-0.316542
H127	H	0.588595	0.246081	-0.033138
F128	F	1.098802	0.372033	0.228507
H129	H	0.238548	1.122758	-0.313382
H130	H	0.239724	1.213096	0.008941
H131	H	1.057223	0.261359	0.505294
F132	F	0.789967	0.022748	0.179378
H133	H	0.952587	0.353521	-0.035983
F134	F	1.246838	0.206065	0.128263
H135	H	0.503620	0.546754	0.090531
H136	H	0.813826	0.958999	-0.174796
F137	F	0.916169	0.399789	0.384793
H138	H	0.642462	0.860147	-0.770679
F139	F	1.103116	0.362978	0.122899
F140	F	1.237151	0.226480	0.366837
F141	F	0.659722	1.085124	-0.458922
H142	H	0.673764	0.317515	-0.106164
H143	H	0.818594	1.076942	-0.291632
H144	H	0.781486	0.567571	-0.430739
H145	H	0.360139	0.994810	-0.191808
H146	H	0.813403	0.124950	-0.045794
H147	H	1.216536	0.146643	0.045567
H148	H	0.257983	1.174552	-0.442864
F149	F	0.627103	0.274589	0.344043
H150	H	0.664889	0.959025	-0.323756
F151	F	0.144440	0.814418	-0.036676
H152	H	1.198276	0.185197	0.497405
H153	H	0.377286	0.556738	0.085784
H154	H	0.503672	1.006194	0.090516
H155	H	0.228392	1.144157	-0.063157
H156	H	0.791381	0.546748	-0.621724
H157	H	0.354704	1.006228	-0.058421
F158	F	0.801962	0.408834	0.380479
F159	F	0.887230	0.104479	0.096196
H160	H	0.228378	0.870133	-0.063145
H161	H	0.669631	0.802968	-0.440580
F162	F	0.627097	0.892418	-0.656036
H163	H	0.746514	1.135946	-0.424545
H164	H	0.227876	0.489570	0.117679
F165	F	0.630782	0.242867	0.110449
H166	H	0.399038	1.098378	-0.450752
F167	F	0.353168	0.881062	-0.068336
H168	H	1.078886	0.215626	-0.031257
F169	F	0.796553	0.535823	-0.486561
F170	F	0.540090	0.959915	-0.330252
F171	F	0.311808	0.545294	0.091230
F172	F	0.796566	0.274637	0.513447
F173	F	0.103089	0.478647	0.122881
H174	H	-0.047367	0.812956	-0.035990
F175	F	0.829137	0.467288	-0.289425
H176	H	0.078966	0.802975	-0.031248
F177	F	0.823743	0.478643	-0.156463
H178	H	0.674789	0.792128	-0.514723
F179	F	0.654287	0.835236	-0.325947
H180	H	0.709791	0.223761	0.479134
H181	H	0.377374	1.144104	0.085774
F182	F	0.632494	0.408805	0.211050
