data_functionalizedCrystal
_audit_creation_method	'MofGen! by Chris Wilmer'
_symmetry_space_group_name_H-M	'P1'
_symmetry_Int_Tables_number	1
_symmetry_cell_setting	triclinic
loop_
_symmetry_equiv_pos_as_xyz
  x,y,z
_cell_length_a	27.732064
_cell_length_b	27.732048
_cell_length_c	16.776229
_cell_angle_alpha	89.988391
_cell_angle_beta	90.000484
_cell_angle_gamma	82.646040
loop_
_atom_site_label
_atom_site_type_symbol
_atom_site_fract_x
_atom_site_fract_y
_atom_site_fract_z
O1	O	0.640924	0.057556	-0.066154
O2	O	0.500131	0.066293	-0.066188
O3	O	0.574900	-0.008472	-0.066155
O4	O	0.566155	0.132321	-0.066188
O5	O	0.574890	-0.008476	0.066421
O6	O	0.500121	0.066289	0.066388
O7	O	0.640914	0.057552	0.066422
Zn8	Zn	0.570516	0.061920	0.087454
Zn9	Zn	0.570529	0.061926	-0.087221
O10	O	0.566145	0.132317	0.066389
C11	C	0.482120	0.066106	0.000096
C12	C	0.428465	0.065551	0.000083
C13	C	0.051392	0.017583	0.000140
C14	C	0.253053	0.019630	0.000119
O15	O	0.284305	-0.017591	0.000157
N16	N	0.272180	0.063964	0.000105
C17	C	0.240889	0.107790	0.000102
O18	O	0.261785	0.145546	0.000098
C19	C	0.039230	0.105743	0.000128
C20	C	0.020105	0.061406	0.000134
C21	C	0.032267	-0.026750	0.000146
C22	C	-0.018145	-0.027261	0.000147
C23	C	-0.049432	0.016561	0.000142
C24	C	-0.030307	0.060895	0.000135
C25	C	0.007940	0.149568	0.000131
C26	C	-0.042478	0.149053	0.000140
C27	C	-0.061602	0.104716	0.000145
C28	C	-0.112006	0.104206	0.000130
N29	N	-0.131134	0.059872	0.000144
C30	C	-0.099846	0.016049	0.000150
C31	C	0.346763	0.108861	0.000086
C32	C	0.397178	0.109373	0.000078
C33	C	0.409338	0.021213	0.000096
C34	C	0.358923	0.020701	0.000099
C35	C	0.327636	0.064527	0.000100
C36	C	-0.205716	0.014979	0.000151
C37	C	-0.256133	0.014472	0.000149
C38	C	-0.268289	0.102632	0.000135
C39	C	-0.217876	0.103140	0.000133
C40	C	-0.186590	0.059309	0.000144
O41	O	-0.143287	0.141407	0.000101
O42	O	-0.120752	-0.021701	0.000172
C43	C	0.101805	0.018094	0.000139
C44	C	0.120930	0.062428	0.000132
C45	C	0.089642	0.106250	0.000127
C46	C	0.171344	0.062940	0.000124
C47	C	0.202631	0.019117	0.000130
C48	C	0.183504	-0.025217	0.000144
C49	C	0.133092	-0.025728	0.000144
C50	C	0.108770	0.150585	0.000113
C51	C	0.159183	0.151092	0.000111
C52	C	0.190470	0.107270	0.000117
C53	C	0.574712	-0.026481	0.000135
C54	C	0.574159	-0.080136	0.000142
C55	C	0.614862	-0.418948	0.000110
C56	C	0.612811	-0.620608	0.000099
O57	O	0.650032	-0.651862	0.000073
N58	N	0.568476	-0.639735	0.000089
C59	C	0.524651	-0.608442	0.000077
O60	O	0.486895	-0.629338	0.000060
C61	C	0.526703	-0.406784	0.000083
C62	C	0.571040	-0.387660	0.000101
C63	C	0.659196	-0.399824	0.000128
C64	C	0.659709	-0.349412	0.000135
C65	C	0.615887	-0.318124	0.000125
C66	C	0.571553	-0.337248	0.000108
C67	C	0.482878	-0.375493	0.000065
C68	C	0.483395	-0.325075	0.000064
C69	C	0.527733	-0.305952	0.000082
C70	C	0.528243	-0.255548	0.000105
N71	N	0.572578	-0.236422	0.000115
C72	C	0.616400	-0.267710	0.000125
C73	C	0.523577	-0.714317	0.000075
C74	C	0.523064	-0.764731	0.000075
C75	C	0.611225	-0.776893	0.000096
C76	C	0.611737	-0.726478	0.000102
C77	C	0.567912	-0.695190	0.000085
C78	C	0.617472	-0.161841	0.000141
C79	C	0.617981	-0.111424	0.000151
C80	C	0.529821	-0.099266	0.000127
C81	C	0.529312	-0.149679	0.000120
C82	C	0.573142	-0.180965	0.000125
O83	O	0.491043	-0.224267	0.000122
O84	O	0.654151	-0.246805	0.000124
C85	C	0.614350	-0.469360	0.000103
C86	C	0.570016	-0.488484	0.000086
C87	C	0.526194	-0.457196	0.000076
C88	C	0.569503	-0.538899	0.000086
C89	C	0.613325	-0.570187	0.000096
C90	C	0.657660	-0.551060	0.000106
C91	C	0.658172	-0.500648	0.000113
C92	C	0.481859	-0.476323	0.000066
C93	C	0.481351	-0.526735	0.000060
C94	C	0.525172	-0.558023	0.000070
C95	C	0.658925	0.057739	0.000136
C96	C	0.712580	0.058295	0.000143
C97	C	0.566333	0.150326	0.000097
C98	C	0.566886	0.203981	0.000085
N99	N	0.570511	0.061915	0.206666
N100	N	0.570538	0.061926	-0.206432
C101	C	0.603628	0.028823	0.248397
C102	C	0.603631	0.028822	0.331850
C103	C	0.570518	0.061917	0.373569
C104	C	0.537397	0.095011	0.331831
C105	C	0.537392	0.095009	0.248380
C106	C	0.537414	0.095021	0.668378
C107	C	0.537422	0.095021	0.751835
C108	C	0.603653	0.028834	0.751848
C109	C	0.603648	0.028832	0.668397
C110	C	0.570526	0.061924	0.626666
C111	C	0.570523	0.061923	0.536178
C112	C	0.570523	0.061920	0.464055
H113	H	0.343355	-0.015402	0.000104
H114	H	-0.271701	-0.021634	0.000151
Br115	Br	0.185130	0.211270	0.000095
H116	H	0.487888	-0.688846	0.000062
Br117	Br	0.648574	-0.016091	0.191788
H118	H	0.446774	-0.391054	0.000045
Br119	Br	0.492481	0.139939	0.808453
H120	H	0.653163	-0.187309	0.000142
H121	H	0.023502	0.185672	0.000123
H122	H	0.510446	0.121966	0.634408
H123	H	0.510433	0.121956	0.365803
Br124	Br	0.225975	-0.084690	0.000146
Br125	Br	0.648575	-0.016091	0.388488
H126	H	0.447706	-0.299603	0.000049
Br127	Br	0.719885	-0.323468	0.000137
H128	H	0.493209	-0.165249	0.000128
Br129	Br	0.492442	0.139919	0.191744
H130	H	0.445243	-0.542300	0.000052
Br131	Br	-0.191920	0.163312	0.000112
H132	H	0.083300	0.186271	0.000109
H133	H	0.494142	-0.073782	0.000121
H134	H	-0.293772	0.138311	0.000126
Br135	Br	-0.163265	-0.044505	0.000166
H136	H	0.486960	-0.780296	0.000074
H137	H	0.630614	0.001884	0.634432
Br138	Br	0.718677	-0.442278	0.000140
Br139	Br	-0.044091	-0.087436	0.000145
Br140	Br	0.451809	-0.038260	0.000101
Br141	Br	0.074720	-0.086232	0.000157
H142	H	0.647841	-0.710911	0.000116
H143	H	0.694276	-0.485083	0.000128
H144	H	0.117526	-0.061832	0.000149
H145	H	0.412744	0.145477	0.000062
H146	H	0.321293	0.144551	0.000086
H147	H	0.630622	0.001887	0.785833
Br148	Br	0.678157	-0.085474	0.000177
H149	H	0.646906	-0.802377	0.000104
H150	H	0.693341	-0.576544	0.000117
Br151	Br	-0.084936	0.208534	0.000147
Br152	Br	0.422380	-0.433867	0.000049
