data_functionalizedCrystal
_audit_creation_method	'MofGen! by Chris Wilmer'
_symmetry_space_group_name_H-M	'P1'
_symmetry_Int_Tables_number	1
_symmetry_cell_setting	triclinic
loop_
_symmetry_equiv_pos_as_xyz
  x,y,z
_cell_length_a	9.065215
_cell_length_b	10.654550
_cell_length_c	7.540329
_cell_angle_alpha	89.997570
_cell_angle_beta	89.997574
_cell_angle_gamma	84.749800
loop_
_atom_site_label
_atom_site_type_symbol
_atom_site_fract_x
_atom_site_fract_y
_atom_site_fract_z
O1	O	1.959394	0.184140	-0.147457
O2	O	1.530026	0.199250	-0.147465
O3	O	1.754582	0.008995	-0.147454
O4	O	1.734838	0.374395	-0.147467
O5	O	1.754569	0.008992	0.147511
O6	O	1.530013	0.199247	0.147501
O7	O	1.959381	0.184138	0.147508
Cu8	Cu	1.744696	0.191692	0.174437
Cu9	Cu	1.744711	0.191695	-0.174393
O10	O	1.734825	0.374393	0.147498
C11	C	1.475041	0.197797	0.000017
C12	C	1.311221	0.193458	0.000014
C13	C	1.753126	-0.037810	0.000026
C14	C	1.748789	-0.177271	0.000020
C15	C	1.881003	-0.256234	0.000028
C16	C	1.876919	-0.387271	0.000015
C17	C	1.608393	-0.360369	-0.000005
C18	C	1.612479	-0.229334	-0.000005
C19	C	2.017313	-0.204170	0.000053
C20	C	2.149539	-0.283135	0.000063
C21	C	2.145454	-0.414172	0.000050
C22	C	2.009144	-0.466244	0.000028
C23	C	2.014366	0.185590	0.000023
C24	C	2.178186	0.189930	0.000014
C25	C	1.736281	0.421198	0.000013
C26	C	1.740618	0.560658	0.000008
N27	N	1.744695	0.191689	0.419785
N28	N	1.744724	0.191688	-0.419742
H29	H	2.020654	-0.097475	0.000069
O30	O	1.469875	-0.144161	0.000008
H31	H	1.465314	-0.083821	-0.120221
H32	H	2.005829	-0.572945	-0.000001
O33	O	2.296557	-0.226985	0.000069
H34	H	2.304846	-0.167946	0.120303
O35	O	2.288057	-0.499347	0.000069
H36	H	2.383521	-0.441124	0.000104
H37	H	1.497416	-0.402777	-0.000020
