data_functionalizedCrystal
_audit_creation_method	'MofGen! by Chris Wilmer'
_symmetry_space_group_name_H-M	'P1'
_symmetry_Int_Tables_number	1
_symmetry_cell_setting	triclinic
loop_
_symmetry_equiv_pos_as_xyz
  x,y,z
_cell_length_a	16.109301
_cell_length_b	15.944551
_cell_length_c	14.586319
_cell_angle_alpha	89.995256
_cell_angle_beta	89.999213
_cell_angle_gamma	83.480109
loop_
_atom_site_label
_atom_site_type_symbol
_atom_site_fract_x
_atom_site_fract_y
_atom_site_fract_z
O1	O	1.103166	0.107966	-0.076184
O2	O	1.603166	0.607966	0.423816
O3	O	0.861108	0.121403	-0.076199
O4	O	1.361108	0.621403	0.423801
O5	O	0.988747	-0.007593	-0.076183
O6	O	1.488747	0.492407	0.423817
O7	O	0.975527	0.236961	-0.076200
O8	O	1.475527	0.736961	0.423800
O9	O	0.988738	-0.007595	0.076298
O10	O	1.488738	0.492405	0.576298
O11	O	0.861099	0.121401	0.076282
O12	O	1.361099	0.621401	0.576282
O13	O	1.103157	0.107964	0.076296
O14	O	1.603157	0.607964	0.576296
Cu15	Cu	0.982127	0.114682	0.090212
Cu16	Cu	1.482127	0.614682	0.590212
Cu17	Cu	0.982138	0.114685	-0.090114
Cu18	Cu	1.482138	0.614685	0.409886
O19	O	0.975518	0.236960	0.076280
O20	O	1.475518	0.736960	0.576280
C21	C	0.830129	0.120857	0.000039
C22	C	1.330129	0.620857	0.500039
C23	C	0.737833	0.119226	0.000034
C24	C	1.237833	0.619226	0.500034
C25	C	0.515584	0.191975	0.000040
C26	C	1.015584	0.691975	0.500040
C27	C	0.428863	0.190435	0.000046
C28	C	0.928863	0.690435	0.500046
C29	C	0.448688	0.037387	0.000053
C30	C	0.948688	0.537387	0.500053
C31	C	0.535407	0.038927	0.000053
C32	C	1.035407	0.538927	0.500053
C33	C	0.568853	0.116224	0.000042
C34	C	1.068853	0.616224	0.500042
C35	C	0.395412	0.113143	0.000047
C36	C	0.895412	0.613143	0.500047
C37	C	0.301386	0.111473	0.000054
C38	C	0.801386	0.611473	0.500054
C39	C	0.662885	0.117894	0.000037
C40	C	1.162885	0.617894	0.500037
C41	C	0.988194	-0.038887	0.000057
C42	C	1.488194	0.461113	0.500057
C43	C	0.986548	-0.132133	0.000058
C44	C	1.486548	0.367867	0.500058
C45	C	0.903499	-0.346962	0.000040
C46	C	1.403499	0.153038	0.500040
C47	C	0.942060	-0.407993	0.075225
C48	C	1.442060	0.092007	0.575225
C49	C	0.983572	-0.302858	0.000051
C50	C	1.483572	0.197142	0.500051
C51	C	0.942088	-0.407975	-0.075109
C52	C	1.442088	0.092025	0.424891
C53	C	0.980691	-0.467769	0.000040
C54	C	1.480691	0.032231	0.500040
C55	C	1.022155	-0.362660	0.075297
C56	C	1.522155	0.137340	0.575297
C57	C	1.022171	-0.362636	-0.075104
C58	C	1.522171	0.137364	0.424896
C59	C	1.060790	-0.423649	0.000099
C60	C	1.560790	0.076351	0.500099
C61	C	0.985229	-0.207856	0.000058
C62	C	1.485229	0.292144	0.500058
C63	C	0.979039	-0.562770	0.000039
C64	C	1.479039	-0.062770	0.500039
C65	C	1.134136	0.108510	0.000056
C66	C	1.634136	0.608510	0.500056
C67	C	1.226432	0.110141	0.000055
C68	C	1.726432	0.610141	0.500055
C69	C	0.976071	0.268254	0.000038
C70	C	1.476071	0.768254	0.500038
C71	C	0.977717	0.361500	0.000031
C72	C	1.477717	0.861500	0.500031
N73	N	0.982126	0.114680	0.217044
N74	N	1.482126	0.614680	0.717044
N75	N	0.982146	0.114680	-0.216946
N76	N	1.482146	0.614680	0.283054
C77	C	1.038663	0.057580	0.452057
C78	C	1.538663	0.557580	0.952057
C79	C	1.038666	0.057578	0.548038
C80	C	1.538666	0.557578	1.048038
C81	C	0.925602	0.171783	0.548034
C82	C	1.425602	0.671783	1.048034
C83	C	0.925597	0.171780	0.452054
C84	C	1.425597	0.671780	0.952054
C85	C	0.982132	0.114680	0.404068
C86	C	1.482132	0.614680	0.904068
C87	C	0.982140	0.114680	0.596029
C88	C	1.482140	0.614680	1.096029
C89	C	0.982142	0.114679	0.700096
C90	C	1.482142	0.614679	1.200096
C91	C	0.982129	0.114680	0.299995
C92	C	1.482129	0.614680	0.799995
H93	H	0.542812	0.254914	0.000037
H94	H	1.042812	0.754914	0.500037
H95	H	0.879558	0.218278	0.412979
H96	H	1.379558	0.718278	0.912979
H97	H	1.055990	-0.342682	0.138930
H98	H	1.555990	0.157318	0.638930
H99	H	0.385495	0.252119	0.000045
H100	H	0.885495	0.752119	0.500045
H101	H	0.908189	-0.428091	0.138783
H102	H	1.408189	0.071909	0.638783
C103	C	0.864190	0.233645	0.600255
C104	C	1.364190	0.733645	1.100255
C105	C	0.813316	0.188888	0.655388
C106	C	1.313316	0.688888	1.155388
C107	C	0.756741	0.245849	0.703515
C108	C	1.256741	0.745849	1.203515
H109	H	0.830438	0.267676	0.558033
H110	H	1.330438	0.767676	1.058033
H111	H	0.894080	0.268608	0.637741
H112	H	1.394080	0.768608	1.137741
H113	H	0.783428	0.153940	0.617905
H114	H	1.283428	0.653940	1.117905
H115	H	0.847045	0.154860	0.697626
H116	H	1.347045	0.654860	1.197626
H117	H	0.786632	0.280812	0.741001
H118	H	1.286632	0.780812	1.241001
H119	H	0.722995	0.279877	0.661287
H120	H	1.222995	0.779877	1.161287
H121	H	0.722222	0.215490	0.740934
H122	H	1.222222	0.715490	1.240934
C123	C	0.412212	-0.046447	0.000009
C124	C	0.912212	0.453553	0.500009
C125	C	0.324865	-0.031585	-0.000019
C126	C	0.824865	0.468415	0.499981
C127	C	0.291238	-0.108793	-0.000074
C128	C	0.791238	0.391207	0.499926
H129	H	0.430403	-0.077704	0.053169
H130	H	0.930403	0.422296	0.553169
H131	H	0.430452	-0.077640	-0.053185
H132	H	0.930452	0.422360	0.446815
H133	H	0.306633	-0.000404	0.053170
H134	H	0.806633	0.499596	0.553170
H135	H	0.306652	-0.000340	-0.053175
H136	H	0.806652	0.499660	0.446825
H137	H	0.309478	-0.139987	-0.053268
H138	H	0.809478	0.360013	0.446732
H139	H	0.309434	-0.140045	0.053087
H140	H	0.809434	0.359955	0.553087
H141	H	0.231970	-0.098720	-0.000101
H142	H	0.731970	0.401280	0.499899
C143	C	0.814942	-0.302360	0.000076
C144	C	1.314942	0.197640	0.500076
C145	C	0.817620	-0.214900	-0.000755
C146	C	1.317620	0.285100	0.499245
C147	C	0.736060	-0.173786	-0.000732
C148	C	1.236060	0.326214	0.499268
H149	H	0.786538	-0.317673	0.053533
H150	H	1.286538	0.182327	0.553533
H151	H	0.786206	-0.318477	-0.052816
H152	H	1.286206	0.181523	0.447184
H153	H	0.846344	-0.198789	0.052132
H154	H	1.346344	0.301211	0.552132
H155	H	0.846008	-0.199562	-0.054208
H156	H	1.346008	0.300438	0.445792
H157	H	0.707325	-0.189903	-0.053625
H158	H	1.207325	0.310097	0.446375
H159	H	0.707663	-0.189105	0.052725
H160	H	1.207663	0.310895	0.552725
H161	H	0.737866	-0.114440	-0.001305
H162	H	1.237866	0.385560	0.498695
H163	H	0.578781	-0.022762	0.000058
H164	H	1.078781	0.477238	0.500058
C165	C	1.149504	-0.467857	0.000346
C166	C	1.649504	0.032143	0.500346
C167	C	1.191024	-0.444886	0.079204
C168	C	1.691024	0.055114	0.579204
C169	C	1.272743	-0.485604	0.079474
C170	C	1.772743	0.014396	0.579474
H171	H	1.178263	-0.451674	-0.052491
H172	H	1.678263	0.048326	0.447509
H173	H	1.148010	-0.527250	-0.000111
H174	H	1.648010	-0.027250	0.499889
H175	H	1.192522	-0.385505	0.079652
H176	H	1.692522	0.114495	0.579652
H177	H	1.162290	-0.461070	0.132053
H178	H	1.662290	0.038930	0.632053
H179	H	1.271249	-0.544997	0.079017
H180	H	1.771249	-0.044997	0.579017
H181	H	1.301494	-0.469417	0.026634
H182	H	1.801494	0.030583	0.526634
H183	H	1.300922	-0.470030	0.132982
H184	H	1.800922	0.029970	0.632982
C185	C	1.067155	-0.335826	-0.159964
C186	C	1.567155	0.164174	0.340036
C187	C	1.024951	-0.358501	-0.238477
C188	C	1.524951	0.141499	0.261523
C189	C	1.066352	-0.333804	-0.316673
C190	C	1.566352	0.166196	0.183327
H191	H	1.122721	-0.363121	-0.160630
H192	H	1.622721	0.136879	0.339370
H193	H	1.068287	-0.276387	-0.159092
H194	H	1.568287	0.223613	0.340908
H195	H	1.023828	-0.417929	-0.239349
H196	H	1.523828	0.082071	0.260651
H197	H	0.969388	-0.331208	-0.237842
H198	H	1.469388	0.168792	0.262158
H199	H	1.067484	-0.274365	-0.315801
H200	H	1.567484	0.225635	0.184199
H201	H	1.121916	-0.361101	-0.317329
H202	H	1.621916	0.138899	0.182671
H203	H	1.037719	-0.349179	-0.369953
H204	H	1.537719	0.150821	0.130047
C205	C	0.896790	-0.434609	-0.159832
C206	C	1.396790	0.065391	0.340168
C207	C	0.814495	-0.395389	-0.159482
C208	C	1.314495	0.104611	0.340518
C209	C	0.772739	-0.419891	-0.237515
C210	C	1.272739	0.080109	0.262485
H211	H	0.896422	-0.494140	-0.159598
H212	H	1.396422	0.005860	0.340402
H213	H	0.924653	-0.418287	-0.213242
H214	H	1.424653	0.081713	0.286758
H215	H	0.786638	-0.411717	-0.106087
H216	H	1.286638	0.088283	0.393913
H217	H	0.814838	-0.335859	-0.159730
H218	H	1.314838	0.164141	0.340270
H219	H	0.800603	-0.403569	-0.290925
H220	H	1.300603	0.096431	0.209075
H221	H	0.772378	-0.479422	-0.237275
H222	H	1.272378	0.020578	0.262725
H223	H	0.716900	-0.393279	-0.237293
H224	H	1.216900	0.106721	0.262707
H225	H	1.084697	0.011082	0.587108
H226	H	1.584697	0.511082	1.087108
C227	C	1.100073	-0.004512	0.400123
C228	C	1.600073	0.495488	0.900123
C229	C	1.149565	-0.054533	0.462698
C230	C	1.649565	0.445467	0.962698
C231	C	1.206137	-0.111753	0.414893
C232	C	1.706137	0.388247	0.914893
H233	H	1.134761	0.025612	0.362671
H234	H	1.634761	0.525612	0.862671
H235	H	1.070182	-0.039534	0.362709
H236	H	1.570182	0.460466	0.862709
H237	H	1.179453	-0.019517	0.500096
H238	H	1.679453	0.480483	1.000096
H239	H	1.114900	-0.084676	0.500152
H240	H	1.614900	0.415324	1.000152
H241	H	1.176246	-0.146774	0.377479
H242	H	1.676246	0.353226	0.877479
H243	H	1.240819	-0.081622	0.377442
H244	H	1.740819	0.418378	0.877442
H245	H	1.239718	-0.145704	0.457343
H246	H	1.739718	0.354296	0.957343
