data_functionalizedCrystal
_audit_creation_method	'MofGen! by Chris Wilmer'
_symmetry_space_group_name_H-M	'P1'
_symmetry_Int_Tables_number	1
_symmetry_cell_setting	triclinic
loop_
_symmetry_equiv_pos_as_xyz
  x,y,z
_cell_length_a	16.109301
_cell_length_b	11.295501
_cell_length_c	16.109301
_cell_angle_alpha	94.601157
_cell_angle_beta	83.461481
_cell_angle_gamma	94.597193
loop_
_atom_site_label
_atom_site_type_symbol
_atom_site_fract_x
_atom_site_fract_y
_atom_site_fract_z
O1	O	1.108123	0.098954	0.111857
O2	O	0.866062	0.098973	0.125158
O3	O	0.993741	0.098951	-0.002524
O4	O	0.980443	0.098976	0.239539
O5	O	0.983741	-0.099100	-0.012516
O6	O	0.856062	-0.099078	0.115166
O7	O	1.098123	-0.099097	0.101866
Cu8	Cu	0.976179	-0.117171	0.107604
Cu9	Cu	0.988005	0.117047	0.119420
O10	O	0.970443	-0.099075	0.229548
C11	C	0.830087	-0.000050	0.119623
C12	C	0.737792	-0.000043	0.118008
C13	C	0.515519	-0.000049	0.190016
C14	C	0.428799	-0.000057	0.188491
C15	C	0.448672	-0.000068	0.037002
C16	C	0.535391	-0.000068	0.038527
C17	C	0.568812	-0.000053	0.115037
C18	C	0.395373	-0.000060	0.111987
C19	C	0.301346	-0.000069	0.110334
C20	C	0.662845	-0.000047	0.116690
N21	N	0.967868	-0.281907	0.099292
C22	C	1.056147	-0.531196	0.187595
C23	C	1.049872	-0.655859	0.181307
C24	C	0.949048	-0.655901	0.080425
C25	C	0.955323	-0.531237	0.086712
C26	C	1.008873	-0.468889	0.140300
C27	C	1.015143	-0.344223	0.146592
C28	C	0.914324	-0.344267	0.045706
C29	C	0.908050	-0.468930	0.039418
C30	C	1.134098	-0.000071	0.107400
C31	C	1.226393	-0.000070	0.109015
C32	C	0.988203	-0.000075	-0.038495
C33	C	0.986587	-0.000077	-0.130790
N34	N	0.996323	0.281784	0.127725
C35	C	1.058596	-0.000064	-0.353062
C36	C	1.057072	-0.000054	-0.439782
C37	C	0.905584	-0.000046	-0.419907
C38	C	0.907109	-0.000048	-0.333188
C39	C	0.983617	-0.000062	-0.299769
C40	C	0.980568	-0.000051	-0.473207
C41	C	0.978916	-0.000040	-0.567233
C42	C	0.985270	-0.000071	-0.205737
C43	C	0.975982	-0.000046	0.265518
C44	C	0.977598	-0.000037	0.357814
H45	H	0.542727	-0.000046	0.252314
O46	O	0.376909	-0.000097	0.261247
C47	C	0.234512	-0.000014	0.326045
C48	C	0.293179	0.000003	0.243582
H49	H	0.166805	0.000092	0.311793
H50	H	0.242417	-0.082910	0.359527
H51	H	0.250895	0.082858	0.367873
H52	H	0.276834	-0.082813	0.201689
H53	H	0.285264	0.082954	0.210166
O54	O	0.834302	0.000164	-0.281369
C55	C	0.753313	0.102743	-0.166710
C56	C	0.835790	0.102658	-0.225352
H57	H	0.754496	0.185587	-0.121394
H58	H	0.698340	0.102821	-0.205446
H59	H	0.746066	0.019823	-0.129838
H60	H	0.843118	0.185563	-0.262237
H61	H	0.890721	0.102517	-0.186569
O62	O	0.416070	-0.000020	-0.037240
C63	C	0.291280	-0.000089	-0.106732
C64	C	0.328089	-0.000119	-0.022592
H65	H	0.220142	-0.000195	-0.094920
H66	H	0.317355	0.082812	-0.139611
H67	H	0.309098	-0.082956	-0.147965
H68	H	0.310285	0.082692	0.018706
H69	H	0.302016	-0.083075	0.010221
H70	H	0.578785	-0.000075	-0.022534
O71	O	1.067227	-0.283839	0.198657
C72	C	1.166534	-0.296962	0.298088
C73	C	1.107593	-0.365489	0.239144
H74	H	1.199173	-0.362946	0.330850
H75	H	1.215451	-0.238624	0.260187
H76	H	1.128563	-0.238569	0.346909
H77	H	1.145494	-0.423947	0.190311
H78	H	1.058675	-0.423752	0.277100
H79	H	1.120894	-0.000073	-0.325855
O80	O	1.129981	-0.000111	-0.491435
C81	C	1.280401	-0.000053	-0.501987
C82	C	1.197889	-0.000018	-0.443397
H83	H	1.335327	0.000047	-0.463171
H84	H	1.279347	-0.082954	-0.547258
H85	H	1.287613	0.082814	-0.538912
H86	H	1.190624	-0.082830	-0.406417
H87	H	1.198979	0.082937	-0.398180
O88	O	1.108225	-0.470808	0.239664
C89	C	1.207515	-0.483919	0.339113
C90	C	1.148585	-0.552453	0.280161
H91	H	1.240150	-0.549898	0.371884
H92	H	1.256436	-0.425580	0.301218
H93	H	1.169536	-0.425526	0.387928
H94	H	1.186495	-0.610910	0.231336
H95	H	1.099663	-0.610716	0.318112
H96	H	1.088368	-0.706585	0.219819
H97	H	0.905459	-0.706686	0.036787
O98	O	0.856045	-0.529681	-0.012566
C99	C	0.801672	-0.721745	-0.066951
C100	C	0.860589	-0.653100	-0.008034
H101	H	0.805339	-0.821541	-0.063320
H102	H	0.734621	-0.697274	-0.047229
H103	H	0.821485	-0.697226	-0.133974
H104	H	0.840852	-0.677582	0.059007
H105	H	0.927627	-0.677577	-0.027827
O106	O	0.831198	0.000013	-0.452233
C107	C	0.681099	-0.000049	-0.423370
C108	C	0.765286	-0.000086	-0.386651
H109	H	0.627787	-0.000155	-0.370366
H110	H	0.680726	0.082854	-0.459255
H111	H	0.672461	-0.082914	-0.467686
H112	H	0.773979	0.082722	-0.342301
H113	H	0.765621	-0.083045	-0.350816
O114	O	0.868265	-0.283805	-0.000147
C115	C	0.730259	-0.245800	-0.030754
C116	C	0.782325	-0.314317	0.021235
H117	H	0.660767	-0.270463	-0.013499
H118	H	0.743856	-0.145972	-0.017053
H119	H	0.747618	-0.270304	-0.100253
H120	H	0.764995	-0.289913	0.090749
H121	H	0.768721	-0.414129	0.007463
