data_functionalizedCrystal
_audit_creation_method	'MofGen! by Chris Wilmer'
_symmetry_space_group_name_H-M	'P1'
_symmetry_Int_Tables_number	1
_symmetry_cell_setting	triclinic
loop_
_symmetry_equiv_pos_as_xyz
  x,y,z
_cell_length_a	19.805407
_cell_length_b	17.640280
_cell_length_c	19.805399
_cell_angle_alpha	78.776890
_cell_angle_beta	89.980427
_cell_angle_gamma	78.800112
loop_
_atom_site_label
_atom_site_type_symbol
_atom_site_fract_x
_atom_site_fract_y
_atom_site_fract_z
Zn1	Zn	1.089281	-0.314680	-0.328317
Zn2	Zn	1.589281	0.185320	0.171683
Zn3	Zn	1.112106	-0.446853	-0.192279
Zn4	Zn	1.612106	0.053147	0.307721
Zn5	Zn	0.976099	-0.314701	-0.215138
Zn6	Zn	1.476099	0.185299	0.284862
Zn7	Zn	0.998962	-0.446811	-0.305433
Zn8	Zn	1.498962	0.053189	0.194567
O9	O	1.044112	-0.380761	-0.260292
O10	O	1.544112	0.119239	0.239708
O11	O	1.187026	-0.332221	-0.310282
O12	O	1.687026	0.167779	0.189718
O13	O	1.094048	-0.429350	-0.100590
O14	O	1.594048	0.070650	0.399410
O15	O	0.971992	-0.204095	-0.249296
O16	O	1.471992	0.295905	0.250704
O17	O	1.203796	-0.429329	-0.210335
O18	O	1.703796	0.070671	0.289665
O19	O	1.055146	-0.204079	-0.332448
O20	O	1.555146	0.295921	0.167552
O21	O	0.994125	-0.332258	-0.117385
O22	O	1.494125	0.167742	0.382615
O23	O	0.884414	-0.332218	-0.227105
O24	O	1.384414	0.167782	0.272895
O25	O	1.010958	-0.429257	-0.403190
O26	O	1.510958	0.070743	0.096810
O27	O	0.901211	-0.429278	-0.293444
O28	O	1.401211	0.070722	0.206556
O29	O	1.077315	-0.332180	-0.420003
O30	O	1.577315	0.167820	0.079997
O31	O	1.116217	-0.557452	-0.188145
O32	O	1.616217	-0.057452	0.311855
O33	O	1.033091	-0.557421	-0.271278
O34	O	1.533091	-0.057421	0.228722
C35	C	0.868253	-0.380746	-0.260272
C36	C	1.368253	0.119254	0.239728
C37	C	0.793023	-0.380759	-0.260277
C38	C	1.293023	0.119241	0.239723
C39	C	0.766456	-0.431374	-0.294736
C40	C	1.266456	0.068626	0.205264
C41	C	0.695768	-0.431376	-0.294746
C42	C	1.195768	0.068624	0.205254
C43	C	0.651649	-0.380765	-0.260291
C44	C	1.151649	0.119235	0.239709
C45	C	0.678220	-0.330144	-0.225831
C46	C	1.178220	0.169856	0.274169
C47	C	0.748906	-0.330139	-0.225826
C48	C	1.248906	0.169861	0.274174
C49	C	0.393149	-0.330161	-0.225850
C50	C	0.893149	0.169839	0.274150
C51	C	0.322459	-0.330172	-0.225856
C52	C	0.822459	0.169828	0.274144
C53	C	0.340012	-0.431398	-0.294770
C54	C	0.840012	0.068602	0.205230
C55	C	0.410698	-0.431393	-0.294765
C56	C	0.910698	0.068607	0.205235
C57	C	0.437262	-0.380770	-0.260308
C58	C	0.937262	0.119230	0.239692
C59	C	0.513910	-0.380768	-0.260299
C60	C	1.013910	0.119232	0.239701
C61	C	0.575003	-0.380770	-0.260295
C62	C	1.075003	0.119230	0.239705
C63	C	1.079630	-0.586114	-0.224762
C64	C	1.579630	-0.086114	0.275238
C65	C	1.094887	-0.673965	-0.209586
C66	C	1.594887	-0.173965	0.290414
C67	C	0.928484	-0.962953	-0.375835
C68	C	1.428484	-0.462953	0.124165
C69	C	0.942822	-1.045502	-0.361553
C70	C	1.442822	-0.545502	0.138447
C71	C	1.029435	-1.045469	-0.275073
C72	C	1.529435	-0.545469	0.224927
C73	C	1.015107	-0.962918	-0.289351
C74	C	1.515107	-0.462918	0.210649
C75	C	0.964630	-0.921667	-0.339732
C76	C	1.464630	-0.421667	0.160268
C77	C	1.051253	-0.921632	-0.253247
C78	C	1.551253	-0.421632	0.246753
C79	C	1.036924	-0.839088	-0.267522
C80	C	1.536924	-0.339088	0.232478
C81	C	0.986448	-0.797831	-0.317899
C82	C	1.486448	-0.297831	0.182101
C83	C	0.950301	-0.839123	-0.354006
C84	C	1.450301	-0.339123	0.145994
C85	C	1.101726	-0.962885	-0.202863
C86	C	1.601726	-0.462885	0.297137
C87	C	1.137872	-0.921598	-0.166760
C88	C	1.637872	-0.421598	0.333240
C89	C	1.123546	-0.839053	-0.181037
C90	C	1.623546	-0.339053	0.318963
C91	C	1.073071	-0.797796	-0.231415
C92	C	1.573071	-0.297796	0.268585
C93	C	1.159693	-0.797761	-0.144930
C94	C	1.659693	-0.297761	0.355070
C95	C	1.145364	-0.715217	-0.159204
C96	C	1.645364	-0.215217	0.340796
C97	C	1.058741	-0.715252	-0.245689
C98	C	1.558741	-0.215252	0.254311
C99	C	1.220657	-0.380777	-0.260311
C100	C	1.720657	0.119223	0.239689
C101	C	1.295890	-0.380784	-0.260320
C102	C	1.795890	0.119216	0.239680
C103	C	1.044141	-0.380712	-0.436843
C104	C	1.544141	0.119288	0.063157
C105	C	1.044154	-0.380690	-0.512079
C106	C	1.544154	0.119310	-0.012079
C107	C	1.008473	-0.174606	-0.295974
C108	C	1.508473	0.325394	0.204026
C109	C	0.993286	-0.086756	-0.311180
C110	C	1.493286	0.413244	0.188820
C111	C	1.078706	-0.330140	-0.556179
C112	C	1.578706	0.169860	-0.056179
C113	C	1.078709	-0.330117	-0.626872
C114	C	1.578709	0.169883	-0.126872
C115	C	1.044163	-0.380649	-0.653462
C116	C	1.544163	0.119351	-0.153462
C117	C	1.009606	-0.431202	-0.609356
C118	C	1.509606	0.068798	-0.109356
C119	C	1.009600	-0.431220	-0.538666
C120	C	1.509600	0.068780	-0.038666
C121	C	1.009632	-0.431128	-0.894442
C122	C	1.509632	0.068872	-0.394442
C123	C	1.009643	-0.431107	-0.965138
C124	C	1.509643	0.068893	-0.465138
C125	C	1.078741	-0.330025	-0.982648
C126	C	1.578741	0.169975	-0.482648
C127	C	1.078735	-0.330043	-0.911958
C128	C	1.578735	0.169957	-0.411958
C129	C	1.044175	-0.380593	-0.867859
C130	C	1.544175	0.119407	-0.367859
C131	C	1.044171	-0.380616	-0.791206
C132	C	1.544171	0.119384	-0.291206
C133	C	1.044171	-0.380631	-0.730112
C134	C	1.544171	0.119369	-0.230112
C135	C	1.044112	-0.380754	-0.084437
C136	C	1.544112	0.119246	0.415563
C137	C	1.044192	-0.380553	-0.009240
C138	C	1.544192	0.119447	0.490760
H139	H	0.674141	-0.472593	-0.322805
H140	H	1.174141	0.027407	0.177195
H141	H	1.070531	-1.079067	-0.234051
H142	H	1.570531	-0.579067	0.265949
H143	H	0.981455	-0.472375	-0.502760
H144	H	1.481455	0.027625	-0.002760
N145	N	0.903831	-1.090029	-0.400499
N146	N	1.403831	-0.590029	0.099501
H147	H	0.937255	-1.124238	-0.425977
H148	H	1.437255	-0.624238	0.074023
H149	H	0.878436	-1.124272	-0.366992
H150	H	1.378436	-0.624272	0.133008
H151	H	1.106847	-0.288956	-0.662776
H152	H	1.606847	0.211044	-0.162776
H153	H	0.802375	-0.472590	-0.322791
H154	H	1.302375	0.027410	0.177209
H155	H	0.642291	-0.288932	-0.197781
H156	H	1.142291	0.211068	0.302219
H157	H	0.887386	-0.929364	-0.416866
H158	H	1.387386	-0.429364	0.083134
H159	H	0.318374	-0.472615	-0.322830
H160	H	0.818374	0.027385	0.177170
H161	H	0.770534	-0.288918	-0.197770
H162	H	1.270534	0.211082	0.302230
N163	N	0.458277	-0.485981	-0.331931
N164	N	0.958277	0.014019	0.168069
H165	H	0.482070	-0.453905	-0.368888
H166	H	0.982070	0.046095	0.131112
H167	H	0.493882	-0.522556	-0.297996
H168	H	0.993882	-0.022556	0.202004
N169	N	1.117179	-1.051914	-0.187465
N170	N	1.617179	-0.551914	0.312535
H171	H	1.133042	-1.071764	-0.230474
H172	H	1.633042	-0.571764	0.269526
H173	H	1.154619	-1.071719	-0.150048
H174	H	1.654619	-0.571719	0.349952
H175	H	1.106868	-0.288898	-0.890312
H176	H	1.606868	0.211102	-0.390312
N177	N	1.184356	-0.670688	-0.120266
N178	N	1.684356	-0.170688	0.379734
H179	H	1.209750	-0.636398	-0.153734
H180	H	1.709750	-0.136398	0.346266
H181	H	1.150892	-0.636527	-0.094788
H182	H	1.650892	-0.136527	0.405212
N183	N	1.192313	-0.966103	-0.112426
N184	N	1.692313	-0.466103	0.387574
H185	H	1.238165	-0.951692	-0.125478
H186	H	1.738165	-0.451692	0.374522
H187	H	1.179286	-0.951756	-0.066553
H188	H	1.679286	-0.451756	0.433447
H189	H	0.286537	-0.288953	-0.197799
H190	H	0.786537	0.211047	0.302201
N191	N	0.972351	-0.485709	-0.638033
N192	N	1.472351	0.014291	-0.138033
H193	H	0.950461	-0.517735	-0.599367
H194	H	1.450461	-0.017735	-0.099367
H195	H	0.935469	-0.453528	-0.672928
H196	H	1.435469	0.046472	-0.172928
H197	H	0.414770	-0.288946	-0.197787
H198	H	0.914770	0.211054	0.302213
H199	H	1.017643	-0.681663	-0.286719
H200	H	1.517643	-0.181663	0.213281
N201	N	1.115972	-0.275642	-0.527501
N202	N	1.615972	0.224358	-0.027501
H203	H	1.137860	-0.243615	-0.566169
H204	H	1.637860	0.256385	-0.066169
H205	H	1.082095	-0.239070	-0.504497
H206	H	1.582095	0.260930	-0.004497
N207	N	1.214122	-0.842257	-0.090581
N208	N	1.714122	-0.342257	0.409419
H209	H	1.217710	-0.900813	-0.087012
H210	H	1.717710	-0.400813	0.412988
H211	H	1.259947	-0.827789	-0.103657
H212	H	1.759947	-0.327789	0.396343
N213	N	1.116016	-0.275500	-1.030212
N214	N	1.616016	0.224500	-0.530212
H215	H	1.110778	-0.283150	-1.079030
H216	H	1.610778	0.216850	-0.579030
H217	H	1.095724	-0.219054	-1.027623
H218	H	1.595724	0.280946	-0.527623
H219	H	0.981509	-0.472258	-0.986784
H220	H	1.481509	0.027742	-0.486784
H221	H	0.974777	-0.730618	-0.329515
H222	H	1.474777	-0.230618	0.170485
N223	N	0.972332	-0.485620	-0.846888
N224	N	1.472332	0.014380	-0.346888
H225	H	0.950443	-0.517621	-0.874463
H226	H	1.450443	-0.017621	-0.374463
H227	H	1.006180	-0.522218	-0.811215
H228	H	1.506180	-0.022218	-0.311215
H229	H	0.909202	-0.805534	-0.395037
H230	H	1.409202	-0.305534	0.104963
