data_functionalizedCrystal
_audit_creation_method	'MofGen! by Chris Wilmer'
_symmetry_space_group_name_H-M	'P1'
_symmetry_Int_Tables_number	1
_symmetry_cell_setting	triclinic
loop_
_symmetry_equiv_pos_as_xyz
  x,y,z
_cell_length_a	6.817900
_cell_length_b	11.102289
_cell_length_c	12.200875
_cell_angle_alpha	92.492761
_cell_angle_beta	107.143593
_cell_angle_gamma	108.605707
loop_
_atom_site_label
_atom_site_type_symbol
_atom_site_fract_x
_atom_site_fract_y
_atom_site_fract_z
V1	V	-4.094469	-0.176128	-0.357661
O2	O	-4.053827	0.008167	-0.350853
O3	O	-4.071363	-0.348946	-0.355214
O4	O	-4.063810	-0.173549	-0.513649
O5	O	-4.061433	-0.168445	-0.191321
V6	V	-4.572521	-0.154069	-0.337765
O7	O	-4.367729	-0.224516	-0.401303
O8	O	-4.749458	-0.105680	-0.294123
O9	O	-4.372421	0.018750	-0.340212
O10	O	-4.730561	-0.338363	-0.344573
O11	O	-4.722955	-0.161752	-0.504105
O12	O	-4.379974	-0.156647	-0.181777
C13	C	-3.921943	-0.391071	-0.349572
C14	C	-3.984456	-0.532353	-0.348612
C15	C	-4.197559	-0.605206	-0.353883
C16	C	-4.256290	-0.737957	-0.352990
C17	C	-3.888790	-0.724989	-0.341551
C18	C	-3.830067	-0.592242	-0.342451
C19	C	-4.409730	-0.612693	-0.360483
C20	C	-4.468461	-0.745443	-0.359590
C21	C	-3.912306	-0.167333	-0.551670
C22	C	-3.968690	-0.166368	-0.679191
C23	C	-4.071879	-0.164603	-0.912665
C24	C	-4.014449	-0.165585	-0.782743
C25	C	-4.185183	0.060868	-0.345851
C26	C	-4.101910	0.202149	-0.346819
C27	C	-4.194819	-0.162867	-0.143750
C28	C	-4.117674	-0.163826	-0.016228
H29	H	-3.763101	-0.773768	-0.336536
O30	O	-4.621095	-0.814703	-0.460858
C31	C	-4.810440	-0.891199	-0.438644
H32	H	-4.765268	-0.907458	-0.344201
H33	H	-4.884016	-0.987792	-0.497882
H34	H	-4.935143	-0.840206	-0.455888
O35	O	-3.623046	-0.521316	-0.337186
C36	C	-3.525635	-0.426843	-0.237537
H37	H	-3.658890	-0.406803	-0.209359
H38	H	-3.418353	-0.334649	-0.258196
H39	H	-3.420894	-0.462680	-0.164479
O40	O	-4.538737	-0.589987	-0.459984
C41	C	-4.759797	-0.641704	-0.465754
H42	H	-4.780308	-0.721151	-0.409478
H43	H	-4.866766	-0.683108	-0.559482
H44	H	-4.811074	-0.562676	-0.432968
O45	O	-4.414002	-0.549013	-0.263926
C46	C	-4.203844	-0.458979	-0.204586
H47	H	-4.075806	-0.489579	-0.228972
H48	H	-4.170853	-0.454400	-0.107027
H49	H	-4.194933	-0.360156	-0.229772
O50	O	-4.534222	-0.775393	-0.266177
C51	C	-4.593204	-0.909103	-0.265431
H52	H	-4.637993	-0.960335	-0.357076
H53	H	-4.739834	-0.944256	-0.233369
H54	H	-4.449487	-0.930841	-0.205247
