data_functionalizedCrystal
_audit_creation_method	'MofGen! by Chris Wilmer'
_symmetry_space_group_name_H-M	'P1'
_symmetry_Int_Tables_number	1
_symmetry_cell_setting	triclinic
loop_
_symmetry_equiv_pos_as_xyz
  x,y,z
_cell_length_a	27.731988
_cell_length_b	9.730217
_cell_length_c	10.654541
_cell_angle_alpha	89.996959
_cell_angle_beta	96.448855
_cell_angle_gamma	89.989518
loop_
_atom_site_label
_atom_site_type_symbol
_atom_site_fract_x
_atom_site_fract_y
_atom_site_fract_z
O1	O	-0.641872	-0.113909	0.149058
O2	O	-0.501216	-0.113995	0.171855
O3	O	-0.574779	-0.113941	-0.022421
O4	O	-0.568309	-0.113962	0.343334
O5	O	-0.574776	0.114639	-0.022422
O6	O	-0.501214	0.114585	0.171853
O7	O	-0.641870	0.114671	0.149057
Zn8	Zn	-0.571541	0.150920	0.160455
Zn9	Zn	-0.571544	-0.150244	0.160457
O10	O	-0.568307	0.114618	0.343332
C11	C	-0.483205	0.000284	0.171387
C12	C	-0.429539	0.000252	0.169981
N13	N	-0.571543	0.356457	0.160452
C14	C	-0.574303	0.000347	-0.069199
C15	C	-0.572882	0.000344	-0.208582
C16	C	-0.046316	-0.124287	0.159789
C17	C	-0.248007	-0.124321	0.165149
O18	O	-0.274086	-0.230290	0.165793
N19	N	-0.273231	0.000276	0.165819
C20	C	-0.248028	0.124890	0.165140
O21	O	-0.274111	0.230866	0.165820
C22	C	-0.046338	0.124922	0.159771
C23	C	-0.021117	0.000318	0.159114
C24	C	-0.021095	-0.248881	0.159131
C25	C	0.029325	-0.248872	0.157798
C26	C	0.054524	-0.124267	0.157123
C27	C	0.029303	0.000327	0.157781
C28	C	-0.021138	0.249535	0.159083
C29	C	0.029288	0.249532	0.157738
C30	C	0.054509	0.124927	0.157081
C31	C	0.104922	0.124942	0.155773
N32	N	0.130145	0.000345	0.155103
C33	C	0.104946	-0.124259	0.155778
C34	C	-0.353918	0.124864	0.167962
C35	C	-0.404341	0.124856	0.169306
C36	C	-0.404316	-0.124355	0.169313
C37	C	-0.353893	-0.124346	0.167977
C38	C	-0.328695	0.000267	0.167292
C39	C	0.210832	-0.124229	0.152980
C40	C	0.261257	-0.124209	0.151652
C41	C	0.261228	0.125002	0.151639
C42	C	0.210808	0.124982	0.152973
C43	C	0.185611	0.000355	0.153639
O44	O	0.131031	0.230855	0.155115
O45	O	0.131036	-0.230220	0.155070
C46	C	-0.096736	-0.124297	0.161122
C47	C	-0.121957	0.000298	0.161780
C48	C	-0.096759	0.124902	0.161106
C49	C	-0.172380	0.000290	0.163125
C50	C	-0.197578	-0.124314	0.163800
C51	C	-0.172355	-0.248911	0.163130
C52	C	-0.121935	-0.248901	0.161797
C53	C	-0.121982	0.249499	0.161775
C54	C	-0.172402	0.249479	0.163110
C55	C	-0.197601	0.124875	0.163785
C56	C	0.340120	0.000385	0.149536
C57	C	0.286456	0.000396	0.150977
N58	N	-0.571547	-0.355780	0.160449
C59	C	-0.636709	0.356495	-0.011530
C60	C	-0.669296	0.428454	-0.097518
C61	C	-0.669301	0.572333	-0.097519
C62	C	-0.636715	0.644258	-0.011525
C63	C	-0.604128	0.572299	0.074462
C64	C	-0.604128	0.428416	0.074457
C65	C	-0.538960	0.572261	0.246437
C66	C	-0.538957	0.428381	0.246446
C67	C	-0.506374	0.644185	0.332431
C68	C	-0.473789	0.572226	0.418426
C69	C	-0.473786	0.428338	0.418425
C70	C	-0.506370	0.356422	0.332434
C71	C	-0.660846	0.000416	-0.240300
C72	C	-0.704159	0.000454	-0.321639
C73	C	-0.702821	0.000448	-0.452600
C74	C	-0.658166	0.000401	-0.502223
C75	C	-0.614854	0.000363	-0.420884
C76	C	-0.616196	0.000372	-0.289922
C77	C	-0.526891	0.000282	-0.389167
C78	C	-0.528227	0.000297	-0.258206
C79	C	-0.482236	0.000235	-0.438790
C80	C	-0.438922	0.000207	-0.357451
C81	C	-0.440262	0.000213	-0.226482
C82	C	-0.484915	0.000259	-0.176866
C83	C	-0.568783	0.000326	0.390111
C84	C	-0.570203	0.000320	0.529494
H85	H	0.281790	-0.225681	0.151120
H86	H	-0.695833	0.630922	-0.167542
H87	H	0.049856	-0.350338	0.157257
H88	H	-0.041607	-0.350355	0.159676
H89	H	-0.333361	-0.225810	0.167442
H90	H	-0.661940	0.000438	-0.133666
H91	H	-0.636717	0.761412	-0.011542
H92	H	-0.506372	0.239268	0.332429
O93	O	-0.656722	0.000378	-0.643473
H94	H	-0.637375	0.093519	-0.671169
O95	O	-0.431537	0.259256	0.170036
H96	H	-0.470833	0.238332	0.171096
H97	H	-0.447249	0.369756	0.488442
H98	H	-0.740516	0.000504	-0.281221
O99	O	-0.749535	0.000499	-0.540342
H100	H	-0.780811	0.000542	-0.483841
O101	O	-0.094732	-0.383291	0.161078
H102	H	-0.075783	-0.389233	0.074850
O103	O	-0.480790	0.000225	-0.580040
H104	H	-0.461440	0.093366	-0.607722
O105	O	-0.390762	0.000168	-0.410967
H106	H	-0.397109	0.000174	-0.515697
O107	O	0.183599	0.259369	0.153695
H108	H	0.189247	0.319116	0.067812
H109	H	-0.424841	-0.225813	0.169866
O110	O	-0.326742	0.259275	0.167242
H111	H	-0.352756	0.345901	0.167950
H112	H	0.190323	-0.225712	0.153524
H113	H	-0.404991	0.000177	-0.160262
O114	O	-0.704439	0.350872	-0.190265
H115	H	-0.727095	0.425083	-0.250064
H116	H	-0.486010	0.000273	-0.070233
H117	H	-0.636712	0.239340	-0.011528
O118	O	-0.506379	0.799370	0.332446
H119	H	-0.534517	0.837328	0.258219
O120	O	-0.438647	0.649794	0.511174
H121	H	-0.444126	0.761931	0.496727
H122	H	0.049802	0.351009	0.157191
O123	O	-0.048332	0.383931	0.159828
H124	H	-0.022331	0.470563	0.159131
H125	H	0.281754	0.226451	0.151094
O126	O	-0.199539	-0.383311	0.163837
H127	H	-0.238838	-0.362368	0.164860
H128	H	-0.101470	0.350969	0.161220
O129	O	-0.199602	0.383882	0.163848
H130	H	-0.173604	0.470521	0.163153
