data_functionalizedCrystal
_audit_creation_method	'MofGen! by Chris Wilmer'
_symmetry_space_group_name_H-M	'P1'
_symmetry_Int_Tables_number	1
_symmetry_cell_setting	triclinic
loop_
_symmetry_equiv_pos_as_xyz
  x,y,z
_cell_length_a	14.044220
_cell_length_b	13.101039
_cell_length_c	14.971486
_cell_angle_alpha	86.633875
_cell_angle_beta	88.401503
_cell_angle_gamma	93.659868
loop_
_atom_site_label
_atom_site_type_symbol
_atom_site_fract_x
_atom_site_fract_y
_atom_site_fract_z
O1	O	1.263154	0.085106	0.211146
O2	O	0.987177	0.085132	0.203363
O3	O	1.132562	0.085111	0.077637
O4	O	1.117769	0.085127	0.336871
O5	O	1.122131	-0.085317	0.086674
O6	O	0.976746	-0.085296	0.212400
O7	O	1.252723	-0.085322	0.220183
Zn8	Zn	1.113078	-0.112368	0.217726
Zn9	Zn	1.126822	0.112178	0.205820
O10	O	1.107338	-0.085301	0.345908
C11	C	0.946644	-0.000079	0.204474
C12	C	0.841407	-0.000069	0.194313
N13	N	1.103706	-0.265615	0.225852
C14	C	1.090954	-0.474656	0.236916
C15	C	1.148951	-0.525540	0.186626
C16	C	1.141855	-0.641858	0.192782
C17	C	1.098048	-0.358328	0.230761
C18	C	0.648723	-0.000090	0.175737
C19	C	0.591172	-0.000090	0.247804
C20	C	0.483956	-0.000102	0.237468
C21	C	0.755949	-0.000079	0.186072
C22	C	1.293256	-0.000109	0.219071
C23	C	1.398494	-0.000112	0.229233
C24	C	1.126685	-0.000103	0.048779
C25	C	1.124702	-0.000101	-0.050674
N26	N	1.136202	0.265426	0.197687
C27	C	1.210112	-0.000110	-0.101171
C28	C	1.208244	-0.000100	-0.194618
C29	C	1.120965	-0.000088	-0.237567
C30	C	1.035549	-0.000076	-0.187063
C31	C	1.037418	-0.000079	-0.093618
C32	C	1.031658	-0.000072	-0.381833
C33	C	1.029788	-0.000071	-0.475284
C34	C	1.202484	-0.000092	-0.482832
C35	C	1.204354	-0.000096	-0.389387
C36	C	1.118937	-0.000086	-0.338890
C37	C	1.113215	-0.000085	0.374767
C38	C	1.115198	-0.000079	0.474220
H39	H	1.035976	-0.518445	0.284591
O40	O	1.221785	-0.467543	0.123469
H41	H	1.216006	-0.383960	0.128486
O42	O	1.294619	-0.000101	-0.537285
H43	H	1.302164	0.069370	-0.583710
O44	O	0.632567	-0.000073	0.339812
H45	H	0.604045	-0.069539	0.380344
O46	O	0.607341	-0.000096	0.083730
H47	H	0.528403	-0.000094	0.089949
O48	O	0.945293	-0.000080	-0.039154
H49	H	0.946260	0.069387	-0.000085
H50	H	1.277793	-0.000109	-0.235728
H51	H	1.281184	-0.000126	-0.066209
H52	H	1.275424	-0.000113	-0.354421
O53	O	0.935656	-0.000040	-0.521614
H54	H	0.876575	-0.000015	-0.470805
H55	H	0.962103	-0.000061	-0.340721
O56	O	0.941411	-0.000075	-0.233385
H57	H	0.940679	0.069382	-0.279467
