data_functionalizedCrystal
_audit_creation_method	'MofGen! by Chris Wilmer'
_symmetry_space_group_name_H-M	'P1'
_symmetry_Int_Tables_number	1
_symmetry_cell_setting	triclinic
loop_
_symmetry_equiv_pos_as_xyz
  x,y,z
_cell_length_a	16.992694
_cell_length_b	10.723024
_cell_length_c	15.455313
_cell_angle_alpha	92.691723
_cell_angle_beta	87.142206
_cell_angle_gamma	87.568046
loop_
_atom_site_label
_atom_site_type_symbol
_atom_site_fract_x
_atom_site_fract_y
_atom_site_fract_z
O1	O	1.045219	0.259622	-0.072018
O2	O	0.816920	0.256716	-0.072044
O3	O	0.936335	0.077046	-0.072027
O4	O	0.925803	0.439291	-0.072035
O5	O	0.929506	0.087275	0.072234
O6	O	0.810091	0.266945	0.072217
O7	O	1.038390	0.269851	0.072243
Cu8	Cu	0.923617	0.269332	0.085402
Cu9	Cu	0.931693	0.257235	-0.085203
O10	O	0.918974	0.449520	0.072226
C11	C	0.784273	0.258094	0.000083
C12	C	0.697169	0.246945	0.000074
C13	C	0.647507	0.354505	0.000072
C14	C	0.565663	0.344024	0.000084
C15	C	0.533484	0.225982	0.000092
C16	C	0.583152	0.118414	0.000096
C17	C	0.664993	0.128896	0.000090
C18	C	0.289651	0.182535	0.000116
C19	C	0.207803	0.172061	0.000119
C20	C	0.190320	0.397673	0.000109
C21	C	0.272165	0.408144	0.000098
C22	C	0.321825	0.300577	0.000107
N23	N	0.449827	0.215266	0.000102
N24	N	0.405480	0.311295	0.000103
C25	C	0.932154	0.035595	0.000102
C26	C	0.929861	-0.103157	0.000099
C27	C	0.996680	-0.172386	0.000105
C28	C	0.994312	-0.315793	0.000102
C29	C	1.071037	0.268473	0.000114
C30	C	1.158141	0.279621	0.000118
C31	C	0.923155	0.490971	0.000095
C32	C	0.925449	0.629723	0.000093
N33	N	0.917942	0.277840	0.205397
N34	N	0.937374	0.248717	-0.205198
C35	C	0.968692	0.201542	0.250798
C36	C	0.964408	0.207989	0.341605
C37	C	0.909377	0.290741	0.387010
C38	C	0.858622	0.367042	0.341602
C39	C	0.862903	0.360588	0.250797
C40	C	0.890899	0.318564	0.658589
C41	C	0.886624	0.325015	0.749401
C42	C	0.992409	0.165960	0.749398
C43	C	0.996689	0.159518	0.658590
C44	C	0.945931	0.235815	0.613191
N45	N	0.904999	0.297335	0.479830
N46	N	0.950306	0.229213	0.520373
H47	H	0.181606	0.075931	0.000125
H48	H	1.055640	-0.125486	0.000117
N49	N	0.849671	-0.291471	0.000078
H50	H	0.803391	-0.347541	0.000070
H51	H	0.844965	-0.233253	0.053558
N52	N	1.070085	-0.394611	0.000116
H53	H	1.074863	-0.452839	-0.053361
H54	H	1.116322	-0.338460	0.000157
H55	H	1.013507	0.134162	0.213836
N56	N	0.136759	0.513686	0.000101
H57	H	0.080029	0.489139	0.000107
H58	H	0.144724	0.568570	0.053579
N59	N	0.836151	0.400845	0.609629
H60	H	0.800643	0.454246	0.652174
H61	H	0.868248	0.456389	0.571937
N62	N	1.019165	0.125709	0.390560
H63	H	0.987134	0.070067	0.428247
H64	H	1.054664	0.072409	0.347950
N65	N	1.056046	0.070265	0.609624
H66	H	1.111052	0.091378	0.625425
H67	H	1.045726	-0.018098	0.625457
H68	H	0.870902	-0.150057	0.000087
N69	N	0.343197	0.066509	0.000113
H70	H	0.380068	0.062031	-0.053367
H71	H	0.374967	0.069676	0.053624
H72	H	0.673701	0.450628	0.000065
N73	N	0.512094	0.460042	0.000181
H74	H	0.544897	0.536413	0.000201
H75	H	0.480234	0.456904	-0.053263
H76	H	1.033733	0.103841	0.786370
N77	N	0.548439	-0.008899	0.000114
H78	H	0.517397	-0.022073	-0.053361
H79	H	0.592359	-0.075373	0.000151
H80	H	0.705428	0.041309	0.000091
N81	N	0.827274	0.414286	0.798376
H82	H	0.795769	0.461643	0.755838
H83	H	0.790564	0.365682	0.836070
N84	N	0.799265	0.456287	0.390577
H85	H	0.827762	0.517264	0.428240
H86	H	0.767777	0.503555	0.347982
N87	N	0.306872	0.535461	0.000074
H88	H	0.262992	0.602011	0.000070
H89	H	0.337930	0.548532	0.053545
N90	N	0.808162	0.442873	0.201824
H91	H	0.772650	0.496277	0.244364
H92	H	0.840263	0.498414	0.164135
