data_functionalizedCrystal
_audit_creation_method	'MofGen! by Chris Wilmer'
_symmetry_space_group_name_H-M	'P1'
_symmetry_Int_Tables_number	1
_symmetry_cell_setting	triclinic
loop_
_symmetry_equiv_pos_as_xyz
  x,y,z
_cell_length_a	25.639242
_cell_length_b	25.639239
_cell_length_c	11.169409
_cell_angle_alpha	90.039281
_cell_angle_beta	90.024124
_cell_angle_gamma	90.030990
loop_
_atom_site_label
_atom_site_type_symbol
_atom_site_fract_x
_atom_site_fract_y
_atom_site_fract_z
Zn1	Zn	0.799275	-0.208216	0.678622
Zn2	Zn	0.799184	-0.295666	0.477915
Zn3	Zn	0.711837	-0.208235	0.477942
Zn4	Zn	0.711797	-0.295610	0.678545
O5	O	0.755523	-0.251932	0.578256
O6	O	0.872429	-0.219832	0.652019
O7	O	0.787576	-0.284099	0.309969
O8	O	0.723491	-0.135067	0.504606
O9	O	0.872361	-0.284081	0.504560
O10	O	0.787732	-0.135053	0.652045
O11	O	0.723402	-0.219864	0.309988
O12	O	0.638666	-0.219810	0.504531
O13	O	0.723423	-0.283986	0.846505
O14	O	0.638637	-0.284004	0.651913
O15	O	0.787693	-0.219778	0.846562
O16	O	0.787537	-0.368824	0.504485
O17	O	0.723334	-0.368783	0.651887
C18	C	0.619681	-0.251903	0.578217
C19	C	0.561567	-0.251904	0.578229
C20	C	0.310416	-0.218536	0.655178
C21	C	0.365021	-0.218531	0.655171
O22	O	0.393294	-0.190138	0.720587
N23	N	0.392293	-0.251926	0.578270
C24	C	0.364958	-0.285331	0.501379
O25	O	0.393169	-0.313735	0.435968
C26	C	0.310355	-0.285338	0.501392
C27	C	0.283085	-0.251938	0.578290
C28	C	0.283147	-0.185139	0.732070
C29	C	0.228546	-0.185144	0.732075
C30	C	0.201215	-0.218546	0.655188
C31	C	0.228485	-0.251943	0.578295
C32	C	0.283021	-0.318746	0.424508
C33	C	0.228414	-0.318751	0.424529
C34	C	0.201144	-0.285351	0.501427
C35	C	0.146553	-0.285349	0.501413
N36	N	0.119281	-0.251955	0.578314
C37	C	0.146612	-0.218553	0.655201
C38	C	0.479629	-0.285314	0.501357
C39	C	0.534231	-0.285304	0.501336
C40	C	0.534290	-0.218505	0.655131
C41	C	0.479686	-0.218512	0.655144
C42	C	0.452356	-0.251919	0.578258
C43	C	0.031947	-0.218565	0.655205
C44	C	-0.022659	-0.218571	0.655200
C45	C	-0.022713	-0.285372	0.501411
C46	C	0.031888	-0.285364	0.501411
C47	C	0.059216	-0.251959	0.578318
O48	O	0.118245	-0.313729	0.436033
O49	O	0.118394	-0.190158	0.720612
C50	C	0.755435	-0.387774	0.578201
C51	C	0.755446	-0.445888	0.578217
C52	C	0.789041	-0.806260	0.501634
C53	C	0.789061	-0.860864	0.501651
O54	O	0.817534	-0.889108	0.436477
N55	N	0.755615	-0.888171	0.578335
C56	C	0.722150	-0.860870	0.655018
O57	O	0.693704	-0.889110	0.720246
C58	C	0.722133	-0.806267	0.655007
C59	C	0.755578	-0.778963	0.578308
C60	C	0.822483	-0.778956	0.424943
C61	C	0.822462	-0.724356	0.424926
C62	C	0.788999	-0.697059	0.501600
C63	C	0.755557	-0.724363	0.578291
C64	C	0.688671	-0.778967	0.731694
C65	C	0.688657	-0.724360	0.731678
C66	C	0.722102	-0.697056	0.654979
C67	C	0.722072	-0.642465	0.654948
N68	N	0.755518	-0.615159	0.578263
C69	C	0.788982	-0.642456	0.501589
C70	C	0.722190	-0.975541	0.655036
C71	C	0.722204	-1.030143	0.655042
C72	C	0.789116	-1.030133	0.501676
C73	C	0.789098	-0.975530	0.501665
C74	C	0.755636	-0.948234	0.578351
C75	C	0.788934	-0.527791	0.501558
C76	C	0.788909	-0.473185	0.501544
C77	C	0.721999	-0.473199	0.654913
C78	C	0.722023	-0.527800	0.654924
C79	C	0.755495	-0.555094	0.578242
O80	O	0.693615	-0.614186	0.720092
O81	O	0.817428	-0.614209	0.436382
C82	C	0.891896	-0.251960	0.578295
C83	C	0.950010	-0.251973	0.578312
C84	C	0.755563	-0.251874	0.891298
C85	C	0.755581	-0.251849	1.024699
C86	C	0.755626	-0.115559	0.578337
C87	C	0.755670	-0.057445	0.578372
C88	C	0.755513	-0.251952	0.266431
C89	C	0.755598	-0.251829	0.133032
H90	H	0.457487	-0.191314	0.717760
O91	O	0.821614	-0.948953	0.427333
C92	C	0.892217	-0.887282	0.411319
C93	C	0.855415	-0.917335	0.495636
H94	H	0.919561	-0.861720	0.466509
H95	H	0.868250	-0.861723	0.348522
H96	H	0.916109	-0.916187	0.356496
H97	H	0.831515	-0.888467	0.550537
H98	H	0.879412	-0.942901	0.558354
O99	O	0.309582	-0.351147	0.349857
C100	C	0.393665	-0.380789	0.281731
C101	C	0.363651	-0.344056	0.366315
H102	H	0.437384	-0.375077	0.295026
H103	H	0.382949	-0.371567	0.184967
H104	H	0.382876	-0.422950	0.302643
H105	H	0.374424	-0.301883	0.345511
H106	H	0.374369	-0.353323	0.463054
O107	O	0.689628	-0.949108	0.729562
C108	C	0.623284	-0.954892	0.881728
C109	C	0.660123	-0.984887	0.797368
H110	H	0.599428	-0.983806	0.936589
H111	H	0.595913	-0.929385	0.826623
H112	H	0.647271	-0.929271	0.944486
H113	H	0.636179	-1.010536	0.734593
H114	H	0.687496	-1.010361	0.852548
H115	H	0.849736	-0.801176	0.362506
O116	O	0.560694	-0.317820	0.426757
C117	C	0.577313	-0.406726	0.368073
C118	C	0.547324	-0.369958	0.452623
H119	H	0.566507	-0.448887	0.388938
H120	H	0.621042	-0.401036	0.381269
H121	H	0.566565	-0.397470	0.271346
H122	H	0.558029	-0.379191	0.549381
H123	H	0.503603	-0.375655	0.439323
O124	O	0.821350	-0.446582	0.427075
C125	C	0.850999	-0.362463	0.359119
C126	C	0.814226	-0.392523	0.443488
H127	H	0.845259	-0.318751	0.372377
H128	H	0.841843	-0.373205	0.262301
H129	H	0.893151	-0.373186	0.380278
H130	H	0.772061	-0.381816	0.422437
H131	H	0.823427	-0.381778	0.540281
O132	O	0.689785	-1.056719	0.729599
C133	C	0.682735	-1.118284	0.891706
C134	C	0.719506	-1.088231	0.807317
H135	H	0.706750	-1.143760	0.954579
H136	H	0.655424	-1.143928	0.836627
H137	H	0.658805	-1.089378	0.946442
H138	H	0.743470	-1.117098	0.752563
H139	H	0.746783	-1.062579	0.862465
O140	O	0.656168	-0.805400	0.806318
C141	C	0.589787	-0.799623	0.958403
C142	C	0.626581	-0.769624	0.873965
H143	H	0.565848	-0.770711	1.013099
H144	H	0.613761	-0.825127	1.021301
H145	H	0.562486	-0.825245	0.903247
H146	H	0.653889	-0.743973	0.929024
H147	H	0.602574	-0.744152	0.811063
O148	O	0.854980	-0.697778	0.350597
C149	C	0.925582	-0.636106	0.334595
C150	C	0.888777	-0.666159	0.418906
H151	H	0.952923	-0.610543	0.389789
H152	H	0.901617	-0.610549	0.271791
H153	H	0.949477	-0.665012	0.279778
H154	H	0.864874	-0.637291	0.473800
H155	H	0.912772	-0.691724	0.481630
H156	H	0.694752	-0.450966	0.717337
O157	O	0.560787	-0.186086	0.729996
C158	C	0.577582	-0.160834	0.934257
C159	C	0.547532	-0.197570	0.849614
H160	H	0.566885	-0.170113	1.030986
H161	H	0.566854	-0.118656	0.913466
H162	H	0.621289	-0.166562	0.920973
H163	H	0.503818	-0.191889	0.862850
H164	H	0.558303	-0.239735	0.870425
H165	H	0.816192	-0.550007	0.439119
H166	H	-0.044976	-0.312564	0.438806
O167	O	0.656198	-0.697765	0.806132
C168	C	0.626487	-0.613652	0.874039
C169	C	0.663282	-0.643704	0.789684
H170	H	0.632193	-0.569938	0.860752
H171	H	0.635653	-0.624307	0.970862
H172	H	0.584342	-0.624467	0.852891
H173	H	0.705438	-0.632904	0.810724
H174	H	0.654070	-0.633046	0.692886
H175	H	0.694791	-0.550032	0.717381
O176	O	-0.049205	-0.186199	0.729966
C177	C	-0.110788	-0.179252	0.892099
C178	C	-0.080769	-0.215968	0.807484
H179	H	-0.136307	-0.203306	0.954810
H180	H	-0.136386	-0.151894	0.837186
H181	H	-0.081860	-0.155369	0.946997
H182	H	-0.109660	-0.239885	0.752568
H183	H	-0.055163	-0.243292	0.862466
O184	O	0.201809	-0.351130	0.349779
C185	C	0.140152	-0.358096	0.187663
C186	C	0.170238	-0.321370	0.272261
H187	H	0.114629	-0.334049	0.124952
H188	H	0.114552	-0.385456	0.242588
H189	H	0.169036	-0.381976	0.132763
H190	H	0.141392	-0.297456	0.327179
H191	H	0.195846	-0.294044	0.217267
H192	H	0.816365	-1.052369	0.439248
H193	H	0.054191	-0.191363	0.717830
H194	H	0.457380	-0.312516	0.438737
O195	O	0.202142	-0.152686	0.806896
C196	C	0.207984	-0.086411	0.959392
C197	C	0.237947	-0.123153	0.874730
H198	H	0.236919	-0.062517	1.014240
H199	H	0.182439	-0.110424	1.022138
H200	H	0.182404	-0.059067	0.904402
H201	H	0.263554	-0.150505	0.929623
H202	H	0.263458	-0.099108	0.811981
H203	H	0.305394	-0.157939	0.794688
H204	H	0.054092	-0.312557	0.438784
