data_functionalizedCrystal
_audit_creation_method	'MofGen! by Chris Wilmer'
_symmetry_space_group_name_H-M	'P1'
_symmetry_Int_Tables_number	1
_symmetry_cell_setting	triclinic
loop_
_symmetry_equiv_pos_as_xyz
  x,y,z
_cell_length_a	10.489741
_cell_length_b	10.723024
_cell_length_c	9.798715
_cell_angle_alpha	89.997773
_cell_angle_beta	90.001014
_cell_angle_gamma	95.496478
loop_
_atom_site_label
_atom_site_type_symbol
_atom_site_fract_x
_atom_site_fract_y
_atom_site_fract_z
O1	O	1.693940	-0.176061	0.113403
O2	O	1.322734	-0.192587	0.113424
O3	O	1.516899	-0.002753	0.113408
O4	O	1.499774	-0.365895	0.113419
O5	O	1.516885	-0.002752	-0.113574
O6	O	1.322719	-0.192586	-0.113558
O7	O	1.693925	-0.176059	-0.113579
Zn8	Zn	1.508320	-0.184322	-0.149607
Zn9	Zn	1.508339	-0.184324	0.149452
O10	O	1.499760	-0.365894	-0.113563
C11	C	1.275196	-0.191338	-0.000065
C12	C	1.133569	-0.187604	-0.000057
C13	C	1.515646	0.043748	-0.000082
C14	C	1.511917	0.182305	-0.000077
N15	N	1.508316	-0.184320	-0.353707
C16	C	1.065506	-0.066818	-0.000073
C17	C	0.973349	-0.123877	0.111840
C18	C	0.973369	-0.123904	-0.111947
C19	C	1.043278	-0.244712	0.111949
C20	C	1.043307	-0.244723	-0.111939
C21	C	0.951178	-0.301869	0.000002
C22	C	1.741464	-0.177308	-0.000088
C23	C	1.883091	-0.181043	-0.000087
C24	C	1.501013	-0.412395	-0.000071
C25	C	1.504742	-0.550951	-0.000067
C26	C	1.620562	0.257221	-0.000081
C27	C	1.616711	0.400426	-0.000076
C28	C	1.582695	-0.256727	-0.421487
C29	C	1.582715	-0.256726	-0.578649
N30	N	1.508353	-0.184316	0.353551
H31	H	1.115259	0.032476	0.000064
H32	H	0.901691	-0.401268	0.000066
H33	H	0.942374	-0.072770	0.206453
O34	O	1.080149	-0.305751	0.224815
C35	C	1.141859	-0.411083	0.184888
H36	H	1.180841	-0.396420	0.076887
H37	H	1.070429	-0.498147	0.187580
C38	C	1.205220	-0.446349	0.416180
C39	C	1.253108	-0.428335	0.283535
H40	H	1.273841	-0.456996	0.477032
H41	H	1.163641	-0.375387	0.443081
H42	H	1.145696	-0.518901	0.418404
H43	H	1.312619	-0.355776	0.281309
H44	H	1.294700	-0.499285	0.256635
H45	H	1.646364	-0.318713	-0.363163
H46	H	1.444656	-0.122326	-0.412030
O47	O	1.080526	-0.305660	-0.224706
C48	C	1.214515	-0.309288	-0.222453
H49	H	1.250517	-0.298444	-0.112924
H50	H	1.261751	-0.229611	-0.287427
C51	C	1.204216	-0.448851	-0.414701
C52	C	1.248434	-0.435542	-0.280174
H53	H	1.225141	-0.526728	-0.450311
H54	H	1.113946	-0.446403	-0.416223
H55	H	1.243584	-0.382446	-0.468829
H56	H	1.209054	-0.501938	-0.226045
H57	H	1.338699	-0.438004	-0.278644
H58	H	1.716428	0.215340	-0.000095
O59	O	0.936613	-0.062748	-0.224784
C60	C	0.995353	0.061149	-0.224335
H61	H	1.085512	0.066324	-0.158818
H62	H	0.926073	0.126481	-0.180652
C63	C	0.920581	0.094888	-0.451823
C64	C	1.031322	0.101242	-0.371364
H65	H	0.942764	0.119623	-0.542517
H66	H	0.881002	0.011418	-0.452125
H67	H	0.862858	0.149332	-0.415405
H68	H	1.089036	0.046788	-0.407773
H69	H	1.070912	0.184705	-0.371072
H70	H	1.646387	-0.318722	-0.636939
O71	O	1.432184	-0.110498	-0.576996
C72	C	1.303058	-0.144136	-0.611866
H73	H	1.291862	-0.244629	-0.651231
H74	H	1.272634	-0.078466	-0.694711
C75	C	1.231979	-0.010412	-0.436521
C76	C	1.218226	-0.133843	-0.484859
H77	H	1.179648	-0.004058	-0.358180
H78	H	1.318973	0.012255	-0.413031
H79	H	1.206627	0.044299	-0.505571
H80	H	1.243593	-0.188549	-0.415816
H81	H	1.131233	-0.156519	-0.508335
O82	O	1.393686	0.372394	0.000121
C83	C	1.322201	0.395671	0.117701
H84	H	1.352542	0.494150	0.156896
H85	H	1.340366	0.324343	0.200014
C86	C	1.141326	0.263466	0.033865
C87	C	1.178584	0.384424	0.081998
H88	H	1.052736	0.256523	0.011845
H89	H	1.189488	0.247779	-0.045349
H90	H	1.156474	0.204040	0.102467
H91	H	1.163450	0.443846	0.013391
H92	H	1.130416	0.400120	0.161200
H93	H	1.709719	0.464802	-0.000085
H94	H	1.416051	0.224185	-0.000062
