data_functionalizedCrystal
_audit_creation_method	'MofGen! by Chris Wilmer'
_symmetry_space_group_name_H-M	'P1'
_symmetry_Int_Tables_number	1
_symmetry_cell_setting	triclinic
loop_
_symmetry_equiv_pos_as_xyz
  x,y,z
_cell_length_a	19.288835
_cell_length_b	17.766277
_cell_length_c	19.288874
_cell_angle_alpha	89.993108
_cell_angle_beta	96.867907
_cell_angle_gamma	90.017838
loop_
_atom_site_label
_atom_site_type_symbol
_atom_site_fract_x
_atom_site_fract_y
_atom_site_fract_z
O1	O	-0.921369	-0.062743	0.086549
O2	O	-0.719106	-0.062712	0.098259
O3	O	-0.826079	-0.062722	-0.008726
O4	O	-0.814397	-0.062732	0.193535
O5	O	-0.826060	0.062466	-0.008732
O6	O	-0.719088	0.062477	0.098254
O7	O	-0.921351	0.062446	0.086543
Cu8	Cu	-0.820217	0.073892	0.092398
Cu9	Cu	-0.820240	-0.074158	0.092405
O10	O	-0.814378	0.062456	0.193529
C11	C	-0.693220	-0.000114	0.097883
C12	C	-0.616115	-0.000102	0.096763
C13	C	-0.579922	-0.068343	0.096227
C14	C	-0.507475	-0.068350	0.095167
C15	C	-0.471226	-0.000113	0.094627
C16	C	-0.507427	0.068138	0.095167
C17	C	-0.579872	0.068143	0.096234
C18	C	-0.361888	0.052161	0.052249
C19	C	-0.289446	0.052152	0.051177
C20	C	-0.247781	-0.000127	0.091337
C21	C	-0.278570	-0.052410	0.132560
C22	C	-0.351015	-0.052405	0.133628
C23	C	-0.392671	-0.000111	0.093470
C24	C	-0.133032	-0.068381	0.089653
C25	C	-0.060583	-0.068386	0.088596
C26	C	-0.060538	0.068104	0.088589
C27	C	-0.132985	0.068107	0.089653
C28	C	-0.169228	-0.000138	0.090181
C29	C	-0.825692	-0.000128	-0.034605
C30	C	-0.824561	-0.000128	-0.111708
N31	N	-0.820207	0.178022	0.092393
C32	C	0.052764	-0.000148	0.086924
C33	C	-0.024339	-0.000147	0.088058
N34	N	-0.820256	-0.178288	0.092404
C35	C	-0.867590	0.217405	0.045043
C36	C	-0.867594	0.296206	0.045040
C37	C	-0.820221	0.335623	0.092399
C38	C	-0.772830	0.296231	0.139753
C39	C	-0.772823	0.217431	0.139750
C40	C	-0.810925	0.460459	0.155687
C41	C	-0.810937	0.539257	0.155691
C42	C	-0.820240	0.578669	0.092407
C43	C	-0.829546	0.539272	0.029117
C44	C	-0.829538	0.460472	0.029114
C45	C	-0.820224	0.421069	0.092407
C46	C	-0.867630	0.703497	0.045050
C47	C	-0.867629	0.782301	0.045045
C48	C	-0.772869	0.782324	0.139764
C49	C	-0.772866	0.703522	0.139762
C50	C	-0.820250	0.664114	0.092406
C51	C	-0.816425	0.068095	-0.667280
C52	C	-0.817480	0.068099	-0.594832
C53	C	-0.818022	-0.000141	-0.558598
C54	C	-0.817489	-0.068389	-0.594815
C55	C	-0.816427	-0.068391	-0.667261
C56	C	-0.860396	-0.052426	-0.449269
C57	C	-0.861463	-0.052421	-0.376826
C58	C	-0.821297	-0.000137	-0.335152
C59	C	-0.780073	0.052154	-0.365932
C60	C	-0.779010	0.052152	-0.438378
C61	C	-0.819174	-0.000146	-0.480043
C62	C	-0.822969	0.068111	-0.220387
C63	C	-0.824020	0.068112	-0.147938
C64	C	-0.824036	-0.068378	-0.147923
C65	C	-0.822978	-0.068377	-0.220370
C66	C	-0.822448	-0.000130	-0.256598
C67	C	-0.814765	-0.000140	0.219408
C68	C	-0.815896	-0.000145	0.296511
H69	H	-0.244648	-0.094979	0.165265
H70	H	-0.895033	-0.094996	-0.351771
F71	F	-0.824590	-0.141004	-0.109362
F72	F	-0.722438	0.661605	0.190162
F73	F	-0.722411	0.338181	0.190153
H74	H	-0.822552	-0.123945	-0.249853
F75	F	-0.801038	0.581179	0.223049
F76	F	-0.171607	-0.141012	0.090220
F77	F	-0.824572	0.140746	-0.109400
H78	H	-0.815995	-0.123962	-0.696741
H79	H	-0.745444	0.094730	-0.463436
H80	H	-0.395806	0.094736	0.019545
F81	F	-0.722390	0.175515	0.190149
F82	F	-0.839436	0.418546	-0.038242
H83	H	-0.803337	0.428376	0.207224
H84	H	-0.031115	-0.123958	0.088165
H85	H	-0.837121	0.571360	-0.022415
H86	H	-0.815992	0.123667	-0.696772
H87	H	-0.893100	-0.095009	-0.483194
H88	H	-0.817898	0.123669	-0.565343
F89	F	-0.618490	-0.140976	0.096792
F90	F	-0.918017	0.175465	-0.005360
H91	H	-0.734295	0.814416	0.178322
F92	F	-0.618393	0.140778	0.096804
H93	H	-0.747368	0.094730	-0.332003
H94	H	-0.031024	0.123665	0.088155
H95	H	-0.906211	0.671410	0.006487
F96	F	-0.822401	0.140744	-0.258946
F97	F	-0.468847	0.140761	0.094596
F98	F	-0.918027	0.338127	-0.005359
H99	H	-0.906211	0.814366	0.006484
H100	H	-0.478000	-0.123922	0.094732
F101	F	-0.383780	-0.108045	0.177501
H102	H	-0.817928	-0.123950	-0.565309
H103	H	-0.162455	0.123677	0.090084
H104	H	-0.264384	0.094721	0.017608
