data_functionalizedCrystal
_audit_creation_method	'MofGen! by Chris Wilmer'
_symmetry_space_group_name_H-M	'P1'
_symmetry_Int_Tables_number	1
_symmetry_cell_setting	triclinic
loop_
_symmetry_equiv_pos_as_xyz
  x,y,z
_cell_length_a	16.974800
_cell_length_b	16.992695
_cell_length_c	15.455427
_cell_angle_alpha	87.143784
_cell_angle_beta	96.313091
_cell_angle_gamma	87.021674
loop_
_atom_site_label
_atom_site_type_symbol
_atom_site_fract_x
_atom_site_fract_y
_atom_site_fract_z
O1	O	1.055549	0.099778	0.001992
O2	O	0.825421	0.113288	-0.014170
O3	O	0.939563	-0.007606	-0.006147
O4	O	0.941407	0.220672	-0.006031
O5	O	0.946052	-0.014494	0.138569
O6	O	0.831911	0.106399	0.130546
O7	O	1.062038	0.092890	0.146708
Cu8	Cu	0.947567	0.099016	0.151840
Cu9	Cu	0.939892	0.107162	-0.019302
O10	O	0.947897	0.213784	0.138685
C11	C	0.799084	0.109460	0.056111
C12	C	0.710937	0.108307	0.049920
C13	C	0.673068	0.104009	0.125898
C14	C	0.590246	0.102913	0.120084
C15	C	0.545295	0.106121	0.038291
C16	C	0.583169	0.110418	-0.037693
C17	C	0.665990	0.111508	-0.031878
C18	C	0.297217	0.103258	0.012441
C19	C	0.214391	0.102170	0.006632
C20	C	0.221474	0.094663	0.164410
C21	C	0.304295	0.095759	0.170217
C22	C	0.342163	0.100051	0.094234
N23	N	0.460637	0.105003	0.032346
N24	N	0.426820	0.101163	0.100179
C25	C	0.940434	-0.040252	0.066044
C26	C	0.933352	-0.127264	0.065547
C27	C	1.001683	-0.177810	0.070347
C28	C	0.995024	-0.259567	0.069871
C29	C	0.920033	-0.290776	0.064601
C30	C	0.851697	-0.240223	0.059798
C31	C	0.858357	-0.158468	0.060268
C32	C	0.892431	-0.534250	0.062651
C33	C	0.885776	-0.616011	0.062184
C34	C	1.029104	-0.635349	0.072255
C35	C	1.035757	-0.553592	0.072729
C36	C	0.967421	-0.503046	0.067922
N37	N	0.913224	-0.374344	0.064117
N38	N	0.974230	-0.419479	0.068399
C39	C	1.088376	0.096718	0.076426
C40	C	1.176522	0.097871	0.082610
C41	C	0.947025	0.246430	0.066492
C42	C	0.954107	0.333443	0.066984
N43	N	0.952971	0.093286	0.272213
C44	C	0.904468	0.144626	0.314220
C45	C	0.908577	0.140289	0.405315
C46	C	0.961185	0.084608	0.454401
C47	C	1.009693	0.033265	0.412389
C48	C	1.005588	0.037606	0.321296
C49	C	0.978889	0.065890	0.727219
C50	C	0.982989	0.061551	0.818318
C51	C	0.881874	0.168577	0.811238
C52	C	0.877770	0.172910	0.720143
C53	C	0.926280	0.121570	0.678139
N54	N	0.965385	0.080172	0.547515
N55	N	0.922084	0.126010	0.585027
N56	N	0.934487	0.112892	0.860325
H57	H	0.340890	0.093142	0.236822
C58	C	0.818164	-0.479468	0.057303
C59	C	0.769960	-0.489993	-0.020287
C60	C	0.701530	-0.439547	-0.025236
H61	H	0.832748	-0.426277	0.058282
H62	H	0.789850	-0.491314	0.105596
H63	H	0.798269	-0.478142	-0.068569
H64	H	0.755355	-0.543174	-0.021284
H65	H	0.673216	-0.451393	0.023057
H66	H	0.716122	-0.386359	-0.024254
H67	H	0.668812	-0.446686	-0.077877
H68	H	0.842380	0.210377	0.845446
H69	H	0.824707	-0.641419	0.057907
H70	H	1.025831	0.016205	0.858281
H71	H	0.696822	0.115010	-0.093747
C72	C	0.534509	0.113873	-0.126579
C73	C	0.585404	0.117852	-0.191873
C74	C	0.540608	0.121032	-0.273767
H75	H	0.498893	0.159310	-0.132471
H76	H	0.505221	0.067881	-0.131953
H77	H	0.614678	0.163840	-0.186502
H78	H	0.621019	0.072421	-0.186009
H79	H	0.511321	0.075040	-0.279141
H80	H	0.504995	0.166469	-0.279650
H81	H	0.575134	0.123725	-0.318079
H82	H	1.062749	-0.152407	0.074643
H83	H	0.802714	-0.117314	0.056359
C84	C	1.031300	0.010119	0.681357
C85	C	1.080162	0.053934	0.632420
C86	C	1.128306	0.002511	0.590064
H87	H	0.998866	-0.020543	0.643735
H88	H	1.063261	-0.023817	0.723451
H89	H	1.048204	0.087856	0.590332
H90	H	1.112613	0.084593	0.670022
H91	H	1.160267	-0.031425	0.632158
H92	H	1.095865	-0.028147	0.552447
H93	H	1.161469	0.032232	0.556862
C94	C	1.058149	-0.018275	0.275736
C95	C	1.041384	-0.096306	0.296647
C96	C	1.089785	-0.147808	0.254691
H97	H	1.112320	-0.010785	0.294375
H98	H	1.048171	-0.007776	0.214445
H99	H	1.051369	-0.106801	0.357926
H100	H	0.987223	-0.103822	0.278007
H101	H	1.079806	-0.137310	0.193399
H102	H	1.143953	-0.140311	0.273334
H103	H	1.078412	-0.200758	0.268867
H104	H	0.190633	0.091168	0.226271
H105	H	1.052532	-0.012070	0.452361
C106	C	0.770248	-0.274053	0.053894
C107	C	0.725305	-0.244801	-0.023494
C108	C	0.650273	-0.275955	-0.028967
H109	H	0.744056	-0.259105	0.102300
H110	H	0.776033	-0.329984	0.054254
H111	H	0.719517	-0.188883	-0.023847
H112	H	0.751473	-0.259748	-0.071914
H113	H	0.656058	-0.331885	-0.028607
H114	H	0.624088	-0.261004	0.019444
H115	H	0.619772	-0.256117	-0.081477
H116	H	0.328039	0.106750	-0.049430
C117	C	0.721841	0.100359	0.214729
C118	C	0.708499	0.030381	0.261226
C119	C	0.753420	0.026984	0.343057
H120	H	0.706608	0.144288	0.246074
H121	H	0.776602	0.101581	0.207350
H122	H	0.653750	0.029167	0.268609
H123	H	0.723735	-0.013560	0.229908
H124	H	0.808182	0.028205	0.335678
H125	H	0.738185	0.070916	0.374394
H126	H	0.744380	-0.020499	0.374613
C127	C	0.549107	0.098077	0.202552
C128	C	0.506448	0.029778	0.204168
C129	C	0.468554	0.025285	0.280135
H130	H	0.513728	0.143142	0.203428
H131	H	0.587724	0.096280	0.252117
H132	H	0.467835	0.031582	0.154617
H133	H	0.541809	-0.015299	0.203306
H134	H	0.507171	0.023488	0.329700
H135	H	0.433178	0.070353	0.281005
H136	H	0.439611	-0.021059	0.281246
C137	C	1.103258	-0.690257	0.077283
C138	C	1.100291	-0.734192	0.002842
C139	C	1.168596	-0.784773	0.007434
H140	H	1.105974	-0.725030	0.127719
H141	H	1.148891	-0.659986	0.080441
H142	H	1.054670	-0.764461	-0.000307
H143	H	1.097587	-0.699440	-0.047605
H144	H	1.214230	-0.754502	0.010593
H145	H	1.171306	-0.819541	0.057874
H146	H	1.166596	-0.814584	-0.043075
C147	C	0.165725	0.105626	-0.082258
C148	C	0.216615	0.109601	-0.147558
C149	C	0.171813	0.112782	-0.229448
H150	H	0.130112	0.151064	-0.088147
H151	H	0.136434	0.059635	-0.087628
H152	H	0.245892	0.155587	-0.142190
H153	H	0.252228	0.064167	-0.141697
H154	H	0.142522	0.066791	-0.234818
H155	H	0.136202	0.158220	-0.235328
H156	H	0.206335	0.115472	-0.273764
C157	C	1.069309	-0.314318	0.075140
C158	C	1.136409	-0.269489	0.079886
C159	C	1.204858	-0.319899	0.084753
H160	H	1.067547	-0.344226	0.024723
H161	H	1.071994	-0.349008	0.125654
H162	H	1.133725	-0.234813	0.029376
H163	H	1.138197	-0.239583	0.130301
H164	H	1.207543	-0.354589	0.135268
H165	H	1.203088	-0.349805	0.034334
H166	H	1.250394	-0.289491	0.087982
H167	H	0.861626	0.189965	0.274258
H168	H	0.869084	0.182095	0.439515
C169	C	1.117192	-0.519751	0.078273
C170	C	1.155464	-0.541906	0.006734
C171	C	1.230480	-0.510740	0.011811
H172	H	1.147899	-0.539508	0.130679
H173	H	1.111408	-0.463816	0.077824
H174	H	1.161252	-0.597830	0.007191
H175	H	1.124781	-0.522149	-0.045682
H176	H	1.224696	-0.454805	0.011362
H177	H	1.261180	-0.530499	0.064219
H178	H	1.256454	-0.525761	-0.036731
C179	C	0.820630	0.233448	0.667006
C180	C	0.779046	0.277496	0.723293
C181	C	0.726407	0.333274	0.674375
H182	H	0.784158	0.207160	0.629029
H183	H	0.849609	0.267704	0.633628
H184	H	0.750068	0.243244	0.756657
H185	H	0.815497	0.303801	0.761271
H186	H	0.755386	0.367531	0.640997
H187	H	0.689940	0.306980	0.636400
H188	H	0.698191	0.363173	0.712559
