data_functionalizedCrystal
_audit_creation_method	'MofGen! by Chris Wilmer'
_symmetry_space_group_name_H-M	'P1'
_symmetry_Int_Tables_number	1
_symmetry_cell_setting	triclinic
loop_
_symmetry_equiv_pos_as_xyz
  x,y,z
_cell_length_a	23.532407
_cell_length_b	27.731996
_cell_length_c	22.010155
_cell_angle_alpha	89.998256
_cell_angle_beta	89.996931
_cell_angle_gamma	82.735033
loop_
_atom_site_label
_atom_site_type_symbol
_atom_site_fract_x
_atom_site_fract_y
_atom_site_fract_z
O1	O	0.755125	0.058673	-0.050457
O2	O	1.088459	0.392007	0.282876
O3	O	1.421792	0.725340	0.616210
O4	O	0.589242	0.067164	-0.050476
O5	O	0.922575	0.400497	0.282857
O6	O	1.255909	0.733831	0.616191
O7	O	0.677351	-0.007472	-0.050453
O8	O	1.010685	0.325861	0.282880
O9	O	1.344018	0.659195	0.616214
O10	O	0.667016	0.133309	-0.050480
O11	O	1.000350	0.466643	0.282853
O12	O	1.333683	0.799976	0.616186
O13	O	0.677335	-0.007461	0.050597
O14	O	1.010669	0.325873	0.383931
O15	O	1.344002	0.659206	0.717264
O16	O	0.589226	0.067175	0.050574
O17	O	0.922559	0.400508	0.383908
O18	O	1.255893	0.733842	0.717241
O19	O	0.755109	0.058685	0.050593
O20	O	1.088443	0.392018	0.383927
O21	O	1.421776	0.725351	0.717260
Cu22	Cu	0.672166	0.062931	0.059810
Cu23	Cu	1.005500	0.396264	0.393144
Cu24	Cu	1.338833	0.729598	0.726477
Cu25	Cu	0.672185	0.062918	-0.059693
Cu26	Cu	1.005519	0.396251	0.273640
Cu27	Cu	1.338852	0.729584	0.606973
O28	O	0.667000	0.133320	0.050570
O29	O	1.000334	0.466654	0.383903
O30	O	1.333667	0.799987	0.717237
C31	C	0.568019	0.066953	0.000047
C32	C	0.901352	0.400287	0.333380
C33	C	1.234685	0.733620	0.666714
C34	C	0.504803	0.066303	0.000040
C35	C	0.838136	0.399637	0.333374
C36	C	1.171470	0.732970	0.666707
C37	C	0.105606	0.106394	0.000060
C38	C	0.438939	0.439727	0.333393
C39	C	0.772272	0.773061	0.666727
C40	C	0.046207	0.105790	0.000064
C41	C	0.379540	0.439123	0.333397
C42	C	0.712873	0.772457	0.666730
O43	O	0.009375	0.142955	0.000079
O44	O	0.342708	0.476288	0.333412
O45	O	0.676041	0.809621	0.666745
N46	N	0.023685	0.061419	0.000071
N47	N	0.357018	0.394752	0.333405
N48	N	0.690352	0.728086	0.666738
C49	C	0.060566	0.017649	0.000081
C50	C	0.393899	0.350982	0.333415
C51	C	0.727232	0.684316	0.666748
O52	O	0.035955	-0.020147	0.000089
O53	O	0.369289	0.313186	0.333422
O54	O	0.702622	0.646519	0.666756
C55	C	0.119963	0.018253	0.000082
C56	C	0.453297	0.351587	0.333415
C57	C	0.786630	0.684920	0.666749
C58	C	0.142482	0.062627	0.000068
C59	C	0.475815	0.395961	0.333401
C60	C	0.809148	0.729294	0.666735
C61	C	0.128124	0.150764	0.000047
C62	C	0.461458	0.484098	0.333380
C63	C	0.794791	0.817431	0.666713
C64	C	0.187519	0.151368	0.000042
C65	C	0.520852	0.484701	0.333375
C66	C	0.854186	0.818035	0.666709
C67	C	0.224395	0.107601	0.000050
C68	C	0.557728	0.440935	0.333383
C69	C	0.891062	0.774268	0.666717
C70	C	0.201876	0.063231	0.000063
C71	C	0.535210	0.396564	0.333396
C72	C	0.868543	0.729898	0.666730
C73	C	0.156843	-0.025516	0.000096
C74	C	0.490176	0.307817	0.333430
C75	C	0.823510	0.641151	0.666763
C76	C	0.216244	-0.024908	0.000097
C77	C	0.549577	0.308426	0.333431
C78	C	0.882911	0.641759	0.666764
C79	C	0.238762	0.019466	0.000083
C80	C	0.572096	0.352799	0.333417
C81	C	0.905429	0.686133	0.666750
C82	C	0.298147	0.020068	0.000066
C83	C	0.631480	0.353401	0.333400
C84	C	0.964814	0.686735	0.666733
N85	N	0.320669	0.064439	0.000059
N86	N	0.654002	0.397772	0.333392
N87	N	0.987335	0.731106	0.666725
C88	C	0.283793	0.108206	0.000051
C89	C	0.617126	0.441539	0.333384
C90	C	0.950459	0.774872	0.666717
C91	C	-0.064174	0.016383	0.000081
C92	C	0.269160	0.349717	0.333415
C93	C	0.602493	0.683050	0.666748
C94	C	-0.123570	0.015778	0.000077
C95	C	0.209763	0.349112	0.333410
C96	C	0.543096	0.682445	0.666743
C97	C	-0.137925	0.103920	0.000060
C98	C	0.195408	0.437253	0.333393
C99	C	0.528741	0.770586	0.666727
C100	C	-0.078528	0.104524	0.000061
C101	C	0.254806	0.437857	0.333394
C102	C	0.588139	0.771191	0.666727
C103	C	-0.041652	0.060754	0.000074
C104	C	0.291681	0.394088	0.333407
C105	C	0.625015	0.727421	0.666740
C106	C	0.408526	0.109470	0.000040
C107	C	0.741860	0.442803	0.333373
C108	C	1.075193	0.776137	0.666706
C109	C	0.467927	0.110070	0.000032
C110	C	0.801260	0.443403	0.333365
C111	C	1.134594	0.776737	0.666699
C112	C	0.482277	0.021929	0.000052
C113	C	0.815610	0.355262	0.333385
C114	C	1.148944	0.688596	0.666718
C115	C	0.422881	0.021329	0.000056
C116	C	0.756215	0.354662	0.333389
C117	C	1.089548	0.687996	0.666723
C118	C	0.386007	0.065103	0.000052
C119	C	0.719340	0.398437	0.333385
C120	C	1.052674	0.731770	0.666719
O121	O	0.335014	-0.017077	0.000054
O122	O	0.668347	0.316256	0.333387
O123	O	1.001680	0.649590	0.666721
O124	O	0.308412	0.145996	0.000051
O125	O	0.641745	0.479329	0.333384
O126	O	0.975078	0.812663	0.666718
C127	C	0.677131	-0.025474	0.000074
C128	C	1.010464	0.307859	0.333408
C129	C	1.343798	0.641193	0.666741
C130	C	0.676491	-0.079131	0.000080
C131	C	1.009825	0.254202	0.333414
C132	C	1.343158	0.587535	0.666747
C133	C	0.672477	-0.411860	-0.055032
C134	C	1.005810	-0.078527	0.278301
C135	C	1.339144	0.254807	0.611634
C136	C	0.670049	-0.613522	-0.055043
C137	C	1.003382	-0.280189	0.278290
C138	C	1.336715	0.053145	0.611623
O139	O	0.669718	-0.639598	-0.101889
O140	O	1.003051	-0.306265	0.231444
O141	O	1.336384	0.027068	0.564778
N142	N	0.669738	-0.638733	0.000039
N143	N	1.003072	-0.305400	0.333372
N144	N	1.336405	0.027933	0.666705
C145	C	0.670031	-0.613526	0.055127
C146	C	1.003365	-0.280193	0.388461
C147	C	1.336698	0.053141	0.721794
O148	O	0.669706	-0.639596	0.101978
O149	O	1.003039	-0.306263	0.435311
O150	O	1.336373	0.027070	0.768644
C151	C	0.672456	-0.411864	0.055138
C152	C	1.005789	-0.078531	0.388471
C153	C	1.339122	0.254802	0.721804
C154	C	0.672772	-0.386656	0.000052
C155	C	1.006105	-0.053323	0.333386
C156	C	1.339438	0.280011	0.666719
C157	C	0.672792	-0.386652	-0.110113
C158	C	1.006126	-0.053318	0.223220
C159	C	1.339459	0.280015	0.556553
C160	C	0.673403	-0.336239	-0.110110
C161	C	1.006736	-0.002906	0.223223
C162	C	1.340069	0.330427	0.556557
C163	C	0.673697	-0.311036	-0.055026
C164	C	1.007031	0.022298	0.278308
C165	C	1.340364	0.355631	0.611641
C166	C	0.673382	-0.336244	0.000055
C167	C	1.006715	-0.002911	0.333389
C168	C	1.340049	0.330423	0.666722
C169	C	0.672745	-0.386657	0.110226
C170	C	1.006078	-0.053324	0.443559
C171	C	1.339411	0.280009	0.776892
C172	C	0.673349	-0.336239	0.110223
C173	C	1.006683	-0.002905	0.443557
C174	C	1.340016	0.330428	0.776890
C175	C	0.673665	-0.311030	0.055138
C176	C	1.006999	0.022303	0.388471
C177	C	1.340332	0.355636	0.721805
C178	C	0.674287	-0.260628	0.055143
C179	C	1.007620	0.072705	0.388477
C180	C	1.340953	0.406039	0.721810
N181	N	0.674597	-0.235417	0.000061
N182	N	1.007930	0.097917	0.333395
N183	N	1.341264	0.431250	0.666728
C184	C	0.674302	-0.260620	-0.055023
C185	C	1.007636	0.072713	0.278310
C186	C	1.340969	0.406046	0.611643
C187	C	0.668760	-0.719401	0.055118
C188	C	1.002093	-0.386068	0.388451
C189	C	1.335427	-0.052735	0.721785
C190	C	0.668155	-0.769816	0.055116
C191	C	1.001488	-0.436483	0.388449
C192	C	1.334822	-0.103150	0.721782
C193	C	0.668171	-0.769809	-0.055055
C194	C	1.001504	-0.436476	0.278278
C195	C	1.334838	-0.103142	0.611612
C196	C	0.668780	-0.719393	-0.055052
C197	C	1.002114	-0.386060	0.278281
C198	C	1.335447	-0.052726	0.611615
C199	C	0.669070	-0.694190	0.000036
C200	C	1.002403	-0.360856	0.333370
C201	C	1.335737	-0.027523	0.666703
C202	C	0.675584	-0.154751	-0.055012
C203	C	1.008918	0.178582	0.278321
C204	C	1.342251	0.511915	0.611655
C205	C	0.676197	-0.104335	-0.055004
C206	C	1.009530	0.228998	0.278329
C207	C	1.342863	0.562332	0.611663
C208	C	0.676177	-0.104347	0.055167
C209	C	1.009511	0.228987	0.388500
C210	C	1.342844	0.562320	0.721833
C211	C	0.675568	-0.154759	0.055159
C212	C	1.008901	0.178574	0.388492
C213	C	1.342235	0.511908	0.721825
C214	C	0.675269	-0.179960	0.000064
C215	C	1.008603	0.153373	0.333398
C216	C	1.341936	0.486707	0.666731
O217	O	0.674612	-0.234520	0.101965
O218	O	1.007945	0.098813	0.435298
O219	O	1.341278	0.432147	0.768631
O220	O	0.674615	-0.234540	-0.101867
O221	O	1.007949	0.098794	0.231467
O222	O	1.341282	0.432127	0.564800
C223	C	0.671867	-0.462272	-0.055036
C224	C	1.005200	-0.128939	0.278298
C225	C	1.338533	0.204395	0.611631
C226	C	0.671551	-0.487480	0.000046
C227	C	1.004885	-0.154147	0.333379
C228	C	1.338218	0.179186	0.666712
C229	C	0.671846	-0.462277	0.055130
C230	C	1.005179	-0.128943	0.388463
C231	C	1.338513	0.204390	0.721797
C232	C	0.670946	-0.537896	0.000043
C233	C	1.004280	-0.204562	0.333377
C234	C	1.337613	0.128771	0.666710
C235	C	0.670652	-0.563099	-0.055041
C236	C	1.003985	-0.229766	0.278292
C237	C	1.337318	0.103567	0.611625
C238	C	0.670962	-0.537888	-0.110123
C239	C	1.004295	-0.204555	0.223210
C240	C	1.337629	0.128779	0.556543
C241	C	0.671572	-0.487476	-0.110120
C242	C	1.004905	-0.154142	0.223213
C243	C	1.338239	0.179191	0.556547
C244	C	0.671536	-0.487488	0.110212
C245	C	1.004869	-0.154155	0.443545
C246	C	1.338202	0.179179	0.776879
C247	C	0.670926	-0.537900	0.110204
C248	C	1.004260	-0.204567	0.443538
C249	C	1.337593	0.128766	0.776871
C250	C	0.670632	-0.563104	0.055120
C251	C	1.003965	-0.229771	0.388453
C252	C	1.337298	0.103563	0.721786
C253	C	0.776333	0.058895	0.000069
C254	C	1.109666	0.392229	0.333402
C255	C	1.443000	0.725562	0.666736
C256	C	0.839549	0.059545	0.000072
C257	C	1.172882	0.392879	0.333405
C258	C	1.506215	0.726212	0.666738
C259	C	0.667221	0.151323	0.000041
C260	C	1.000554	0.484656	0.333375
C261	C	1.333887	0.817989	0.666708
C262	C	0.667860	0.204980	0.000031
C263	C	1.001193	0.538313	0.333365
C264	C	1.334527	0.871646	0.666698
N265	N	0.672157	0.062940	0.143863
N266	N	1.005491	0.396273	0.477196
N267	N	1.338824	0.729607	0.810530
N268	N	0.672199	0.062905	-0.143746
N269	N	1.005532	0.396238	0.189588
N270	N	1.338866	0.729571	0.522921
C271	C	0.711202	0.029874	0.563653
C272	C	1.044536	0.363207	0.896986
C273	C	1.377869	0.696540	1.230319
C274	C	0.711205	0.029870	0.627260
C275	C	1.044538	0.363204	0.960594
C276	C	1.377872	0.696537	1.293927
O277	O	0.744379	0.001762	0.660160
O278	O	1.077713	0.335096	0.993494
O279	O	1.411046	0.668429	1.326827
N280	N	0.672185	0.062907	0.659070
N281	N	1.005518	0.396241	0.992403
N282	N	1.338852	0.729574	1.325737
C283	C	0.633156	0.095947	0.627269
C284	C	0.966489	0.429280	0.960602
C285	C	1.299823	0.762614	1.293936
O286	O	0.599967	0.124047	0.660166
O287	O	0.933300	0.457381	0.993500
O288	O	1.266633	0.790714	1.326833
C289	C	0.633151	0.095948	0.563663
C290	C	0.966485	0.429281	0.896996
C291	C	1.299818	0.762614	1.230329
C292	C	0.672177	0.062911	0.531856
C293	C	1.005511	0.396245	0.865189
C294	C	1.338844	0.729578	1.198523
C295	C	0.750225	-0.003160	0.531846
C296	C	1.083558	0.330173	0.865179
C297	C	1.416892	0.663506	1.198513
C298	C	0.750223	-0.003156	0.468243
C299	C	1.083556	0.330177	0.801576
C300	C	1.416889	0.663510	1.134909
C301	C	0.711198	0.029882	0.436446
C302	C	1.044531	0.363215	0.769779
C303	C	1.377865	0.696548	1.103113
C304	C	0.672175	0.062916	0.468253
C305	C	1.005509	0.396249	0.801586
C306	C	1.338842	0.729582	1.134919
C307	C	0.594120	0.128984	0.531863
C308	C	0.927453	0.462318	0.865196
C309	C	1.260787	0.795651	1.198529
C310	C	0.594118	0.128982	0.468252
C311	C	0.927452	0.462315	0.801585
C312	C	1.260785	0.795649	1.134919
C313	C	0.633144	0.095946	0.436445
C314	C	0.966478	0.429279	0.769779
C315	C	1.299811	0.762613	1.103112
C316	C	0.633148	0.095958	0.372853
C317	C	0.966482	0.429291	0.706186
C318	C	1.299815	0.762624	1.039520
N319	N	0.672168	0.062920	0.341043
N320	N	1.005502	0.396254	0.674376
N321	N	1.338835	0.729587	1.007710
C322	C	0.711193	0.029882	0.372840
C323	C	1.044526	0.363216	0.706173
C324	C	1.377860	0.696549	1.039506
C325	C	0.633169	0.095943	0.760847
C326	C	0.966502	0.429276	1.094180
C327	C	1.299835	0.762609	1.427513
C328	C	0.633176	0.095945	0.824452
C329	C	0.966509	0.429278	1.157785
C330	C	1.299843	0.762611	1.491119
C331	C	0.711224	0.029867	0.824439
C332	C	1.044557	0.363200	1.157772
C333	C	1.377891	0.696534	1.491106
C334	C	0.711219	0.029868	0.760832
C335	C	1.044553	0.363201	1.094166
C336	C	1.377886	0.696534	1.427499
C337	C	0.672189	0.062905	0.729037
C338	C	1.005522	0.396239	1.062370
C339	C	1.338855	0.729572	1.395704
C340	C	0.711186	0.029894	0.239268
C341	C	1.044519	0.363227	0.572602
C342	C	1.377853	0.696560	0.905935
C343	C	0.711182	0.029902	0.175660
C344	C	1.044515	0.363235	0.508993
C345	C	1.377849	0.696569	0.842326
C346	C	0.633132	0.095978	0.175678
C347	C	0.966465	0.429311	0.509012
C348	C	1.299799	0.762644	0.842345
C349	C	0.633138	0.095971	0.239282
C350	C	0.966471	0.429304	0.572615
C351	C	1.299804	0.762638	0.905948
C352	C	0.672167	0.062925	0.271075
C353	C	1.005500	0.396258	0.604408
C354	C	1.338834	0.729592	0.937742
O355	O	0.599989	0.124050	0.339912
O356	O	0.933323	0.457383	0.673246
O357	O	1.266656	0.790716	1.006579
O358	O	0.744372	0.001783	0.339935
O359	O	1.077705	0.335116	0.673268
O360	O	1.411039	0.668449	1.006601
H361	H	-0.141899	-0.020355	0.000078
H362	H	0.191435	0.312978	0.333412
H363	H	0.524768	0.646311	0.666745
H364	H	0.668999	-0.698885	0.099980
H365	H	1.002332	-0.365552	0.433314
H366	H	1.335665	-0.032219	0.766647
H367	H	-0.060198	0.140657	0.000053
H368	H	0.273135	0.473990	0.333386
H369	H	0.606469	0.807324	0.666719
H370	H	0.672488	-0.407173	0.155082
H371	H	1.005821	-0.073840	0.488416
H372	H	1.339155	0.259493	0.821749
H373	H	0.601403	0.122851	0.850345
H374	H	0.934736	0.456184	1.183678
H375	H	1.268070	0.789517	1.517011
C376	C	0.551183	0.165324	0.566836
C377	C	0.884516	0.498657	0.900169
C378	C	1.217849	0.831991	1.233502
N379	N	0.518838	0.192695	0.593176
N380	N	0.852171	0.526029	0.926510
N381	N	1.185505	0.859362	1.259843
H382	H	-0.167961	0.139557	0.000056
H383	H	0.165372	0.472890	0.333390
H384	H	0.498706	0.806223	0.666723
H385	H	0.378510	0.145116	0.000038
H386	H	0.711843	0.478449	0.333372
H387	H	1.045176	0.811782	0.666705
C388	C	0.676496	-0.076612	0.115756
C389	C	1.009829	0.256721	0.449090
C390	C	1.343163	0.590054	0.782423
N391	N	0.676730	-0.055720	0.161393
N392	N	1.010063	0.277613	0.494727
N393	N	1.343397	0.610946	0.828060
C394	C	-0.023615	-0.031770	0.000086
C395	C	0.309718	0.301563	0.333419
C396	C	0.643052	0.634896	0.666753
N397	N	0.006931	-0.068039	0.000089
N398	N	0.340264	0.265294	0.333422
N399	N	0.673598	0.598627	0.666756
H400	H	0.138520	-0.061650	0.000108
H401	H	0.471853	0.271683	0.333441
H402	H	0.805186	0.605017	0.666775
C403	C	0.673670	-0.308518	0.170827
C404	C	1.007004	0.024815	0.504160
C405	C	1.340337	0.358149	0.837493
N406	N	0.673915	-0.287640	0.216473
N407	N	1.007248	0.045693	0.549806
N408	N	1.340581	0.379026	0.883139
C409	C	0.551186	0.165332	0.433281
C410	C	0.884519	0.498665	0.766614
C411	C	1.217853	0.831999	1.099947
N412	N	0.518853	0.192713	0.406942
N413	N	0.852186	0.526047	0.740275
N414	N	1.185519	0.859380	1.073609
H415	H	0.601365	0.122877	0.265179
H416	H	0.934698	0.456210	0.598512
H417	H	1.268031	0.789544	0.931846
C418	C	0.673744	-0.308516	-0.170709
C419	C	1.007077	0.024817	0.162624
C420	C	1.340410	0.358150	0.495958
N421	N	0.673998	-0.287638	-0.216356
N422	N	1.007332	0.045695	0.116978
N423	N	1.340665	0.379029	0.450311
C424	C	0.675226	-0.182489	0.115755
C425	C	1.008559	0.150844	0.449089
C426	C	1.341892	0.484177	0.782422
N427	N	0.674962	-0.203372	0.161398
N428	N	1.008296	0.129961	0.494731
N429	N	1.341629	0.463295	0.828065
H430	H	0.205847	0.187502	0.000030
H431	H	0.539181	0.520835	0.333364
H432	H	0.872514	0.854168	0.666697
C433	C	0.675266	-0.182466	-0.115619
C434	C	1.008599	0.150867	0.217715
C435	C	1.341932	0.484201	0.551048
N436	N	0.675032	-0.203341	-0.161267
N437	N	1.008365	0.129992	0.172066
N438	N	1.341699	0.463325	0.505399
C439	C	0.256804	-0.073059	0.000109
C440	C	0.590138	0.260274	0.333442
C441	C	0.923471	0.593607	0.666776
N442	N	0.287353	-0.109327	0.000116
N443	N	0.620686	0.224006	0.333449
N444	N	0.954020	0.557340	0.666782
H445	H	0.782000	-0.030058	0.442350
H446	H	1.115333	0.303275	0.775683
H447	H	1.448666	0.636608	1.109016
H448	H	0.404547	-0.014804	0.000058
H449	H	0.737880	0.318529	0.333392
H450	H	1.071213	0.651863	0.666725
H451	H	0.512312	-0.013705	0.000056
H452	H	0.845645	0.319629	0.333389
H453	H	1.178979	0.652962	0.666723
C454	C	0.676543	-0.076609	-0.115605
C455	C	1.009876	0.256724	0.217728
C456	C	1.343209	0.590058	0.551062
N457	N	0.676801	-0.055727	-0.161248
N458	N	1.010135	0.277606	0.172085
N459	N	1.343468	0.610940	0.505418
H460	H	0.782004	-0.030066	0.557729
H461	H	1.115337	0.303267	0.891063
H462	H	1.448670	0.636601	1.224396
H463	H	0.672550	-0.407167	-0.154972
H464	H	1.005884	-0.073834	0.178361
H465	H	1.339217	0.259500	0.511695
H466	H	0.098105	0.186406	0.000042
H467	H	0.431438	0.519740	0.333376
H468	H	0.764772	0.853073	0.666709
H469	H	0.669037	-0.698872	-0.099908
H470	H	1.002370	-0.365539	0.233426
H471	H	1.335703	-0.032205	0.566759
C472	C	0.754147	-0.006477	0.725851
C473	C	1.087480	0.326856	1.059185
C474	C	1.420814	0.660189	1.392518
N475	N	0.786481	-0.033856	0.699506
N476	N	1.119814	0.299478	1.032840
N477	N	1.453147	0.632811	1.366173
C478	C	0.667842	-0.797542	-0.115649
C479	C	1.001176	-0.464208	0.217685
C480	C	1.334509	-0.130875	0.551018
N481	N	0.667589	-0.818432	-0.161285
N482	N	1.000923	-0.485099	0.172048
N483	N	1.334256	-0.151765	0.505382
H484	H	0.601360	0.122878	0.149780
H485	H	0.934693	0.456211	0.483113
H486	H	1.268027	0.789545	0.816446
C487	C	0.671916	-0.459753	-0.170719
C488	C	1.005249	-0.126420	0.162614
C489	C	1.338582	0.206914	0.495948
N490	N	0.672173	-0.438875	-0.216366
N491	N	1.005506	-0.105542	0.116968
N492	N	1.338840	0.227792	0.450301
H493	H	0.667906	-0.790338	0.099972
H494	H	1.001239	-0.457004	0.433305
H495	H	1.334573	-0.123671	0.766639
H496	H	0.670725	-0.558418	-0.154975
H497	H	1.004058	-0.225085	0.178358
H498	H	1.337391	0.108249	0.511692
C499	C	0.670577	-0.565623	0.170807
C500	C	1.003911	-0.232290	0.504140
C501	C	1.337244	0.101043	0.837474
N502	N	0.670308	-0.586502	0.216452
N503	N	1.003642	-0.253169	0.549785
N504	N	1.336975	0.080165	0.883119
C505	C	0.754122	-0.006458	0.274232
C506	C	1.087455	0.326876	0.607565
C507	C	1.420788	0.660209	0.940899
N508	N	0.786463	-0.033835	0.300566
N509	N	1.119796	0.299498	0.633900
N510	N	1.453130	0.632832	0.967233
H511	H	0.671777	-0.466972	0.155069
H512	H	1.005110	-0.133639	0.488403
H513	H	1.338443	0.199694	0.821736
C514	C	0.754149	-0.006479	0.859427
C515	C	1.087482	0.326854	1.192761
C516	C	1.420815	0.660188	1.526094
N517	N	0.786477	-0.033853	0.885783
N518	N	1.119810	0.299480	1.219116
N519	N	1.453143	0.632813	1.552449
C520	C	0.492693	0.158886	0.000021
C521	C	0.826026	0.492220	0.333355
C522	C	1.159359	0.825553	0.666688
N523	N	0.511344	0.195654	0.000016
N524	N	0.844677	0.528988	0.333350
N525	N	1.178011	0.862321	0.666683
C526	C	0.754114	-0.006444	0.140676
C527	C	1.087447	0.326890	0.474009
C528	C	1.420780	0.660223	0.807343
N529	N	0.786448	-0.033820	0.114329
N530	N	1.119781	0.299514	0.447662
N531	N	1.453114	0.632847	0.780995
H532	H	0.601387	0.122850	0.734962
H533	H	0.934720	0.456183	1.068295
H534	H	1.268053	0.789516	1.401629
