data_functionalizedCrystal
_audit_creation_method	'MofGen! by Chris Wilmer'
_symmetry_space_group_name_H-M	'P1'
_symmetry_Int_Tables_number	1
_symmetry_cell_setting	triclinic
loop_
_symmetry_equiv_pos_as_xyz
  x,y,z
_cell_length_a	14.560432
_cell_length_b	20.875790
_cell_length_c	20.875641
_cell_angle_alpha	64.262324
_cell_angle_beta	90.002442
_cell_angle_gamma	61.734871
loop_
_atom_site_label
_atom_site_type_symbol
_atom_site_fract_x
_atom_site_fract_y
_atom_site_fract_z
Zr1	Zr	0.936459	0.664179	-0.047951
O2	O	0.803621	0.784938	-0.140708
O3	O	0.970859	0.538625	-0.023946
O4	O	0.986108	0.657261	-0.147093
O5	O	0.783535	0.673431	0.084619
O6	O	1.137249	0.657259	-0.147090
O7	O	0.788372	0.666301	-0.017561
O8	O	1.109970	0.445041	0.073197
O9	O	0.810813	0.885650	-0.135669
O10	O	1.105963	0.592042	-0.008354
O11	O	0.989558	0.597364	0.067900
O12	O	1.007512	0.737043	-0.077090
O13	O	0.891108	0.742365	-0.000837
Zr14	Zr	1.169796	0.675548	0.115018
Zr15	Zr	1.177511	0.664177	-0.047947
Zr16	Zr	0.928744	0.675550	0.115014
Zr17	Zr	0.947929	0.824803	-0.039914
Zr18	Zr	1.158326	0.514924	0.106981
O19	O	1.135396	0.801102	0.091013
O20	O	1.146366	0.784934	-0.140702
O21	O	0.792652	0.801106	0.091007
O22	O	1.302634	0.554789	0.207775
O23	O	1.313603	0.538621	-0.023940
O24	O	0.959889	0.554793	0.207769
O25	O	1.322720	0.666296	-0.017552
O26	O	1.120147	0.682466	0.214160
O27	O	0.969007	0.682468	0.214157
O28	O	1.317883	0.673426	0.084628
O29	O	1.002417	0.885648	-0.135666
O30	O	1.103838	0.454079	0.202733
O31	O	1.295442	0.454077	0.202736
O32	O	1.301574	0.445039	0.073201
O33	O	0.804681	0.894688	-0.006134
O34	O	0.996285	0.894686	-0.006130
O35	O	1.098743	0.602684	0.144157
O36	O	1.215147	0.597362	0.067904
O37	O	1.116697	0.742363	-0.000833
O38	O	1.000292	0.747685	0.075421
C39	C	1.038780	0.468947	0.023481
C40	C	1.033911	0.400758	0.020069
C41	C	1.108241	0.317160	0.071979
C42	C	1.103617	0.253108	0.068769
C43	C	1.024667	0.272656	0.013646
C44	C	0.950330	0.356262	-0.038267
C45	C	0.954950	0.420312	-0.035053
C46	C	1.002627	0.086626	-0.001701
C47	C	0.998014	0.022567	-0.004912
C48	C	1.151301	-0.080583	0.102125
C49	C	1.155918	-0.016526	0.105331
C50	C	1.081577	0.067074	0.053421
N51	N	1.019941	0.207185	0.010362
N52	N	1.086300	0.132543	0.056709
C53	C	0.751608	0.669867	0.033528
C54	C	0.649276	0.669868	0.033527
C55	C	0.654582	0.662022	-0.079066
C56	C	0.609158	0.658102	-0.135362
C57	C	0.513009	0.658102	-0.135359
C58	C	0.462282	0.662020	-0.079054
C59	C	0.507705	0.665940	-0.022758
C60	C	0.603856	0.665942	-0.022768
C61	C	0.502403	0.673779	0.089836
C62	C	0.598549	0.673785	0.089832
C63	C	0.451676	0.677697	0.146142
C64	C	0.497096	0.681623	0.202436
C65	C	0.593251	0.681624	0.202431
C66	C	0.643973	0.677705	0.146128
C67	C	1.354647	0.669861	0.033539
C68	C	1.456979	0.669859	0.033540
C69	C	1.062777	0.655640	-0.170310
C70	C	1.066052	0.650813	-0.239493
C71	C	1.067475	0.870780	0.043586
C72	C	1.072344	0.938969	0.046998
C73	C	1.016203	0.724232	-0.307875
C74	C	1.019294	0.719691	-0.372877
C75	C	1.072229	0.641730	-0.369496
C76	C	1.122085	0.568306	-0.301107
C77	C	1.119000	0.572847	-0.236106
C78	C	1.086974	0.620031	-0.560050
C79	C	1.090052	0.615495	-0.625058
C80	C	0.987262	0.766881	-0.696824
C81	C	0.984176	0.771416	-0.631819
C82	C	1.034037	0.697991	-0.563436
N83	N	1.075387	0.637087	-0.435938
N84	N	1.030885	0.702635	-0.496996
C85	C	1.043478	0.684087	0.237377
C86	C	1.040203	0.688914	0.306560
C87	C	1.340299	0.468944	0.023486
C88	C	1.437763	0.400754	0.020076
C89	C	1.029130	0.483171	0.227325
C90	C	1.020986	0.419809	0.293096
C91	C	1.330650	0.483168	0.227330
C92	C	1.424838	0.419805	0.293103
C93	C	0.775606	0.856559	-0.160263
C94	C	0.681417	0.919922	-0.226036
C95	C	0.765956	0.870783	0.043581
C96	C	0.668492	0.938973	0.046991
C97	C	1.077125	0.856556	-0.160258
C98	C	1.085269	0.919918	-0.226029
C99	C	1.426540	0.365954	-0.021338
C100	C	1.518109	0.301890	-0.024557
C101	C	1.620900	0.272623	0.013643
C102	C	1.632121	0.307430	0.055058
C103	C	1.540554	0.371496	0.058272
C104	C	1.074154	0.392831	0.363795
C105	C	1.066498	0.333305	0.425600
C106	C	1.005679	0.300754	0.416705
C107	C	0.952504	0.327738	0.345998
C108	C	0.960155	0.387267	0.284195
C109	C	1.529842	0.387271	0.284187
C110	C	1.618352	0.327743	0.345981
C111	C	1.601856	0.300746	0.416691
C112	C	1.496841	0.333286	0.425606
C113	C	1.408333	0.392817	0.363812
C114	C	0.576414	0.952464	-0.217119
C115	C	0.487905	1.012011	-0.278913
C116	C	0.504402	1.039012	-0.349622
C117	C	0.609416	1.006468	-0.358538
C118	C	0.697923	0.946925	-0.296744
C119	C	0.679716	0.973779	0.088398
C120	C	0.588149	1.037860	0.091600
C121	C	0.485358	1.067129	0.053398
C122	C	0.474137	1.032319	0.011986
C123	C	0.565703	0.968244	0.008780
C124	C	1.146097	0.952451	-0.217110
C125	C	1.153771	1.011978	-0.278903
C126	C	1.100609	1.038976	-0.349614
C127	C	1.039779	1.006437	-0.358532
C128	C	1.032113	0.946907	-0.296739
H129	H	1.211823	-0.148654	0.144389
H130	H	0.390432	1.056160	-0.019116
H131	H	0.916861	0.409224	0.226630
H132	H	0.402406	1.038499	-0.271640
H133	H	0.556549	0.939906	-0.024936
H134	H	1.189389	0.930479	-0.159539
H135	H	0.996498	1.028428	-0.416113
H136	H	1.543294	0.409243	0.226616
H137	H	1.715826	0.283591	0.086158
H138	H	0.630233	0.684811	0.248276
H139	H	1.322837	0.419299	0.371082
H140	H	0.650470	0.654910	-0.181204
H141	H	1.127574	0.560244	-0.504378
H142	H	0.732866	0.662031	-0.079078
H143	H	0.476028	0.654905	-0.181198
H144	H	0.722260	0.677710	0.146117
H145	H	1.483425	0.311297	0.483186
H146	H	1.695452	0.220454	0.011020
H147	H	1.549706	0.399823	0.092000
H148	H	0.432324	1.087495	-0.399932
H149	H	0.562961	0.930483	-0.159549
H150	H	0.622835	1.028459	-0.416117
H151	H	0.999458	0.252282	0.467036
H152	H	0.783419	0.920430	-0.304013
H153	H	1.703852	0.301255	0.338709
H154	H	0.941074	0.834900	-0.634581
H155	H	0.763405	0.949954	0.119512
H156	H	1.123679	0.419328	0.371052
H157	H	0.383999	0.662009	-0.079050
H158	H	1.342851	0.389781	-0.052454
H159	H	0.933723	0.038492	-0.049804
H160	H	0.946669	0.826659	-0.752507
H161	H	1.673934	0.252272	0.467001
H162	H	0.597307	1.066191	0.125325
H163	H	1.133157	0.552007	-0.622297
H164	H	0.410807	1.119303	0.056015
H165	H	1.109804	0.311342	0.483167
H166	H	1.203302	1.038465	-0.271627
H167	H	0.902986	0.301226	0.338766
H168	H	0.978704	0.779477	-0.428555
H169	H	1.106860	1.087450	-0.399923
H170	H	0.982576	0.920425	-0.304012
H171	H	0.455792	0.684807	0.248278
H172	H	0.973090	0.787716	-0.310637
H173	H	1.172533	0.301234	0.116865
H174	H	1.164144	0.185041	0.111040
H175	H	0.942108	0.154688	-0.043980
H176	H	0.886042	0.372173	-0.083147
H177	H	0.894412	0.488382	-0.077317
H178	H	1.220210	-0.032452	0.150217
H179	H	0.373390	0.677692	0.146144
H180	H	1.508951	0.273558	-0.058281
H181	H	1.159593	0.513062	-0.180427
H182	H	1.165192	0.504828	-0.298358
