data_functionalizedCrystal
_audit_creation_method	'MofGen! by Chris Wilmer'
_symmetry_space_group_name_H-M	'P1'
_symmetry_Int_Tables_number	1
_symmetry_cell_setting	triclinic
loop_
_symmetry_equiv_pos_as_xyz
  x,y,z
_cell_length_a	12.837943
_cell_length_b	12.837942
_cell_length_c	11.295483
_cell_angle_alpha	94.530417
_cell_angle_beta	85.461227
_cell_angle_gamma	94.828940
loop_
_atom_site_label
_atom_site_type_symbol
_atom_site_fract_x
_atom_site_fract_y
_atom_site_fract_z
O1	O	1.408689	0.265788	-0.099003
O2	O	1.908689	0.765788	0.400997
O3	O	1.105556	0.252345	-0.099010
O4	O	1.605556	0.752345	0.400990
O5	O	1.250401	0.107500	-0.098999
O6	O	1.750401	0.607500	0.401001
O7	O	1.263845	0.410633	-0.099013
O8	O	1.763845	0.910633	0.400987
O9	O	1.237676	0.120201	0.099051
O10	O	1.737676	0.620201	0.599051
O11	O	1.092832	0.265045	0.099040
O12	O	1.592832	0.765045	0.599040
O13	O	1.395965	0.278489	0.099047
O14	O	1.895965	0.778489	0.599047
Cu15	Cu	1.243237	0.272927	0.117127
Cu16	Cu	1.743237	0.772927	0.617127
Cu17	Cu	1.258285	0.257907	-0.117090
Cu18	Cu	1.758285	0.757907	0.382910
O19	O	1.251121	0.423333	0.099037
O20	O	1.751121	0.923333	0.599037
C21	C	1.060125	0.254153	0.000014
C22	C	1.560125	0.754153	0.500014
C23	C	0.943710	0.240609	0.000012
C24	C	1.443710	0.740609	0.500012
C25	C	0.718835	0.403439	0.000021
C26	C	1.218835	0.903439	0.500021
C27	C	0.609453	0.390717	0.000020
C28	C	1.109453	0.890717	0.500020
C29	C	0.615561	0.202446	0.000016
C30	C	1.115561	0.702446	0.500016
C31	C	0.724943	0.215167	0.000017
C32	C	1.224943	0.715167	0.500017
C33	C	0.776576	0.315667	0.000018
C34	C	1.276576	0.815667	0.500018
C35	C	0.885961	0.328387	0.000011
C36	C	1.385961	0.828387	0.500011
C37	C	0.892066	0.140117	0.000016
C38	C	1.392066	0.640117	0.500016
C39	C	0.782684	0.127396	0.000015
C40	C	1.282684	0.627396	0.500015
C41	C	1.239497	0.074781	0.000025
C42	C	1.739497	0.574781	0.500025
C43	C	1.225953	-0.041634	0.000023
C44	C	1.725953	0.458366	0.500023
C45	C	1.388784	-0.266509	0.000002
C46	C	1.888784	0.233491	0.500002
C47	C	1.376062	-0.375892	-0.000000
C48	C	1.876062	0.124108	0.500000
C49	C	1.187791	-0.369784	0.000008
C50	C	1.687791	0.130216	0.500008
C51	C	1.200512	-0.260402	0.000010
C52	C	1.700512	0.239598	0.500010
C53	C	1.301011	-0.208768	0.000009
C54	C	1.801011	0.291232	0.500009
C55	C	1.313731	-0.099383	0.000020
C56	C	1.813731	0.400617	0.500020
C57	C	1.125461	-0.093278	0.000019
C58	C	1.625461	0.406722	0.500019
C59	C	1.112740	-0.202660	0.000017
C60	C	1.612740	0.297340	0.500017
C61	C	1.441396	0.276680	0.000021
C62	C	1.941396	0.776680	0.500021
C63	C	1.557812	0.290224	0.000015
C64	C	2.057812	0.790224	0.500015
C65	C	1.262024	0.456052	0.000010
C66	C	1.762024	0.956052	0.500010
C67	C	1.275569	0.572467	0.000004
C68	C	1.775569	1.072467	0.500004
N69	N	1.232661	0.283491	0.281863
N70	N	1.732661	0.783491	0.781863
N71	N	1.268868	0.247335	-0.281825
N72	N	1.768868	0.747335	0.218175
C73	C	1.344996	0.171231	0.531161
C74	C	1.844996	0.671231	1.031161
C75	C	1.337012	0.179223	0.655824
C76	C	1.837012	0.679223	1.155824
C77	C	1.208702	0.307459	0.655854
C78	C	1.708702	0.807459	1.155854
C79	C	1.216687	0.299467	0.531191
C80	C	1.716687	0.799467	1.031191
C81	C	1.284837	0.231353	0.468849
C82	C	1.784837	0.731353	0.968849
C83	C	1.292826	0.223367	0.344183
C84	C	1.792826	0.723367	0.844183
C85	C	1.164512	0.351597	0.344216
C86	C	1.664512	0.851597	0.844216
C87	C	1.156528	0.359589	0.468879
C88	C	1.656528	0.859589	0.968879
H89	H	0.760876	0.485269	0.000020
H90	H	1.260876	0.985269	0.500020
Cl91	Cl	0.550631	0.076115	0.000031
Cl92	Cl	1.050631	0.576115	0.500031
Cl93	Cl	0.950871	0.454727	0.000009
Cl94	Cl	1.450871	0.954727	0.500009
Cl95	Cl	0.964663	0.029767	-0.000006
Cl96	Cl	1.464663	0.529767	0.499994
H97	H	1.105969	-0.411844	-0.000004
H98	H	1.605969	0.088156	0.499996
Cl99	Cl	1.412641	0.103636	0.734155
Cl100	Cl	1.912641	0.603636	1.234155
H101	H	1.395563	-0.057344	0.000023
H102	H	1.895563	0.442656	0.500023
Cl103	Cl	0.717763	0.001061	0.000016
Cl104	Cl	1.217763	0.501061	0.500016
Cl105	Cl	1.070855	0.445212	0.547261
Cl106	Cl	1.570855	0.945212	1.047261
Cl107	Cl	1.378502	0.137741	0.265812
Cl108	Cl	1.878502	0.637741	0.765812
H109	H	1.470613	-0.224468	0.000013
H110	H	1.970613	0.275532	0.500013
Cl111	Cl	1.486410	-0.448478	-0.000013
Cl112	Cl	1.986410	0.051522	0.499987
H113	H	1.030916	-0.244716	0.000013
H114	H	1.530916	0.255284	0.500013
H115	H	0.562444	0.462191	0.000025
H116	H	1.062444	0.962191	0.500025
Cl117	Cl	1.088888	0.427188	0.265870
Cl118	Cl	1.588888	0.927188	0.765870
H119	H	1.400494	0.115777	0.480401
H120	H	1.900494	0.615777	0.980401
Cl121	Cl	1.123021	0.393072	0.734240
Cl122	Cl	1.623021	0.893072	1.234240
H123	H	1.053990	-0.046252	0.000034
H124	H	1.553990	0.453748	0.500034
