data_functionalizedCrystal
_audit_creation_method	'MofGen! by Chris Wilmer'
_symmetry_space_group_name_H-M	'P1'
_symmetry_Int_Tables_number	1
_symmetry_cell_setting	triclinic
loop_
_symmetry_equiv_pos_as_xyz
  x,y,z
_cell_length_a	16.109318
_cell_length_b	16.109304
_cell_length_c	18.366186
_cell_angle_alpha	89.996570
_cell_angle_beta	89.994535
_cell_angle_gamma	83.465600
loop_
_atom_site_label
_atom_site_type_symbol
_atom_site_fract_x
_atom_site_fract_y
_atom_site_fract_z
O1	O	1.103129	0.106937	-0.060484
O2	O	1.436463	0.440270	0.272849
O3	O	1.769796	0.773603	0.606182
O4	O	0.861069	0.120221	-0.060499
O5	O	1.194403	0.453554	0.272835
O6	O	1.527736	0.786888	0.606168
O7	O	0.988748	-0.007451	-0.060492
O8	O	1.322081	0.325882	0.272842
O9	O	1.655414	0.659215	0.606175
O10	O	0.975451	0.234609	-0.060492
O11	O	1.308784	0.567943	0.272842
O12	O	1.642118	0.901276	0.606175
O13	O	0.988726	-0.007458	0.060608
O14	O	1.322059	0.325876	0.393941
O15	O	1.655393	0.659209	0.727274
O16	O	0.861048	0.120215	0.060601
O17	O	1.194381	0.453548	0.393934
O18	O	1.527714	0.786881	0.727267
O19	O	1.103108	0.106930	0.060615
O20	O	1.436441	0.440264	0.393948
O21	O	1.769774	0.773597	0.727282
Zn22	Zn	0.982074	0.113572	0.079835
Zn23	Zn	1.315408	0.446905	0.413168
Zn24	Zn	1.648741	0.780238	0.746502
Zn25	Zn	0.982103	0.113580	-0.079719
Zn26	Zn	1.315436	0.446913	0.253615
Zn27	Zn	1.648769	0.780247	0.586948
O28	O	0.975429	0.234603	0.060608
O29	O	1.308763	0.567936	0.393941
O30	O	1.642096	0.901270	0.727275
C31	C	0.830084	0.119677	0.000049
C32	C	1.163417	0.453011	0.333383
C33	C	1.496751	0.786344	0.666716
C34	C	0.737789	0.118056	0.000044
C35	C	1.071123	0.451390	0.333377
C36	C	1.404456	0.784723	0.666710
C37	C	0.438727	0.112825	-0.065955
C38	C	0.772061	0.446158	0.267378
C39	C	1.105394	0.779492	0.600712
C40	C	0.525449	0.114342	-0.065959
C41	C	0.858782	0.447676	0.267374
C42	C	1.192115	0.781009	0.600707
C43	C	0.525444	0.114324	0.066070
C44	C	0.858777	0.447657	0.399403
C45	C	1.192111	0.780991	0.732737
C46	C	0.438725	0.112801	0.066074
C47	C	0.772058	0.446134	0.399407
C48	C	1.105392	0.779467	0.732740
C49	C	0.395368	0.112055	0.000059
C50	C	0.728702	0.445389	0.333392
C51	C	1.062035	0.778722	0.666726
C52	C	0.568809	0.115096	0.000051
C53	C	0.902142	0.448429	0.333384
C54	C	1.235475	0.781763	0.666718
C55	C	0.662836	0.116741	0.000047
C56	C	0.996169	0.450075	0.333380
C57	C	1.329502	0.783408	0.666713
C58	C	0.301336	0.110408	0.000063
C59	C	0.634669	0.443742	0.333396
C60	C	0.968002	0.777075	0.666730
C61	C	0.988198	-0.038430	0.000056
C62	C	1.321531	0.294904	0.333390
C63	C	1.654865	0.628237	0.666723
C64	C	0.986582	-0.130725	0.000051
C65	C	1.319915	0.202609	0.333385
C66	C	1.653248	0.535942	0.666718
C67	C	0.982860	-0.343059	-0.065957
C68	C	1.316193	-0.009726	0.267376
C69	C	1.649527	0.323608	0.600709
C70	C	0.981334	-0.429779	-0.065957
C71	C	1.314667	-0.096446	0.267377
C72	C	1.648001	0.236887	0.600710
C73	C	0.981314	-0.429783	0.066072
C74	C	1.314648	-0.096450	0.399406
C75	C	1.647981	0.236884	0.732739
C76	C	0.982835	-0.343064	0.066071
C77	C	1.316168	-0.009730	0.399404
C78	C	1.649501	0.323603	0.732738
C79	C	0.983612	-0.299704	0.000054
C80	C	1.316945	0.033629	0.333387
C81	C	1.650278	0.366962	0.666721
C82	C	0.980565	-0.473144	0.000056
C83	C	1.313899	-0.139811	0.333389
C84	C	1.647232	0.193523	0.666723
C85	C	0.978911	-0.567170	0.000057
C86	C	1.312244	-0.233837	0.333390
C87	C	1.645577	0.099497	0.666724
C88	C	0.985265	-0.205672	0.000053
C89	C	1.318598	0.127661	0.333386
C90	C	1.651931	0.460994	0.666719
C91	C	1.134093	0.107474	0.000066
C92	C	1.467426	0.440808	0.333399
C93	C	1.800760	0.774141	0.666732
C94	C	1.226388	0.109095	0.000066
C95	C	1.559721	0.442428	0.333400
C96	C	1.893054	0.775762	0.666733
C97	C	0.975979	0.265581	0.000058
C98	C	1.309312	0.598914	0.333392
C99	C	1.642646	0.932248	0.666725
C100	C	0.977595	0.357876	0.000058
C101	C	1.310929	0.691210	0.333392
C102	C	1.644262	1.024543	0.666725
N103	N	0.982061	0.113565	0.188726
N104	N	1.315394	0.446899	0.522059
N105	N	1.648727	0.780232	0.855393
N106	N	0.982123	0.113580	-0.188610
N107	N	1.315456	0.446913	0.144724
N108	N	1.648790	0.780246	0.478057
C109	C	1.038615	0.057060	0.226830
C110	C	1.371949	0.390393	0.560163
C111	C	1.705282	0.723727	0.893496
C112	C	1.038621	0.057056	0.303057
C113	C	1.371954	0.390389	0.636391
C114	C	1.705287	0.723723	0.969724
C115	C	0.982079	0.113572	0.341179
C116	C	1.315413	0.446906	0.674512
C117	C	1.648746	0.780239	1.007846
C118	C	0.925514	0.170082	0.303066
C119	C	1.258847	0.503416	0.636399
C120	C	1.592181	0.836749	0.969733
C121	C	0.925505	0.170079	0.226840
C122	C	1.258838	0.503412	0.560173
C123	C	1.592172	0.836745	0.893506
C124	C	0.971167	0.189294	0.461939
C125	C	1.304500	0.522627	0.795272
C126	C	1.637833	0.855961	1.128605
C127	C	0.971182	0.189299	0.538164
C128	C	1.304515	0.522632	0.871497
C129	C	1.637849	0.855965	1.204830
C130	C	0.982103	0.113583	0.576286
C131	C	1.315436	0.446916	0.909620
C132	C	1.648770	0.780249	1.242953
C133	C	0.993027	0.037859	0.538175
C134	C	1.326360	0.371193	0.871508
C135	C	1.659693	0.704526	1.204841
C136	C	0.993017	0.037856	0.461948
C137	C	1.326351	0.371189	0.795282
C138	C	1.659684	0.704522	1.128615
C139	C	0.982083	0.113582	0.423834
C140	C	1.315416	0.446915	0.757167
C141	C	1.648749	0.780249	1.090500
C142	C	1.038666	0.057068	0.697045
C143	C	1.372000	0.390402	1.030378
C144	C	1.705333	0.723735	1.363711
C145	C	1.038666	0.057064	0.773274
C146	C	1.371999	0.390397	1.106607
C147	C	1.705332	0.723730	1.439941
C148	C	0.925563	0.170097	0.773281
C149	C	1.258897	0.503430	1.106615
C150	C	1.592230	0.836764	1.439948
C151	C	0.925560	0.170095	0.697053
C152	C	1.258893	0.503428	1.030387
C153	C	1.592226	0.836761	1.363720
C154	C	0.982116	0.113581	0.658940
C155	C	1.315449	0.446915	0.992273
C156	C	1.648782	0.780248	1.325607
H157	H	0.403421	0.112173	0.119833
H158	H	0.736754	0.445507	0.453167
H159	H	1.070088	0.778840	0.786500
H160	H	0.560755	0.114933	0.119817
H161	H	0.894088	0.448266	0.453150
H162	H	1.227422	0.781599	0.786483
H163	H	0.403429	0.112217	-0.119708
H164	H	0.736763	0.445550	0.213625
H165	H	1.070096	0.778884	0.546958
H166	H	0.879511	0.216110	0.666027
H167	H	1.212844	0.549443	0.999361
H168	H	1.546178	0.882777	1.332694
H169	H	1.084715	0.011049	0.666011
H170	H	1.418048	0.344383	0.999345
H171	H	1.751382	0.677716	1.332678
C172	C	0.863315	0.232247	0.345001
C173	C	1.196648	0.565580	0.678334
C174	C	1.529982	0.898913	1.011668
N175	N	0.816461	0.279068	0.376587
N176	N	1.149795	0.612401	0.709920
N177	N	1.483128	0.945735	1.043253
C178	C	0.983705	-0.295366	-0.138578
C179	C	1.317039	0.037968	0.194755
C180	C	1.650372	0.371301	0.528089
N181	N	0.984338	-0.259445	-0.193278
N182	N	1.317672	0.073889	0.140055
N183	N	1.651005	0.407222	0.473389
C184	C	0.980540	-0.477470	-0.138575
C185	C	1.313873	-0.144136	0.194759
C186	C	1.647207	0.189197	0.528092
N187	N	0.979953	-0.513391	-0.193274
N188	N	1.313286	-0.180057	0.140060
N189	N	1.646619	0.153276	0.473393
C190	C	1.100869	-0.005114	0.815188
C191	C	1.434203	0.328219	1.148521
C192	C	1.767536	0.661552	1.481854
N193	N	1.147719	-0.051952	0.846758
N194	N	1.481052	0.281381	1.180091
N195	N	1.814386	0.614715	1.513424
H196	H	0.980684	-0.465097	0.119821
H197	H	1.314017	-0.131764	0.453154
H198	H	1.647350	0.201570	0.786488
C199	C	1.005038	-0.045435	0.580104
C200	C	1.338372	0.287898	0.913437
C201	C	1.671705	0.621231	1.246770
N202	N	1.014086	-0.108170	0.611688
N203	N	1.347419	0.225163	0.945021
N204	N	1.680753	0.558496	1.278355
H205	H	0.962292	0.250957	0.569188
H206	H	1.295626	0.584290	0.902522
H207	H	1.628959	0.917624	1.235855
H208	H	1.084675	0.011041	0.334087
H209	H	1.418009	0.344374	0.667420
H210	H	1.751342	0.677707	1.000754
C211	C	1.005022	-0.045439	0.420028
C212	C	1.338355	0.287895	0.753362
C213	C	1.671689	0.621228	1.086695
N214	N	1.014059	-0.108177	0.388454
N215	N	1.347392	0.225156	0.721788
N216	N	1.680726	0.558489	1.055121
C217	C	0.573140	0.115186	-0.138580
C218	C	0.906473	0.448520	0.194753
C219	C	1.239807	0.781853	0.528087
N220	N	0.609061	0.115820	-0.193281
N221	N	0.942394	0.449153	0.140052
N222	N	1.275728	0.782487	0.473386
C223	C	0.959152	0.272593	0.420011
C224	C	1.292486	0.605926	0.753345
C225	C	1.625819	0.939260	1.086678
N226	N	0.950104	0.335332	0.388433
N227	N	1.283437	0.668665	0.721766
N228	N	1.616770	1.001998	1.055100
C229	C	0.983660	-0.295371	0.138692
C230	C	1.316994	0.037963	0.472026
C231	C	1.650327	0.371296	0.805359
N232	N	0.984280	-0.259448	0.193389
N233	N	1.317614	0.073885	0.526722
N234	N	1.650947	0.407219	0.860055
C235	C	1.100821	-0.005115	0.184909
C236	C	1.434154	0.328219	0.518242
C237	C	1.767487	0.661552	0.851576
N238	N	1.147672	-0.051948	0.153333
N239	N	1.481005	0.281385	0.486667
N240	N	1.814338	0.614719	0.820000
C241	C	0.863367	0.232267	0.815210
C242	C	1.196701	0.565600	1.148544
C243	C	1.530034	0.898933	1.481877
N244	N	0.816519	0.279094	0.846795
N245	N	1.149853	0.612427	1.180128
N246	N	1.483186	0.945760	1.513462
H247	H	0.879450	0.216093	0.195815
H248	H	1.212784	0.549426	0.529148
H249	H	1.546117	0.882760	0.862482
