data_functionalizedCrystal
_audit_creation_method	'MofGen! by Chris Wilmer'
_symmetry_space_group_name_H-M	'P1'
_symmetry_Int_Tables_number	1
_symmetry_cell_setting	triclinic
loop_
_symmetry_equiv_pos_as_xyz
  x,y,z
_cell_length_a	12.837943
_cell_length_b	11.295483
_cell_length_c	12.837942
_cell_angle_alpha	85.469583
_cell_angle_beta	94.828940
_cell_angle_gamma	94.538773
loop_
_atom_site_label
_atom_site_type_symbol
_atom_site_fract_x
_atom_site_fract_y
_atom_site_fract_z
O1	O	-1.408689	-0.099003	-0.265788
O2	O	-1.105556	-0.099010	-0.252345
O3	O	-1.250401	-0.098999	-0.107500
O4	O	-1.263845	-0.099013	-0.410633
O5	O	-1.237676	0.099051	-0.120201
O6	O	-1.092832	0.099040	-0.265045
O7	O	-1.395965	0.099047	-0.278489
Cu8	Cu	-1.243237	0.117127	-0.272927
Cu9	Cu	-1.258285	-0.117090	-0.257907
O10	O	-1.251121	0.099037	-0.423333
C11	C	-1.060125	0.000014	-0.254153
C12	C	-0.943710	0.000012	-0.240609
N13	N	-1.232661	0.281863	-0.283491
C14	C	-1.441396	0.000021	-0.276680
C15	C	-1.557812	0.000015	-0.290224
C16	C	-1.239497	0.000025	-0.074781
C17	C	-1.225953	0.000023	0.041634
C18	C	-0.718835	0.000021	-0.403439
C19	C	-0.609453	0.000020	-0.390717
C20	C	-0.615561	0.000016	-0.202446
C21	C	-0.724943	0.000017	-0.215167
C22	C	-0.776576	0.000018	-0.315667
C23	C	-0.885961	0.000011	-0.328387
C24	C	-0.892066	0.000016	-0.140117
C25	C	-0.782684	0.000015	-0.127396
N26	N	-1.268868	-0.281825	-0.247335
C27	C	-1.344996	0.531161	-0.171231
C28	C	-1.337012	0.655824	-0.179223
C29	C	-1.208702	0.655854	-0.307459
C30	C	-1.216687	0.531191	-0.299467
C31	C	-1.284837	0.468849	-0.231353
C32	C	-1.292826	0.344183	-0.223367
C33	C	-1.164512	0.344216	-0.351597
C34	C	-1.156528	0.468879	-0.359589
C35	C	-1.262024	0.000010	-0.456052
C36	C	-1.275569	0.000004	-0.572467
C37	C	-1.388784	0.000002	0.266509
C38	C	-1.376062	-0.000000	0.375892
C39	C	-1.187791	0.000008	0.369784
C40	C	-1.200512	0.000010	0.260402
C41	C	-1.301011	0.000009	0.208768
C42	C	-1.313731	0.000020	0.099383
C43	C	-1.125461	0.000019	0.093278
C44	C	-1.112740	0.000017	0.202660
H45	H	-0.928000	0.000014	-0.410219
Cl46	Cl	-1.440071	0.000026	0.034473
Cl47	Cl	-1.123021	0.734240	-0.393072
Cl48	Cl	-0.986405	0.000008	0.267582
Cl49	Cl	-1.015111	0.000043	0.020681
H50	H	-1.400494	0.480401	-0.115777
H51	H	-1.447536	-0.000010	0.422901
H52	H	-0.760876	0.000020	-0.485269
H53	H	-0.740628	0.000028	-0.045572
Cl54	Cl	-0.536867	0.000027	-0.501065
H55	H	-1.105969	-0.000004	0.411844
Cl56	Cl	-1.378502	0.265812	-0.137741
Cl57	Cl	-0.550631	0.000031	-0.076115
H58	H	-1.385998	0.706555	-0.130265
Cl59	Cl	-1.070855	0.547261	-0.445212
H60	H	-0.939091	0.000006	-0.068646
Cl61	Cl	-1.088888	0.265870	-0.427188
Cl62	Cl	-1.515120	0.000030	0.201593
