data_functionalizedCrystal
_audit_creation_method	'MofGen! by Chris Wilmer'
_symmetry_space_group_name_H-M	'P1'
_symmetry_Int_Tables_number	1
_symmetry_cell_setting	triclinic
loop_
_symmetry_equiv_pos_as_xyz
  x,y,z
_cell_length_a	19.805407
_cell_length_b	16.625545
_cell_length_c	19.805399
_cell_angle_alpha	90.025578
_cell_angle_beta	90.017803
_cell_angle_gamma	90.022874
loop_
_atom_site_label
_atom_site_type_symbol
_atom_site_fract_x
_atom_site_fract_y
_atom_site_fract_z
Zn1	Zn	1.034740	-0.321078	0.382697
Zn2	Zn	1.368073	0.012255	0.716030
Zn3	Zn	1.701406	0.345589	1.049364
Zn4	Zn	1.034656	-0.455915	0.269513
Zn5	Zn	1.367990	-0.122582	0.602846
Zn6	Zn	1.701323	0.210751	0.936179
Zn7	Zn	0.921554	-0.321094	0.269525
Zn8	Zn	1.254888	0.012239	0.602858
Zn9	Zn	1.588221	0.345573	0.936192
Zn10	Zn	0.921519	-0.455866	0.382663
Zn11	Zn	1.254853	-0.122533	0.715996
Zn12	Zn	1.588186	0.210801	1.049330
O13	O	0.978117	-0.388488	0.326100
O14	O	1.311451	-0.055155	0.659433
O15	O	1.644784	0.278178	0.992766
O16	O	1.129445	-0.338978	0.367692
O17	O	1.462778	-0.005645	0.701025
O18	O	1.796112	0.327688	1.034359
O19	O	1.019633	-0.438058	0.174798
O20	O	1.352966	-0.104725	0.508131
O21	O	1.686299	0.228609	0.841464
O22	O	0.936618	-0.208259	0.284557
O23	O	1.269951	0.125074	0.617890
O24	O	1.603285	0.458407	0.951224
O25	O	1.129384	-0.438043	0.284536
O26	O	1.462717	-0.104709	0.617869
O27	O	1.796050	0.228624	0.951203
O28	O	1.019775	-0.208248	0.367704
O29	O	1.353108	0.125086	0.701037
O30	O	1.686442	0.458419	1.034371
O31	O	0.936537	-0.339006	0.174807
O32	O	1.269870	-0.005672	0.508140
O33	O	1.603204	0.327661	0.841474
O34	O	0.826833	-0.338958	0.284524
O35	O	1.160166	-0.005625	0.617857
O36	O	1.493500	0.327709	0.951191
O37	O	0.936559	-0.437959	0.477384
O38	O	1.269892	-0.104626	0.810717
O39	O	1.603225	0.228708	1.144051
O40	O	0.826808	-0.437974	0.367646
O41	O	1.160141	-0.104641	0.700979
O42	O	1.493474	0.228692	1.034313
O43	O	1.019741	-0.338931	0.477409
O44	O	1.353074	-0.005597	0.810743
O45	O	1.686408	0.327736	1.144076
O46	O	1.019599	-0.568741	0.284503
O47	O	1.352932	-0.235408	0.617836
O48	O	1.686266	0.097926	0.951170
O49	O	0.936478	-0.568705	0.367634
O50	O	1.269811	-0.235372	0.700967
O51	O	1.603144	0.097962	1.034301
C52	C	0.802261	-0.388463	0.326083
C53	C	1.135595	-0.055130	0.659416
C54	C	1.468928	0.278204	0.992750
C55	C	0.727029	-0.388472	0.326092
C56	C	1.060363	-0.055138	0.659425
C57	C	1.393696	0.278195	0.992759
C58	C	0.691718	-0.336980	0.369457
C59	C	1.025051	-0.003647	0.702791
C60	C	1.358384	0.329686	1.036124
C61	C	0.621029	-0.336984	0.369460
C62	C	0.954363	-0.003651	0.702793
C63	C	1.287696	0.329682	1.036127
C64	C	0.585654	-0.388485	0.326100
C65	C	0.918987	-0.055152	0.659434
C66	C	1.252320	0.278182	0.992767
C67	C	0.620970	-0.439979	0.282730
C68	C	0.954304	-0.106645	0.616064
C69	C	1.287637	0.226688	0.949397
C70	C	0.691658	-0.439970	0.282725
C71	C	1.024991	-0.106636	0.616058
C72	C	1.358324	0.226697	0.949391
C73	C	0.335897	-0.440015	0.282751
C74	C	0.669230	-0.106682	0.616084
C75	C	1.002564	0.226652	0.949418
C76	C	0.265205	-0.440022	0.282761
C77	C	0.598538	-0.106688	0.616095
C78	C	0.931872	0.226645	0.949428
C79	C	0.265269	-0.337030	0.369486
C80	C	0.598602	-0.003696	0.702819
C81	C	0.931936	0.329637	1.036153
C82	C	0.335956	-0.337021	0.369481
C83	C	0.669289	-0.003687	0.702814
C84	C	1.002623	0.329646	1.036147
C85	C	0.371266	-0.388511	0.326108
C86	C	0.704600	-0.055178	0.659442
C87	C	1.037933	0.278156	0.992775
C88	C	0.447915	-0.388505	0.326105
C89	C	0.781248	-0.055171	0.659439
C90	C	1.114582	0.278162	0.992772
C91	C	0.509007	-0.388496	0.326106
C92	C	0.842340	-0.055162	0.659440
C93	C	1.175673	0.278171	0.992773
C94	C	0.978044	-0.597979	0.326078
C95	C	1.311377	-0.264646	0.659412
C96	C	1.644711	0.068687	0.992745
C97	C	0.978074	-0.687600	0.326092
C98	C	1.311408	-0.354267	0.659425
C99	C	1.644741	-0.020934	0.992758
C100	C	0.978101	-0.760383	0.326105
C101	C	1.311434	-0.427049	0.659439
C102	C	1.644767	-0.093716	0.992772
C103	C	0.978140	-0.851691	0.326120
C104	C	1.311473	-0.518358	0.659453
C105	C	1.644807	-0.185024	0.992787
C106	C	0.978175	-0.924468	0.326129
C107	C	1.311508	-0.591134	0.659462
C108	C	1.644842	-0.257801	0.992795
C109	C	0.978214	-1.015782	0.326143
C110	C	1.311547	-0.682449	0.659476
C111	C	1.644881	-0.349115	0.992809
C112	C	1.154660	-0.388514	0.326116
C113	C	1.487993	-0.055181	0.659450
C114	C	1.821327	0.278152	0.992783
C115	C	1.229892	-0.388525	0.326124
C116	C	1.563225	-0.055192	0.659457
C117	C	1.896559	0.278141	0.992790
C118	C	0.978155	-0.388438	0.502642
C119	C	1.311489	-0.055104	0.835976
C120	C	1.644822	0.278229	1.169309
C121	C	0.978172	-0.388416	0.577874
C122	C	1.311505	-0.055083	0.911208
C123	C	1.644838	0.278251	1.244541
C124	C	0.978210	-0.178179	0.326136
C125	C	1.311543	0.155154	0.659469
C126	C	1.644876	0.488487	0.992802
C127	C	0.978249	-0.088558	0.326151
C128	C	1.311582	0.244775	0.659484
C129	C	1.644916	0.578108	0.992818
C130	C	0.978119	-0.388481	0.150244
C131	C	1.311452	-0.055147	0.483577
C132	C	1.644785	0.278186	0.816910
C133	C	0.978234	-0.388275	0.075012
C134	C	1.311567	-0.054942	0.408345
C135	C	1.644900	0.278391	0.741679
C136	C	1.021486	-0.336849	0.613233
C137	C	1.354819	-0.003516	0.946566
C138	C	1.688152	0.329817	1.279899
C139	C	1.021493	-0.336826	0.683921
C140	C	1.354826	-0.003493	1.017254
C141	C	1.688159	0.329841	1.350588
C142	C	0.978188	-0.388374	0.719250
C143	C	1.311522	-0.055040	1.052583
C144	C	1.644855	0.278293	1.385917
C145	C	0.934870	-0.439943	0.683887
C146	C	1.268203	-0.106609	1.017220
C147	C	1.601536	0.226724	1.350553
C148	C	0.934860	-0.439961	0.613200
C149	C	1.268193	-0.106628	0.946533
C150	C	1.601526	0.226705	1.279866
C151	C	0.934908	-0.439867	0.968960
C152	C	1.268241	-0.106534	1.302294
C153	C	1.601574	0.226799	1.635627
C154	C	0.934922	-0.439846	1.039652
C155	C	1.268256	-0.106513	1.372986
C156	C	1.601589	0.226820	1.706319
C157	C	1.021541	-0.336732	1.039682
C158	C	1.354874	-0.003399	1.373015
C159	C	1.688207	0.329935	1.706348
C160	C	1.021531	-0.336751	0.968995
C161	C	1.354864	-0.003418	1.302328
C162	C	1.688197	0.329916	1.635661
C163	C	0.978210	-0.388316	0.933637
C164	C	1.311543	-0.054983	1.266971
C165	C	1.644876	0.278350	1.600304
C166	C	0.978202	-0.388340	0.856989
C167	C	1.311535	-0.055007	1.190322
C168	C	1.644868	0.278327	1.523656
C169	C	0.978199	-0.388355	0.795897
C170	C	1.311533	-0.055021	1.129230
C171	C	1.644866	0.278312	1.462564
H172	H	0.592282	-0.295056	0.404773
H173	H	0.925615	0.038277	0.738107
H174	H	1.258948	0.371610	1.071440
H175	H	0.364638	-0.481942	0.247435
H176	H	0.697972	-0.148609	0.580769
H177	H	1.031305	0.184724	0.914102
H178	H	0.720407	-0.481899	0.247412
H179	H	1.053741	-0.148566	0.580745
H180	H	1.387074	0.184768	0.914079
H181	H	0.236511	-0.295101	0.404800
H182	H	0.569844	0.038233	0.738133
H183	H	0.903177	0.371566	1.071466
C184	C	0.226293	-0.496672	0.235054
C185	C	0.559627	-0.163339	0.568388
C186	C	0.892960	0.169995	0.901721
N187	N	0.196985	-0.539338	0.199122
N188	N	0.530318	-0.206004	0.532456
N189	N	0.863652	0.127329	0.865789
H190	H	0.592162	-0.481907	0.247423
H191	H	0.925495	-0.148574	0.580756
H192	H	1.258829	0.184759	0.914090
C193	C	0.374865	-0.280363	0.417177
C194	C	0.708199	0.052970	0.750510
C195	C	1.041532	0.386303	1.083844
N196	N	0.404171	-0.237684	0.453100
N197	N	0.737504	0.095649	0.786433
N198	N	1.070837	0.428982	1.119767
H199	H	0.899643	-0.481867	0.940181
H200	H	1.232976	-0.148534	1.273514
H201	H	1.566310	0.184800	1.606848
H202	H	0.899582	-0.481944	0.584412
H203	H	1.232915	-0.148611	0.917745
H204	H	1.566249	0.184723	1.251078
H205	H	1.056751	-0.294876	0.584473
H206	H	1.390084	0.038458	0.917806
H207	H	1.723418	0.371791	1.251140
H208	H	0.899608	-0.481911	0.712657
H209	H	1.232941	-0.148577	1.045991
H210	H	1.566275	0.184756	1.379324
C211	C	1.069166	-0.280041	0.930137
C212	C	1.402499	0.053292	1.263470
C213	C	1.735833	0.386625	1.596803
N214	N	1.105043	-0.237322	0.900870
N215	N	1.438376	0.096011	1.234203
N216	N	1.771709	0.429344	1.567537
C217	C	1.069143	-0.280100	0.722812
C218	C	1.402476	0.053233	1.056145
C219	C	1.735809	0.386567	1.389479
N220	N	1.105035	-0.237371	0.752104
N221	N	1.438368	0.095962	1.085438
N222	N	1.771701	0.429295	1.418771
C223	C	1.069187	-0.279999	1.078581
C224	C	1.402520	0.053335	1.411914
C225	C	1.735854	0.386668	1.745247
N226	N	1.105073	-0.237268	1.107878
N227	N	1.438406	0.096066	1.441212
N228	N	1.771739	0.429399	1.774545
H229	H	0.720516	-0.295045	0.404768
H230	H	1.053849	0.038289	0.738101
H231	H	1.387182	0.371622	1.071434
C232	C	0.887278	-0.496550	1.078513
C233	C	1.220611	-0.163217	1.411846
C234	C	1.553944	0.170116	1.745179
N235	N	0.851393	-0.539257	1.107782
N236	N	1.184726	-0.205923	1.441116
N237	N	1.518059	0.127410	1.774449
