data_functionalizedCrystal
_audit_creation_method	'MofGen! by Chris Wilmer'
_symmetry_space_group_name_H-M	'P1'
_symmetry_Int_Tables_number	1
_symmetry_cell_setting	triclinic
loop_
_symmetry_equiv_pos_as_xyz
  x,y,z
_cell_length_a	12.759401
_cell_length_b	16.959454
_cell_length_c	16.959447
_cell_angle_alpha	89.973264
_cell_angle_beta	89.987743
_cell_angle_gamma	90.020236
loop_
_atom_site_label
_atom_site_type_symbol
_atom_site_fract_x
_atom_site_fract_y
_atom_site_fract_z
Zn1	Zn	1.606151	-0.314663	-0.446885
Zn2	Zn	1.606048	-0.446855	-0.314715
Zn3	Zn	1.430473	-0.314695	-0.314727
Zn4	Zn	1.430426	-0.446803	-0.446858
O5	O	1.518275	-0.380754	-0.380796
O6	O	1.753159	-0.332206	-0.429358
O7	O	1.582734	-0.429359	-0.204105
O8	O	1.453839	-0.204080	-0.332275
O9	O	1.753083	-0.429328	-0.332253
O10	O	1.582910	-0.204056	-0.429370
O11	O	1.453740	-0.332261	-0.204115
O12	O	1.283445	-0.332211	-0.332249
O13	O	1.453759	-0.429239	-0.557472
O14	O	1.283411	-0.429271	-0.429324
O15	O	1.582864	-0.332156	-0.557492
O16	O	1.582689	-0.557459	-0.332227
O17	O	1.453660	-0.557421	-0.429312
C18	C	1.245307	-0.380739	-0.380785
C19	C	1.128531	-0.380752	-0.380800
C20	C	1.073678	-0.431372	-0.431263
C21	C	0.963954	-0.431382	-0.431272
C22	C	0.963945	-0.330150	-0.330346
C23	C	1.073667	-0.330137	-0.330342
C24	C	1.128542	-0.481987	-0.481721
C25	C	1.073689	-0.532612	-0.532188
C26	C	0.963965	-0.532622	-0.532197
C27	C	0.909094	-0.482007	-0.481738
C28	C	1.518186	-0.586120	-0.380783
C29	C	1.518245	-0.673977	-0.380803
C30	C	1.451186	-1.045463	-0.431343
C31	C	1.585655	-1.045442	-0.330330
C32	C	1.585619	-0.962896	-0.330323
C33	C	1.518364	-0.921630	-0.380825
C34	C	1.451145	-0.962909	-0.431336
C35	C	1.652828	-0.921611	-0.279808
C36	C	1.652793	-0.839060	-0.279798
C37	C	1.585543	-0.797792	-0.330305
C38	C	1.518323	-0.839076	-0.380818
C39	C	1.451068	-0.797810	-0.431321
C40	C	1.383852	-0.839093	-0.481838
C41	C	1.383895	-0.921641	-0.481843
C42	C	1.585500	-0.715243	-0.330300
C43	C	1.451027	-0.715256	-0.431314
C44	C	1.792308	-0.380769	-0.380807
C45	C	1.909084	-0.380776	-0.380812
C46	C	1.518318	-0.380689	-0.586964
C47	C	1.518337	-0.380661	-0.674821
C48	C	1.518391	-0.174586	-0.380827
C49	C	1.518441	-0.086729	-0.380840
C50	C	1.451243	-0.431124	-1.046289
C51	C	1.585682	-0.330031	-1.046305
C52	C	1.585654	-0.330047	-0.963759
C53	C	1.518421	-0.380604	-0.922474
C54	C	1.451215	-0.431144	-0.963735
C55	C	1.652865	-0.279514	-0.922491
C56	C	1.652840	-0.279529	-0.839940
C57	C	1.585601	-0.330083	-0.798654
C58	C	1.518393	-0.380624	-0.839921
C59	C	1.451160	-0.431181	-0.798636
C60	C	1.383945	-0.481719	-0.839901
C61	C	1.383976	-0.481697	-0.922449
C62	C	1.585570	-0.330104	-0.716106
C63	C	1.451132	-0.431201	-0.716082
C64	C	1.518291	-0.380762	-0.175430
C65	C	1.518476	-0.380567	-0.087574
H66	H	1.329088	-0.805484	-0.522955
H67	H	1.329171	-0.955261	-0.522971
C68	C	1.378173	-0.486007	-0.671119
C69	C	1.392516	-0.475199	-0.589994
C70	C	1.325316	-0.525665	-0.548550
H71	H	1.393453	-0.539145	-0.684543
H72	H	1.307571	-0.474421	-0.684605
H73	H	1.463102	-0.486791	-0.576514
H74	H	1.377228	-0.422072	-0.576547
H75	H	1.254713	-0.514079	-0.562036
H76	H	1.340601	-0.578800	-0.561980
H77	H	1.335031	-0.518334	-0.493503
C78	C	1.658403	-0.670521	-0.275329
C79	C	1.635609	-0.690670	-0.197112
C80	C	1.702758	-0.649496	-0.146449
H81	H	1.648814	-0.615436	-0.282452
H82	H	1.729010	-0.684022	-0.286891
H83	H	1.565019	-0.677164	-0.185555
H84	H	1.645204	-0.745748	-0.189965
H85	H	1.773365	-0.662996	-0.158010
H86	H	1.693164	-0.594413	-0.153578
H87	H	1.687309	-0.663167	-0.093374
H88	H	1.396464	-1.079079	-0.472475
H89	H	0.819749	-0.482013	-0.481756
H90	H	0.919259	-0.288943	-0.289264
C91	C	1.311094	-0.536746	-0.795109
C92	C	1.333957	-0.614948	-0.815157
C93	C	1.266887	-0.665662	-0.773897
H94	H	1.240470	-0.525283	-0.808593
H95	H	1.320730	-0.529571	-0.740031
H96	H	1.324313	-0.622120	-0.870223
H97	H	1.404570	-0.626436	-0.801670
H98	H	1.276523	-0.658487	-0.718818
H99	H	1.196267	-0.654192	-0.787384
H100	H	1.282397	-0.718728	-0.787488
C101	C	1.133069	-0.587589	-0.587059
C102	C	1.061543	-0.631905	-0.631272
C103	C	1.116202	-0.682551	-0.681837
H104	H	1.175853	-0.622058	-0.556849
H105	H	1.175872	-0.557409	-0.621591
H106	H	1.018758	-0.662084	-0.596745
H107	H	1.018756	-0.597458	-0.661498
H108	H	1.159004	-0.652370	-0.716369
H109	H	1.158984	-0.717015	-0.651621
H110	H	1.067680	-0.712620	-0.711847
C111	C	1.133040	-0.275157	-0.275458
C112	C	1.061511	-0.230856	-0.231248
C113	C	1.116167	-0.180208	-0.180672
H114	H	1.175870	-0.240679	-0.305660
H115	H	1.175796	-0.305335	-0.240926
H116	H	1.018772	-0.200680	-0.265776
H117	H	1.018678	-0.265313	-0.201030
H118	H	1.158923	-0.210386	-0.146139
H119	H	1.158995	-0.145735	-0.210880
H120	H	1.067643	-0.150149	-0.150664
H121	H	1.329257	-0.522845	-0.956055
C122	C	0.904354	-0.587449	-0.587088
C123	C	0.841417	-0.542766	-0.637848
C124	C	0.786501	-0.593249	-0.688430
H125	H	0.861443	-0.621870	-0.556886
H126	H	0.952714	-0.617575	-0.617182
H127	H	0.793062	-0.512653	-0.607757
H128	H	0.884301	-0.508347	-0.668068
H129	H	0.834861	-0.623375	-0.718525
H130	H	0.743597	-0.627667	-0.658222
H131	H	0.743799	-0.562939	-0.722882
H132	H	1.707609	-0.238358	-0.956111
C133	C	1.658756	-1.090303	-0.275613
C134	C	1.726095	-1.137642	-0.320393
C135	C	1.793443	-1.178982	-0.270006
H136	H	1.618690	-1.122596	-0.241149
H137	H	1.698846	-1.053934	-0.245528
H138	H	1.686009	-1.174007	-0.350465
H139	H	1.766184	-1.105369	-0.354855
H140	H	1.833533	-1.142613	-0.239921
H141	H	1.753368	-1.211271	-0.235545
H142	H	1.839146	-1.211101	-0.300382
C143	C	1.378157	-0.486024	-1.090943
C144	C	1.319258	-0.530288	-1.037115
C145	C	1.251911	-0.580863	-1.078222
H146	H	1.418218	-0.520528	-1.123141
H147	H	1.332348	-0.455794	-1.123134
H148	H	1.365061	-0.560516	-1.004938
H149	H	1.279176	-0.495805	-1.004915
H150	H	1.206102	-0.550634	-1.110413
H151	H	1.291980	-0.615362	-1.110419
H152	H	1.211933	-0.610897	-1.041706
C153	C	1.658614	-0.275017	-1.091026
C154	C	1.635790	-0.196814	-1.070956
C155	C	1.702964	-0.146111	-1.112134
H156	H	1.649072	-0.282139	-1.146111
H157	H	1.729212	-0.286542	-1.077476
H158	H	1.565210	-0.185292	-1.084512
H159	H	1.645338	-0.189667	-1.015879
H160	H	1.773562	-0.157637	-1.098583
H161	H	1.693418	-0.153240	-1.167216
H162	H	1.687495	-0.093045	-1.098517
C163	C	1.725846	-0.224570	-0.795285
C164	C	1.784712	-0.180278	-0.849110
C165	C	1.851962	-0.129632	-0.808001
H166	H	1.771687	-0.254725	-0.763067
H167	H	1.685684	-0.190092	-0.763112
H168	H	1.824871	-0.214752	-0.881269
H169	H	1.738898	-0.150107	-0.881329
H170	H	1.811799	-0.095154	-0.775829
H171	H	1.897796	-0.159793	-0.775785
H172	H	1.891903	-0.099569	-0.844515
H173	H	1.707576	-0.955216	-0.238685
C174	C	1.725715	-0.794345	-0.224830
C175	C	1.702937	-0.814492	-0.146610
C176	C	1.770103	-0.773323	-0.095956
H177	H	1.716132	-0.739259	-0.231951
H178	H	1.796317	-0.807851	-0.236401
H179	H	1.632352	-0.800981	-0.135043
H180	H	1.712526	-0.869571	-0.139465
H181	H	1.840706	-0.786829	-0.107527
H182	H	1.760516	-0.718240	-0.103084
H183	H	1.754665	-0.786993	-0.042878
C184	C	1.658369	-0.275198	-0.671202
C185	C	1.598901	-0.224552	-0.623810
C186	C	1.665931	-0.173966	-0.582426
H187	H	1.698444	-0.245013	-0.707520
H188	H	1.704095	-0.305427	-0.638944
H189	H	1.553193	-0.194325	-0.656064
H190	H	1.558828	-0.254715	-0.587476
H191	H	1.711658	-0.204195	-0.550168
H192	H	1.706002	-0.143786	-0.618750
H193	H	1.625593	-0.139602	-0.550260
H194	H	1.396263	-0.681662	-0.472442
H195	H	1.217885	-0.481986	-0.481718
