data_functionalizedCrystal
_audit_creation_method	'MofGen! by Chris Wilmer'
_symmetry_space_group_name_H-M	'P1'
_symmetry_Int_Tables_number	1
_symmetry_cell_setting	triclinic
loop_
_symmetry_equiv_pos_as_xyz
  x,y,z
_cell_length_a	14.519731
_cell_length_b	14.519731
_cell_length_c	9.130313
_cell_angle_alpha	89.994496
_cell_angle_beta	89.996385
_cell_angle_gamma	83.688853
loop_
_atom_site_label
_atom_site_type_symbol
_atom_site_fract_x
_atom_site_fract_y
_atom_site_fract_z
O1	O	1.223863	0.120983	-0.121806
O2	O	1.473863	0.370983	0.128194
O3	O	1.723863	0.620983	0.378194
O4	O	1.973863	0.870983	0.628194
O5	O	0.955390	0.135199	-0.121808
O6	O	1.205390	0.385199	0.128192
O7	O	1.455390	0.635199	0.378192
O8	O	1.705390	0.885199	0.628192
O9	O	1.096735	-0.006145	-0.121794
O10	O	1.346735	0.243855	0.128206
O11	O	1.596735	0.493855	0.378206
O12	O	1.846735	0.743855	0.628206
O13	O	1.082519	0.262328	-0.121821
O14	O	1.332519	0.512328	0.128179
O15	O	1.582519	0.762328	0.378179
O16	O	1.832519	1.012328	0.628179
O17	O	1.096725	-0.006149	0.121805
O18	O	1.346725	0.243851	0.371805
O19	O	1.596725	0.493851	0.621805
O20	O	1.846725	0.743851	0.871805
O21	O	0.955381	0.135195	0.121790
O22	O	1.205381	0.385195	0.371790
O23	O	1.455381	0.635195	0.621790
O24	O	1.705381	0.885195	0.871790
O25	O	1.223854	0.120979	0.121793
O26	O	1.473854	0.370979	0.371793
O27	O	1.723854	0.620979	0.621793
O28	O	1.973854	0.870979	0.871793
Cu29	Cu	1.089616	0.128087	0.144034
Cu30	Cu	1.339616	0.378087	0.394034
Cu31	Cu	1.589616	0.628087	0.644034
Cu32	Cu	1.839616	0.878087	0.894034
Cu33	Cu	1.089628	0.128092	-0.144050
Cu34	Cu	1.339628	0.378092	0.105950
Cu35	Cu	1.589628	0.628092	0.355950
Cu36	Cu	1.839628	0.878092	0.605950
O37	O	1.082509	0.262324	0.121778
O38	O	1.332509	0.512324	0.371778
O39	O	1.582509	0.762324	0.621778
O40	O	1.832509	1.012324	0.871778
C41	C	0.921026	0.134531	-0.000009
C42	C	1.171026	0.384531	0.249991
C43	C	1.421026	0.634531	0.499991
C44	C	1.671026	0.884531	0.749991
C45	C	0.818645	0.132535	-0.000010
C46	C	1.068645	0.382535	0.249990
C47	C	1.318645	0.632535	0.499990
C48	C	1.568645	0.882535	0.749990
C49	C	0.735501	0.130913	-0.000016
C50	C	0.985501	0.380913	0.249984
C51	C	1.235501	0.630913	0.499984
C52	C	1.485501	0.880913	0.749984
C53	C	0.631192	0.128887	-0.000016
C54	C	0.881192	0.378887	0.249984
C55	C	1.131192	0.628887	0.499984
C56	C	1.381192	0.878887	0.749984
C57	C	0.548053	0.127278	-0.000016
C58	C	0.798053	0.377278	0.249984
C59	C	1.048053	0.627278	0.499984
C60	C	1.298053	0.877278	0.749984
C61	C	0.443738	0.125252	-0.000019
C62	C	0.693738	0.375252	0.249981
C63	C	0.943738	0.625252	0.499981
C64	C	1.193738	0.875252	0.749981
C65	C	1.096064	-0.040507	0.000006
C66	C	1.346064	0.209493	0.250006
C67	C	1.596064	0.459493	0.500006
C68	C	1.846064	0.709493	0.750006
C69	C	1.094068	-0.142887	0.000007
C70	C	1.344068	0.107113	0.250007
C71	C	1.594068	0.357113	0.500007
C72	C	1.844068	0.607113	0.750007
C73	C	1.092446	-0.226031	0.000003
C74	C	1.342446	0.023969	0.250003
C75	C	1.592446	0.273969	0.500003
C76	C	1.842446	0.523969	0.750003
C77	C	1.090419	-0.330340	-0.000008
C78	C	1.340419	-0.080340	0.249992
C79	C	1.590419	0.169660	0.499992
C80	C	1.840419	0.419660	0.749992
C81	C	1.088811	-0.413479	-0.000017
C82	C	1.338811	-0.163479	0.249983
C83	C	1.588811	0.086521	0.499983
C84	C	1.838811	0.336521	0.749983
C85	C	1.086785	-0.517795	-0.000026
C86	C	1.336785	-0.267795	0.249974
C87	C	1.586785	-0.017795	0.499974
C88	C	1.836785	0.232205	0.749974
C89	C	1.258218	0.121648	-0.000009
C90	C	1.508218	0.371648	0.249991
C91	C	1.758218	0.621648	0.499991
C92	C	2.008218	0.871648	0.749991
C93	C	1.360598	0.123644	-0.000018
C94	C	1.610598	0.373644	0.249982
C95	C	1.860598	0.623644	0.499982
C96	C	2.110598	0.873644	0.749982
C97	C	1.083180	0.296685	-0.000025
C98	C	1.333180	0.546685	0.249975
C99	C	1.583180	0.796685	0.499975
C100	C	1.833180	1.046685	0.749975
C101	C	1.085176	0.399066	-0.000035
C102	C	1.335176	0.649066	0.249965
C103	C	1.585176	0.899066	0.499965
C104	C	1.835176	1.149066	0.749965
N105	N	1.089615	0.128083	0.346657
N106	N	1.339615	0.378083	0.596657
N107	N	1.589615	0.628083	0.846657
N108	N	1.839615	0.878083	1.096657
N109	N	1.089636	0.128088	-0.346672
N110	N	1.339636	0.378088	-0.096672
N111	N	1.589636	0.628088	0.153328
N112	N	1.839636	0.878088	0.403328
C113	C	1.152223	0.065522	0.423315
C114	C	1.402223	0.315522	0.673315
C115	C	1.652223	0.565522	0.923315
C116	C	1.902223	0.815522	1.173315
C117	C	1.152232	0.065522	0.576652
C118	C	1.402232	0.315522	0.826652
C119	C	1.652232	0.565522	1.076652
C120	C	1.902232	0.815522	1.326652
C121	C	1.027021	0.190652	0.576659
C122	C	1.277021	0.440652	0.826659
C123	C	1.527021	0.690652	1.076659
C124	C	1.777021	0.940652	1.326659
C125	C	1.027009	0.190647	0.423325
C126	C	1.277009	0.440647	0.673325
C127	C	1.527009	0.690647	0.923325
C128	C	1.777009	0.940647	1.173325
H129	H	1.203212	0.014578	0.639063
H130	H	1.453212	0.264578	0.889063
H131	H	1.703212	0.514578	1.139063
H132	H	1.953212	0.764578	1.389063
H133	H	0.976021	0.241592	0.360905
H134	H	1.226021	0.491592	0.610905
H135	H	1.476021	0.741592	0.860905
H136	H	1.726021	0.991592	1.110905
H137	H	0.976050	0.241592	0.639097
H138	H	1.226050	0.491592	0.889097
H139	H	1.476050	0.741592	1.139097
H140	H	1.726050	0.991592	1.389097
H141	H	1.203200	0.014577	0.360896
H142	H	1.453200	0.264577	0.610896
H143	H	1.703200	0.514577	0.860896
H144	H	1.953200	0.764577	1.110896
