data_functionalizedCrystal
_audit_creation_method	'MofGen! by Chris Wilmer'
_symmetry_space_group_name_H-M	'P1'
_symmetry_Int_Tables_number	1
_symmetry_cell_setting	triclinic
loop_
_symmetry_equiv_pos_as_xyz
  x,y,z
_cell_length_a	9.065218
_cell_length_b	23.532407
_cell_length_c	7.540329
_cell_angle_alpha	89.991770
_cell_angle_beta	89.996962
_cell_angle_gamma	83.932281
loop_
_atom_site_label
_atom_site_type_symbol
_atom_site_fract_x
_atom_site_fract_y
_atom_site_fract_z
O1	O	1.956284	0.083497	-0.147508
O2	O	1.526662	0.090346	-0.147513
O3	O	1.754428	0.004085	-0.147478
O4	O	1.728517	0.169758	-0.147543
O5	O	1.754415	0.004084	0.147487
O6	O	1.526648	0.090345	0.147453
O7	O	1.956270	0.083496	0.147457
Cu8	Cu	1.741458	0.086921	0.174387
Cu9	Cu	1.741474	0.086922	-0.174443
O10	O	1.728504	0.169757	0.147422
C11	C	1.471701	0.089687	-0.000030
C12	C	1.307955	0.087719	-0.000030
C13	C	1.753761	-0.017136	0.000009
C14	C	1.751778	-0.080368	0.000023
C15	C	1.874123	-0.478573	-0.000073
C16	C	1.872280	-0.537986	-0.000087
O17	O	1.985695	-0.573898	-0.000151
N18	N	1.736873	-0.561607	-0.000087
C19	C	1.603300	-0.525810	-0.000091
O20	O	1.487956	-0.551356	-0.000094
C21	C	1.605144	-0.466397	-0.000090
C22	C	1.740560	-0.442780	-0.000072
C23	C	2.009527	-0.454955	-0.000057
C24	C	2.011370	-0.395546	-0.000040
C25	C	1.877807	-0.359753	-0.000040
C26	C	1.742402	-0.383371	-0.000056
C27	C	1.471573	-0.430601	-0.000108
C28	C	1.473429	-0.371185	-0.000108
C29	C	1.608845	-0.347568	-0.000090
C30	C	1.610682	-0.288169	-0.000038
N31	N	1.746089	-0.264548	-0.000038
C32	C	1.879651	-0.300341	-0.000039
C33	C	1.599437	-0.650581	-0.000096
C34	C	1.597591	-0.709992	-0.000084
C35	C	1.866571	-0.722165	-0.000083
C36	C	1.868416	-0.662752	-0.000082
C37	C	1.734844	-0.626960	-0.000096
C38	C	1.883510	-0.175576	-0.000002
C39	C	1.885340	-0.116160	0.000022
C40	C	1.616360	-0.103993	0.000011
C41	C	1.614529	-0.163403	-0.000003
C42	C	1.748116	-0.199194	-0.000016
O43	O	1.497326	-0.252222	0.000019
O44	O	1.994976	-0.274786	-0.000059
C45	C	2.011231	0.084155	-0.000030
C46	C	2.174977	0.086123	-0.000041
C47	C	1.729170	0.190979	-0.000069
C48	C	1.731154	0.254210	-0.000094
N49	N	1.741458	0.086919	0.419736
N50	N	1.741486	0.086919	-0.419792
H51	H	1.995617	-0.096935	0.000041
H52	H	1.490659	-0.621442	-0.000092
C53	C	1.456384	-0.223165	0.151610
C54	C	1.465677	-0.189364	-0.000004
H55	H	1.364482	-0.239185	0.151598
H56	H	1.535649	-0.252986	0.151584
H57	H	1.462695	-0.200245	0.254470
H58	H	1.459376	-0.212285	-0.102866
H59	H	1.386390	-0.159539	0.000005
H60	H	1.507618	-0.074840	0.000018
C61	C	2.238252	-0.483602	-0.151665
C62	C	2.156361	-0.494290	-0.000048
H63	H	2.328911	-0.507881	-0.151640
H64	H	2.182712	-0.490844	-0.254513
H65	H	2.258690	-0.444833	-0.151648
H66	H	2.135913	-0.533058	-0.000071
H67	H	2.211912	-0.487053	0.102826
C68	C	1.319450	-0.297303	-0.151748
C69	C	1.326598	-0.331844	-0.000122
H70	H	1.228799	-0.273019	-0.151755
H71	H	1.400342	-0.274733	-0.151721
H72	H	1.324338	-0.320733	-0.254600
H73	H	1.321721	-0.308413	0.102731
H74	H	1.245684	-0.354416	-0.000133
H75	H	1.992289	-0.204710	-0.000019
H76	H	1.361303	-0.449820	-0.000133
C77	C	2.020533	-0.796032	-0.151756
C78	C	2.013394	-0.761514	-0.000111
H79	H	2.111174	-0.820322	-0.151776
H80	H	1.939629	-0.818596	-0.151741
H81	H	2.015661	-0.772587	-0.254596
H82	H	2.018255	-0.784959	0.102729
H83	H	2.094320	-0.738948	-0.000110
C84	C	2.134099	-0.680765	-0.000093
C85	C	2.017268	-0.636796	-0.000090
H86	H	2.225996	-0.664742	-0.000114
H87	H	2.127780	-0.703685	0.102767
H88	H	2.127767	-0.703683	-0.102955
H89	H	2.023594	-0.613880	0.102780
H90	H	2.023590	-0.613866	-0.102961
C91	C	1.367768	-0.717889	-0.151721
C92	C	1.448739	-0.735949	-0.000089
H93	H	1.275875	-0.733915	-0.151734
H94	H	1.349766	-0.677387	-0.151696
H95	H	1.422743	-0.730126	-0.254570
H96	H	1.393768	-0.723708	0.102760
H97	H	1.466736	-0.776459	-0.000098
H98	H	2.121639	-0.376323	-0.000033
