data_functionalizedCrystal
_audit_creation_method	'MofGen! by Chris Wilmer'
_symmetry_space_group_name_H-M	'P1'
_symmetry_Int_Tables_number	1
_symmetry_cell_setting	triclinic
loop_
_symmetry_equiv_pos_as_xyz
  x,y,z
_cell_length_a	10.540539
_cell_length_b	17.699083
_cell_length_c	16.776229
_cell_angle_alpha	90.001114
_cell_angle_beta	89.995514
_cell_angle_gamma	96.095747
loop_
_atom_site_label
_atom_site_type_symbol
_atom_site_fract_x
_atom_site_fract_y
_atom_site_fract_z
O1	O	0.160520	-1.005122	-0.066173
O2	O	0.181404	-0.784880	-0.066198
O3	O	-0.013836	-0.900026	-0.066184
O4	O	0.355761	-0.889976	-0.066187
O5	O	-0.013848	-0.900010	0.066393
O6	O	0.181392	-0.784864	0.066378
O7	O	0.160508	-1.005107	0.066404
Zn8	Zn	0.170948	-0.894983	0.087440
Zn9	Zn	0.170964	-0.895003	-0.087235
O10	O	0.355749	-0.889961	0.066389
C11	C	0.180650	-0.756670	0.000087
C12	C	0.178405	-0.672637	0.000077
C13	C	-0.061131	-0.899264	0.000103
C14	C	-0.202038	-0.897009	0.000098
C15	C	0.161263	-1.033316	0.000117
C16	C	0.163508	-1.117349	0.000122
C17	C	-0.383885	-0.810610	-0.000209
C18	C	-0.237308	-0.812896	0.000089
C19	C	-0.264443	-0.937480	0.075811
C20	C	-0.410935	-0.934609	0.075874
C21	C	-0.411471	-0.936337	-0.074890
C22	C	-0.264503	-0.937112	-0.075891
C23	C	0.403044	-0.890722	0.000101
C24	C	0.543951	-0.892977	0.000100
N25	N	0.170937	-0.894974	0.206652
C26	C	0.293007	-0.624761	0.000076
C27	C	0.290890	-0.545804	0.000086
C28	C	0.174170	-0.514725	0.000092
C29	C	0.059559	-0.562607	0.000095
C30	C	0.061677	-0.641562	0.000090
C31	C	0.051014	-0.244188	0.000115
C32	C	0.048904	-0.165226	0.000117
C33	C	0.280227	-0.148430	0.000111
C34	C	0.282345	-0.227386	0.000106
C35	C	0.167735	-0.275261	0.000113
C36	C	0.170032	-0.360875	0.000104
C37	C	0.171872	-0.429112	0.000096
N38	N	0.170966	-0.895018	-0.206446
C39	C	0.084520	-0.945977	0.248375
C40	C	0.084519	-0.945981	0.331827
C41	C	0.170942	-0.894986	0.373555
C42	C	0.257363	-0.843978	0.331825
C43	C	0.257357	-0.843971	0.248375
C44	C	0.257388	-0.844005	0.668372
C45	C	0.257390	-0.844018	0.751829
C46	C	0.084550	-0.946016	0.751825
C47	C	0.084544	-0.946009	0.668374
C48	C	0.170960	-0.894998	0.626652
C49	C	0.170958	-0.894993	0.536164
C50	C	0.170950	-0.894994	0.464041
H51	H	-0.194118	-0.781051	-0.054185
N52	N	-0.070341	-0.133491	0.000120
N53	N	-0.172661	-0.176243	0.000126
H54	H	-0.256875	-0.153830	0.000127
H55	H	-0.042309	-0.283159	0.000121
H56	H	-0.194971	-0.780815	0.054446
H57	H	-0.035477	-0.537295	0.000111
N58	N	-0.055398	-0.690458	0.000100
N59	N	-0.159605	-0.662701	0.000108
H60	H	-0.242295	-0.697233	0.000120
N61	N	-0.003837	-0.998033	0.205768
N62	N	-0.081040	-1.043535	0.243035
H63	H	-0.143477	-1.080284	0.212947
N64	N	-0.418995	-0.768913	-0.068306
N65	N	-0.371063	-0.701969	-0.078712
H66	H	-0.395869	-0.672517	-0.126806
H67	H	0.327725	-0.802438	0.214404
N68	N	-0.003727	-0.998114	0.625765
N69	N	-0.080876	-1.043653	0.663028
H70	H	-0.143219	-1.080455	0.632937
N71	N	0.345654	-0.791883	0.374433
N72	N	0.422803	-0.746347	0.337168
H73	H	0.485162	-0.709553	0.367257
N74	N	-0.003768	-0.998081	0.374434
N75	N	-0.080921	-1.043611	0.337169
H76	H	-0.143280	-1.080408	0.367258
H77	H	-0.413492	-0.777513	0.053774
N78	N	0.407950	-0.496897	0.000105
N79	N	0.432566	-0.450979	0.056003
H80	H	0.515247	-0.416439	0.056024
H81	H	-0.243219	-0.999250	0.078633
N82	N	-0.210400	-0.902187	0.146488
N83	N	-0.280199	-0.872900	0.195337
H84	H	-0.242035	-0.847970	0.245252
H85	H	0.014181	-0.987549	0.785804
N86	N	0.345683	-0.791920	0.794442
N87	N	0.422832	-0.746379	0.757182
H88	H	0.485188	-0.709586	0.787276
H89	H	-0.442521	-0.909121	-0.132275
H90	H	0.327753	-0.802472	0.634409
H91	H	-0.460010	-0.995102	0.079316
N92	N	-0.445616	-0.897057	0.146859
N93	N	-0.400349	-0.830106	0.160285
H94	H	-0.424835	-0.803581	0.210419
N95	N	0.397291	-0.099515	0.000105
N96	N	0.395392	-0.029020	0.000111
H97	H	0.478066	0.005526	0.000105
H98	H	-0.241403	-0.998438	-0.080455
N99	N	-0.212422	-0.900013	-0.146145
N100	N	-0.095361	-0.896779	-0.159705
H101	H	-0.058561	-0.870575	-0.209318
N102	N	-0.472076	-1.012560	-0.075520
N103	N	-0.455337	-1.056271	-0.018853
H104	H	-0.498137	-1.110103	-0.019292
N105	N	0.412248	-0.656492	0.000063
N106	N	0.514561	-0.613733	0.000064
H107	H	0.598780	-0.636140	0.000057
N108	N	0.401583	-0.259119	0.000093
N109	N	0.503900	-0.216364	0.000092
H110	H	0.588116	-0.238773	0.000085
