data_functionalizedCrystal
_audit_creation_method	'MofGen! by Chris Wilmer'
_symmetry_space_group_name_H-M	'P1'
_symmetry_Int_Tables_number	1
_symmetry_cell_setting	triclinic
loop_
_symmetry_equiv_pos_as_xyz
  x,y,z
_cell_length_a	13.033409
_cell_length_b	13.032868
_cell_length_c	19.805399
_cell_angle_alpha	97.153250
_cell_angle_beta	82.825371
_cell_angle_gamma	90.854064
loop_
_atom_site_label
_atom_site_type_symbol
_atom_site_fract_x
_atom_site_fract_y
_atom_site_fract_z
Zn1	Zn	1.520034	0.608893	0.307459
Zn2	Zn	1.498057	0.780865	0.210224
Zn3	Zn	1.348071	0.587108	0.206671
Zn4	Zn	1.326177	0.759006	0.335745
O5	O	1.423085	0.683968	0.265025
O6	O	1.661018	0.649972	0.284210
O7	O	1.478125	0.755194	0.115041
O8	O	1.389242	0.446087	0.206717
O9	O	1.644871	0.776318	0.212772
O10	O	1.515583	0.462093	0.280765
O11	O	1.367931	0.612841	0.112431
O12	O	1.201267	0.591645	0.234144
O13	O	1.351928	0.739062	0.426704
O14	O	1.185182	0.717937	0.328973
O15	O	1.494354	0.628775	0.405923
O16	O	1.456896	0.921876	0.240199
O17	O	1.330617	0.905816	0.332418
C18	C	1.155913	0.650056	0.284243
C19	C	1.041613	0.635573	0.292483
C20	C	0.864538	0.676565	0.269254
C21	C	0.982673	0.691537	0.260735
C22	C	1.389024	0.951164	0.289776
C23	C	1.374547	1.065484	0.300381
C24	C	1.430628	1.124369	0.259507
C25	C	1.415666	1.242525	0.270466
C26	C	1.691300	0.718014	0.245732
C27	C	1.805597	0.732522	0.237511
C28	C	1.423151	0.683911	0.441557
C29	C	1.423179	0.683886	0.516785
C30	C	1.457273	1.415728	0.240185
C31	C	1.471755	1.301409	0.229587
C32	C	1.423088	0.683959	0.089168
C33	C	1.423296	0.683719	0.013899
C34	C	1.497342	0.626457	0.541309
C35	C	1.497356	0.626428	0.611994
C36	C	1.423211	0.683836	0.658154
C37	C	1.349040	0.741267	0.633626
C38	C	1.349022	0.741289	0.562942
C39	C	1.349111	0.741178	0.918686
C40	C	1.349136	0.741154	0.989374
C41	C	1.497444	0.626318	0.967738
C42	C	1.497426	0.626340	0.897055
C43	C	1.423253	0.683766	0.872532
C44	C	1.423237	0.683795	0.795887
C45	C	1.423231	0.683813	0.734798
H46	H	1.489722	1.087313	0.216402
Br47	Br	1.598052	0.548539	0.645275
Br48	Br	1.598110	0.548378	1.001022
H49	H	1.356577	1.279580	0.313579
H50	H	0.827541	0.617577	0.302741
Br51	Br	1.044320	0.789878	0.204928
Br52	Br	1.598060	0.548433	0.834412
Br53	Br	0.979967	0.537246	0.348301
H54	H	1.288754	0.787904	1.026957
H55	H	1.530853	1.264356	0.186479
Br56	Br	1.276064	1.127241	0.372237
Br57	Br	1.248445	0.819113	0.885414
H58	H	1.288667	0.788005	0.671214
H59	H	1.288622	0.788042	0.542976
H60	H	0.842593	0.791519	0.204031
H61	H	1.557722	0.579712	0.503730
