data_functionalizedCrystal
_audit_creation_method	'MofGen! by Chris Wilmer'
_symmetry_space_group_name_H-M	'P1'
_symmetry_Int_Tables_number	1
_symmetry_cell_setting	triclinic
loop_
_symmetry_equiv_pos_as_xyz
  x,y,z
_cell_length_a	12.811457
_cell_length_b	15.995292
_cell_length_c	11.892095
_cell_angle_alpha	93.891493
_cell_angle_beta	91.498327
_cell_angle_gamma	83.757111
loop_
_atom_site_label
_atom_site_type_symbol
_atom_site_fract_x
_atom_site_fract_y
_atom_site_fract_z
O1	O	1.389172	0.115517	0.048418
O2	O	1.085808	0.126019	0.017317
O3	O	1.245814	-0.001046	0.033719
O4	O	1.229166	0.242582	0.032016
O5	O	1.232473	0.009532	0.220359
O6	O	1.072467	0.136597	0.203957
O7	O	1.375831	0.126095	0.235058
Zn8	Zn	1.222031	0.133025	0.249140
Zn9	Zn	1.239608	0.119089	0.003234
O10	O	1.215825	0.253159	0.218656
C11	C	1.040319	0.130395	0.106657
C12	C	0.924650	0.127666	0.094798
C13	C	0.692750	0.134055	0.276012
C14	C	0.584068	0.131490	0.264875
C15	C	0.598603	0.119966	0.061389
C16	C	0.707285	0.122531	0.072526
C17	C	0.754354	0.129576	0.179841
C18	C	0.863037	0.132147	0.190976
C19	C	0.877571	0.120617	-0.012509
C20	C	0.768889	0.118053	-0.023646
C21	C	1.238466	-0.026959	0.126967
C22	C	1.236436	-0.119931	0.126750
C23	C	1.228967	-0.457738	0.125995
C24	C	1.344425	-0.433327	0.138252
C25	C	1.346650	-0.336655	0.138052
C26	C	1.232673	-0.290148	0.126370
C27	C	1.182553	-0.325827	0.013874
C28	C	1.181168	-0.422636	0.013646
C29	C	1.163639	-0.410486	0.225649
C30	C	1.167818	-0.313874	0.227492
C31	C	1.234761	-0.195433	0.126578
C32	C	1.226875	-0.552454	0.125779
C33	C	1.421320	0.121718	0.145715
C34	C	1.536990	0.124447	0.157567
C35	C	1.223173	0.279072	0.125406
C36	C	1.225204	0.372044	0.125615
N37	N	1.210042	0.142536	0.416966
N38	N	1.251605	0.109571	-0.164590
C39	C	1.335026	0.043341	0.666426
C40	C	1.326654	0.049995	0.783909
C41	C	1.184921	0.162495	0.769418
C42	C	1.193294	0.155841	0.651935
C43	C	1.268349	0.096262	0.600443
C44	C	1.276726	0.089613	0.482957
C45	C	1.134989	0.202108	0.468468
C46	C	1.126617	0.208762	0.585952
H47	H	0.730551	0.112313	-0.111018
H48	H	1.337843	0.041103	0.441034
H49	H	1.396146	-0.005165	0.624501
H50	H	1.098963	-0.294965	0.001315
C51	C	1.067261	-0.443755	-0.004667
C52	C	1.014772	-0.489326	0.085045
C53	C	0.900874	-0.510451	0.066705
C54	C	0.839465	-0.486005	-0.041346
C55	C	0.891953	-0.440432	-0.131065
C56	C	1.005851	-0.419307	-0.112725
H57	H	1.060231	-0.507425	0.165037
H58	H	0.862019	-0.544188	0.133122
H59	H	0.755150	-0.501643	-0.054922
H60	H	0.846494	-0.422333	-0.211057
H61	H	1.044706	-0.385570	-0.179142
C62	C	0.945334	0.115685	-0.118309
C63	C	1.033899	0.043310	-0.137431
C64	C	1.101660	0.038380	-0.243230
C65	C	1.080856	0.105825	-0.329907
C66	C	0.992288	0.178206	-0.310788
C67	C	0.924527	0.183136	-0.204989
H68	H	1.049302	-0.006622	-0.073265
H69	H	1.167224	-0.015202	-0.257383
H70	H	1.131017	0.102176	-0.408226
H71	H	0.976884	0.228138	-0.374954
H72	H	0.858963	0.236717	-0.190836
C73	C	1.204643	-0.442001	0.339823
C74	C	1.319009	-0.433356	0.377851
C75	C	1.359995	-0.464868	0.492032
C76	C	1.286613	-0.505025	0.568186
C77	C	1.172239	-0.513672	0.530159
C78	C	1.131254	-0.482160	0.415977
H79	H	1.373337	-0.403628	0.321476
H80	H	1.444662	-0.458467	0.520181
H81	H	1.316953	-0.528353	0.652709
H82	H	1.117911	-0.543401	0.586533
H83	H	1.046587	-0.488562	0.387828
C84	C	1.244377	-0.304306	-0.087730
C85	C	1.340277	-0.254410	-0.068852
C86	C	1.402108	-0.232892	-0.170452
C87	C	1.368039	-0.261270	-0.290930
C88	C	1.272134	-0.311169	-0.309814
C89	C	1.210303	-0.332687	-0.208214
H90	H	1.365501	-0.233401	0.020337
H91	H	1.473103	-0.195953	-0.156473
H92	H	1.413810	-0.245340	-0.366141
H93	H	1.246910	-0.332178	-0.399003
H94	H	1.139308	-0.369626	-0.222193
C95	C	0.546810	0.112211	-0.056646
C96	C	0.485944	0.036306	-0.091058
C97	C	0.434148	0.028550	-0.209092
C98	C	0.443217	0.096700	-0.292715
C99	C	0.504085	0.172610	-0.258305
C100	C	0.555881	0.180366	-0.140270
H101	H	0.479228	-0.014146	-0.029154
H102	H	0.389089	-0.027644	-0.234564
H103	H	0.404874	0.090958	-0.380091
H104	H	0.510801	0.223063	-0.320209
H105	H	0.600940	0.236560	-0.114798
H106	H	1.065505	0.257268	0.627890
H107	H	1.080700	0.245203	0.414731
C108	C	1.400002	-0.008217	0.856492
C109	C	1.482571	-0.073736	0.799849
C110	C	1.555921	-0.131952	0.872433
C111	C	1.546702	-0.124649	1.001659
C112	C	1.464129	-0.059127	1.058309
C113	C	1.390779	-0.000911	0.985725
H114	H	1.489399	-0.079145	0.704182
H115	H	1.617047	-0.180456	0.830496
H116	H	1.601000	-0.167744	1.055389
H117	H	1.457302	-0.053718	1.153976
H118	H	1.329653	0.047592	1.027662
H119	H	1.123806	0.210996	0.811358
H120	H	0.901358	0.137889	0.278357
C121	C	1.400373	-0.304533	0.247515
C122	C	1.354081	-0.317244	0.362564
C123	C	1.407815	-0.285131	0.472028
C124	C	1.507842	-0.240307	0.466442
C125	C	1.554140	-0.227595	0.351388
C126	C	1.500405	-0.259708	0.241925
H127	H	1.280030	-0.350426	0.366703
H128	H	1.373542	-0.294541	0.557198
H129	H	1.547619	-0.216535	0.547474
H130	H	1.628190	-0.194412	0.347250
H131	H	1.534678	-0.250297	0.156754
H132	H	1.383476	-0.456577	0.219246
H133	H	1.394125	-0.466239	0.066788
C134	C	0.744539	0.141823	0.394047
C135	C	0.711750	0.218790	0.475221
C136	C	0.763541	0.226566	0.593256
C137	C	0.848122	0.157375	0.630117
C138	C	0.880915	0.080402	0.548941
C139	C	0.829124	0.072626	0.430906
H140	H	0.649135	0.270015	0.447936
H141	H	0.739265	0.283547	0.653347
H142	H	0.886460	0.163131	0.717494
H143	H	0.943531	0.029178	0.576226
H144	H	0.853401	0.015646	0.370815
H145	H	0.533913	0.135141	0.343187
H146	H	1.226850	-0.453595	-0.061925
C147	C	1.216988	-0.282223	0.339835
C148	C	1.315561	-0.235053	0.339801
C149	C	1.364733	-0.203396	0.452141
C150	C	1.315332	-0.218908	0.564515
C151	C	1.216753	-0.266080	0.564553
C152	C	1.167581	-0.297737	0.452213
H153	H	1.352136	-0.223567	0.256611
H154	H	1.437708	-0.168476	0.452113
H155	H	1.351732	-0.195474	0.647676
H156	H	1.180179	-0.277566	0.647743
H157	H	1.094606	-0.332657	0.452241
C158	C	1.054806	-0.269892	0.224676
C159	C	1.019272	-0.211405	0.130080
C160	C	0.906256	-0.167423	0.127255
C161	C	0.828773	-0.181929	0.219026
C162	C	0.864305	-0.240419	0.313629
C163	C	0.977321	-0.284401	0.316454
H164	H	1.076631	-0.200665	0.062139
H165	H	0.879953	-0.124125	0.057223
H166	H	0.745111	-0.149371	0.216935
H167	H	0.806946	-0.251159	0.381570
H168	H	1.003624	-0.327699	0.386486
H169	H	1.078579	-0.425227	0.217654
H170	H	1.397607	-0.322164	0.066183
