data_functionalizedCrystal
_audit_creation_method	'MofGen! by Chris Wilmer'
_symmetry_space_group_name_H-M	'P1'
_symmetry_Int_Tables_number	1
_symmetry_cell_setting	triclinic
loop_
_symmetry_equiv_pos_as_xyz
  x,y,z
_cell_length_a	16.109301
_cell_length_b	19.188930
_cell_length_c	15.186229
_cell_angle_alpha	89.991143
_cell_angle_beta	89.999362
_cell_angle_gamma	83.303131
loop_
_atom_site_label
_atom_site_type_symbol
_atom_site_fract_x
_atom_site_fract_y
_atom_site_fract_z
O1	O	1.102833	0.089744	-0.073183
O2	O	0.860734	0.100912	-0.073198
O3	O	0.988770	-0.006311	-0.073173
O4	O	0.974797	0.196967	-0.073208
O5	O	0.988762	-0.006313	0.073284
O6	O	0.860726	0.100911	0.073259
O7	O	1.102825	0.089742	0.073274
Zn8	Zn	0.981774	0.095326	0.096520
Zn9	Zn	0.981785	0.095328	-0.096444
O10	O	0.974789	0.196966	0.073249
C11	C	0.829757	0.100459	0.000029
C12	C	0.737466	0.099103	0.000024
C13	C	0.988313	-0.032324	0.000058
C14	C	0.986955	-0.109832	0.000066
C15	C	0.514993	0.159573	0.000023
C16	C	0.428277	0.158294	0.000029
C17	C	0.448573	0.031076	0.000048
C18	C	0.535287	0.032357	0.000048
C19	C	0.568495	0.096608	0.000031
C20	C	0.395064	0.094047	0.000037
C21	C	0.301043	0.092659	0.000043
C22	C	0.662522	0.097996	0.000027
C23	C	1.062082	-0.154580	0.000075
C24	C	1.060806	-0.227407	0.000060
C25	C	0.984399	-0.255482	0.000055
C26	C	0.909261	-0.210724	0.000041
C27	C	0.910540	-0.137899	0.000046
N28	N	0.925991	-0.363624	0.049893
N29	N	0.924782	-0.432805	0.049890
C30	C	0.980543	-0.474900	0.000037
N31	N	1.037571	-0.445200	-0.049802
N32	N	1.038783	-0.376013	-0.049795
C33	C	0.983004	-0.334448	0.000049
C34	C	1.054292	-0.598616	0.000029
C35	C	1.053012	-0.671443	0.000010
C36	C	0.901465	-0.654759	-0.000001
C37	C	0.902747	-0.581933	0.000010
C38	C	0.979162	-0.553866	0.000029
C39	C	1.133802	0.090196	0.000045
C40	C	1.226093	0.091552	0.000045
C41	C	0.975246	0.222979	0.000016
C42	C	0.976604	0.300486	0.000003
N43	N	0.981772	0.095325	0.228213
N44	N	0.981793	0.095325	-0.228137
C45	C	1.038486	0.047862	0.453947
C46	C	1.038488	0.047860	0.546136
C47	C	0.925074	0.142790	0.546123
C48	C	0.925068	0.142787	0.453935
C49	C	0.981779	0.095324	0.407849
C50	C	0.981787	0.095325	0.592227
C51	C	0.981790	0.095323	0.692183
C52	C	0.981775	0.095325	0.307887
H53	H	0.542027	0.211890	0.000016
H54	H	0.384719	0.209567	0.000024
O55	O	0.416174	-0.031272	0.000018
C56	C	0.328165	-0.018903	0.000035
H57	H	0.307601	0.035589	-0.027699
H58	H	0.301691	-0.060010	-0.042481
H59	H	0.304036	-0.022284	0.070298
H60	H	0.578851	-0.018920	0.000057
O61	O	1.125940	-0.714987	0.000131
C62	C	1.129734	-0.757616	0.075987
H63	H	1.063752	-0.761288	0.101265
H64	H	1.160903	-0.812354	0.058922
H65	H	1.167614	-0.733680	0.129111
H66	H	0.841570	-0.545497	0.000008
O67	O	1.136383	-0.127433	0.000049
C68	C	1.202419	-0.182552	0.000077
H69	H	1.179296	-0.232014	-0.027657
H70	H	1.255788	-0.167339	-0.042435
H71	H	1.225572	-0.192873	0.070342
O72	O	1.133765	-0.270915	-0.000081
C73	C	1.137562	-0.313544	-0.075920
H74	H	1.094963	-0.286856	-0.128946
H75	H	1.204568	-0.321750	-0.101365
H76	H	1.116227	-0.366495	-0.058776
O77	O	0.835091	-0.238076	-0.000080
C78	C	0.829816	-0.279677	-0.075944
H79	H	0.895413	-0.297825	-0.101226
H80	H	0.796848	-0.327361	-0.058890
H81	H	0.792921	-0.247488	-0.129062
O82	O	1.093542	0.001661	0.590818
C83	C	1.080269	-0.067459	0.568321
H84	H	1.048219	-0.067380	0.501389
H85	H	1.142887	-0.101827	0.565168
H86	H	1.038969	-0.089062	0.620212
H87	H	0.849360	-0.101464	0.000039
H88	H	0.839253	-0.677617	-0.000010
H89	H	1.116514	-0.575763	0.000041
O90	O	1.093436	0.001697	0.409101
C91	C	1.049035	-0.041396	0.355835
H92	H	0.983896	-0.013577	0.342002
H93	H	1.083772	-0.052482	0.291016
H94	H	1.043535	-0.092977	0.391412
H95	H	0.878902	0.181434	0.583655
H96	H	0.878886	0.181437	0.416400
