data_functionalizedCrystal
_audit_creation_method	'MofGen! by Chris Wilmer'
_symmetry_space_group_name_H-M	'P1'
_symmetry_Int_Tables_number	1
_symmetry_cell_setting	triclinic
loop_
_symmetry_equiv_pos_as_xyz
  x,y,z
_cell_length_a	18.101397
_cell_length_b	18.101398
_cell_length_c	18.101389
_cell_angle_alpha	89.991407
_cell_angle_beta	90.018351
_cell_angle_gamma	89.985428
loop_
_atom_site_label
_atom_site_type_symbol
_atom_site_fract_x
_atom_site_fract_y
_atom_site_fract_z
Zn1	Zn	-0.295010	-1.132179	0.418528
Zn2	Zn	-0.418836	-1.132100	0.294687
Zn3	Zn	-0.295001	-1.008338	0.294723
Zn4	Zn	-0.418803	-1.008313	0.418509
O5	O	-0.356912	-1.070233	0.356612
O6	O	-0.311453	-1.235802	0.402093
O7	O	-0.402419	-1.115659	0.191059
O8	O	-0.191369	-1.024810	0.311169
O9	O	-0.402427	-1.235743	0.311107
O10	O	-0.191376	-1.115795	0.402128
O11	O	-0.311438	-1.024732	0.191086
O12	O	-0.311406	-0.904702	0.311151
O13	O	-0.402371	-1.024767	0.522145
O14	O	-0.402363	-0.904684	0.402096
O15	O	-0.311421	-1.115771	0.522159
O16	O	-0.522464	-1.115635	0.311089
O17	O	-0.522440	-1.024690	0.402061
C18	C	-0.356881	-0.877822	0.356626
C19	C	-0.356885	-0.795508	0.356650
C20	C	-0.356925	-0.496417	0.356625
C21	C	-0.414429	-0.527756	0.413562
C22	C	-0.414250	-0.613374	0.413794
C23	C	-0.356906	-0.644800	0.356637
C24	C	-0.278907	-0.613730	0.377966
C25	C	-0.279251	-0.528085	0.378372
C26	C	-0.376732	-0.527968	0.278222
C27	C	-0.378445	-0.613619	0.278639
C28	C	-0.356890	-0.728659	0.356643
C29	C	-0.356935	-0.412558	0.356621
C30	C	-0.549323	-1.070172	0.356585
C31	C	-0.631637	-1.070213	0.356598
C32	C	-0.782345	-1.070258	0.356624
C33	C	-0.813683	-1.127535	0.299442
C34	C	-0.899302	-1.127392	0.299232
C35	C	-0.930728	-1.070304	0.356648
C36	C	-0.899701	-0.992202	0.335655
C37	C	-0.814056	-0.992507	0.335226
C38	C	-0.813855	-1.090411	0.434947
C39	C	-0.899505	-1.092159	0.434544
C40	C	-1.014587	-1.070325	0.356664
C41	C	-0.698486	-1.070232	0.356606
C42	C	-0.163751	-1.070314	0.356655
C43	C	-0.081436	-1.070349	0.356673
C44	C	-0.356894	-1.070275	0.549774
C45	C	-0.356886	-1.070294	0.632088
C46	C	-0.356941	-0.263394	0.356603
C47	C	-0.356945	-0.345709	0.356612
C48	C	-0.356878	-1.070233	0.164201
C49	C	-0.356677	-1.070358	0.081888
C50	C	-0.356747	-1.070337	0.931179
C51	C	-0.413788	-1.012883	0.899845
C52	C	-0.414053	-1.013038	0.814227
C53	C	-0.356816	-1.070315	0.782797
C54	C	-0.378007	-1.148344	0.813881
C55	C	-0.378381	-1.148024	0.899526
C56	C	-0.278388	-1.050440	0.899609
C57	C	-0.278840	-1.048704	0.813958
C58	C	-0.356853	-1.070307	0.698937
C59	C	-0.356711	-1.070350	1.015039
H60	H	-0.339602	-0.635011	0.233937
N61	N	-0.926361	-1.168290	0.455526
H62	H	-0.882591	-1.202069	0.463109
H63	H	-0.958630	-1.188479	0.414729
H64	H	-0.338639	-1.192284	0.920254
N65	N	-0.928154	-0.969236	0.260663
H66	H	-0.957268	-0.921874	0.265465
H67	H	-0.961105	-1.009346	0.240221
H68	H	-0.793051	-1.185611	0.312401
N69	N	-0.252810	-0.976380	0.928217
H70	H	-0.291764	-0.954976	0.961938
H71	H	-0.244348	-0.941797	0.885258
H72	H	-0.920894	-1.053514	0.479421
N73	N	-0.324701	-1.206576	0.786930
H74	H	-0.286212	-1.182879	0.754230
H75	H	-0.352551	-1.245229	0.757896
H76	H	-0.920058	-0.948376	0.376031
N77	N	-0.220607	-0.640696	0.324759
H78	H	-0.196543	-0.596991	0.299788
H79	H	-0.244303	-0.673402	0.286267
H80	H	-0.434680	-1.165501	0.792434
H81	H	-0.792198	-1.114345	0.241738
N82	N	-0.926505	-1.109722	0.222370
H83	H	-0.882860	-1.101990	0.188494
H84	H	-0.957414	-1.063286	0.223811
H85	H	-0.794123	-0.975455	0.277979
H86	H	-0.792208	-1.146378	0.454084
N87	N	-0.257660	-0.972645	0.787046
H88	H	-0.295423	-0.935488	0.804558
H89	H	-0.255898	-0.972504	0.731280
H90	H	-0.234085	-1.087496	0.792563
H91	H	-0.401146	-0.633874	0.471885
N92	N	-0.454260	-1.170355	0.925989
H93	H	-0.476175	-1.129180	0.956605
H94	H	-0.450240	-1.216544	0.957038
N95	N	-0.787013	-1.035159	0.491383
H96	H	-0.754601	-0.997255	0.466379
H97	H	-0.757702	-1.061626	0.530815
N98	N	-0.786591	-0.934044	0.388009
H99	H	-0.830121	-0.908187	0.411449
H100	H	-0.755694	-0.896897	0.360123
H101	H	-0.334846	-0.507702	0.235798
H102	H	-0.435840	-0.633934	0.262553
N103	N	-0.927087	-1.204102	0.316580
H104	H	-0.908581	-1.219703	0.366863
H105	H	-0.908397	-1.239783	0.277980
N106	N	-0.490864	-0.641207	0.396086
H107	H	-0.525057	-0.597840	0.388060
H108	H	-0.509644	-0.672129	0.438557
N109	N	-0.491299	-0.500468	0.396061
H110	H	-0.489597	-0.467524	0.351057
H111	H	-0.511092	-0.471611	0.439511
H112	H	-0.401491	-0.506243	0.471318
N113	N	-0.256243	-0.642151	0.453061
H114	H	-0.296382	-0.675145	0.473372
H115	H	-0.248307	-0.599061	0.487598
N116	N	-0.450773	-0.499344	0.252536
H117	H	-0.472227	-0.465629	0.291468
H118	H	-0.485336	-0.542297	0.244001
N119	N	-0.396489	-0.936402	0.786365
H120	H	-0.350212	-0.938056	0.755251
H121	H	-0.388537	-0.902243	0.829754
N122	N	-0.222089	-1.105867	0.926446
H123	H	-0.247178	-1.143686	0.958895
H124	H	-0.182565	-1.079522	0.955717
H125	H	-0.262449	-0.508120	0.435688
N126	N	-0.490974	-1.030470	0.787065
H127	H	-0.509862	-0.988073	0.756077
H128	H	-0.524802	-1.038105	0.830762
N129	N	-0.396395	-0.936001	0.927112
H130	H	-0.351374	-0.937665	0.960045
H131	H	-0.439863	-0.916253	0.955976
N132	N	-0.490256	-1.030122	0.928343
H133	H	-0.509604	-0.986550	0.957327
H134	H	-0.488041	-1.075000	0.961428
N135	N	-0.220584	-0.500605	0.325838
H136	H	-0.170643	-0.519346	0.342240
H137	H	-0.220429	-0.444811	0.325723
