data_functionalizedCrystal
_audit_creation_method	'MofGen! by Chris Wilmer'
_symmetry_space_group_name_H-M	'P1'
_symmetry_Int_Tables_number	1
_symmetry_cell_setting	triclinic
loop_
_symmetry_equiv_pos_as_xyz
  x,y,z
_cell_length_a	14.908571
_cell_length_b	12.759394
_cell_length_c	14.908308
_cell_angle_alpha	93.268403
_cell_angle_beta	90.175053
_cell_angle_gamma	86.711101
loop_
_atom_site_label
_atom_site_type_symbol
_atom_site_fract_x
_atom_site_fract_y
_atom_site_fract_z
Zn1	Zn	1.345341	-0.548282	-0.587592
Zn2	Zn	1.353935	-0.714462	-0.437236
Zn3	Zn	1.203654	-0.528102	-0.428590
Zn4	Zn	1.194963	-0.713213	-0.578887
O5	O	1.274473	-0.626015	-0.508076
O6	O	1.472308	-0.579294	-0.574908
O7	O	1.341234	-0.681818	-0.310264
O8	O	1.222490	-0.383762	-0.449706
O9	O	1.478622	-0.701385	-0.464442
O10	O	1.326587	-0.398588	-0.566525
O11	O	1.230824	-0.544900	-0.303912
O12	O	1.076675	-0.543690	-0.441266
O13	O	1.207676	-0.699258	-0.705867
O14	O	1.070289	-0.679690	-0.551688
O15	O	1.318159	-0.578083	-0.712262
O16	O	1.332806	-0.861313	-0.456001
O17	O	1.216010	-0.860396	-0.560072
C18	C	1.040856	-0.609365	-0.494595
C19	C	0.940913	-0.602270	-0.488849
C20	C	0.746516	-0.730752	-0.592880
C21	C	0.652610	-0.724088	-0.587484
C22	C	0.659192	-0.582274	-0.472666
C23	C	0.753098	-0.588938	-0.478062
C24	C	0.796757	-0.663180	-0.538170
C25	C	0.890665	-0.669848	-0.543561
C26	C	0.897246	-0.528030	-0.428748
C27	C	0.803340	-0.521366	-0.423352
C28	C	1.274420	-0.898977	-0.508051
C29	C	1.274478	-1.015759	-0.508075
C30	C	1.396180	-1.016672	-0.399798
C31	C	1.457053	-1.071992	-0.345671
C32	C	1.457105	-1.181719	-0.345698
C33	C	1.396278	-1.236129	-0.399860
C34	C	1.335404	-1.180809	-0.453987
C35	C	1.335358	-1.071079	-0.453952
C36	C	1.213709	-1.179897	-0.562269
C37	C	1.213651	-1.070169	-0.562238
C38	C	1.152882	-1.234306	-0.616431
C39	C	1.092002	-1.178986	-0.670555
C40	C	1.091953	-1.069252	-0.670524
C41	C	1.152778	-1.014849	-0.616365
C42	C	1.509002	-0.642730	-0.521611
C43	C	1.608945	-0.649853	-0.527378
C44	C	1.260989	-0.640782	-0.742602
C45	C	1.255243	-0.647075	-0.842543
C46	C	1.274549	-0.351989	-0.508122
C47	C	1.274582	-0.235216	-0.508142
C48	C	1.359488	-0.532697	-1.037003
C49	C	1.354092	-0.538606	-1.130907
C50	C	1.239051	-0.664798	-1.124254
C51	C	1.244447	-0.658888	-1.030351
C52	C	1.304669	-0.592837	-0.986729
C53	C	1.310069	-0.586934	-0.892824
C54	C	1.195024	-0.713118	-0.886173
C55	C	1.189627	-0.719028	-0.980077
C56	C	1.287956	-0.611232	-0.274466
C57	C	1.293877	-0.604656	-0.174536
H58	H	0.926210	-0.730302	-0.592502
C59	C	0.794547	-0.812416	-0.658987
H60	H	0.857670	-0.806711	-0.654360
H61	H	0.775701	-0.799869	-0.718541
H62	H	0.779913	-0.881057	-0.644831
C63	C	1.396341	-1.356826	-0.399904
H64	H	1.351403	-1.381308	-0.439916
H65	H	1.384188	-1.376950	-0.340984
H66	H	1.453474	-1.386686	-0.418861
C67	C	1.152726	-0.894153	-0.616335
H68	H	1.107760	-0.868996	-0.656325
H69	H	1.209834	-0.874385	-0.635263
H70	H	1.140538	-0.864617	-0.557396
C71	C	1.524061	-1.242578	-0.286162
H72	H	1.515379	-1.315719	-0.293943
H73	H	1.514414	-1.219904	-0.224977
H74	H	1.583703	-1.229668	-0.302852
C75	C	1.134710	-0.779268	-0.830873
H76	H	1.098077	-0.819452	-0.870305
H77	H	1.097650	-0.733982	-0.791987
H78	H	1.171202	-0.825196	-0.796221
H79	H	0.611707	-0.779110	-0.632037
H80	H	1.408528	-0.478921	-1.001486
H81	H	1.398730	-0.489631	-1.171837
H82	H	1.152931	-1.323652	-0.616454
H83	H	1.042486	-1.223296	-0.714653
H84	H	0.767780	-0.460918	-0.374416
H85	H	0.623629	-0.521823	-0.423735
H86	H	0.938162	-0.473010	-0.384197
H87	H	1.042386	-1.024217	-0.714605
C88	C	1.376302	-0.514274	-0.844840
H89	H	1.408170	-0.479294	-0.888234
H90	H	1.417580	-0.554937	-0.810459
H91	H	1.344010	-0.463742	-0.806234
H92	H	1.396133	-0.927325	-0.399758
H93	H	1.190021	-0.718573	-1.159788
C94	C	1.123393	-0.791682	-1.028066
H95	H	1.128033	-0.786594	-1.091193
H96	H	1.063865	-0.771044	-1.009194
H97	H	1.137432	-0.862242	-1.013427
H98	H	1.506580	-1.027682	-0.301574
