data_functionalizedCrystal
_audit_creation_method	'MofGen! by Chris Wilmer'
_symmetry_space_group_name_H-M	'P1'
_symmetry_Int_Tables_number	1
_symmetry_cell_setting	triclinic
loop_
_symmetry_equiv_pos_as_xyz
  x,y,z
_cell_length_a	18.101398
_cell_length_b	18.101395
_cell_length_c	12.759387
_cell_angle_alpha	90.032811
_cell_angle_beta	90.028696
_cell_angle_gamma	90.028835
loop_
_atom_site_label
_atom_site_type_symbol
_atom_site_fract_x
_atom_site_fract_y
_atom_site_fract_z
Zn1	Zn	1.132150	-0.294835	0.594220
Zn2	Zn	1.132037	-0.418696	0.418534
Zn3	Zn	1.008300	-0.294867	0.418532
Zn4	Zn	1.008259	-0.418635	0.594148
O5	O	1.070186	-0.356758	0.506358
O6	O	1.235768	-0.311278	0.570946
O7	O	1.115593	-0.402308	0.271513
O8	O	1.024793	-0.191230	0.441866
O9	O	1.235685	-0.402277	0.441870
O10	O	1.115785	-0.191207	0.570943
O11	O	1.024684	-0.311332	0.271511
O12	O	0.904662	-0.311273	0.441796
O13	O	1.024724	-0.402173	0.741179
O14	O	0.904632	-0.402205	0.570821
O15	O	1.115745	-0.311219	0.741232
O16	O	1.115553	-0.522320	0.441801
O17	O	1.024614	-0.522276	0.570824
C18	C	0.877776	-0.356736	0.506301
C19	C	0.795462	-0.356745	0.506302
C20	C	0.644753	-0.356760	0.506349
C21	C	0.613394	-0.299467	0.425305
C22	C	0.527776	-0.299251	0.425571
C23	C	0.496371	-0.356775	0.506394
C24	C	0.527516	-0.335934	0.617241
C25	C	0.613161	-0.335510	0.616747
C26	C	0.613148	-0.435043	0.477523
C27	C	0.527497	-0.434630	0.475107
C28	C	0.412511	-0.356785	0.506426
C29	C	0.728613	-0.356749	0.506324
C30	C	1.070087	-0.549169	0.506327
C31	C	1.070113	-0.631483	0.506349
C32	C	1.070275	-0.930574	0.506406
C33	C	1.013192	-0.899251	0.587785
C34	C	1.012920	-0.813633	0.587531
C35	C	1.070195	-0.782191	0.506379
C36	C	1.049060	-0.813349	0.395649
C37	C	1.048692	-0.898994	0.396136
C38	C	1.148618	-0.898919	0.534782
C39	C	1.148158	-0.813267	0.537210
C40	C	1.070150	-0.698332	0.506357
C41	C	1.070318	-1.014433	0.506421
C42	C	1.263348	-0.356781	0.506416
C43	C	1.345662	-0.356790	0.506441
C44	C	1.070242	-0.356686	0.780392
C45	C	1.070266	-0.356655	0.897169
C46	C	1.070306	-0.163596	0.506412
C47	C	1.070357	-0.081282	0.506435
C48	C	1.070173	-0.356777	0.233391
C49	C	1.070293	-0.356599	0.116615
C50	C	1.165054	-0.261950	0.897243
C51	C	1.212458	-0.214586	0.952142
C52	C	1.212476	-0.214559	1.061863
C53	C	1.165083	-0.261899	1.116689
C54	C	1.117679	-0.309263	1.061791
C55	C	1.117668	-0.309286	0.952067
C56	C	1.022889	-0.403963	1.061717
C57	C	1.022874	-0.403995	0.951995
C58	C	0.975496	-0.451303	1.116543
C59	C	0.928095	-0.498672	1.061644
C60	C	0.928080	-0.498697	0.951916
C61	C	0.975470	-0.451358	0.897097
H62	H	0.507137	-0.450351	0.393528
H63	H	1.165051	-0.261974	0.807902
C64	C	1.030554	-0.707829	0.698349
C65	C	1.030768	-0.785184	0.698367
H66	H	1.041576	-0.690270	0.766778
H67	H	0.983215	-0.690508	0.677701
H68	H	1.066739	-0.690249	0.650566
H69	H	0.994580	-0.802764	0.746145
H70	H	1.078115	-0.802512	0.719028
H71	H	0.634705	-0.454073	0.398042
H72	H	0.633910	-0.375442	0.679221
C73	C	0.457154	-0.194540	0.368241
C74	C	0.500142	-0.220955	0.451421
H75	H	0.440098	-0.146201	0.384206
H76	H	0.416057	-0.226363	0.357860
H77	H	0.486159	-0.193131	0.306249
H78	H	0.471135	-0.222369	0.513412
H79	H	0.541245	-0.189123	0.461814
C80	C	0.994341	-0.521724	1.273697
C81	C	0.975514	-0.451277	1.237150
H82	H	0.994347	-0.521709	1.348155
H83	H	1.042114	-0.534539	1.248892
H84	H	0.959321	-0.556699	1.248839
H85	H	1.010537	-0.416303	1.262001
H86	H	0.927734	-0.438453	1.261965
H87	H	0.954851	-0.793209	0.568734
C88	C	1.248622	-0.089202	0.918403
C89	C	1.264550	-0.162553	0.891871
H90	H	1.280779	-0.057080	0.881191
H91	H	1.255420	-0.082411	0.991597
H92	H	1.198868	-0.078365	0.900399
H93	H	1.314303	-0.173391	0.909883
H94	H	1.257759	-0.169347	0.818662
C95	C	1.083106	-0.814642	0.213807
C96	C	1.103440	-0.785894	0.311564
H97	H	1.116690	-0.797704	0.161903
H98	H	1.034602	-0.798647	0.196758
H99	H	1.084250	-0.867073	0.216460
H100	H	1.102291	-0.733462	0.308913
H101	H	1.151957	-0.801884	0.328616
H102	H	0.506111	-0.479581	0.529792
C103	C	0.891934	-0.624055	1.095375
C104	C	0.876005	-0.550704	1.121906
H105	H	0.859772	-0.656177	1.132577
H106	H	0.941681	-0.634892	1.113384
H107	H	0.885141	-0.630844	1.022171
H108	H	0.882803	-0.543913	1.195110
H109	H	0.826246	-0.539863	1.103904
C110	C	1.235537	-0.280747	1.273896
C111	C	1.165098	-0.261867	1.237297
H112	H	1.235542	-0.280732	1.348354
H113	H	1.270535	-0.245775	1.249104
H114	H	1.248300	-0.328548	1.249061
H115	H	1.152337	-0.214064	1.262126
H116	H	1.130089	-0.296840	1.262099
H117	H	0.633167	-0.278297	0.641112
H118	H	1.088466	-0.919718	0.333434
C119	C	0.917704	-0.598339	0.828483
C120	C	0.875974	-0.550761	0.891567
H121	H	0.885536	-0.630478	0.791223
H122	H	0.949946	-0.626662	0.871295
H123	H	0.945923	-0.570142	0.780134
H124	H	0.847760	-0.578958	0.939921
H125	H	0.843719	-0.522436	0.848751
C126	C	0.523652	-0.461982	0.675481
C127	C	0.500059	-0.390549	0.701015
H128	H	0.506696	-0.495700	0.727195
H129	H	0.576079	-0.463105	0.672866
H130	H	0.504172	-0.475589	0.609071
H131	H	0.519544	-0.376940	0.767423
H132	H	0.447622	-0.389424	0.703642
H133	H	0.992398	-0.791964	0.371183
C134	C	1.093273	-0.972592	0.695779
C135	C	1.030853	-0.926990	0.698985
H136	H	1.104172	-0.989725	0.764431
H137	H	1.134141	-0.945390	0.669506
H138	H	1.083832	-1.013596	0.651237
H139	H	1.040296	-0.885983	0.743521
H140	H	0.989976	-0.954193	0.725272
H141	H	0.975465	-0.451378	0.807755
C142	C	0.421327	-0.261092	0.655006
C143	C	0.498607	-0.259552	0.650717
H144	H	0.403483	-0.213933	0.675662
H145	H	0.405906	-0.297154	0.704428
H146	H	0.402183	-0.273221	0.587828
H147	H	0.517752	-0.247428	0.717897
H148	H	0.514035	-0.223478	0.601293
C149	C	1.180265	-0.846443	0.713606
C150	C	1.169646	-0.785786	0.647239
H151	H	1.193514	-0.829477	0.781541
H152	H	1.218627	-0.876721	0.686555
H153	H	1.135848	-0.874259	0.717744
H154	H	1.214064	-0.757973	0.643095
H155	H	1.131280	-0.755495	0.674297
C156	C	1.222850	-0.114918	1.185298
C157	C	1.264581	-0.162495	1.122213
H158	H	1.255018	-0.082774	1.222550
H159	H	1.194637	-0.143110	1.233644
H160	H	1.190602	-0.086595	1.142480
H161	H	1.296825	-0.190823	1.165033
H162	H	1.292806	-0.134300	1.073862
H163	H	0.506714	-0.312255	0.343393
C164	C	0.612109	-0.562217	0.530912
C165	C	0.640529	-0.492669	0.557193
H166	H	0.629013	-0.597786	0.580103
H167	H	0.628371	-0.575538	0.462710
H168	H	0.559666	-0.560495	0.532116
H169	H	0.692972	-0.494390	0.555980
H170	H	0.624271	-0.479345	0.625412
H171	H	0.955475	-0.920837	0.569225
H172	H	0.991424	-0.919037	0.372100
C173	C	0.686786	-0.379194	0.316840
C174	C	0.641143	-0.316795	0.314001
H175	H	0.703925	-0.389887	0.248124
H176	H	0.659610	-0.420154	0.342878
H177	H	0.727784	-0.369853	0.361432
H178	H	0.600142	-0.326138	0.269415
H179	H	0.668319	-0.275826	0.287949
H180	H	1.167886	-0.920462	0.614150
C181	C	1.277106	-0.813348	0.493196
C182	C	1.208615	-0.784378	0.463027
H183	H	1.314428	-0.795509	0.447393
H184	H	1.275420	-0.865738	0.489724
H185	H	1.287927	-0.798431	0.562928
H186	H	1.197792	-0.799299	0.393297
H187	H	1.210301	-0.731976	0.466489
C188	C	0.614150	-0.171085	0.378095
C189	C	0.642471	-0.221599	0.450809
H190	H	0.632104	-0.123014	0.393842
H191	H	0.561736	-0.171209	0.381567
H192	H	0.629414	-0.184767	0.309562
H193	H	0.627203	-0.207920	0.519342
H194	H	0.694896	-0.221472	0.447347
C195	C	1.260806	-0.966804	0.506690
C196	C	1.206040	-0.926262	0.454780
H197	H	1.296253	-0.983683	0.457298
H198	H	1.238924	-1.007985	0.540796
H199	H	1.284392	-0.936234	0.557169
H200	H	1.182450	-0.956834	0.404306
H201	H	1.227924	-0.885076	0.420657
