data_functionalizedCrystal
_audit_creation_method	'MofGen! by Chris Wilmer'
_symmetry_space_group_name_H-M	'P1'
_symmetry_Int_Tables_number	1
_symmetry_cell_setting	triclinic
loop_
_symmetry_equiv_pos_as_xyz
  x,y,z
_cell_length_a	14.971486
_cell_length_b	19.188930
_cell_length_c	13.448316
_cell_angle_alpha	89.988273
_cell_angle_beta	89.998199
_cell_angle_gamma	83.379455
loop_
_atom_site_label
_atom_site_type_symbol
_atom_site_fract_x
_atom_site_fract_y
_atom_site_fract_z
O1	O	1.186467	0.090988	-0.082589
O2	O	0.926009	0.101884	-0.082618
O3	O	1.063754	-0.005195	-0.082583
O4	O	1.048722	0.198067	-0.082624
O5	O	1.063737	-0.005202	0.082801
O6	O	0.925992	0.101877	0.082766
O7	O	1.186450	0.090981	0.082795
Cu8	Cu	1.056219	0.096429	0.097881
Cu9	Cu	1.056239	0.096437	-0.097704
O10	O	1.048704	0.198061	0.082760
C11	C	0.892678	0.101393	0.000071
C12	C	0.793389	0.099933	0.000061
C13	C	1.063259	-0.031211	0.000112
C14	C	1.061797	-0.108721	0.000120
C15	C	0.735831	0.162839	0.000050
C16	C	0.642539	0.161463	0.000065
C17	C	0.606806	0.097180	0.000084
C18	C	0.664371	0.034269	0.000098
C19	C	0.757662	0.035646	0.000090
C20	C	0.469924	0.031403	0.000112
C21	C	0.376627	0.030026	0.000119
C22	C	0.354801	0.157221	0.000087
C23	C	0.448092	0.158598	0.000079
C24	C	0.505650	0.095686	0.000091
C25	C	1.142622	-0.153384	0.000134
C26	C	1.141249	-0.226213	0.000118
C27	C	1.059047	-0.254374	0.000108
C28	C	0.978212	-0.209700	0.000089
C29	C	0.979587	-0.136874	0.000095
N30	N	0.996208	-0.362583	0.056384
N31	N	0.994907	-0.431766	0.056381
C32	C	1.054899	-0.473796	0.000087
N33	N	1.116254	-0.444030	-0.056190
N34	N	1.117558	-0.374842	-0.056182
C35	C	1.057547	-0.333341	0.000101
C36	C	1.134240	-0.597429	0.000082
C37	C	1.132864	-0.670258	0.000060
C38	C	0.969825	-0.653744	0.000041
C39	C	0.971203	-0.580916	0.000053
C40	C	1.053413	-0.552763	0.000078
C41	C	1.219780	0.091472	0.000104
C42	C	1.319070	0.092932	0.000107
C43	C	1.049200	0.224077	0.000063
C44	C	1.050661	0.301586	0.000048
N45	N	1.056211	0.096423	0.235446
N46	N	1.056254	0.096437	-0.235268
C47	C	1.117224	0.049028	0.287501
C48	C	1.117229	0.049027	0.391604
C49	C	1.056226	0.096426	0.443650
C50	C	0.995207	0.143823	0.391587
C51	C	0.995198	0.143820	0.287486
C52	C	0.995232	0.143828	0.608567
C53	C	0.995242	0.143832	0.712676
C54	C	1.117263	0.049035	0.712686
C55	C	1.117254	0.049032	0.608585
C56	C	1.056236	0.096430	0.556529
H57	H	0.764917	0.215186	0.000034
H58	H	0.516786	-0.019826	0.000124
H59	H	0.945542	0.182423	0.566187
H60	H	1.198683	-0.706623	0.000065
H61	H	1.166909	0.010434	0.433988
O62	O	0.889949	-0.681056	-0.000146
C63	C	0.750169	-0.689171	-0.085818
C64	C	0.840607	-0.658204	-0.085736
H65	H	0.710242	-0.670696	-0.154999
H66	H	0.763013	-0.748898	-0.085887
H67	H	0.710271	-0.670806	-0.016577
H68	H	0.880552	-0.676516	-0.154965
H69	H	0.827700	-0.598481	-0.085615
H70	H	0.945515	0.182413	0.245103
H71	H	0.945533	0.182414	0.433969
H72	H	1.166903	0.010433	0.245132
O73	O	0.586755	0.222635	0.000009
C74	C	0.574952	0.348940	0.000034
C75	C	0.638229	0.279712	0.000071
H76	H	0.616543	0.395104	0.000105
H77	H	0.530740	0.351525	-0.069189
H78	H	0.530719	0.351436	0.069236
H79	H	0.682519	0.277169	-0.069085
H80	H	0.682380	0.277155	0.069340
O81	O	0.629619	-0.028159	-0.000059
C82	C	0.536915	-0.103509	-0.085688
C83	C	0.576226	-0.032792	-0.085641
H84	H	0.493723	-0.107271	-0.154863
H85	H	0.594045	-0.148263	-0.085743
H86	H	0.493823	-0.107325	-0.016441
H87	H	0.619308	-0.028907	-0.154877
H88	H	0.519054	0.011928	-0.085534
H89	H	0.477182	0.210943	0.000054
H90	H	0.307932	0.208445	0.000082
H91	H	1.166946	0.010442	0.755076
O92	O	0.892713	-0.537498	-0.000125
C93	C	0.799678	-0.445649	-0.085780
C94	C	0.888597	-0.494790	-0.085708
H95	H	0.796330	-0.411097	-0.154955
H96	H	0.740655	-0.478250	-0.085854
H97	H	0.796249	-0.411185	-0.016533
H98	H	0.892113	-0.529264	-0.154943
H99	H	0.947578	-0.462147	-0.085583
H100	H	0.911283	-0.232634	0.000079
H101	H	0.347537	-0.022319	0.000135
O102	O	0.813449	-0.025526	0.000051
C103	C	0.825257	-0.151831	0.000138
C104	C	0.761978	-0.082604	0.000154
H105	H	0.783669	-0.197996	0.000242
H106	H	0.869460	-0.154412	-0.069094
H107	H	0.869500	-0.154329	0.069332
H108	H	0.717679	-0.080059	-0.068993
H109	H	0.717836	-0.080052	0.069432
H110	H	1.209564	-0.130467	0.000151
H111	H	1.207068	-0.262585	0.000125
O112	O	1.214173	-0.570191	0.000045
C113	C	1.375737	-0.594255	0.000102
C114	C	1.285278	-0.625192	0.000126
H115	H	1.433249	-0.638708	0.000188
H116	H	1.380518	-0.560585	-0.069124
H117	H	1.380408	-0.560562	0.069302
H118	H	1.280546	-0.658917	-0.069027
H119	H	1.280535	-0.658822	0.069397
O120	O	1.176546	0.002923	0.558180
C121	C	1.297610	-0.091075	0.569169
C122	C	1.230499	-0.038905	0.626376
H123	H	1.341261	-0.124897	0.624281
H124	H	1.259174	-0.126053	0.520477
H125	H	1.342123	-0.060858	0.520386
H126	H	1.185969	-0.069065	0.675213
H127	H	1.268990	-0.003927	0.675005
H128	H	0.913768	-0.100507	0.000084
H129	H	0.945566	0.182428	0.755046
