data_functionalizedCrystal
_audit_creation_method	'MofGen! by Chris Wilmer'
_symmetry_space_group_name_H-M	'P1'
_symmetry_Int_Tables_number	1
_symmetry_cell_setting	triclinic
loop_
_symmetry_equiv_pos_as_xyz
  x,y,z
_cell_length_a	19.805407
_cell_length_b	16.959453
_cell_length_c	19.805399
_cell_angle_alpha	90.027222
_cell_angle_beta	90.017803
_cell_angle_gamma	90.020042
loop_
_atom_site_label
_atom_site_type_symbol
_atom_site_fract_x
_atom_site_fract_y
_atom_site_fract_z
Zn1	Zn	1.034753	-0.314756	0.382689
Zn2	Zn	1.534753	0.185244	0.882689
Zn3	Zn	1.034675	-0.446939	0.269502
Zn4	Zn	1.534675	0.053061	0.769502
Zn5	Zn	0.921568	-0.314772	0.269517
Zn6	Zn	1.421568	0.185228	0.769517
Zn7	Zn	0.921538	-0.446891	0.382652
Zn8	Zn	1.421538	0.053109	0.882652
O9	O	0.978134	-0.380840	0.326090
O10	O	1.478134	0.119160	0.826090
O11	O	1.129459	-0.332304	0.367684
O12	O	1.629459	0.167696	0.867684
O13	O	1.019651	-0.429433	0.174787
O14	O	1.519651	0.070567	0.674787
O15	O	0.936627	-0.204159	0.284552
O16	O	1.436627	0.295841	0.784552
O17	O	1.129402	-0.429418	0.284525
O18	O	1.629402	0.070582	0.784525
O19	O	1.019784	-0.204148	0.367699
O20	O	1.519784	0.295852	0.867699
O21	O	0.936551	-0.332331	0.174799
O22	O	1.436551	0.167669	0.674799
O23	O	0.826847	-0.332284	0.284516
O24	O	1.326847	0.167716	0.784516
O25	O	0.936577	-0.429336	0.477374
O26	O	1.436577	0.070664	0.977374
O27	O	0.826826	-0.429351	0.367635
O28	O	1.326826	0.070649	0.867635
O29	O	1.019755	-0.332258	0.477401
O30	O	1.519755	0.167742	0.977401
O31	O	1.019622	-0.557543	0.284489
O32	O	1.519622	-0.057543	0.784489
O33	O	0.936501	-0.557508	0.367620
O34	O	1.436501	-0.057508	0.867620
C35	C	0.802278	-0.380815	0.326074
C36	C	1.302278	0.119185	0.826074
C37	C	0.727046	-0.380823	0.326083
C38	C	1.227046	0.119177	0.826083
C39	C	0.691732	-0.330346	0.369449
C40	C	1.191732	0.169654	0.869449
C41	C	0.621043	-0.330350	0.369452
C42	C	1.121043	0.169650	0.869452
C43	C	0.585670	-0.380836	0.326091
C44	C	1.085670	0.119164	0.826091
C45	C	0.620989	-0.431316	0.282720
C46	C	1.120989	0.068684	0.782720
C47	C	0.691676	-0.431307	0.282714
C48	C	1.191676	0.068693	0.782714
C49	C	0.335915	-0.431352	0.282740
C50	C	0.835915	0.068648	0.782740
C51	C	0.265223	-0.431358	0.282751
C52	C	0.765223	0.068642	0.782751
C53	C	0.265283	-0.330394	0.369478
C54	C	0.765283	0.169606	0.869478
C55	C	0.335970	-0.330385	0.369473
C56	C	0.835970	0.169615	0.869473
C57	C	0.371283	-0.380862	0.326099
C58	C	0.871283	0.119138	0.826099
C59	C	0.447931	-0.380856	0.326096
C60	C	0.947931	0.119144	0.826096
C61	C	0.509023	-0.380847	0.326097
C62	C	1.009023	0.119153	0.826097
C63	C	0.978069	-0.586206	0.326064
C64	C	1.478069	-0.086206	0.826064
C65	C	0.978103	-0.674062	0.326075
C66	C	1.478103	-0.174062	0.826075
C67	C	0.934859	-0.715411	0.282754
C68	C	1.434859	-0.215411	0.782754
C69	C	1.021375	-0.715268	0.369411
C70	C	1.521375	-0.215268	0.869411
C71	C	1.021407	-0.797814	0.369426
C72	C	1.521407	-0.297814	0.869426
C73	C	0.978163	-0.839162	0.326105
C74	C	1.478163	-0.339162	0.826105
C75	C	0.934888	-0.797964	0.282768
C76	C	1.434888	-0.297964	0.782768
C77	C	1.064676	-0.839018	0.412766
C78	C	1.564676	-0.339018	0.912766
C79	C	1.064709	-0.921568	0.412783
C80	C	1.564709	-0.421568	0.912783
C81	C	1.021468	-0.962918	0.369458
C82	C	1.521468	-0.462918	0.869458
C83	C	0.978192	-0.921715	0.326119
C84	C	1.478192	-0.421715	0.826119
C85	C	0.934949	-0.963063	0.282798
C86	C	1.434949	-0.463063	0.782798
C87	C	0.891676	-0.921862	0.239456
C88	C	1.391676	-0.421862	0.739456
C89	C	0.891648	-0.839314	0.239443
C90	C	1.391648	-0.339314	0.739443
C91	C	1.021496	-1.045467	0.369471
C92	C	1.521496	-0.545467	0.869471
C93	C	0.934978	-1.045617	0.282813
C94	C	1.434978	-0.545617	0.782813
C95	C	1.154676	-0.380865	0.326107
C96	C	1.654676	0.119135	0.826107
C97	C	1.229908	-0.380876	0.326114
C98	C	1.729908	0.119124	0.826114
C99	C	0.978171	-0.380790	0.502633
C100	C	1.478171	0.119210	1.002633
C101	C	0.978188	-0.380769	0.577865
C102	C	1.478188	0.119231	1.077865
C103	C	0.978217	-0.174671	0.326131
C104	C	1.478217	0.325329	0.826131
C105	C	0.978253	-0.086815	0.326149
C106	C	1.478253	0.413185	0.826149
C107	C	0.978135	-0.380832	0.150234
C108	C	1.478135	0.119168	0.650234
C109	C	0.978250	-0.380631	0.075003
C110	C	1.478250	0.119369	0.575003
C111	C	1.021500	-0.330217	0.613224
C112	C	1.521500	0.169783	1.113224
C113	C	1.021506	-0.330194	0.683913
C114	C	1.521506	0.169806	1.183913
C115	C	0.978204	-0.380727	0.719241
C116	C	1.478204	0.119273	1.219241
C117	C	0.934888	-0.431281	0.683876
C118	C	1.434888	0.068719	1.183876
C119	C	0.934878	-0.431299	0.613189
C120	C	1.434878	0.068701	1.113189
C121	C	0.934926	-0.431207	0.968950
C122	C	1.434926	0.068793	1.468950
C123	C	0.934941	-0.431186	1.039642
C124	C	1.434941	0.068814	1.539642
C125	C	1.021555	-0.330102	1.039674
C126	C	1.521555	0.169898	1.539674
C127	C	1.021545	-0.330121	0.968986
C128	C	1.521545	0.169879	1.468986
C129	C	0.978226	-0.380671	0.933628
C130	C	1.478226	0.119329	1.433628
C131	C	0.978218	-0.380694	0.856980
C132	C	1.478218	0.119306	1.356980
C133	C	0.978215	-0.380709	0.795888
C134	C	1.478215	0.119291	1.295888
H135	H	0.592294	-0.289247	0.404766
H136	H	1.092294	0.210753	0.904766
H137	H	0.899629	-0.681862	0.247463
H138	H	1.399629	-0.181862	0.747463
H139	H	0.236523	-0.289291	0.404792
H140	H	0.736523	0.210709	0.904792
H141	H	0.856416	-0.805763	0.204156
H142	H	1.356416	-0.305763	0.704156
O143	O	0.370179	-0.480501	0.240684
O144	O	0.870179	0.019499	0.740684
C145	C	0.352880	-0.559303	0.255347
C146	C	0.852880	-0.059303	0.755347
H147	H	0.333475	-0.563378	0.309417
H148	H	0.833475	-0.063378	0.809417
H149	H	0.399353	-0.598343	0.249447
H150	H	0.899353	-0.098343	0.749447
H151	H	0.311824	-0.579910	0.219036
H152	H	0.811824	-0.079910	0.719036
H153	H	1.056763	-0.289070	0.584466
H154	H	1.556763	0.210930	1.084466
H155	H	0.236424	-0.472472	0.247439
H156	H	0.736424	0.027528	0.747439
H157	H	0.592182	-0.472419	0.247411
H158	H	1.092182	0.027581	0.747411
H159	H	0.856463	-0.955539	0.204187
H160	H	1.356463	-0.455539	0.704187
H161	H	0.364768	-0.289277	0.404784
H162	H	0.864768	0.210723	0.904784
H163	H	0.899676	-0.472338	1.068404
H164	H	1.399676	0.027662	1.568404
O165	O	1.063357	-0.674983	0.411428
O166	O	1.563357	-0.174983	0.911428
C167	C	1.054037	-0.593289	0.402137
C168	C	1.554037	-0.093289	0.902137
H169	H	1.031898	-0.582077	0.349879
H170	H	1.531898	-0.082077	0.849879
H171	H	1.104721	-0.561864	0.406770
H172	H	1.604721	-0.061864	0.906770
H173	H	1.017958	-0.569866	0.442247
H174	H	1.517958	-0.069866	0.942247
O175	O	1.063646	-0.281067	0.718156
O176	O	1.563646	0.218933	1.218156
C177	C	1.101855	-0.236460	0.671818
C178	C	1.601855	0.263540	1.171818
H179	H	1.104176	-0.268852	0.621424
H180	H	1.604176	0.231148	1.121424
H181	H	1.155190	-0.228036	0.692252
H182	H	1.655190	0.271964	1.192252
H183	H	1.077097	-0.176424	0.664307
H184	H	1.577097	0.323576	1.164307
H185	H	0.720427	-0.472411	0.247400
H186	H	1.220427	0.027589	0.747400
O187	O	0.892818	-0.480374	0.934713
O188	O	1.392818	0.019626	1.434713
C189	C	0.854587	-0.524951	0.981055
C190	C	1.354587	-0.024951	1.481055
H191	H	0.882327	-0.527695	1.031441
H192	H	1.382327	-0.027695	1.531441
H193	H	0.847317	-0.587227	0.960612
H194	H	1.347317	-0.087227	1.460612
H195	H	0.803204	-0.495977	0.988584
H196	H	1.303204	0.004023	1.488584
H197	H	0.899765	-1.079277	0.247533
H198	H	1.399765	-0.579277	0.747533
O199	O	0.892760	-0.480395	0.718087
O200	O	1.392760	0.019605	1.218087
C201	C	0.854542	-0.525031	0.671717
C202	C	1.354542	-0.025031	1.171717
H203	H	0.852202	-0.492666	0.621336
H204	H	1.352202	0.007334	1.121336
H205	H	0.801213	-0.533452	0.692131
H206	H	1.301213	-0.033452	1.192131
H207	H	0.879303	-0.585067	0.664188
H208	H	1.379303	-0.085067	1.164188
H209	H	1.099880	-0.805349	0.448041
H210	H	1.599880	-0.305349	0.948041
H211	H	0.899602	-0.472455	0.584400
H212	H	1.399602	0.027545	1.084400
H213	H	1.099946	-0.955108	0.448074
H214	H	1.599946	-0.455108	0.948074
O215	O	1.063484	-1.085407	0.411666
O216	O	1.563484	-0.585407	0.911666
C217	C	1.048615	-1.065211	0.479106
C218	C	1.548615	-0.565211	0.979106
H219	H	1.022579	-1.005293	0.480468
H220	H	1.522579	-0.505293	0.980468
H221	H	1.097435	-1.062328	0.509515
H222	H	1.597435	-0.562328	1.009515
H223	H	1.013807	-1.111680	0.501867
H224	H	1.513807	-0.611680	1.001867
H225	H	1.056808	-0.288974	0.940226
H226	H	1.556808	0.211026	1.440226
H227	H	1.056825	-0.288939	1.068471
H228	H	1.556825	0.211061	1.568471
H229	H	0.720528	-0.289236	0.404761
H230	H	1.220528	0.210764	0.904761
