data_functionalizedCrystal
_audit_creation_method	'MofGen! by Chris Wilmer'
_symmetry_space_group_name_H-M	'P1'
_symmetry_Int_Tables_number	1
_symmetry_cell_setting	triclinic
loop_
_symmetry_equiv_pos_as_xyz
  x,y,z
_cell_length_a	11.169417
_cell_length_b	12.759399
_cell_length_c	11.169409
_cell_angle_alpha	89.965848
_cell_angle_beta	89.979436
_cell_angle_gamma	90.015995
loop_
_atom_site_label
_atom_site_type_symbol
_atom_site_fract_x
_atom_site_fract_y
_atom_site_fract_z
Zn1	Zn	1.834931	-0.418157	-0.678527
Zn2	Zn	1.834801	-0.593883	-0.477837
Zn3	Zn	1.634215	-0.418221	-0.477861
Zn4	Zn	1.634208	-0.593797	-0.678482
O5	O	1.734539	-0.506015	-0.578177
O6	O	2.002864	-0.441477	-0.651914
O7	O	1.808141	-0.570643	-0.309891
O8	O	1.660897	-0.271192	-0.504509
O9	O	2.002768	-0.570581	-0.504468
O10	O	1.808363	-0.271145	-0.651937
O11	O	1.660771	-0.441585	-0.309908
O12	O	1.466264	-0.441503	-0.504466
O13	O	1.660886	-0.570436	-0.846438
O14	O	1.466259	-0.570498	-0.651861
O15	O	1.808356	-0.441394	-0.846471
O16	O	1.808135	-0.740892	-0.504425
O17	O	1.660760	-0.740830	-0.651838
C18	C	1.422714	-0.505999	-0.578162
C19	C	1.289314	-0.506017	-0.578184
C20	C	1.734465	-0.778982	-0.578150
C21	C	1.734544	-0.895759	-0.578178
C22	C	1.811369	-0.950618	-0.501508
C23	C	1.811446	-1.060342	-0.501548
C24	C	1.657862	-1.060337	-0.654933
C25	C	1.657791	-0.950615	-0.654898
C26	C	1.953107	-1.210221	-0.458834
C27	C	2.029922	-1.265085	-0.382145
C28	C	2.048383	-1.229550	-0.265042
C29	C	1.990012	-1.139154	-0.224604
C30	C	1.913187	-1.084296	-0.301287
C31	C	1.894749	-1.119829	-0.418407
C32	C	1.516129	-0.800734	-0.697599
C33	C	1.439298	-0.745875	-0.774277
C34	C	1.420825	-0.781407	-0.891382
C35	C	1.479175	-0.871807	-0.931815
C36	C	1.556006	-0.926667	-0.855137
C37	C	1.574482	-0.891126	-0.738033
C38	C	2.047581	-0.506031	-0.578193
C39	C	2.180981	-0.506038	-0.578200
C40	C	1.734635	-0.505898	-0.891220
C41	C	1.734676	-0.505849	-1.024620
C42	C	1.734645	-0.231981	-0.578231
C43	C	1.734691	-0.115205	-0.578254
C44	C	1.734512	-0.506055	-0.266352
C45	C	1.734703	-0.505808	-0.132953
H46	H	1.873867	-0.905957	-0.439040
H47	H	1.358259	-0.736731	-0.953811
C48	C	2.132863	-1.289899	-0.180666
C49	C	2.243599	-1.234981	-0.127697
C50	C	2.328073	-1.295334	-0.043321
C51	C	2.301812	-1.410604	-0.011914
C52	C	2.191070	-1.465529	-0.064883
C53	C	2.106596	-1.405176	-0.149259
H54	H	2.263044	-1.149645	-0.150946
H55	H	2.410051	-1.254674	-0.004110
H56	H	2.364345	-1.455281	0.050546
H57	H	2.171625	-1.550865	-0.041635
H58	H	2.024618	-1.445836	-0.188471
H59	H	1.938095	-1.239155	-0.554193
C60	C	1.848987	-0.984862	-0.256824
C61	C	1.869285	-0.945770	-0.128007
C62	C	1.805094	-0.846328	-0.083544
C63	C	1.720604	-0.785979	-0.167897
C64	C	1.700302	-0.825070	-0.296722
C65	C	1.764493	-0.924511	-0.341185
H66	H	1.931833	-0.990445	-0.065557
H67	H	1.820123	-0.817391	0.011822
H68	H	1.673085	-0.712366	-0.134982
H69	H	1.637754	-0.780395	-0.359172
H70	H	1.749464	-0.953449	-0.436550
C71	C	1.620202	-1.026105	-0.899613
C72	C	1.599889	-1.065198	-1.028427
C73	C	1.664083	-1.164634	-1.072901
C74	C	1.748592	-1.224978	-0.988561
C75	C	1.768909	-1.185886	-0.859739
C76	C	1.704714	-1.086449	-0.815265
H77	H	1.537327	-1.020527	-1.090868
H78	H	1.649043	-1.193572	-1.168264
H79	H	1.796113	-1.298586	-1.021483
H80	H	1.831471	-1.230556	-0.797298
H81	H	1.719755	-1.057511	-0.719902
H82	H	2.005040	-1.110235	-0.129242
H83	H	2.077449	-1.338685	-0.415081
C84	C	1.458863	-0.910901	-1.060634
C85	C	1.332069	-0.940971	-1.102448
C86	C	1.311750	-0.980065	-1.231268
C87	C	1.418226	-0.989090	-1.318273
C88	C	1.545029	-0.959020	-1.276460
C89	C	1.565348	-0.919926	-1.147641
H90	H	1.253241	-0.934291	-1.038041
H91	H	1.217881	-1.002325	-1.262219
H92	H	1.403185	-1.018030	-1.413632
H93	H	1.623856	-0.965700	-1.340868
H94	H	1.659216	-0.897666	-1.116689
H95	H	1.391793	-0.672262	-0.741348
H96	H	1.595371	-1.105015	-0.717393
H97	H	1.531174	-0.771789	-0.602245
