data_functionalizedCrystal
_audit_creation_method	'MofGen! by Chris Wilmer'
_symmetry_space_group_name_H-M	'P1'
_symmetry_Int_Tables_number	1
_symmetry_cell_setting	triclinic
loop_
_symmetry_equiv_pos_as_xyz
  x,y,z
_cell_length_a	16.120566
_cell_length_b	19.805405
_cell_length_c	19.805399
_cell_angle_alpha	90.029301
_cell_angle_beta	92.918620
_cell_angle_gamma	87.122361
loop_
_atom_site_label
_atom_site_type_symbol
_atom_site_fract_x
_atom_site_fract_y
_atom_site_fract_z
Zn1	Zn	-1.274516	0.322009	-0.435153
Zn2	Zn	-1.274411	0.435193	-0.321957
Zn3	Zn	-1.135102	0.316282	-0.316241
Zn4	Zn	-1.135057	0.429414	-0.429369
O5	O	-1.204772	0.375725	-0.375680
O6	O	-1.391168	0.341839	-0.424949
O7	O	-1.255907	0.419441	-0.226481
O8	O	-1.153659	0.222328	-0.332043
O9	O	-1.391091	0.424995	-0.341785
O10	O	-1.256085	0.226535	-0.419407
O11	O	-1.153557	0.332078	-0.222281
O12	O	-1.018431	0.326473	-0.326435
O13	O	-1.153582	0.415144	-0.524854
O14	O	-1.018398	0.409591	-0.409550
O15	O	-1.256042	0.336235	-0.529103
O16	O	-1.255863	0.529141	-0.336177
O17	O	-1.153480	0.524894	-0.415093
C18	C	-0.988164	0.366784	-0.366745
C19	C	-0.895499	0.362975	-0.362939
C20	C	-1.204819	0.375684	-0.552225
C21	C	-1.204838	0.375666	-0.627457
C22	C	-1.204678	0.551577	-0.375643
C23	C	-1.204714	0.626810	-0.375653
C24	C	-0.725838	0.356006	-0.355996
C25	C	-0.684546	0.395501	-0.395369
C26	C	-0.590141	0.391623	-0.391506
C27	C	-0.820252	0.359883	-0.359859
C28	C	-0.422225	0.384703	-0.384638
C29	C	-0.514891	0.388534	-0.388428
C30	C	-1.204889	0.199187	-0.375732
C31	C	-1.204938	0.123957	-0.375755
C32	C	-1.258077	0.664345	-0.334609
C33	C	-1.258112	0.735035	-0.334626
C34	C	-1.204780	0.768188	-0.375683
C35	C	-1.151415	0.730649	-0.416732
C36	C	-1.151385	0.659960	-0.416718
C37	C	-1.151538	1.015727	-0.416787
C38	C	-1.151571	1.086420	-0.416796
C39	C	-1.258266	1.090802	-0.334694
C40	C	-1.258235	1.020113	-0.334681
C41	C	-1.204874	0.982580	-0.375732
C42	C	-1.204837	0.905930	-0.375715
C43	C	-1.204812	0.844837	-0.375697
C44	C	-1.258191	0.334576	-0.665015
C45	C	-1.258199	0.334557	-0.735704
C46	C	-1.204859	0.375632	-0.768834
C47	C	-1.151501	0.416724	-0.731271
C48	C	-1.151489	0.416739	-0.660583
C49	C	-1.151548	0.416663	-1.016346
C50	C	-1.151566	0.416646	-1.087039
C51	C	-1.258258	0.334480	-1.091467
C52	C	-1.258246	0.334496	-1.020779
C53	C	-1.204886	0.375585	-0.983222
C54	C	-1.204876	0.375604	-0.906574
C55	C	-1.204873	0.375617	-0.845482
C56	C	-1.204773	0.375718	-0.199824
C57	C	-1.204915	0.375552	-0.124598
H58	H	-0.720096	0.432225	-0.431979
H59	H	-1.301718	1.121370	-0.301271
C60	C	-0.678594	0.306977	-0.307159
C61	C	-0.735240	0.271287	-0.271598
C62	C	-0.691739	0.226113	-0.226609
H63	H	-0.644591	0.331391	-0.276201
H64	H	-0.644670	0.276116	-0.331726
H65	H	-0.769150	0.302144	-0.247033
H66	H	-0.769244	0.246859	-0.302538
H67	H	-0.657815	0.195252	-0.251176
H68	H	-0.657738	0.250533	-0.195656
H69	H	-0.730167	0.201888	-0.202480
C70	C	-1.093449	0.461232	-0.767196
C71	C	-1.010967	0.443080	-0.746613
C72	C	-0.957467	0.484063	-0.779698
H73	H	-1.105507	0.507233	-0.756124
H74	H	-1.101041	0.455333	-0.814679
H75	H	-1.003379	0.448985	-0.699141
H76	H	-0.998883	0.397086	-0.757686
H77	H	-0.965058	0.478164	-0.827180
H78	H	-0.969532	0.530062	-0.768622
H79	H	-0.901497	0.471749	-0.765741
H80	H	-1.108036	0.450192	-0.630004
C81	C	-1.316231	0.984244	-0.290083
C82	C	-1.362990	1.032247	-0.254155
C83	C	-1.416435	0.999232	-0.213073
H84	H	-1.284444	0.955397	-0.259195
H85	H	-1.352569	0.958141	-0.317481
H86	H	-1.326656	1.058339	-0.226759
H87	H	-1.394794	1.061097	-0.285026
H88	H	-1.452773	0.973128	-0.240471
H89	H	-1.384641	0.970385	-0.182189
H90	H	-1.448173	1.031797	-0.188696
C91	C	-1.093537	0.619087	-0.461258
C92	C	-1.104941	0.550086	-0.452474
C93	C	-1.051675	0.512415	-0.493503
H94	H	-1.037499	0.628322	-0.449050
H95	H	-1.105720	0.631097	-0.507262
H96	H	-1.092752	0.538081	-0.406480
H97	H	-1.160968	0.540830	-0.464686
H98	H	-1.063858	0.524424	-0.539507
H99	H	-0.995641	0.521656	-0.481291
H100	H	-1.059411	0.465594	-0.487553
C101	C	-1.316136	0.289906	-0.629172
C102	C	-1.362844	0.253903	-0.677196
C103	C	-1.416223	0.212737	-0.644205
H104	H	-1.352514	0.317229	-0.603090
H105	H	-1.284277	0.259069	-0.600304
H106	H	-1.394701	0.284736	-0.706052
H107	H	-1.326487	0.226568	-0.703281
H108	H	-1.384364	0.181900	-0.615337
H109	H	-1.452596	0.240065	-0.618123
H110	H	-1.447915	0.188299	-0.676784
C111	C	-1.316071	0.628479	-0.290008
C112	C	-1.362826	0.676485	-0.254080
C113	C	-1.416269	0.643472	-0.212993
H114	H	-1.284282	0.599633	-0.259119
H115	H	-1.352411	0.602374	-0.317402
H116	H	-1.326491	0.702578	-0.226689
H117	H	-1.394632	0.705333	-0.284952
H118	H	-1.452609	0.617367	-0.240387
H119	H	-1.384473	0.614627	-0.182109
H120	H	-1.448004	0.676039	-0.188617
C121	C	-1.315983	0.289847	-0.776505
C122	C	-1.268809	0.244491	-0.815128
C123	C	-1.322009	0.203281	-0.852712
H124	H	-1.352316	0.317145	-0.805634
H125	H	-1.347731	0.265349	-0.746665
H126	H	-1.237075	0.268986	-0.844964
H127	H	-1.232478	0.217179	-0.786016
H128	H	-1.353757	0.178784	-0.822873
H129	H	-1.358339	0.230585	-0.881837
H130	H	-1.290009	0.172499	-0.878918
H131	H	-1.108127	0.450095	-1.114011
H132	H	-1.301564	0.765593	-0.301203
H133	H	-1.108143	1.113412	-0.450235
H134	H	-1.108088	0.985172	-0.450211
H135	H	-1.107995	0.757648	-0.450164
C136	C	-1.316189	0.289826	-0.984934
C137	C	-1.362900	0.253821	-1.032955
C138	C	-1.416276	0.212655	-0.999960
H139	H	-1.352566	0.317149	-0.958850
H140	H	-1.284328	0.258990	-0.956066
H141	H	-1.394759	0.284653	-1.061811
H142	H	-1.326545	0.226485	-1.059041
H143	H	-1.384414	0.181819	-0.971093
H144	H	-1.452647	0.239983	-0.973877
H145	H	-1.447969	0.188216	-1.032537
H146	H	-1.301704	0.301021	-1.122054
C147	C	-1.093572	0.461335	-0.975697
C148	C	-1.046875	0.497311	-1.019844
C149	C	-0.993457	0.538472	-0.982419
H150	H	-1.057188	0.434011	-0.946632
H151	H	-1.125403	0.492188	-0.949434
H152	H	-1.015047	0.466461	-1.046095
H153	H	-1.083237	0.524647	-1.048909
H154	H	-1.025288	0.569325	-0.956156
H155	H	-0.957079	0.511143	-0.953356
H156	H	-0.961772	0.562891	-1.012366
