data_functionalizedCrystal
_audit_creation_method	'MofGen! by Chris Wilmer'
_symmetry_space_group_name_H-M	'P1'
_symmetry_Int_Tables_number	1
_symmetry_cell_setting	triclinic
loop_
_symmetry_equiv_pos_as_xyz
  x,y,z
_cell_length_a	10.908937
_cell_length_b	15.944551
_cell_length_c	9.482944
_cell_angle_alpha	100.426681
_cell_angle_beta	102.166806
_cell_angle_gamma	71.792347
loop_
_atom_site_label
_atom_site_type_symbol
_atom_site_fract_x
_atom_site_fract_y
_atom_site_fract_z
O1	O	1.721784	-0.120549	0.120935
O2	O	1.347929	-0.054960	0.120930
O3	O	1.545064	-0.211457	0.120919
O4	O	1.524649	0.035948	0.120945
O5	O	1.509145	-0.229795	-0.120876
O6	O	1.312010	-0.073298	-0.120865
O7	O	1.685866	-0.138887	-0.120861
Cu8	Cu	1.495658	-0.107767	-0.142940
Cu9	Cu	1.538136	-0.086080	0.143010
O10	O	1.488731	0.017610	-0.120850
C11	C	1.282129	-0.057999	0.000032
C12	C	1.139579	-0.039745	0.000030
C13	C	0.943236	-0.087493	0.000051
C14	C	1.090566	-0.106363	0.000031
C15	C	1.526257	-0.251801	0.000022
C16	C	1.523715	-0.344692	0.000021
C17	C	1.395449	-0.541626	0.000039
C18	C	1.437303	-0.620007	-0.119180
C19	C	1.519120	-0.514775	0.000032
C20	C	1.472745	-0.601915	0.119211
C21	C	1.514672	-0.679065	0.000049
C22	C	1.560993	-0.591940	-0.119285
C23	C	1.596434	-0.573831	0.119213
C24	C	1.638373	-0.652209	-0.000035
C25	C	1.521678	-0.420131	0.000021
C26	C	1.512122	-0.773709	0.000050
C27	C	1.751666	-0.135848	0.000041
C28	C	1.894218	-0.154101	0.000052
C29	C	1.507538	0.057954	0.000051
C30	C	1.510081	0.150846	0.000062
N31	N	1.465791	-0.123023	-0.344063
C32	C	1.529317	-0.090579	-0.416257
C33	C	1.504478	-0.103281	-0.583677
N34	N	1.568014	-0.070833	0.344133
H35	H	1.292779	-0.493986	-0.000081
O36	O	1.170594	-0.191063	0.000274
C37	C	1.165857	-0.225275	0.125482
H38	H	1.133017	-0.167919	0.213018
H39	H	1.093548	-0.266590	0.097173
C40	C	1.343056	-0.354758	0.074735
C41	C	1.302732	-0.284313	0.182252
H42	H	1.427484	-0.391179	0.109751
H43	H	1.346245	-0.331711	-0.009623
H44	H	1.282788	-0.389177	0.051154
H45	H	1.362991	-0.249889	0.205818
H46	H	1.299556	-0.307356	0.266616
H47	H	1.370022	-0.640452	-0.219971
H48	H	1.640799	-0.033652	-0.593738
H49	H	1.663670	-0.553358	0.220009
H50	H	0.961326	-0.225096	0.000048
H51	H	1.602100	-0.053403	-0.354121
H52	H	1.431700	-0.140466	-0.645808
H53	H	0.876130	-0.016496	0.000074
H54	H	1.598268	-0.586904	-0.220186
H55	H	1.393017	-0.160205	-0.406200
O56	O	1.761005	-0.708778	-0.000187
C57	C	1.848835	-0.660253	-0.001402
H58	H	1.792755	-0.595160	-0.047747
H59	H	1.899656	-0.645250	0.114288
C60	C	2.020759	-0.795391	-0.039486
C61	C	1.951882	-0.715446	-0.096418
H62	H	2.084328	-0.829437	-0.098090
H63	H	1.961589	-0.828084	-0.038661
H64	H	2.063099	-0.782876	0.056922
H65	H	1.909530	-0.727961	-0.192816
H66	H	2.011048	-0.682757	-0.097261
O67	O	1.428218	-0.607892	0.239563
C68	C	1.398184	-0.523705	0.323230
H69	H	1.455587	-0.481467	0.296774
H70	H	1.288901	-0.489337	0.296889
C71	C	1.364954	-0.587105	0.518438
C72	C	1.435466	-0.535229	0.485953
H73	H	1.387945	-0.594212	0.618813
H74	H	1.385184	-0.643823	0.462068
H75	H	1.273890	-0.558457	0.496476
H76	H	1.526527	-0.563882	0.507897
H77	H	1.415253	-0.478516	0.542330
H78	H	1.072478	0.031256	0.000047
