data_functionalizedCrystal
_audit_creation_method	'MofGen! by Chris Wilmer'
_symmetry_space_group_name_H-M	'P1'
_symmetry_Int_Tables_number	1
_symmetry_cell_setting	triclinic
loop_
_symmetry_equiv_pos_as_xyz
  x,y,z
_cell_length_a	10.654550
_cell_length_b	11.792241
_cell_length_c	9.130313
_cell_angle_alpha	89.998583
_cell_angle_beta	89.996220
_cell_angle_gamma	84.339159
loop_
_atom_site_label
_atom_site_type_symbol
_atom_site_fract_x
_atom_site_fract_y
_atom_site_fract_z
O1	O	1.667383	0.159415	-0.121920
O2	O	1.301862	0.174603	-0.121897
O3	O	1.493493	0.001859	-0.121899
O4	O	1.475752	0.332159	-0.121918
O5	O	1.493490	0.001864	0.121700
O6	O	1.301859	0.174608	0.121702
O7	O	1.667381	0.159419	0.121678
Cu8	Cu	1.484620	0.167014	0.143933
Cu9	Cu	1.484623	0.167008	-0.144151
O10	O	1.475750	0.332164	0.121680
C11	C	1.255066	0.173490	-0.000095
C12	C	1.115632	0.170154	-0.000085
C13	C	1.035858	0.271863	-0.000113
C14	C	0.904847	0.268721	-0.000138
C15	C	0.933394	0.062152	-0.000114
C16	C	1.064404	0.065295	-0.000079
C17	C	1.087087	0.376722	-0.000119
C18	C	1.007312	0.478439	-0.000148
C19	C	0.876300	0.475297	-0.000173
C20	C	0.825063	0.370438	-0.000170
C21	C	1.492377	-0.040432	-0.000100
C22	C	1.489042	-0.166454	-0.000101
C23	C	1.482908	-0.397180	-0.000125
C24	C	1.486316	-0.268787	-0.000112
C25	C	1.714177	0.160532	-0.000127
C26	C	1.853611	0.163869	-0.000146
C27	C	1.476865	0.374455	-0.000122
C28	C	1.480201	0.500476	-0.000130
N29	N	1.484627	0.167017	0.346555
N30	N	1.484625	0.166996	-0.346774
C31	C	1.569503	0.090552	0.423206
C32	C	1.569500	0.090539	0.576543
C33	C	1.399740	0.243465	0.576564
C34	C	1.399739	0.243472	0.423230
C35	C	1.654392	0.014097	0.346531
C36	C	1.739275	-0.062373	0.423182
C37	C	1.739272	-0.062387	0.576519
C38	C	1.654385	0.014070	0.653205
H39	H	0.718383	0.367888	-0.000167
C40	C	0.788552	0.587178	-0.000203
H41	H	0.837830	0.650074	-0.000213
H42	H	0.736829	0.590257	0.084730
H43	H	0.736876	0.590237	-0.085177
C44	C	0.877035	-0.053182	-0.000131
H45	H	0.787585	-0.040486	-0.000172
H46	H	0.904343	-0.095108	0.084822
H47	H	0.904394	-0.095099	-0.085085
C48	C	1.152164	-0.046579	-0.000050
H49	H	1.237525	-0.029686	-0.000013
H50	H	1.136587	-0.089540	-0.084997
H51	H	1.136536	-0.089523	0.084910
C52	C	1.832640	-0.146475	0.338842
H53	H	1.883180	-0.192025	0.406458
H54	H	1.885193	-0.105202	0.279027
H55	H	1.787140	-0.194104	0.279027
H56	H	1.330629	0.305714	0.639012
C57	C	1.832635	-0.146500	0.660832
H58	H	1.883194	-0.192023	0.593202
H59	H	1.787149	-0.194138	0.720648
H60	H	1.885188	-0.105222	0.720645
C61	C	1.654372	0.014054	0.821872
H62	H	1.591660	0.070536	0.856560
H63	H	1.734740	0.030258	0.856563
H64	H	1.636686	-0.058644	0.856547
C65	C	1.231194	0.380182	-0.000085
H66	H	1.250281	0.457196	-0.000082
H67	H	1.266124	0.342739	-0.085018
H68	H	1.266079	0.342758	0.084890
C69	C	1.063668	0.593774	-0.000151
H70	H	1.153118	0.581081	-0.000146
H71	H	1.036317	0.635703	0.084787
H72	H	1.036349	0.635688	-0.085120
C73	C	1.654396	0.014116	0.177867
H74	H	1.591694	0.070612	0.143197
H75	H	1.636732	-0.058572	0.143163
H76	H	1.734770	0.030345	0.143187
C77	C	1.306384	0.327587	0.338908
H78	H	1.255840	0.373132	0.406532
H79	H	1.253834	0.286319	0.279092
H80	H	1.351888	0.375221	0.279095
