data_functionalizedCrystal
_audit_creation_method	'MofGen! by Chris Wilmer'
_symmetry_space_group_name_H-M	'P1'
_symmetry_Int_Tables_number	1
_symmetry_cell_setting	triclinic
loop_
_symmetry_equiv_pos_as_xyz
  x,y,z
_cell_length_a	14.971482
_cell_length_b	14.044190
_cell_length_c	13.448316
_cell_angle_alpha	90.008381
_cell_angle_beta	90.004522
_cell_angle_gamma	88.402193
loop_
_atom_site_label
_atom_site_type_symbol
_atom_site_fract_x
_atom_site_fract_y
_atom_site_fract_z
O1	O	1.196681	0.123517	0.082690
O2	O	1.696681	0.623517	0.582690
O3	O	0.937447	0.138315	0.082697
O4	O	1.437447	0.638315	0.582697
O5	O	1.063169	-0.007073	0.082674
O6	O	1.563169	0.492927	0.582674
O7	O	1.070958	0.268905	0.082713
O8	O	1.570958	0.768905	0.582713
O9	O	1.063156	-0.007074	-0.082710
O10	O	1.563156	0.492926	0.417290
O11	O	0.937433	0.138314	-0.082687
O12	O	1.437433	0.638314	0.417313
O13	O	1.196667	0.123516	-0.082693
O14	O	1.696667	0.623516	0.417307
Cu15	Cu	1.067049	0.130915	-0.097791
Cu16	Cu	1.567049	0.630915	0.402209
Cu17	Cu	1.067065	0.130916	0.097794
Cu18	Cu	1.567065	0.630916	0.597794
O19	O	1.070944	0.268904	-0.082671
O20	O	1.570944	0.768904	0.417329
C21	C	0.904063	0.137653	0.000005
C22	C	1.404063	0.637653	0.500005
C23	C	0.804609	0.135672	0.000007
C24	C	1.304609	0.635672	0.500007
C25	C	0.757884	0.134738	-0.090145
C26	C	1.257884	0.634738	0.409855
C27	C	0.664437	0.132861	-0.090147
C28	C	1.164437	0.632861	0.409853
C29	C	0.617718	0.131925	0.000005
C30	C	1.117718	0.631925	0.500005
C31	C	0.664450	0.132856	0.090164
C32	C	1.164450	0.632856	0.590164
C33	C	0.757895	0.134726	0.090164
C34	C	1.257895	0.634726	0.590164
C35	C	0.469682	0.128961	0.090157
C36	C	0.969682	0.628961	0.590157
C37	C	0.376230	0.127093	0.090157
C38	C	0.876230	0.627093	0.590157
C39	C	0.376224	0.127096	-0.090154
C40	C	0.876224	0.627096	0.409846
C41	C	0.469668	0.128966	-0.090153
C42	C	0.969668	0.628966	0.409847
C43	C	0.516394	0.129899	0.000006
C44	C	1.016394	0.629899	0.500006
C45	C	1.059755	-0.042392	-0.000021
C46	C	1.559755	0.457608	0.499979
C47	C	1.049591	-0.147629	-0.000029
C48	C	1.549591	0.352371	0.499971
C49	C	1.103093	-0.397856	0.000009
C50	C	1.603093	0.102144	0.500009
C51	C	1.031025	-0.340307	0.000003
C52	C	1.531025	0.159693	0.500003
C53	C	1.041358	-0.233092	-0.000015
C54	C	1.541358	0.266908	0.499985
C55	C	1.092761	-0.505082	0.000027
C56	C	1.592761	-0.005082	0.500027
C57	C	1.230051	0.124178	0.000000
C58	C	1.730051	0.624178	0.500000
C59	C	1.329504	0.126159	0.000005
C60	C	1.829504	0.626159	0.500005
C61	C	1.074359	0.304223	0.000026
C62	C	1.574359	0.804223	0.500026
C63	C	1.084522	0.409460	0.000041
C64	C	1.584522	0.909460	0.500041
N65	N	1.067044	0.130913	-0.235355
N66	N	1.567044	0.630913	0.264645
C67	C	1.125884	0.188504	-0.287384
C68	C	1.625884	0.688504	0.212616
C69	C	1.125895	0.188500	-0.391487
C70	C	1.625895	0.688500	0.108513
C71	C	1.067060	0.130909	-0.443560
C72	C	1.567060	0.630909	0.056440
C73	C	1.008217	0.073312	-0.391524
C74	C	1.508217	0.573312	0.108476
C75	C	1.008211	0.073311	-0.287423
C76	C	1.508211	0.573311	0.212577
C77	C	1.008232	0.073318	-0.608504
C78	C	1.508232	0.573318	-0.108504
C79	C	1.008236	0.073319	-0.712612
C80	C	1.508236	0.573319	-0.212612
C81	C	1.125916	0.188507	-0.712569
C82	C	1.625916	0.688507	-0.212569
C83	C	1.125910	0.188507	-0.608468
C84	C	1.625910	0.688507	-0.108468
C85	C	1.067065	0.130910	-0.556439
C86	C	1.567065	0.630910	-0.056439
N87	N	1.067077	0.130910	0.235359
N88	N	1.567077	0.630910	0.735359
H89	H	0.507705	0.129734	-0.163563
H90	H	1.007705	0.629734	0.336437
H91	H	1.173826	0.235408	-0.754936
H92	H	1.673826	0.735408	-0.254936
H93	H	0.961564	-0.371561	0.000011
H94	H	1.461564	0.128439	0.500011
H95	H	1.173790	0.235407	-0.244994
H96	H	1.673790	0.735407	0.255006
H97	H	0.626398	0.132085	-0.163557
H98	H	1.126398	0.632085	0.336443
H99	H	1.172548	-0.366604	-0.000003
H100	H	1.672548	0.133396	0.499997
H101	H	0.960315	0.026415	-0.566145
H102	H	1.460315	0.526415	-0.066145
H103	H	0.626404	0.132087	0.163567
H104	H	1.126404	0.632087	0.663567
H105	H	1.173811	0.235395	-0.433845
H106	H	1.673811	0.735395	0.066155
H107	H	0.960297	0.026415	-0.245062
H108	H	1.460297	0.526415	0.254938
H109	H	1.173815	0.235407	-0.566073
H110	H	1.673815	0.735407	-0.066073
H111	H	0.960326	0.026425	-0.755007
H112	H	1.460326	0.526425	-0.255007
H113	H	0.960317	0.026415	-0.433930
H114	H	1.460317	0.526415	0.066070
H115	H	0.338175	0.126337	-0.163565
H116	H	0.838175	0.626337	0.336435
H117	H	0.795915	0.135508	-0.163557
H118	H	1.295915	0.635508	0.336443
H119	H	0.507723	0.129721	0.163574
H120	H	1.007723	0.629721	0.663574
H121	H	0.338194	0.126332	0.163567
H122	H	0.838194	0.626332	0.663567
H123	H	0.795938	0.135489	0.163575
H124	H	1.295938	0.635489	0.663575
