data_functionalizedCrystal
_audit_creation_method	'MofGen! by Chris Wilmer'
_symmetry_space_group_name_H-M	'P1'
_symmetry_Int_Tables_number	1
_symmetry_cell_setting	triclinic
loop_
_symmetry_equiv_pos_as_xyz
  x,y,z
_cell_length_a	18.426585
_cell_length_b	12.970454
_cell_length_c	18.426585
_cell_angle_alpha	59.999357
_cell_angle_beta	90.003816
_cell_angle_gamma	59.999882
loop_
_atom_site_label
_atom_site_type_symbol
_atom_site_fract_x
_atom_site_fract_y
_atom_site_fract_z
Zr1	Zr	0.699136	1.128485	-0.095203
O2	O	0.583248	1.343589	-0.211092
O3	O	0.734661	0.913389	-0.059677
O4	O	0.734653	1.128489	-0.211083
O5	O	0.583262	1.128482	0.059745
O6	O	0.854084	1.128482	-0.211076
O7	O	0.583256	1.128489	-0.059686
O8	O	0.854098	0.743708	0.059762
O9	O	0.583248	1.513257	-0.211093
O10	O	0.838942	1.001852	-0.044521
O11	O	0.749817	1.001852	0.044604
O12	O	0.749808	1.255105	-0.133657
O13	O	0.660683	1.255105	-0.044532
Zr14	Zr	0.889624	1.128462	0.095286
Zr15	Zr	0.889614	1.128473	-0.095193
Zr16	Zr	0.699145	1.128473	0.095275
Zr17	Zr	0.699136	1.399085	-0.095204
Zr18	Zr	0.889624	0.857862	0.095287
O19	O	0.854098	1.343557	0.059759
O20	O	0.854084	1.343573	-0.211077
O21	O	0.583262	1.343573	0.059744
O22	O	1.005511	0.913357	0.211175
O23	O	1.005497	0.913373	-0.059661
O24	O	0.734675	0.913373	0.211159
O25	O	1.005497	1.128464	-0.059662
O26	O	0.854106	1.128457	0.211165
O27	O	0.734675	1.128464	0.211158
O28	O	1.005503	1.128457	0.059769
O29	O	0.734653	1.513248	-0.211084
O30	O	0.854106	0.743699	0.211167
O31	O	1.005511	0.743689	0.211175
O32	O	1.005503	0.743699	0.059770
O33	O	0.583256	1.513248	-0.059688
O34	O	0.734661	1.513239	-0.059679
O35	O	0.838952	1.001842	0.133739
O36	O	0.928077	1.001842	0.044614
O37	O	0.838942	1.255094	-0.044522
O38	O	0.749817	1.255094	0.044603
C39	C	0.794380	0.789994	0.000043
C40	C	0.794380	0.675117	0.000043
C41	C	0.556120	1.128487	0.000028
C42	C	0.475257	1.128492	0.000023
C43	C	0.409586	1.128498	0.000023
C44	C	0.327205	1.128492	0.000031
C45	C	0.261547	1.128476	0.000042
C46	C	0.179160	1.128470	0.000049
C47	C	1.032639	1.128459	0.000055
C48	C	1.113503	1.128454	0.000060
C49	C	0.794367	1.128487	-0.238218
C50	C	0.794363	1.128492	-0.319081
C51	C	0.794380	1.466952	0.000040
C52	C	0.794380	1.581829	0.000040
C53	C	0.794397	1.128449	-0.615165
C54	C	0.794389	1.128455	-0.532784
C55	C	0.794379	1.128470	-0.467126
C56	C	0.794373	1.128477	-0.384739
C57	C	0.794392	1.128459	0.238301
C58	C	0.794396	1.128454	0.319164
C59	C	1.032639	0.789980	0.000056
C60	C	1.113502	0.675098	0.000061
C61	C	0.794392	0.789980	0.238302
C62	C	0.794396	0.675098	0.319166
C63	C	1.032652	0.789965	0.238316
C64	C	1.113519	0.675079	0.319184
C65	C	0.556108	1.466981	-0.238233
C66	C	0.475240	1.581868	-0.319101
C67	C	0.556120	1.466967	0.000026
C68	C	0.475257	1.581848	0.000021
C69	C	0.794367	1.466967	-0.238220
C70	C	0.794363	1.581848	-0.319083
C71	C	1.104949	0.621154	-0.046472
C72	C	1.180922	0.513225	-0.046485
C73	C	1.265446	0.459235	0.000041
C74	C	1.273997	0.513190	0.046575
C75	C	1.198026	0.621124	0.046583
C76	C	0.840925	0.621143	0.403676
C77	C	0.840926	0.513214	0.479663
C78	C	0.794402	0.459236	0.471138
C79	C	0.747867	0.513202	0.386619
C80	C	0.747862	0.621135	0.310634
C81	C	1.198026	0.621127	0.310638
C82	C	1.274016	0.513194	0.386615
C83	C	1.265499	0.459207	0.471137
C84	C	1.180983	0.513170	0.479681
C85	C	1.104994	0.621108	0.403705
C86	C	0.390734	1.635833	-0.310556
C87	C	0.314743	1.743799	-0.386533
C88	C	0.323261	1.797791	-0.471054
C89	C	0.407777	1.743822	-0.479598
C90	C	0.483765	1.635865	-0.403622
C91	C	0.483810	1.635804	0.046547
C92	C	0.407838	1.743762	0.046539
C93	C	0.323313	1.797756	0.000010
C94	C	0.314762	1.743796	-0.046521
C95	C	0.390733	1.635847	-0.046517
C96	C	0.840896	1.635793	-0.310530
C97	C	0.840910	1.743722	-0.386503
C98	C	0.794384	1.797712	-0.471027
C99	C	0.747850	1.743757	-0.479579
C100	C	0.747842	1.635822	-0.403607
H101	H	1.036132	0.665111	-0.084370
H102	H	1.174061	0.469198	0.548509
H103	H	0.383757	1.591919	-0.084401
Cl104	Cl	0.380002	1.567978	-0.204309
Cl105	Cl	0.418609	1.811568	0.105044
Cl106	Cl	1.360945	0.323542	0.000025
H107	H	0.245934	1.787723	-0.379559
H108	H	0.261379	1.885696	-0.532912
H109	H	0.794398	1.885600	-0.532881
H110	H	0.709970	1.787733	-0.548409
Cl111	Cl	1.380264	0.445295	0.105066
H112	H	0.709988	0.469236	0.379691
H113	H	0.245932	1.787774	-0.084403
H114	H	0.261460	1.885655	0.000015
Cl115	Cl	0.689367	0.688943	0.204396
H116	H	0.878783	1.591851	-0.241712
Cl117	Cl	0.998760	0.688912	0.414464
Cl118	Cl	1.208794	0.688916	0.105095
Cl119	Cl	0.899409	1.811537	-0.375732
H120	H	1.173941	0.469309	-0.084379
H121	H	0.878811	0.665080	0.410634
Cl122	Cl	0.899436	0.445389	0.585904
Cl123	Cl	1.361037	0.323508	0.566643
H124	H	0.414701	1.787796	-0.548425
Cl125	Cl	0.689327	1.568034	-0.414376
H126	H	0.794413	0.371349	0.533018
H127	H	1.204978	0.665067	0.241823
H128	H	1.342826	0.469268	0.379643
H129	H	0.552572	1.591927	-0.410591
H130	H	0.552627	1.591850	0.084442
