data_functionalizedCrystal
_audit_creation_method	'MofGen! by Chris Wilmer'
_symmetry_space_group_name_H-M	'P1'
_symmetry_Int_Tables_number	1
_symmetry_cell_setting	triclinic
loop_
_symmetry_equiv_pos_as_xyz
  x,y,z
_cell_length_a	12.594516
_cell_length_b	13.897449
_cell_length_c	13.897441
_cell_angle_alpha	89.978743
_cell_angle_beta	89.974595
_cell_angle_gamma	90.016879
loop_
_atom_site_label
_atom_site_type_symbol
_atom_site_fract_x
_atom_site_fract_y
_atom_site_fract_z
Zn1	Zn	-0.423695	1.474693	-0.545478
Zn2	Zn	-0.601703	1.474598	-0.384191
Zn3	Zn	-0.423741	1.313388	-0.384189
Zn4	Zn	-0.601634	1.313369	-0.545436
O5	O	-0.512693	1.394012	-0.464824
O6	O	-0.447317	1.609662	-0.524101
O7	O	-0.578144	1.453181	-0.249209
O8	O	-0.274789	1.334834	-0.405601
O9	O	-0.578099	1.609592	-0.405605
O10	O	-0.274755	1.453344	-0.524099
O11	O	-0.447396	1.334742	-0.249207
O12	O	-0.447330	1.178404	-0.405560
O13	O	-0.577982	1.334800	-0.680424
O14	O	-0.578027	1.178390	-0.524028
O15	O	-0.447251	1.453325	-0.680454
O16	O	-0.750639	1.453162	-0.405564
O17	O	-0.750589	1.334708	-0.524030
C18	C	-0.512677	1.143398	-0.464790
C19	C	-0.512695	1.036184	-0.464798
C20	C	-0.512699	0.949114	-0.464815
C21	C	-0.512707	0.839882	-0.464844
C22	C	-0.789234	1.393949	-0.464814
C23	C	-0.907540	1.394010	-0.464842
C24	C	-0.976804	1.329577	-0.529231
C25	C	-1.047669	1.306076	-0.441213
C26	C	-1.047474	1.417598	-0.552875
C27	C	-0.976846	1.370463	-0.376778
C28	C	-0.976645	1.482026	-0.488500
C29	C	-1.047478	1.458559	-0.400421
C30	C	-0.235072	1.394102	-0.464854
C31	C	-0.116767	1.394140	-0.464867
C32	C	-0.512604	1.394071	-0.716417
C33	C	-0.512566	1.394096	-0.823631
C34	C	-0.512710	1.645605	-0.464858
C35	C	-0.512718	1.752819	-0.464873
C36	C	-0.512536	1.394116	-0.910701
C37	C	-0.512488	1.394144	-1.019933
C38	C	-0.512705	1.394009	-0.214209
C39	C	-0.512444	1.394171	-0.106996
H40	H	-1.078889	1.231703	-0.421223
N41	N	-0.935671	1.257283	-0.601250
H42	H	-0.962465	1.274367	-0.667578
H43	H	-0.961515	1.190888	-0.583177
H44	H	-0.945950	1.350479	-0.302319
H45	H	-1.078314	1.513104	-0.345918
N46	N	-0.935290	1.580520	-0.515025
H47	H	-0.960934	1.598233	-0.581562
H48	H	-0.855110	1.579819	-0.514139
N49	N	-1.088582	1.443959	-0.651471
H50	H	-1.062874	1.395190	-0.700042
H51	H	-1.061630	1.509935	-0.669748
