data_functionalizedCrystal
_audit_creation_method	'MofGen! by Chris Wilmer'
_symmetry_space_group_name_H-M	'P1'
_symmetry_Int_Tables_number	1
_symmetry_cell_setting	triclinic
loop_
_symmetry_equiv_pos_as_xyz
  x,y,z
_cell_length_a	13.897449
_cell_length_b	12.645330
_cell_length_c	13.897441
_cell_angle_alpha	89.970564
_cell_angle_beta	89.979267
_cell_angle_gamma	90.013926
loop_
_atom_site_label
_atom_site_type_symbol
_atom_site_fract_x
_atom_site_fract_y
_atom_site_fract_z
Zn1	Zn	1.474736	-0.421969	-0.545389
Zn2	Zn	1.474645	-0.599265	-0.384094
Zn3	Zn	1.313426	-0.422020	-0.384107
Zn4	Zn	1.313421	-0.599195	-0.545346
O5	O	1.394057	-0.510612	-0.464734
O6	O	1.609706	-0.445496	-0.524005
O7	O	1.453222	-0.575803	-0.249114
O8	O	1.334864	-0.273666	-0.405525
O9	O	1.609638	-0.575754	-0.405502
O10	O	1.453378	-0.273629	-0.524018
O11	O	1.334775	-0.445582	-0.249124
O12	O	1.178443	-0.445514	-0.405484
O13	O	1.334857	-0.575635	-0.680334
O14	O	1.178440	-0.575684	-0.523945
O15	O	1.453374	-0.445428	-0.680365
O16	O	1.453218	-0.747603	-0.405461
O17	O	1.334768	-0.747552	-0.523932
C18	C	1.143443	-0.510598	-0.464712
C19	C	1.036229	-0.510618	-0.464726
C20	C	1.394009	-0.786042	-0.464711
C21	C	1.394076	-0.903872	-0.464734
C22	C	0.839934	-0.510621	-0.464751
C23	C	0.949166	-0.510616	-0.464734
C24	C	1.468474	-1.071424	-0.390052
C25	C	1.468716	-0.948864	-0.390235
C26	C	1.421645	-0.948249	-0.566410
C27	C	1.422236	-1.070847	-0.566014
C28	C	1.292081	-1.071203	-0.438741
C29	C	1.292570	-0.948599	-0.436461
C30	C	1.645650	-0.510627	-0.464757
C31	C	1.752864	-0.510634	-0.464766
C32	C	1.394125	-0.510519	-0.716327
C33	C	1.394155	-0.510479	-0.823541
C34	C	1.394132	-0.234107	-0.464778
C35	C	1.394164	-0.116277	-0.464797
C36	C	1.394181	-0.510407	-1.019836
C37	C	1.394163	-0.510450	-0.910604
C38	C	1.394044	-0.510629	-0.214120
C39	C	1.394202	-0.510370	-0.106906
H40	H	1.451467	-0.918865	-0.314843
C41	C	1.445640	-1.110986	-0.289306
C42	C	1.364393	-1.176377	-0.292541
C43	C	1.343332	-1.212851	-0.199751
H44	H	1.433232	-1.052456	-0.248326
H45	H	1.498876	-1.149919	-0.265152
H46	H	1.311169	-1.137444	-0.316682
H47	H	1.376779	-1.234923	-0.333503
H48	H	1.396567	-1.251785	-0.175598
H49	H	1.330928	-1.154316	-0.158778
H50	H	1.288210	-1.257231	-0.201935
C51	C	1.264945	-0.910186	-0.336585
C52	C	1.251285	-0.997321	-0.275895
C53	C	1.225882	-0.961988	-0.183865
H54	H	1.207044	-0.870486	-0.340224
H55	H	1.314896	-0.866820	-0.311678
H56	H	1.201337	-1.040669	-0.300795
H57	H	1.309174	-1.037030	-0.272227
H58	H	1.275834	-0.918622	-0.158958
H59	H	1.167983	-0.922287	-0.187514
H60	H	1.216619	-1.021102	-0.142673
H61	H	1.267011	-1.102216	-0.365890
H62	H	1.234216	-0.917984	-0.486910
C63	C	1.519931	-0.907068	-0.596468
C64	C	1.511100	-0.849310	-0.681989
C65	C	1.601621	-0.811350	-0.709694
H66	H	1.562367	-0.964927	-0.606366
H67	H	1.544883	-0.862618	-0.547351
H68	H	1.486162	-0.893758	-0.731095
H69	H	1.468682	-0.791436	-0.672114
H70	H	1.626573	-0.766900	-0.660577
H71	H	1.644049	-0.869216	-0.719587
H72	H	1.595640	-0.772149	-0.767717
H73	H	1.543677	-1.102152	-0.407093
H74	H	1.369169	-0.919102	-0.623593
H75	H	1.370483	-1.100513	-0.623623
C76	C	1.569581	-0.909845	-0.413288
C77	C	1.630543	-0.996659	-0.427105
C78	C	1.723467	-0.960757	-0.448362
H79	H	1.592838	-0.868183	-0.361411
H80	H	1.568005	-0.868276	-0.470230
H81	H	1.632123	-1.038211	-0.370170
H82	H	1.607317	-1.038330	-0.478985
H83	H	1.721891	-0.919188	-0.505304
H84	H	1.746714	-0.919095	-0.396481
H85	H	1.764839	-1.019654	-0.457748
H86	H	1.496853	-1.099357	-0.588085
H87	H	1.236714	-1.100210	-0.493181
