data_functionalizedCrystal
_audit_creation_method	'MofGen! by Chris Wilmer'
_symmetry_space_group_name_H-M	'P1'
_symmetry_Int_Tables_number	1
_symmetry_cell_setting	triclinic
loop_
_symmetry_equiv_pos_as_xyz
  x,y,z
_cell_length_a	10.967953
_cell_length_b	10.967926
_cell_length_c	10.065875
_cell_angle_alpha	93.120479
_cell_angle_beta	110.815185
_cell_angle_gamma	82.165878
loop_
_atom_site_label
_atom_site_type_symbol
_atom_site_fract_x
_atom_site_fract_y
_atom_site_fract_z
O1	O	0.225883	1.606512	0.317479
O2	O	0.229582	1.256363	0.235993
O3	O	0.039632	1.446316	0.236001
O4	O	0.415833	1.416559	0.317471
O5	O	0.076005	1.410091	0.463023
O6	O	0.265955	1.220138	0.463015
O7	O	0.262256	1.570286	0.544501
Zn8	Zn	0.269880	1.389460	0.539803
Zn9	Zn	0.221957	1.437189	0.240691
O10	O	0.452206	1.380333	0.544493
C11	C	0.244751	1.193542	0.338279
C12	C	0.235744	1.060326	0.304828
C13	C	0.250571	0.982168	0.407519
C14	C	0.241262	0.844482	0.372948
C15	C	0.009521	1.428776	0.338286
C16	C	-0.134392	1.430468	0.304832
C17	C	-0.328449	1.414197	0.372962
C18	C	-0.179709	1.412452	0.407535
C19	C	0.482316	1.397874	0.442205
C20	C	0.626227	1.396183	0.475650
C21	C	0.247086	1.633108	0.442212
C22	C	0.256092	1.766325	0.475654
N23	N	0.302586	1.356895	0.743940
N24	N	0.189242	1.469764	0.036554
C25	C	0.233328	1.425852	0.811651
C26	C	0.258510	1.400798	0.968847
H27	H	0.275674	0.801337	0.589172
C28	C	0.083980	1.574608	0.957686
H29	H	0.080881	1.577713	0.862387
H30	H	0.000654	1.560117	0.958019
H31	H	0.105496	1.650694	1.003991
C32	C	0.214807	0.797193	0.219596
H33	H	0.212031	0.710855	0.216480
H34	H	0.132995	0.837053	0.158855
H35	H	0.283098	0.814477	0.188857
H36	H	-0.302460	1.379476	0.589162
H37	H	0.336447	1.323204	1.027246
C38	C	0.277032	1.029463	0.560865
H39	H	0.279826	1.115798	0.563985
H40	H	0.208759	1.012174	0.591620
H41	H	0.358858	0.989602	0.621597
C42	C	-0.230712	1.453047	0.151477
H43	H	-0.318046	1.451249	0.148352
H44	H	-0.223255	1.531155	0.120728
H45	H	-0.210268	1.390642	0.090744
C46	C	0.128038	1.530661	0.732759
H47	H	0.124931	1.533754	0.637457
H48	H	0.044726	1.516135	0.733106
H49	H	0.149517	1.606764	0.779039
H50	H	0.216156	1.025308	0.191317
H51	H	-0.399763	1.430917	0.259453
C52	C	0.407876	1.252086	0.822832
H53	H	0.410995	1.249002	0.918139
H54	H	0.386411	1.175987	0.776553
H55	H	0.491193	1.266624	0.822492
C56	C	-0.083392	1.389873	0.560890
H57	H	-0.131116	1.378805	0.620835
H58	H	-0.023329	1.318195	0.563232
H59	H	-0.036323	1.458707	0.593222
