data_functionalizedCrystal
_audit_creation_method	'MofGen! by Chris Wilmer'
_symmetry_space_group_name_H-M	'P1'
_symmetry_Int_Tables_number	1
_symmetry_cell_setting	triclinic
loop_
_symmetry_equiv_pos_as_xyz
  x,y,z
_cell_length_a	11.026607
_cell_length_b	11.804365
_cell_length_c	11.026607
_cell_angle_alpha	75.515365
_cell_angle_beta	108.586017
_cell_angle_gamma	104.497515
loop_
_atom_site_label
_atom_site_type_symbol
_atom_site_fract_x
_atom_site_fract_y
_atom_site_fract_z
O1	O	1.746857	0.099024	0.513518
O2	O	1.380277	0.099026	0.452754
O3	O	1.533184	0.099021	0.299847
O4	O	1.593949	0.099029	0.666425
O5	O	1.492918	-0.099034	0.340050
O6	O	1.340011	-0.099028	0.492957
O7	O	1.706591	-0.099030	0.553721
Cu8	Cu	1.519624	-0.117113	0.527010
Cu9	Cu	1.567243	0.117109	0.479465
O10	O	1.553684	-0.099025	0.706628
C11	C	1.312485	-0.000001	0.461646
C12	C	1.170471	-0.000000	0.428228
N13	N	1.486141	-0.281853	0.560451
C14	C	1.116822	0.000003	0.520497
C15	C	0.970043	0.000004	0.485962
C16	C	1.681136	-0.655808	0.365686
C17	C	1.706464	-0.531147	0.340382
C18	C	1.651385	-0.468817	0.395397
C19	C	1.570974	-0.531161	0.475721
C20	C	1.545652	-0.655834	0.501036
C21	C	1.515901	-0.468843	0.530746
C22	C	1.435491	-0.531187	0.611070
C23	C	1.410172	-0.655847	0.636380
C24	C	1.465251	-0.718177	0.581365
C25	C	1.541223	-0.344170	0.505431
C26	C	1.405740	-0.344196	0.640780
C27	C	1.380412	-0.468857	0.666085
C28	C	1.774384	-0.000001	0.544829
C29	C	1.916399	0.000006	0.578244
C30	C	1.501842	-0.000005	0.272288
C31	C	1.468426	-0.000000	0.130273
N32	N	1.600735	0.281849	0.446016
C33	C	1.560696	0.000001	0.076624
C34	C	1.526161	0.000005	-0.070156
C35	C	1.585027	0.000003	0.734186
C36	C	1.618444	0.000007	0.876199
H37	H	1.179554	-0.000002	0.625061
H38	H	1.421593	0.000014	-0.132886
Br39	Br	1.815589	-0.446540	0.231382
Br40	Br	0.865497	-0.000014	0.311673
H41	H	1.363865	0.000008	0.067539
Br42	Br	1.330995	-0.259615	0.715459
Br43	Br	1.792739	0.000016	-0.019264
H44	H	1.672010	-0.367313	0.374790
H45	H	0.979125	0.000001	0.682816
H46	H	1.107743	0.000028	0.323660
H47	H	1.444626	-0.819686	0.601963
Br48	Br	1.650349	-0.259577	0.396427
Br49	Br	1.734983	0.000012	0.181168
Br50	Br	1.755897	-0.740397	0.291049
Br51	Br	1.271284	-0.553477	0.775091
Br52	Br	1.301068	-0.740460	0.745412
