data_functionalizedCrystal
_audit_creation_method	'MofGen! by Chris Wilmer'
_symmetry_space_group_name_H-M	'P1'
_symmetry_Int_Tables_number	1
_symmetry_cell_setting	triclinic
loop_
_symmetry_equiv_pos_as_xyz
  x,y,z
_cell_length_a	16.974800
_cell_length_b	15.995350
_cell_length_c	15.455313
_cell_angle_alpha	92.667328
_cell_angle_beta	90.973911
_cell_angle_gamma	83.440933
loop_
_atom_site_label
_atom_site_type_symbol
_atom_site_fract_x
_atom_site_fract_y
_atom_site_fract_z
O1	O	1.049074	0.106736	0.001543
O2	O	1.549074	0.606736	0.501543
O3	O	0.819642	0.119523	-0.014570
O4	O	1.319642	0.619523	0.485430
O5	O	0.940630	-0.008743	-0.006072
O6	O	1.440630	0.491257	0.493928
O7	O	0.928086	0.235002	-0.006955
O8	O	1.428086	0.735002	0.493045
O9	O	0.933711	-0.001439	0.137704
O10	O	1.433711	0.498561	0.637704
O11	O	0.812723	0.126828	0.129206
O12	O	1.312723	0.626828	0.629206
O13	O	1.042156	0.114041	0.145319
O14	O	1.542156	0.614041	0.645319
Cu15	Cu	0.926808	0.121101	0.150391
Cu16	Cu	1.426808	0.621101	0.650391
Cu17	Cu	0.934990	0.112463	-0.019641
Cu18	Cu	1.434990	0.612463	0.480359
O19	O	0.921168	0.242307	0.136822
O20	O	1.421168	0.742307	0.636822
C21	C	0.786823	0.122555	0.055256
C22	C	1.286823	0.622555	0.555256
C23	C	0.699341	0.120697	0.049113
C24	C	1.199341	0.620697	0.549113
C25	C	0.654476	0.123804	0.124601
C26	C	1.154476	0.623804	0.624601
C27	C	0.572279	0.122045	0.118830
C28	C	1.072279	0.622045	0.618830
C29	C	0.534949	0.117185	0.037571
C30	C	1.034949	0.617185	0.537571
C31	C	0.579821	0.114076	-0.037923
C32	C	1.079821	0.614076	0.462077
C33	C	0.662017	0.115829	-0.032151
C34	C	1.162017	0.615829	0.467849
C35	C	0.289524	0.111510	0.011907
C36	C	0.789524	0.611510	0.511907
C37	C	0.207322	0.109759	0.006141
C38	C	0.707322	0.609759	0.506141
C39	C	0.199786	0.117727	0.162895
C40	C	0.699786	0.617727	0.662895
C41	C	0.281983	0.119485	0.168659
C42	C	0.781983	0.619485	0.668659
C43	C	0.326849	0.116371	0.093165
C44	C	0.826849	0.616371	0.593165
N45	N	0.450930	0.115390	0.031671
N46	N	0.950930	0.615390	0.531671
N47	N	0.410866	0.118160	0.099066
N48	N	0.910866	0.618160	0.599066
C49	C	0.936652	-0.036287	0.065778
C50	C	1.436652	0.463713	0.565778
C51	C	0.935097	-0.129241	0.065664
C52	C	1.435097	0.370759	0.565664
C53	C	0.929514	-0.467002	0.065275
C54	C	1.429514	0.032998	0.565275
C55	C	0.843364	-0.419787	0.058901
C56	C	1.343364	0.080213	0.558901
C57	C	0.844904	-0.323077	0.059334
C58	C	1.344904	0.176923	0.559334
C59	C	0.932284	-0.299435	0.065467
C60	C	1.432284	0.200565	0.565467
C61	C	0.970833	-0.336241	0.150554
C62	C	1.470833	0.163759	0.650554
C63	C	0.968665	-0.432878	0.150470
C64	C	1.468665	0.067122	0.650470
C65	C	0.978313	-0.441539	-0.012905
C66	C	1.478313	0.058461	0.487095
C67	C	0.978344	-0.344649	-0.013992
C68	C	1.478344	0.155351	0.486008
C69	C	0.933853	-0.204734	0.065579
C70	C	1.433853	0.295266	0.565579
C71	C	0.927947	-0.561703	0.065169
C72	C	1.427947	-0.061703	0.565169
C73	C	1.074974	0.111008	0.075491
C74	C	1.574974	0.611008	0.575491
C75	C	1.162456	0.112866	0.081629
C76	C	1.662456	0.612866	0.581629
C77	C	0.925146	0.269851	0.064970
C78	C	1.425146	0.769851	0.564970
C79	C	0.926700	0.362805	0.065078
C80	C	1.426700	0.862805	0.565078
N81	N	0.921059	0.127176	0.269982
N82	N	1.421059	0.627176	0.769982
N83	N	0.940745	0.106381	-0.139233
N84	N	1.440745	0.606381	0.360767
C85	C	0.972476	0.072705	0.318988
C86	C	1.472476	0.572705	0.818988
C87	C	0.968136	0.077307	0.409491
C88	C	1.468136	0.577307	0.909491
C89	C	0.912381	0.136386	0.450987
C90	C	1.412381	0.636386	0.950987
C91	C	0.860957	0.190860	0.401975
C92	C	1.360957	0.690860	0.901975
C93	C	0.865295	0.186253	0.311473
C94	C	1.365295	0.686253	0.811473
C95	C	0.893659	0.156248	0.721254
C96	C	1.393659	0.656248	1.221254
C97	C	0.889327	0.160853	0.811762
C98	C	1.389327	0.660853	1.311762
C99	C	0.996505	0.047298	0.819272
C100	C	1.496505	0.547298	1.319272
C101	C	1.000841	0.042700	0.728768
C102	C	1.500841	0.542700	1.228768
C103	C	0.949415	0.097171	0.679764
C104	C	1.449415	0.597171	1.179764
N105	N	0.907944	0.141093	0.543496
N106	N	1.407944	0.641093	1.043496
N107	N	0.953848	0.092459	0.587257
N108	N	1.453848	0.592459	1.087257
H109	H	0.549421	0.110113	-0.104086
H110	H	1.049421	0.610113	0.395914
H111	H	0.312372	0.123438	0.234829
H112	H	0.812372	0.623438	0.734829
C113	C	0.150429	0.121144	0.245932
C114	C	0.650429	0.621144	0.745932
N115	N	0.113253	0.123713	0.308479
N116	N	0.613253	0.623713	0.808479
H117	H	0.851787	0.200602	0.681361
H118	H	1.351787	0.700602	1.181361
H119	H	0.815556	0.238960	0.435766
H120	H	1.315556	0.738960	0.935766
C121	C	0.800658	-0.448982	-0.023901
C122	C	1.300658	0.051018	0.476099
N123	N	0.768490	-0.470979	-0.086268
N124	N	1.268490	0.029021	0.413732
H125	H	0.938374	-0.304825	0.209580
H126	H	1.438374	0.195175	0.709580
C127	C	0.827987	0.225844	0.857405
C128	C	1.327987	0.725844	1.357405
N129	N	0.781789	0.274794	0.891784
N130	N	1.281789	0.774794	1.391784
C131	C	1.033812	0.007712	0.273351
C132	C	1.533812	0.507712	0.773351
N133	N	1.080008	-0.041244	0.238979
N134	N	1.580008	0.458756	0.738979
C135	C	0.808737	0.246183	0.257568
C136	C	1.308737	0.746183	0.757568
N137	N	0.766137	0.291325	0.216967
N138	N	1.266137	0.791325	0.716967
C139	C	0.695531	0.129150	0.213993
C140	C	1.195531	0.629150	0.713993
N141	N	0.726452	0.133172	0.281326
N142	N	1.226452	0.633172	0.781326
H143	H	0.953135	-0.465307	-0.077112
H144	H	1.453135	0.034693	0.422888
C145	C	0.793245	-0.442321	0.134763
C146	C	1.293245	0.057679	0.634763
N147	N	0.755501	-0.459286	0.191911
N148	N	1.255501	0.040714	0.691911
H149	H	0.808434	-0.292296	0.115926
H150	H	1.308434	0.207704	0.615926
H151	H	0.934720	-0.448135	0.209669
H152	H	1.434720	0.051865	0.709669
H153	H	0.698545	0.113300	-0.093622
H154	H	1.198545	0.613300	0.406378
C155	C	1.053883	-0.475989	0.161515
C156	C	1.553883	0.024011	0.661515
N157	N	1.118068	-0.508455	0.169839
N158	N	1.618068	-0.008455	0.669839
C159	C	1.062172	-0.022296	0.683129
C160	C	1.562172	0.477704	1.183129
N161	N	1.108368	-0.071251	0.648754
N162	N	1.608368	0.428749	1.148754
H163	H	0.535754	0.124561	0.180301
H164	H	1.035754	0.624561	0.680301
C165	C	1.064755	-0.324040	-0.014644
C166	C	1.564755	0.175960	0.485356
N167	N	1.129843	-0.308521	-0.015127
N168	N	1.629843	0.191479	0.484873
C169	C	0.166261	0.104412	-0.083254
C170	C	0.666261	0.604412	0.416746
N171	N	0.135333	0.100386	-0.150583
N172	N	0.635333	0.600386	0.349417
C173	C	0.803591	-0.288823	-0.023341
C174	C	1.303591	0.211177	0.476659
N175	N	0.772468	-0.263026	-0.085612
N176	N	1.272468	0.236974	0.414388
H177	H	0.326044	0.108971	-0.049565
H178	H	0.826044	0.608971	0.450435
H179	H	0.950194	-0.320559	-0.076910
H180	H	1.450194	0.179441	0.423090
H181	H	1.041869	-0.473178	-0.008998
H182	H	1.541869	0.026822	0.491002
C183	C	1.057354	-0.316727	0.160780
C184	C	1.557354	0.183273	0.660780
N185	N	1.122521	-0.302022	0.168484
N186	N	1.622521	0.197978	0.668484
C187	C	1.024681	0.017363	0.463392
C188	C	1.524681	0.517363	0.963392
N189	N	1.067266	-0.027798	0.503989
N190	N	1.567266	0.472202	1.003989
H191	H	1.038373	0.002949	0.859179
H192	H	1.538373	0.502949	1.359179
