data_functionalizedCrystal
_audit_creation_method	'MofGen! by Chris Wilmer'
_symmetry_space_group_name_H-M	'P1'
_symmetry_Int_Tables_number	1
_symmetry_cell_setting	triclinic
loop_
_symmetry_equiv_pos_as_xyz
  x,y,z
_cell_length_a	11.792241
_cell_length_b	10.268362
_cell_length_c	12.837942
_cell_angle_alpha	89.995347
_cell_angle_beta	90.488822
_cell_angle_gamma	90.000374
loop_
_atom_site_label
_atom_site_type_symbol
_atom_site_fract_x
_atom_site_fract_y
_atom_site_fract_z
O1	O	1.521327	0.108172	-0.142169
O2	O	2.021327	0.608172	0.357831
O3	O	1.192472	0.108202	-0.156821
O4	O	1.692472	0.608202	0.343179
O5	O	1.349608	0.108180	0.001449
O6	O	1.849608	0.608180	0.501449
O7	O	1.364192	0.108194	-0.300439
O8	O	1.864192	0.608194	0.199561
O9	O	1.349592	-0.108421	0.001455
O10	O	1.849592	0.391579	0.501455
O11	O	1.192456	-0.108399	-0.156814
O12	O	1.692456	0.391601	0.343186
O13	O	1.521311	-0.108429	-0.142162
O14	O	2.021311	0.391571	0.357838
Cu15	Cu	1.356882	-0.128191	-0.149488
Cu16	Cu	1.856882	0.371809	0.350512
Cu17	Cu	1.356901	0.127964	-0.149496
Cu18	Cu	1.856901	0.627964	0.350504
O19	O	1.364176	-0.108406	-0.300432
O20	O	1.864176	0.391594	0.199568
C21	C	1.150080	-0.000094	-0.155897
C22	C	1.650080	0.499906	0.344103
C23	C	1.023787	-0.000083	-0.153142
C24	C	1.523787	0.499917	0.346858
N25	N	1.356878	-0.308357	-0.149482
N26	N	1.856878	0.191643	0.350518
C27	C	0.792561	-0.000121	-0.148077
C28	C	1.292561	0.499879	0.351923
C29	C	0.921232	-0.000100	-0.150891
C30	C	1.421232	0.499900	0.349109
C31	C	1.356895	-0.574027	-0.149493
C32	C	1.856895	-0.074027	0.350507
C33	C	1.356882	-0.426190	-0.149490
C34	C	1.856882	0.073810	0.350510
C35	C	1.563704	-0.000129	-0.143086
C36	C	2.063704	0.499871	0.356914
C37	C	1.689997	-0.000132	-0.145841
C38	C	2.189997	0.499868	0.354159
C39	C	1.344673	-0.000119	0.040100
C40	C	1.844673	0.499881	0.540100
C41	C	1.329979	-0.000116	0.155260
C42	C	1.829979	0.499884	0.655260
N43	N	1.356914	0.308130	-0.149493
N44	N	1.856914	0.808130	0.350507
C45	C	1.369111	-0.000104	-0.339084
C46	C	1.869111	0.499896	0.160916
C47	C	1.383804	-0.000099	-0.454243
C48	C	1.883804	0.499901	0.045757
C49	C	1.506625	-0.000105	0.395226
C50	C	2.006625	0.499895	0.895226
C51	C	1.492824	-0.000102	0.503429
C52	C	1.992824	0.499898	1.003429
C53	C	1.288578	-0.000096	0.479872
C54	C	1.788578	0.499904	0.979872
C55	C	1.302379	-0.000100	0.371669
C56	C	1.802379	0.499900	0.871669
C57	C	1.411406	-0.000106	0.329350
C58	C	1.911406	0.499894	0.829350
C59	C	1.425206	-0.000119	0.221144
C60	C	1.925206	0.499881	0.721144
C61	C	1.220960	-0.000104	0.197590
C62	C	1.720960	0.499896	0.697590
C63	C	1.207159	-0.000101	0.305793
C64	C	1.707159	0.499899	0.805793
H65	H	1.513981	-0.000129	0.186690
H66	H	2.013981	0.499871	0.686690
H67	H	1.595399	-0.000123	0.360769
H68	H	2.095399	0.499877	0.860769
H69	H	1.143426	-0.000116	0.143941
H70	H	1.643426	0.499884	0.643941
H71	H	1.199813	-0.000077	0.514348
H72	H	1.699813	0.499923	1.014348
O73	O	1.585441	-0.000161	0.567273
O74	O	2.085441	0.499839	1.067273
C75	C	1.789482	-0.000085	0.579215
C76	C	2.289482	0.499915	1.079215
C77	C	1.684687	-0.000051	0.506793
C78	C	2.184687	0.499949	1.006793
H79	H	1.869749	0.000033	0.530346
H80	H	2.369749	0.500033	1.030346
H81	H	1.788208	-0.090751	0.630450
H82	H	2.288208	0.409249	1.130450
H83	H	1.788063	0.090543	0.630475
H84	H	2.288063	0.590543	1.130475
H85	H	1.686038	-0.090617	0.455467
H86	H	2.186038	0.409383	0.955467
H87	H	1.686001	0.090676	0.455628
H88	H	2.186001	0.590676	0.955628
H89	H	1.118392	-0.000091	0.340265
H90	H	1.618392	0.499909	0.840265
