data_functionalizedCrystal
_audit_creation_method	'MofGen! by Chris Wilmer'
_symmetry_space_group_name_H-M	'P1'
_symmetry_Int_Tables_number	1
_symmetry_cell_setting	triclinic
loop_
_symmetry_equiv_pos_as_xyz
  x,y,z
_cell_length_a	12.759401
_cell_length_b	16.120444
_cell_length_c	16.120256
_cell_angle_alpha	95.616860
_cell_angle_beta	92.880020
_cell_angle_gamma	92.928028
loop_
_atom_site_label
_atom_site_type_symbol
_atom_site_fract_x
_atom_site_fract_y
_atom_site_fract_z
Zn1	Zn	1.552077	-0.356730	-0.489423
Zn2	Zn	2.052077	0.143270	0.010577
Zn3	Zn	1.551942	-0.489416	-0.356734
Zn4	Zn	2.051942	0.010584	0.143266
Zn5	Zn	1.385767	-0.349665	-0.349672
Zn6	Zn	1.885767	0.150335	0.150328
Zn7	Zn	1.366953	-0.496466	-0.496462
Zn8	Zn	1.866953	0.003534	0.003538
O9	O	1.464185	-0.423069	-0.423073
O10	O	1.964185	0.076931	0.076927
O11	O	1.699079	-0.374337	-0.471831
O12	O	2.199079	0.125663	0.028169
O13	O	1.537716	-0.464971	-0.238834
O14	O	2.037716	0.035029	0.261166
O15	O	1.415759	-0.233636	-0.362309
O16	O	1.915759	0.266364	0.137691
O17	O	1.698980	-0.471821	-0.374345
O18	O	2.198980	0.028179	0.125655
O19	O	1.537946	-0.238827	-0.464983
O20	O	2.037946	0.261173	0.035017
O21	O	1.415628	-0.362297	-0.233646
O22	O	1.915628	0.137703	0.266354
O23	O	1.236251	-0.369133	-0.369134
O24	O	1.736251	0.130867	0.130866
O25	O	1.383692	-0.483836	-0.612491
O26	O	1.883692	0.016164	-0.112491
O27	O	1.222428	-0.476986	-0.476981
O28	O	1.722428	0.023014	0.023019
O29	O	1.519702	-0.381173	-0.607319
O30	O	2.019702	0.118827	-0.107319
O31	O	1.519472	-0.607318	-0.381171
O32	O	2.019472	-0.107318	0.118829
O33	O	1.383561	-0.612497	-0.483828
O34	O	1.883561	-0.112497	0.016172
C35	C	1.191219	-0.423058	-0.423056
C36	C	1.691219	0.076942	0.076944
C37	C	1.074441	-0.423075	-0.423069
C38	C	1.574441	0.076925	0.076931
C39	C	1.449488	-0.640236	-0.434048
C40	C	1.949488	-0.140236	0.065952
C41	C	1.443294	-0.733142	-0.438771
C42	C	1.943294	-0.233142	0.061229
C43	C	1.012409	-0.479311	-0.479145
C44	C	1.512409	0.020689	0.020855
C45	C	0.902683	-0.479315	-0.479161
C46	C	1.402683	0.020685	0.020839
C47	C	0.917032	-0.366844	-0.367020
C48	C	1.417032	0.133156	0.132980
C49	C	1.026755	-0.366836	-0.367008
C50	C	1.526755	0.133164	0.132992
C51	C	1.496558	-0.942050	-0.398750
C52	C	1.996558	-0.442050	0.101250
C53	C	1.432006	-0.903238	-0.447404
C54	C	1.932006	-0.403238	0.052596
C55	C	1.438289	-0.808588	-0.442599
C56	C	1.938289	-0.308588	0.057401
C57	C	1.490276	-1.036709	-0.403554
C58	C	1.990276	-0.536709	0.096446
C59	C	1.738216	-0.423081	-0.423090
C60	C	2.238216	0.076919	0.076910
C61	C	1.854992	-0.423086	-0.423098
C62	C	2.354992	0.076914	0.076902
C63	C	1.449614	-0.434079	-0.641080
C64	C	1.949614	0.065921	-0.141080
C65	C	1.443404	-0.438771	-0.733982
C66	C	1.943404	0.061229	-0.233982
C67	C	1.478967	-0.205056	-0.412073
C68	C	1.978967	0.294944	0.087927
C69	C	1.485266	-0.112151	-0.407385
C70	C	1.985266	0.387849	0.092615
C71	C	1.496565	-0.398581	-0.942906
C72	C	1.996565	0.101419	-0.442906
C73	C	1.432035	-0.447302	-0.904067
C74	C	1.932035	0.052698	-0.404067
C75	C	1.438363	-0.442554	-0.809423
C76	C	1.938363	0.057446	-0.309423
C77	C	1.490239	-0.403328	-1.037559
C78	C	1.990239	0.096672	-0.537559
C79	C	1.478764	-0.412042	-0.205910
C80	C	1.978764	0.087958	0.294090
C81	C	1.485192	-0.407115	-0.112997
C82	C	1.985192	0.092885	0.387003
H83	H	1.051230	-0.525102	-0.524795
H84	H	1.551230	-0.025102	-0.024795
C85	C	0.899529	-0.590494	-0.589997
C86	C	1.399529	-0.090494	-0.089997
C87	C	0.834498	-0.541136	-0.540798
C88	C	1.334498	-0.041136	-0.040798
H89	H	0.857432	-0.628663	-0.628047
H90	H	1.357432	-0.128663	-0.128047
H91	H	0.942652	-0.555744	-0.620185
H92	H	1.442652	-0.055744	-0.120185
H93	H	0.942595	-0.620560	-0.555123
H94	H	1.442595	-0.120560	-0.055123
H95	H	0.791437	-0.511065	-0.575671
H96	H	1.291437	-0.011065	-0.075671
H97	H	0.791356	-0.575891	-0.510608
H98	H	1.291356	-0.075891	-0.010608
H99	H	1.372022	-0.941095	-0.492665
H100	H	1.872022	-0.441095	0.007335
C101	C	0.755204	-0.316914	-0.317245
C102	C	1.255204	0.183086	0.182755
C103	C	0.864612	-0.305032	-0.305396
C104	C	1.364612	0.194968	0.194604
H105	H	0.722847	-0.278756	-0.279196
H106	H	1.222847	0.221244	0.220804
H107	H	0.734311	-0.307609	-0.372806
H108	H	1.234311	0.192391	0.127194
H109	H	0.734256	-0.372436	-0.307754
H110	H	1.234256	0.127564	0.192246
H111	H	0.885562	-0.249512	-0.314893
H112	H	1.385562	0.250488	0.185107
H113	H	0.885514	-0.314331	-0.249822
H114	H	1.385514	0.185669	0.250178
C115	C	1.635995	-0.945190	-0.293578
C116	C	2.135995	-0.445190	0.206422
C117	C	1.577521	-0.890953	-0.337643
C118	C	2.077521	-0.390953	0.162357
H119	H	1.685977	-0.913636	-0.255855
H120	H	2.185977	-0.413636	0.244145
H121	H	1.590171	-0.977676	-0.263278
H122	H	2.090171	-0.477676	0.236722
H123	H	1.671507	-0.981034	-0.331718
H124	H	2.171507	-0.481034	0.168282
H125	H	1.542002	-0.855113	-0.299503
H126	H	2.042002	-0.355113	0.200497
H127	H	1.623352	-0.858453	-0.367944
H128	H	2.123352	-0.358453	0.132056
H129	H	1.372031	-0.492575	-0.941897
H130	H	1.872031	0.007425	-0.441897
C131	C	1.568238	-0.344547	-0.806614
C132	C	2.068238	0.155453	-0.306614
C133	C	1.577569	-0.337470	-0.891845
C134	C	2.077569	0.162530	-0.391845
H135	H	1.618253	-0.306826	-0.775086
H136	H	2.118253	0.193174	-0.275086
H137	H	1.499423	-0.331600	-0.791729
H138	H	1.999423	0.168400	-0.291729
H139	H	1.580727	-0.400015	-0.795223
H140	H	2.080727	0.099985	-0.295223
H141	H	1.565072	-0.282004	-0.903237
H142	H	2.065072	0.217996	-0.403237
H143	H	1.646399	-0.350412	-0.906735
H144	H	2.146399	0.149588	-0.406735
C145	C	1.029927	-0.255665	-0.256150
C146	C	1.529927	0.244335	0.243850
C147	C	1.094950	-0.305019	-0.305362
C148	C	1.594950	0.194981	0.194638
H149	H	1.072030	-0.217507	-0.218094
H150	H	1.572030	0.282493	0.281906
H151	H	0.986864	-0.225595	-0.291009
H152	H	1.486864	0.274405	0.208991
H153	H	0.986800	-0.290426	-0.225962
H154	H	1.486800	0.209574	0.274038
H155	H	1.138071	-0.270259	-0.335555
H156	H	1.638071	0.229741	0.164445
H157	H	1.138031	-0.335092	-0.270498
H158	H	1.638031	0.164908	0.229502
