data_functionalizedCrystal
_audit_creation_method	'MofGen! by Chris Wilmer'
_symmetry_space_group_name_H-M	'P1'
_symmetry_Int_Tables_number	1
_symmetry_cell_setting	triclinic
loop_
_symmetry_equiv_pos_as_xyz
  x,y,z
_cell_length_a	17.019383
_cell_length_b	16.098538
_cell_length_c	17.038272
_cell_angle_alpha	92.920305
_cell_angle_beta	92.753117
_cell_angle_gamma	96.605849
loop_
_atom_site_label
_atom_site_type_symbol
_atom_site_fract_x
_atom_site_fract_y
_atom_site_fract_z
O1	O	1.060268	0.145222	-0.092325
O2	O	1.560268	0.645222	0.407675
O3	O	0.830675	0.128774	-0.105844
O4	O	1.330675	0.628774	0.394156
O5	O	0.944107	0.136894	0.014725
O6	O	1.444107	0.636894	0.514725
O7	O	0.946836	0.137103	-0.212893
O8	O	1.446836	0.637103	0.287107
O9	O	0.937479	-0.002094	0.007709
O10	O	1.437479	0.497906	0.507709
O11	O	0.824047	-0.010213	-0.112859
O12	O	1.324047	0.489787	0.387141
O13	O	1.053640	0.006235	-0.099340
O14	O	1.553640	0.506235	0.400660
Zn15	Zn	0.937791	-0.024056	-0.107214
Zn16	Zn	1.437791	0.475944	0.392786
Zn17	Zn	0.946524	0.159065	-0.097970
Zn18	Zn	1.446524	0.659065	0.402030
O19	O	0.940208	-0.001885	-0.219909
O20	O	1.440208	0.498115	0.280091
C21	C	0.797839	0.057166	-0.108975
C22	C	1.297839	0.557166	0.391025
C23	C	0.709872	0.050864	-0.107844
C24	C	1.209872	0.550864	0.392156
N25	N	0.931837	-0.149032	-0.113521
N26	N	1.431837	0.350968	0.386479
C27	C	0.672151	0.123659	-0.103491
C28	C	1.172151	0.623659	0.396509
C29	C	0.589496	0.117725	-0.102441
C30	C	1.089496	0.617725	0.397559
C31	C	0.544564	0.038995	-0.105740
C32	C	1.044564	0.538995	0.394260
C33	C	0.582290	-0.033805	-0.110096
C34	C	1.082290	0.466195	0.389904
C35	C	0.664944	-0.027871	-0.111151
C36	C	1.164944	0.472129	0.388849
C37	C	0.294823	0.017287	-0.102751
C38	C	0.794823	0.517287	0.397249
C39	C	0.212164	0.011358	-0.101693
C40	C	0.712164	0.511358	0.398307
C41	C	0.219375	0.162889	-0.094040
C42	C	0.719375	0.662889	0.405960
C43	C	0.302030	0.168816	-0.095091
C44	C	0.802030	0.668816	0.404909
C45	C	0.339749	0.096016	-0.099451
C46	C	0.839749	0.596016	0.400549
C47	C	0.460077	0.032928	-0.104665
C48	C	0.960077	0.532928	0.395335
C49	C	0.424235	0.102083	-0.100532
C50	C	0.924235	0.602083	0.399468
C51	C	0.980002	-0.189169	-0.062365
C52	C	1.480002	0.310831	0.437635
C53	C	0.975845	-0.276656	-0.066785
C54	C	1.475845	0.223344	0.433215
C55	C	0.923526	-0.324003	-0.122366
C56	C	1.423526	0.175997	0.377634
C57	C	0.875355	-0.283860	-0.173524
C58	C	1.375355	0.216140	0.326476
C59	C	0.879509	-0.196375	-0.169100
C60	C	1.379509	0.303625	0.330900
C61	C	0.908467	-0.588331	-0.138391
C62	C	1.408467	-0.088331	0.361609
C63	C	0.904319	-0.675821	-0.142813
C64	C	1.404319	-0.175821	0.357187
C65	C	1.004807	-0.668611	-0.036072
C66	C	1.504807	-0.168611	0.463928
C67	C	1.008960	-0.581125	-0.031656
C68	C	1.508960	-0.081125	0.468344
C69	C	0.960787	-0.540990	-0.082812
C70	C	1.460787	-0.040990	0.417188
C71	C	0.919277	-0.413428	-0.126887
C72	C	1.419277	0.086572	0.373113
C73	C	0.965032	-0.451566	-0.078287
C74	C	1.465032	0.048434	0.421713
C75	C	1.086476	0.077845	-0.096209
C76	C	1.586476	0.577845	0.403791
C77	C	1.174443	0.084153	-0.097340
C78	C	1.674443	0.584153	0.402660
N79	N	0.952484	0.284041	-0.091656
N80	N	1.452484	0.784041	0.408344
C81	C	0.938310	0.067222	0.040334
C82	C	1.438310	0.567222	0.540334
C83	C	0.930905	0.066692	0.127094
C84	C	1.430905	0.566692	0.627094
C85	C	0.946005	0.067788	-0.245518
C86	C	1.446005	0.567788	0.254482
C87	C	0.953410	0.068324	-0.332278
C88	C	1.453410	0.568324	0.167722
C89	C	0.998896	0.071562	0.177509
C90	C	1.498896	0.571562	0.677509
C91	C	0.991934	0.071071	0.259029
C92	C	1.491934	0.571071	0.759029
C93	C	0.916979	0.065704	0.290133
C94	C	1.416979	0.565704	0.790133
C95	C	0.848982	0.060836	0.239712
C96	C	1.348982	0.560836	0.739712
C97	C	0.855946	0.061333	0.158194
C98	C	1.355946	0.561333	0.658194
C99	C	0.892378	0.063953	0.535783
C100	C	1.392378	0.563953	1.035783
C101	C	0.885419	0.063454	0.617307
C102	C	1.385419	0.563454	1.117307
C103	C	1.028371	0.073691	0.636619
C104	C	1.528371	0.573691	1.136619
C105	C	1.035328	0.074182	0.555098
C106	C	1.535328	0.574182	1.055098
C107	C	0.967332	0.069319	0.504684
C108	C	1.467332	0.569319	1.004684
C109	C	0.909860	0.065200	0.373459
C110	C	1.409860	0.565200	0.873459
C111	C	0.974452	0.069829	0.421360
C112	C	1.474452	0.569829	0.921360
H113	H	0.708729	0.187769	-0.100803
H114	H	1.208729	0.687769	0.399197
Cl115	Cl	0.542078	0.209244	-0.096969
Cl116	Cl	1.042078	0.709244	0.403031
Cl117	Cl	1.030799	-0.392044	-0.008414
Cl118	Cl	1.530799	0.107956	0.491586
Cl119	Cl	0.853507	-0.472954	-0.196760
Cl120	Cl	1.353507	0.027046	0.303240
H121	H	1.015064	-0.309335	-0.025130
H122	H	1.515064	0.190665	0.474870
Cl123	Cl	1.065362	-0.719071	0.028237
Cl124	Cl	1.565362	-0.219071	0.528237
H125	H	0.338609	0.232926	-0.092399
H126	H	0.838609	0.732926	0.407601
Cl127	Cl	1.068678	0.076580	0.382257
Cl128	Cl	1.568678	0.576580	0.882257
H129	H	0.848831	0.060828	0.398793
H130	H	1.348831	0.560828	0.898793
Cl131	Cl	0.770467	0.055214	0.094815
Cl132	Cl	1.270467	0.555214	0.594815
Cl133	Cl	0.838541	-0.735339	-0.212693
Cl134	Cl	1.338541	-0.235339	0.287307
H135	H	0.832752	-0.322416	-0.218776
H136	H	1.332752	0.177584	0.281224
H137	H	0.824378	0.059070	0.642627
H138	H	1.324378	0.559070	1.142627
H139	H	0.188655	0.222158	-0.090492
H140	H	0.688655	0.722158	0.409508
H141	H	0.787952	0.056472	0.265043
H142	H	1.287952	0.556472	0.765043
Cl143	Cl	0.155680	-0.087624	-0.105824
Cl144	Cl	0.655680	0.412376	0.394176
H145	H	0.837010	0.059993	0.494745
H146	H	1.337010	0.559993	0.994745
Cl147	Cl	0.712365	-0.119389	-0.116627
Cl148	Cl	1.212365	0.380611	0.383373
H149	H	1.047300	0.075035	0.300074
H150	H	1.547300	0.575035	0.800074
H151	H	0.840287	-0.163697	-0.210756
H152	H	1.340287	0.336303	0.289244
H153	H	1.083730	0.077652	0.677674
H154	H	1.583730	0.577652	1.177674
H155	H	0.545700	-0.097909	-0.112786
H156	H	1.045700	0.402091	0.387214
Cl157	Cl	1.093130	0.078301	0.138415
Cl158	Cl	1.593130	0.578301	0.638415
H159	H	0.325524	-0.041993	-0.106296
H160	H	0.825524	0.458007	0.393704
H161	H	0.423484	-0.031174	-0.107348
H162	H	0.923484	0.468826	0.392652
Cl163	Cl	1.045782	-0.129655	0.007507
Cl164	Cl	1.545782	0.370345	0.507507
Cl165	Cl	0.480721	0.201054	-0.096388
Cl166	Cl	0.980721	0.701054	0.403612
Cl167	Cl	1.074734	-0.521602	0.038216
Cl168	Cl	1.574734	-0.021602	0.538216
H169	H	0.869244	-0.555660	-0.180045
H170	H	1.369244	-0.055660	0.319955
H171	H	1.096364	0.078552	0.529780
H172	H	1.596364	0.578552	1.029780
