data_functionalizedCrystal
_audit_creation_method	'MofGen! by Chris Wilmer'
_symmetry_space_group_name_H-M	'P1'
_symmetry_Int_Tables_number	1
_symmetry_cell_setting	triclinic
loop_
_symmetry_equiv_pos_as_xyz
  x,y,z
_cell_length_a	13.448316
_cell_length_b	14.971487
_cell_length_c	14.971486
_cell_angle_alpha	83.614266
_cell_angle_beta	90.003568
_cell_angle_gamma	89.999437
loop_
_atom_site_label
_atom_site_type_symbol
_atom_site_fract_x
_atom_site_fract_y
_atom_site_fract_z
O1	O	-0.082550	-1.186946	-0.116564
O2	O	0.250783	-0.853613	0.216770
O3	O	0.584117	-0.520279	0.550103
O4	O	-0.082583	-0.926546	-0.130522
O5	O	0.250750	-0.593213	0.202812
O6	O	0.584083	-0.259879	0.536145
O7	O	-0.082559	-1.063725	0.006657
O8	O	0.250775	-0.730392	0.339991
O9	O	0.584108	-0.397059	0.673324
O10	O	-0.082575	-1.049767	-0.253743
O11	O	0.250759	-0.716433	0.079591
O12	O	0.584092	-0.383100	0.412924
O13	O	0.082825	-1.063710	0.006658
O14	O	0.416159	-0.730377	0.339991
O15	O	0.749492	-0.397043	0.673324
O16	O	0.082801	-0.926531	-0.130521
O17	O	0.416134	-0.593197	0.202812
O18	O	0.749467	-0.259864	0.536145
O19	O	0.082834	-1.186931	-0.116563
O20	O	0.416167	-0.853597	0.216770
O21	O	0.749501	-0.520264	0.550103
Cu22	Cu	0.097918	-1.056729	-0.123542
Cu23	Cu	0.431251	-0.723396	0.209791
Cu24	Cu	0.764585	-0.390063	0.543124
Cu25	Cu	-0.097667	-1.056747	-0.123543
Cu26	Cu	0.235666	-0.723414	0.209791
Cu27	Cu	0.568999	-0.390081	0.543124
O28	O	0.082809	-1.049751	-0.253742
O29	O	0.416143	-0.716418	0.079591
O30	O	0.749476	-0.383085	0.412924
C31	C	0.000104	-0.893214	-0.129897
C32	C	0.333438	-0.559880	0.203436
C33	C	0.666771	-0.226547	0.536769
C34	C	0.000092	-0.793917	-0.128026
C35	C	0.333425	-0.460583	0.205307
C36	C	0.666759	-0.127250	0.538640
C37	C	0.000087	-0.736691	-0.208615
C38	C	0.333420	-0.403358	0.124718
C39	C	0.666754	-0.070025	0.458051
C40	C	0.000100	-0.643392	-0.206852
C41	C	0.333433	-0.310059	0.126481
C42	C	0.666767	0.023275	0.459815
C43	C	0.000110	-0.607320	-0.124499
C44	C	0.333444	-0.273986	0.208835
C45	C	0.666777	0.059347	0.542168
C46	C	0.000118	-0.664552	-0.043903
C47	C	0.333451	-0.331219	0.289430
C48	C	0.666785	0.002114	0.622763
C49	C	0.000112	-0.757850	-0.045668
C50	C	0.333446	-0.424516	0.287666
C51	C	0.666779	-0.091183	0.620999
C52	C	0.000127	-0.470090	-0.040232
C53	C	0.333461	-0.136756	0.293101
C54	C	0.666794	0.196577	0.626435
C55	C	0.000131	-0.376786	-0.038467
C56	C	0.333464	-0.043452	0.294866
C57	C	0.666798	0.289881	0.628199
C58	C	0.000115	-0.355632	-0.201416
C59	C	0.333448	-0.022298	0.131917
C60	C	0.666782	0.311035	0.465250
C61	C	0.000109	-0.448929	-0.203181
C62	C	0.333443	-0.115596	0.130153
C63	C	0.666776	0.217737	0.463486
C64	C	0.000115	-0.506156	-0.122585
C65	C	0.333448	-0.172822	0.210749
C66	C	0.666782	0.160511	0.544082
N67	N	0.235482	-1.056723	-0.123542
N68	N	0.568816	-0.723390	0.209792
N69	N	0.902149	-0.390057	0.543125
C70	C	0.287522	-1.111025	-0.177883
C71	C	0.620856	-0.777692	0.155450
C72	C	0.954189	-0.444358	0.488784
C73	C	0.391625	-1.111035	-0.177880
C74	C	0.724959	-0.777702	0.155454
C75	C	1.058292	-0.444369	0.488787
C76	C	0.443687	-1.056738	-0.123539
C77	C	0.777020	-0.723405	0.209794
C78	C	1.110354	-0.390072	0.543128
C79	C	0.391640	-1.002434	-0.069191
C80	C	0.724973	-0.669101	0.264142
C81	C	1.058306	-0.335768	0.597475
C82	C	0.287538	-1.002429	-0.069190
C83	C	0.620872	-0.669096	0.264143
C84	C	0.954205	-0.335763	0.597476
C85	C	0.608620	-1.002446	-0.069199
C86	C	0.941953	-0.669113	0.264135
C87	C	1.275287	-0.335780	0.597468
C88	C	0.712728	-1.002450	-0.069200
C89	C	1.046062	-0.669116	0.264133
C90	C	1.379395	-0.335783	0.597466
C91	C	0.712707	-1.111052	-0.177888
C92	C	1.046040	-0.777719	0.155445
C93	C	1.379374	-0.444386	0.488779
C94	C	0.608606	-1.111047	-0.177887
C95	C	0.941939	-0.777714	0.155446
C96	C	1.275272	-0.444381	0.488780
C97	C	0.556566	-1.056742	-0.123540
C98	C	0.889899	-0.723409	0.209793
C99	C	1.223232	-0.390075	0.543126
N100	N	0.764768	-1.056752	-0.123542
N101	N	1.098102	-0.723418	0.209791
N102	N	1.431435	-0.390085	0.543125
C103	C	0.000133	-1.063094	0.039982
C104	C	0.333466	-0.729760	0.373316
C105	C	0.666800	-0.396427	0.706649
C106	C	0.000132	-1.061223	0.139279
C107	C	0.333465	-0.727889	0.472613
C108	C	0.666798	-0.394556	0.805946
C109	C	0.000138	-0.220263	-0.117187
C110	C	0.333471	0.113070	0.216146
C111	C	0.666805	0.446404	0.549480
C112	C	0.000126	-0.319560	-0.119056
C113	C	0.333460	0.013773	0.214277
C114	C	0.666793	0.347106	0.547610
C115	C	0.000116	-1.050383	-0.287067
C116	C	0.333449	-0.717050	0.046266
C117	C	0.666782	-0.383717	0.379599
C118	C	0.000110	-1.052254	-0.386364
C119	C	0.333443	-0.718921	-0.053031
C120	C	0.666777	-0.385587	0.280302
C121	C	0.000143	-1.141812	0.196504
C122	C	0.333476	-0.808479	0.529838
C123	C	0.666809	-0.475145	0.863171
C124	C	0.000133	-1.140049	0.289804
C125	C	0.333466	-0.806716	0.623137
C126	C	0.666799	-0.473382	0.956471
C127	C	0.000118	-1.057696	0.325876
C128	C	0.333452	-0.724362	0.659210
C129	C	0.666785	-0.391029	0.992543
C130	C	0.000104	-0.977100	0.268644
C131	C	0.333438	-0.643767	0.601977
C132	C	0.666771	-0.310434	0.935311
C133	C	0.000108	-0.978864	0.175346
C134	C	0.333441	-0.645531	0.508680
C135	C	0.666774	-0.312198	0.842013
C136	C	0.000100	-0.973429	0.463107
C137	C	0.333434	-0.640096	0.796440
C138	C	0.666767	-0.306763	1.129773
C139	C	0.000099	-0.971665	0.556411
C140	C	0.333432	-0.638331	0.889744
C141	C	0.666766	-0.304998	1.223077
C142	C	0.000125	-1.134614	0.577564
C143	C	0.333459	-0.801280	0.910897
C144	C	0.666792	-0.467947	1.244231
C145	C	0.000128	-1.136378	0.484266
C146	C	0.333462	-0.803044	0.817600
C147	C	0.666795	-0.469711	1.150933
C148	C	0.000116	-1.055782	0.427040
C149	C	0.333450	-0.722449	0.760374
C150	C	0.666783	-0.389115	1.093707
H151	H	0.000141	-0.347419	0.028592
H152	H	0.333474	-0.014086	0.361925
H153	H	0.666808	0.319248	0.695259
H154	H	0.000078	-0.766053	-0.275677
H155	H	0.333411	-0.432720	0.057656
H156	H	0.666745	-0.099387	0.390990
H157	H	0.000141	-0.635175	0.023150
H158	H	0.333474	-0.301842	0.356484
H159	H	0.666807	0.031492	0.689817
H160	H	0.000132	-1.200238	0.624162
H161	H	0.333466	-0.866904	0.957496
H162	H	0.666799	-0.533571	1.290829
H163	H	0.000087	-0.910047	0.298021
H164	H	0.333420	-0.576713	0.631355
H165	H	0.666753	-0.243380	0.964688
H166	H	0.434037	-0.958229	-0.024942
H167	H	0.767370	-0.624896	0.308392
H168	H	1.100703	-0.291562	0.641725
H169	H	0.000116	-0.804443	0.019956
H170	H	0.333449	-0.471109	0.353290
H171	H	0.666782	-0.137776	0.686623
H172	H	0.000160	-1.208873	0.167142
H173	H	0.333494	-0.875540	0.500475
H174	H	0.666827	-0.542207	0.833809
H175	H	0.000114	-0.309033	-0.267040
H176	H	0.333448	0.024300	0.066293
H177	H	0.666781	0.357633	0.399626
H178	H	0.566220	-1.155257	-0.222140
H179	H	0.899553	-0.821923	0.111193
H180	H	1.232887	-0.488590	0.444526
H181	H	0.000088	-0.907799	0.416515
H182	H	0.333421	-0.574466	0.749848
H183	H	0.666755	-0.241133	1.083181
H184	H	0.566252	-0.958226	-0.024942
H185	H	0.899585	-0.624893	0.308391
H186	H	1.232919	-0.291560	0.641724
H187	H	0.245169	-0.958211	-0.024940
H188	H	0.578502	-0.624878	0.308393
H189	H	0.911836	-0.291544	0.641726
H190	H	0.000095	-0.596802	-0.272476
H191	H	0.333428	-0.263469	0.060857
H192	H	0.666762	0.069865	0.394191
H193	H	0.000091	-0.478296	-0.270240
H194	H	0.333425	-0.144963	0.063094
H195	H	0.666758	0.188371	0.396427
H196	H	0.245141	-1.155235	-0.222139
H197	H	0.578475	-0.821901	0.111194
H198	H	0.911808	-0.488568	0.444528
H199	H	0.433992	-1.155255	-0.222128
H200	H	0.767325	-0.821922	0.111205
H201	H	1.100658	-0.488588	0.444538
H202	H	0.755083	-1.155266	-0.222143
H203	H	1.088416	-0.821933	0.111191
H204	H	1.421749	-0.488599	0.444524
H205	H	0.755114	-0.958235	-0.024953
H206	H	1.088447	-0.624902	0.308381
H207	H	1.421781	-0.291568	0.641714
H208	H	0.000134	-0.516682	0.025398
H209	H	0.333467	-0.183348	0.358731
H210	H	0.666800	0.149985	0.692065
H211	H	0.000098	-0.913240	0.128754
H212	H	0.333432	-0.579907	0.462087
H213	H	0.666765	-0.246573	0.795420
H214	H	0.000144	-1.205673	0.336394
H215	H	0.333477	-0.872340	0.669727
H216	H	0.666810	-0.539006	1.003060
H217	H	0.000147	-1.203437	0.454900
H218	H	0.333480	-0.870104	0.788233
H219	H	0.666814	-0.536770	1.121566
H220	H	0.000104	-0.904606	0.585777
H221	H	0.333437	-0.571272	0.919111
H222	H	0.666770	-0.237939	1.252444
