data_functionalizedCrystal
_audit_creation_method	'MofGen! by Chris Wilmer'
_symmetry_space_group_name_H-M	'P1'
_symmetry_Int_Tables_number	1
_symmetry_cell_setting	triclinic
loop_
_symmetry_equiv_pos_as_xyz
  x,y,z
_cell_length_a	15.297327
_cell_length_b	10.685972
_cell_length_c	10.685880
_cell_angle_alpha	99.082357
_cell_angle_beta	104.677293
_cell_angle_gamma	75.263885
loop_
_atom_site_label
_atom_site_type_symbol
_atom_site_fract_x
_atom_site_fract_y
_atom_site_fract_z
Zn1	Zn	-0.304809	-1.927126	-0.935170
Zn2	Zn	-0.448505	-1.878368	-0.755183
Zn3	Zn	-0.304852	-1.698556	-0.706647
Zn4	Zn	-0.470436	-1.677543	-0.956007
O5	O	-0.382151	-1.795398	-0.838252
O6	O	-0.314675	-2.100361	-0.922887
O7	O	-0.420289	-1.842904	-0.569061
O8	O	-0.175412	-1.758075	-0.707929
O9	O	-0.420247	-2.064539	-0.790651
O10	O	-0.175380	-1.926005	-0.875824
O11	O	-0.314748	-1.710797	-0.533402
O12	O	-0.336014	-1.516065	-0.728133
O13	O	-0.457626	-1.722262	-1.132926
O14	O	-0.457668	-1.500627	-0.911336
O15	O	-0.335940	-1.905629	-1.117618
O16	O	-0.580849	-1.822528	-0.810855
O17	O	-0.596962	-1.674983	-0.958399
C18	C	-0.399226	-1.461751	-0.816730
C19	C	-0.406555	-1.319012	-0.807558
C20	C	-0.622466	-1.741221	-0.892185
C21	C	-0.725270	-1.718164	-0.915309
C22	C	-0.981373	-1.960746	-0.673457
C23	C	-0.884783	-1.982408	-0.651724
C24	C	-0.844900	-1.916349	-0.717619
C25	C	-0.901616	-1.828624	-0.805249
C26	C	-0.998215	-1.806952	-0.826976
C27	C	-0.861743	-1.762556	-0.871138
C28	C	-0.918459	-1.674831	-0.958768
C29	C	-1.015049	-1.653164	-0.980491
C30	C	-1.054932	-1.719222	-0.914597
C31	C	-0.765143	-1.784228	-0.849411
C32	C	-0.781986	-1.630434	-1.002930
C33	C	-0.878576	-1.608772	-1.024662
C34	C	-0.140897	-1.849823	-0.784138
C35	C	-0.038089	-1.873016	-0.761078
C36	C	-0.399225	-1.817040	-1.173164
C37	C	-0.406501	-1.826263	-1.315884
C38	C	-0.365003	-1.130349	-0.859851
C39	C	-0.357679	-1.273087	-0.869037
C40	C	-0.365073	-1.773928	-0.504632
C41	C	-0.357524	-1.765013	-0.361870
H42	H	-0.454008	-1.249123	-0.747896
H43	H	-0.310029	-1.705508	-1.292056
O44	O	-0.469426	-1.905076	-1.408371
H45	H	-0.541853	-1.865020	-1.397575
O46	O	-1.159114	-1.695865	-0.938037
H47	H	-1.191855	-1.623770	-1.010043
O48	O	-1.024385	-2.032023	-0.602424
H49	H	-1.101081	-2.002230	-0.632273
H50	H	-0.310223	-1.342970	-0.928685
H51	H	-0.718973	-1.855654	-0.778062
O52	O	-1.076226	-1.558541	-1.074997
H53	H	-1.032269	-1.516254	-1.117177
H54	H	-0.766252	-1.933990	-0.699918
O55	O	-0.939761	-1.514147	-1.119160
H56	H	-0.925209	-1.546773	-1.217197
O57	O	-0.823610	-2.077030	-0.557229
H58	H	-0.867568	-2.119336	-0.515071
H59	H	-0.749515	-1.576641	-1.056585
