data_functionalizedCrystal
_audit_creation_method	'MofGen! by Chris Wilmer'
_symmetry_space_group_name_H-M	'P1'
_symmetry_Int_Tables_number	1
_symmetry_cell_setting	triclinic
loop_
_symmetry_equiv_pos_as_xyz
  x,y,z
_cell_length_a	23.532407
_cell_length_b	23.532357
_cell_length_c	12.503572
_cell_angle_alpha	93.494896
_cell_angle_beta	86.509276
_cell_angle_gamma	82.838485
loop_
_atom_site_label
_atom_site_type_symbol
_atom_site_fract_x
_atom_site_fract_y
_atom_site_fract_z
O1	O	0.758546	0.065828	-0.089198
O2	O	1.258546	0.565828	0.410802
O3	O	0.592682	0.075830	-0.089232
O4	O	1.092682	0.575830	0.410768
O5	O	0.680630	-0.012104	-0.089192
O6	O	1.180630	0.487896	0.410808
O7	O	0.670598	0.153762	-0.089238
O8	O	1.170598	0.653762	0.410762
O9	O	0.674015	-0.005480	0.089447
O10	O	1.174015	0.494520	0.589447
O11	O	0.586068	0.082454	0.089407
O12	O	1.086068	0.582454	0.589407
O13	O	0.751932	0.072452	0.089441
O14	O	1.251932	0.572452	0.589441
Cu15	Cu	0.668396	0.078058	0.105735
Cu16	Cu	1.168396	0.578058	0.605735
Cu17	Cu	0.676218	0.070224	-0.105526
Cu18	Cu	1.176218	0.570224	0.394474
O19	O	0.663984	0.160386	0.089401
O20	O	1.163984	0.660386	0.589401
C21	C	0.568159	0.078887	0.000084
C22	C	1.068159	0.578887	0.500084
C23	C	0.504943	0.078121	0.000072
C24	C	1.004943	0.578121	0.500072
C25	C	0.105830	0.125357	0.000108
C26	C	0.605830	0.625357	0.500108
C27	C	0.046429	0.124645	0.000115
C28	C	0.546429	0.624645	0.500115
O29	O	0.009676	0.168433	0.000141
O30	O	0.509676	0.668433	0.500141
N31	N	0.023812	0.072368	0.000127
N32	N	0.523812	0.572368	0.500127
C33	C	0.060598	0.020799	0.000144
C34	C	0.560598	0.520799	0.500144
O35	O	0.035906	-0.023732	0.000157
O36	O	0.535906	0.476268	0.500157
C37	C	0.119997	0.021512	0.000145
C38	C	0.619997	0.521512	0.500145
C39	C	0.142611	0.073792	0.000121
C40	C	0.642611	0.573792	0.500121
C41	C	0.128444	0.177633	0.000085
C42	C	0.628444	0.677633	0.500085
C43	C	0.187841	0.178343	0.000077
C44	C	0.687841	0.678343	0.500077
C45	C	0.224622	0.126778	0.000090
C46	C	0.724622	0.626778	0.500090
C47	C	0.202008	0.074503	0.000113
C48	C	0.702008	0.574503	0.500113
C49	C	0.156782	-0.030056	0.000170
C50	C	0.656782	0.469944	0.500170
C51	C	0.216184	-0.029340	0.000171
C52	C	0.716184	0.470660	0.500171
C53	C	0.238798	0.022940	0.000148
C54	C	0.738798	0.522940	0.500148
C55	C	0.298186	0.023648	0.000118
C56	C	0.798186	0.523648	0.500118
N57	N	0.320803	0.075926	0.000105
N58	N	0.820803	0.575926	0.500105
C59	C	0.284021	0.127491	0.000091
C60	C	0.784021	0.627491	0.500091
C61	C	-0.064144	0.019308	0.000144
C62	C	0.435856	0.519308	0.500144
C63	C	-0.123541	0.018595	0.000136
C64	C	0.376459	0.518595	0.500136
C65	C	-0.137706	0.122441	0.000108
C66	C	0.362294	0.622441	0.500108
C67	C	-0.078307	0.123153	0.000109
C68	C	0.421693	0.623153	0.500109
C69	C	-0.041527	0.071585	0.000131
C70	C	0.458473	0.571585	0.500131
C71	C	0.408759	0.128980	0.000072
C72	C	0.908759	0.628980	0.500072
C73	C	0.468161	0.129686	0.000059
C74	C	0.968161	0.629686	0.500059
C75	C	0.482320	0.025840	0.000092
C76	C	0.982320	0.525840	0.500092
C77	C	0.422924	0.025133	0.000099
C78	C	0.922924	0.525133	0.500099
C79	C	0.386143	0.076708	0.000093
C80	C	0.886143	0.576708	0.500093
O81	O	0.334974	-0.020116	0.000095
O82	O	0.834974	0.479884	0.500095
O83	O	0.308721	0.172015	0.000093
O84	O	0.808721	0.672015	0.500093
C85	C	0.677071	-0.030009	0.000131
C86	C	1.177071	0.469991	0.500131
C87	C	0.676317	-0.093227	0.000141
C88	C	1.176317	0.406773	0.500141
C89	C	0.675187	-0.488851	-0.097294
C90	C	1.175187	0.011149	0.402706
C91	C	0.674470	-0.548251	-0.097300
C92	C	1.174470	-0.048251	0.402700
O93	O	0.677146	-0.582038	-0.180115
O94	O	1.177146	-0.082038	0.319885
N95	N	0.670509	-0.574351	0.000074
N96	N	1.170509	-0.074351	0.500074
C97	C	0.667259	-0.541048	0.097462
C98	C	1.167259	-0.041048	0.597462
O99	O	0.663824	-0.568703	0.180286
O100	O	1.163824	-0.068703	0.680286
C101	C	0.667972	-0.481649	0.097467
C102	C	1.167972	0.018351	0.597467
C103	C	0.671939	-0.455552	0.000086
C104	C	1.171939	0.044448	0.500086
C105	C	0.679154	-0.462754	-0.194667
C106	C	1.179154	0.037246	0.305333
C107	C	0.679872	-0.403359	-0.194661
C108	C	1.179872	0.096641	0.305339
C109	C	0.676623	-0.370060	-0.097281
C110	C	1.176623	0.129940	0.402719
C111	C	0.672657	-0.396157	0.000092
C112	C	1.172657	0.103843	0.500092
C113	C	0.664718	-0.448346	0.194853
C114	C	1.164718	0.051654	0.694853
C115	C	0.665431	-0.388943	0.194850
C116	C	1.165431	0.111057	0.694850
C117	C	0.669398	-0.362847	0.097469
C118	C	1.169398	0.137153	0.597469
C119	C	0.670127	-0.303463	0.097479
C120	C	1.170127	0.196537	0.597479
N121	N	0.674088	-0.277362	0.000104
N122	N	1.174088	0.222638	0.500104
C123	C	0.677336	-0.310661	-0.097276
C124	C	1.177336	0.189339	0.402724
C125	C	0.665761	-0.665790	0.097443
C126	C	1.165761	-0.165790	0.597443
C127	C	0.665052	-0.725189	0.097439
C128	C	1.165052	-0.225189	0.597439
C129	C	0.672263	-0.732387	-0.097323
C130	C	1.172263	-0.232387	0.402677
C131	C	0.672976	-0.672988	-0.097318
C132	C	1.172976	-0.172988	0.402682
C133	C	0.669722	-0.639690	0.000069
C134	C	1.169722	-0.139690	0.500069
C135	C	0.678845	-0.185926	-0.097254
C136	C	1.178845	0.314074	0.402746
C137	C	0.679565	-0.126525	-0.097239
C138	C	1.179565	0.373475	0.402761
C139	C	0.672352	-0.119332	0.097523
C140	C	1.172352	0.380668	0.597523
C141	C	0.671634	-0.178727	0.097508
C142	C	1.171634	0.321273	0.597508
C143	C	0.674879	-0.212023	0.000111
C144	C	1.174879	0.287977	0.500111
O145	O	0.667451	-0.269639	0.180251
O146	O	1.167451	0.230361	0.680251
O147	O	0.680764	-0.282998	-0.180086
O148	O	1.180764	0.217002	0.319914
C149	C	0.776455	0.069394	0.000123
C150	C	1.276455	0.569394	0.500123
C151	C	0.839672	0.070160	0.000128
C152	C	1.339672	0.570160	0.500128
C153	C	0.667542	0.178290	0.000076
C154	C	1.167542	0.678290	0.500076
C155	C	0.668298	0.241508	0.000059
C156	C	1.168298	0.741508	0.500059
N157	N	0.662898	0.083567	0.254325
N158	N	1.162898	0.583567	0.754325
N159	N	0.681720	0.064710	-0.254116
N160	N	1.181720	0.564710	0.245884
C161	C	0.654811	0.091676	0.473437
C162	C	1.154811	0.591676	0.973437
C163	C	0.689805	0.056602	0.526780
C164	C	1.189805	0.556602	1.026780
C165	C	0.685305	0.061115	0.648701
C166	C	1.185305	0.561115	1.148701
C167	C	0.659310	0.087165	0.351504
C168	C	1.159310	0.587165	0.851504
H169	H	0.098502	0.219626	0.000078
H170	H	0.598502	0.719626	0.500078
H171	H	-0.141947	-0.023977	0.000138
H172	H	0.358053	0.476023	0.500138
H173	H	0.621475	0.125091	0.519329
H174	H	1.121475	0.625091	1.019329
Br175	Br	0.659682	-0.760599	0.229605
Br176	Br	1.159682	-0.260599	0.729605
Br177	Br	0.358852	0.198974	0.000065
Br178	Br	0.858852	0.698974	0.500065
H179	H	0.486570	0.172260	0.000039
H180	H	0.986570	0.672260	0.500039
Br181	Br	0.218521	0.249299	0.000049
Br182	Br	0.718521	0.749299	0.500049
H183	H	0.512279	-0.016143	0.000099
H184	H	1.012279	0.483857	0.500099
H185	H	-0.059900	0.165725	0.000096
H186	H	0.440100	0.665725	0.500096
H187	H	0.723144	0.023186	0.480882
H188	H	1.223144	0.523186	0.980882
H189	H	0.663114	-0.638682	0.176752
H190	H	1.163114	-0.138682	0.676752
Br191	Br	0.659332	-0.483747	0.327022
Br192	Br	1.159332	0.016253	0.827022
H193	H	-0.167665	0.164428	0.000102
H194	H	0.332335	0.664428	0.500102
Br195	Br	0.661015	-0.343755	0.327025
Br196	Br	1.161015	0.156245	0.827025
H197	H	-0.034199	-0.022688	0.000153
H198	H	0.465801	0.477312	0.500153
Br199	Br	0.126108	-0.101013	0.000178
Br200	Br	0.626108	0.398987	0.500178
H201	H	0.669710	-0.092210	0.176807
H202	H	1.169710	0.407790	0.676807
Br203	Br	0.266098	-0.099329	0.000208
Br204	Br	0.766098	0.400671	0.500208
H205	H	0.404511	-0.017438	0.000103
H206	H	0.904511	0.482562	0.500103
H207	H	0.682797	-0.105281	-0.176542
H208	H	1.182797	0.394719	0.323458
H209	H	0.681484	-0.213028	-0.176564
H210	H	1.181484	0.286972	0.323436
H211	H	0.674905	-0.759510	-0.176615
H212	H	1.174905	-0.259510	0.323385
H213	H	0.683100	-0.382116	-0.273958
H214	H	1.183100	0.117884	0.226042
Br215	Br	0.678359	-0.637578	-0.229482
Br216	Br	1.178359	-0.137578	0.270518
Br217	Br	0.683562	-0.507935	-0.326844
Br218	Br	1.183562	-0.007935	0.173156
Br219	Br	0.666264	-0.214147	0.229669
Br220	Br	1.166264	0.285853	0.729669
