data_functionalizedCrystal
_audit_creation_method	'MofGen! by Chris Wilmer'
_symmetry_space_group_name_H-M	'P1'
_symmetry_Int_Tables_number	1
_symmetry_cell_setting	triclinic
loop_
_symmetry_equiv_pos_as_xyz
  x,y,z
_cell_length_a	13.032831
_cell_length_b	12.759400
_cell_length_c	12.759393
_cell_angle_alpha	90.030239
_cell_angle_beta	97.193740
_cell_angle_gamma	82.819639
loop_
_atom_site_label
_atom_site_type_symbol
_atom_site_fract_x
_atom_site_fract_y
_atom_site_fract_z
Zn1	Zn	1.597752	-0.622510	0.797714
Zn2	Zn	1.597647	-0.798211	0.622021
Zn3	Zn	1.422984	-0.600214	0.599769
Zn4	Zn	1.422973	-0.775800	0.775389
O5	O	1.510339	-0.699184	0.698723
O6	O	1.743981	-0.664527	0.793064
O7	O	1.574437	-0.771995	0.472043
O8	O	1.446216	-0.456157	0.626057
O9	O	1.743903	-0.793614	0.663983
O10	O	1.574618	-0.472538	0.771487
O11	O	1.446113	-0.626527	0.455694
O12	O	1.276740	-0.604796	0.604409
O13	O	1.446198	-0.755417	0.925377
O14	O	1.276732	-0.733798	0.733437
O15	O	1.574607	-0.642796	0.941779
O16	O	1.574427	-0.942253	0.642335
O17	O	1.446095	-0.925788	0.755014
C18	C	1.238817	-0.664446	0.664087
C19	C	1.122659	-0.649611	0.649294
C20	C	1.070896	-0.706927	0.706444
C21	C	0.950840	-0.691595	0.691156
C22	C	1.510277	-0.972143	0.698694
C23	C	1.510346	-1.088929	0.698728
C24	C	1.577242	-1.152339	0.640140
C25	C	1.577307	-1.262071	0.640180
C26	C	1.443569	-1.244972	0.757399
C27	C	1.443511	-1.135243	0.757364
C28	C	1.644078	-1.106025	0.581504
C29	C	1.710979	-1.169436	0.522910
C30	C	1.711043	-1.279168	0.522950
C31	C	1.644206	-1.325489	0.581585
C32	C	1.782921	-0.734058	0.733496
C33	C	1.899079	-0.748919	0.748314
C34	C	1.510413	-0.699094	0.972766
C35	C	1.510445	-0.699055	1.089547
C36	C	1.510430	-0.425162	0.698780
C37	C	1.510468	-0.308390	0.698804
C38	C	1.510325	-0.699206	0.425754
C39	C	1.510496	-0.698974	0.309000
C40	C	1.577336	-0.640356	1.262680
C41	C	1.577314	-0.640400	1.152953
C42	C	1.443602	-0.757680	1.135874
C43	C	1.443630	-0.757642	1.245600
C44	C	1.644202	-0.581689	1.326080
C45	C	1.711046	-0.523066	1.279760
C46	C	1.711024	-0.523109	1.170033
C47	C	1.644157	-0.581775	1.106626
H48	H	0.906280	-0.631166	0.630910
H49	H	1.644272	-1.414843	0.581623
H50	H	1.765493	-0.475308	1.331394
H51	H	1.765401	-1.131716	0.475178
C52	C	1.784636	-1.348922	0.458507
C53	C	1.858151	-1.297974	0.394016
C54	C	1.931743	-1.367726	0.329566
C55	C	1.931821	-1.488426	0.329608
C56	C	1.858303	-1.539380	0.394101
C57	C	1.784710	-1.469629	0.458551
H58	H	1.858096	-1.208619	0.393983
H59	H	1.986166	-1.330005	0.281824
H60	H	1.986299	-1.540060	0.281899
H61	H	1.858358	-1.628735	0.394134
H62	H	1.730288	-1.507349	0.506293
H63	H	1.389153	-1.282696	0.805136
C64	C	1.369920	-1.065479	0.821802
C65	C	1.251128	-1.065468	0.797979
C66	C	1.177539	-0.995702	0.862419
C67	C	1.222741	-0.925947	0.950684
C68	C	1.341539	-0.925955	0.974511
C69	C	1.415129	-0.995721	0.910070
H70	H	1.217661	-1.117107	0.732636
H71	H	1.089596	-0.995696	0.844780
H72	H	1.168265	-0.874302	0.998387
H73	H	1.375006	-0.874316	1.039854
H74	H	1.503071	-0.995727	0.927710
C75	C	1.370125	-0.822141	1.296563
C76	C	1.296581	-0.886680	1.226832
C77	C	1.223088	-0.951196	1.277797
C78	C	1.223139	-0.951174	1.398493
C79	C	1.296686	-0.886633	1.468232
C80	C	1.370179	-0.822116	1.417267
H81	H	1.296540	-0.886699	1.137478
H82	H	1.168643	-0.998974	1.226171
H83	H	1.168735	-0.998933	1.436221
H84	H	1.296726	-0.886614	1.557585
H85	H	1.424623	-0.774339	1.468893
H86	H	1.644030	-1.016676	0.581461
C87	C	1.784553	-0.458631	1.119080
C88	C	1.858100	-0.394104	1.188821
C89	C	1.931628	-0.329619	1.137870
C90	C	1.931609	-0.329662	1.017177
C91	C	1.858059	-0.394192	0.947429
C92	C	1.784531	-0.458676	0.998380
H93	H	1.858117	-0.394070	1.278171
H94	H	1.986075	-0.281850	1.189503
H95	H	1.986039	-0.281927	0.979460
H96	H	1.858042	-0.394226	0.858079
H97	H	1.730084	-0.506446	0.946747
H98	H	1.115460	-0.767344	0.766693
H99	H	1.644224	-0.581644	1.415425
H100	H	0.943638	-0.809338	0.808570
H101	H	1.078095	-0.589186	0.589052
H102	H	1.644152	-0.581815	1.017280
H103	H	1.389161	-0.805442	1.084240
