data_functionalizedCrystal
_audit_creation_method	'MofGen! by Chris Wilmer'
_symmetry_space_group_name_H-M	'P1'
_symmetry_Int_Tables_number	1
_symmetry_cell_setting	triclinic
loop_
_symmetry_equiv_pos_as_xyz
  x,y,z
_cell_length_a	14.044190
_cell_length_b	14.853567
_cell_length_c	13.930277
_cell_angle_alpha	90.004245
_cell_angle_beta	89.990896
_cell_angle_gamma	91.586646
loop_
_atom_site_label
_atom_site_type_symbol
_atom_site_fract_x
_atom_site_fract_y
_atom_site_fract_z
O1	O	0.123767	-1.206177	-0.079775
O2	O	0.138511	-0.944886	-0.079793
O3	O	-0.006851	-1.071606	-0.079766
O4	O	0.269129	-1.079457	-0.079803
O5	O	-0.006854	-1.071587	0.079896
O6	O	0.138508	-0.944867	0.079869
O7	O	0.123764	-1.206158	0.079887
Zn8	Zn	0.131135	-1.075509	0.105227
Zn9	Zn	0.131139	-1.075535	-0.105134
O10	O	0.269126	-1.079437	0.079859
C11	C	0.137841	-0.911235	0.000036
C12	C	0.135839	-0.810992	0.000030
C13	C	0.124433	-1.239809	0.000055
C14	C	0.126435	-1.340051	0.000055
C15	C	-0.042172	-1.068162	0.000068
C16	C	-0.147411	-1.057918	0.000076
C17	C	-0.397627	-1.111844	0.000042
C18	C	-0.340093	-1.039204	0.000043
C19	C	-0.232875	-1.049619	0.000061
C20	C	-0.504855	-1.101430	0.000024
C21	C	0.304446	-1.082882	0.000023
C22	C	0.409686	-1.093126	0.000009
N23	N	0.131132	-1.075498	0.248793
C24	C	0.041029	-0.390945	0.000064
C25	C	0.213722	-0.383350	0.000040
C26	C	0.215604	-0.477533	0.000037
C27	C	0.130197	-0.528426	0.000046
C28	C	0.042908	-0.485136	0.000058
C29	C	0.302892	-0.520830	0.000015
C30	C	0.304777	-0.615018	0.000010
C31	C	0.219370	-0.665913	0.000026
C32	C	0.132077	-0.622618	0.000039
C33	C	0.046670	-0.673511	0.000048
C34	C	-0.040623	-0.630217	0.000069
C35	C	-0.042499	-0.536031	0.000074
C36	C	0.221246	-0.760099	0.000021
C37	C	0.048550	-0.767703	0.000042
N38	N	0.131135	-1.075552	-0.248700
C39	C	0.195480	-1.019419	0.701051
C40	C	0.066791	-1.131675	0.701044
C41	C	0.066788	-1.131664	0.600549
C42	C	0.131133	-1.075531	0.550299
C43	C	0.195481	-1.019408	0.600546
C44	C	0.002448	-1.187792	0.550295
C45	C	0.002443	-1.187784	0.449793
C46	C	0.066784	-1.131645	0.399542
C47	C	0.131134	-1.075520	0.449794
C48	C	0.195479	-1.019386	0.399545
C49	C	0.259825	-0.963255	0.449796
C50	C	0.259822	-0.963269	0.550294
C51	C	0.066787	-1.131632	0.299043
C52	C	0.195480	-1.019375	0.299040
H53	H	-0.371361	-0.969192	0.000033
H54	H	0.014401	-1.177337	0.258133
C55	C	-0.355393	-1.206417	0.000070
H56	H	-0.287825	-1.201097	0.000090
H57	H	-0.376121	-1.238265	-0.055602
H58	H	-0.376159	-1.238229	0.055760
H59	H	-0.021000	-0.809134	0.000053
H60	H	-0.110161	-0.671667	0.000070
C61	C	-0.138511	-0.488407	0.000086
H62	H	-0.127396	-0.425025	0.000076
H63	H	-0.173687	-0.505397	0.055766
H64	H	-0.173676	-0.505406	-0.055596
C65	C	-0.054987	-0.343328	0.000082
H66	H	-0.043879	-0.279944	0.000080
H67	H	-0.090160	-0.360327	0.055762
H68	H	-0.090152	-0.360325	-0.055601
C69	C	0.266262	-0.957632	0.243769
H70	H	0.257048	-0.965661	0.176717
H71	H	0.329549	-0.972510	0.260231
H72	H	0.255843	-0.896627	0.260248
H73	H	0.312211	-0.917570	0.591215
C74	C	-0.003982	-1.193417	0.756316
H75	H	0.005231	-1.185382	0.823366
H76	H	0.006425	-1.254418	0.739830
H77	H	-0.067273	-1.178528	0.739861
H78	H	0.283256	-0.341907	0.000024
C79	C	0.396829	-0.464848	0.000009
H80	H	0.383206	-0.402554	0.000028
H81	H	0.432621	-0.478716	-0.055674
H82	H	0.432611	-0.478725	0.055688
C83	C	0.400792	-0.662637	-0.000008
H84	H	0.389682	-0.726021	-0.000015
H85	H	0.435963	-0.645637	0.055663
H86	H	0.435959	-0.645643	-0.055699
C87	C	0.317253	-0.807723	-0.000005
H88	H	0.306142	-0.871106	-0.000012
H89	H	0.352429	-0.790724	0.055664
H90	H	0.352416	-0.790729	-0.055698
H91	H	-0.049936	-1.233500	0.591211
H92	H	0.312219	-0.917555	0.408871
C93	C	0.266258	-0.957682	0.756320
H94	H	0.257049	-0.965728	0.823371
H95	H	0.255849	-0.896679	0.739859
H96	H	0.329549	-0.972567	0.739837
H97	H	-0.049952	-1.233488	0.408885
