data_functionalizedCrystal
_audit_creation_method	'MofGen! by Chris Wilmer'
_symmetry_space_group_name_H-M	'P1'
_symmetry_Int_Tables_number	1
_symmetry_cell_setting	triclinic
loop_
_symmetry_equiv_pos_as_xyz
  x,y,z
_cell_length_a	12.759401
_cell_length_b	19.805405
_cell_length_c	19.805399
_cell_angle_alpha	89.969291
_cell_angle_beta	89.985865
_cell_angle_gamma	90.027935
loop_
_atom_site_label
_atom_site_type_symbol
_atom_site_fract_x
_atom_site_fract_y
_atom_site_fract_z
Zn1	Zn	1.606110	-0.269442	-0.382662
Zn2	Zn	2.106110	0.230558	0.117338
Zn3	Zn	1.605986	-0.382633	-0.269470
Zn4	Zn	2.105986	0.117367	0.230530
Zn5	Zn	1.430430	-0.269466	-0.269492
Zn6	Zn	1.930430	0.230534	0.230508
Zn7	Zn	1.430365	-0.382597	-0.382622
Zn8	Zn	1.930365	0.117403	0.117378
O9	O	1.518223	-0.326035	-0.326062
O10	O	2.018223	0.173965	0.173938
O11	O	1.753115	-0.284462	-0.367654
O12	O	2.253115	0.215538	0.132346
O13	O	1.582674	-0.367647	-0.174756
O14	O	2.082674	0.132353	0.325244
O15	O	1.453813	-0.174747	-0.284530
O16	O	1.953813	0.325253	0.215470
O17	O	1.753024	-0.367623	-0.284493
O18	O	2.253024	0.132377	0.215507
O19	O	1.582885	-0.174729	-0.367675
O20	O	2.082885	0.325271	0.132325
O21	O	1.453693	-0.284503	-0.174772
O22	O	1.953693	0.215497	0.325228
O23	O	1.283400	-0.284469	-0.284491
O24	O	1.783400	0.215531	0.215509
O25	O	1.453703	-0.367562	-0.477344
O26	O	1.953703	0.132438	0.022656
O27	O	1.283353	-0.367586	-0.367608
O28	O	1.783353	0.132414	0.132392
O29	O	1.582822	-0.284427	-0.477373
O30	O	2.082822	0.215573	0.022627
O31	O	1.582611	-0.477345	-0.284455
O32	O	2.082611	0.022655	0.215545
O33	O	1.453583	-0.477319	-0.367587
O34	O	1.953583	0.022681	0.132413
C35	C	1.245256	-0.326026	-0.326048
C36	C	1.745256	0.173974	0.173952
C37	C	1.128479	-0.326039	-0.326058
C38	C	1.628479	0.173961	0.173942
C39	C	1.518105	-0.501891	-0.326029
C40	C	2.018105	-0.001891	0.173971
C41	C	1.518150	-0.577123	-0.326037
C42	C	2.018150	-0.077123	0.173963
C43	C	1.073620	-0.369384	-0.369269
C44	C	1.573620	0.130616	0.130731
C45	C	0.963896	-0.369387	-0.369283
C46	C	1.463896	0.130613	0.130717
C47	C	0.963900	-0.282698	-0.282869
C48	C	1.463900	0.217302	0.217131
C49	C	1.073622	-0.282692	-0.282859
C50	C	1.573622	0.217308	0.217141
C51	C	1.585400	-0.612458	-0.282796
C52	C	2.085400	-0.112458	0.217204
C53	C	1.585445	-0.683147	-0.282811
C54	C	2.085445	-0.183147	0.217189
C55	C	1.518233	-0.718498	-0.326065
C56	C	2.018233	-0.218498	0.173935
C57	C	1.450980	-0.683158	-0.369311
C58	C	1.950980	-0.183158	0.130689
C59	C	1.450942	-0.612471	-0.369299
C60	C	1.950942	-0.112471	0.130701
C61	C	1.451135	-0.968231	-0.369361
C62	C	1.951135	-0.468231	0.130639
C63	C	1.451177	-1.038923	-0.369368
C64	C	1.951177	-0.538923	0.130632
C65	C	1.585639	-1.038907	-0.282873
C66	C	2.085639	-0.538907	0.217127
C67	C	1.585600	-0.968220	-0.282861
C68	C	2.085600	-0.468220	0.217139
C69	C	1.518351	-0.932886	-0.326110
C70	C	2.018351	-0.432886	0.173890
C71	C	1.518305	-0.856237	-0.326094
C72	C	2.018305	-0.356237	0.173906
C73	C	1.518273	-0.795145	-0.326077
C74	C	2.018273	-0.295145	0.173923
C75	C	1.792256	-0.326044	-0.326075
C76	C	2.292256	0.173956	0.173925
C77	C	1.909033	-0.326047	-0.326081
C78	C	2.409033	0.173953	0.173919
C79	C	1.518269	-0.325988	-0.502604
C80	C	2.018269	0.174012	-0.002604
C81	C	1.518289	-0.325968	-0.577836
C82	C	2.018289	0.174032	-0.077836
C83	C	1.518370	-0.149492	-0.326109
C84	C	2.018370	0.350508	0.173891
C85	C	1.518433	-0.074260	-0.326130
C86	C	2.018433	0.425740	0.173870
C87	C	1.451148	-0.282671	-0.613188
C88	C	1.951148	0.217329	-0.113188
C89	C	1.451162	-0.282658	-0.683877
C90	C	1.951162	0.217342	-0.183877
C91	C	1.518324	-0.325938	-0.719212
C92	C	2.018324	0.174062	-0.219212
C93	C	1.585468	-0.369240	-0.683855
C94	C	2.085468	0.130760	-0.183855
C95	C	1.585447	-0.369256	-0.613168
C96	C	2.085447	0.130744	-0.113168
C97	C	1.585551	-0.369177	-0.968929
C98	C	2.085551	0.130823	-0.468929
C99	C	1.585569	-0.369156	-1.039621
C100	C	2.085569	0.130844	-0.539621
C101	C	1.451266	-0.282578	-1.039637
C102	C	1.951266	0.217422	-0.539637
C103	C	1.451245	-0.282595	-0.968950
C104	C	1.951245	0.217405	-0.468950
C105	C	1.518385	-0.325898	-0.933600
C106	C	2.018385	0.174102	-0.433600
C107	C	1.518367	-0.325913	-0.856951
C108	C	2.018367	0.174087	-0.356951
C109	C	1.518348	-0.325921	-0.795859
C110	C	2.018348	0.174079	-0.295859
C111	C	1.518237	-0.326033	-0.150206
C112	C	2.018237	0.173967	0.349794
C113	C	1.518421	-0.325862	-0.074974
C114	C	2.018421	0.174138	0.425026
H115	H	1.118281	-0.404678	-0.404446
H116	H	1.618281	0.095322	0.095554
C117	C	1.718339	-0.676030	-0.197301
C118	C	2.218339	-0.176030	0.302699
C119	C	1.659363	-0.721987	-0.235274
C120	C	2.159363	-0.221987	0.264726
H121	H	1.763969	-0.700010	-0.167950
H122	H	2.263969	-0.200010	0.332050
H123	H	1.758483	-0.648418	-0.226807
H124	H	2.258483	-0.148418	0.273193
H125	H	1.672558	-0.648502	-0.171384
H126	H	2.172558	-0.148502	0.328616
H127	H	1.705144	-0.749512	-0.261195
H128	H	2.205144	-0.249512	0.238805
H129	H	1.619215	-0.749611	-0.205764
H130	H	2.119215	-0.249611	0.294236
H131	H	1.396559	-0.247349	-0.940184
H132	H	1.896559	0.252651	-0.440184
H133	H	1.640127	-0.583679	-0.247571
H134	H	2.140127	-0.083679	0.252429
C135	C	1.391637	-0.244112	-1.148004
C136	C	1.891637	0.255888	-0.648004
C137	C	1.377449	-0.234985	-1.078497
C138	C	1.877449	0.265015	-0.578497
H139	H	1.346062	-0.214733	-1.171991
H140	H	1.846062	0.285267	-0.671991
H141	H	1.462229	-0.234204	-1.159594
H142	H	1.962229	0.265796	-0.659594
H143	H	1.376223	-0.289588	-1.159565
H144	H	1.876223	0.210412	-0.659565
H145	H	1.392870	-0.189510	-1.066935
H146	H	1.892870	0.310490	-0.566935
H147	H	1.306841	-0.244888	-1.066902
H148	H	1.806841	0.255112	-0.566902
H149	H	1.396446	-1.067705	-0.404596
H150	H	1.896446	-0.567705	0.095404
H151	H	1.640209	-0.404445	-0.940155
H152	H	2.140209	0.095555	-0.440155
C153	C	1.309816	-0.273282	-0.533689
C154	C	1.809816	0.226718	-0.033689
C155	C	1.377321	-0.235096	-0.574348
C156	C	1.877321	0.264904	-0.074348
H157	H	1.264242	-0.243910	-0.509709
H158	H	1.764242	0.256090	-0.009709
H159	H	1.269616	-0.302758	-0.561255
H160	H	1.769616	0.197242	-0.061255
H161	H	1.349814	-0.299066	-0.502519
H162	H	1.849814	0.200934	-0.002519
H163	H	1.337323	-0.209316	-0.605521
H164	H	1.837323	0.290684	-0.105521
H165	H	1.417526	-0.205608	-0.546780
H166	H	1.917526	0.294392	-0.046780
C167	C	1.436337	-0.762602	-0.460357
C168	C	1.936337	-0.262602	0.039643
C169	C	1.377100	-0.722018	-0.416856
C170	C	1.877100	-0.222018	0.083144
H171	H	1.390721	-0.786594	-0.489705
H172	H	1.890721	-0.286594	0.010295
H173	H	1.482060	-0.734985	-0.486269
H174	H	1.982060	-0.234985	0.013731
H175	H	1.476390	-0.793761	-0.434597
H176	H	1.976390	-0.293761	0.065403
H177	H	1.337052	-0.690856	-0.442616
H178	H	1.837052	-0.190856	0.057384
H179	H	1.331358	-0.749638	-0.390941
H180	H	1.831358	-0.249638	0.109059
C181	C	0.974920	-0.455079	-0.454690
C182	C	1.474920	0.044921	0.045310
C183	C	0.903594	-0.417036	-0.416778
C184	C	1.403594	0.082964	0.083222
H185	H	0.937690	-0.484499	-0.484010
H186	H	1.437690	0.015501	0.015990
H187	H	1.017749	-0.425623	-0.480630
H188	H	1.517749	0.074377	0.019370
H189	H	1.017682	-0.480926	-0.425138
H190	H	1.517682	0.019074	0.074862
H191	H	0.860838	-0.391185	-0.446330
H192	H	1.360838	0.108815	0.053670
H193	H	0.860747	-0.446496	-0.390836
H194	H	1.360747	0.053504	0.109164
H195	H	1.118289	-0.247391	-0.247672
H196	H	1.618289	0.252609	0.252328
C197	C	0.795704	-0.244214	-0.244514
C198	C	1.295704	0.255786	0.255486
C199	C	0.903597	-0.235055	-0.235383
C200	C	1.403597	0.264945	0.264617
H201	H	0.758480	-0.214803	-0.215194
H202	H	1.258480	0.285197	0.284806
H203	H	0.777762	-0.234369	-0.290006
H204	H	1.277762	0.265631	0.209994
H205	H	0.777698	-0.289680	-0.234522
H206	H	1.277698	0.210320	0.265478
H207	H	0.921604	-0.189590	-0.245380
H208	H	1.421604	0.310410	0.254620
H209	H	0.921546	-0.244895	-0.189881
H210	H	1.421546	0.255105	0.310119
C211	C	1.718528	-0.975305	-0.197368
C212	C	2.218528	-0.475305	0.302632
C213	C	1.659485	-0.929362	-0.235318
C214	C	2.159485	-0.429362	0.264682
H215	H	1.764149	-0.951315	-0.168021
H216	H	2.264149	-0.451315	0.331979
H217	H	1.672797	-1.002916	-0.171454
H218	H	2.172797	-0.502916	0.328546
H219	H	1.758696	-1.002836	-0.226893
H220	H	2.258696	-0.502836	0.273107
H221	H	1.619311	-0.901834	-0.205792
H222	H	2.119311	-0.401834	0.294208
H223	H	1.705222	-0.901740	-0.261233
H224	H	2.205222	-0.401740	0.238767
C225	C	1.718207	-0.454834	-0.620247
C226	C	2.218207	0.045166	-0.120247
C227	C	1.659250	-0.416850	-0.574306
C228	C	2.159250	0.083150	-0.074306
H229	H	1.763771	-0.484216	-0.596255
H230	H	2.263771	0.015784	-0.096255
H231	H	1.672417	-0.480712	-0.647808
H232	H	2.172417	0.019288	-0.147808
H233	H	1.758431	-0.425333	-0.647827
H234	H	2.258431	0.074667	-0.147827
H235	H	1.619020	-0.446351	-0.546729
H236	H	2.119020	0.053649	-0.046729
H237	H	1.705046	-0.390970	-0.546734
H238	H	2.205046	0.109030	-0.046734
H239	H	1.640400	-1.067684	-0.247660
H240	H	2.140400	-0.567684	0.252340
C241	C	1.645140	-0.407657	-0.792205
C242	C	2.145140	0.092343	-0.292205
C243	C	1.659294	-0.416816	-0.722694
C244	C	2.159294	0.083184	-0.222694
H245	H	1.690725	-0.437026	-0.816180
H246	H	2.190725	0.062974	-0.316180
H247	H	1.574553	-0.417558	-0.803781
H248	H	2.074553	0.082442	-0.303781
H249	H	1.660560	-0.362175	-0.803796
H250	H	2.160560	0.137825	-0.303796
H251	H	1.643865	-0.462296	-0.711102
H252	H	2.143865	0.037704	-0.211102
H253	H	1.729897	-0.406919	-0.711114
H254	H	2.229897	0.093081	-0.211114
H255	H	1.396485	-0.247404	-0.712657
H256	H	1.896485	0.252596	-0.212657
H257	H	1.396377	-0.939468	-0.404574
H258	H	1.896377	-0.439468	0.095426
C259	C	1.318032	-0.619583	-0.454801
C260	C	1.818032	-0.119583	0.045199
C261	C	1.377020	-0.573628	-0.416833
C262	C	1.877020	-0.073628	0.083167
H263	H	1.272395	-0.595601	-0.484146
H264	H	1.772395	-0.095601	0.015854
H265	H	1.363798	-0.647111	-0.480716
H266	H	1.863798	-0.147111	0.019284
H267	H	1.277885	-0.647194	-0.425286
H268	H	1.777885	-0.147194	0.074714
H269	H	1.417174	-0.546019	-0.446347
H270	H	1.917174	-0.046019	0.053653
H271	H	1.331248	-0.546088	-0.390915
H272	H	1.831248	-0.046088	0.109085
H273	H	1.640262	-0.404403	-1.068389
H274	H	2.140262	0.095597	-0.568389
