data_functionalizedCrystal
_audit_creation_method	'MofGen! by Chris Wilmer'
_symmetry_space_group_name_H-M	'P1'
_symmetry_Int_Tables_number	1
_symmetry_cell_setting	triclinic
loop_
_symmetry_equiv_pos_as_xyz
  x,y,z
_cell_length_a	10.968094
_cell_length_b	19.188924
_cell_length_c	10.065875
_cell_angle_alpha	98.757069
_cell_angle_beta	93.118877
_cell_angle_gamma	83.943566
loop_
_atom_site_label
_atom_site_type_symbol
_atom_site_fract_x
_atom_site_fract_y
_atom_site_fract_z
O1	O	1.612222	0.121715	0.265633
O2	O	1.262173	0.123713	0.183312
O3	O	1.447301	0.021341	0.226865
O4	O	1.427094	0.224088	0.222080
O5	O	1.411999	0.040944	0.445548
O6	O	1.226871	0.143316	0.401995
O7	O	1.576920	0.141318	0.484317
Zn8	Zn	1.396291	0.145430	0.477877
Zn9	Zn	1.442803	0.119602	0.189752
O10	O	1.391792	0.243691	0.440764
C11	C	1.199738	0.131889	0.282122
C12	C	1.066295	0.127037	0.250740
C13	C	1.428997	0.005113	0.336054
C14	C	1.427036	-0.072446	0.335596
C15	C	0.850590	0.130005	0.317592
C16	C	0.988506	0.135026	0.350039
C17	C	1.445364	-0.119556	0.216177
C18	C	1.443506	-0.192431	0.215729
C19	C	1.423343	-0.218194	0.334714
C20	C	1.405006	-0.171074	0.454149
C21	C	1.406852	-0.098200	0.454590
N22	N	1.474530	-0.328083	0.438839
N23	N	1.472780	-0.397311	0.438413
C24	C	1.417777	-0.437760	0.333392
N25	N	1.364609	-0.406367	0.228798
N26	N	1.366365	-0.337133	0.229222
C27	C	1.421338	-0.297213	0.334249
C28	C	1.434090	-0.563890	0.213479
C29	C	1.432224	-0.636766	0.213035
C30	C	1.393736	-0.615407	0.451460
C31	C	1.395591	-0.542533	0.451898
C32	C	1.415774	-0.516779	0.332905
C33	C	1.639356	0.133142	0.385504
C34	C	1.772800	0.137994	0.416877
C35	C	1.410097	0.259918	0.331572
C36	C	1.412060	0.337476	0.332021
N37	N	1.364556	0.163056	0.674517
N38	N	1.474546	0.101970	-0.006886
C39	C	1.431754	0.125730	0.758104
C40	C	1.407339	0.139301	0.909528
H41	H	0.815086	0.119444	0.208570
C42	C	1.349172	-0.725940	0.049896
C43	C	1.452373	-0.688549	0.081752
H44	H	1.361613	-0.757905	-0.031158
H45	H	1.336898	-0.751712	0.120682
H46	H	1.279018	-0.693558	0.038540
H47	H	1.522526	-0.720931	0.093119
H48	H	1.464662	-0.662775	0.010950
H49	H	1.550152	0.059961	0.952580
H50	H	1.377310	-0.636382	0.548338
C51	C	0.980692	0.214270	0.559083
C52	C	1.036413	0.149277	0.497231
H53	H	1.010265	0.223063	0.649953
H54	H	0.999723	0.251060	0.512687
H55	H	0.894296	0.212758	0.556576
H56	H	1.122809	0.150791	0.499729
H57	H	1.017391	0.112477	0.543640
H58	H	1.461795	-0.098593	0.119282
C59	C	0.891035	0.110574	0.099890
C60	C	1.018386	0.112788	0.103550
H61	H	0.861460	0.101783	0.009022
H62	H	0.872022	0.073776	0.146279
H63	H	0.853254	0.154668	0.141872
H64	H	1.056168	0.068692	0.061576
H65	H	1.037410	0.149588	0.057142
C66	C	0.764991	0.217237	0.625913
C67	C	0.820713	0.152244	0.564061
H68	H	0.794564	0.226030	0.716783
H69	H	0.784023	0.254027	0.579517
H70	H	0.678595	0.215725	0.623406
H71	H	0.907109	0.153757	0.566559
H72	H	0.801690	0.115444	0.610470
H73	H	1.458424	-0.230795	0.118478
C74	C	1.591283	0.037103	0.809633
C75	C	1.533819	0.069023	0.703392
H76	H	1.654289	0.002091	0.775854
H77	H	1.625911	0.072013	0.873489
H78	H	1.532618	0.015548	0.851591
H79	H	1.592482	0.090582	0.661440
H80	H	1.499191	0.034108	0.639512
H81	H	1.331725	0.181305	0.950060
C82	C	1.357387	-0.528745	0.687525
C83	C	1.375470	-0.490745	0.583177
H84	H	1.344972	-0.496772	0.768574
H85	H	1.287382	-0.554107	0.665920
H86	H	1.427557	-0.561119	0.698860
H87	H	1.305296	-0.458375	0.571835
H88	H	1.445483	-0.465371	0.604785
H89	H	1.288947	0.205057	0.715055
H90	H	1.391922	-0.059841	0.551838
C91	C	1.385097	-0.273303	0.559337
C92	C	1.382842	-0.199390	0.584940
H93	H	1.371415	-0.290782	0.640087
H94	H	1.322623	-0.286130	0.493808
H95	H	1.462795	-0.293126	0.526772
H96	H	1.305141	-0.179567	0.617496
H97	H	1.445320	-0.186557	0.650491
C98	C	1.561868	-0.499516	0.099967
C99	C	1.456297	-0.535588	0.082679
H100	H	1.575589	-0.482054	0.019212
H101	H	1.551210	-0.461023	0.171130
H102	H	1.630405	-0.531015	0.121262
H103	H	1.387758	-0.504088	0.061394
H104	H	1.466946	-0.574086	0.011494
