data_functionalizedCrystal
_audit_creation_method	'MofGen! by Chris Wilmer'
_symmetry_space_group_name_H-M	'P1'
_symmetry_Int_Tables_number	1
_symmetry_cell_setting	triclinic
loop_
_symmetry_equiv_pos_as_xyz
  x,y,z
_cell_length_a	17.699083
_cell_length_b	17.699083
_cell_length_c	16.176319
_cell_angle_alpha	90.000050
_cell_angle_beta	90.004339
_cell_angle_gamma	96.716985
loop_
_atom_site_label
_atom_site_type_symbol
_atom_site_fract_x
_atom_site_fract_y
_atom_site_fract_z
O1	O	0.095710	-1.004078	0.068632
O2	O	0.595710	-0.504078	0.568632
O3	O	0.108162	-0.783699	0.068660
O4	O	0.608162	-0.283699	0.568660
O5	O	-0.008253	-0.900115	0.068638
O6	O	0.491747	-0.400115	0.568638
O7	O	0.212125	-0.887662	0.068654
O8	O	0.712125	-0.387662	0.568654
O9	O	-0.008254	-0.900101	-0.068855
O10	O	0.491746	-0.400101	0.431145
O11	O	0.108162	-0.783686	-0.068834
O12	O	0.608162	-0.283686	0.431166
O13	O	0.095709	-1.004064	-0.068861
O14	O	0.595709	-0.504064	0.431139
Cu15	Cu	0.101935	-0.893874	-0.081401
Cu16	Cu	0.601935	-0.393874	0.418599
Cu17	Cu	0.101936	-0.893890	0.081200
Cu18	Cu	0.601936	-0.393890	0.581200
O19	O	0.212125	-0.887649	-0.068839
O20	O	0.712125	-0.387649	0.431161
C21	C	0.107716	-0.755495	-0.000084
C22	C	0.607716	-0.255495	0.499916
C23	C	0.106377	-0.671477	-0.000073
C24	C	0.606377	-0.171477	0.499927
C25	C	-0.036451	-0.899662	-0.000109
C26	C	0.463549	-0.399662	0.499891
C27	C	-0.120469	-0.898323	-0.000109
C28	C	0.379531	-0.398323	0.499891
N29	N	0.101935	-0.893868	-0.195767
N30	N	0.601935	-0.393868	0.304233
C31	C	-0.169090	-0.966656	-0.000119
C32	C	0.330910	-0.466656	0.499881
C33	C	-0.248033	-0.965394	-0.000111
C34	C	0.251967	-0.465394	0.499889
C35	C	-0.278354	-0.895798	-0.000100
C36	C	0.221646	-0.395798	0.499900
C37	C	-0.229727	-0.827459	-0.000088
C38	C	0.270273	-0.327459	0.499912
C39	C	-0.150785	-0.828722	-0.000089
C40	C	0.349215	-0.328722	0.499911
C41	C	-0.548090	-0.822364	-0.000080
C42	C	-0.048090	-0.322364	0.499920
C43	C	-0.627038	-0.821106	-0.000081
C44	C	-0.127038	-0.321106	0.499919
C45	C	-0.645338	-0.959036	-0.000102
C46	C	-0.145338	-0.459036	0.499898
C47	C	-0.566396	-0.960299	-0.000104
C48	C	-0.066396	-0.460299	0.499896
C49	C	-0.517776	-0.891961	-0.000087
C50	C	-0.017776	-0.391961	0.499913
C51	C	-0.432177	-0.893330	-0.000094
C52	C	0.067823	-0.393330	0.499906
C53	C	-0.363951	-0.894427	-0.000099
C54	C	0.136049	-0.394427	0.499901
C55	C	0.240322	-0.888102	-0.000091
C56	C	0.740322	-0.388102	0.499909
C57	C	0.324340	-0.889440	-0.000085
C58	C	0.824340	-0.389440	0.499915
C59	C	0.096156	-1.032268	-0.000116
C60	C	0.596156	-0.532268	0.499884
C61	C	0.097494	-1.116286	-0.000121
C62	C	0.597494	-0.616286	0.499879
C63	C	0.174710	-0.622856	-0.000069
C64	C	0.674710	-0.122856	0.499931
C65	C	0.173448	-0.543913	-0.000079
C66	C	0.673448	-0.043913	0.499921
C67	C	0.103852	-0.513592	-0.000089
C68	C	0.603852	-0.013592	0.499911
C69	C	0.035513	-0.562219	-0.000096
C70	C	0.535513	-0.062219	0.499904
C71	C	0.036776	-0.641161	-0.000091
C72	C	0.536776	-0.141161	0.499909
C73	C	0.030418	-0.243856	-0.000117
C74	C	0.530418	0.256144	0.499883
C75	C	0.029160	-0.164908	-0.000120
C76	C	0.529160	0.335092	0.499880
C77	C	0.167090	-0.146608	-0.000105
C78	C	0.667090	0.353392	0.499895
C79	C	0.168353	-0.225550	-0.000100
C80	C	0.668353	0.274450	0.499900
C81	C	0.100015	-0.274170	-0.000112
C82	C	0.600015	0.225830	0.499888
C83	C	0.101384	-0.359769	-0.000102
C84	C	0.601384	0.140231	0.499898
C85	C	0.102481	-0.427995	-0.000093
C86	C	0.602481	0.072005	0.499907
C87	C	0.147783	-0.939683	-0.239030
C88	C	0.647783	-0.439683	0.260970
C89	C	0.147781	-0.939691	-0.325577
C90	C	0.647781	-0.439691	0.174423
C91	C	0.101933	-0.893879	-0.368859
C92	C	0.601933	-0.393879	0.131141
C93	C	0.056079	-0.848063	-0.325590
C94	C	0.556079	-0.348063	0.174410
C95	C	0.056078	-0.848059	-0.239045
C96	C	0.556078	-0.348059	0.260955
C97	C	0.056080	-0.848077	-0.674618
C98	C	0.556080	-0.348077	-0.174618
C99	C	0.056085	-0.848082	-0.761170
C100	C	0.556085	-0.348082	-0.261170
C101	C	0.147782	-0.939708	-0.761151
C102	C	0.647782	-0.439708	-0.261151
C103	C	0.147781	-0.939705	-0.674605
C104	C	0.647781	-0.439705	-0.174605
C105	C	0.101925	-0.893891	-0.631344
C106	C	0.601925	-0.393891	-0.131344
C107	C	0.101927	-0.893884	-0.537499
C108	C	0.601927	-0.393884	-0.037499
C109	C	0.101933	-0.893882	-0.462702
C110	C	0.601933	-0.393882	0.037298
N111	N	0.101931	-0.893902	0.195565
N112	N	0.601931	-0.393902	0.695565
H113	H	-0.144409	-1.023330	-0.000133
H114	H	0.355591	-0.523330	0.499867
H115	H	0.185119	-0.977014	-0.796385
H116	H	0.685119	-0.477014	-0.296385
O117	O	-0.039555	-0.529522	-0.000110
O118	O	0.460445	-0.029522	0.499890
H119	H	-0.028955	-0.466461	-0.000105
H120	H	0.471045	0.033539	0.499895
O121	O	-0.036930	-0.693602	-0.000096
O122	O	0.463070	-0.193602	0.499904
H123	H	-0.039654	-0.730000	-0.056140
H124	H	0.460346	-0.230000	0.443860
H125	H	0.222734	-0.107012	-0.000100
H126	H	0.722734	0.392988	0.499900
O127	O	0.006628	-0.798647	-0.372267
O128	O	0.506628	-0.298647	0.127733
H129	H	0.014337	-0.806339	-0.439716
H130	H	0.514337	-0.306339	0.060284
H131	H	-0.111198	-0.773078	-0.000081
H132	H	0.388802	-0.273078	0.499919
O133	O	-0.262423	-0.752391	-0.000084
O134	O	0.237577	-0.252391	0.499916
H135	H	-0.325485	-0.762991	-0.000097
H136	H	0.174515	-0.262991	0.499903
H137	H	0.018740	-0.810773	-0.639405
H138	H	0.518740	-0.310773	-0.139405
H139	H	0.185123	-0.976983	-0.203795
H140	H	0.685123	-0.476983	0.296205
O141	O	0.006632	-0.798641	-0.192376
O142	O	0.506632	-0.298641	0.307624
H143	H	-0.025243	-0.766779	-0.237011
H144	H	0.474757	-0.266779	0.262989
O145	O	0.197234	-0.989102	-0.372242
O146	O	0.697234	-0.489102	0.127758
H147	H	0.229122	-1.020949	-0.327606
H148	H	0.729122	-0.520949	0.172394
H149	H	-0.651721	-0.764429	-0.000074
H150	H	-0.151721	-0.264429	0.499926
H151	H	0.018748	-0.810775	-0.796408
H152	H	0.518748	-0.310775	-0.296408
H153	H	-0.287618	-1.021038	-0.000121
H154	H	0.212382	-0.521038	0.499879
O155	O	0.249776	-0.655559	-0.000066
O156	O	0.749776	-0.155559	0.499934
H157	H	0.297079	-0.608484	-0.000076
H158	H	0.797079	-0.108484	0.499924
H159	H	-0.541714	-1.016971	-0.000117
H160	H	-0.041714	-0.516971	0.499883
H161	H	-0.684934	-1.014680	-0.000111
H162	H	-0.184934	-0.514680	0.499889
H163	H	-0.508512	-0.766718	-0.000067
H164	H	-0.008512	-0.266718	0.499933
H165	H	0.225025	-0.250232	-0.000089
H166	H	0.725025	0.249768	0.499911
O167	O	0.247150	-0.491469	-0.000075
O168	O	0.747150	0.008531	0.499925
H169	H	0.295756	-0.525815	-0.000057
H170	H	0.795756	-0.025815	0.499943
O171	O	-0.045908	-0.132201	-0.000144
O172	O	0.454092	0.367799	0.499856
H173	H	-0.093216	-0.179271	-0.000162
H174	H	0.406784	0.320729	0.499838
O175	O	0.197232	-0.989113	-0.627919
O176	O	0.697232	-0.489113	-0.127919
H177	H	0.229110	-1.020978	-0.672544
H178	H	0.729110	-0.520978	-0.172544
H179	H	-0.025228	-0.283434	-0.000127
H180	H	0.474772	0.216566	0.499873
