data_functionalizedCrystal
_audit_creation_method	'MofGen! by Chris Wilmer'
_symmetry_space_group_name_H-M	'P1'
_symmetry_Int_Tables_number	1
_symmetry_cell_setting	triclinic
loop_
_symmetry_equiv_pos_as_xyz
  x,y,z
_cell_length_a	17.639054
_cell_length_b	17.637651
_cell_length_c	11.169409
_cell_angle_alpha	78.747944
_cell_angle_beta	78.752542
_cell_angle_gamma	109.615240
loop_
_atom_site_label
_atom_site_type_symbol
_atom_site_fract_x
_atom_site_fract_y
_atom_site_fract_z
Zn1	Zn	1.193773	-0.073565	-1.023221
Zn2	Zn	1.165810	-0.211458	-0.771549
Zn3	Zn	1.055926	-0.101456	-0.771570
Zn4	Zn	1.028067	-0.239216	-0.921283
O5	O	1.110894	-0.156424	-0.871906
O6	O	1.305400	-0.068567	-1.032489
O7	O	1.151190	-0.196922	-0.603572
O8	O	1.097573	0.017605	-0.847622
O9	O	1.284855	-0.169877	-0.847587
O10	O	1.198850	0.038097	-1.032509
O11	O	1.070458	-0.116104	-0.603587
O12	O	0.936894	-0.143020	-0.748777
O13	O	1.050092	-0.217186	-1.102786
O14	O	0.916427	-0.244231	-0.858770
O15	O	1.171836	-0.095483	-1.177679
O16	O	1.124176	-0.330502	-0.748742
O17	O	1.022977	-0.350896	-0.858750
C18	C	0.896755	-0.199665	-0.792715
C19	C	0.805142	-0.218183	-0.758858
C20	C	0.665336	-0.296945	-0.614790
C21	C	0.751423	-0.279538	-0.646615
C22	C	0.772789	-0.174215	-0.839324
C23	C	0.686702	-0.191617	-0.807518
C24	C	0.632982	-0.252982	-0.695249
C25	C	0.654348	-0.147653	-0.887977
C26	C	0.568270	-0.165050	-0.856170
C27	C	0.514545	-0.226411	-0.743905
C28	C	0.546904	-0.270379	-0.663442
C29	C	0.708070	-0.086284	-1.000241
C30	C	0.675716	-0.042321	-1.080700
C31	C	0.589635	-0.059722	-1.048898
C32	C	0.535911	-0.121082	-0.936633
C33	C	0.557276	-0.015754	-1.129361
C34	C	0.471198	-0.033151	-1.097554
C35	C	0.449832	-0.138480	-0.904826
C36	C	1.067541	-0.370606	-0.792716
C37	C	1.049070	-0.462219	-0.758907
C38	C	1.251752	-0.709927	-1.129329
C39	C	1.234369	-0.796017	-1.097529
C40	C	1.128980	-0.817448	-0.904885
C41	C	1.146357	-0.731358	-0.936665
C42	C	1.207743	-0.677604	-1.048890
C43	C	1.102348	-0.699035	-0.856226
C44	C	1.119720	-0.612953	-0.888007
C45	C	1.181102	-0.559194	-1.000229
C46	C	1.225115	-0.591522	-1.080671
C47	C	1.040958	-0.752791	-0.744006
C48	C	0.996950	-0.720468	-0.663567
C49	C	1.014326	-0.634383	-0.695343
C50	C	1.075707	-0.580625	-0.807565
C51	C	0.970312	-0.602055	-0.614901
C52	C	0.987685	-0.515973	-0.646682
C53	C	1.093079	-0.494543	-0.839346
C54	C	1.325869	-0.113015	-0.951406
C55	C	1.417478	-0.094516	-0.985285
C56	C	1.110976	-0.156320	-1.185006
C57	C	1.111011	-0.156275	-1.318430
C58	C	1.154438	0.058600	-0.951439
C59	C	1.172994	0.150230	-0.985331
C60	C	1.110872	-0.156459	-0.560064
C61	C	1.111044	-0.156239	-0.426785
H62	H	0.778161	-0.072118	-1.026131
O63	O	0.609479	0.043745	-1.238508
C64	C	0.649813	0.006826	-1.316927
H65	H	0.610740	-0.063348	-1.290599
H66	H	0.714466	0.017199	-1.302863
C67	C	0.707310	0.133469	-1.489489
C68	C	0.659316	0.047281	-1.457160
H69	H	0.713176	0.158425	-1.575992
H70	H	0.680139	0.158343	-1.436656
H71	H	0.761182	0.142101	-1.477759
H72	H	0.605442	0.038650	-1.468875
H73	H	0.686478	0.022406	-1.509999
H74	H	0.816539	-0.124250	-0.930731
H75	H	0.444856	0.002652	-1.163068
H76	H	1.195245	-0.489101	-1.026103
O77	O	1.152616	-0.442248	-0.948409
C78	C	1.115705	-0.401948	-1.026900
H79	H	1.055844	-0.401740	-0.966136
H80	H	1.099938	-0.436913	-1.100245
C81	C	1.251070	-0.311229	-1.170273
C82	C	1.177551	-0.310967	-1.095641
H83	H	1.289219	-0.255109	-1.212681
H84	H	1.275938	-0.338382	-1.117395
H85	H	1.237919	-0.340371	-1.231384
H86	H	1.190701	-0.281835	-1.034522
H87	H	1.152686	-0.283807	-1.148510
H88	H	0.621593	-0.346922	-0.523377
H89	H	0.444457	-0.240562	-0.717996
H90	H	0.777760	-0.315343	-0.581087
O91	O	0.494778	-0.330090	-0.554438
C92	C	0.499173	-0.408024	-0.557881
H93	H	0.561338	-0.397136	-0.626460
H94	H	0.445125	-0.445616	-0.591356
C95	C	0.416657	-0.470452	-0.339553
C96	C	0.493012	-0.457080	-0.423775
H97	H	0.412853	-0.500715	-0.256830
H98	H	0.413693	-0.417948	-0.337234
H99	H	0.371625	-0.501776	-0.367464
H100	H	0.538042	-0.425747	-0.395872
H101	H	0.495983	-0.509580	-0.426086
H102	H	0.719466	0.007645	-1.172108
O103	O	1.311381	-0.657826	-1.238423
C104	C	1.346520	-0.704807	-1.302596
H105	H	1.300379	-0.773012	-1.271561
H106	H	1.407294	-0.701288	-1.278514
C107	C	1.421811	-0.584979	-1.485268
C108	C	1.365136	-0.668747	-1.447158
H109	H	1.433298	-0.562734	-1.574441
H110	H	1.398140	-0.553325	-1.442033
H111	H	1.472449	-0.582057	-1.465189
H112	H	1.314496	-0.671667	-1.467224
H113	H	1.388799	-0.700401	-1.490401
H114	H	1.275108	-0.547751	-1.172050
O115	O	1.276992	-0.827485	-1.175738
C116	C	1.219976	-0.886770	-1.217410
H117	H	1.160292	-0.873970	-1.210298
H118	H	1.203974	-0.952600	-1.155148
C119	C	1.333242	-0.895614	-1.365377
C120	C	1.259939	-0.879889	-1.356652
H121	H	1.357893	-0.891374	-1.451267
H122	H	1.371655	-0.855675	-1.337300
H123	H	1.319896	-0.950472	-1.313485
H124	H	1.273287	-0.825029	-1.408531
H125	H	1.221529	-0.919819	-1.384742
H126	H	1.026808	-0.822885	-0.718142
O127	O	0.397707	-0.198191	-0.795822
C128	C	0.402101	-0.276124	-0.799265
H129	H	0.464266	-0.265237	-0.867844
H130	H	0.348053	-0.313717	-0.832739
C131	C	0.319585	-0.338553	-0.580936
C132	C	0.395940	-0.325180	-0.665159
H133	H	0.315781	-0.368815	-0.498213
H134	H	0.316621	-0.286049	-0.578617
H135	H	0.274554	-0.369877	-0.608847
H136	H	0.440970	-0.293848	-0.637256
H137	H	0.398912	-0.377681	-0.667470
O138	O	1.069296	-0.869766	-0.795991
C139	C	1.005974	-0.930305	-0.826170
H140	H	1.032414	-0.937271	-0.923163
H141	H	0.951577	-0.909502	-0.828918
C142	C	0.942094	-1.006572	-0.605276
C143	C	0.974570	-1.015133	-0.724399
H144	H	0.922719	-1.058897	-0.542496
H145	H	0.984753	-0.965785	-0.584942
H146	H	0.896767	-0.989234	-0.607584
H147	H	1.019902	-1.032461	-0.722094
H148	H	0.931917	-1.055925	-0.744730
O149	O	0.937376	-0.772798	-0.554575
C150	C	0.931462	-0.855712	-0.543786
H151	H	0.992691	-0.854563	-0.602379
H152	H	0.877616	-0.890020	-0.580524
C153	C	0.839826	-0.902901	-0.331262
C154	C	0.915032	-0.901490	-0.403218
H155	H	0.829687	-0.931141	-0.244553
H156	H	0.843807	-0.847041	-0.338531
H157	H	0.794963	-0.931489	-0.361891
H158	H	0.959894	-0.872893	-0.372598
H159	H	0.911057	-0.957346	-0.395940
O160	O	0.910571	-0.654264	-0.505993
C161	C	0.832659	-0.649844	-0.509479
H162	H	0.833251	-0.626974	-0.612555
H163	H	0.821213	-0.604275	-0.455570
C164	C	0.761486	-0.765555	-0.320268
C165	C	0.762211	-0.737473	-0.446869
H166	H	0.718029	-0.819607	-0.281642
H167	H	0.813977	-0.768532	-0.317916
H168	H	0.751950	-0.727573	-0.275361
H169	H	0.771756	-0.775449	-0.491777
H170	H	0.709719	-0.734505	-0.449227
H171	H	0.951847	-0.489657	-0.581181
