data_functionalizedCrystal
_audit_creation_method	'MofGen! by Chris Wilmer'
_symmetry_space_group_name_H-M	'P1'
_symmetry_Int_Tables_number	1
_symmetry_cell_setting	triclinic
loop_
_symmetry_equiv_pos_as_xyz
  x,y,z
_cell_length_a	19.188930
_cell_length_b	19.188930
_cell_length_c	18.266242
_cell_angle_alpha	89.988525
_cell_angle_beta	89.977082
_cell_angle_gamma	83.144779
loop_
_atom_site_label
_atom_site_type_symbol
_atom_site_fract_x
_atom_site_fract_y
_atom_site_fract_z
O1	O	0.926149	0.087169	-0.061124
O2	O	1.426149	0.587169	0.438876
O3	O	0.722838	0.098903	-0.061075
O4	O	1.222838	0.598903	0.438925
O5	O	0.830361	-0.008620	-0.061087
O6	O	1.330361	0.491380	0.438913
O7	O	0.818627	0.194691	-0.061113
O8	O	1.318627	0.694691	0.438887
O9	O	0.830343	-0.008625	0.060675
O10	O	1.330343	0.491375	0.560675
O11	O	0.722820	0.098897	0.060687
O12	O	1.222820	0.598897	0.560687
O13	O	0.926131	0.087163	0.060638
O14	O	1.426131	0.587163	0.560638
Zn15	Zn	0.824473	0.093029	0.079994
Zn16	Zn	1.324473	0.593029	0.579994
Zn17	Zn	0.824497	0.093037	-0.080432
Zn18	Zn	1.324497	0.593037	0.419568
O19	O	0.818608	0.194686	0.060649
O20	O	1.318608	0.694686	0.560649
C21	C	0.696818	0.098520	-0.000188
C22	C	1.196818	0.598520	0.499812
C23	C	0.619313	0.097380	-0.000169
C24	C	1.119313	0.597380	0.499831
C25	C	0.574389	0.160470	-0.000188
C26	C	1.074389	0.660470	0.499812
C27	C	0.501566	0.159399	-0.000196
C28	C	1.001566	0.659399	0.499804
C29	C	0.473669	0.095233	-0.000199
C30	C	0.973669	0.595233	0.499801
C31	C	0.518603	0.032133	-0.000175
C32	C	1.018603	0.532133	0.499825
C33	C	0.591425	0.033207	-0.000160
C34	C	1.091425	0.533207	0.499840
N35	N	0.365695	0.046188	-0.041663
N36	N	0.865695	0.546188	0.458337
N37	N	0.296516	0.045172	-0.041679
N38	N	0.796516	0.545172	0.458321
C39	C	0.254260	0.091994	-0.000243
C40	C	0.754260	0.591994	0.499757
N41	N	0.283795	0.139881	0.041200
N42	N	0.783795	0.639881	0.541200
N43	N	0.352980	0.140899	0.041213
N44	N	0.852980	0.640899	0.541213
C45	C	0.394707	0.094062	-0.000215
C46	C	0.894707	0.594062	0.499785
C47	C	0.130372	0.153928	-0.000270
C48	C	0.630372	0.653928	0.499730
C49	C	0.057547	0.152853	-0.000274
C50	C	0.557547	0.652853	0.499726
C51	C	0.074586	0.025586	-0.000261
C52	C	0.574586	0.525586	0.499739
C53	C	0.147409	0.026662	-0.000250
C54	C	0.647409	0.526662	0.499750
C55	C	0.175298	0.090835	-0.000258
C56	C	0.675298	0.590835	0.499742
C57	C	0.829972	-0.034634	-0.000204
C58	C	1.329972	0.465366	0.499796
C59	C	0.828831	-0.112138	-0.000197
C60	C	1.328831	0.387862	0.499803
C61	C	0.891922	-0.157062	-0.000209
C62	C	1.391922	0.342938	0.499791
C63	C	0.890850	-0.229886	-0.000220
C64	C	1.390850	0.270114	0.499780
C65	C	0.826684	-0.257782	-0.000206
C66	C	1.326684	0.242218	0.499794
C67	C	0.763585	-0.212849	-0.000198
C68	C	1.263585	0.287151	0.499802
C69	C	0.764658	-0.140026	-0.000194
C70	C	1.264658	0.359974	0.499806
N71	N	0.777631	-0.365789	0.041244
N72	N	1.277631	0.134211	0.541244
N73	N	0.776615	-0.434968	0.041242
N74	N	1.276615	0.065032	0.541242
C75	C	0.823446	-0.477191	-0.000220
C76	C	1.323446	0.022809	0.499780
N77	N	0.871341	-0.447624	-0.041669
N78	N	1.371341	0.052376	0.458331
N79	N	0.872359	-0.378439	-0.041664
N80	N	1.372359	0.121561	0.458336
C81	C	0.825513	-0.336745	-0.000210
C82	C	1.325513	0.163255	0.499790
C83	C	0.885379	-0.601079	-0.000245
C84	C	1.385379	-0.101079	0.499755
C85	C	0.884305	-0.673904	-0.000261
C86	C	1.384305	-0.173904	0.499739
C87	C	0.757038	-0.656865	-0.000231
C88	C	1.257038	-0.156865	0.499769
C89	C	0.758114	-0.584042	-0.000222
C90	C	1.258114	-0.084042	0.499778
C91	C	0.822287	-0.556154	-0.000226
C92	C	1.322287	-0.056154	0.499774
C93	C	0.952151	0.087546	-0.000252
C94	C	1.452151	0.587546	0.499748
C95	C	1.029656	0.088687	-0.000276
C96	C	1.529656	0.588687	0.499724
C97	C	0.818997	0.220700	-0.000236
C98	C	1.318997	0.720700	0.499764
C99	C	0.820138	0.298204	-0.000247
C100	C	1.320138	0.798204	0.499753
N101	N	0.824461	0.093024	0.189481
N102	N	1.324461	0.593024	0.689481
N103	N	0.824513	0.093037	-0.189919
N104	N	1.324513	0.593037	0.310081
C105	C	0.872088	0.045436	0.227785
C106	C	1.372088	0.545436	0.727785
C107	C	0.872092	0.045433	0.304430
C108	C	1.372092	0.545433	0.804430
C109	C	0.824477	0.093030	0.342768
C110	C	1.324477	0.593030	0.842768
C111	C	0.776841	0.140621	0.304455
C112	C	1.276841	0.640621	0.804455
C113	C	0.776834	0.140618	0.227812
C114	C	1.276834	0.640618	0.727812
N115	N	0.815401	0.154837	0.463094
N116	N	1.315401	0.654837	0.963094
N117	N	0.815413	0.154838	0.535902
N118	N	1.315413	0.654838	1.035902
C119	C	0.824496	0.093040	0.573691
C120	C	1.324496	0.593040	1.073691
N121	N	0.833582	0.031239	0.535920
N122	N	1.333582	0.531239	1.035920
N123	N	0.833574	0.031240	0.463106
N124	N	1.333574	0.531240	0.963106
C125	C	0.824480	0.093038	0.425875
C126	C	1.324480	0.593038	0.925875
C127	C	0.872131	0.045444	0.695101
C128	C	1.372131	0.545444	1.195101
C129	C	0.872130	0.045440	0.771748
C130	C	1.372130	0.545440	1.271748
C131	C	0.776882	0.140634	0.771772
C132	C	1.276882	0.640634	1.271772
C133	C	0.776879	0.140632	0.695127
C134	C	1.276879	0.640632	1.195127
C135	C	0.824507	0.093038	0.656796
C136	C	1.324507	0.593038	1.156796
H137	H	0.464982	0.210776	-0.000210
H138	H	0.964982	0.710776	0.499790
O139	O	0.701298	-0.240027	-0.000280
O140	O	1.201298	0.259973	0.499720
C141	C	0.696873	-0.281615	-0.063351
C142	C	1.196873	0.218385	0.436649
H143	H	0.751963	-0.299915	-0.084386
H144	H	1.251963	0.200085	0.415614
H145	H	0.669186	-0.329221	-0.049163
H146	H	1.169186	0.170779	0.450837
H147	H	0.665893	-0.249338	-0.107502
H148	H	1.165893	0.250662	0.392498
H149	H	0.704792	-0.679578	-0.000222
H150	H	1.204792	-0.179578	0.499778
H151	H	0.910911	0.006685	0.802935
H152	H	1.410911	0.506685	1.302935
H153	H	0.937632	-0.578372	-0.000251
H154	H	1.437632	-0.078372	0.499749
O155	O	0.191082	-0.034606	-0.000112
O156	O	0.691082	0.465394	0.499888
C157	C	0.233694	-0.037790	0.062947
C158	C	0.733694	0.462210	0.562947
H159	H	0.206890	-0.002010	0.107018
H160	H	0.706890	0.497990	0.607018
H161	H	0.242045	-0.094058	0.084118
H162	H	0.742045	0.405942	0.584118
H163	H	0.286603	-0.019878	0.048699
H164	H	0.786603	0.480122	0.548699
O165	O	0.601595	0.222744	-0.000239
O166	O	1.101595	0.722744	0.499761
C167	C	0.675504	0.210166	-0.000211
C168	C	1.175504	0.710166	0.499789
H169	H	0.692783	0.155621	-0.023237
H170	H	1.192783	0.655621	0.476763
H171	H	0.697755	0.251203	-0.035580
H172	H	1.197755	0.751203	0.464420
H173	H	0.695739	0.213505	0.058204
H174	H	1.195739	0.713505	0.558204
O175	O	0.157388	0.216304	-0.000367
O176	O	0.657388	0.716304	0.499633
C177	C	0.134459	0.254752	-0.063442
C178	C	0.634459	0.754752	0.436558
H179	H	0.084017	0.235885	-0.084474
H180	H	0.584017	0.735885	0.415526
H181	H	0.124171	0.312925	-0.049262
H182	H	0.624171	0.812925	0.450738
H183	H	0.176648	0.246538	-0.107593
H184	H	0.676648	0.746538	0.392407
O185	O	0.047464	-0.036729	-0.000394
O186	O	0.547464	0.463271	0.499606
C187	C	0.005871	-0.041147	-0.063454
C188	C	0.505871	0.458853	0.436546
H189	H	0.023006	-0.004711	-0.107530
H190	H	0.523006	0.495289	0.392470
H191	H	0.012592	-0.097437	-0.084617
H192	H	0.512592	0.402563	0.415383
H193	H	-0.051616	-0.024869	-0.049209
H194	H	0.448384	0.475131	0.450791
H195	H	0.495885	-0.020111	-0.000188
H196	H	0.995885	0.479889	0.499812
H197	H	0.738110	0.179386	0.802986
H198	H	1.238110	0.679386	1.302986
H199	H	0.942228	-0.266470	-0.000233
H200	H	1.442228	0.233530	0.499767
H201	H	0.706738	-0.547464	-0.000208
H202	H	1.206738	-0.047464	0.499792
O203	O	0.013836	0.214098	-0.000392
O204	O	0.513836	0.714098	0.499608
C205	C	-0.028750	0.217290	-0.063471
C206	C	0.471250	0.717290	0.436529
H207	H	-0.032255	0.161881	-0.084483
H208	H	0.467745	0.661881	0.415517
H209	H	-0.083571	0.243469	-0.049303
H210	H	0.416429	0.743469	0.450697
H211	H	-0.004863	0.249100	-0.107632
H212	H	0.495137	0.749100	0.392368
H213	H	0.628003	-0.018171	-0.000145
H214	H	1.128003	0.481829	0.499855
O215	O	0.954318	-0.130089	-0.000250
O216	O	1.454318	0.369911	0.499750
C217	C	1.009774	-0.185362	-0.000243
C218	C	1.509774	0.314638	0.499757
H219	H	0.990358	-0.234769	-0.023295
H220	H	1.490358	0.265231	0.476705
H221	H	1.054596	-0.170273	-0.035600
H222	H	1.554596	0.329727	0.464400
H223	H	1.029213	-0.195739	0.058169
H224	H	1.529213	0.304261	0.558169
O225	O	0.703305	-0.096483	-0.000146
O226	O	1.203305	0.403517	0.499854
C227	C	0.646437	-0.136716	-0.000158
C228	C	1.146437	0.363284	0.499842
H229	H	0.664321	-0.191131	0.022884
H230	H	1.164321	0.308869	0.522884
H231	H	0.602239	-0.109727	0.035204
H232	H	1.102239	0.390273	0.535204
H233	H	0.626768	-0.141825	-0.058570
H234	H	1.126768	0.358175	0.441430
H235	H	0.935683	-0.710481	-0.000274
H236	H	1.435683	-0.210481	0.499726
O237	O	0.730639	0.186947	0.190634
O238	O	1.230639	0.686947	0.690634
C239	C	0.741763	0.256037	0.209356
C240	C	1.241763	0.756037	0.709356
H241	H	0.797660	0.256240	0.230399
H242	H	1.297660	0.756240	0.730399
H243	H	0.733621	0.291098	0.158949
H244	H	1.233621	0.791098	0.658949
H245	H	0.703004	0.276639	0.253859
H246	H	1.203004	0.776639	0.753859
H247	H	0.910868	0.006681	0.196579
H248	H	1.410868	0.506681	0.696579
H249	H	0.910910	0.006688	0.663892
H250	H	1.410910	0.506688	1.163892
H251	H	0.910877	0.006680	0.335623
H252	H	1.410877	0.506680	0.835623
H253	H	0.738071	0.179374	0.335674
H254	H	1.238071	0.679374	0.835674
O255	O	0.730593	0.186933	0.658028
O256	O	1.230593	0.686933	1.158028
C257	C	0.688554	0.228932	0.708298
C258	C	1.188554	0.728932	1.208298
H259	H	0.717181	0.229652	0.762917
H260	H	1.217181	0.729652	1.262917
H261	H	0.677728	0.284717	0.686145
H262	H	1.177728	0.784717	1.186145
H263	H	0.636761	0.206389	0.716482
H264	H	1.136761	0.706389	1.216482
