data_functionalizedCrystal
_audit_creation_method	'MofGen! by Chris Wilmer'
_symmetry_space_group_name_H-M	'P1'
_symmetry_Int_Tables_number	1
_symmetry_cell_setting	triclinic
loop_
_symmetry_equiv_pos_as_xyz
  x,y,z
_cell_length_a	23.532407
_cell_length_b	23.532355
_cell_length_c	22.610064
_cell_angle_alpha	90.004126
_cell_angle_beta	90.005928
_cell_angle_gamma	82.838088
loop_
_atom_site_label
_atom_site_type_symbol
_atom_site_fract_x
_atom_site_fract_y
_atom_site_fract_z
O1	O	0.068982	0.755278	-0.049110
O2	O	0.079016	0.589410	-0.049130
O3	O	-0.008934	0.677346	-0.049108
O4	O	0.156931	0.667342	-0.049131
O5	O	-0.008912	0.677340	0.049261
O6	O	0.079038	0.589404	0.049239
O7	O	0.069004	0.755272	0.049259
Zn8	Zn	0.074025	0.672337	0.064868
Zn9	Zn	0.073995	0.672345	-0.064738
O10	O	0.156954	0.667336	0.049238
C11	C	0.078776	0.568191	0.000052
C12	C	0.078022	0.504972	0.000045
C13	C	-0.030139	0.677088	0.000078
C14	C	-0.093356	0.676322	0.000082
C15	C	0.073296	0.112955	0.053692
C16	C	0.072579	0.053556	0.053694
O17	O	0.072199	0.022834	0.099296
N18	N	0.072211	0.023850	0.000074
C19	C	0.072554	0.053549	-0.053553
O20	O	0.072175	0.022828	-0.099162
C21	C	0.073268	0.112947	-0.053555
C22	C	0.073641	0.142649	0.000069
C23	C	0.073669	0.142656	0.107312
C24	C	0.074388	0.202052	0.107309
C25	C	0.074733	0.231745	0.053687
C26	C	0.074360	0.202044	0.000067
C27	C	0.073607	0.142645	-0.107181
C28	C	0.074320	0.202048	-0.107178
C29	C	0.074694	0.231749	-0.053554
C30	C	0.075424	0.291133	-0.053558
N31	N	0.075792	0.320838	0.000062
C32	C	0.075446	0.291144	0.053685
C33	C	0.071055	-0.071193	-0.053545
C34	C	0.070346	-0.130591	-0.053544
C35	C	0.070369	-0.130580	0.053703
C36	C	0.071083	-0.071181	0.053702
C37	C	0.071423	-0.041488	0.000075
C38	C	0.076956	0.415878	0.053675
C39	C	0.077677	0.475278	0.053668
C40	C	0.077650	0.475262	-0.053579
C41	C	0.076933	0.415867	-0.053572
C42	C	0.076583	0.386177	0.000060
O43	O	0.075802	0.321892	-0.099137
O44	O	0.075818	0.321873	0.099286
C45	C	-0.492468	0.723557	0.000055
C46	C	-0.551868	0.722845	0.000051
O47	O	-0.588620	0.766632	0.000034
N48	N	-0.574484	0.670568	0.000045
C49	C	-0.537697	0.618998	0.000038
O50	O	-0.562388	0.574467	0.000032
C51	C	-0.478298	0.619710	0.000038
C52	C	-0.455685	0.671991	0.000050
C53	C	-0.469854	0.775834	0.000066
C54	C	-0.410458	0.776545	0.000072
C55	C	-0.373675	0.724979	0.000067
C56	C	-0.396289	0.672703	0.000055
C57	C	-0.441512	0.568141	0.000027
C58	C	-0.382110	0.568858	0.000026
C59	C	-0.359497	0.621139	0.000038
C60	C	-0.300110	0.621848	0.000056
N61	N	-0.277494	0.674126	0.000061
C62	C	-0.314277	0.725691	0.000067
C63	C	-0.662439	0.617507	0.000036
C64	C	-0.721837	0.616794	0.000040
C65	C	-0.736004	0.720642	0.000052
C66	C	-0.676605	0.721354	0.000052
C67	C	-0.639823	0.669784	0.000042
C68	C	-0.189540	0.727181	0.000079
C69	C	-0.130138	0.727888	0.000087
C70	C	-0.115977	0.624041	0.000072
C71	C	-0.175373	0.623334	0.000067
C72	C	-0.212154	0.674909	0.000069
O73	O	-0.263323	0.578084	0.000070
O74	O	-0.289577	0.770216	0.000065
C75	C	0.178158	0.667594	0.000050
C76	C	0.241375	0.668360	0.000042
C77	C	0.069244	0.776492	0.000076
C78	C	0.069998	0.839710	0.000079
N79	N	0.074044	0.672336	0.153320
N80	N	0.073971	0.672351	-0.153191
C81	C	0.112941	0.633385	0.438159
C82	C	0.112947	0.633384	0.376239
O83	O	0.146044	0.600249	0.344212
N84	N	0.074022	0.672332	0.345272
C85	C	0.035084	0.711280	0.376229
O86	O	0.001975	0.744408	0.344204
C87	C	0.035077	0.711278	0.438148
C88	C	0.074008	0.672332	0.469111
C89	C	0.151870	0.594441	0.469122
C90	C	0.151865	0.594444	0.531038
C91	C	0.112932	0.633390	0.561990
C92	C	0.074003	0.672334	0.531027
C93	C	-0.003863	0.750224	0.469103
C94	C	-0.003868	0.750218	0.531026
C95	C	0.035064	0.711272	0.561989
C96	C	0.035065	0.711283	0.623895
N97	N	0.073991	0.672335	0.654861
C98	C	0.112924	0.633389	0.623909
C99	C	0.035103	0.711280	0.246195
C100	C	0.035113	0.711285	0.184278
C101	C	0.112975	0.633387	0.184292
C102	C	0.112967	0.633386	0.246211
C103	C	0.074028	0.672332	0.277162
C104	C	0.112911	0.633397	0.753936
C105	C	0.112904	0.633405	0.815857
C106	C	0.035040	0.711299	0.815838
C107	C	0.035049	0.711294	0.753922
C108	C	0.073986	0.672338	0.722973
O109	O	0.001984	0.744399	0.655961
O110	O	0.146022	0.600261	0.655941
H111	H	0.076677	0.391711	0.097348
O112	O	0.073315	0.113857	-0.159311
C113	C	0.122815	0.121628	-0.191941
H114	H	0.139792	0.162505	-0.176689
H115	H	0.111725	0.125186	-0.240991
H116	H	0.156956	0.083478	-0.184527
O117	O	-0.771821	0.770682	0.000024
C118	C	-0.829095	0.758837	0.000032
H119	H	-0.831113	0.714114	-0.018593
H120	H	-0.856199	0.791722	-0.028530
H121	H	-0.846288	0.761096	0.047223
O122	O	-0.002806	0.749179	0.845819
C123	C	-0.037182	0.783543	0.805218
H124	H	-0.013832	0.784068	0.761085
H125	H	-0.046125	0.829069	0.823119
H126	H	-0.079386	0.765281	0.798618
O127	O	-0.743705	0.565958	0.000009
C128	C	-0.698495	0.520602	0.000021
H129	H	-0.658233	0.536338	-0.018596
H130	H	-0.710698	0.484082	-0.028544
H131	H	-0.689997	0.504711	0.047213
H132	H	0.183574	0.562724	0.443926
H133	H	-0.111731	0.770463	0.000099
O134	O	0.078011	0.504045	0.105814
C135	C	0.077564	0.465093	0.153141
H136	H	0.059016	0.425214	0.137422
H137	H	0.050126	0.486032	0.190649
H138	H	0.123188	0.452536	0.169623
H139	H	0.074689	0.226230	0.150976
O140	O	0.076655	0.387060	-0.105698
C141	C	0.126164	0.394820	-0.138318
H142	H	0.143136	0.435702	-0.123075
H143	H	0.115085	0.398362	-0.187373
H144	H	0.160302	0.356672	-0.130885
H145	H	0.003417	0.743004	0.159072
H146	H	0.073387	0.118486	0.150980
O147	O	-0.002642	0.749144	0.276324
C148	C	0.027668	0.784115	0.312139
H149	H	0.072350	0.761177	0.321430
H150	H	0.003839	0.793267	0.355672
H151	H	0.031325	0.826180	0.288276
H152	H	-0.352164	0.526863	0.000017
H153	H	0.144676	0.601674	0.159079
H154	H	0.071388	-0.047002	0.097367
H155	H	0.070087	-0.154767	0.097366
O156	O	-0.197248	0.572499	0.000032
C157	C	-0.152043	0.527139	0.000046
H158	H	-0.111777	0.542873	-0.018565
H159	H	-0.164246	0.490623	-0.028525
H160	H	-0.143551	0.511243	0.047236
H161	H	-0.219481	0.769178	0.000078
O162	O	0.150803	0.595494	0.276194
C163	C	0.185175	0.561133	0.235589
H164	H	0.161832	0.560631	0.191446
H165	H	0.194099	0.515600	0.253470
H166	H	0.227389	0.579382	0.229018
O167	O	0.069966	-0.159349	-0.105688
C168	C	0.070441	-0.120398	-0.153013
H169	H	0.052923	-0.075595	-0.137286
H170	H	0.042572	-0.133783	-0.190514
H171	H	0.116210	-0.120321	-0.169505
H172	H	0.071338	-0.047021	-0.097217
H173	H	-0.035565	0.781937	0.443901
H174	H	0.144617	0.601675	0.728744
O175	O	0.074731	0.230944	-0.159235
C176	C	0.124483	0.258553	-0.162462
H177	H	0.141050	0.265211	-0.115909
H178	H	0.113888	0.301835	-0.185159
H179	H	0.158743	0.230941	-0.188928
O180	O	-0.041718	0.788105	0.561000
C181	C	-0.076086	0.822465	0.520388
H182	H	-0.052732	0.822976	0.476256
H183	H	-0.085023	0.867996	0.538278
H184	H	-0.118293	0.804208	0.513789
H185	H	-0.392053	0.819117	0.000079
H186	H	0.003352	0.743014	0.728711
O187	O	0.078062	0.504167	-0.105627
C188	C	0.127812	0.531780	-0.108850
H189	H	0.144381	0.538428	-0.062296
H190	H	0.117212	0.575067	-0.131535
H191	H	0.162071	0.504177	-0.135325
H192	H	-0.499797	0.817827	0.000069
O193	O	-0.654736	0.772189	0.000031
C194	C	-0.699945	0.817545	0.000053
H195	H	-0.740210	0.801811	-0.018569
H196	H	-0.687747	0.854068	-0.028504
H197	H	-0.708435	0.833432	0.047247
H198	H	-0.632494	0.575510	0.000033
H199	H	-0.459912	0.525569	0.000013
H200	H	-0.086018	0.582057	0.000070
O201	O	0.150744	0.595513	0.845842
C202	C	0.185115	0.561147	0.805240
H203	H	0.161770	0.560639	0.761099
H204	H	0.194040	0.515616	0.823127
H205	H	0.227328	0.579395	0.798663
H206	H	0.183565	0.562729	0.556244
