data_functionalizedCrystal
_audit_creation_method	'MofGen! by Chris Wilmer'
_symmetry_space_group_name_H-M	'P1'
_symmetry_Int_Tables_number	1
_symmetry_cell_setting	triclinic
loop_
_symmetry_equiv_pos_as_xyz
  x,y,z
_cell_length_a	15.944557
_cell_length_b	14.421503
_cell_length_c	17.699083
_cell_angle_alpha	89.996606
_cell_angle_beta	96.607808
_cell_angle_gamma	89.994217
loop_
_atom_site_label
_atom_site_type_symbol
_atom_site_fract_x
_atom_site_fract_y
_atom_site_fract_z
O1	O	-1.114321	0.077074	0.097627
O2	O	-0.864321	0.327074	0.347627
O3	O	-0.614321	0.577074	0.597627
O4	O	-0.364321	0.827074	0.847627
O5	O	-0.869746	0.077084	0.109657
O6	O	-0.619746	0.327084	0.359657
O7	O	-0.369746	0.577084	0.609657
O8	O	-0.119746	0.827084	0.859657
O9	O	-0.998943	0.077071	-0.006536
O10	O	-0.748943	0.327071	0.243464
O11	O	-0.498943	0.577071	0.493464
O12	O	-0.248943	0.827071	0.743464
O13	O	-0.985124	0.077088	0.213819
O14	O	-0.735124	0.327088	0.463819
O15	O	-0.485124	0.577088	0.713819
O16	O	-0.235124	0.827088	0.963819
O17	O	-0.998922	-0.077153	-0.006518
O18	O	-0.748922	0.172847	0.243482
O19	O	-0.498922	0.422847	0.493482
O20	O	-0.248922	0.672847	0.743482
O21	O	-0.869725	-0.077139	0.109674
O22	O	-0.619725	0.172861	0.359674
O23	O	-0.369725	0.422861	0.609674
O24	O	-0.119725	0.672861	0.859674
O25	O	-1.114299	-0.077150	0.097644
O26	O	-0.864299	0.172850	0.347644
O27	O	-0.614299	0.422850	0.597644
O28	O	-0.364299	0.672850	0.847644
Cu29	Cu	-0.992010	-0.091226	0.103661
Cu30	Cu	-0.742010	0.158774	0.353661
Cu31	Cu	-0.492010	0.408774	0.603661
Cu32	Cu	-0.242010	0.658774	0.853661
Cu33	Cu	-0.992035	0.091161	0.103640
Cu34	Cu	-0.742035	0.341161	0.353640
Cu35	Cu	-0.492035	0.591161	0.603640
Cu36	Cu	-0.242035	0.841161	0.853640
O37	O	-0.985102	-0.077136	0.213836
O38	O	-0.735102	0.172864	0.463836
O39	O	-0.485102	0.422864	0.713836
O40	O	-0.235102	0.672864	0.963836
C41	C	-0.838443	-0.000026	0.109165
C42	C	-0.588443	0.249974	0.359165
C43	C	-0.338443	0.499974	0.609165
C44	C	-0.088443	0.749974	0.859165
C45	C	-0.745200	-0.000022	0.107665
C46	C	-0.495200	0.249978	0.357665
C47	C	-0.245200	0.499978	0.607665
C48	C	0.004800	0.749978	0.857665
C49	C	-0.474730	-0.000043	0.031159
C50	C	-0.224730	0.249957	0.281159
C51	C	0.025270	0.499957	0.531159
C52	C	0.275270	0.749957	0.781159
C53	C	-0.525223	-0.076081	0.068050
C54	C	-0.275223	0.173919	0.318050
C55	C	-0.025223	0.423919	0.568050
C56	C	0.224777	0.673919	0.818050
C57	C	-0.409570	-0.000044	0.102316
C58	C	-0.159570	0.249956	0.352316
C59	C	0.090430	0.499956	0.602316
C60	C	0.340430	0.749956	0.852316
C61	C	-0.525225	0.075971	0.068052
C62	C	-0.275225	0.325971	0.318052
C63	C	-0.025225	0.575971	0.568052
C64	C	0.224775	0.825971	0.818052
C65	C	-0.574477	-0.000032	0.104941
C66	C	-0.324477	0.249968	0.354941
C67	C	-0.074477	0.499968	0.604941
C68	C	0.175523	0.749968	0.854941
C69	C	-0.458835	-0.076146	0.139188
C70	C	-0.208835	0.173854	0.389188
C71	C	0.041165	0.423854	0.639188
C72	C	0.291165	0.673854	0.889188
C73	C	-0.458833	0.075975	0.139179
C74	C	-0.208833	0.325975	0.389179
C75	C	0.041167	0.575975	0.639179
C76	C	0.291167	0.825975	0.889179
C77	C	-0.509293	-0.000083	0.176121
C78	C	-0.259293	0.249917	0.426121
C79	C	-0.009293	0.499917	0.676121
C80	C	0.240707	0.749917	0.926121
C81	C	-0.314571	-0.000052	0.100803
C82	C	-0.064571	0.249948	0.350803
C83	C	0.185429	0.499948	0.600803
C84	C	0.435429	0.749948	0.850803
C85	C	-0.669472	-0.000031	0.106460
C86	C	-0.419472	0.249969	0.356460
C87	C	-0.169472	0.499969	0.606460
C88	C	0.080528	0.749969	0.856460
N89	N	-0.991998	-0.219507	0.103674
N90	N	-0.741998	0.030493	0.353674
N91	N	-0.491998	0.280493	0.603674
N92	N	-0.241998	0.530493	0.853674
C93	C	-0.932247	-0.469155	0.157378
C94	C	-0.682247	-0.219155	0.407378
C95	C	-0.432247	0.030845	0.657378
C96	C	-0.182247	0.280845	0.907378
C97	C	-1.008116	-0.530959	0.172073
C98	C	-0.758116	-0.280959	0.422073
C99	C	-0.508116	-0.030959	0.672073
C100	C	-0.258116	0.219041	0.922073
C101	C	-0.992019	-0.408669	0.103656
C102	C	-0.742019	-0.158669	0.353656
C103	C	-0.492019	0.091331	0.603656
C104	C	-0.242019	0.341331	0.853656
C105	C	-0.916170	-0.530958	0.088979
C106	C	-0.666170	-0.280958	0.338979
C107	C	-0.416170	-0.030958	0.588979
C108	C	-0.166170	0.219042	0.838979
C109	C	-0.992032	-0.591390	0.103641
C110	C	-0.742032	-0.341390	0.353641
C111	C	-0.492032	-0.091390	0.603641
C112	C	-0.242032	0.158610	0.853641
C113	C	-1.067926	-0.469113	0.118386
C114	C	-0.817926	-0.219113	0.368386
C115	C	-0.567926	0.030887	0.618386
C116	C	-0.317926	0.280887	0.868386
C117	C	-0.975930	-0.469106	0.035262
C118	C	-0.725930	-0.219106	0.285262
C119	C	-0.475930	0.030894	0.535262
C120	C	-0.225930	0.280894	0.785262
C121	C	-1.051853	-0.530883	0.049928
C122	C	-0.801853	-0.280883	0.299928
C123	C	-0.551853	-0.030883	0.549928
C124	C	-0.301853	0.219117	0.799928
C125	C	-0.992010	-0.303408	0.103667
C126	C	-0.742010	-0.053408	0.353667
C127	C	-0.492010	0.196592	0.603667
C128	C	-0.242010	0.446592	0.853667
C129	C	-0.992049	-0.696649	0.103629
C130	C	-0.742049	-0.446649	0.353629
C131	C	-0.492049	-0.196649	0.603629
C132	C	-0.242049	0.053351	0.853629
C133	C	-0.145604	-0.000042	0.098125
C134	C	0.104396	0.249958	0.348125
C135	C	0.354396	0.499958	0.598125
C136	C	0.604396	0.749958	0.848125
C137	C	-0.238851	-0.000053	0.099594
C138	C	0.011149	0.249947	0.349594
C139	C	0.261149	0.499947	0.599594
C140	C	0.511149	0.749947	0.849594
C141	C	-0.998437	-0.000041	-0.034725
C142	C	-0.748437	0.249959	0.215275
C143	C	-0.498437	0.499959	0.465275
C144	C	-0.248437	0.749959	0.715275
C145	C	-0.996952	-0.000042	-0.118745
C146	C	-0.746952	0.249958	0.131255
C147	C	-0.496952	0.499958	0.381255
C148	C	-0.246952	0.749958	0.631255
N149	N	-0.992054	0.219442	0.103620
N150	N	-0.742054	0.469442	0.353620
N151	N	-0.492054	0.719442	0.603620
N152	N	-0.242054	0.969442	0.853620
C153	C	-1.072788	-0.000046	-0.167235
C154	C	-0.822788	0.249954	0.082765
C155	C	-0.572788	0.499954	0.332765
C156	C	-0.322788	0.749954	0.582765
C157	C	-1.071387	-0.000038	-0.246181
C158	C	-0.821387	0.249962	0.003819
C159	C	-0.571387	0.499962	0.253819
C160	C	-0.321387	0.749962	0.503819
C161	C	-0.994149	-0.000032	-0.276635
C162	C	-0.744149	0.249968	-0.026635
C163	C	-0.494149	0.499968	0.223365
C164	C	-0.244149	0.749968	0.473365
C165	C	-0.918308	-0.000024	-0.228139
C166	C	-0.668308	0.249976	0.021861
C167	C	-0.418308	0.499976	0.271861
C168	C	-0.168308	0.749976	0.521861
C169	C	-0.919709	-0.000026	-0.149195
C170	C	-0.669709	0.249974	0.100805
C171	C	-0.419709	0.499974	0.350805
C172	C	-0.169709	0.749974	0.600805
C173	C	-0.912653	-0.000016	-0.546512
C174	C	-0.662653	0.249984	-0.296512
C175	C	-0.412653	0.499984	-0.046512
C176	C	-0.162653	0.749984	0.203488
C177	C	-0.911257	-0.000018	-0.625462
C178	C	-0.661257	0.249982	-0.375462
C179	C	-0.411257	0.499982	-0.125462
C180	C	-0.161257	0.749982	0.124538
C181	C	-1.064330	-0.000029	-0.643498
C182	C	-0.814330	0.249971	-0.393498
C183	C	-0.564330	0.499971	-0.143498
C184	C	-0.314330	0.749971	0.106502
C185	C	-1.065732	-0.000030	-0.564554
C186	C	-0.815732	0.249970	-0.314554
C187	C	-0.565732	0.499970	-0.064554
C188	C	-0.315732	0.749970	0.185446
C189	C	-0.989891	-0.000018	-0.516065
C190	C	-0.739891	0.249982	-0.266065
C191	C	-0.489891	0.499982	-0.016065
C192	C	-0.239891	0.749982	0.233935
C193	C	-0.991411	-0.000025	-0.430463
C194	C	-0.741411	0.249975	-0.180463
C195	C	-0.491411	0.499975	0.069537
C196	C	-0.241411	0.749975	0.319537
C197	C	-0.992628	-0.000031	-0.362236
C198	C	-0.742628	0.249969	-0.112236
C199	C	-0.492628	0.499969	0.137764
C200	C	-0.242628	0.749969	0.387764
C201	C	-0.985608	-0.000022	0.242025
C202	C	-0.735608	0.249978	0.492025
C203	C	-0.485608	0.499978	0.742025
C204	C	-0.235608	0.749978	0.992025
C205	C	-0.987094	-0.000016	0.326046
C206	C	-0.737094	0.249984	0.576046
C207	C	-0.487094	0.499984	0.826046
C208	C	-0.237094	0.749984	1.076046
H209	H	-0.554214	0.140253	0.037981
H210	H	-0.304214	0.390253	0.287981
H211	H	-0.054214	0.640253	0.537981
H212	H	0.195786	0.890253	0.787981
O213	O	-0.827943	-0.000005	-0.658307
O214	O	-0.577943	0.249995	-0.408307
O215	O	-0.327943	0.499995	-0.158307
O216	O	-0.077943	0.749995	0.091693
H217	H	-0.823629	-0.062870	-0.693830
H218	H	-0.573629	0.187130	-0.443830
H219	H	-0.323629	0.437130	-0.193830
H220	H	-0.073629	0.687130	0.056170
O221	O	-1.152923	-0.433291	0.134909
O222	O	-0.902923	-0.183291	0.384909
O223	O	-0.652923	0.066709	0.634909
O224	O	-0.402923	0.316709	0.884909
H225	H	-1.166353	-0.458677	0.191487
H226	H	-0.916353	-0.208677	0.441487
H227	H	-0.666353	0.041323	0.691487
H228	H	-0.416353	0.291323	0.941487
O229	O	-1.153180	-0.000058	-0.298484
O230	O	-0.903180	0.249942	-0.048484
O231	O	-0.653180	0.499942	0.201516
O232	O	-0.403180	0.749942	0.451516
H233	H	-1.207123	-0.000080	-0.264044
H234	H	-0.957123	0.249920	-0.014044
H235	H	-0.707123	0.499920	0.235956
H236	H	-0.457123	0.749920	0.485956
O237	O	-0.420410	0.161139	0.178934
O238	O	-0.170410	0.411139	0.428934
O239	O	0.079590	0.661139	0.678934
O240	O	0.329590	0.911139	0.928934
H241	H	-0.434974	0.161732	0.238765
H242	H	-0.184974	0.411732	0.488765
H243	H	0.065026	0.661732	0.738765
H244	H	0.315026	0.911732	0.988765
H245	H	-0.554208	-0.140371	0.038005
H246	H	-0.304208	0.109629	0.288005
H247	H	-0.054208	0.359629	0.538005
H248	H	0.195792	0.609629	0.788005
H249	H	-0.962285	-0.441916	-0.022553
H250	H	-0.712285	-0.191916	0.227447
H251	H	-0.462285	0.058084	0.477447
H252	H	-0.212285	0.308084	0.727447
O253	O	-1.149041	-0.000023	-0.531710
O254	O	-0.899041	0.249977	-0.281710
O255	O	-0.649041	0.499977	-0.031710
O256	O	-0.399041	0.749977	0.218290
H257	H	-1.185475	-0.062876	-0.551188
H258	H	-0.935475	0.187124	-0.301188
H259	H	-0.685475	0.437124	-0.051188
H260	H	-0.435475	0.687124	0.198812
O261	O	-0.837912	-0.000030	-0.096895
O262	O	-0.587912	0.249970	0.153105
O263	O	-0.337912	0.499970	0.403105
O264	O	-0.087912	0.749970	0.653105
H265	H	-0.834892	0.062832	-0.060504
H266	H	-0.584892	0.312832	0.189496
H267	H	-0.334892	0.562832	0.439496
H268	H	-0.084892	0.812832	0.689496
H269	H	-0.459206	-0.000122	-0.030125
H270	H	-0.209206	0.249878	0.219875
H271	H	0.040794	0.499878	0.469875
H272	H	0.290794	0.749878	0.719875
O273	O	-0.529660	-0.000134	0.257357
O274	O	-0.279660	0.249866	0.507357
O275	O	-0.029660	0.499866	0.757357
O276	O	0.220340	0.749866	1.007357
H277	H	-0.470078	-0.000767	0.296543
H278	H	-0.220078	0.249233	0.546543
H279	H	0.029922	0.499233	0.796543
H280	H	0.279922	0.749233	1.046543
H281	H	-0.852020	-0.558126	0.076571
H282	H	-0.602020	-0.308126	0.326571
H283	H	-0.352020	-0.058126	0.576571
H284	H	-0.102020	0.191874	0.826571
O285	O	-1.146136	-0.000034	-0.695796
O286	O	-0.896136	0.249966	-0.445796
O287	O	-0.646136	0.499966	-0.195796
O288	O	-0.396136	0.749966	0.054204
H289	H	-1.132191	-0.000022	-0.755808
H290	H	-0.882191	0.249978	-0.505808
H291	H	-0.632191	0.499978	-0.255808
H292	H	-0.382191	0.749978	-0.005808
H293	H	-0.850898	-0.000007	-0.507041
H294	H	-0.600898	0.249993	-0.257041
H295	H	-0.350898	0.499993	-0.007041
H296	H	-0.100898	0.749993	0.242959
O297	O	-0.420583	-0.161403	0.178958
O298	O	-0.170583	0.088597	0.428958
O299	O	0.079417	0.338597	0.678958
O300	O	0.329417	0.588597	0.928958
H301	H	-0.374606	-0.140113	0.227756
H302	H	-0.124606	0.109887	0.477756
H303	H	0.125394	0.359887	0.727756
H304	H	0.375394	0.609887	0.977756
H305	H	-1.021737	-0.558128	0.229906
H306	H	-0.771737	-0.308128	0.479906
H307	H	-0.521737	-0.058128	0.729906
H308	H	-0.271737	0.191872	0.979906
H309	H	-0.881752	-0.442051	0.202844
H310	H	-0.631752	-0.192051	0.452844
H311	H	-0.381752	0.057949	0.702844
H312	H	-0.131752	0.307949	0.952844
H313	H	-1.102461	-0.557816	0.004489
H314	H	-0.852461	-0.307816	0.254489
H315	H	-0.602461	-0.057816	0.504489
H316	H	-0.352461	0.192184	0.754489
O317	O	-0.834997	-0.000027	-0.260980
O318	O	-0.584997	0.249973	-0.010980
O319	O	-0.334997	0.499973	0.239020
O320	O	-0.084997	0.749973	0.489020
H321	H	-0.846761	-0.000040	-0.324022
H322	H	-0.596761	0.249960	-0.074022
H323	H	-0.346761	0.499960	0.175978
H324	H	-0.096761	0.749960	0.425978
H325	H	-1.135684	-0.000057	-0.142446
H326	H	-0.885684	0.249943	0.107554
H327	H	-0.635684	0.499943	0.357554
H328	H	-0.385684	0.749943	0.607554
