data_functionalizedCrystal
_audit_creation_method	'MofGen! by Chris Wilmer'
_symmetry_space_group_name_H-M	'P1'
_symmetry_Int_Tables_number	1
_symmetry_cell_setting	triclinic
loop_
_symmetry_equiv_pos_as_xyz
  x,y,z
_cell_length_a	19.188905
_cell_length_b	27.731996
_cell_length_c	18.266242
_cell_angle_alpha	89.987663
_cell_angle_beta	89.983837
_cell_angle_gamma	82.877971
loop_
_atom_site_label
_atom_site_type_symbol
_atom_site_fract_x
_atom_site_fract_y
_atom_site_fract_z
O1	O	0.925760	0.060292	-0.061011
O2	O	1.425760	0.560292	0.438989
O3	O	0.722392	0.068428	-0.060987
O4	O	1.222392	0.568428	0.439013
O5	O	0.830411	-0.006019	-0.060984
O6	O	1.330411	0.493981	0.439016
O7	O	0.817741	0.134740	-0.061014
O8	O	1.317741	0.634740	0.438986
O9	O	0.830393	-0.006023	0.060778
O10	O	1.330393	0.493977	0.560778
O11	O	0.722374	0.068425	0.060775
O12	O	1.222374	0.568425	0.560775
O13	O	0.925741	0.060288	0.060751
O14	O	1.425741	0.560288	0.560751
Zn15	Zn	0.824055	0.064356	0.080095
Zn16	Zn	1.324055	0.564356	0.580095
Zn17	Zn	0.824079	0.064361	-0.080331
Zn18	Zn	1.324079	0.564361	0.419669
O19	O	0.817722	0.134736	0.060748
O20	O	1.317722	0.634736	0.560748
C21	C	0.696373	0.068165	-0.000103
C22	C	1.196373	0.568165	0.499897
C23	C	0.618873	0.067380	-0.000093
C24	C	1.118873	0.567380	0.499907
C25	C	0.830141	-0.024029	-0.000101
C26	C	1.330141	0.475971	0.499899
C27	C	0.829357	-0.077688	-0.000093
C28	C	1.329357	0.422312	0.499907
C29	C	0.582493	0.067005	-0.066468
C30	C	1.082493	0.567005	0.433532
C31	C	0.509675	0.066262	-0.066476
C32	C	1.009675	0.566262	0.433524
C33	C	0.473240	0.065885	-0.000107
C34	C	0.973240	0.565885	0.499893
C35	C	0.509628	0.066262	0.066276
C36	C	1.009628	0.566262	0.566276
C37	C	0.582444	0.067010	0.066283
C38	C	1.082444	0.567010	0.566283
N39	N	0.364403	0.037201	0.049291
N40	N	0.864403	0.537201	0.549291
N41	N	0.295231	0.036490	0.049280
N42	N	0.795231	0.536490	0.549280
C43	C	0.253848	0.063633	-0.000125
C44	C	0.753848	0.563633	0.499875
N45	N	0.284253	0.091508	-0.049528
N46	N	0.784253	0.591508	0.450472
N47	N	0.353432	0.092218	-0.049519
N48	N	0.853432	0.592218	0.450481
C49	C	0.394283	0.065074	-0.000108
C50	C	0.894283	0.565074	0.499892
C51	C	0.138511	0.062453	-0.066513
C52	C	0.638511	0.562453	0.433487
C53	C	0.065690	0.061713	-0.066519
C54	C	0.565690	0.561713	0.433481
C55	C	0.065645	0.061708	0.066235
C56	C	0.565645	0.561708	0.566235
C57	C	0.138464	0.062453	0.066239
C58	C	0.638464	0.562453	0.566239
C59	C	0.174892	0.062823	-0.000137
C60	C	0.674892	0.562823	0.499863
C61	C	0.824435	-0.410417	-0.066501
C62	C	1.324435	0.089583	0.433499
C63	C	0.821458	-0.612084	-0.066513
C64	C	1.321458	-0.112084	0.433487
O65	O	0.821051	-0.638154	-0.122961
O66	O	1.321051	-0.138154	0.377039
N67	N	0.821078	-0.637305	-0.000141
N68	N	1.321078	-0.137305	0.499859
C69	C	0.821438	-0.612105	0.066238
C70	C	1.321438	-0.112105	0.566238
O71	O	0.821040	-0.638183	0.122692
O72	O	1.321040	-0.138183	0.622692
C73	C	0.824410	-0.410438	0.066250
C74	C	1.324410	0.089562	0.566250
C75	C	0.824797	-0.385221	-0.000126
C76	C	1.324797	0.114779	0.499874
C77	C	0.824821	-0.385200	-0.132871
C78	C	1.324821	0.114800	0.367129
C79	C	0.825569	-0.334786	-0.132868
C80	C	1.325569	0.165214	0.367132
C81	C	0.825931	-0.309590	-0.066493
C82	C	1.325931	0.190410	0.433507
C83	C	0.825545	-0.334807	-0.000122
C84	C	1.325545	0.165193	0.499878
C85	C	0.824765	-0.385238	0.132629
C86	C	1.324765	0.114762	0.632629
C87	C	0.825507	-0.334818	0.132626
C88	C	1.325507	0.165182	0.632626
C89	C	0.825893	-0.309601	0.066250
C90	C	1.325893	0.190399	0.566250
C91	C	0.826655	-0.259198	0.066256
C92	C	1.326655	0.240802	0.566256
N93	N	0.827035	-0.233977	-0.000116
N94	N	1.327035	0.266023	0.499884
C95	C	0.826673	-0.259174	-0.066490
C96	C	1.326673	0.240826	0.433510
C97	C	0.819880	-0.717983	0.066228
C98	C	1.319880	-0.217983	0.566228
C99	C	0.819138	-0.768399	0.066225
C100	C	1.319138	-0.268399	0.566225
C101	C	0.819156	-0.768375	-0.066527
C102	C	1.319156	-0.268375	0.433473
C103	C	0.819903	-0.717958	-0.066524
C104	C	1.319903	-0.217958	0.433476
C105	C	0.820259	-0.692762	-0.000144
C106	C	1.320259	-0.192762	0.499856
C107	C	0.828244	-0.153302	-0.066477
C108	C	1.328244	0.346698	0.433523
C109	C	0.828995	-0.102884	-0.066468
C110	C	1.328995	0.397116	0.433532
C111	C	0.828973	-0.102912	0.066284
C112	C	1.328973	0.397088	0.566284
C113	C	0.828226	-0.153326	0.066275
C114	C	1.328226	0.346674	0.566275
C115	C	0.827859	-0.178519	-0.000112
C116	C	1.327859	0.321481	0.499888
O117	O	0.827054	-0.233096	0.122674
O118	O	1.327054	0.266904	0.622674
O119	O	0.827056	-0.233085	-0.122935
O120	O	1.327056	0.266915	0.377065
C121	C	0.823687	-0.460830	-0.066504
C122	C	1.323687	0.039170	0.433496
C123	C	0.823301	-0.486048	-0.000134
C124	C	1.323301	0.013952	0.499866
C125	C	0.823663	-0.460851	0.066241
C126	C	1.323663	0.039149	0.566241
C127	C	0.822559	-0.536464	-0.000136
C128	C	1.322559	-0.036464	0.499864
C129	C	0.822197	-0.561660	-0.066511
C130	C	1.322197	-0.061660	0.433489
C131	C	0.822577	-0.536440	-0.132883
C132	C	1.322577	-0.036440	0.367117
C133	C	0.823325	-0.486027	-0.132879
C134	C	1.323325	0.013973	0.367121
C135	C	0.823284	-0.486072	0.132613
C136	C	1.323284	0.013928	0.632613
C137	C	0.822536	-0.536485	0.132604
C138	C	1.322536	-0.036485	0.632604
C139	C	0.822174	-0.561681	0.066229
C140	C	1.322174	-0.061681	0.566229
C141	C	0.951760	0.060551	-0.000135
C142	C	1.451760	0.560551	0.499865
C143	C	1.029260	0.061336	-0.000149
C144	C	1.529260	0.561336	0.499851
C145	C	0.817992	0.152746	-0.000137
C146	C	1.317992	0.652746	0.499863
C147	C	0.818776	0.206405	-0.000150
C148	C	1.318776	0.706405	0.499850
N149	N	0.824043	0.064352	0.189582
N150	N	1.324043	0.564352	0.689582
N151	N	0.824095	0.064361	-0.189818
N152	N	1.324095	0.564361	0.310182
C153	C	0.871890	0.031403	0.227892
C154	C	1.371890	0.531403	0.727892
C155	C	0.871894	0.031400	0.304537
C156	C	1.371894	0.531400	0.804537
C157	C	0.824059	0.064356	0.342869
C158	C	1.324059	0.564356	0.842869
C159	C	0.776204	0.097308	0.304549
C160	C	1.276204	0.597308	0.804549
C161	C	0.776196	0.097306	0.227906
C162	C	1.276196	0.597306	0.727906
N163	N	0.814699	0.107148	0.463193
N164	N	1.314699	0.607148	0.963193
N165	N	0.814710	0.107148	0.536001
N166	N	1.314710	0.607148	1.036001
C167	C	0.824078	0.064363	0.573791
C168	C	1.324078	0.564363	1.073791
N169	N	0.833448	0.021576	0.536023
N170	N	1.333448	0.521576	1.036023
N171	N	0.833440	0.021576	0.463208
N172	N	1.333440	0.521576	0.963208
C173	C	0.824062	0.064361	0.425976
C174	C	1.324062	0.564361	0.925976
C175	C	0.871932	0.031408	0.695209
C176	C	1.371932	0.531408	1.195209
C177	C	0.871932	0.031405	0.771855
C178	C	1.371932	0.531405	1.271855
C179	C	0.776245	0.097317	0.771866
C180	C	1.276245	0.597317	1.271866
C181	C	0.776242	0.097316	0.695221
C182	C	1.276242	0.597316	1.195221
C183	C	0.824089	0.064362	0.656897
C184	C	1.324089	0.564362	1.156897
H185	H	0.480049	0.065958	-0.120528
H186	H	0.980049	0.565958	0.379472
O187	O	0.173912	0.062832	0.130651
O188	O	0.673912	0.562832	0.630651
C189	C	0.245996	0.063558	0.116426
C190	C	0.745996	0.563558	0.616426
H191	H	0.252898	0.078965	0.059382
H192	H	0.752898	0.578965	0.559382
H193	H	0.268959	0.087301	0.158816
H194	H	0.768959	0.587301	0.658816
H195	H	0.274421	0.024998	0.119577
H196	H	0.774421	0.524998	0.619577
O197	O	0.822034	-0.560941	0.197109
O198	O	1.322034	-0.060941	0.697109
C199	C	0.761722	-0.542996	0.237488
C200	C	1.261722	-0.042996	0.737488
H201	H	0.719661	-0.525212	0.198643
H202	H	1.219661	-0.025212	0.698643
H203	H	0.740911	-0.574265	0.267604
H204	H	1.240911	-0.074265	0.767604
H205	H	0.775824	-0.515001	0.278866
H206	H	1.275824	-0.015001	0.778866
H207	H	0.737254	0.124140	0.335763
H208	H	1.237254	0.624140	0.835763
O209	O	0.818740	-0.792815	0.130768
O210	O	1.318740	-0.292815	0.630768
C211	C	0.819235	-0.759760	0.189347
C212	C	1.319235	-0.259760	0.689347
H213	H	0.797655	-0.721770	0.169886
H214	H	1.297655	-0.221770	0.669886
H215	H	0.785102	-0.771186	0.235774
H216	H	1.285102	-0.271186	0.735774
H217	H	0.875347	-0.759596	0.209751
H218	H	1.375347	-0.259596	0.709751
O219	O	0.824355	-0.409648	0.197174
O220	O	1.324355	0.090352	0.697174
C221	C	0.824846	-0.376589	0.255748
C222	C	1.324846	0.123411	0.755748
H223	H	0.803272	-0.338599	0.236279
H224	H	1.303272	0.161401	0.736279
H225	H	0.790705	-0.388010	0.302172
H226	H	1.290705	0.111990	0.802172
H227	H	0.880955	-0.376427	0.276159
H228	H	1.380955	0.123573	0.776159
O229	O	0.729787	0.129384	0.190722
O230	O	1.229787	0.629384	0.690722
C231	C	0.740594	0.177216	0.209444
C232	C	1.240594	0.677216	0.709444
H233	H	0.796490	0.177353	0.230494
H234	H	1.296490	0.677353	0.730494
H235	H	0.732290	0.201490	0.159036
H236	H	1.232290	0.701490	0.659036
H237	H	0.701739	0.191482	0.253942
H238	H	1.201739	0.691482	0.753942
O239	O	0.822096	-0.560934	-0.197338
O240	O	1.322096	-0.060934	0.302662
C241	C	0.761178	-0.584493	-0.201278
C242	C	1.261178	-0.084493	0.298722
H243	H	0.719122	-0.565375	-0.163608
H244	H	1.219122	-0.065375	0.336392
H245	H	0.740866	-0.583182	-0.259977
H246	H	1.240866	-0.083182	0.240023
H247	H	0.774285	-0.623970	-0.183434
H248	H	1.274285	-0.123970	0.316566
O249	O	0.474253	0.065980	0.130766
O250	O	0.974253	0.565980	0.630766
C251	C	0.483661	0.108011	0.171146
C252	C	0.983661	0.608011	0.671146
H253	H	0.497831	0.137473	0.132306
H254	H	0.997831	0.637473	0.632306
H255	H	0.432949	0.121566	0.201246
H256	H	0.932949	0.621566	0.701246
H257	H	0.527808	0.098983	0.212539
H258	H	1.027808	0.598983	0.712539
O259	O	0.918481	-0.000621	0.808959
O260	O	1.418481	0.499379	1.308959
C261	C	0.960697	-0.029712	0.758694
C262	C	1.460697	0.470288	1.258694
H263	H	0.961256	-0.009895	0.704052
H264	H	1.461256	0.490105	1.204052
H265	H	1.016539	-0.037180	0.780820
H266	H	1.516539	0.462820	1.280820
H267	H	0.938435	-0.065585	0.750564
H268	H	1.438435	0.434415	1.250564
O269	O	0.827826	-0.177748	0.130816
O270	O	1.327826	0.322252	0.630816
C271	C	0.828329	-0.144697	0.189400
C272	C	1.328329	0.355303	0.689400
H273	H	0.806757	-0.106704	0.169944
H274	H	1.306757	0.393296	0.669944
H275	H	0.794192	-0.156122	0.235825
H276	H	1.294192	0.343878	0.735825
H277	H	0.884442	-0.144540	0.209804
H278	H	1.384442	0.355460	0.709804
O279	O	0.617773	0.067285	0.130781
O280	O	1.117773	0.567285	0.630781
C281	C	0.608329	0.025252	0.171175
C282	C	1.108329	0.525252	0.671175
H283	H	0.594181	-0.004206	0.132343
H284	H	1.094181	0.495794	0.632343
H285	H	0.659019	0.011691	0.201290
H286	H	1.159019	0.511691	0.701290
H287	H	0.564154	0.034282	0.212557
H288	H	1.064154	0.534282	0.712557
H289	H	0.035981	0.061404	0.120274
H290	H	0.535981	0.561404	0.620274
H291	H	0.910858	0.004568	0.335735
H292	H	1.410858	0.504568	0.835735
O293	O	0.918172	-0.000760	0.190697
O294	O	1.418172	0.499240	0.690697
C295	C	0.880935	-0.030512	0.146566
C296	C	1.380935	0.469488	0.646566
H297	H	0.826178	-0.011045	0.134990
H298	H	1.326178	0.488955	0.634990
H299	H	0.910150	-0.038421	0.092705
H300	H	1.410150	0.461579	0.592705
H301	H	0.876365	-0.066127	0.176316
H302	H	1.376365	0.433873	0.676316
H303	H	0.829312	-0.082355	-0.120521
H304	H	1.329312	0.417645	0.379479
H305	H	0.612149	0.067307	-0.120516
H306	H	1.112149	0.567307	0.379484
H307	H	0.824524	-0.405709	-0.186925
H308	H	1.324524	0.094291	0.313075
O309	O	0.729680	0.129283	0.809058
O310	O	1.229680	0.629283	1.309058
C311	C	0.660653	0.121554	0.790345
C312	C	1.160653	0.621554	1.290345
H313	H	0.660742	0.082852	0.769291
H314	H	1.160742	0.582852	1.269291
H315	H	0.625555	0.127178	0.840759
H316	H	1.125555	0.627178	1.340759
H317	H	0.639845	0.148383	0.745853
H318	H	1.139845	0.648383	1.245853
O319	O	0.173789	0.062842	-0.131053
O320	O	0.673789	0.562842	0.368947
C321	C	0.126061	0.062347	-0.189641
C322	C	0.626061	0.562347	0.310359
H323	H	0.071084	0.077112	-0.170187
H324	H	0.571084	0.577112	0.329813
H325	H	0.142417	0.086032	-0.236061
H326	H	0.642417	0.586032	0.263939
H327	H	0.126088	0.023498	-0.210050
H328	H	0.626088	0.523498	0.289950
O329	O	0.030284	0.061284	-0.130952
O330	O	0.530284	0.561284	0.369048
C331	C	-0.003443	0.018993	-0.134921
C332	C	0.496557	0.518993	0.365079
H333	H	-0.011578	0.004928	-0.077289
H334	H	0.488422	0.504928	0.422711
H335	H	-0.056523	0.027882	-0.163020
H336	H	0.443477	0.527882	0.336980
H337	H	0.030498	-0.010030	-0.167665
H338	H	0.530498	0.489970	0.332335
O339	O	0.827908	-0.177697	-0.131029
O340	O	1.327908	0.322303	0.368971
C341	C	0.828385	-0.144618	-0.189601
C342	C	1.328385	0.355382	0.310399
H343	H	0.851039	-0.110740	-0.170138
H344	H	1.351039	0.389260	0.329862
H345	H	0.862074	-0.162320	-0.236040
H346	H	1.362074	0.337680	0.263960
H347	H	0.772428	-0.134047	-0.209990
H348	H	1.272428	0.365953	0.290010
H349	H	0.910890	0.004574	0.664004
H350	H	1.410890	0.504574	1.164004
O351	O	0.729837	0.129395	0.658037
O352	O	1.229837	0.629395	1.158037
C353	C	0.740647	0.177226	0.676759
C354	C	1.240647	0.677226	1.176759
H355	H	0.796545	0.177362	0.697804
H356	H	1.296545	0.677362	1.197804
H357	H	0.732341	0.201501	0.626350
H358	H	1.232341	0.701501	1.126350
H359	H	0.701796	0.191493	0.721258
H360	H	1.201796	0.691493	1.221258
O361	O	0.823516	-0.461569	0.197075
O362	O	1.323516	0.038431	0.697075
C363	C	0.763467	-0.426785	0.201063
C364	C	1.263467	0.073215	0.701063
H365	H	0.720961	-0.438042	0.163401
H366	H	1.220961	0.061958	0.663401
H367	H	0.743167	-0.424346	0.259773
H368	H	1.243167	0.075654	0.759773
H369	H	0.777714	-0.389840	0.183242
H370	H	1.277714	0.110160	0.683242
H371	H	0.825881	-0.314259	-0.186918
H372	H	1.325881	0.185741	0.313082
H373	H	0.818862	-0.788899	-0.120572
H374	H	1.318862	-0.288899	0.379428
O375	O	0.820241	-0.693536	-0.131066
O376	O	1.320241	-0.193536	0.368934
C377	C	0.819783	-0.726594	-0.189645
C378	C	1.319783	-0.226594	0.310355
H379	H	0.797141	-0.760485	-0.170180
H380	H	1.297141	-0.260485	0.329820
H381	H	0.786093	-0.708880	-0.236066
H382	H	1.286093	-0.208880	0.263934
H383	H	0.875744	-0.737148	-0.210059
H384	H	1.375744	-0.237148	0.289941
H385	H	0.820173	-0.697473	0.120285
H386	H	1.320173	-0.197473	0.620285
H387	H	0.829271	-0.082389	0.120324
H388	H	1.329271	0.417611	0.620324
O389	O	0.825947	-0.310302	0.197065
O390	O	1.325947	0.189698	0.697065
C391	C	0.886879	-0.286761	0.201054
C392	C	1.386879	0.213239	0.701054
H393	H	0.907172	-0.281063	0.143427
H394	H	1.407172	0.218937	0.643427
H395	H	0.873791	-0.250053	0.229157
H396	H	1.373791	0.249947	0.729157
H397	H	0.928943	-0.310128	0.233802
H398	H	1.428943	0.189872	0.733802
O399	O	0.823664	-0.461606	-0.197423
O400	O	1.323664	0.038394	0.302577
C401	C	0.823201	-0.494666	-0.255999
C402	C	1.323201	0.005334	0.244001
H403	H	0.800555	-0.528555	-0.236530
H404	H	1.300555	-0.028555	0.263470
H405	H	0.789511	-0.476952	-0.302420
H406	H	1.289511	0.023048	0.197580
H407	H	0.879160	-0.505223	-0.276414
H408	H	1.379160	-0.005223	0.223586
