data_functionalizedCrystal
_audit_creation_method	'MofGen! by Chris Wilmer'
_symmetry_space_group_name_H-M	'P1'
_symmetry_Int_Tables_number	1
_symmetry_cell_setting	triclinic
loop_
_symmetry_equiv_pos_as_xyz
  x,y,z
_cell_length_a	18.050591
_cell_length_b	29.839131
_cell_length_c	18.050582
_cell_angle_alpha	90.025477
_cell_angle_beta	90.020922
_cell_angle_gamma	90.037426
loop_
_atom_site_label
_atom_site_type_symbol
_atom_site_fract_x
_atom_site_fract_y
_atom_site_fract_z
Zn1	Zn	1.135224	-0.178930	0.420016
Zn2	Zn	1.635224	0.321070	0.920016
Zn3	Zn	1.135106	-0.254052	0.295820
Zn4	Zn	1.635106	0.245948	0.795820
Zn5	Zn	1.011044	-0.178932	0.295827
Zn6	Zn	1.511044	0.321068	0.795827
Zn7	Zn	1.010963	-0.254028	0.419956
Zn8	Zn	1.510963	0.245972	0.919956
O9	O	1.073084	-0.216485	0.357905
O10	O	1.573084	0.283515	0.857905
O11	O	1.239133	-0.188904	0.403564
O12	O	1.739133	0.311096	0.903564
O13	O	1.118634	-0.244098	0.191896
O14	O	1.618634	0.255902	0.691896
O15	O	1.027600	-0.116064	0.312330
O16	O	1.527600	0.383936	0.812330
O17	O	1.239047	-0.244096	0.312317
O18	O	1.739047	0.255904	0.812317
O19	O	1.118835	-0.116063	0.403571
O20	O	1.618835	0.383937	0.903571
O21	O	1.027485	-0.188907	0.191902
O22	O	1.527485	0.311093	0.691902
O23	O	0.907108	-0.188884	0.312271
O24	O	1.407108	0.311116	0.812271
O25	O	1.027462	-0.244056	0.523888
O26	O	1.527462	0.255944	1.023888
O27	O	0.907049	-0.244057	0.403467
O28	O	1.407049	0.255943	0.903467
O29	O	1.118756	-0.188881	0.523933
O30	O	1.618756	0.311119	1.023933
O31	O	1.118555	-0.316916	0.312258
O32	O	1.618555	0.183084	0.812258
O33	O	1.027348	-0.316898	0.403460
O34	O	1.527348	0.183102	0.903460
C35	C	0.880132	-0.216469	0.357864
C36	C	1.380132	0.283531	0.857864
C37	C	0.797586	-0.216472	0.357864
C38	C	1.297586	0.283528	0.857864
C39	C	0.598146	-0.186434	0.308386
C40	C	1.098146	0.313566	0.808386
C41	C	0.548711	-0.227410	0.290106
C42	C	1.048711	0.272590	0.790106
C43	C	0.646456	-0.216486	0.357897
C44	C	1.146456	0.283514	0.857897
C45	C	0.548810	-0.175525	0.376175
C46	C	1.048810	0.324475	0.876175
C47	C	0.500471	-0.216495	0.357928
C48	C	1.000471	0.283505	0.857928
C49	C	0.598108	-0.257483	0.339583
C50	C	1.098108	0.242517	0.839583
C51	C	0.598211	-0.205570	0.425683
C52	C	1.098211	0.294430	0.925683
C53	C	0.548798	-0.246574	0.407429
C54	C	1.048798	0.253426	0.907429
C55	C	0.730554	-0.216480	0.357878
C56	C	1.230554	0.283520	0.857878
C57	C	0.416374	-0.216506	0.357948
C58	C	0.916374	0.283494	0.857948
C59	C	1.072950	-0.333208	0.357868
C60	C	1.572950	0.166792	0.857868
C61	C	1.072961	-0.383142	0.357877
C62	C	1.572961	0.116858	0.857877
C63	C	1.120663	-0.692782	0.310485
C64	C	1.620663	-0.192782	0.810485
C65	C	1.120754	-0.880455	0.310514
C66	C	1.620754	-0.380455	0.810514
O67	O	1.161206	-0.904717	0.270192
O68	O	1.661206	-0.404717	0.770192
N69	N	1.073238	-0.903927	0.357961
N70	N	1.573238	-0.403927	0.857961
C71	C	1.025700	-0.880478	0.405407
C72	C	1.525700	-0.380478	0.905407
O73	O	0.985292	-0.904749	0.445769
O74	O	1.485292	-0.404749	0.945769
C75	C	1.025612	-0.692806	0.405381
C76	C	1.525612	-0.192806	0.905381
C77	C	1.073126	-0.669337	0.357926
C78	C	1.573126	-0.169337	0.857926
C79	C	1.168173	-0.669312	0.263035
C80	C	1.668173	-0.169312	0.763035
C81	C	1.168147	-0.622397	0.263025
C82	C	1.668147	-0.122397	0.763025
C83	C	1.120610	-0.598951	0.310466
C84	C	1.620610	-0.098951	0.810466
C85	C	1.073100	-0.622421	0.357917
C86	C	1.573100	-0.122421	0.857917
C87	C	0.978078	-0.669358	0.452831
C88	C	1.478078	-0.169358	0.952831
C89	C	0.978062	-0.622437	0.452822
C90	C	1.478062	-0.122437	0.952822
C91	C	1.025575	-0.598967	0.405367
C92	C	1.525575	-0.098967	0.905367
C93	C	1.025537	-0.552060	0.405348
C94	C	1.525537	-0.052060	0.905348
N95	N	1.073053	-0.528588	0.357902
N96	N	1.573053	-0.028588	0.857902
C97	C	1.120589	-0.552033	0.310461
C98	C	1.620589	-0.052033	0.810461
C99	C	1.025748	-0.979009	0.405416
C100	C	1.525748	-0.479009	0.905416
C101	C	1.025769	-1.025927	0.405422
C102	C	1.525769	-0.525927	0.905422
C103	C	1.120824	-1.025900	0.310530
C104	C	1.620824	-0.525900	0.810530
C105	C	1.120799	-0.978982	0.310521
C106	C	1.620799	-0.478982	0.810521
C107	C	1.073264	-0.955537	0.357970
C108	C	1.573264	-0.455537	0.857970
C109	C	1.120530	-0.453508	0.310444
C110	C	1.620530	0.046492	0.810444
C111	C	1.120497	-0.406588	0.310436
C112	C	1.620497	0.093412	0.810436
C113	C	1.025445	-0.406619	0.405331
C114	C	1.525445	0.093381	0.905331
C115	C	1.025474	-0.453534	0.405336
C116	C	1.525474	0.046466	0.905336
C117	C	1.073023	-0.476977	0.357890
C118	C	1.573023	0.023023	0.857890
O119	O	0.985113	-0.527769	0.445655
O120	O	1.485113	-0.027769	0.945655
O121	O	1.161002	-0.527755	0.270116
O122	O	1.661002	-0.027755	0.770116
C123	C	1.120689	-0.739698	0.310495
C124	C	1.620689	-0.239698	0.810495
C125	C	1.073178	-0.763167	0.357946
C126	C	1.573178	-0.263167	0.857946
C127	C	1.025642	-0.739722	0.405387
C128	C	1.525642	-0.239722	0.905387
C129	C	1.073199	-0.810085	0.357951
C130	C	1.573199	-0.310085	0.857951
C131	C	1.120736	-0.833531	0.310510
C132	C	1.620736	-0.333531	0.810510
C133	C	1.168252	-0.810059	0.263064
C134	C	1.668252	-0.310059	0.763064
C135	C	1.168225	-0.763143	0.263054
C136	C	1.668225	-0.263143	0.763054
C137	C	0.978126	-0.763194	0.452833
C138	C	1.478126	-0.263194	0.952833
C139	C	0.978155	-0.810109	0.452838
C140	C	1.478155	-0.310109	0.952838
C141	C	1.025692	-0.833555	0.405397
C142	C	1.525692	-0.333555	0.905397
C143	C	1.266790	-0.216502	0.357947
C144	C	1.766790	0.283498	0.857947
C145	C	1.349336	-0.216510	0.357964
C146	C	1.849336	0.283490	0.857964
C147	C	1.073113	-0.216465	0.551611
C148	C	1.573113	0.283535	1.051611
C149	C	1.073126	-0.216457	0.634156
C150	C	1.573126	0.283543	1.134156
C151	C	1.073239	-0.099307	0.357958
C152	C	1.573239	0.400693	0.857958
C153	C	1.073305	-0.049373	0.357981
C154	C	1.573305	0.450627	0.857981
C155	C	1.073098	-0.216473	0.164953
C156	C	1.573098	0.283527	0.664953
C157	C	1.073230	-0.216355	0.082407
C158	C	1.573230	0.283645	0.582407
C159	C	1.023518	-0.246420	0.833583
C160	C	1.523518	0.253580	1.333583
C161	C	1.091269	-0.257404	0.882980
C162	C	1.591269	0.242596	1.382980
C163	C	1.073162	-0.216423	0.785287
C164	C	1.573162	0.283577	1.285287
C165	C	1.005449	-0.205426	0.882971
C166	C	1.505449	0.294574	1.382971
C167	C	1.073192	-0.216390	0.931272
C168	C	1.573192	0.283610	1.431272
C169	C	1.140949	-0.227429	0.833597
C170	C	1.640949	0.272571	1.333597
C171	C	1.055083	-0.175431	0.833584
C172	C	1.555083	0.324569	1.333584
C173	C	1.122881	-0.186400	0.882959
C174	C	1.622881	0.313600	1.382959
C175	C	1.073145	-0.216442	0.701189
C176	C	1.573145	0.283558	1.201189
C177	C	1.073218	-0.216371	1.015369
C178	C	1.573218	0.283629	1.515369
H179	H	0.619673	-0.292138	0.324073
H180	H	1.119673	0.207862	0.824073
C181	C	1.035268	-0.129095	0.726695
C182	C	1.535268	0.370905	1.226695
C183	C	1.034393	-0.128666	0.804260
C184	C	1.534393	0.371334	1.304260
H185	H	1.022493	-0.100224	0.708592
H186	H	1.522493	0.399776	1.208592
H187	H	1.000483	-0.150487	0.709060
H188	H	1.500483	0.349513	1.209060
H189	H	1.083427	-0.136859	0.709830
H190	H	1.583427	0.363141	1.209830
H191	H	0.986233	-0.120906	0.821125
H192	H	1.486233	0.379094	1.321125
H193	H	1.069179	-0.107268	0.821901
H194	H	1.569179	0.392732	1.321901
C195	C	0.986029	-0.323596	0.829246
C196	C	1.486029	0.176404	1.329246
C197	C	0.966897	-0.280707	0.804308
C198	C	1.466897	0.219293	1.304308
H199	H	0.951078	-0.344763	0.811168
H200	H	1.451078	0.155237	1.311168
H201	H	0.985962	-0.324006	0.881861
H202	H	1.485962	0.175994	1.381861
H203	H	1.034021	-0.331107	0.811610
H204	H	1.534021	0.168893	1.311610
H205	H	0.918907	-0.273195	0.821949
H206	H	1.418907	0.226805	1.321949
H207	H	0.966957	-0.280295	0.751682
H208	H	1.466957	0.219705	1.251682
C209	C	1.178525	-0.569668	0.163118
C210	C	1.678525	-0.069668	0.663118
C211	C	1.220383	-0.596605	0.210865
C212	C	1.720383	-0.096605	0.710865
H213	H	1.210778	-0.553750	0.130913
H214	H	1.710778	-0.053750	0.630913
H215	H	1.150222	-0.548985	0.191364
H216	H	1.650222	-0.048985	0.691364
H217	H	1.146195	-0.588003	0.134684
H218	H	1.646195	-0.088003	0.634684
H219	H	1.252709	-0.578270	0.239303
H220	H	1.752709	-0.078270	0.739303
H221	H	1.248698	-0.617290	0.182616
H222	H	1.748698	-0.117290	0.682616
C223	C	0.545827	-0.269847	0.534712
C224	C	1.045827	0.230153	1.034712
C225	C	0.519727	-0.280925	0.463971
C226	C	1.019727	0.219075	0.963971
H227	H	0.527882	-0.291057	0.569614
H228	H	1.027882	0.208943	1.069614
H229	H	0.528851	-0.240780	0.547793
H230	H	1.028851	0.259220	1.047793
H231	H	0.598450	-0.270201	0.534705
H232	H	1.098450	0.229799	1.034705
H233	H	0.467103	-0.280568	0.463977
H234	H	0.967103	0.219432	0.963977
H235	H	0.536699	-0.310000	0.450887
H236	H	1.036699	0.190000	0.950887
C237	C	1.268166	-0.721977	0.252875
C238	C	1.768166	-0.221977	0.752875
C239	C	1.220483	-0.695060	0.210909
C240	C	1.720483	-0.195060	0.710909
H241	H	1.300477	-0.737862	0.220696
H242	H	1.800477	-0.237862	0.720696
H243	H	1.239879	-0.742688	0.281095
H244	H	1.739879	-0.242688	0.781095
H245	H	1.296488	-0.703632	0.285286
H246	H	1.796488	-0.203632	0.785286
H247	H	1.192156	-0.713405	0.178501
H248	H	1.692156	-0.213405	0.678501
H249	H	1.248772	-0.674347	0.182676
H250	H	1.748772	-0.174347	0.682676
C251	C	0.876225	-0.224362	0.887320
C252	C	1.376225	0.275638	1.387320
C253	C	0.928129	-0.192884	0.912249
C254	C	1.428129	0.307116	1.412249
H255	H	0.828490	-0.216619	0.905390
H256	H	1.328490	0.283381	1.405390
H257	H	0.889421	-0.253260	0.904962
H258	H	1.389421	0.246740	1.404962
H259	H	0.875556	-0.224548	0.834698
H260	H	1.375556	0.275452	1.334698
H261	H	0.928802	-0.192700	0.964871
H262	H	1.428802	0.307300	1.464871
H263	H	0.914930	-0.163978	0.894610
H264	H	1.414930	0.336022	1.394610
C265	C	1.143202	-0.119747	0.954735
C266	C	1.643202	0.380253	1.454735
C267	C	1.179631	-0.152131	0.912038
C268	C	1.679631	0.347869	1.412038
H269	H	1.178238	-0.098590	0.972680
H270	H	1.678238	0.401410	1.472680
H271	H	1.119277	-0.133845	0.995385
H272	H	1.619277	0.366155	1.495385
H273	H	1.107392	-0.104838	0.925090
H274	H	1.607392	0.395162	1.425090
H275	H	1.215437	-0.167042	0.941685
H276	H	1.715437	0.332958	1.441685
H277	H	1.203568	-0.138031	0.871381
H278	H	1.703568	0.361969	1.371381
H279	H	0.619814	-0.161048	0.266470
H280	H	1.119814	0.338952	0.766470
H281	H	1.159489	-0.959875	0.271880
H282	H	1.659489	-0.459875	0.771880
H283	H	1.106579	-0.292056	0.904678
H284	H	1.606579	0.207944	1.404678
H285	H	1.198243	-0.236756	0.812000
H286	H	1.698243	0.263244	1.312000
C287	C	0.878127	-0.569732	0.463044
C288	C	1.378127	-0.069732	0.963044
C289	C	0.925807	-0.596667	0.504979
C290	C	1.425807	-0.096667	1.004979
H291	H	0.845870	-0.553822	0.495245
H292	H	1.345870	-0.053822	0.995245
H293	H	0.849752	-0.588062	0.430669
H294	H	1.349752	-0.088062	0.930669
H295	H	0.906424	-0.549038	0.434788
H296	H	1.406424	-0.049038	0.934788
H297	H	0.897509	-0.617364	0.533232
H298	H	1.397509	-0.117364	1.033232
H299	H	0.954184	-0.578335	0.537368
H300	H	1.454184	-0.078335	1.037368
C301	C	1.220493	-0.506195	0.300238
C302	C	1.720493	-0.006195	0.800238
C303	C	1.172807	-0.479267	0.258295
C304	C	1.672807	0.020733	0.758295
H305	H	1.252770	-0.522093	0.268042
H306	H	1.752770	-0.022093	0.768042
H307	H	1.192206	-0.526894	0.328480
H308	H	1.692206	-0.026894	0.828480
H309	H	1.248851	-0.487857	0.332627
H310	H	1.748851	0.012143	0.832627
H311	H	1.144444	-0.497605	0.225910
H312	H	1.644444	0.002395	0.725910
H313	H	1.201097	-0.458565	0.230040
H314	H	1.701097	0.041435	0.730040
C315	C	0.544257	-0.208366	0.160960
C316	C	1.044257	0.291634	0.660960
C317	C	0.519352	-0.239883	0.212741
C318	C	1.019352	0.260117	0.712741
H319	H	0.526129	-0.216064	0.113199
H320	H	1.026129	0.283936	0.613199
H321	H	0.596871	-0.208188	0.160278
H322	H	1.096871	0.291812	0.660278
H323	H	0.526648	-0.179473	0.174282
H324	H	1.026648	0.320527	0.674282
H325	H	0.536966	-0.268777	0.199422
H326	H	1.036966	0.231223	0.699422
H327	H	0.466727	-0.240067	0.213421
H328	H	0.966727	0.259933	0.713421
H329	H	0.619970	-0.196318	0.482978
H330	H	1.119970	0.303682	0.982978
C331	C	1.163138	-1.097814	0.268495
C332	C	1.663138	-0.597814	0.768495
C333	C	1.173134	-1.051678	0.258438
C334	C	1.673134	-0.551678	0.758438
H335	H	1.195452	-1.113728	0.236359
H336	H	1.695452	-0.613728	0.736359
H337	H	1.113274	-1.105547	0.257519
H338	H	1.613274	-0.605547	0.757519
H339	H	1.173920	-1.105457	0.318429
H340	H	1.673920	-0.605457	0.818429
H341	H	1.162347	-1.044035	0.208505
H342	H	1.662347	-0.544035	0.708505
H343	H	1.223009	-1.043942	0.269409
H344	H	1.723009	-0.543942	0.769409
H345	H	0.527115	-0.140885	0.391596
H346	H	1.027115	0.359115	0.891596
H347	H	1.159189	-0.387480	0.271790
H348	H	1.659189	0.112520	0.771790
C349	C	1.015404	-1.078661	0.505317
C350	C	1.515404	-0.578661	1.005317
C351	C	0.973536	-1.051723	0.457580
C352	C	1.473536	-0.551723	0.957580
H353	H	0.983157	-1.094586	0.537517
H354	H	1.483157	-0.594586	1.037517
H355	H	1.047729	-1.060329	0.533749
H356	H	1.547729	-0.560329	1.033749
H357	H	1.043711	-1.099341	0.477057
H358	H	1.543711	-0.599341	0.977057
H359	H	0.945232	-1.031040	0.485840
H360	H	1.445232	-0.531040	0.985840
H361	H	0.941197	-1.070055	0.429145
H362	H	1.441197	-0.570055	0.929145
C363	C	1.210522	-0.881973	0.220988
C364	C	1.710522	-0.381973	0.720988
C365	C	1.220529	-0.835837	0.210940
C366	C	1.720529	-0.335837	0.710940
H367	H	1.242807	-0.897887	0.188822
H368	H	1.742807	-0.397887	0.688822
H369	H	1.160648	-0.889697	0.210045
H370	H	1.660648	-0.389697	0.710045
H371	H	1.221337	-0.889623	0.270911
H372	H	1.721337	-0.389623	0.770911
H373	H	1.209709	-0.828185	0.161018
H374	H	1.709709	-0.328185	0.661018
H375	H	1.270415	-0.828109	0.221878
H376	H	1.770415	-0.328109	0.721878
C377	C	0.931782	-0.983758	0.499204
C378	C	1.431782	-0.483758	0.999204
C379	C	0.973483	-0.953242	0.457568
C380	C	1.473483	-0.453242	0.957568
H381	H	0.899511	-0.967851	0.531393
H382	H	1.399511	-0.467851	1.031393
H383	H	0.964130	-1.002028	0.527647
H384	H	1.464130	-0.502028	1.027647
H385	H	0.903416	-1.002086	0.466805
H386	H	1.403416	-0.502086	0.966805
H387	H	1.001853	-0.934917	0.489967
H388	H	1.501853	-0.434917	0.989967
H389	H	0.941131	-0.934965	0.429122
H390	H	1.441131	-0.434965	0.929122
H391	H	0.939383	-0.688459	0.491470
H392	H	1.439383	-0.188459	0.991470
H393	H	0.986787	-0.472644	0.443980
H394	H	1.486787	0.027356	0.943980
H395	H	0.986739	-0.387522	0.443954
H396	H	1.486739	0.112478	0.943954
H397	H	1.206916	-0.744038	0.224412
H398	H	1.706916	-0.244038	0.724412
H399	H	0.939458	-0.829214	0.491481
H400	H	1.439458	-0.329214	0.991481
C401	C	0.884164	-0.767942	0.546617
C402	C	1.384164	-0.267942	1.046617
C403	C	0.925862	-0.737427	0.504978
C404	C	1.425862	-0.237427	1.004978
H405	H	0.851891	-0.752035	0.578805
H406	H	1.351891	-0.252035	1.078805
H407	H	0.916513	-0.786209	0.575063
H408	H	1.416513	-0.286209	1.075063
H409	H	0.855800	-0.786273	0.514221
H410	H	1.355800	-0.286273	1.014221
H411	H	0.954231	-0.719099	0.537374
H412	H	1.454231	-0.219099	1.037374
H413	H	0.893509	-0.719152	0.476530
H414	H	1.393509	-0.219152	0.976530
