data_functionalizedCrystal
_audit_creation_method	'MofGen! by Chris Wilmer'
_symmetry_space_group_name_H-M	'P1'
_symmetry_Int_Tables_number	1
_symmetry_cell_setting	triclinic
loop_
_symmetry_equiv_pos_as_xyz
  x,y,z
_cell_length_a	18.215407
_cell_length_b	16.959454
_cell_length_c	18.215398
_cell_angle_alpha	89.978830
_cell_angle_beta	89.980536
_cell_angle_gamma	90.020523
loop_
_atom_site_label
_atom_site_type_symbol
_atom_site_fract_x
_atom_site_fract_y
_atom_site_fract_z
Zn1	Zn	1.125094	-0.314700	-0.416138
Zn2	Zn	1.125013	-0.446879	-0.293080
Zn3	Zn	1.002027	-0.314720	-0.293085
Zn4	Zn	1.002003	-0.446841	-0.416105
O5	O	1.063534	-0.380785	-0.354602
O6	O	1.228067	-0.332241	-0.399825
O7	O	1.108676	-0.429373	-0.190097
O8	O	1.018396	-0.204106	-0.309424
O9	O	1.228008	-0.429353	-0.309416
O10	O	1.108813	-0.204092	-0.399830
O11	O	1.018318	-0.332276	-0.190100
O12	O	0.899040	-0.332239	-0.309392
O13	O	1.018354	-0.429288	-0.519094
O14	O	0.899022	-0.429308	-0.399775
O15	O	1.108789	-0.332204	-0.519118
O16	O	1.108652	-0.557485	-0.309385
O17	O	1.018276	-0.557457	-0.399770
C18	C	0.872328	-0.380772	-0.354581
C19	C	0.790529	-0.380785	-0.354589
C20	C	0.602345	-0.431408	-0.401593
C21	C	0.525486	-0.431411	-0.401602
C22	C	0.525476	-0.330176	-0.307628
C23	C	0.602333	-0.330171	-0.307623
C24	C	0.640766	-0.380791	-0.354604
C25	C	0.487050	-0.380799	-0.354618
C26	C	0.403716	-0.380802	-0.354628
C27	C	0.724105	-0.380788	-0.354596
C28	C	1.063473	-0.586151	-0.354590
C29	C	1.063514	-0.674008	-0.354609
C30	C	1.016544	-1.045499	-0.401661
C31	C	1.110729	-1.045468	-0.307618
C32	C	1.110704	-0.962922	-0.307611
C33	C	1.063597	-0.921661	-0.354629
C34	C	1.016515	-0.962945	-0.401654
C35	C	1.157779	-0.921632	-0.260582
C36	C	1.157755	-0.839081	-0.260573
C37	C	1.110651	-0.797818	-0.307595
C38	C	1.063568	-0.839107	-0.354622
C39	C	1.016461	-0.797846	-0.401640
C40	C	0.969381	-0.839134	-0.448672
C41	C	0.969411	-0.921683	-0.448676
C42	C	1.110621	-0.715269	-0.307591
C43	C	1.016432	-0.715292	-0.401634
C44	C	1.255487	-0.380799	-0.354624
C45	C	1.337286	-0.380805	-0.354633
C46	C	1.063578	-0.380740	-0.546555
C47	C	1.063596	-0.380720	-0.628354
C48	C	1.063616	-0.174617	-0.354631
C49	C	1.063651	-0.086760	-0.354643
C50	C	1.110679	-0.431181	-0.893414
C51	C	1.110668	-0.431209	-0.816556
C52	C	1.016569	-0.330107	-0.816542
C53	C	1.016577	-0.330084	-0.893400
C54	C	1.063636	-0.380620	-0.931834
C55	C	1.063617	-0.380670	-0.778118
C56	C	1.063605	-0.380700	-0.694784
C57	C	1.063648	-0.380592	-1.015173
C58	C	1.063533	-0.380773	-0.163396
C59	C	1.063657	-0.380570	-0.081597
H60	H	0.931023	-0.805530	-0.486951
H61	H	0.494174	-0.288964	-0.269376
C62	C	0.980755	-0.196271	-0.792889
C63	C	0.964845	-0.274554	-0.774297
H64	H	0.948819	-0.161975	-0.766813
H65	H	1.030197	-0.184710	-0.780300
H66	H	0.974028	-0.189034	-0.844163
H67	H	0.971578	-0.281793	-0.723023
H68	H	0.915391	-0.286119	-0.786881
C69	C	0.439025	-0.537750	-0.411667
C70	C	0.483252	-0.487051	-0.453251
H71	H	0.412949	-0.572097	-0.443556
H72	H	0.468986	-0.567936	-0.379559
H73	H	0.405138	-0.507597	-0.383691
H74	H	0.517143	-0.517204	-0.481222
H75	H	0.453289	-0.456862	-0.485371
H76	H	0.978266	-0.288910	-0.924682
H77	H	0.633635	-0.472625	-0.439850
C78	C	1.120850	-0.537564	-0.730126
C79	C	1.162380	-0.486787	-0.774326
H80	H	1.152777	-0.571880	-0.704060
H81	H	1.092833	-0.507471	-0.696237
H82	H	1.088782	-0.567786	-0.760109
H83	H	1.194444	-0.456561	-0.744342
H84	H	1.190409	-0.516883	-0.808219
H85	H	0.978074	-0.681702	-0.439924
H86	H	0.633616	-0.288947	-0.269359
H87	H	1.148997	-0.472332	-0.924705
C88	C	0.980637	-1.070875	-0.526250
C89	C	0.964798	-1.090880	-0.453357
H90	H	0.948693	-1.098896	-0.558164
H91	H	0.973874	-1.015813	-0.532966
H92	H	1.030085	-1.084361	-0.537057
H93	H	0.915351	-1.077388	-0.442549
H94	H	0.971555	-1.145954	-0.446637
C95	C	0.933499	-0.947079	-0.573263
C96	C	0.917664	-0.967070	-0.500366
H97	H	0.901554	-0.975107	-0.605171
H98	H	0.926736	-0.892019	-0.579988
H99	H	0.982947	-0.960567	-0.584069
H100	H	0.868218	-0.953577	-0.489557
H101	H	0.924421	-1.022143	-0.493637
C102	C	1.209726	-1.138267	-0.297455
C103	C	1.162477	-1.090838	-0.255920
H104	H	1.241668	-1.166279	-0.265531
H105	H	1.181689	-1.174652	-0.325468
H106	H	1.237875	-1.106032	-0.329525
H107	H	1.134324	-1.123073	-0.223853
H108	H	1.190517	-1.054449	-0.227894
H109	H	1.196126	-0.955233	-0.222297
H110	H	1.148949	-0.681656	-0.269295
C111	C	1.250864	-0.847351	-0.167620
C112	C	1.209510	-0.793701	-0.208885
H113	H	1.282820	-0.819333	-0.135716
H114	H	1.218827	-0.879581	-0.139440
H115	H	1.279000	-0.879517	-0.199722
H116	H	1.181370	-0.761539	-0.176784
H117	H	1.241551	-0.761458	-0.237068
