data_functionalizedCrystal
_audit_creation_method	'MofGen! by Chris Wilmer'
_symmetry_space_group_name_H-M	'P1'
_symmetry_Int_Tables_number	1
_symmetry_cell_setting	triclinic
loop_
_symmetry_equiv_pos_as_xyz
  x,y,z
_cell_length_a	16.974800
_cell_length_b	15.944551
_cell_length_c	15.455313
_cell_angle_alpha	92.664316
_cell_angle_beta	90.973911
_cell_angle_gamma	83.444312
loop_
_atom_site_label
_atom_site_type_symbol
_atom_site_fract_x
_atom_site_fract_y
_atom_site_fract_z
O1	O	1.049080	0.107075	0.001537
O2	O	0.819648	0.119903	-0.014576
O3	O	0.940629	-0.008771	-0.006072
O4	O	0.928099	0.235749	-0.006967
O5	O	0.933711	-0.001443	0.137704
O6	O	0.812730	0.127230	0.129200
O7	O	1.042162	0.114403	0.145313
Cu8	Cu	0.926814	0.121486	0.150384
Cu9	Cu	0.934996	0.112820	-0.019647
O10	O	0.921181	0.243077	0.136809
C11	C	0.786830	0.122944	0.055250
C12	C	0.699348	0.121081	0.049106
C13	C	0.936650	-0.036402	0.065780
C14	C	0.935090	-0.129652	0.065671
C15	C	0.654483	0.124197	0.124594
C16	C	0.572286	0.122433	0.118824
C17	C	0.534955	0.117557	0.037565
C18	C	0.579827	0.114438	-0.037929
C19	C	0.662023	0.116197	-0.032158
C20	C	0.289530	0.111864	0.011901
C21	C	0.207328	0.110108	0.006135
C22	C	0.199793	0.118101	0.162889
C23	C	0.281990	0.119865	0.168652
C24	C	0.326855	0.116741	0.093159
N25	N	0.450937	0.115756	0.031665
N26	N	0.410873	0.118536	0.099060
C27	C	0.856373	-0.344691	0.060130
C28	C	0.889516	-0.402011	0.133588
C29	C	0.932269	-0.300385	0.065466
C30	C	0.896355	-0.409219	-0.008163
C31	C	0.929539	-0.465304	0.065264
C32	C	0.965430	-0.356473	0.138983
C33	C	0.972261	-0.363678	-0.002831
C34	C	1.005458	-0.420980	0.070647
C35	C	0.933840	-0.205378	0.065583
C36	C	0.927974	-0.560309	0.065154
C37	C	1.074981	0.111361	0.075485
C38	C	1.162463	0.113225	0.081623
C39	C	0.925161	0.270708	0.064955
C40	C	0.926720	0.363957	0.065059
N41	N	0.921066	0.127580	0.269976
N42	N	0.940751	0.106719	-0.139238
C43	C	0.972480	0.072935	0.318984
C44	C	0.968140	0.077552	0.409487
C45	C	0.912388	0.136819	0.450980
C46	C	0.860968	0.191466	0.401965
C47	C	0.865305	0.186845	0.311463
C48	C	0.893668	0.156744	0.721245
C49	C	0.889336	0.161364	0.811753
C50	C	0.996508	0.047448	0.819269
C51	C	1.000843	0.042835	0.728766
C52	C	0.949420	0.097480	0.679759
N53	N	0.907952	0.141541	0.543488
N54	N	0.953853	0.092753	0.587252
H55	H	0.684870	0.128174	0.190764
C56	C	0.151101	0.121659	0.244876
C57	C	0.159938	0.196703	0.292929
C58	C	0.115088	0.200010	0.368459
H59	H	0.168989	0.074712	0.278548
H60	H	0.096787	0.119959	0.229840
H61	H	0.214241	0.198394	0.307967
H62	H	0.142045	0.243662	0.259284
H63	H	0.060774	0.198311	0.353423
H64	H	0.132980	0.153060	0.402123
H65	H	0.121072	0.250930	0.401068
H66	H	0.176936	0.106140	-0.060039
C67	C	0.857259	-0.440039	-0.091062
C68	C	0.779240	-0.401010	-0.096205
C69	C	0.743199	-0.429367	-0.172561
H70	H	0.856900	-0.499560	-0.090866
H71	H	0.886089	-0.426215	-0.139569
H72	H	0.750417	-0.414840	-0.047711
H73	H	0.779576	-0.341490	-0.096416
H74	H	0.772029	-0.415543	-0.221069
H75	H	0.742845	-0.488888	-0.172358
H76	H	0.690262	-0.402884	-0.176065
C77	C	1.032918	0.008436	0.274001
C78	C	1.019047	-0.073005	0.295146
C79	C	1.074698	-0.132456	0.253729
H80	H	1.084835	0.018350	0.292485
H81	H	1.028151	0.013430	0.213070
H82	H	1.023821	-0.077997	0.356064
H83	H	0.967141	-0.082946	0.276661
H84	H	1.069931	-0.127461	0.192798
H85	H	1.126611	-0.122534	0.272216
H86	H	1.065290	-0.187720	0.268063
H87	H	0.549427	0.110462	-0.104091
H88	H	1.007219	-0.346529	-0.060514
H89	H	0.994617	-0.333351	0.201234
H90	H	1.038373	0.002958	0.859179
C91	C	0.772433	-0.300310	0.054274
C92	C	0.775010	-0.212882	0.053669
C93	C	0.697703	-0.171972	0.048266
H94	H	0.743089	-0.313124	0.102790
H95	H	0.747593	-0.319041	0.002490
H96	H	0.799838	-0.194157	0.105447
H97	H	0.804339	-0.200043	0.005156
H98	H	0.672863	-0.190704	-0.003519
H99	H	0.668364	-0.184793	0.096783
H100	H	0.699441	-0.112650	0.047846
C101	C	0.523456	0.125935	0.200707
C102	C	0.467158	0.197337	0.201336
C103	C	0.422153	0.200578	0.276748
H104	H	0.557356	0.129136	0.249998
H105	H	0.497202	0.076497	0.202136
H106	H	0.493410	0.246762	0.199915
H107	H	0.433240	0.194151	0.152062
H108	H	0.395900	0.151140	0.278177
H109	H	0.456059	0.203777	0.326034
H110	H	0.383945	0.249019	0.277181
C111	C	0.809442	0.246278	0.258404
C112	C	0.759703	0.299187	0.314111
C113	C	0.708235	0.353955	0.265266
H114	H	0.778257	0.214259	0.220802
H115	H	0.839460	0.279573	0.225093
H116	H	0.729688	0.265896	0.347408
H117	H	0.790867	0.331225	0.351714
H118	H	0.738253	0.387250	0.231955
H119	H	0.677055	0.321928	0.227666
H120	H	0.674486	0.389865	0.303056
H121	H	0.854531	-0.419138	0.191265
C122	C	0.338091	0.108509	-0.070162
C123	C	0.287800	0.103886	-0.142557
C124	C	0.332508	0.100804	-0.218171
H125	H	0.376327	0.060096	-0.070866
H126	H	0.364289	0.157980	-0.071648
H127	H	0.261615	0.054421	-0.141071
H128	H	0.249564	0.152294	-0.141881
H129	H	0.358706	0.150275	-0.219657
H130	H	0.370742	0.052391	-0.218867
H131	H	0.298391	0.097675	-0.267300
H132	H	1.068509	-0.453991	0.075116
H133	H	1.010005	0.033056	0.449389
C134	C	0.710797	0.112645	-0.114087
C135	C	0.767058	0.041210	-0.114738
C136	C	0.811994	0.037901	-0.190205
H137	H	0.737085	0.162041	-0.115600
H138	H	0.676824	0.109445	-0.163331
H139	H	0.801027	0.044417	-0.065507
H140	H	0.740792	-0.008197	-0.113239
H141	H	0.778021	0.034701	-0.239449
H142	H	0.838277	0.087300	-0.191711
H143	H	0.850168	-0.010570	-0.190660
H144	H	1.046241	-0.005424	0.694985
C145	C	0.828711	0.225733	0.856642
C146	C	0.784587	0.272581	0.794353
C147	C	0.728727	0.331872	0.835671
H148	H	0.855267	0.262671	0.893922
H149	H	0.794183	0.197230	0.889634
H150	H	0.819111	0.301083	0.761375
H151	H	0.758014	0.235666	0.757070
H152	H	0.694199	0.303369	0.868664
H153	H	0.755290	0.368804	0.872950
H154	H	0.698778	0.363660	0.793414
H155	H	0.851798	0.201240	0.681350
C156	C	0.800517	0.255785	0.447174
C157	C	0.807737	0.248155	0.536922
C158	C	0.752071	0.307402	0.578594
H159	H	0.748596	0.245810	0.428767
H160	H	0.809791	0.311133	0.432978
H161	H	0.798457	0.192820	0.551111
H162	H	0.859647	0.258138	0.555353
H163	H	0.761346	0.362750	0.564399
H164	H	0.700154	0.297422	0.560181
H165	H	0.756968	0.302238	0.639493
H166	H	0.312379	0.123831	0.234822
