data_functionalizedCrystal
_audit_creation_method	'MofGen! by Chris Wilmer'
_symmetry_space_group_name_H-M	'P1'
_symmetry_Int_Tables_number	1
_symmetry_cell_setting	triclinic
loop_
_symmetry_equiv_pos_as_xyz
  x,y,z
_cell_length_a	16.959455
_cell_length_b	12.594516
_cell_length_c	16.959447
_cell_angle_alpha	90.025495
_cell_angle_beta	89.985678
_cell_angle_gamma	89.976322
loop_
_atom_site_label
_atom_site_type_symbol
_atom_site_fract_x
_atom_site_fract_y
_atom_site_fract_z
Zn1	Zn	1.208347	0.423808	-0.446935
Zn2	Zn	1.708347	0.923808	0.053065
Zn3	Zn	1.208254	0.601815	-0.314768
Zn4	Zn	1.708254	1.101815	0.185232
Zn5	Zn	1.076176	0.423841	-0.314773
Zn6	Zn	1.576176	0.923841	0.185227
Zn7	Zn	1.076125	0.601735	-0.446906
Zn8	Zn	1.576125	1.101735	0.053094
O9	O	1.142226	0.512800	-0.380845
O10	O	1.642226	1.012800	0.119155
O11	O	1.318946	0.447440	-0.429413
O12	O	1.818946	0.947440	0.070587
O13	O	1.190716	0.578254	-0.204157
O14	O	1.690716	1.078254	0.295843
O15	O	1.093769	0.274891	-0.332318
O16	O	1.593769	0.774891	0.167682
O17	O	1.318878	0.578221	-0.332310
O18	O	1.818878	1.078221	0.167690
O19	O	1.190874	0.274866	-0.429418
O20	O	1.690874	0.774866	0.070582
O21	O	1.093679	0.447497	-0.204161
O22	O	1.593679	0.947497	0.295839
O23	O	0.965558	0.447420	-0.332290
O24	O	1.465558	0.947420	0.167710
O25	O	1.093682	0.578086	-0.557521
O26	O	1.593682	1.078086	-0.057521
O27	O	0.965521	0.578118	-0.429369
O28	O	1.465521	1.078118	0.070631
O29	O	1.190825	0.447363	-0.557542
O30	O	1.690825	0.947363	-0.057542
O31	O	1.190667	0.750750	-0.332282
O32	O	1.690667	1.250750	0.167718
O33	O	1.093592	0.750692	-0.429364
O34	O	1.593592	1.250692	0.070636
C35	C	0.936859	0.512765	-0.380827
C36	C	1.436859	1.012765	0.119173
C37	C	0.849003	0.512775	-0.380838
C38	C	1.349003	1.012775	0.119162
C39	C	1.142135	0.789341	-0.380836
C40	C	1.642135	1.289341	0.119164
C41	C	1.142169	0.907646	-0.380859
C42	C	1.642169	1.407646	0.119141
C43	C	0.477522	0.444690	-0.330402
C44	C	0.977522	0.944690	0.169598
C45	C	0.477532	0.580998	-0.431334
C46	C	0.977532	1.080998	0.068666
C47	C	0.560078	0.580982	-0.431329
C48	C	1.060078	1.080982	0.068671
C49	C	0.601350	0.512821	-0.380859
C50	C	1.101350	1.012821	0.119141
C51	C	0.560076	0.444674	-0.330394
C52	C	1.060076	0.944674	0.169606
C53	C	0.601358	0.649135	-0.481787
C54	C	1.101358	1.149135	0.018213
C55	C	0.683909	0.649123	-0.481784
C56	C	1.183909	1.149123	0.018216
C57	C	0.725182	0.580956	-0.431317
C58	C	1.225182	1.080956	0.068683
C59	C	0.683903	0.512806	-0.380851
C60	C	1.183903	1.012806	0.119149
C61	C	0.725175	0.444644	-0.330382
C62	C	1.225175	0.944644	0.169618
C63	C	0.683897	0.376488	-0.279919
C64	C	1.183897	0.876488	0.220081
C65	C	0.601349	0.376507	-0.279928
C66	C	1.101349	0.876507	0.220072
C67	C	0.807731	0.580937	-0.431308
C68	C	1.307731	1.080937	0.068692
C69	C	0.807729	0.444629	-0.330374
C70	C	1.307729	0.944629	0.169626
C71	C	1.089356	0.976906	-0.433624
C72	C	1.589356	1.476906	0.066376
C73	C	1.070094	1.047768	-0.361498
C74	C	1.570094	1.547768	0.138502
C75	C	1.161474	1.047583	-0.452996
C76	C	1.661474	1.547583	0.047004
C77	C	1.122870	0.976950	-0.308695
C78	C	1.622870	1.476950	0.191305
C79	C	1.214283	0.976759	-0.400242
C80	C	1.714283	1.476759	0.099758
C81	C	1.195049	1.047589	-0.328066
C82	C	1.695049	1.547589	0.171934
C83	C	1.348394	0.512836	-0.380864
C84	C	1.848394	1.012836	0.119136
C85	C	1.436250	0.512851	-0.380872
C86	C	1.936250	1.012851	0.119128
C87	C	1.142258	0.512712	-0.587014
C88	C	1.642258	1.012712	-0.087014
C89	C	1.142272	0.512674	-0.674870
C90	C	1.642272	1.012674	-0.174870
C91	C	1.142303	1.235179	-0.380871
C92	C	1.642303	1.735179	0.119129
C93	C	1.142247	1.116874	-0.380878
C94	C	1.642247	1.616874	0.119122
C95	C	1.091789	0.580623	-1.046338
C96	C	1.591789	1.080623	-0.546338
C97	C	1.192945	0.444501	-1.046355
C98	C	1.692945	0.944501	-0.546355
C99	C	1.192924	0.444523	-0.963809
C100	C	1.692924	0.944523	-0.463809
C101	C	1.142335	0.512598	-0.922524
C102	C	1.642335	1.012598	-0.422524
C103	C	1.091768	0.580650	-0.963784
C104	C	1.591768	1.080650	-0.463784
C105	C	1.243496	0.376480	-0.922542
C106	C	1.743496	0.876480	-0.422542
C107	C	1.243478	0.376501	-0.839991
C108	C	1.743478	0.876501	-0.339991
C109	C	1.192885	0.444571	-0.798704
C110	C	1.692885	0.944571	-0.298704
C111	C	1.142314	0.512625	-0.839970
C112	C	1.642314	1.012625	-0.339970
C113	C	1.091726	0.580699	-0.798685
C114	C	1.591726	1.080699	-0.298685
C115	C	1.041151	0.648749	-0.839949
C116	C	1.541151	1.148749	-0.339949
C117	C	1.041175	0.648720	-0.922497
C118	C	1.541175	1.148720	-0.422497
C119	C	1.192861	0.444600	-0.716156
C120	C	1.692861	0.944600	-0.216156
C121	C	1.091705	0.580726	-0.716131
C122	C	1.591705	1.080726	-0.216131
C123	C	1.142238	0.512811	-0.175479
C124	C	1.642238	1.012811	0.324521
C125	C	1.142377	0.512548	-0.087623
C126	C	1.642377	1.012548	0.412377
H127	H	0.717512	0.320996	-0.238823
H128	H	1.217512	0.820996	0.261177
H129	H	1.284687	0.321064	-0.956163
H130	H	1.784687	0.821064	-0.456163
H131	H	0.717511	0.704619	-0.522874
H132	H	1.217511	1.204619	-0.022874
H133	H	1.177770	1.078610	-0.513994
H134	H	1.677770	1.578610	-0.013994
H135	H	1.106502	0.946052	-0.247680
H136	H	1.606502	1.446052	0.252320
H137	H	0.567733	0.321019	-0.238843
H138	H	1.067733	0.821019	0.261157
O139	O	0.847915	0.646987	-0.480359
O140	O	1.347915	1.146987	0.019641
C141	C	0.895678	0.586466	-0.531499
C142	C	1.395678	1.086466	-0.031499
H143	H	0.908049	0.505752	-0.503726
H144	H	1.408049	1.005752	-0.003726
H145	H	0.953723	0.629825	-0.542031
H146	H	1.453723	1.129825	-0.042031
H147	H	0.863885	0.574883	-0.590094
H148	H	1.363885	1.074883	-0.090094
H149	H	1.284658	0.321090	-0.806401
H150	H	1.784658	0.821090	-0.306401
O151	O	1.035890	0.939920	-0.486692
O152	O	1.535890	1.439920	0.013308
C153	C	0.959980	0.976131	-0.465976
C154	C	1.459980	1.476131	0.034024
H155	H	0.958540	0.996038	-0.400412
H156	H	1.458540	1.496038	0.099588
H157	H	0.914856	0.911438	-0.479113
H158	H	1.414856	1.411438	0.020887
H159	H	0.945163	1.050195	-0.501651
H160	H	1.445163	1.550195	-0.001651
H161	H	1.234136	0.389083	-1.079974
H162	H	1.734136	0.889083	-0.579974
O163	O	1.042478	0.646707	-0.675997
O164	O	1.542478	1.146707	-0.175997
C165	C	0.991451	0.586123	-0.628236
C166	C	1.491451	1.086123	-0.128236
H167	H	0.986609	0.502281	-0.653119
H168	H	1.486609	1.002281	-0.153119
H169	H	0.930606	0.624610	-0.627296
H170	H	1.430606	1.124610	-0.127296
H171	H	1.015877	0.582491	-0.565674
H172	H	1.515877	1.082491	-0.065674
H173	H	1.239745	1.078429	-0.283401
H174	H	1.739745	1.578429	0.216599
O175	O	1.241899	0.378355	-0.676107
O176	O	1.741899	0.878355	-0.176107
C177	C	1.224693	0.272262	-0.696311
C178	C	1.724693	0.772262	-0.196311
H179	H	1.161557	0.266862	-0.719007
H180	H	1.661557	0.766862	-0.219007
H181	H	1.231511	0.219696	-0.642031
H182	H	1.731511	0.719696	-0.142031
H183	H	1.267099	0.244438	-0.744229
H184	H	1.767099	0.744438	-0.244229
O185	O	0.997377	1.084859	-0.341832
O186	O	1.497377	1.584859	0.158168
C187	C	0.976661	1.047348	-0.266301
C188	C	1.476661	1.547348	0.233699
H189	H	1.011627	0.972251	-0.252657
H190	H	1.511627	1.472251	0.247343
H191	H	0.910903	1.028728	-0.264773
H192	H	1.410903	1.528728	0.235227
H193	H	0.990701	1.110732	-0.220399
H194	H	1.490701	1.610732	0.279601
O195	O	0.437484	0.647353	-0.480280
O196	O	0.937484	1.147353	0.019720
C197	C	0.457643	0.753406	-0.462897
C198	C	0.957643	1.253406	0.037103
H199	H	0.480308	0.758686	-0.399741
H200	H	0.980308	1.258686	0.100259
H201	H	0.403348	0.806012	-0.469657
H202	H	0.903348	1.306012	0.030343
H203	H	0.505572	0.781277	-0.505236
H204	H	1.005572	1.281277	-0.005236
O205	O	0.847905	0.378564	-0.281307
O206	O	1.347905	0.878564	0.218693
C207	C	0.895605	0.439072	-0.230158
C208	C	1.395605	0.939072	0.269842
H209	H	0.907963	0.519779	-0.257932
H210	H	1.407963	1.019779	0.242068
H211	H	0.953660	0.395693	-0.219611
H212	H	1.453660	0.895693	0.280389
H213	H	0.863765	0.450671	-0.171571
H214	H	1.363765	0.950671	0.328429
O215	O	0.437308	0.378585	-0.281411
O216	O	0.937308	0.878585	0.218589
C217	C	0.355598	0.393184	-0.292253
C218	C	0.855598	0.893184	0.207747
H219	H	0.344310	0.475371	-0.318037
H220	H	0.844310	0.975371	0.181963
H221	H	0.324205	0.385865	-0.233060
H222	H	0.824205	0.885865	0.266940
H223	H	0.332204	0.330124	-0.334429
H224	H	0.832204	0.830124	0.165571
H225	H	1.275217	0.945547	-0.416654
H226	H	1.775217	1.445547	0.083346
O227	O	0.561227	0.715184	-0.530893
O228	O	1.061227	1.215184	-0.030893
C229	C	0.513498	0.654664	-0.582007
C230	C	1.013498	1.154664	-0.082007
H231	H	0.538407	0.570845	-0.586992
H232	H	1.038407	1.070845	-0.086992
H233	H	0.512562	0.693259	-0.642789
H234	H	1.012562	1.193259	-0.142789
H235	H	0.450930	0.650951	-0.557572
H236	H	0.950930	1.150951	-0.057572
H237	H	0.999966	0.704180	-0.806323
H238	H	1.499966	1.204180	-0.306323
H239	H	1.050610	0.636024	-1.079939
H240	H	1.550610	1.136024	-0.579939
H241	H	1.000002	0.704125	-0.956102
H242	H	1.500002	1.204125	-0.456102
