data_functionalizedCrystal
_audit_creation_method	'MofGen! by Chris Wilmer'
_symmetry_space_group_name_H-M	'P1'
_symmetry_Int_Tables_number	1
_symmetry_cell_setting	triclinic
loop_
_symmetry_equiv_pos_as_xyz
  x,y,z
_cell_length_a	19.805407
_cell_length_b	18.101395
_cell_length_c	19.805399
_cell_angle_alpha	90.025118
_cell_angle_beta	90.019573
_cell_angle_gamma	90.031104
loop_
_atom_site_label
_atom_site_type_symbol
_atom_site_fract_x
_atom_site_fract_y
_atom_site_fract_z
Zn1	Zn	1.034714	-0.294847	0.382731
Zn2	Zn	1.368047	0.038487	0.716065
Zn3	Zn	1.701380	0.371820	1.049398
Zn4	Zn	1.034619	-0.418690	0.269548
Zn5	Zn	1.367952	-0.085357	0.602881
Zn6	Zn	1.701286	0.247976	0.936214
Zn7	Zn	0.921528	-0.294867	0.269556
Zn8	Zn	1.254862	0.038466	0.602889
Zn9	Zn	1.588195	0.371799	0.936222
Zn10	Zn	0.921482	-0.418651	0.382695
Zn11	Zn	1.254816	-0.085318	0.716028
Zn12	Zn	1.588149	0.248016	1.049361
O13	O	0.978086	-0.356764	0.326132
O14	O	1.311419	-0.023430	0.659466
O15	O	1.644753	0.309903	0.992799
O16	O	1.129418	-0.311283	0.367729
O17	O	1.462751	0.022051	0.701063
O18	O	1.796084	0.355384	1.034396
O19	O	1.019597	-0.402290	0.174832
O20	O	1.352930	-0.068957	0.508166
O21	O	1.686264	0.264377	0.841499
O22	O	0.936601	-0.191232	0.284587
O23	O	1.269935	0.142102	0.617921
O24	O	1.603268	0.475435	0.951254
O25	O	1.129348	-0.402270	0.284574
O26	O	1.462682	-0.068937	0.617907
O27	O	1.796015	0.264397	0.951241
O28	O	1.019758	-0.191217	0.367737
O29	O	1.353091	0.142117	0.701070
O30	O	1.686425	0.475450	1.034404
O31	O	0.936510	-0.311318	0.174838
O32	O	1.269843	0.022016	0.508171
O33	O	1.603176	0.355349	0.841505
O34	O	0.826806	-0.311279	0.284552
O35	O	1.160139	0.022054	0.617885
O36	O	1.493472	0.355387	0.951219
O37	O	0.936523	-0.402203	0.477416
O38	O	1.269857	-0.068870	0.810749
O39	O	1.603190	0.264464	1.144083
O40	O	0.826772	-0.402223	0.367674
O41	O	1.160105	-0.068890	0.701008
O42	O	1.493439	0.264444	1.034341
O43	O	1.019714	-0.311245	0.477443
O44	O	1.353047	0.022089	0.810776
O45	O	1.686380	0.355422	1.144110
O46	O	1.019553	-0.522318	0.284538
O47	O	1.352886	-0.188985	0.617872
O48	O	1.686219	0.144349	0.951205
O49	O	0.936432	-0.522289	0.367667
O50	O	1.269765	-0.188956	0.701000
O51	O	1.603098	0.144378	1.034333
C52	C	0.802230	-0.356750	0.326110
C53	C	1.135563	-0.023416	0.659444
C54	C	1.468897	0.309917	0.992777
C55	C	0.726998	-0.356761	0.326117
C56	C	1.060331	-0.023428	0.659451
C57	C	1.393665	0.309905	0.992784
C58	C	0.691654	-0.404187	0.369329
C59	C	1.024987	-0.070854	0.702662
C60	C	1.358321	0.262480	1.035996
C61	C	0.620965	-0.404188	0.369339
C62	C	0.954299	-0.070855	0.702672
C63	C	1.287632	0.262478	1.036005
C64	C	0.585622	-0.356767	0.326132
C65	C	0.918956	-0.023434	0.659466
C66	C	1.252289	0.309899	0.992799
C67	C	0.620971	-0.309336	0.282919
C68	C	0.954305	0.023997	0.616252
C69	C	1.287638	0.357330	0.949585
C70	C	0.691658	-0.309332	0.282913
C71	C	1.024992	0.024001	0.616246
C72	C	1.358325	0.357335	0.949580
C73	C	0.335898	-0.309353	0.282941
C74	C	0.669231	0.023981	0.616274
C75	C	1.002565	0.357314	0.949608
C76	C	0.265206	-0.309363	0.282948
C77	C	0.598539	0.023971	0.616282
C78	C	0.931872	0.357304	0.949615
C79	C	0.265205	-0.404209	0.369367
C80	C	0.598538	-0.070876	0.702700
C81	C	0.931872	0.262458	1.036033
C82	C	0.335892	-0.404205	0.369361
C83	C	0.669226	-0.070871	0.702694
C84	C	1.002559	0.262462	1.036028
C85	C	0.371235	-0.356771	0.326150
C86	C	0.704568	-0.023438	0.659483
C87	C	1.037902	0.309895	0.992817
C88	C	0.447883	-0.356770	0.326141
C89	C	0.781217	-0.023436	0.659474
C90	C	1.114550	0.309897	0.992808
C91	C	0.508975	-0.356772	0.326137
C92	C	0.842308	-0.023439	0.659471
C93	C	1.175642	0.309894	0.992804
C94	C	0.977995	-0.549174	0.326112
C95	C	1.311329	-0.215841	0.659446
C96	C	1.644662	0.117492	0.992779
C97	C	0.978018	-0.631489	0.326127
C98	C	1.311352	-0.298155	0.659460
C99	C	1.644685	0.035178	0.992793
C100	C	0.978167	-0.930579	0.326163
C101	C	1.311500	-0.597246	0.659496
C102	C	1.644834	-0.263913	0.992830
C103	C	0.925991	-0.899267	0.378595
C104	C	1.259324	-0.565934	0.711928
C105	C	1.592657	-0.232600	1.045262
C106	C	0.925743	-0.813649	0.378431
C107	C	1.259076	-0.480316	0.711764
C108	C	1.592410	-0.146982	1.045098
C109	C	0.978093	-0.782197	0.326146
C110	C	1.311427	-0.448864	0.659479
C111	C	1.644760	-0.115530	0.992812
C112	C	0.958782	-0.813345	0.254811
C113	C	1.292116	-0.480012	0.588144
C114	C	1.625449	-0.146679	0.921478
C115	C	0.958446	-0.898990	0.255125
C116	C	1.291779	-0.565657	0.588458
C117	C	1.625113	-0.232324	0.921791
C118	C	1.049768	-0.898924	0.344438
C119	C	1.383102	-0.565591	0.677771
C120	C	1.716435	-0.232257	1.011104
C121	C	1.049347	-0.813273	0.346002
C122	C	1.382681	-0.479940	0.679335
C123	C	1.716014	-0.146606	1.012669
C124	C	0.978053	-0.698337	0.326131
C125	C	1.311386	-0.365004	0.659465
C126	C	1.644719	-0.031671	0.992798
C127	C	0.978206	-1.014439	0.326173
C128	C	1.311539	-0.681105	0.659506
C129	C	1.644873	-0.347772	0.992839
C130	C	1.154629	-0.356779	0.326155
C131	C	1.487962	-0.023445	0.659488
C132	C	1.821295	0.309888	0.992821
C133	C	1.229861	-0.356785	0.326164
C134	C	1.563194	-0.023452	0.659498
C135	C	1.896527	0.309882	0.992831
C136	C	0.978124	-0.356717	0.502675
C137	C	1.311457	-0.023384	0.836008
C138	C	1.644791	0.309949	1.169342
C139	C	0.978140	-0.356697	0.577907
C140	C	1.311473	-0.023364	0.911241
C141	C	1.644807	0.309969	1.244574
C142	C	0.978195	-0.163602	0.326167
C143	C	1.311529	0.169731	0.659500
C144	C	1.644862	0.503065	0.992834
C145	C	0.978242	-0.081288	0.326182
C146	C	1.311575	0.252046	0.659515
C147	C	1.644908	0.585379	0.992849
C148	C	0.978087	-0.356757	0.150276
C149	C	1.311420	-0.023424	0.483610
C150	C	1.644754	0.309910	0.816943
C151	C	0.978202	-0.356568	0.075045
C152	C	1.311535	-0.023235	0.408378
C153	C	1.644869	0.310099	0.741711
C154	C	1.021458	-0.309333	0.613266
C155	C	1.354792	0.024000	0.946600
C156	C	1.688125	0.357334	1.279933
C157	C	1.021465	-0.309311	0.683955
C158	C	1.354799	0.024022	1.017288
C159	C	1.688132	0.357355	1.350622
C160	C	0.978157	-0.356659	0.719283
C161	C	1.311490	-0.023325	1.052616
C162	C	1.644824	0.310008	1.385950
C163	C	0.934834	-0.404025	0.683919
C164	C	1.268167	-0.070692	1.017252
C165	C	1.601501	0.262642	1.350585
C166	C	0.934824	-0.404042	0.613231
C167	C	1.268157	-0.070709	0.946565
C168	C	1.601491	0.262624	1.279898
C169	C	0.934872	-0.403956	0.968992
C170	C	1.268205	-0.070623	1.302325
C171	C	1.601539	0.262711	1.635659
C172	C	0.934887	-0.403937	1.039684
C173	C	1.268220	-0.070603	1.373018
C174	C	1.601553	0.262730	1.706351
C175	C	1.021513	-0.309225	1.039716
C176	C	1.354847	0.024108	1.373049
C177	C	1.688180	0.357441	1.706382
C178	C	1.021503	-0.309242	0.969028
C179	C	1.354837	0.024091	1.302362
C180	C	1.688170	0.357424	1.635695
C181	C	0.978178	-0.356606	0.933670
C182	C	1.311512	-0.023272	1.267004
C183	C	1.644845	0.310061	1.600337
C184	C	0.978170	-0.356628	0.857022
C185	C	1.311504	-0.023294	1.190355
C186	C	1.644837	0.310039	1.523689
C187	C	0.978168	-0.356641	0.795930
C188	C	1.311501	-0.023308	1.129263
C189	C	1.644834	0.310025	1.462597
H190	H	0.364665	-0.442822	0.404542
H191	H	0.697998	-0.109489	0.737875
H192	H	1.031332	0.223844	1.071208
N193	N	0.729780	-0.258185	0.236300
N194	N	1.063114	0.075148	0.569633
N195	N	1.396447	0.408482	0.902967
H196	H	0.779923	-0.265376	0.242853
H197	H	1.113256	0.067957	0.576187
H198	H	1.446590	0.401291	0.909520
H199	H	0.717452	-0.205311	0.246921
H200	H	1.050785	0.128023	0.580254
H201	H	1.384118	0.461356	0.913587
N202	N	0.941741	-0.785742	0.448493
N203	N	1.275074	-0.452409	0.781827
N204	N	1.608407	-0.119076	1.115160
H205	H	0.949018	-0.829076	0.479763
H206	H	1.282351	-0.495743	0.813096
H207	H	1.615685	-0.162410	1.146430
H208	H	0.902866	-0.754860	0.465559
H209	H	1.236199	-0.421526	0.798893
H210	H	1.569533	-0.088193	1.132226
H211	H	1.056741	-0.270744	0.712741
H212	H	1.390074	0.062589	1.046075
H213	H	1.723408	0.395922	1.379408
H214	H	0.937953	-0.919817	0.431660
H215	H	1.271286	-0.586483	0.764993
H216	H	1.604619	-0.253150	1.098327
H217	H	1.056772	-0.270690	0.940268
H218	H	1.390105	0.062643	1.273601
H219	H	1.723438	0.395977	1.606935
H220	H	0.592189	-0.270722	0.247742
H221	H	0.925522	0.062611	0.581076
H222	H	1.258856	0.395944	0.914409
N223	N	1.007533	-0.786366	0.201647
N224	N	1.340867	-0.453033	0.534981
N225	N	1.674200	-0.119699	0.868314
H226	H	1.042690	-0.753613	0.223345
H227	H	1.376023	-0.420280	0.556678
H228	H	1.709356	-0.086946	0.890011
H229	H	0.982096	-0.757380	0.166284
H230	H	1.315429	-0.424047	0.499617
H231	H	1.648763	-0.090714	0.832950
N232	N	1.068243	-0.258136	1.077851
N233	N	1.401576	0.075197	1.411185
N234	N	1.734910	0.408531	1.744518
H235	H	1.061678	-0.265305	1.127992
H236	H	1.395012	0.068029	1.461326
H237	H	1.728345	0.401362	1.794659
H238	H	1.057739	-0.205248	1.065501
H239	H	1.391073	0.128086	1.398835
H240	H	1.724406	0.461419	1.732168
H241	H	0.236420	-0.442829	0.404554
H242	H	0.569754	-0.109495	0.737887
H243	H	0.903087	0.223838	1.071220
H244	H	0.899617	-0.442494	1.068446
H245	H	1.232950	-0.109161	1.401780
H246	H	1.566284	0.224173	1.735113
N247	N	0.888096	-0.455121	0.575090
N248	N	1.221430	-0.121788	0.908424
N249	N	1.554763	0.211546	1.241757
H250	H	0.860661	-0.485112	0.608195
H251	H	1.193994	-0.151779	0.941529
H252	H	1.527328	0.181554	1.274862
H253	H	0.915618	-0.489404	0.545757
H254	H	1.248951	-0.156071	0.879090
H255	H	1.582285	0.177263	1.212423
N256	N	1.101263	-0.925748	0.293860
N257	N	1.434596	-0.592415	0.627193
N258	N	1.767930	-0.259082	0.960526
H259	H	1.147162	-0.905236	0.305854
H260	H	1.480496	-0.571902	0.639187
H261	H	1.813829	-0.238569	0.972521
H262	H	1.088081	-0.908473	0.247203
H263	H	1.421415	-0.575139	0.580536
H264	H	1.754748	-0.241806	0.913869
H265	H	0.364665	-0.270735	0.247751
H266	H	0.697999	0.062598	0.581084
H267	H	1.031332	0.395931	0.914417
H268	H	0.873241	-0.920853	0.366642
H269	H	1.206574	-0.587520	0.699976
H270	H	1.539908	-0.254186	1.033309
H271	H	0.236431	-0.270742	0.247765
H272	H	0.569765	0.062591	0.581098
H273	H	0.903098	0.395925	0.914431
N274	N	0.889117	-0.925550	0.234627
N275	N	1.222451	-0.592216	0.567961
N276	N	1.555784	-0.258883	0.901294
H277	H	0.892779	-0.956653	0.192439
H278	H	1.226112	-0.623320	0.525772
H279	H	1.559446	-0.289987	0.859105
H280	H	0.859097	-0.881585	0.225508
H281	H	1.192431	-0.548252	0.558842
H282	H	1.525764	-0.214918	0.892175
N283	N	0.888123	-0.455014	0.930861
N284	N	1.221456	-0.121681	1.264194
N285	N	1.554790	0.211653	1.597528
H286	H	0.860685	-0.484998	0.963969
H287	H	1.194018	-0.151665	1.297303
H288	H	1.527352	0.181669	1.630636
H289	H	0.915625	-0.489305	0.901516
H290	H	1.248958	-0.155972	1.234850
H291	H	1.582292	0.177361	1.568183
H292	H	0.899569	-0.442573	0.712688
H293	H	1.232902	-0.109240	1.046022
H294	H	1.566236	0.224093	1.379355
N295	N	0.582844	-0.455350	0.415936
N296	N	0.916177	-0.122017	0.749269
N297	N	1.249510	0.211316	1.082602
H298	H	0.615959	-0.485398	0.443299
H299	H	0.949293	-0.152064	0.776632
H300	H	1.282626	0.181269	1.109966
H301	H	0.553493	-0.489578	0.388320
H302	H	0.886826	-0.156244	0.721653
H303	H	1.220159	0.177089	1.054986
H304	H	0.720425	-0.442805	0.404510
H305	H	1.053759	-0.109472	0.737844
H306	H	1.387092	0.223861	1.071177
N307	N	0.855446	-0.786586	0.362392
N308	N	1.188779	-0.453253	0.695725
N309	N	1.522112	-0.119920	1.029058
H310	H	0.824499	-0.830293	0.355396
H311	H	1.157833	-0.496960	0.688730
H312	H	1.491166	-0.163626	1.022063
H313	H	0.856662	-0.755730	0.319935
H314	H	1.189996	-0.422397	0.653269
H315	H	1.523329	-0.089063	0.986602
N316	N	0.890187	-0.785019	0.233938
N317	N	1.223520	-0.451686	0.567271
N318	N	1.556853	-0.118353	0.900605
H319	H	0.855261	-0.801439	0.267921
H320	H	1.188594	-0.468105	0.601255
H321	H	1.521927	-0.134772	0.934588
H322	H	0.878269	-0.805375	0.187964
H323	H	1.211602	-0.472041	0.521297
H324	H	1.544936	-0.138708	0.854631
H325	H	0.994801	-0.919706	0.214727
H326	H	1.328134	-0.586373	0.548060
H327	H	1.661467	-0.253039	0.881393
N328	N	1.073105	-0.927467	0.412161
N329	N	1.406438	-0.594134	0.745494
N330	N	1.739772	-0.260801	1.078827
H331	H	1.039990	-0.911896	0.448224
H332	H	1.373323	-0.578562	0.781557
H333	H	1.706656	-0.245229	1.114891
H334	H	1.119144	-0.906458	0.422818
H335	H	1.452477	-0.573124	0.756151
H336	H	1.785811	-0.239791	1.089485
N337	N	1.068644	-0.786305	0.415541
N338	N	1.401978	-0.452972	0.748874
N339	N	1.735311	-0.119639	1.082207
H340	H	1.031392	-0.754091	0.434109
H341	H	1.364725	-0.420757	0.767442
H342	H	1.698058	-0.087424	1.100775
H343	H	1.111817	-0.756760	0.412635
H344	H	1.445150	-0.423426	0.745968
H345	H	1.778483	-0.090093	1.079301
H346	H	1.090278	-0.791859	0.310597
H347	H	1.423611	-0.458526	0.643930
H348	H	1.756944	-0.125192	0.977264
H349	H	1.056727	-0.270779	0.584508
H350	H	1.390060	0.062554	0.917841
H351	H	1.723394	0.395887	1.251174
