data_functionalizedCrystal
_audit_creation_method	'MofGen! by Chris Wilmer'
_symmetry_space_group_name_H-M	'P1'
_symmetry_Int_Tables_number	1
_symmetry_cell_setting	triclinic
loop_
_symmetry_equiv_pos_as_xyz
  x,y,z
_cell_length_a	19.805407
_cell_length_b	12.759399
_cell_length_c	19.805399
_cell_angle_alpha	90.022080
_cell_angle_beta	90.024201
_cell_angle_gamma	90.014993
loop_
_atom_site_label
_atom_site_type_symbol
_atom_site_fract_x
_atom_site_fract_y
_atom_site_fract_z
Zn1	Zn	1.034786	-0.418312	0.382829
Zn2	Zn	1.534786	0.081688	0.882829
Zn3	Zn	1.034722	-0.594005	0.269652
Zn4	Zn	1.534722	-0.094005	0.769652
Zn5	Zn	0.921601	-0.418338	0.269645
Zn6	Zn	1.421601	0.081662	0.769645
Zn7	Zn	0.921585	-0.593947	0.382789
Zn8	Zn	1.421585	-0.093947	0.882789
O9	O	0.978173	-0.506150	0.326229
O10	O	1.478173	-0.006150	0.826229
O11	O	1.129494	-0.441631	0.367836
O12	O	1.629494	0.058369	0.867836
O13	O	1.019696	-0.570738	0.174934
O14	O	1.519696	-0.070738	0.674934
O15	O	0.936648	-0.271314	0.284672
O16	O	1.436648	0.228686	0.784672
O17	O	1.129447	-0.570712	0.284685
O18	O	1.629447	-0.070712	0.784685
O19	O	1.019805	-0.271294	0.367829
O20	O	1.519805	0.228706	0.867829
O21	O	0.936586	-0.441676	0.174929
O22	O	1.436586	0.058324	0.674929
O23	O	0.826882	-0.441620	0.284634
O24	O	1.326882	0.058380	0.784634
O25	O	0.936622	-0.570613	0.477511
O26	O	1.436622	-0.070613	0.977511
O27	O	0.826871	-0.570639	0.367761
O28	O	1.326871	-0.070639	0.867761
O29	O	1.019790	-0.441575	0.477540
O30	O	1.519790	0.058425	0.977540
O31	O	1.019681	-0.741018	0.284646
O32	O	1.519681	-0.241018	0.784646
O33	O	0.936560	-0.740976	0.367768
O34	O	1.436560	-0.240976	0.867768
C35	C	0.802317	-0.506127	0.326193
C36	C	1.302317	-0.006127	0.826193
C37	C	0.727085	-0.506142	0.326193
C38	C	1.227085	-0.006142	0.826193
C39	C	0.265306	-0.573457	0.369488
C40	C	0.765306	-0.073457	0.869488
C41	C	0.335995	-0.573455	0.369474
C42	C	0.835995	-0.073455	0.869474
C43	C	0.371324	-0.506176	0.326255
C44	C	0.871324	-0.006176	0.826255
C45	C	0.335961	-0.438901	0.283043
C46	C	0.835961	0.061099	0.783043
C47	C	0.265273	-0.438909	0.283054
C48	C	0.765273	0.061091	0.783054
C49	C	0.621034	-0.438869	0.282995
C50	C	1.121034	0.061131	0.782995
C51	C	0.691726	-0.438864	0.282989
C52	C	1.191726	0.061136	0.782989
C53	C	0.691755	-0.573415	0.369415
C54	C	1.191755	-0.073415	0.869415
C55	C	0.621068	-0.573423	0.369426
C56	C	1.121068	-0.073423	0.869426
C57	C	0.585711	-0.506153	0.326212
C58	C	1.085711	-0.006153	0.826212
C59	C	0.509063	-0.506157	0.326227
C60	C	1.009063	-0.006157	0.826227
C61	C	0.447971	-0.506166	0.326243
C62	C	0.947971	-0.006166	0.826243
C63	C	0.978130	-0.779118	0.326218
C64	C	1.478130	-0.279118	0.826218
C65	C	0.978173	-0.895894	0.326236
C66	C	1.478173	-0.395894	0.826236
C67	C	0.934886	-0.950772	0.369486
C68	C	1.434886	-0.450772	0.869486
C69	C	0.934928	-1.060496	0.369499
C70	C	1.434928	-0.560496	0.869499
C71	C	1.021551	-1.060455	0.283010
C72	C	1.521551	-0.560455	0.783010
C73	C	1.021505	-0.950733	0.282994
C74	C	1.521505	-0.450733	0.782994
C75	C	0.855152	-1.210537	0.393624
C76	C	1.355152	-0.710537	0.893624
C77	C	0.811871	-1.265419	0.436885
C78	C	1.311871	-0.765419	0.936885
C79	C	0.801425	-1.229760	0.502913
C80	C	1.301425	-0.729760	1.002913
C81	C	0.834272	-1.139222	0.525694
C82	C	1.334272	-0.639222	1.025694
C83	C	0.877558	-1.084346	0.482437
C84	C	1.377558	-0.584346	0.982437
C85	C	0.887991	-1.120003	0.416399
C86	C	1.387991	-0.620003	0.916399
C87	C	1.101282	-0.800690	0.258876
C88	C	1.601282	-0.300690	0.758876
C89	C	1.144572	-0.745812	0.215622
C90	C	1.644572	-0.245812	0.715622
C91	C	1.155024	-0.781468	0.149593
C92	C	1.655024	-0.281468	0.649593
C93	C	1.122190	-0.872010	0.126815
C94	C	1.622190	-0.372010	0.626815
C95	C	1.078899	-0.926888	0.170069
C96	C	1.578899	-0.426888	0.670069
C97	C	1.068446	-0.891224	0.236097
C98	C	1.568446	-0.391224	0.736097
C99	C	1.154716	-0.506175	0.326265
C100	C	1.654716	-0.006175	0.826265
C101	C	1.229948	-0.506185	0.326281
C102	C	1.729948	-0.006185	0.826281
C103	C	0.978211	-0.506084	0.502771
C104	C	1.478211	-0.006084	1.002771
C105	C	0.978227	-0.506056	0.578003
C106	C	1.478227	-0.006056	1.078003
C107	C	0.978235	-0.232117	0.326254
C108	C	1.478235	0.267883	0.826254
C109	C	0.978262	-0.115341	0.326265
C110	C	1.478262	0.384659	0.826265
C111	C	0.978174	-0.506141	0.150373
C112	C	1.478174	-0.006141	0.650373
C113	C	0.978289	-0.505873	0.075141
C114	C	1.478289	-0.005873	0.575141
C115	C	1.021534	-0.438862	0.613364
C116	C	1.521534	0.061138	1.113364
C117	C	1.021541	-0.438832	0.684052
C118	C	1.521541	0.061168	1.184052
C119	C	0.978244	-0.506001	0.719379
C120	C	1.478244	-0.006001	1.219379
C121	C	0.934933	-0.573198	0.684014
C122	C	1.434933	-0.073198	1.184014
C123	C	0.934923	-0.573222	0.613327
C124	C	1.434923	-0.073222	1.113327
C125	C	0.934971	-0.573100	0.969087
C126	C	1.434971	-0.073100	1.469087
C127	C	0.934986	-0.573073	1.039779
C128	C	1.434986	-0.073073	1.539779
C129	C	1.021589	-0.438710	1.039813
C130	C	1.521589	0.061290	1.539813
C131	C	1.021579	-0.438734	0.969126
C132	C	1.521579	0.061266	1.469126
C133	C	0.978266	-0.505926	0.933767
C134	C	1.478266	-0.005926	1.433767
C135	C	0.978258	-0.505957	0.857118
C136	C	1.478258	-0.005957	1.357118
C137	C	0.978255	-0.505976	0.796026
C138	C	1.478255	-0.005976	1.296026
H139	H	0.899601	-0.906125	0.404696
H140	H	1.399601	-0.406125	0.904696
H141	H	0.899677	-0.627884	0.712782
H142	H	1.399677	-0.127884	1.212782
O143	O	1.132410	-0.906798	0.062717
O144	O	1.632410	-0.406798	0.562717
C145	C	1.159742	-1.008777	0.064613
C146	C	1.659742	-0.508777	0.564613
H147	H	1.185655	-1.022010	0.115304
H148	H	1.685655	-0.522010	0.615304
H149	H	1.198149	-1.018149	0.022183
H150	H	1.698149	-0.518149	0.522183
H151	H	1.117524	-1.068634	0.057885
H152	H	1.617524	-0.568634	0.557885
O153	O	1.063596	-0.373461	1.074267
O154	O	1.563596	0.126539	1.574267
C155	C	1.054333	-0.387851	1.144233
C156	C	1.554333	0.112149	1.644233
H157	H	1.002092	-0.422246	1.153871
H158	H	1.502092	0.077754	1.653871
H159	H	1.058947	-0.309144	1.171103
H160	H	1.558947	0.190856	1.671103
H161	H	1.094470	-0.443798	1.164300
H162	H	1.594470	0.056202	1.664300
H163	H	0.863645	-1.239571	0.339856
H164	H	1.363645	-0.739571	0.839856
H165	H	0.592255	-0.384098	0.247805
H166	H	1.092255	0.115902	0.747805
O167	O	0.892954	-0.638467	1.074021
O168	O	1.392954	-0.138467	1.574021
C169	C	0.907724	-0.743191	1.056753
C170	C	1.407724	-0.243191	1.556753
H171	H	0.933732	-0.745394	1.005435
H172	H	1.433732	-0.245394	1.505435
H173	H	0.858861	-0.790287	1.054319
H174	H	1.358861	-0.290287	1.554319
H175	H	0.942520	-0.778573	1.096541
H176	H	1.442520	-0.278573	1.596541
H177	H	0.236546	-0.628238	0.404686
H178	H	0.736546	-0.128238	0.904686
O179	O	0.892785	-0.638352	0.578949
O180	O	1.392785	-0.138352	1.078949
C181	C	0.849084	-0.578552	0.538042
C182	C	1.349084	-0.078552	1.038042
H183	H	0.844924	-0.495795	0.559348
H184	H	1.344924	0.004205	1.059348
H185	H	0.796987	-0.616547	0.537226
H186	H	1.296987	-0.116547	1.037226
H187	H	0.870001	-0.574960	0.484474
H188	H	1.370001	-0.074960	0.984474
H189	H	0.899712	-0.627827	0.940306
H190	H	1.399712	-0.127827	1.440306
O191	O	1.063736	-1.113620	0.241045
O192	O	1.563736	-0.613620	0.741045
C193	C	1.131178	-1.086726	0.255907
C194	C	1.631178	-0.586726	0.755907
H195	H	1.132539	-1.007031	0.281911
H196	H	1.632539	-0.507031	0.781911
H197	H	1.161553	-1.082987	0.207086
H198	H	1.661553	-0.582987	0.707086
H199	H	1.153979	-1.148413	0.290740
H200	H	1.653979	-0.648413	0.790740
H201	H	0.364780	-0.628237	0.404656
H202	H	0.864780	-0.128237	0.904656
H203	H	0.592306	-0.628205	0.404622
H204	H	1.092306	-0.128205	0.904622
H205	H	0.720551	-0.628193	0.404600
H206	H	1.220551	-0.128193	0.904600
O207	O	1.063606	-0.373569	0.934706
O208	O	1.563606	0.126431	1.434706
C209	C	1.054293	-0.387973	0.864733
C210	C	1.554293	0.112027	1.364733
H211	H	1.032120	-0.469062	0.855061
H212	H	1.532120	0.030938	1.355061
H213	H	1.104984	-0.380834	0.837876
H214	H	1.604984	0.119166	1.337876
H215	H	1.018244	-0.325670	0.844679
H216	H	1.518244	0.174330	1.344679
H217	H	0.720489	-0.384073	0.247793
H218	H	1.220489	0.115927	0.747793
O219	O	1.063615	-0.373514	0.579155
O220	O	1.563615	0.126486	1.079155
C221	C	1.101851	-0.314219	0.625527
C222	C	1.601851	0.185781	1.125527
H223	H	1.074134	-0.310562	0.675908
H224	H	1.574134	0.189438	1.175908
H225	H	1.109086	-0.231449	0.605115
H226	H	1.609086	0.268551	1.105115
H227	H	1.153249	-0.352696	0.633056
H228	H	1.653249	0.147304	1.133056
H229	H	0.364731	-0.384126	0.247850
H230	H	0.864731	0.115874	0.747850
H231	H	0.236486	-0.384127	0.247872
H232	H	0.736486	0.115873	0.747872
O233	O	0.909384	-0.996392	0.504654
O234	O	1.409384	-0.496392	1.004654
C235	C	0.890901	-0.976700	0.572218
C236	C	1.390901	-0.476700	1.072218
H237	H	0.840415	-1.015984	0.583340
H238	H	1.340415	-0.515984	1.083340
H239	H	0.886157	-0.888587	0.580495
H240	H	1.386157	-0.388587	1.080495
H241	H	0.931184	-1.009604	0.607453
H242	H	1.431184	-0.509604	1.107453
O243	O	1.091241	-0.766117	0.323053
O244	O	1.591241	-0.266117	0.823053
C245	C	1.153363	-0.764481	0.357832
C246	C	1.653363	-0.264481	0.857832
H247	H	1.189977	-0.821382	0.332775
H248	H	1.689977	-0.321382	0.832775
H249	H	1.144985	-0.788799	0.412573
H250	H	1.644985	-0.288799	0.912573
H251	H	1.175358	-0.681940	0.356272
H252	H	1.675358	-0.181940	0.856272
H253	H	0.825770	-1.110203	0.579463
H254	H	1.325770	-0.610203	1.079463
H255	H	0.766184	-1.274453	0.538136
H256	H	1.266184	-0.774453	1.038136
O257	O	0.779991	-1.353315	0.414638
O258	O	1.279991	-0.853315	0.914638
C259	C	0.798494	-1.373030	0.347083
C260	C	1.298494	-0.873030	0.847083
H261	H	0.816280	-1.297072	0.322563
H262	H	1.316280	-0.797072	0.822563
H263	H	0.753074	-1.404882	0.318253
H264	H	1.253074	-0.904882	0.818253
H265	H	0.841089	-1.433078	0.345805
H266	H	1.341089	-0.933078	0.845805
O267	O	1.046892	-1.014773	0.147990
O268	O	1.546892	-0.514773	0.647990
C269	C	0.976450	-1.000105	0.151996
C270	C	1.476450	-0.500105	0.651996
H271	H	0.964772	-0.936812	0.190914
H272	H	1.464772	-0.436812	0.690914
H273	H	0.951331	-1.076683	0.167744
H274	H	1.451331	-0.576683	0.667744
H275	H	0.956288	-0.974959	0.100571
H276	H	1.456288	-0.474959	0.600571
H277	H	1.190277	-0.736777	0.114377
H278	H	1.690277	-0.236777	0.614377
H279	H	1.171309	-0.672090	0.234175
H280	H	1.671309	-0.172090	0.734175
H281	H	1.056807	-0.384119	0.712840
H282	H	1.556807	0.115881	1.212840
