data_functionalizedCrystal
_audit_creation_method	'MofGen! by Chris Wilmer'
_symmetry_space_group_name_H-M	'P1'
_symmetry_Int_Tables_number	1
_symmetry_cell_setting	triclinic
loop_
_symmetry_equiv_pos_as_xyz
  x,y,z
_cell_length_a	10.654550
_cell_length_b	9.130313
_cell_length_c	10.654550
_cell_angle_alpha	89.995631
_cell_angle_beta	84.484931
_cell_angle_gamma	89.999724
loop_
_atom_site_label
_atom_site_type_symbol
_atom_site_fract_x
_atom_site_fract_y
_atom_site_fract_z
O1	O	1.667839	-0.121690	0.176399
O2	O	1.302361	-0.121716	0.193205
O3	O	1.493503	-0.121693	0.002063
O4	O	1.476697	-0.121713	0.367541
O5	O	1.493490	0.121906	0.002057
O6	O	1.302348	0.121882	0.193199
O7	O	1.667826	0.121909	0.176393
Cu8	Cu	1.485086	0.144138	0.184796
Cu9	Cu	1.485101	-0.143946	0.184802
O10	O	1.476684	0.121886	0.367535
C11	C	1.255556	0.000080	0.191968
C12	C	1.116113	0.000070	0.188276
C13	C	1.492263	0.000105	-0.044738
C14	C	1.488571	0.000103	-0.184181
C15	C	1.036628	0.000068	0.300818
C16	C	0.905607	0.000093	0.297341
C17	C	0.933570	0.000117	0.068772
C18	C	1.064588	0.000101	0.072250
C19	C	1.714631	0.000110	0.177630
C20	C	1.854074	0.000110	0.181322
N21	N	1.485084	0.346761	0.184790
N22	N	1.485113	-0.346568	0.184798
C23	C	1.569751	0.423423	0.100188
C24	C	1.569763	0.576760	0.100189
C25	C	1.400437	0.576759	0.269404
C26	C	1.400420	0.423425	0.269396
C27	C	1.601112	0.000111	-0.263667
C28	C	1.597636	0.000092	-0.394688
C29	C	1.369066	0.000065	-0.366725
C30	C	1.372544	0.000073	-0.235706
C31	C	1.477925	0.000084	0.414336
C32	C	1.481616	0.000077	0.553779
H33	H	0.840894	0.000095	0.388984
H34	H	0.891602	0.000151	-0.025693
C35	C	1.726308	0.125314	-0.558273
C36	C	1.721342	0.000102	-0.482064
H37	H	1.802680	0.125308	-0.612220
H38	H	1.722914	0.210252	-0.506593
H39	H	1.656707	0.125282	-0.607706
H40	H	1.790939	0.000139	-0.432624
H41	H	1.724749	-0.084859	-0.533750
H42	H	1.078574	0.000053	0.395294
C43	C	1.797001	-0.125108	-0.247143
C44	C	1.728644	0.000119	-0.207024
H45	H	1.875731	-0.125109	-0.212169
H46	H	1.811034	-0.125100	-0.336538
H47	H	1.750600	-0.210045	-0.219910
H48	H	1.775040	0.085057	-0.234265
H49	H	1.714615	0.000124	-0.117611
H50	H	1.129309	0.000107	-0.019401
C51	C	1.328554	0.623930	0.486140
C52	C	1.307379	0.661025	0.362407
H53	H	1.271096	0.675943	0.543556
H54	H	1.412477	0.649054	0.500559
H55	H	1.316429	0.521633	0.498222
H56	H	1.319514	0.763320	0.350322
H57	H	1.223436	0.635910	0.347983
H58	H	1.331468	0.361002	0.338290
H59	H	1.274601	0.000043	-0.408693
C60	C	1.737141	0.561349	-0.067059
C61	C	1.662837	0.661027	0.007197
H62	H	1.794607	0.613375	-0.124465
H63	H	1.684472	0.501560	-0.112725
H64	H	1.782753	0.501527	-0.014342
H65	H	1.617217	0.720842	-0.045520
H66	H	1.715512	0.720840	0.052866
C67	C	1.178796	-0.125166	-0.171521
C68	C	1.248826	0.000065	-0.148328
H69	H	1.102419	-0.125167	-0.117582
H70	H	1.226330	-0.210092	-0.155782
H71	H	1.160127	-0.125155	-0.256928
H72	H	1.267503	0.000048	-0.062923
H73	H	1.201282	0.085013	-0.164057
H74	H	1.638687	0.361007	0.031295
