data_functionalizedCrystal
_audit_creation_method	'MofGen! by Chris Wilmer'
_symmetry_space_group_name_H-M	'P1'
_symmetry_Int_Tables_number	1
_symmetry_cell_setting	triclinic
loop_
_symmetry_equiv_pos_as_xyz
  x,y,z
_cell_length_a	10.654545
_cell_length_b	10.489741
_cell_length_c	9.730223
_cell_angle_alpha	90.002693
_cell_angle_beta	90.003032
_cell_angle_gamma	84.511126
loop_
_atom_site_label
_atom_site_type_symbol
_atom_site_fract_x
_atom_site_fract_y
_atom_site_fract_z
O1	O	1.667927	0.179132	0.114275
O2	O	1.302456	0.196207	0.114281
O3	O	1.493507	0.002067	0.114270
O4	O	1.476875	0.373271	0.114287
O5	O	1.493494	0.002067	-0.114310
O6	O	1.302442	0.196207	-0.114299
O7	O	1.667913	0.179132	-0.114305
Zn8	Zn	1.485175	0.187669	-0.150594
Zn9	Zn	1.485193	0.187669	0.150570
O10	O	1.476861	0.373271	-0.114293
C11	C	1.255650	0.194955	-0.000008
C12	C	1.116205	0.191207	-0.000006
C13	C	1.050692	0.189443	-0.124606
C14	C	0.919671	0.185901	-0.124606
C15	C	0.919686	0.185892	0.124604
C16	C	1.050706	0.189425	0.124603
C17	C	1.492244	-0.045464	-0.000019
C18	C	1.488486	-0.187091	-0.000017
C19	C	1.366925	-0.255171	-0.000005
C20	C	1.424343	-0.347322	-0.112707
C21	C	1.424385	-0.347296	0.112655
C22	C	1.545953	-0.277377	-0.112812
C23	C	1.545979	-0.277342	0.112651
C24	C	1.603484	-0.369466	-0.000079
C25	C	1.714719	0.180384	-0.000012
C26	C	1.854164	0.184132	-0.000005
C27	C	1.478125	0.420802	-0.000001
C28	C	1.481883	0.562430	0.000005
N29	N	1.485172	0.187669	-0.356130
C30	C	1.562041	0.265754	-0.428049
C31	C	1.562061	0.265747	-0.571932
C32	C	1.408335	0.109566	-0.571965
C33	C	1.408322	0.109567	-0.428084
N34	N	1.485206	0.187660	0.356107
H35	H	1.104049	0.190858	0.226073
N36	N	0.852795	0.184094	0.251895
N37	N	0.911309	0.185670	0.363136
H38	H	0.864070	0.184402	0.453041
H39	H	1.266979	-0.205470	-0.000117
N40	N	1.329777	0.029821	-0.354613
N41	N	1.247185	0.078852	-0.274339
H42	H	1.191716	0.022533	-0.222449
N43	N	1.610450	-0.238398	0.232177
N44	N	1.624455	-0.122700	0.250735
H45	H	1.669982	-0.095192	0.335159
N46	N	1.329809	0.029824	-0.645470
N47	N	1.212907	0.043999	-0.629418
H48	H	1.157441	-0.012316	-0.681330
H49	H	1.624657	0.329330	-0.630481
H50	H	0.866336	0.184465	-0.226068
H51	H	1.372940	-0.378235	0.207945
N52	N	1.117602	0.191289	-0.251881
N53	N	1.092190	0.280661	-0.335295
H54	H	1.139445	0.281968	-0.425186
N55	N	1.359802	-0.386187	-0.232230
N56	N	1.247299	-0.345015	-0.252310
H57	H	1.201708	-0.372459	-0.336718
N58	N	1.610388	-0.238740	-0.232496
N59	N	1.569434	-0.261834	-0.349369
H60	H	1.614935	-0.234544	-0.433899
N61	N	1.728982	-0.431520	-0.000165
N62	N	1.802166	-0.413091	-0.097020
H63	H	1.890799	-0.456916	-0.097087
H64	H	1.624617	0.329349	-0.369468
