data_functionalizedCrystal
_audit_creation_method	'MofGen! by Chris Wilmer'
_symmetry_space_group_name_H-M	'P1'
_symmetry_Int_Tables_number	1
_symmetry_cell_setting	triclinic
loop_
_symmetry_equiv_pos_as_xyz
  x,y,z
_cell_length_a	33.592126
_cell_length_b	33.591377
_cell_length_c	33.588093
_cell_angle_alpha	60.004089
_cell_angle_beta	60.008299
_cell_angle_gamma	59.994549
loop_
_atom_site_label
_atom_site_type_symbol
_atom_site_fract_x
_atom_site_fract_y
_atom_site_fract_z
O1	O	0.055297	-0.581666	0.486338
O2	O	0.555297	-0.081666	0.986338
O3	O	0.020882	-0.452873	0.391864
O4	O	0.520882	0.047127	0.891864
O5	O	0.102445	-0.534352	0.391775
O6	O	0.602445	-0.034352	0.891775
O7	O	-0.026266	-0.500187	0.486427
O8	O	0.473734	-0.000187	0.986427
O9	O	0.129510	-0.507292	0.418747
O10	O	0.629510	-0.007292	0.918747
O11	O	0.047947	-0.425814	0.418835
O12	O	0.547947	0.074186	0.918835
O13	O	0.082362	-0.554606	0.513309
O14	O	0.582362	-0.054606	1.013309
Cu15	Cu	0.067626	-0.487739	0.468535
Cu16	Cu	0.567626	0.012261	0.968535
Cu17	Cu	0.035618	-0.519740	0.436638
Cu18	Cu	0.535618	-0.019740	0.936638
O19	O	0.000799	-0.473128	0.513398
O20	O	0.500799	0.026872	1.013398
N21	N	0.090139	-0.465235	0.490972
N22	N	0.590139	0.034765	0.990972
N23	N	0.013110	-0.542249	0.414202
N24	N	0.513110	-0.042249	0.914202
C25	C	0.124394	-0.431229	0.734914
C26	C	0.624394	0.068771	1.234914
C27	C	0.334265	-0.431145	0.524799
C28	C	0.834265	0.068855	1.024799
C29	C	0.124204	-0.431200	0.524965
C30	C	0.624204	0.068800	1.024965
C31	C	0.124184	-0.221175	0.524955
C32	C	0.624184	0.278825	1.024955
C33	C	0.158017	-0.322536	0.558710
C34	C	0.658017	0.177464	1.058710
C35	C	0.158027	-0.397406	0.558711
C36	C	0.658027	0.102594	1.058711
C37	C	0.176763	-0.378688	0.577408
C38	C	0.676763	0.121312	1.077408
C39	C	0.258412	-0.364594	0.534386
C40	C	0.758412	0.135406	1.034386
C41	C	0.309454	-0.381596	0.517340
C42	C	0.809454	0.118404	1.017340
C43	C	0.309485	-0.464188	0.548836
C44	C	0.809485	0.035812	1.048836
C45	C	0.258444	-0.447186	0.565883
C46	C	0.758444	0.052814	1.065883
C47	C	0.170304	-0.297002	0.508532
C48	C	0.670304	0.202998	1.008532
C49	C	0.153260	-0.245956	0.491537
C50	C	0.653260	0.254044	0.991537
C51	C	0.111648	-0.245983	0.574901
C52	C	0.611648	0.254017	1.074901
C53	C	0.128691	-0.297029	0.591896
C54	C	0.628691	0.202971	1.091896
C55	C	0.107841	-0.385091	0.571080
C56	C	0.607841	0.114909	1.071080
C57	C	0.090813	-0.402108	0.554078
C58	C	0.590813	0.097892	1.054078
C59	C	0.174153	-0.443755	0.512351
C60	C	0.674153	0.056245	1.012351
C61	C	0.191183	-0.426739	0.529347
C62	C	0.691183	0.073261	1.029347
C63	C	0.107923	-0.385106	0.659111
C64	C	0.607923	0.114894	1.159111
C65	C	0.090955	-0.402138	0.710156
C66	C	0.590955	0.097862	1.210156
C67	C	0.174335	-0.443795	0.710087
C68	C	0.674335	0.056205	1.210087
C69	C	0.191302	-0.426764	0.659041
C70	C	0.691302	0.073236	1.159041
C71	C	0.158095	-0.397418	0.633555
C72	C	0.658095	0.102582	1.133555
C73	C	0.232909	-0.397388	0.558656
C74	C	0.732909	0.102612	1.058656
C75	C	0.105069	-0.449619	0.791057
C76	C	0.605069	0.050381	1.291057
C77	C	0.390406	-0.449193	0.505789
C78	C	0.890406	0.050807	1.005789
C79	C	0.104813	-0.449599	0.506607
C80	C	0.604813	0.050401	1.006607
C81	C	0.105125	-0.165028	0.506915
C82	C	0.605125	0.334972	1.006915
C83	C	-0.020560	-0.576246	0.169890
C84	C	0.479440	-0.076246	0.669890
C85	C	-0.020889	-0.786183	0.379970
C86	C	0.479111	-0.286183	0.879970
C87	C	-0.020859	-0.576235	0.380063
C88	C	0.479141	-0.076235	0.880063
C89	C	-0.230772	-0.576015	0.379658
C90	C	0.269228	-0.076015	0.879658
C91	C	-0.129417	-0.609898	0.346025
C92	C	0.370583	-0.109898	0.846025
C93	C	-0.054587	-0.609979	0.346172
C94	C	0.445413	-0.109979	0.846172
C95	C	-0.073269	-0.628671	0.327396
C96	C	0.426731	-0.128671	0.827396
C97	C	-0.087401	-0.710299	0.370335
C98	C	0.412599	-0.210299	0.870335
C99	C	-0.070424	-0.761345	0.387369
C100	C	0.429576	-0.261345	0.887369
C101	C	0.012165	-0.761428	0.356003
C102	C	0.512165	-0.261428	0.856003
C103	C	-0.004813	-0.710383	0.338967
C104	C	0.495187	-0.210383	0.838967
C105	C	-0.155001	-0.622196	0.396191
C106	C	0.344999	-0.122196	0.896191
C107	C	-0.206043	-0.605128	0.413125
C108	C	0.293957	-0.105128	0.913125
C109	C	-0.205914	-0.563467	0.329724
C110	C	0.294086	-0.063467	0.829724
C111	C	-0.154872	-0.580535	0.312790
C112	C	0.345128	-0.080535	0.812790
C113	C	-0.066886	-0.559797	0.333828
C114	C	0.433114	-0.059797	0.833828
C115	C	-0.049903	-0.542809	0.350903
C116	C	0.450097	-0.042809	0.850903
C117	C	-0.008321	-0.626180	0.392654
C118	C	0.491679	-0.126180	0.892654
C119	C	-0.025304	-0.643170	0.375585
C120	C	0.474696	-0.143170	0.875585
C121	C	-0.066758	-0.559805	0.245702
C122	C	0.433242	-0.059805	0.745702
C123	C	-0.049671	-0.542819	0.194658
C124	C	0.450329	-0.042819	0.694658
C125	C	-0.008026	-0.626194	0.194706
C126	C	0.491974	-0.126194	0.694706
C127	C	-0.025111	-0.643179	0.245752
C128	C	0.474889	-0.143179	0.745752
C129	C	-0.054479	-0.609983	0.271248
C130	C	0.445521	-0.109983	0.771248
C131	C	-0.054597	-0.684821	0.346135
C132	C	0.445403	-0.184821	0.846135
C133	C	-0.002109	-0.556901	0.113746
C134	C	0.497891	-0.056901	0.613746
C135	C	-0.002869	-0.842328	0.398966
C136	C	0.497131	-0.342328	0.898966
C137	C	-0.002496	-0.556887	0.398501
C138	C	0.497504	-0.056887	0.898501
C139	C	-0.286914	-0.556929	0.397631
C140	C	0.213086	-0.056929	0.897631
N141	N	0.436349	-0.465146	0.490703
N142	N	0.936349	0.034854	0.990703
O143	O	0.592194	-0.469605	0.374236
O144	O	1.092194	0.030395	0.874236
O145	O	0.592389	-0.564393	0.502890
O146	O	1.092389	-0.064393	1.002890
O147	O	0.592305	-0.564176	0.421300
O148	O	1.092305	-0.064176	0.921300
O149	O	0.592277	-0.469822	0.455826
O150	O	1.092277	0.030178	0.955826
O151	O	0.511216	-0.537214	0.448415
O152	O	1.011216	-0.037214	0.948415
O153	O	0.511300	-0.537431	0.530004
O154	O	1.011300	-0.037431	1.030004
O155	O	0.511104	-0.442643	0.401350
O156	O	1.011104	0.057357	0.901350
Cu157	Cu	0.503798	-0.487575	0.468153
Cu158	Cu	1.003798	0.012425	0.968153
Cu159	Cu	0.599695	-0.519461	0.436087
Cu160	Cu	1.099695	-0.019461	0.936087
O161	O	0.511188	-0.442860	0.482940
O162	O	1.011188	0.057140	0.982940
N163	N	0.667145	-0.541890	0.413532
N164	N	1.167145	-0.041890	0.913532
N165	N	0.090108	-0.119085	0.490958
N166	N	0.590108	0.380915	0.990958
O167	O	-0.026275	0.036848	0.486394
O168	O	0.473725	0.536848	0.986394
O169	O	0.102381	0.036888	0.391584
O170	O	0.602381	0.536888	0.891584
O171	O	0.020751	0.036852	0.391854
O172	O	0.520751	0.536852	0.891854
O173	O	0.055356	0.036884	0.486124
O174	O	0.555356	0.536884	0.986124
O175	O	0.047821	-0.044242	0.418876
O176	O	0.547821	0.455758	0.918876
O177	O	0.129452	-0.044207	0.418606
O178	O	0.629452	0.455793	0.918606
O179	O	0.000796	-0.044246	0.513417
O180	O	0.500796	0.455754	1.013417
Cu181	Cu	0.067596	-0.051631	0.468479
Cu182	Cu	0.567596	0.448369	0.968479
Cu183	Cu	0.035582	0.044273	0.436522
Cu184	Cu	0.535582	0.544273	0.936522
O185	O	0.082426	-0.044211	0.513146
O186	O	0.582426	0.455789	1.013146
N187	N	0.013063	0.111726	0.414043
N188	N	0.513063	0.611726	0.914043
N189	N	0.090453	-0.465282	0.837001
N190	N	0.590453	0.034718	1.337001
O191	O	0.085913	-0.581648	0.992925
O192	O	0.585913	-0.081648	1.492925
O193	O	-0.008857	-0.452947	0.992970
O194	O	0.491143	0.047053	1.492970
O195	O	-0.008635	-0.534562	0.992946
O196	O	0.491365	-0.034562	1.492946
O197	O	0.085691	-0.500033	0.992949
O198	O	0.585691	-0.000033	1.492949
O199	O	0.018365	-0.507512	0.911855
O200	O	0.518365	-0.007512	1.411855
O201	O	0.018143	-0.425898	0.911878
O202	O	0.518143	0.074102	1.411878
O203	O	0.112912	-0.554598	0.911834
O204	O	0.612912	-0.054598	1.411834
Cu205	Cu	0.067993	-0.487778	0.904452
Cu206	Cu	0.567993	0.012222	1.404452
Cu207	Cu	0.036063	-0.519767	1.000352
Cu208	Cu	0.536063	-0.019767	1.500352
O209	O	0.112691	-0.472984	0.911857
O210	O	0.612691	0.027016	1.411857
N211	N	0.013602	-0.542269	1.067803
N212	N	0.513602	-0.042269	1.567803
C213	C	0.031188	-0.423114	0.392334
C214	C	0.531188	0.076886	0.892334
C215	C	0.132194	-0.524016	0.392223
C216	C	0.632194	-0.024016	0.892223
C217	C	0.072056	-0.584366	0.512840
C218	C	0.572056	-0.084366	1.012840
C219	C	-0.028950	-0.483464	0.512950
C220	C	0.471050	0.016536	1.012950
C221	C	0.551868	-0.563965	0.532655
C222	C	1.051868	-0.063965	1.032655
C223	C	0.551766	-0.563697	0.431617
C224	C	1.051766	-0.063697	0.931617
C225	C	0.551623	-0.443070	0.371586
C226	C	1.051623	0.056930	0.871586
C227	C	0.551728	-0.443339	0.472623
C228	C	1.051728	0.056661	0.972623
C229	C	0.132090	-0.003555	0.392006
C230	C	0.632090	0.496445	0.892006
C231	C	0.031035	-0.003698	0.392374
C232	C	0.531035	0.496302	0.892374
C233	C	-0.028947	-0.003703	0.512961
C234	C	0.471053	0.496297	1.012961
C235	C	0.072143	-0.003661	0.512626
C236	C	0.572143	0.496339	1.012626
C237	C	-0.008408	-0.423209	0.952430
C238	C	0.491592	0.076791	1.452430
C239	C	-0.008128	-0.524272	0.952385
C240	C	0.491872	-0.024272	1.452385
C241	C	0.112464	-0.584336	0.952374
C242	C	0.612464	-0.084336	1.452374
C243	C	0.112190	-0.483267	0.952401
C244	C	0.612190	0.016733	1.452401
H245	H	0.080878	-0.361206	0.638363
H246	H	0.580878	0.138794	1.138363
O247	O	0.147901	-0.628464	0.952377
O248	O	0.647901	-0.128464	1.452377
C249	C	0.130356	-0.658803	0.952355
C250	C	0.630356	-0.158803	1.452355
H251	H	0.088826	-0.645602	0.967718
H252	H	0.588826	-0.145602	1.467718
H253	H	0.142737	-0.657475	0.913447
H254	H	0.642737	-0.157475	1.413447
C255	C	0.201578	-0.727784	0.965269
C256	C	0.701578	-0.227784	1.465269
C257	C	0.150569	-0.711573	0.984142
C258	C	0.650569	-0.211573	1.484142
H259	H	0.214047	-0.760335	0.984875
H260	H	0.714047	-0.260335	1.484875
H261	H	0.213399	-0.707344	0.965282
H262	H	0.713399	-0.207344	1.465282
H263	H	0.211888	-0.726673	0.932846
H264	H	0.711888	-0.226673	1.432846
H265	H	0.140259	-0.712678	1.016561
H266	H	0.640259	-0.212678	1.516561
H267	H	0.138746	-0.732015	0.984135
H268	H	0.638746	-0.232015	1.484135
O269	O	0.551692	-0.599016	0.422813
O270	O	1.051692	-0.099016	0.922813
C271	C	0.509673	-0.582245	0.411371
C272	C	1.009673	-0.082245	0.911371
H273	H	0.480313	-0.551986	0.427133
H274	H	0.980313	-0.051986	0.927133
H275	H	0.519118	-0.567523	0.370084
H276	H	1.019118	-0.067523	0.870084
C277	C	0.526737	-0.661853	0.413994
C278	C	1.026737	-0.161853	0.913994
C279	C	0.490675	-0.624691	0.433357
C280	C	0.990675	-0.124691	0.933357
H281	H	0.515019	-0.688036	0.427554
H282	H	1.015019	-0.188036	0.927554
H283	H	0.555047	-0.673152	0.421701
H284	H	1.055047	-0.173152	0.921701
H285	H	0.534605	-0.649578	0.379589
H286	H	1.034605	-0.149578	0.879589
H287	H	0.482813	-0.636965	0.467761
H288	H	0.982813	-0.136965	0.967761
H289	H	0.462364	-0.613395	0.425657
H290	H	0.962364	-0.113395	0.925657
H291	H	0.168963	-0.003318	0.362168
H292	H	0.668963	0.496682	0.862168
O293	O	-0.043511	-0.533074	0.952430
O294	O	0.456489	-0.033074	1.452430
C295	C	-0.084640	-0.527652	0.994414
C296	C	0.415360	-0.027652	1.494414
H297	H	-0.072986	-0.532951	1.023793
H298	H	0.427014	-0.032951	1.523793
H299	H	-0.112263	-0.489573	0.984923
H300	H	0.387737	0.010427	1.484923
C301	C	-0.122311	-0.559501	0.977329
C302	C	0.377689	-0.059501	1.477329
C303	C	-0.107996	-0.566013	1.013413
C304	C	0.392004	-0.066013	1.513413
H305	H	-0.136719	-0.583162	0.989047
H306	H	0.363281	-0.083162	1.489047
H307	H	-0.094602	-0.563152	0.949042
H308	H	0.405398	-0.063152	1.449042
H309	H	-0.145327	-0.527767	0.969423
H310	H	0.354673	-0.027767	1.469423
H311	H	-0.084975	-0.597744	1.021315
H312	H	0.415025	-0.097744	1.521315
H313	H	-0.135701	-0.562368	1.041702
H314	H	0.364299	-0.062368	1.541702
H315	H	0.023834	-0.386116	0.362662
H316	H	0.523834	0.113884	0.862662
O317	O	-0.043859	-0.379094	0.952467
O318	O	0.456141	0.120906	1.452467
C319	C	-0.026304	-0.348746	0.952461
C320	C	0.473696	0.151254	1.452461
H321	H	0.005004	-0.372191	0.967804
H322	H	0.505004	0.127809	1.467804
H323	H	-0.012781	-0.324117	0.913560
H324	H	0.487219	0.175883	1.413560
C325	C	-0.106143	-0.288400	0.965430
C326	C	0.393857	0.211600	1.465430
C327	C	-0.067692	-0.317196	0.984280
C328	C	0.432308	0.182804	1.484280
H329	H	-0.131673	-0.268937	0.985056
H330	H	0.368327	0.231063	1.485056
H331	H	-0.117970	-0.308845	0.965433
H332	H	0.382030	0.191155	1.465433
H333	H	-0.094867	-0.267880	0.933013
H334	H	0.405133	0.232120	1.433013
H335	H	-0.078967	-0.337719	1.016694
H336	H	0.421033	0.162281	1.516694
H337	H	-0.055868	-0.296753	0.984284
H338	H	0.444132	0.203247	1.484284
H339	H	0.079554	-0.003651	0.542242
H340	H	0.579554	0.496349	1.042242
H341	H	0.023621	-0.003702	0.362756
H342	H	0.523621	0.496298	0.862756
O343	O	-0.073061	-0.003686	0.548408
O344	O	0.426939	0.496314	1.048408
C345	C	-0.103422	-0.003711	0.530886
C346	C	0.396578	0.496289	1.030886
H347	H	-0.090239	0.011635	0.489353
H348	H	0.409761	0.511635	0.989353
H349	H	-0.102100	-0.042619	0.543293
H350	H	0.397900	0.457381	1.043293
C351	C	-0.172369	0.009243	0.602100
C352	C	0.327631	0.509243	1.102100
C353	C	-0.156180	0.028095	0.551089
C354	C	0.343820	0.528095	1.051089
H355	H	-0.204913	0.028860	0.614564
H356	H	0.295087	0.528860	1.114564
H357	H	-0.151914	0.009258	0.613906
H358	H	0.348086	0.509258	1.113906
H359	H	-0.171263	-0.023180	0.612433
H360	H	0.328737	0.476820	1.112433
H361	H	-0.157280	0.060515	0.540757
H362	H	0.342720	0.560515	1.040757
H363	H	-0.176636	0.028086	0.539281
H364	H	0.323364	0.528086	1.039281
O365	O	0.206660	-0.472305	0.734765
O366	O	0.706660	0.027695	1.234765
C367	C	0.254581	-0.479505	0.701260
C368	C	0.754581	0.020495	1.201260
H369	H	0.254454	-0.473798	0.664886
H370	H	0.754454	0.026202	1.164886
H371	H	0.269195	-0.452326	0.695818
H372	H	0.769195	0.047674	1.195818
C373	C	0.287511	-0.538802	0.765821
C374	C	0.787511	-0.038802	1.265821
C375	C	0.287356	-0.531797	0.721148
C376	C	0.787356	-0.031797	1.221148
H377	H	0.307729	-0.571057	0.778090
H378	H	0.807729	-0.071057	1.278090
H379	H	0.255226	-0.533951	0.788395
H380	H	0.755226	-0.033951	1.288395
H381	H	0.299688	-0.516149	0.761280
H382	H	0.799688	-0.016149	1.261280
H383	H	0.275173	-0.554445	0.725690
H384	H	0.775173	-0.054445	1.225690
H385	H	0.319640	-0.536654	0.698575
H386	H	0.819640	-0.036654	1.198575
H387	H	-0.090673	-0.532769	0.266460
H388	H	0.409327	-0.032769	0.766460
O389	O	-0.061904	-0.494067	0.338992
O390	O	0.438096	0.005933	0.838992
C391	C	-0.087642	-0.481697	0.381863
C392	C	0.412358	0.018303	0.881863
H393	H	-0.104958	-0.510442	0.412509
H394	H	0.395042	-0.010442	0.912509
H395	H	-0.061425	-0.480025	0.392665
H396	H	0.438575	0.019975	0.892665
C397	C	-0.106515	-0.396311	0.335065
C398	C	0.393485	0.103689	0.835065
C399	C	-0.127785	-0.431613	0.372703
C400	C	0.372215	0.068387	0.872703
H401	H	-0.131275	-0.365416	0.329415
H402	H	0.368725	0.134584	0.829415
H403	H	-0.089173	-0.404644	0.306182
H404	H	0.410827	0.095356	0.806182
H405	H	-0.084668	-0.394924	0.344072
H406	H	0.415332	0.105076	0.844072
H407	H	-0.149627	-0.433004	0.363694
H408	H	0.350373	0.066996	0.863694
H409	H	-0.145132	-0.423279	0.401585
H410	H	0.354868	0.076721	0.901585
O411	O	0.042199	-0.390105	0.734901
O412	O	0.542199	0.109895	1.234901
C413	C	0.016532	-0.360562	0.701457
C414	C	0.516532	0.139438	1.201457
H415	H	0.040851	-0.341997	0.665061
H416	H	0.540851	0.158003	1.165061
H417	H	0.005516	-0.384110	0.696041
H418	H	0.505516	0.115890	1.196041
C419	C	-0.059345	-0.344360	0.766108
C420	C	0.440655	0.155640	1.266108
C421	C	-0.029477	-0.321555	0.721408
C422	C	0.470523	0.178445	1.221408
H423	H	-0.087727	-0.320300	0.778415
H424	H	0.412273	0.179700	1.278415
H425	H	-0.042054	-0.364265	0.788640
H426	H	0.457946	0.135735	1.288640
H427	H	-0.068520	-0.363983	0.761589
H428	H	0.431480	0.136017	1.261589
H429	H	-0.020298	-0.301937	0.725929
H430	H	0.479702	0.198063	1.225929
H431	H	-0.046769	-0.301645	0.698877
H432	H	0.453231	0.198355	1.198877
O433	O	0.042047	-0.390123	0.566157
O434	O	0.542047	0.109877	1.066157
C435	C	0.016432	-0.360578	0.595713
C436	C	0.516432	0.139422	1.095713
H437	H	0.040801	-0.367087	0.614243
H438	H	0.540801	0.132913	1.114243
H439	H	0.005390	-0.320592	0.572184
H440	H	0.505390	0.179408	1.072184
C441	C	-0.059482	-0.365534	0.611995
C442	C	0.440518	0.134466	1.111995
C443	C	-0.029552	-0.373531	0.634756
C444	C	0.470448	0.126469	1.134756
H445	H	-0.087848	-0.373522	0.636077
H446	H	0.412152	0.126478	1.136077
H447	H	-0.042225	-0.385437	0.592080
H448	H	0.457775	0.114563	1.092080
H449	H	-0.068678	-0.332212	0.592388
H450	H	0.431322	0.167788	1.092388
H451	H	-0.020352	-0.406854	0.654358
H452	H	0.479648	0.093146	1.154358
H453	H	-0.046809	-0.353634	0.654675
H454	H	0.453191	0.146366	1.154675
H455	H	0.551560	-0.413310	0.334638
H456	H	1.051560	0.086690	0.834638
O457	O	0.551695	-0.408023	0.481520
O458	O	1.051695	0.091977	0.981520
C459	C	0.551770	-0.425792	0.529429
C460	C	1.051770	0.074208	1.029429
H461	H	0.536460	-0.457114	0.552505
H462	H	1.036460	0.042886	1.052505
H463	H	0.590687	-0.439364	0.528670
H464	H	1.090687	0.060636	1.028670
C465	C	0.538769	-0.346088	0.523275
C466	C	1.038769	0.153912	1.023275
C467	C	0.519960	-0.384556	0.551618
C468	C	1.019960	0.115444	1.051618
H469	H	0.519149	-0.320651	0.536962
H470	H	1.019149	0.179349	1.036962
H471	H	0.538720	-0.334116	0.490997
H472	H	1.038720	0.165884	0.990997
H473	H	0.571199	-0.357404	0.522644
H474	H	1.071199	0.142596	1.022644
H475	H	0.487533	-0.373240	0.552243
H476	H	0.987533	0.126760	1.052243
H477	H	0.520003	-0.396524	0.583897
H478	H	1.020003	0.103476	1.083897
H479	H	0.141823	-0.475877	0.952395
H480	H	0.641823	0.024123	1.452395
H481	H	0.232159	-0.436796	0.638236
H482	H	0.732159	0.063204	1.138236
H483	H	0.080840	-0.361208	0.594989
H484	H	0.580840	0.138792	1.094989
H485	H	0.232048	-0.436761	0.519270
H486	H	0.732048	0.063239	1.019270
O487	O	0.206388	-0.472174	0.483757
O488	O	0.706388	0.027826	0.983757
C489	C	0.235870	-0.446379	0.440949
C490	C	0.735870	0.053621	0.940949
H491	H	0.216136	-0.405545	0.433873
H492	H	0.716136	0.094455	0.933873
H493	H	0.271739	-0.457234	0.445565
H494	H	0.771739	0.042766	0.945565
C495	C	0.270514	-0.508855	0.406202
C496	C	0.770514	-0.008855	0.906202
C497	C	0.246275	-0.458701	0.397508
C498	C	0.746275	0.041299	0.897508
H499	H	0.276935	-0.516457	0.379406
H500	H	0.776935	-0.016457	0.879406
H501	H	0.250653	-0.526235	0.435043
H502	H	0.750653	-0.026235	0.935043
H503	H	0.300403	-0.517894	0.410049
H504	H	0.800403	-0.017894	0.910049
H505	H	0.216384	-0.449664	0.393667
H506	H	0.716384	0.050336	0.893667
H507	H	0.266131	-0.441320	0.368665
H508	H	0.766131	0.058680	0.868665
O509	O	0.233691	-0.479051	0.589379
O510	O	0.733691	0.020949	1.089379
C511	C	0.246150	-0.502958	0.558145
C512	C	0.746150	-0.002958	1.058145
H513	H	0.260148	-0.479710	0.518629
H514	H	0.760148	0.020290	1.018629
H515	H	0.275795	-0.539792	0.566354
H516	H	0.775795	-0.039792	1.066354
C517	C	0.183610	-0.539275	0.614853
C518	C	0.683610	-0.039275	1.114853
C519	C	0.200799	-0.510719	0.566319
C520	C	0.700799	-0.010719	1.066319
H521	H	0.155636	-0.544064	0.619896
H522	H	0.655636	-0.044064	1.119896
H523	H	0.175217	-0.523170	0.635897
H524	H	0.675217	-0.023170	1.135897
H525	H	0.208319	-0.569967	0.621688
H526	H	0.708319	-0.069967	1.121688
H527	H	0.176092	-0.480026	0.559486
H528	H	0.676092	0.019974	1.059486
H529	H	0.209186	-0.526819	0.545274
H530	H	0.709186	-0.026819	1.045274
O531	O	0.334369	-0.512544	0.555793
O532	O	0.834369	-0.012544	1.055793
C533	C	0.384889	-0.520519	0.535554
C534	C	0.884889	-0.020519	1.035554
H535	H	0.391833	-0.485385	0.506295
H536	H	0.891833	0.014615	1.006295
H537	H	0.399403	-0.532281	0.565414
H538	H	0.899403	-0.032281	1.065414
C539	C	0.402556	-0.603956	0.548573
C540	C	0.902556	-0.103956	1.048573
C541	C	0.411086	-0.560805	0.512633
C542	C	0.911086	-0.060805	1.012633
H543	H	0.418717	-0.628807	0.534436
H544	H	0.918717	-0.128807	1.034436
H545	H	0.368521	-0.598584	0.562210
H546	H	0.868521	-0.098584	1.062210
H547	H	0.414652	-0.613751	0.573453
H548	H	0.914652	-0.113751	1.073453
H549	H	0.398985	-0.551008	0.487757
H550	H	0.898985	-0.051008	0.987757
H551	H	0.445121	-0.566176	0.498991
H552	H	0.945121	-0.066176	0.998991
O553	O	0.334154	-0.349672	0.493754
O554	O	0.834154	0.150328	0.993754
C555	C	0.300670	-0.302074	0.491041
C556	C	0.800670	0.197926	0.991041
H557	H	0.264278	-0.300094	0.494410
H558	H	0.764278	0.199906	0.994410
H559	H	0.295267	-0.292547	0.521961
H560	H	0.795267	0.207453	1.021961
C561	C	0.365251	-0.268058	0.437618
C562	C	0.865251	0.231942	0.937618
C563	C	0.320555	-0.265625	0.441753
C564	C	0.820555	0.234375	0.941753
H565	H	0.377517	-0.245574	0.407216
H566	H	0.877517	0.254426	0.907216
H567	H	0.387810	-0.300126	0.439448
H568	H	0.887810	0.199874	0.939448
H569	H	0.360742	-0.260120	0.463388
H570	H	0.860742	0.239880	0.963388
H571	H	0.325066	-0.273569	0.415987
H572	H	0.825066	0.226431	0.915987
H573	H	0.297997	-0.233558	0.439918
H574	H	0.797997	0.266442	0.939918
H575	H	0.237625	-0.324046	0.528499
H576	H	0.737625	0.175954	1.028499
H577	H	0.194180	-0.317769	0.481510
H578	H	0.694180	0.182231	0.981510
O579	O	0.165255	-0.221224	0.442776
O580	O	0.665255	0.278776	0.942776
C581	C	0.194782	-0.254684	0.417130
C582	C	0.694782	0.245316	0.917130
H583	H	0.213370	-0.291071	0.441454
H584	H	0.713370	0.208929	0.941454
H585	H	0.171219	-0.260117	0.406147
H586	H	0.671219	0.239883	0.906147
C587	C	0.210928	-0.190047	0.341221
C588	C	0.710928	0.309953	0.841221
C589	C	0.233761	-0.234738	0.371095
C590	C	0.733761	0.265262	0.871095
H591	H	0.234971	-0.177744	0.312823
H592	H	0.734971	0.322256	0.812823
H593	H	0.191033	-0.167504	0.358498
H594	H	0.691033	0.332496	0.858498
H595	H	0.191293	-0.194581	0.332073
H596	H	0.691293	0.305419	0.832073
H597	H	0.253391	-0.230203	0.380247
H598	H	0.753391	0.269797	0.880247
H599	H	0.253660	-0.257280	0.353818
H600	H	0.753660	0.242720	0.853818
O601	O	0.083153	-0.221278	0.607201
O602	O	0.583153	0.278722	1.107201
C603	C	0.075983	-0.254762	0.655136
C604	C	0.575983	0.245238	1.155136
H605	H	0.081691	-0.291150	0.655047
H606	H	0.581691	0.208850	1.155047
H607	H	0.103174	-0.260181	0.669727
H608	H	0.603174	0.239819	1.169727
C609	C	0.016696	-0.190169	0.688019
C610	C	0.516696	0.309831	1.188019
C611	C	0.023703	-0.234861	0.687909
C612	C	0.523703	0.265139	1.187909
H613	H	-0.015552	-0.177893	0.708236
H614	H	0.484448	0.322107	1.208236
H615	H	0.021528	-0.167610	0.655724
H616	H	0.521528	0.332390	1.155724
H617	H	0.039359	-0.194691	0.700177
H618	H	0.539359	0.305309	1.200177
H619	H	0.001044	-0.230337	0.675746
H620	H	0.501044	0.269663	1.175746
H621	H	0.018866	-0.257419	0.720203
H622	H	0.518866	0.242581	1.220203
H623	H	-0.059677	-0.501957	0.173865
H624	H	0.440323	-0.001957	0.673865
O625	O	0.020506	-0.658507	0.170018
O626	O	0.520506	-0.158507	0.670018
C627	C	0.027665	-0.706438	0.203514
C628	C	0.527665	-0.206438	0.703514
H629	H	0.021913	-0.706336	0.239916
H630	H	0.521913	-0.206336	0.739916
H631	H	0.000496	-0.721024	0.208889
H632	H	0.500496	-0.221024	0.708889
C633	C	0.087020	-0.739351	0.138960
C634	C	0.587020	-0.239351	0.638960
C635	C	0.079959	-0.739227	0.183668
C636	C	0.579959	-0.239227	0.683668
H637	H	0.119277	-0.759578	0.126718
H638	H	0.619277	-0.259578	0.626718
H639	H	0.082196	-0.707060	0.116393
H640	H	0.582196	-0.207060	0.616393
H641	H	0.064376	-0.751505	0.143446
H642	H	0.564376	-0.251505	0.643446
H643	H	0.102599	-0.727067	0.179181
H644	H	0.602599	-0.227067	0.679181
H645	H	0.084789	-0.771518	0.206235
H646	H	0.584789	-0.271518	0.706235
O647	O	-0.095346	-0.527489	0.305282
O648	O	0.404654	-0.027489	0.805282
C649	C	-0.102551	-0.479556	0.298044
C650	C	0.397449	0.020444	0.798044
H651	H	-0.096897	-0.479652	0.328854
H652	H	0.403103	0.020348	0.828854
H653	H	-0.075341	-0.464965	0.261713
H654	H	0.424659	0.035035	0.761713
C655	C	-0.161758	-0.446657	0.259751
C656	C	0.338242	0.053343	0.759751
C657	C	-0.154819	-0.446774	0.297596
C658	C	0.345181	0.053226	0.797596
H659	H	-0.193999	-0.426435	0.259473
H660	H	0.306001	0.073565	0.759473
H661	H	-0.156903	-0.478950	0.264626
H662	H	0.343097	0.021050	0.764626
H663	H	-0.139080	-0.434499	0.229480
H664	H	0.360920	0.065501	0.729480
H665	H	-0.177492	-0.458938	0.327867
H666	H	0.322508	0.041062	0.827867
H667	H	-0.159679	-0.414482	0.292726
H668	H	0.340321	0.085518	0.792726
H669	H	0.118680	-0.317820	0.632757
H670	H	0.618680	0.182180	1.132757
O671	O	0.551914	-0.599515	0.576714
O672	O	1.051914	-0.099515	1.076714
C673	C	0.551956	-0.641499	0.576693
C674	C	1.051956	-0.141499	1.076693
H675	H	0.536565	-0.630698	0.547844
H676	H	1.036565	-0.130698	1.047844
H677	H	0.590873	-0.667976	0.568138
H678	H	1.090873	-0.167976	1.068138
C679	C	0.539123	-0.679451	0.662631
C680	C	1.039123	-0.179451	1.162631
C681	C	0.520217	-0.666184	0.627200
C682	C	1.020217	-0.166184	1.127200
H683	H	0.519547	-0.694680	0.693787
H684	H	1.019547	-0.194680	1.193787
H685	H	0.539097	-0.651167	0.662645
H686	H	1.039097	-0.151167	1.162645
H687	H	0.571554	-0.701513	0.655496
H688	H	1.071554	-0.201513	1.155496
H689	H	0.487790	-0.644118	0.634333
H690	H	0.987790	-0.144118	1.134333
H691	H	0.520237	-0.694466	0.627189
H692	H	1.020237	-0.194466	1.127189
H693	H	0.079411	-0.621363	0.542512
H694	H	0.579411	-0.121363	1.042512
H695	H	-0.015108	-0.684041	0.266548
H696	H	0.484892	-0.184041	0.766548
O697	O	-0.073029	-0.474732	0.548424
O698	O	0.426971	0.025268	1.048424
C699	C	-0.081753	-0.435264	0.559672
C700	C	0.418247	0.064736	1.059672
H701	H	-0.045549	-0.431339	0.548876
H702	H	0.454451	0.068661	1.048876
H703	H	-0.105292	-0.400313	0.538747
H704	H	0.394708	0.099687	1.038747
C705	C	-0.152857	-0.449485	0.628072
C706	C	0.347143	0.050515	1.128072
C707	C	-0.108390	-0.444667	0.614815
C708	C	0.391610	0.055333	1.114815
H709	H	-0.169290	-0.455284	0.662086
H710	H	0.330710	0.044716	1.162086
H711	H	-0.146981	-0.476074	0.620493
H712	H	0.353019	0.023926	1.120493
H713	H	-0.172467	-0.420357	0.610630
H714	H	0.327533	0.079643	1.110630
H715	H	-0.088779	-0.473797	0.632252
H716	H	0.411221	0.026203	1.132252
H717	H	-0.114264	-0.418083	0.622398
H718	H	0.385736	0.081917	1.122398
O719	O	0.020104	-0.658489	0.421234
O720	O	0.520104	-0.158489	0.921234
C721	C	0.027327	-0.706422	0.428452
C722	C	0.527327	-0.206422	0.928452
H723	H	-0.003423	-0.706297	0.422682
H724	H	0.496577	-0.206297	0.922682
H725	H	0.063710	-0.721080	0.401326
H726	H	0.563710	-0.221080	0.901326
C727	C	0.065377	-0.739303	0.487858
C728	C	0.565377	-0.239303	0.987858
C729	C	0.027606	-0.739150	0.480776
C730	C	0.527606	-0.239150	0.980776
H731	H	0.065551	-0.759492	0.520133
H732	H	0.565551	-0.259492	1.020133
H733	H	0.060512	-0.707010	0.482994
H734	H	0.560512	-0.207010	0.982994
H735	H	0.095692	-0.751517	0.465249
H736	H	0.595692	-0.251517	0.965249
H737	H	-0.002708	-0.726930	0.503379
H738	H	0.497292	-0.226930	1.003379
H739	H	0.032465	-0.771441	0.485644
H740	H	0.532465	-0.271441	0.985644
H741	H	0.021903	-0.689639	0.319262
H742	H	0.521903	-0.189639	0.819262
O743	O	0.060540	-0.786242	0.348956
O744	O	0.560540	-0.286242	0.848956
C745	C	0.086936	-0.773792	0.298574
C746	C	0.586936	-0.273792	0.798574
H747	H	0.061895	-0.759737	0.277431
H748	H	0.561895	-0.259737	0.777431
H749	H	0.101606	-0.744189	0.287200
H750	H	0.601606	-0.244189	0.787200
C751	C	0.160531	-0.836430	0.313435
C752	C	0.660531	-0.336430	0.813435
C753	C	0.129777	-0.819171	0.287466
C754	C	0.629777	-0.319171	0.787466
H755	H	0.186959	-0.864421	0.306583
H756	H	0.686959	-0.364421	0.806583
H757	H	0.142749	-0.844816	0.347379
H758	H	0.642749	-0.344816	0.847379
H759	H	0.172752	-0.811757	0.303954
H760	H	0.672752	-0.311757	0.803954
H761	H	0.117553	-0.843842	0.296952
H762	H	0.617553	-0.343842	0.796952
H763	H	0.147559	-0.810790	0.253524
H764	H	0.647559	-0.310790	0.753524
O765	O	-0.102367	-0.786021	0.410943
O766	O	0.397633	-0.286021	0.910943
C767	C	-0.149951	-0.752513	0.413637
C768	C	0.350049	-0.252513	0.913637
H769	H	-0.151902	-0.716120	0.410238
H770	H	0.348098	-0.216120	0.910238
H771	H	-0.159487	-0.747116	0.382726
H772	H	0.340513	-0.247116	0.882726
C773	C	-0.184014	-0.817058	0.467105
C774	C	0.315986	-0.317058	0.967105
C775	C	-0.186412	-0.772361	0.462933
C776	C	0.313588	-0.272361	0.962933
H777	H	-0.206506	-0.829302	0.497511
H778	H	0.293494	-0.329302	0.997511
H779	H	-0.151956	-0.839634	0.465288
H780	H	0.348044	-0.339634	0.965288
H781	H	-0.191960	-0.812556	0.441343
H782	H	0.308040	-0.312556	0.941343
H783	H	-0.178460	-0.776866	0.488691
H784	H	0.321540	-0.276866	0.988691
H785	H	-0.218470	-0.749787	0.464755
H786	H	0.281530	-0.249787	0.964755
H787	H	-0.015291	-0.684031	0.385637
H788	H	0.484709	-0.184031	0.885637
H789	H	-0.134277	-0.646110	0.423254
H790	H	0.365723	-0.146110	0.923254
O791	O	-0.230824	-0.617140	0.461875
O792	O	0.269176	-0.117140	0.961875
C793	C	-0.197412	-0.646708	0.487578
C794	C	0.302588	-0.146708	0.987578
H795	H	-0.161008	-0.665294	0.463273
H796	H	0.338992	-0.165294	0.963273
H797	H	-0.192002	-0.623176	0.498621
H798	H	0.307998	-0.123176	0.998621
C799	C	-0.262108	-0.662862	0.563417
C800	C	0.237892	-0.162862	1.063417
C801	C	-0.217397	-0.685693	0.533568
C802	C	0.282603	-0.185693	1.033568
H803	H	-0.274436	-0.686909	0.591787
H804	H	0.225564	-0.186909	1.091787
H805	H	-0.284619	-0.642940	0.546102
H806	H	0.215381	-0.142940	1.046102
H807	H	-0.257594	-0.643253	0.572615
H808	H	0.242406	-0.143253	1.072615
H809	H	-0.221913	-0.705297	0.524366
H810	H	0.278087	-0.205297	1.024366
H811	H	-0.194887	-0.705619	0.550883
H812	H	0.305113	-0.205619	1.050883
H813	H	-0.127938	-0.689491	0.376175
H814	H	0.372062	-0.189491	0.876175
H815	H	0.169160	-0.531297	0.362501
H816	H	0.669160	-0.031297	0.862501
H817	H	-0.134040	-0.570516	0.271939
H818	H	0.365960	-0.070516	0.771939
O819	O	-0.230568	-0.534937	0.297376
O820	O	0.269432	-0.034937	0.797376
C821	C	-0.197041	-0.527762	0.249464
C822	C	0.302959	-0.027762	0.749464
H823	H	-0.160672	-0.533501	0.249618
H824	H	0.339328	-0.033501	0.749618
H825	H	-0.191602	-0.554932	0.234835
H826	H	0.308398	-0.054932	0.734835
C827	C	-0.261564	-0.468419	0.216492
C828	C	0.238436	0.031581	0.716492
C829	C	-0.216896	-0.475464	0.216681
C830	C	0.283104	0.024536	0.716681
H831	H	-0.273812	-0.436160	0.196269
H832	H	0.226188	0.063840	0.696269
H833	H	-0.284153	-0.473254	0.248771
H834	H	0.215847	0.026746	0.748771
H835	H	-0.257026	-0.491064	0.204302
H836	H	0.242974	0.008936	0.704302
H837	H	-0.221436	-0.452823	0.228876
H838	H	0.278564	0.047177	0.728876
H839	H	-0.194309	-0.470623	0.184404
H840	H	0.305691	0.029377	0.684404
