data_functionalizedCrystal
_audit_creation_method	'MofGen! by Chris Wilmer'
_symmetry_space_group_name_H-M	'P1'
_symmetry_Int_Tables_number	1
_symmetry_cell_setting	triclinic
loop_
_symmetry_equiv_pos_as_xyz
  x,y,z
_cell_length_a	15.297979
_cell_length_b	16.959453
_cell_length_c	15.296720
_cell_angle_alpha	99.644028
_cell_angle_beta	88.354193
_cell_angle_gamma	99.680120
loop_
_atom_site_label
_atom_site_type_symbol
_atom_site_fract_x
_atom_site_fract_y
_atom_site_fract_z
Zn1	Zn	1.253400	-0.235128	-0.727370
Zn2	Zn	1.278668	-0.341284	-0.580899
Zn3	Zn	1.132279	-0.227449	-0.555536
Zn4	Zn	1.106898	-0.385597	-0.701920
O5	O	1.192811	-0.297365	-0.641431
O6	O	1.379328	-0.233879	-0.729206
O7	O	1.280445	-0.304425	-0.454974
O8	O	1.148393	-0.117855	-0.578367
O9	O	1.397892	-0.311871	-0.621594
O10	O	1.237380	-0.123497	-0.704613
O11	O	1.172894	-0.220790	-0.436340
O12	O	1.006336	-0.263759	-0.553689
O13	O	1.105135	-0.387396	-0.827857
O14	O	0.987689	-0.379950	-0.661236
O15	O	1.212770	-0.276847	-0.846555
O16	O	1.255835	-0.457775	-0.596916
O17	O	1.129636	-0.490332	-0.685830
C18	C	0.965229	-0.325830	-0.601949
C19	C	0.867866	-0.338031	-0.585079
C20	C	1.192743	-0.502734	-0.641387
C21	C	1.192790	-0.590588	-0.641411
C22	C	0.831804	-0.384273	-0.521036
C23	C	0.740324	-0.395739	-0.505191
C24	C	0.684899	-0.360958	-0.553381
C25	C	0.720962	-0.314709	-0.617421
C26	C	0.812449	-0.303248	-0.633273
C27	C	0.665545	-0.279932	-0.665618
C28	C	0.701607	-0.233684	-0.729658
C29	C	0.793086	-0.222225	-0.745506
C30	C	0.848511	-0.257006	-0.697316
C31	C	0.574058	-0.291394	-0.649766
C32	C	0.554703	-0.210369	-0.762002
C33	C	0.646182	-0.198903	-0.777848
C34	C	1.239200	-0.964952	-0.707286
C35	C	1.146644	-0.959166	-0.575750
C36	C	1.146615	-0.876621	-0.575724
C37	C	1.192878	-0.838238	-0.641481
C38	C	1.239170	-0.882400	-0.707264
C39	C	1.100316	-0.832455	-0.509947
C40	C	1.100285	-0.749904	-0.509920
C41	C	1.146554	-0.711518	-0.575674
C42	C	1.192848	-0.755685	-0.641459
C43	C	1.239112	-0.717302	-0.707216
C44	C	1.285412	-0.761466	-0.772998
C45	C	1.285439	-0.844014	-0.773018
C46	C	1.146526	-0.628971	-0.575654
C47	C	1.239082	-0.634750	-0.707194
C48	C	1.421281	-0.268789	-0.681069
C49	C	1.518641	-0.256611	-0.697959
C50	C	1.153303	-0.337921	-0.869873
C51	C	1.136466	-0.355204	-0.967222
C52	C	1.192899	-0.091193	-0.641500
C53	C	1.192937	-0.003335	-0.641529
C54	C	1.313174	-0.173699	-1.280573
C55	C	1.328998	-0.157461	-1.189110
C56	C	1.280866	-0.206895	-1.133634
C57	C	1.216908	-0.272570	-1.169629
C58	C	1.201088	-0.288813	-1.261101
C59	C	1.168780	-0.322010	-1.114162
C60	C	1.104822	-0.387685	-1.150157
C61	C	1.089004	-0.403924	-1.241620
C62	C	1.137136	-0.354490	-1.297097
C63	C	1.184601	-0.305767	-1.022689
C64	C	1.072514	-0.420881	-1.003218
C65	C	1.056690	-0.437119	-1.094680
C66	C	1.232216	-0.256902	-0.413887
C67	C	1.249222	-0.239376	-0.316569
H68	H	0.544705	-0.329050	-0.597624
N69	N	0.701429	-0.445614	-0.436123
H70	H	0.750420	-0.465906	-0.407997
H71	H	0.670471	-0.410951	-0.389082
N72	N	1.050426	-0.873853	-0.439026
H73	H	1.021090	-0.833352	-0.397353
H74	H	1.003718	-0.919519	-0.467618
H75	H	1.381074	-0.103990	-1.159810
N76	N	1.096753	-1.000559	-0.504826
H77	H	1.049993	-1.046219	-0.533343
H78	H	1.139477	-1.023089	-0.470488
N79	N	1.365082	-0.120384	-1.340402
H80	H	1.430414	-0.122009	-1.335338
H81	H	1.345284	-0.140672	-1.403779
N82	N	1.050355	-0.702272	-0.438970
H83	H	1.021054	-0.739114	-0.397317
H84	H	1.093042	-0.656362	-0.404651
N85	N	1.289142	-1.012577	-0.778231
H86	H	1.282146	-1.070696	-0.768269
H87	H	1.264636	-1.010951	-0.838393
H88	H	1.124255	-0.367707	-1.371574
N89	N	1.335365	-0.891651	-0.843967
H90	H	1.364672	-0.854811	-0.885620
H91	H	1.382100	-0.914490	-0.815394
N92	N	1.297927	-0.189366	-1.034984
H93	H	1.241654	-0.178432	-1.002539
H94	H	1.317837	-0.237678	-1.015786
N95	N	1.020574	-0.474200	-0.943401
H96	H	1.031393	-0.531805	-0.961653
H97	H	1.040313	-0.453880	-0.880012
H98	H	0.876937	-0.412591	-0.481810
N99	N	1.335313	-0.720068	-0.843921
H100	H	1.310845	-0.747237	-0.904123
H101	H	1.328250	-0.661079	-0.833846
H102	H	0.822443	-0.184575	-0.797660
N103	N	1.096588	-0.581338	-0.504718
H104	H	1.067281	-0.618181	-0.463068
H105	H	1.139266	-0.535425	-0.470394
H106	H	0.675558	-0.161248	-0.829990
N107	N	0.947181	-0.244633	-0.714404
H108	H	0.976817	-0.273681	-0.674153
H109	H	0.958772	-0.267138	-0.778292
N110	N	1.253583	-0.234940	-0.983873
H111	H	1.224575	-0.196018	-0.939757
H112	H	1.300699	-0.255324	-0.953007
H113	H	1.036932	-0.457407	-1.270925
N114	N	0.987697	-0.507942	-1.133505
H115	H	0.984978	-0.510723	-1.199865
H116	H	1.004054	-0.559860	-1.119870
H117	H	0.610414	-0.370296	-0.540475
H118	H	0.509576	-0.182048	-0.801244
H119	H	1.276759	-0.603502	-0.760739
