data_functionalizedCrystal
_audit_creation_method	'MofGen! by Chris Wilmer'
_symmetry_space_group_name_H-M	'P1'
_symmetry_Int_Tables_number	1
_symmetry_cell_setting	triclinic
loop_
_symmetry_equiv_pos_as_xyz
  x,y,z
_cell_length_a	12.759401
_cell_length_b	29.839131
_cell_length_c	12.759393
_cell_angle_alpha	90.044470
_cell_angle_beta	90.020938
_cell_angle_gamma	90.036753
loop_
_atom_site_label
_atom_site_type_symbol
_atom_site_fract_x
_atom_site_fract_y
_atom_site_fract_z
Zn1	Zn	1.606117	-0.178813	0.593918
Zn2	Zn	1.605945	-0.253950	0.418195
Zn3	Zn	1.430415	-0.178837	0.418253
Zn4	Zn	1.430344	-0.253919	0.593833
O5	O	1.518205	-0.216380	0.506050
O6	O	1.753115	-0.188784	0.570620
O7	O	1.582618	-0.244010	0.271182
O8	O	1.453824	-0.115967	0.441616
O9	O	1.752988	-0.243986	0.441517
O10	O	1.582911	-0.115949	0.570676
O11	O	1.453657	-0.188824	0.271224
O12	O	1.283385	-0.188794	0.441533
O13	O	1.453703	-0.243933	0.740865
O14	O	1.283333	-0.243956	0.570530
O15	O	1.582842	-0.188753	0.740928
O16	O	1.582549	-0.316813	0.441434
O17	O	1.453536	-0.316790	0.570474
C18	C	1.245238	-0.216375	0.506029
C19	C	1.128461	-0.216383	0.506045
C20	C	1.073599	-0.245150	0.573108
C21	C	0.963875	-0.245151	0.573129
C22	C	0.963884	-0.187618	0.439014
C23	C	1.073606	-0.187615	0.439000
C24	C	1.518045	-0.333103	0.505961
C25	C	1.518072	-0.383037	0.505958
C26	C	1.585406	-0.692636	0.573347
C27	C	1.585520	-0.880309	0.573410
O28	O	1.642613	-0.904537	0.630641
N29	N	1.518384	-0.903822	0.506166
C30	C	1.451209	-0.880414	0.438907
O31	O	1.394100	-0.904719	0.381721
C32	C	1.451090	-0.692741	0.438850
C33	C	1.518239	-0.669231	0.506091
C34	C	1.652548	-0.669126	0.640583
C35	C	1.652523	-0.622211	0.640563
C36	C	1.585356	-0.598805	0.573306
C37	C	1.518214	-0.622316	0.506070
C38	C	1.383911	-0.669334	0.371596
C39	C	1.383885	-0.622413	0.371590
C40	C	1.451034	-0.598903	0.438831
C41	C	1.451021	-0.551995	0.438793
N42	N	1.518158	-0.528482	0.506037
C43	C	1.585325	-0.551888	0.573293
C44	C	1.451277	-0.978944	0.438940
C45	C	1.451308	-1.025862	0.438953
C46	C	1.585618	-1.025755	0.573458
C47	C	1.585592	-0.978836	0.573439
C48	C	1.518414	-0.955432	0.506184
C49	C	1.585268	-0.453362	0.573245
C50	C	1.585240	-0.406442	0.573215
C51	C	1.450926	-0.406554	0.438714
C52	C	1.450958	-0.453469	0.438739
C53	C	1.518132	-0.476872	0.506013
O54	O	1.393950	-0.527739	0.381601
O55	O	1.642409	-0.527574	0.630487
C56	C	1.585431	-0.739552	0.573368
C57	C	1.518289	-0.763062	0.506132
C58	C	1.451122	-0.739657	0.438875
C59	C	1.518320	-0.809980	0.506144
C60	C	1.585487	-0.833385	0.573401
C61	C	1.652624	-0.809872	0.640645
C62	C	1.652599	-0.762957	0.640624
C63	C	1.383985	-0.763170	0.371631
C64	C	1.384017	-0.810085	0.371656
C65	C	1.451184	-0.833490	0.438913
C66	C	1.792238	-0.216386	0.506071
C67	C	1.909015	-0.216388	0.506081
C68	C	1.518284	-0.216337	0.780083
C69	C	1.518317	-0.216318	0.896860
C70	C	1.518395	-0.099202	0.506162
C71	C	1.518475	-0.049267	0.506209
C72	C	1.518187	-0.216391	0.233082
C73	C	1.518357	-0.216282	0.116306
C74	C	1.585565	-0.187582	0.951756
C75	C	1.585583	-0.187562	1.061481
C76	C	1.451102	-0.245020	1.061402
C77	C	1.451080	-0.245037	0.951680
H78	H	1.639960	-0.472411	0.628033
N79	N	1.378896	-1.051214	0.366412
H80	H	1.303817	-1.043070	0.382661
H81	H	1.389188	-1.084481	0.376648
H82	H	1.640341	-0.164161	1.106172
N83	N	1.378569	-0.275987	1.120530
H84	H	1.388782	-0.271615	1.198369
H85	H	1.394845	-0.308079	1.101330
N86	N	1.725047	-0.835123	0.713207
H87	H	1.767577	-0.813113	0.755813
H88	H	1.773703	-0.854593	0.670505
H89	H	1.396242	-0.387490	0.383951
H90	H	1.396311	-0.268438	0.906982
N91	N	0.904712	-0.156604	0.366681
H92	H	0.859222	-0.135808	0.409464
H93	H	0.859213	-0.174880	0.317940
H94	H	1.118276	-0.164187	0.384389
N95	N	1.132767	-0.276176	0.645418
H96	H	1.081358	-0.294399	0.687906
H97	H	1.178341	-0.257913	0.694117
N98	N	1.725021	-0.737603	0.713150
H99	H	1.767568	-0.759555	0.755756
H100	H	1.682221	-0.718134	0.761731
N101	N	0.904702	-0.276180	0.645456
H102	H	0.956105	-0.294404	0.687922
H103	H	0.859129	-0.296948	0.602593
N104	N	1.378549	-0.478830	0.366206
H105	H	1.335999	-0.456882	0.323593
H106	H	1.329912	-0.498295	0.408938
H107	H	1.707198	-0.603071	0.695319
N108	N	1.657668	-0.381085	0.645740
H109	H	1.700217	-0.403034	0.688351
H110	H	1.614867	-0.361614	0.694316
H111	H	1.640269	-0.959697	0.628193
N112	N	1.724972	-0.694366	0.713158
H113	H	1.767486	-0.672346	0.755751
H114	H	1.773642	-0.713834	0.670468
H115	H	1.329288	-0.744117	0.316864
N116	N	1.658066	-1.051003	0.645999
H117	H	1.647890	-1.084292	0.635798
H118	H	1.641661	-1.042781	0.721016
N119	N	1.378822	-0.953704	0.366390
H120	H	1.336306	-0.975723	0.323796
H121	H	1.421604	-0.934241	0.317801
H122	H	1.329232	-0.688468	0.316841
H123	H	1.329178	-0.603359	0.316823
N124	N	1.311595	-0.835440	0.299119
H125	H	1.269044	-0.813489	0.256515
H126	H	1.262960	-0.854906	0.341851
N127	N	1.658080	-0.156608	0.892627
H128	H	1.700682	-0.138400	0.944057
H129	H	1.615340	-0.135823	0.847114
