data_functionalizedCrystal
_audit_creation_method	'MofGen! by Chris Wilmer'
_symmetry_space_group_name_H-M	'P1'
_symmetry_Int_Tables_number	1
_symmetry_cell_setting	triclinic
loop_
_symmetry_equiv_pos_as_xyz
  x,y,z
_cell_length_a	17.699083
_cell_length_b	16.992695
_cell_length_c	16.176319
_cell_angle_alpha	89.993125
_cell_angle_beta	89.998611
_cell_angle_gamma	86.975619
loop_
_atom_site_label
_atom_site_type_symbol
_atom_site_fract_x
_atom_site_fract_y
_atom_site_fract_z
O1	O	1.010252	0.099146	-0.068631
O2	O	1.510252	0.599146	0.431369
O3	O	0.790676	0.112045	-0.068658
O4	O	1.290676	0.612045	0.431342
O5	O	0.899584	-0.008546	-0.068638
O6	O	1.399584	0.491454	0.431362
O7	O	0.901344	0.219736	-0.068651
O8	O	1.401344	0.719736	0.431349
O9	O	0.899567	-0.008553	0.068855
O10	O	1.399567	0.491447	0.568855
O11	O	0.790660	0.112037	0.068835
O12	O	1.290660	0.612037	0.568835
O13	O	1.010235	0.099138	0.068862
O14	O	1.510235	0.599138	0.568862
Cu15	Cu	0.900446	0.105587	0.081403
Cu16	Cu	1.400446	0.605587	0.581403
Cu17	Cu	0.900465	0.105596	-0.081199
Cu18	Cu	1.400465	0.605596	0.418801
O19	O	0.901328	0.219729	0.068842
O20	O	1.401328	0.719729	0.568842
C21	C	0.762442	0.111579	0.000085
C22	C	1.262442	0.611579	0.500085
C23	C	0.678338	0.110192	0.000075
C24	C	1.178338	0.610192	0.500075
C25	C	0.634124	0.180976	0.000071
C26	C	1.134124	0.680976	0.500071
C27	C	0.555099	0.179669	0.000082
C28	C	1.055099	0.679669	0.500082
C29	C	0.520290	0.107576	0.000091
C30	C	1.020290	0.607576	0.500091
C31	C	0.564510	0.036787	0.000097
C32	C	1.064510	0.536787	0.500097
C33	C	0.643533	0.038095	0.000092
C34	C	1.143533	0.538095	0.500092
C35	C	0.245818	0.031509	0.000118
C36	C	0.745818	0.531509	0.500118
C37	C	0.166789	0.030206	0.000120
C38	C	0.666789	0.530206	0.500120
C39	C	0.157384	0.173082	0.000108
C40	C	0.657384	0.673082	0.500108
C41	C	0.236408	0.174391	0.000103
C42	C	0.736408	0.674391	0.500103
C43	C	0.280621	0.103602	0.000113
C44	C	0.780621	0.603602	0.500113
C45	C	0.366308	0.105020	0.000103
C46	C	0.866308	0.605020	0.500103
C47	C	0.434604	0.106157	0.000095
C48	C	0.934604	0.606157	0.500095
C49	C	0.897311	-0.037758	0.000108
C50	C	1.397311	0.462242	0.500108
C51	C	0.890554	-0.124789	0.000107
C52	C	1.390554	0.375211	0.500107
C53	C	0.955751	-0.175154	0.000116
C54	C	1.455751	0.324846	0.500116
C55	C	0.949398	-0.256928	0.000107
C56	C	1.449398	0.243072	0.500107
C57	C	0.877846	-0.288336	0.000096
C58	C	1.377846	0.211664	0.500096
C59	C	0.812643	-0.237965	0.000084
C60	C	1.312643	0.262035	0.500084
C61	C	0.818998	-0.156192	0.000087
C62	C	1.318998	0.343808	0.500087
C63	C	0.851510	-0.531884	0.000081
C64	C	1.351510	-0.031884	0.500081
C65	C	0.845160	-0.613663	0.000081
C66	C	1.345160	-0.113663	0.500081
C67	C	0.981915	-0.632621	0.000102
C68	C	1.481915	-0.132621	0.500102
C69	C	0.988263	-0.550845	0.000110
C70	C	1.488263	-0.050845	0.500110
C71	C	0.923061	-0.500481	0.000094
C72	C	1.423061	-0.000481	0.500094
N73	N	0.871350	-0.371923	0.000090
N74	N	1.371350	0.128077	0.500090
N75	N	0.929558	-0.416897	0.000095
N76	N	1.429558	0.083103	0.500095
C77	C	1.038469	0.099604	0.000117
C78	C	1.538469	0.599604	0.500117
C79	C	1.122574	0.100991	0.000122
C80	C	1.622574	0.600991	0.500122
C81	C	0.903601	0.248941	0.000094
C82	C	1.403601	0.748941	0.500094
C83	C	0.910358	0.335972	0.000090
C84	C	1.410358	0.835972	0.500090
N85	N	0.900438	0.105580	0.195768
N86	N	1.400438	0.605580	0.695768
N87	N	0.900479	0.105597	-0.195564
N88	N	1.400479	0.605597	0.304436
C89	C	0.948679	0.052204	0.239041
C90	C	1.448679	0.552204	0.739041
C91	C	0.948683	0.052203	0.325588
C92	C	1.448683	0.552203	0.825588
C93	C	0.900449	0.105583	0.368861
C94	C	1.400449	0.605583	0.868861
C95	C	0.852202	0.158961	0.325582
C96	C	1.352202	0.658961	0.825582
C97	C	0.852195	0.158957	0.239036
C98	C	1.352195	0.658957	0.739036
C99	C	0.852229	0.158976	0.674610
C100	C	1.352229	0.658976	1.174610
C101	C	0.852242	0.158977	0.761161
C102	C	1.352242	0.658977	1.261161
C103	C	0.948717	0.052222	0.761162
C104	C	1.448717	0.552222	1.261162
C105	C	0.948709	0.052218	0.674617
C106	C	1.448709	0.552218	1.174617
C107	C	0.900461	0.105593	0.631345
C108	C	1.400461	0.605593	1.131345
C109	C	0.900456	0.105593	0.537501
C110	C	1.400456	0.605593	1.037501
C111	C	0.900457	0.105588	0.462703
C112	C	1.400457	0.605588	0.962703
H113	H	0.138450	-0.028504	0.000128
H114	H	0.638450	0.471496	0.500128
C115	C	0.799137	0.217672	0.373185
C116	C	1.299137	0.717672	0.873185
N117	N	0.759167	0.261893	0.409038
N118	N	1.259167	0.761893	0.909038
H119	H	0.988001	0.008758	0.796403
H120	H	1.488001	0.508758	1.296403
C121	C	0.294442	-0.046362	0.000124
C122	C	0.794442	0.453638	0.500124
N123	N	0.331069	-0.105018	0.000127
N124	N	0.831069	0.394982	0.500127
C125	C	0.526217	-0.042516	0.000108
C126	C	1.026217	0.457484	0.500108
N127	N	0.497375	-0.102248	0.000113
N128	N	0.997375	0.397752	0.500113
C129	C	0.799133	0.217681	0.191436
C130	C	1.299133	0.717681	0.691436
N131	N	0.759165	0.261914	0.155585
N132	N	1.259165	0.761914	0.655585
C133	C	0.274693	0.253698	0.000098
C134	C	0.774693	0.753698	0.500098
N135	N	0.303529	0.313434	0.000101
N136	N	0.803529	0.813434	0.500101
H137	H	0.987964	0.008741	0.360821
H138	H	1.487964	0.508741	0.860821
C139	C	0.799173	0.217696	0.808759
C140	C	1.299173	0.717696	1.308759
N141	N	0.759203	0.261920	0.844610
N142	N	1.259203	0.761920	1.344610
H143	H	1.002489	-0.297933	0.000117
H144	H	1.502489	0.202067	0.500117
H145	H	0.754384	-0.263544	0.000070
H146	H	1.254384	0.236456	0.500070
C147	C	0.506467	0.257537	0.000093
C148	C	1.006467	0.757537	0.500093
N149	N	0.469838	0.316191	0.000107
N150	N	0.969838	0.816191	0.500107
H151	H	0.765906	-0.115186	0.000080
H152	H	1.265906	0.384814	0.500080
H153	H	1.034999	-0.673635	0.000114
H154	H	1.534999	-0.173635	0.500114
C155	C	1.066976	-0.516303	0.000124
C156	C	1.566976	-0.016303	0.500124
N157	N	1.126264	-0.490286	0.000137
N158	N	1.626264	0.009714	0.500137
C159	C	1.001741	-0.006518	0.191450
C160	C	1.501741	0.493482	0.691450
N161	N	1.041706	-0.050753	0.155606
N162	N	1.541706	0.449247	0.655606
C163	C	0.672407	0.260285	0.000063
C164	C	1.172407	0.760285	0.500063
N165	N	0.701239	0.320023	0.000061
N166	N	1.201239	0.820023	0.500061
H167	H	0.987989	0.008755	0.639387
H168	H	1.487989	0.508755	1.139387
C169	C	1.034465	-0.140613	0.000129
C170	C	1.534465	0.359387	0.500129
N171	N	1.093754	-0.114600	0.000135
N172	N	1.593754	0.385400	0.500135
C173	C	0.799258	0.217791	0.627023
C174	C	1.299258	0.717791	1.127023
N175	N	0.759395	0.262131	0.591177
N176	N	1.259395	0.762131	1.091177
H177	H	0.121377	0.230722	0.000103
H178	H	0.621377	0.730722	0.500103
H179	H	0.786891	-0.639232	0.000085
H180	H	1.286891	-0.139232	0.500085
C181	C	0.779784	-0.476494	0.000059
C182	C	1.279784	0.023506	0.500059
N183	N	0.725756	-0.434771	0.000041
N184	N	1.225756	0.065229	0.500041
H185	H	0.679531	-0.019545	0.000095
H186	H	1.179531	0.480455	0.500095
