data_functionalizedCrystal
_audit_creation_method	'MofGen! by Chris Wilmer'
_symmetry_space_group_name_H-M	'P1'
_symmetry_Int_Tables_number	1
_symmetry_cell_setting	triclinic
loop_
_symmetry_equiv_pos_as_xyz
  x,y,z
_cell_length_a	13.032831
_cell_length_b	16.120444
_cell_length_c	13.032268
_cell_angle_alpha	80.356652
_cell_angle_beta	89.113023
_cell_angle_gamma	86.079645
loop_
_atom_site_label
_atom_site_type_symbol
_atom_site_fract_x
_atom_site_fract_y
_atom_site_fract_z
Zn1	Zn	1.458752	-0.562104	0.811467
Zn2	Zn	1.471730	-0.686114	0.646245
Zn3	Zn	1.311068	-0.527334	0.615813
Zn4	Zn	1.278296	-0.681614	0.796125
O5	O	1.379961	-0.614292	0.717412
O6	O	1.603233	-0.594989	0.808706
O7	O	1.469564	-0.652384	0.497601
O8	O	1.338942	-0.415481	0.635452
O9	O	1.612767	-0.686099	0.687318
O10	O	1.447445	-0.441027	0.779198
O11	O	1.351526	-0.535729	0.475243
O12	O	1.163962	-0.531365	0.620575
O13	O	1.283088	-0.678429	0.942767
O14	O	1.139884	-0.644714	0.753049
O15	O	1.415668	-0.590626	0.954039
O16	O	1.437787	-0.801983	0.672442
O17	O	1.295672	-0.798676	0.782558
C18	C	1.114907	-0.583779	0.681846
C19	C	1.001511	-0.570747	0.666656
C20	C	0.939076	-0.621093	0.725340
C21	C	0.821875	-0.607626	0.709642
C22	C	1.364606	-0.830533	0.729163
C23	C	1.358125	-0.923055	0.734238
C24	C	1.413799	-1.135302	0.691345
C25	C	1.346311	-1.092453	0.743516
C26	C	1.352887	-0.998191	0.738352
C27	C	1.407225	-1.229572	0.696508
C28	C	1.646051	-0.644925	0.753118
C29	C	1.759442	-0.657979	0.768334
C30	C	1.344274	-0.637904	0.986946
C31	C	1.329067	-0.647966	1.101806
C32	C	1.395402	-0.397212	0.705642
C33	C	1.401982	-0.304705	0.700626
C34	C	1.415573	-0.590718	0.448932
C35	C	1.430994	-0.580445	0.334087
C36	C	1.387885	-0.609009	1.158590
C37	C	1.372168	-0.619407	1.277304
H38	H	0.788565	-0.554546	0.647779
C39	C	0.983353	-0.691977	0.807763
C40	C	0.954645	-0.769362	0.786148
C41	C	0.995398	-0.834679	0.862064
H42	H	1.056221	-0.691745	0.807427
H43	H	0.957582	-0.684030	0.874264
H44	H	0.980420	-0.777307	0.719665
H45	H	0.881783	-0.769623	0.786494
H46	H	0.969628	-0.826732	0.928565
H47	H	1.068265	-0.834438	0.861722
H48	H	0.975918	-0.887192	0.847415
C49	C	1.262527	-1.137796	0.808148
C50	C	1.166038	-1.103199	0.770901
C51	C	1.088834	-1.144943	0.830416
H52	H	1.269017	-1.196027	0.803105
H53	H	1.269110	-1.131335	0.878833
H54	H	1.159458	-1.109667	0.700233
H55	H	1.159514	-1.044972	0.775946
H56	H	1.095417	-1.138483	0.901101
H57	H	1.095334	-1.203173	0.825369
H58	H	1.023357	-1.121471	0.805158
H59	H	1.449873	-0.567954	1.119319
C60	C	1.497310	-1.089669	0.626630
C61	C	1.487279	-1.003887	0.634282
C62	C	1.564177	-0.961811	0.574667
H63	H	1.562928	-1.112917	0.651690
H64	H	1.490645	-1.096056	0.555928
H65	H	1.493952	-0.997506	0.704969
H66	H	1.421676	-0.980615	0.609214
H67	H	1.557512	-0.968198	0.503965
H68	H	1.629790	-0.985066	0.599732
H69	H	1.557376	-0.903603	0.579843
C70	C	1.289568	-0.674282	1.329533
C71	C	1.309355	-0.756903	1.310775
C72	C	1.233281	-0.807473	1.358860
H73	H	1.289914	-0.674104	1.402377
H74	H	1.224191	-0.652723	1.302012
H75	H	1.374715	-0.778455	1.338299
H76	H	1.309000	-0.757107	1.237941
H77	H	1.167904	-0.785915	1.331340
H78	H	1.233634	-0.807288	1.431701
H79	H	1.246691	-0.863535	1.346131
C80	C	1.513622	-0.525752	1.281551
C81	C	1.512797	-0.526319	1.174252
C82	C	1.588896	-0.475948	1.125823
H83	H	1.500413	-0.469615	1.294047
H84	H	1.579020	-0.547348	1.308980
H85	H	1.447413	-0.504720	1.146832
H86	H	1.526017	-0.582443	1.161726
H87	H	1.654295	-0.497544	1.153252
H88	H	1.575681	-0.419815	1.138327
H89	H	1.588353	-0.476332	1.053017
C90	C	0.957140	-0.499860	0.584291
C91	C	0.985800	-0.422468	0.605928
C92	C	0.944934	-0.357148	0.530082
H93	H	0.982845	-0.507737	0.517757
H94	H	0.884264	-0.500163	0.584714
H95	H	1.058661	-0.422166	0.605495
H96	H	0.960096	-0.414563	0.672449
H97	H	0.872057	-0.357450	0.530504
H98	H	0.970641	-0.365033	0.463552
H99	H	0.964365	-0.304629	0.544757
H100	H	1.267069	-0.689011	1.141076
C101	C	0.803774	-0.728660	0.850991
C102	C	0.765695	-0.716665	0.948860
C103	C	0.806519	-0.781752	1.025028
H104	H	0.784434	-0.781287	0.836621
H105	H	0.876645	-0.728308	0.850653
H106	H	0.692840	-0.717025	0.949195
H107	H	0.785032	-0.664050	0.963263
H108	H	0.879390	-0.781400	1.024690
H109	H	0.787177	-0.834375	1.010648
H110	H	0.780696	-0.773618	1.091441
