data_functionalizedCrystal
_audit_creation_method	'MofGen! by Chris Wilmer'
_symmetry_space_group_name_H-M	'P1'
_symmetry_Int_Tables_number	1
_symmetry_cell_setting	triclinic
loop_
_symmetry_equiv_pos_as_xyz
  x,y,z
_cell_length_a	13.897449
_cell_length_b	12.594516
_cell_length_c	13.897441
_cell_angle_alpha	90.026377
_cell_angle_beta	90.020733
_cell_angle_gamma	90.017332
loop_
_atom_site_label
_atom_site_type_symbol
_atom_site_fract_x
_atom_site_fract_y
_atom_site_fract_z
Zn1	Zn	1.474714	-0.423672	0.545409
Zn2	Zn	1.724714	-0.173672	0.795409
Zn3	Zn	1.974714	0.076328	1.045409
Zn4	Zn	2.224714	0.326328	1.295409
Zn5	Zn	1.474612	-0.601683	0.384123
Zn6	Zn	1.724612	-0.351683	0.634123
Zn7	Zn	1.974612	-0.101683	0.884123
Zn8	Zn	2.224612	0.148317	1.134123
Zn9	Zn	1.313403	-0.423722	0.384128
Zn10	Zn	1.563403	-0.173722	0.634128
Zn11	Zn	1.813403	0.076278	0.884128
Zn12	Zn	2.063403	0.326278	1.134128
Zn13	Zn	1.313389	-0.601613	0.545375
Zn14	Zn	1.563389	-0.351613	0.795375
Zn15	Zn	1.813389	-0.101613	1.045375
Zn16	Zn	2.063389	0.148387	1.295375
O17	O	1.394029	-0.512672	0.464759
O18	O	1.644029	-0.262672	0.714759
O19	O	1.894029	-0.012672	0.964759
O20	O	2.144029	0.237328	1.214759
O21	O	1.609682	-0.447293	0.524027
O22	O	1.859682	-0.197293	0.774027
O23	O	2.109682	0.052707	1.024027
O24	O	2.359682	0.302707	1.274027
O25	O	1.453191	-0.578126	0.249142
O26	O	1.703191	-0.328126	0.499142
O27	O	1.953191	-0.078126	0.749142
O28	O	2.203191	0.171874	0.999142
O29	O	1.334849	-0.274770	0.405539
O30	O	1.584849	-0.024770	0.655539
O31	O	1.834849	0.225230	0.905539
O32	O	2.084849	0.475230	1.155539
O33	O	1.609607	-0.578077	0.405530
O34	O	1.859607	-0.328077	0.655530
O35	O	2.109607	-0.078077	0.905530
O36	O	2.359607	0.171923	1.155530
O37	O	1.453364	-0.274733	0.524032
O38	O	1.703364	-0.024733	0.774032
O39	O	1.953364	0.225267	1.024032
O40	O	2.203364	0.475267	1.274032
O41	O	1.334751	-0.447380	0.249145
O42	O	1.584751	-0.197380	0.499145
O43	O	1.834751	0.052620	0.749145
O44	O	2.084751	0.302620	0.999145
O45	O	1.178419	-0.447312	0.405506
O46	O	1.428419	-0.197312	0.655506
O47	O	1.678419	0.052688	0.905506
O48	O	1.928419	0.302688	1.155506
O49	O	1.334826	-0.577958	0.680362
O50	O	1.584826	-0.327958	0.930362
O51	O	1.834826	-0.077958	1.180362
O52	O	2.084826	0.172042	1.430362
O53	O	1.178409	-0.578007	0.523973
O54	O	1.428409	-0.328007	0.773973
O55	O	1.678409	-0.078007	1.023973
O56	O	1.928409	0.171993	1.273973
O57	O	1.453350	-0.447226	0.680387
O58	O	1.703350	-0.197226	0.930387
O59	O	1.953350	0.052774	1.180387
O60	O	2.203350	0.302774	1.430387
O61	O	1.453177	-0.750619	0.405497
O62	O	1.703177	-0.500619	0.655497
O63	O	1.953177	-0.250619	0.905497
O64	O	2.203177	-0.000619	1.155497
O65	O	1.334728	-0.750568	0.523968
O66	O	1.584728	-0.500568	0.773968
O67	O	1.834728	-0.250568	1.023968
O68	O	2.084728	-0.000568	1.273968
C69	C	1.143415	-0.512658	0.464737
C70	C	1.393415	-0.262658	0.714737
C71	C	1.643415	-0.012658	0.964737
C72	C	1.893415	0.237342	1.214737
C73	C	1.036201	-0.512678	0.464750
C74	C	1.286201	-0.262678	0.714750
C75	C	1.536201	-0.012678	0.964750
C76	C	1.786201	0.237322	1.214750
C77	C	0.839906	-0.512682	0.464776
C78	C	1.089906	-0.262682	0.714776
C79	C	1.339906	-0.012682	0.964776
C80	C	1.589906	0.237318	1.214776
C81	C	0.949139	-0.512676	0.464759
C82	C	1.199139	-0.262676	0.714759
C83	C	1.449139	-0.012676	0.964759
C84	C	1.699139	0.237324	1.214759
C85	C	1.393966	-0.789213	0.464749
C86	C	1.643966	-0.539213	0.714749
C87	C	1.893966	-0.289213	0.964749
C88	C	2.143966	-0.039213	1.214749
C89	C	1.394027	-0.907519	0.464778
C90	C	1.644027	-0.657519	0.714778
C91	C	1.894027	-0.407519	0.964778
C92	C	2.144027	-0.157519	1.214778
C93	C	1.329596	-0.976783	0.529169
C94	C	1.579596	-0.726783	0.779169
C95	C	1.829596	-0.476783	1.029169
C96	C	2.079596	-0.226783	1.279169
C97	C	1.306093	-1.047649	0.441152
C98	C	1.556093	-0.797649	0.691152
C99	C	1.806093	-0.547649	0.941152
C100	C	2.056093	-0.297649	1.191152
C101	C	1.417619	-1.047452	0.552810
C102	C	1.667619	-0.797452	0.802810
C103	C	1.917619	-0.547452	1.052810
C104	C	2.167619	-0.297452	1.302810
C105	C	1.370477	-0.976827	0.376714
C106	C	1.620477	-0.726827	0.626714
C107	C	1.870477	-0.476827	0.876714
C108	C	2.120477	-0.226827	1.126714
C109	C	1.482044	-0.976623	0.488431
C110	C	1.732044	-0.726623	0.738431
C111	C	1.982044	-0.476623	0.988431
C112	C	2.232044	-0.226623	1.238431
C113	C	1.458574	-1.047457	0.400353
C114	C	1.708574	-0.797457	0.650353
C115	C	1.958574	-0.547457	0.900353
C116	C	2.208574	-0.297457	1.150353
C117	C	1.645622	-0.512687	0.464781
C118	C	1.895622	-0.262687	0.714781
C119	C	2.145622	-0.012687	0.964781
C120	C	2.395622	0.237313	1.214781
C121	C	1.752836	-0.512694	0.464791
C122	C	2.002836	-0.262694	0.714791
C123	C	2.252836	-0.012694	0.964791
C124	C	2.502836	0.237306	1.214791
C125	C	1.394098	-0.512578	0.716352
C126	C	1.644098	-0.262578	0.966352
C127	C	1.894098	-0.012578	1.216352
C128	C	2.144098	0.237422	1.466352
C129	C	1.394127	-0.512538	0.823566
C130	C	1.644127	-0.262538	1.073566
C131	C	1.894127	-0.012538	1.323566
C132	C	2.144127	0.237462	1.573566
C133	C	1.394119	-0.235052	0.464789
C134	C	1.644119	0.014948	0.714789
C135	C	1.894119	0.264948	0.964789
C136	C	2.144119	0.514948	1.214789
C137	C	1.394157	-0.116746	0.464802
C138	C	1.644157	0.133254	0.714802
C139	C	1.894157	0.383254	0.964802
C140	C	2.144157	0.633254	1.214802
C141	C	1.394017	-0.512689	0.214145
C142	C	1.644017	-0.262689	0.464145
C143	C	1.894017	-0.012689	0.714145
C144	C	2.144017	0.237311	0.964145
C145	C	1.394174	-0.512430	0.106931
C146	C	1.644174	-0.262430	0.356931
C147	C	1.894174	-0.012430	0.606931
C148	C	2.144174	0.237570	0.856931
C149	C	1.394153	-0.512466	1.019861
C150	C	1.644153	-0.262466	1.269861
C151	C	1.894153	-0.012466	1.519861
C152	C	2.144153	0.237534	1.769861
C153	C	1.394136	-0.512509	0.910629
C154	C	1.644136	-0.262509	1.160629
C155	C	1.894136	-0.012509	1.410629
C156	C	2.144136	0.237491	1.660629
H157	H	1.275011	-0.945749	0.583543
H158	H	1.525011	-0.695749	0.833543
H159	H	1.775011	-0.445749	1.083543
H160	H	2.025011	-0.195749	1.333543
H161	H	1.350490	-0.945932	0.302256
H162	H	1.600490	-0.695932	0.552256
H163	H	1.850490	-0.445932	0.802256
H164	H	2.100490	-0.195932	1.052256
H165	H	1.513117	-1.078294	0.345847
H166	H	1.763117	-0.828294	0.595847
H167	H	2.013117	-0.578294	0.845847
H168	H	2.263117	-0.328294	1.095847
H169	H	1.437520	-1.078475	0.627247
H170	H	1.687520	-0.828475	0.877247
H171	H	1.937520	-0.578475	1.127247
H172	H	2.187520	-0.328475	1.377247
H173	H	1.231719	-1.078870	0.421166
H174	H	1.481719	-0.828870	0.671166
H175	H	1.731719	-0.578870	0.921166
H176	H	1.981719	-0.328870	1.171166
H177	H	1.556401	-0.945405	0.508459
H178	H	1.806401	-0.695405	0.758459
H179	H	2.056401	-0.445405	1.008459
H180	H	2.306401	-0.195405	1.258459
