data_functionalizedCrystal
_audit_creation_method	'MofGen! by Chris Wilmer'
_symmetry_space_group_name_H-M	'P1'
_symmetry_Int_Tables_number	1
_symmetry_cell_setting	triclinic
loop_
_symmetry_equiv_pos_as_xyz
  x,y,z
_cell_length_a	23.532407
_cell_length_b	14.519709
_cell_length_c	12.996460
_cell_angle_alpha	90.007090
_cell_angle_beta	90.000251
_cell_angle_gamma	83.264411
loop_
_atom_site_label
_atom_site_type_symbol
_atom_site_fract_x
_atom_site_fract_y
_atom_site_fract_z
O1	O	-0.755765	-0.111951	-0.085441
O2	O	-0.422432	0.221382	0.247893
O3	O	-0.089099	0.554716	0.581226
O4	O	-0.589975	-0.128149	-0.085471
O5	O	-0.256642	0.205184	0.247862
O6	O	0.076692	0.538518	0.581195
O7	O	-0.677266	0.014240	-0.085446
O8	O	-0.343933	0.347574	0.247887
O9	O	-0.010599	0.680907	0.581221
O10	O	-0.668475	-0.254341	-0.085466
O11	O	-0.335141	0.078993	0.247867
O12	O	-0.001808	0.412326	0.581201
O13	O	-0.677257	0.014248	0.085688
O14	O	-0.343924	0.347581	0.419021
O15	O	-0.010590	0.680915	0.752355
O16	O	-0.589966	-0.128141	0.085663
O17	O	-0.256633	0.205192	0.418996
O18	O	0.076701	0.538525	0.752329
O19	O	-0.755756	-0.111943	0.085693
O20	O	-0.422423	0.221390	0.419026
O21	O	-0.089090	0.554723	0.752360
Cu22	Cu	-0.672860	-0.120042	0.101304
Cu23	Cu	-0.339527	0.213292	0.434637
Cu24	Cu	-0.006194	0.546625	0.767970
Cu25	Cu	-0.672871	-0.120051	-0.101082
Cu26	Cu	-0.339538	0.213283	0.232252
Cu27	Cu	-0.006204	0.546616	0.565585
O28	O	-0.668465	-0.254333	0.085668
O29	O	-0.335132	0.079001	0.419001
O30	O	-0.001799	0.412334	0.752334
C31	C	-0.676852	0.048599	0.000121
C32	C	-0.343518	0.381933	0.333454
C33	C	-0.010185	0.715266	0.666788
C34	C	-0.675624	0.150966	0.000121
C35	C	-0.342291	0.484299	0.333455
C36	C	-0.008957	0.817633	0.666788
C37	C	-0.568753	-0.127733	0.000092
C38	C	-0.235419	0.205601	0.333425
C39	C	0.097914	0.538934	0.666759
C40	C	-0.505530	-0.126493	0.000081
C41	C	-0.172197	0.206841	0.333414
C42	C	0.161137	0.540174	0.666747
C43	C	-0.776979	-0.112360	0.000128
C44	C	-0.443645	0.220974	0.333461
C45	C	-0.110312	0.554307	0.666794
C46	C	-0.840201	-0.113600	0.000132
C47	C	-0.506868	0.219734	0.333466
C48	C	-0.173535	0.553067	0.666799
C49	C	-0.106772	-0.202977	0.000121
C50	C	0.226561	0.130356	0.333455
C51	C	0.559895	0.463689	0.666788
C52	C	-0.047367	-0.201825	0.000128
C53	C	0.285967	0.131508	0.333461
C54	C	0.619300	0.464841	0.666794
O55	O	-0.010942	-0.272727	0.000160
O56	O	0.322391	0.060606	0.333493
O57	O	0.655725	0.393939	0.666827
N58	N	-0.024358	-0.117175	0.000132
N59	N	0.308975	0.216159	0.333466
N60	N	0.642308	0.549492	0.666799
C61	C	-0.060759	-0.033671	0.000141
C62	C	0.272574	0.299663	0.333475
C63	C	0.605907	0.632996	0.666808
O64	O	-0.035734	0.038437	0.000147
O65	O	0.297599	0.371770	0.333480
O66	O	0.630932	0.705104	0.666813
C67	C	-0.120164	-0.034824	0.000142
C68	C	0.213170	0.298510	0.333475
C69	C	0.546503	0.631843	0.666809
C70	C	-0.143168	-0.119480	0.000127
C71	C	0.190165	0.213854	0.333460
C72	C	0.523498	0.547187	0.666794
C73	C	-0.129777	-0.287626	0.000107
C74	C	0.203556	0.045707	0.333441
C75	C	0.536889	0.379040	0.666774
C76	C	-0.189179	-0.288778	0.000099
C77	C	0.144155	0.044555	0.333433
C78	C	0.477488	0.377889	0.666766
C79	C	-0.225575	-0.205281	0.000105
C80	C	0.107759	0.128053	0.333438
C81	C	0.441092	0.461386	0.666771
C82	C	-0.202570	-0.120631	0.000119
C83	C	0.130764	0.212702	0.333452
C84	C	0.464097	0.546035	0.666785
C85	C	-0.156563	0.048679	0.000158
C86	C	0.176770	0.382012	0.333492
C87	C	0.510103	0.715346	0.666825
C88	C	-0.215971	0.047519	0.000160
C89	C	0.117362	0.380852	0.333493
C90	C	0.450696	0.714185	0.666827
C91	C	-0.238976	-0.037137	0.000145
C92	C	0.094358	0.296196	0.333478
C93	C	0.427691	0.629529	0.666812
C94	C	-0.298367	-0.038286	0.000116
C95	C	0.034966	0.295048	0.333449
C96	C	0.368300	0.628381	0.666783
N97	N	-0.321375	-0.122936	0.000111
N98	N	0.011958	0.210397	0.333445
N99	N	0.345291	0.543731	0.666778
C100	C	-0.284979	-0.206434	0.000106
C101	C	0.048354	0.126900	0.333439
C102	C	0.381688	0.460233	0.666772
C103	C	0.063994	-0.031256	0.000141
C104	C	0.397327	0.302078	0.333474
C105	C	0.730661	0.635411	0.666808
C106	C	0.123397	-0.030102	0.000133
C107	C	0.456731	0.303232	0.333466
C108	C	0.790064	0.636565	0.666799
C109	C	0.136786	-0.198257	0.000121
C110	C	0.470119	0.135077	0.333454
C111	C	0.803453	0.468410	0.666788
C112	C	0.077382	-0.199410	0.000122
C113	C	0.410715	0.133924	0.333455
C114	C	0.744048	0.467257	0.666789
C115	C	0.040986	-0.115906	0.000136
C116	C	0.374319	0.217427	0.333470
C117	C	0.707653	0.550760	0.666803
C118	C	-0.409727	-0.208846	0.000087
C119	C	-0.076393	0.124488	0.333421
C120	C	0.256940	0.457821	0.666754
C121	C	-0.469134	-0.209990	0.000075
C122	C	-0.135801	0.123343	0.333408
C123	C	0.197533	0.456677	0.666742
C124	C	-0.482517	-0.041836	0.000092
C125	C	-0.149184	0.291498	0.333425
C126	C	0.184149	0.624831	0.666758
C127	C	-0.423115	-0.040691	0.000099
C128	C	-0.089782	0.292642	0.333432
C129	C	0.243551	0.625976	0.666766
C130	C	-0.386721	-0.124204	0.000100
C131	C	-0.053388	0.209130	0.333434
C132	C	0.279946	0.542463	0.666767
O133	O	-0.334827	0.032579	0.000088
O134	O	-0.001493	0.365913	0.333422
O135	O	0.331840	0.699246	0.666755
O136	O	-0.310012	-0.278529	0.000114
O137	O	0.023321	0.054804	0.333447
O138	O	0.356654	0.388137	0.666781
C139	C	-0.668880	-0.288692	0.000099
C140	C	-0.335546	0.044642	0.333432
C141	C	-0.002213	0.377975	0.666765
C142	C	-0.670107	-0.391058	0.000091
C143	C	-0.336774	-0.057725	0.333425
C144	C	-0.003441	0.275608	0.666758
N145	N	-0.672857	-0.120035	0.243651
N146	N	-0.339524	0.213299	0.576984
N147	N	-0.006190	0.546632	0.910318
C148	C	-0.671104	0.525808	0.000094
C149	C	-0.337771	0.859142	0.333427
C150	C	-0.004437	1.192475	0.666761
C151	C	-0.672359	0.421515	0.000102
C152	C	-0.339026	0.754849	0.333435
C153	C	-0.005692	1.088182	0.666769
C154	C	-0.673364	0.338390	0.000109
C155	C	-0.340030	0.671724	0.333442
C156	C	-0.006697	1.005057	0.666775
C157	C	-0.674619	0.234091	0.000115
C158	C	-0.341286	0.567424	0.333448
C159	C	-0.007953	0.900757	0.666781
N160	N	-0.672879	-0.120050	-0.243429
N161	N	-0.339546	0.213283	0.089904
N162	N	-0.006212	0.546616	0.423238
C163	C	-0.672870	-0.120052	0.663465
C164	C	-0.339537	0.213282	0.996798
C165	C	-0.006204	0.546615	1.330132
C166	C	-0.672865	-0.120050	0.546660
C167	C	-0.339532	0.213283	0.879993
C168	C	-0.006198	0.546617	1.213327
C169	C	-0.672864	-0.120044	0.453562
C170	C	-0.339531	0.213290	0.786895
C171	C	-0.006197	0.546623	1.120228
C172	C	-0.672858	-0.120041	0.336749
C173	C	-0.339525	0.213293	0.670082
C174	C	-0.006191	0.546626	1.003416
H175	H	-0.487860	-0.278930	0.000062
H176	H	-0.154527	0.054403	0.333395
H177	H	0.178806	0.387737	0.666729
Br178	Br	0.154610	0.084793	0.000122
Br179	Br	0.487943	0.418126	0.333455
Br180	Br	0.821277	0.751460	0.666789
Br181	Br	0.014605	0.082082	0.000151
Br182	Br	0.347938	0.415415	0.333484
Br183	Br	0.681272	0.748748	0.666818
H184	H	-0.512162	0.026146	0.000092
H185	H	-0.178828	0.359479	0.333426
H186	H	0.154505	0.692812	0.666759
H187	H	-0.100149	-0.355624	0.000107
H188	H	0.233185	-0.022291	0.333440
H189	H	0.566518	0.311043	0.666773
Br190	Br	-0.220389	-0.403674	0.000083
Br191	Br	0.112944	-0.070341	0.333417
Br192	Br	0.446277	0.262992	0.666750
H193	H	0.058656	-0.268344	0.000116
H194	H	0.391989	0.064989	0.333449
H195	H	0.725322	0.398323	0.666782
Br196	Br	-0.360343	-0.322185	0.000091
Br197	Br	-0.027010	0.011148	0.333424
Br198	Br	0.306323	0.344481	0.666758
H199	H	0.166431	-0.266245	0.000121
H200	H	0.499764	0.067089	0.333455
H201	H	0.833097	0.400422	0.666788
Br202	Br	-0.125358	0.163577	0.000156
Br203	Br	0.207975	0.496910	0.333489
Br204	Br	0.541308	0.830243	0.666823
H205	H	-0.404384	0.028243	0.000096
H206	H	-0.071051	0.361576	0.333429
H207	H	0.262282	0.694909	0.666763
Br208	Br	-0.265362	0.160852	0.000185
Br209	Br	0.067971	0.494185	0.333518
Br210	Br	0.401304	0.827518	0.666851
