data_functionalizedCrystal
_audit_creation_method	'MofGen! by Chris Wilmer'
_symmetry_space_group_name_H-M	'P1'
_symmetry_Int_Tables_number	1
_symmetry_cell_setting	triclinic
loop_
_symmetry_equiv_pos_as_xyz
  x,y,z
_cell_length_a	16.625546
_cell_length_b	17.077404
_cell_length_c	17.077396
_cell_angle_alpha	89.981638
_cell_angle_beta	89.969785
_cell_angle_gamma	90.020438
loop_
_atom_site_label
_atom_site_type_symbol
_atom_site_fract_x
_atom_site_fract_y
_atom_site_fract_z
Zn1	Zn	-0.321045	1.200057	-0.443809
Zn2	Zn	-0.455888	1.199965	-0.312539
Zn3	Zn	-0.321068	1.068789	-0.312560
Zn4	Zn	-0.455835	1.068758	-0.443766
O5	O	-0.388459	1.134392	-0.378169
O6	O	-0.338945	1.309892	-0.426406
O7	O	-0.438036	1.182539	-0.202695
O8	O	-0.208233	1.086253	-0.329997
O9	O	-0.438013	1.309824	-0.329962
O10	O	-0.208216	1.182695	-0.426426
O11	O	-0.338984	1.086164	-0.202710
O12	O	-0.338933	0.958938	-0.329955
O13	O	-0.437923	1.086200	-0.553618
O14	O	-0.437945	0.958915	-0.426351
O15	O	-0.338894	1.182665	-0.553651
O16	O	-0.568713	1.182509	-0.329920
O17	O	-0.568674	1.086111	-0.426331
C18	C	-0.388436	0.930444	-0.378151
C19	C	-0.388446	0.843194	-0.378162
C20	C	-0.336953	0.802240	-0.428457
C21	C	-0.336958	0.720260	-0.428460
C22	C	-0.388461	0.679235	-0.378173
C23	C	-0.439956	0.720195	-0.327872
C24	C	-0.439947	0.802174	-0.327865
C25	C	-0.439975	0.549325	-0.327892
C26	C	-0.439986	0.467340	-0.327900
C27	C	-0.336986	0.467411	-0.428487
C28	C	-0.336976	0.549390	-0.428480
C29	C	-0.388473	0.590344	-0.378180
C30	C	-0.597950	1.134318	-0.378136
C31	C	-0.687571	1.134358	-0.378148
C32	C	-1.015747	1.134495	-0.378230
C33	C	-0.924438	1.134454	-0.378209
C34	C	-0.851662	1.134426	-0.378188
C35	C	-0.760348	1.134386	-0.378169
C36	C	-0.178150	1.134488	-0.378219
C37	C	-0.088529	1.134529	-0.378240
C38	C	-0.388400	1.134440	-0.582913
C39	C	-0.388374	1.134460	-0.670163
C40	C	-0.388483	1.339136	-0.378187
C41	C	-0.388493	1.426386	-0.378194
C42	C	-0.336806	1.184691	-0.711171
C43	C	-0.336779	1.184700	-0.793151
C44	C	-0.388325	1.134482	-0.834122
C45	C	-0.439896	1.084245	-0.793108
C46	C	-0.439919	1.084233	-0.711129
C47	C	-0.439848	1.084277	-0.963979
C48	C	-0.439827	1.084291	-1.045963
C49	C	-0.336708	1.184745	-1.046001
C50	C	-0.336730	1.184732	-0.964022
C51	C	-0.388303	1.134496	-0.923013
C52	C	-0.388460	1.134390	-0.174221
C53	C	-0.388258	1.134522	-0.086971
H54	H	-0.295029	0.686918	-0.469417
H55	H	-0.481887	0.686786	-0.286923
H56	H	-0.481799	1.043397	-1.079319
H57	H	-0.481903	1.043321	-0.677742
H58	H	-0.294715	1.225647	-1.079393
O59	O	-0.490116	0.589076	-0.279118
C60	C	-0.570500	0.569016	-0.296127
H61	H	-0.574650	0.546500	-0.358831
H62	H	-0.610320	0.622916	-0.289298
H63	H	-0.591531	0.521411	-0.254008
O64	O	-0.490034	1.035466	-0.924263
C65	C	-0.535522	0.991139	-0.978002
H66	H	-0.538283	1.023292	-1.036449
H67	H	-0.599062	0.982757	-0.954305
H68	H	-0.506005	0.931526	-0.986707
H69	H	-0.481925	0.433940	-0.286951
H70	H	-0.481877	0.835518	-0.286910
H71	H	-0.294788	1.225605	-0.826537
H72	H	-0.295015	0.835637	-0.469409
H73	H	-0.294833	1.225587	-0.677818
O74	O	-0.490081	1.035501	-0.832820
C75	C	-0.570451	1.052629	-0.812783
H76	H	-0.572142	1.082792	-0.753264
H77	H	-0.606600	0.995959	-0.809961
H78	H	-0.597602	1.092982	-0.858920
O79	O	-0.287043	0.427669	-0.477458
C80	C	-0.304756	0.447743	-0.555659
H81	H	-0.369175	0.470260	-0.559505
H82	H	-0.297865	0.393849	-0.594458
H83	H	-0.261554	0.495351	-0.576251
O84	O	-0.286910	0.589330	-0.477221
C85	C	-0.234758	0.636730	-0.432613
H86	H	-0.263116	0.648974	-0.373073
H87	H	-0.223993	0.694397	-0.464597
H88	H	-0.174994	0.605151	-0.424100
O89	O	-0.286584	1.233539	-0.924342
C90	C	-0.241073	1.277895	-0.978114
H91	H	-0.238258	1.245757	-1.036549
H92	H	-0.177554	1.286293	-0.954441
H93	H	-0.270605	1.337500	-0.986833
