data_functionalizedCrystal
_audit_creation_method	'MofGen! by Chris Wilmer'
_symmetry_space_group_name_H-M	'P1'
_symmetry_Int_Tables_number	1
_symmetry_cell_setting	triclinic
loop_
_symmetry_equiv_pos_as_xyz
  x,y,z
_cell_length_a	13.101018
_cell_length_b	10.723024
_cell_length_c	10.723024
_cell_angle_alpha	84.467869
_cell_angle_beta	93.392007
_cell_angle_gamma	86.605939
loop_
_atom_site_label
_atom_site_type_symbol
_atom_site_fract_x
_atom_site_fract_y
_atom_site_fract_z
O1	O	0.085205	-1.664002	-0.168205
O2	O	0.085209	-1.300850	-0.184958
O3	O	0.085203	-1.490802	0.004995
O4	O	0.085211	-1.474049	-0.358157
O5	O	-0.085227	-1.477157	-0.008646
O6	O	-0.085221	-1.287205	-0.198598
O7	O	-0.085225	-1.650357	-0.181845
Zn8	Zn	-0.112282	-1.466615	-0.192388
Zn9	Zn	0.112267	-1.484592	-0.174415
O10	O	-0.085219	-1.460405	-0.371798
C11	C	-0.000006	-1.247528	-0.190559
C12	C	-0.000005	-1.108974	-0.186911
C13	C	-0.000011	-1.482761	0.044674
C14	C	-0.000007	-1.479113	0.183229
N15	N	-0.265531	-1.454355	-0.204653
C16	C	-0.525442	-1.513535	-0.145449
C17	C	-0.474567	-1.437685	-0.221340
C18	C	-0.358249	-1.446963	-0.212053
C19	C	-0.641771	-1.504260	-0.154735
N20	N	0.265515	-1.496862	-0.162141
C21	C	-0.000008	-1.703679	-0.176244
C22	C	-0.000002	-1.842234	-0.179891
C23	C	-0.000002	-1.033991	-0.293198
C24	C	-0.000000	-0.890788	-0.289431
C25	C	-0.000003	-1.468446	-0.411477
C26	C	0.000000	-1.472094	-0.550031
C27	C	-0.000006	-1.585401	0.258211
C28	C	-0.000003	-1.581634	0.401415
H29	H	-0.518370	-1.365781	-0.293289
H30	H	-0.000006	-1.075813	-0.386985
F31	F	-0.000002	-1.707991	0.203554
H32	H	-0.481644	-1.585436	-0.073507
H33	H	0.000006	-0.826356	-0.380421
H34	H	-0.000007	-1.381098	0.385543
H35	H	0.000002	-0.906659	-0.088895
H36	H	0.000020	-1.067153	-0.093123
F37	F	-0.000009	-1.700569	0.485628
F38	F	0.000004	-1.356525	0.237887
