data_functionalizedCrystal
_audit_creation_method	'MofGen! by Chris Wilmer'
_symmetry_space_group_name_H-M	'P1'
_symmetry_Int_Tables_number	1
_symmetry_cell_setting	triclinic
loop_
_symmetry_equiv_pos_as_xyz
  x,y,z
_cell_length_a	23.532407
_cell_length_b	23.532361
_cell_length_c	16.176319
_cell_angle_alpha	90.003144
_cell_angle_beta	89.988536
_cell_angle_gamma	97.160827
loop_
_atom_site_label
_atom_site_type_symbol
_atom_site_fract_x
_atom_site_fract_y
_atom_site_fract_z
O1	O	0.069010	-0.755279	-0.068672
O2	O	0.079041	-0.589412	-0.068693
O3	O	-0.008907	-0.677347	-0.068667
O4	O	0.156958	-0.667344	-0.068698
O5	O	-0.008913	-0.677335	0.068826
O6	O	0.079035	-0.589400	0.068800
O7	O	0.069004	-0.755267	0.068821
Cu8	Cu	0.074019	-0.672332	0.081365
Cu9	Cu	0.074026	-0.672346	-0.081237
O10	O	0.156952	-0.667332	0.068795
C11	C	-0.030126	-0.677086	0.000082
C12	C	-0.093343	-0.676320	0.000088
C13	C	0.078787	-0.568189	0.000051
C14	C	0.078032	-0.504971	0.000044
C15	C	0.069258	-0.776489	0.000075
C16	C	0.070014	-0.839708	0.000077
C17	C	-0.492454	-0.723555	0.000049
C18	C	-0.551854	-0.722844	0.000043
O19	O	-0.588606	-0.766630	0.000018
N20	N	-0.574471	-0.670566	0.000037
C21	C	-0.537685	-0.618997	0.000028
O22	O	-0.562377	-0.574465	0.000022
C23	C	-0.478286	-0.619709	0.000029
C24	C	-0.455672	-0.671990	0.000043
C25	C	-0.469839	-0.775832	0.000062
C26	C	-0.410443	-0.776543	0.000070
C27	C	-0.373662	-0.724977	0.000065
C28	C	-0.396276	-0.672701	0.000051
C29	C	-0.441501	-0.568140	0.000015
C30	C	-0.382099	-0.568857	0.000015
C31	C	-0.359485	-0.621137	0.000029
C32	C	-0.300099	-0.621847	0.000054
N33	N	-0.277481	-0.674124	0.000060
C34	C	-0.314263	-0.725690	0.000065
C35	C	-0.662427	-0.617505	0.000026
C36	C	-0.721825	-0.616793	0.000032
C37	C	-0.735990	-0.720640	0.000044
C38	C	-0.676591	-0.721352	0.000045
C39	C	-0.639810	-0.669783	0.000032
C40	C	-0.189526	-0.727179	0.000082
C41	C	-0.130124	-0.727886	0.000094
C42	C	-0.115965	-0.624039	0.000077
C43	C	-0.175361	-0.623332	0.000070
C44	C	-0.212141	-0.674907	0.000070
O45	O	-0.263312	-0.578083	0.000075
O46	O	-0.289562	-0.770214	0.000061
C47	C	0.178171	-0.667592	0.000044
C48	C	0.241388	-0.668358	0.000033
C49	C	0.074731	-0.231734	-0.074898
C50	C	0.075446	-0.291133	-0.074900
O51	O	0.075799	-0.321865	-0.138639
N52	N	0.075804	-0.320832	0.000047
C53	C	0.075442	-0.291130	0.075002
O54	O	0.075811	-0.321845	0.138751
C55	C	0.074723	-0.231731	0.075004
C56	C	0.074370	-0.202035	0.000051
C57	C	0.074378	-0.202037	-0.149845
C58	C	0.073664	-0.142641	-0.149842
C59	C	0.073304	-0.112942	-0.074893
C60	C	0.073657	-0.142639	0.000053
C61	C	0.074356	-0.202030	0.149958
C62	C	0.073636	-0.142628	0.149952
C63	C	0.073284	-0.112931	0.075000
C64	C	0.072582	-0.053544	0.075005
N65	N	0.072224	-0.023845	0.000057
C66	C	0.072585	-0.053544	-0.074892
C67	C	0.076951	-0.415870	0.074994
C68	C	0.077674	-0.475266	0.074993
C69	C	0.077677	-0.475266	-0.074910
C70	C	0.076958	-0.415868	-0.074908
C71	C	0.076593	-0.386171	0.000046
C72	C	0.071086	0.071192	-0.074881
C73	C	0.070375	0.130593	-0.074872
C74	C	0.070368	0.130587	0.075031
C75	C	0.071083	0.071192	0.075022
C76	C	0.071440	0.041495	0.000059
O77	O	0.072226	-0.022775	0.138711
O78	O	0.072207	-0.022822	-0.138630
N79	N	0.074014	-0.672326	0.195730
N80	N	0.074026	-0.672357	-0.195602
C81	C	0.035087	-0.711276	0.239006
C82	C	0.035086	-0.711279	0.325553
C83	C	0.074016	-0.672334	0.368823
C84	C	0.112946	-0.633381	0.325541
C85	C	0.112943	-0.633376	0.238995
C86	C	0.112956	-0.633400	0.674569
C87	C	0.112957	-0.633410	0.761121
C88	C	0.035099	-0.711303	0.761127
C89	C	0.035097	-0.711298	0.674581
C90	C	0.074024	-0.672343	0.631307
C91	C	0.074023	-0.672340	0.537463
C92	C	0.074020	-0.672340	0.462665
H93	H	-0.219466	-0.769176	0.000079
O94	O	0.074832	-0.230841	-0.222678
C95	C	0.124395	-0.242231	-0.350831
C96	C	0.123952	-0.209582	-0.268362
H97	H	0.164098	-0.225047	-0.387797
H98	H	0.125008	-0.289789	-0.338024
H99	H	0.084377	-0.236001	-0.387749
H100	H	0.163963	-0.215765	-0.231402
H101	H	0.123309	-0.162035	-0.281227
H102	H	-0.459902	-0.525567	-0.000002
H103	H	0.071377	0.047020	-0.135923
H104	H	0.003388	-0.742994	0.360788
H105	H	-0.111716	-0.770461	0.000108
H106	H	-0.499782	-0.817825	0.000064
O107	O	0.070041	0.159358	0.147907
C108	C	0.070062	0.153099	0.296591
C109	C	0.070453	0.120447	0.214119
H110	H	0.070383	0.121652	0.350144
H111	H	0.109596	0.186337	0.300391
H112	H	0.029872	0.175481	0.300288
H113	H	0.110617	0.098030	0.210366
H114	H	0.030892	0.087241	0.210353
H115	H	0.003401	-0.743021	0.796370
O116	O	-0.002826	-0.749008	0.632527
C117	C	-0.080835	-0.761412	0.535099
C118	C	-0.037853	-0.718672	0.582612
H119	H	-0.109173	-0.736902	0.494744
H120	H	-0.056553	-0.789781	0.494440
H121	H	-0.108626	-0.789199	0.580991
H122	H	-0.010051	-0.690847	0.536779
H123	H	-0.062171	-0.690342	0.623283
H124	H	0.144660	-0.601695	0.796349
H125	H	0.077970	-0.499439	0.136027
O126	O	-0.002786	-0.749129	0.197106
C127	C	-0.079992	-0.826412	0.206256
C128	C	-0.037139	-0.783567	0.253808
H129	H	-0.107770	-0.854274	0.252079
H130	H	-0.108356	-0.802015	0.165776
H131	H	-0.055542	-0.854695	0.165701
H132	H	-0.061541	-0.755273	0.294408
H133	H	-0.008776	-0.808000	0.294236
H134	H	0.144642	-0.601669	0.360776
H135	H	-0.352154	-0.526862	0.000003
H136	H	0.076660	-0.391693	0.136034
O137	O	0.078124	-0.504083	-0.147740
C138	C	0.127668	-0.515513	-0.275896
C139	C	0.127240	-0.482841	-0.193444
H140	H	0.167368	-0.498344	-0.312879
H141	H	0.128277	-0.563069	-0.263064
H142	H	0.087647	-0.509288	-0.312810
H143	H	0.167254	-0.489020	-0.156488
H144	H	0.126601	-0.435298	-0.206334
O145	O	0.071532	0.042331	0.147809
C146	C	0.121657	-0.018024	0.234780
C147	C	0.121234	0.014639	0.152327
H148	H	0.161831	-0.040432	0.238453
H149	H	0.121316	0.013390	0.288379
H150	H	0.082108	-0.051247	0.238527
H151	H	0.160776	0.047862	0.148500
H152	H	0.121545	-0.016810	0.098768
H153	H	0.144653	-0.601683	0.639342
H154	H	0.074641	-0.226199	0.210992
H155	H	-0.392037	-0.819115	0.000079
O156	O	-0.654721	-0.772187	0.000013
C157	C	-0.675056	-0.875113	0.000073
C158	C	-0.699895	-0.817580	0.000093
H159	H	-0.711567	-0.911828	0.000155
H160	H	-0.647618	-0.878088	-0.057483
H161	H	-0.647587	-0.878010	0.057598
H162	H	-0.727390	-0.814644	-0.057393
H163	H	-0.727301	-0.814629	0.057687
H164	H	-0.632483	-0.575509	0.000023
O165	O	0.073417	-0.113761	-0.222632
C166	C	0.121930	-0.039952	-0.309644
C167	C	0.122291	-0.072616	-0.227184
H168	H	0.161434	-0.006671	-0.313343
H169	H	0.122345	-0.071361	-0.363236
H170	H	0.081713	-0.017615	-0.313374
H171	H	0.162501	-0.094954	-0.223372
H172	H	0.121846	-0.041180	-0.173631
H173	H	0.144641	-0.601659	0.203761
O174	O	-0.771748	-0.770718	-0.000106
C175	C	-0.847049	-0.830160	-0.071323
C176	C	-0.806576	-0.773437	-0.071264
H177	H	-0.875226	-0.832372	-0.128838
H178	H	-0.820715	-0.867673	-0.071371
H179	H	-0.875198	-0.832412	-0.013760
H180	H	-0.778419	-0.771130	-0.128817
H181	H	-0.832945	-0.735951	-0.071172
H182	H	-0.740232	-0.574220	0.000034
H183	H	-0.193774	-0.580761	0.000081
H184	H	-0.086007	-0.582056	0.000075
H185	H	0.070089	0.154770	-0.135910
H186	H	0.076671	-0.391693	-0.135941
O187	O	0.073309	-0.113865	0.222840
C188	C	0.073339	-0.120146	0.371522
C189	C	0.073722	-0.152786	0.289039
H190	H	0.073661	-0.151601	0.425065
H191	H	0.112875	-0.086911	0.375325
H192	H	0.033151	-0.097761	0.375232
H193	H	0.113884	-0.175206	0.285273
H194	H	0.034159	-0.185989	0.285270
