data_functionalizedCrystal
_audit_creation_method	'MofGen! by Chris Wilmer'
_symmetry_space_group_name_H-M	'P1'
_symmetry_Int_Tables_number	1
_symmetry_cell_setting	triclinic
loop_
_symmetry_equiv_pos_as_xyz
  x,y,z
_cell_length_a	16.109301
_cell_length_b	26.809956
_cell_length_c	16.109301
_cell_angle_alpha	89.994023
_cell_angle_beta	96.538519
_cell_angle_gamma	90.013343
loop_
_atom_site_label
_atom_site_type_symbol
_atom_site_fract_x
_atom_site_fract_y
_atom_site_fract_z
O1	O	1.103146	0.041450	-0.106865
O2	O	0.861084	0.041458	-0.120165
O3	O	0.988765	0.041448	0.007516
O4	O	0.975465	0.041459	-0.234546
O5	O	0.988725	-0.041511	0.007516
O6	O	0.861045	-0.041501	-0.120164
O7	O	1.103107	-0.041510	-0.106865
Zn8	Zn	0.982069	-0.054677	-0.113515
Zn9	Zn	0.982121	0.054625	-0.113515
O10	O	0.975426	-0.041500	-0.234546
C11	C	0.830090	-0.000021	-0.119626
C12	C	0.737794	-0.000018	-0.118011
N13	N	0.982040	-0.129273	-0.113514
C14	C	0.515522	-0.000021	-0.190018
C15	C	0.428801	-0.000024	-0.188494
C16	C	0.448676	-0.000028	-0.037006
C17	C	0.535394	-0.000029	-0.038530
C18	C	0.568815	-0.000022	-0.115039
C19	C	0.395376	-0.000025	-0.111990
C20	C	0.301350	-0.000029	-0.110337
C21	C	0.662847	-0.000020	-0.116693
C22	C	1.032519	-0.473899	-0.163947
C23	C	1.032545	-0.682776	-0.163946
O24	O	1.075442	-0.709780	-0.206817
N25	N	0.982141	-0.708900	-0.113507
C26	C	0.931731	-0.682801	-0.063059
O27	O	0.888866	-0.709814	-0.020151
C28	C	0.931709	-0.473925	-0.063056
C29	C	0.982110	-0.447804	-0.113505
C30	C	1.082916	-0.447777	-0.214391
C31	C	1.082906	-0.395561	-0.214394
C32	C	1.032497	-0.369466	-0.163953
C33	C	0.982099	-0.395587	-0.113508
C34	C	0.881303	-0.447827	-0.012605
C35	C	0.881304	-0.395604	-0.012607
C36	C	0.931705	-0.369483	-0.063056
C37	C	0.931680	-0.317276	-0.063070
N38	N	0.982085	-0.291152	-0.113510
C39	C	1.032493	-0.317247	-0.163951
C40	C	0.931744	-0.792465	-0.063066
C41	C	0.931749	-0.844684	-0.063068
C42	C	1.032565	-0.844655	-0.163954
C43	C	1.032556	-0.792435	-0.163956
C44	C	0.982149	-0.766341	-0.113506
C45	C	1.032466	-0.207589	-0.163954
C46	C	1.032449	-0.155368	-0.163955
C47	C	0.931636	-0.155401	-0.063067
C48	C	0.931650	-0.207618	-0.063068
C49	C	0.982072	-0.233710	-0.113515
O50	O	0.888813	-0.290240	-0.020215
O51	O	1.075365	-0.290225	-0.206839
C52	C	1.032529	-0.526115	-0.163944
C53	C	0.982131	-0.552236	-0.113499
C54	C	0.931723	-0.526141	-0.063058
C55	C	0.982136	-0.604455	-0.113501
C56	C	1.032544	-0.630550	-0.163943
C57	C	1.082948	-0.604426	-0.214382
C58	C	1.082938	-0.552210	-0.214385
C59	C	0.881318	-0.552265	-0.012618
C60	C	0.881332	-0.604481	-0.012620
C61	C	0.931741	-0.630576	-0.063061
C62	C	1.134101	-0.000030	-0.107404
C63	C	1.226397	-0.000030	-0.109019
N64	N	0.982157	0.129221	-0.113509
C65	C	0.988206	-0.000031	0.038491
C66	C	0.986591	-0.000032	0.130786
C67	C	0.975984	-0.000019	-0.265521
C68	C	0.977600	-0.000015	-0.357816
C69	C	1.058599	-0.000027	0.353059
C70	C	1.057075	-0.000022	0.439779
C71	C	0.905586	-0.000019	0.419905
C72	C	0.907111	-0.000020	0.333186
C73	C	0.983620	-0.000026	0.299766
C74	C	0.980571	-0.000021	0.473205
C75	C	0.978918	-0.000017	0.567231
C76	C	0.985273	-0.000030	0.205734
H77	H	0.542730	-0.000019	-0.252317
H78	H	1.118130	-0.000022	0.483168
H79	H	0.385413	-0.000023	-0.249550
H80	H	0.890592	-0.134145	-0.022001
H81	H	0.578788	-0.000031	0.022530
H82	H	1.073491	-0.134103	-0.205041
H83	H	1.120897	-0.000031	0.325851
Cl84	Cl	0.406655	-0.000033	0.059172
H85	H	0.843295	-0.000015	0.447127
Cl86	Cl	0.812844	-0.000015	0.266184
Cl87	Cl	0.817927	-0.519468	0.050787
Cl88	Cl	1.146258	-0.362731	-0.277833
Cl89	Cl	1.095854	-0.240383	-0.227374
H90	H	1.123970	-0.469019	-0.255467
H91	H	1.073596	-0.771171	-0.205037
H92	H	1.073606	-0.865911	-0.205028
Cl93	Cl	0.817960	-0.637313	0.050805
Cl94	Cl	0.868371	-0.877515	0.000344
H95	H	0.840262	-0.469086	0.028477
Cl96	Cl	0.817937	-0.362803	0.050827
Cl97	Cl	0.868352	-0.759668	0.000347
Cl98	Cl	0.868280	-0.240457	0.000346
H99	H	1.123980	-0.530947	-0.255466
H100	H	1.123989	-0.625682	-0.255458
