data_functionalizedCrystal
_audit_creation_method	'MofGen! by Chris Wilmer'
_symmetry_space_group_name_H-M	'P1'
_symmetry_Int_Tables_number	1
_symmetry_cell_setting	triclinic
loop_
_symmetry_equiv_pos_as_xyz
  x,y,z
_cell_length_a	17.699083
_cell_length_b	9.565339
_cell_length_c	17.699083
_cell_angle_alpha	89.999342
_cell_angle_beta	96.716985
_cell_angle_gamma	89.997515
loop_
_atom_site_label
_atom_site_type_symbol
_atom_site_fract_x
_atom_site_fract_y
_atom_site_fract_z
O1	O	1.004075	0.116067	-0.095706
O2	O	1.337409	0.449400	0.237628
O3	O	1.670742	0.782733	0.570961
O4	O	0.783697	0.116113	-0.108158
O5	O	1.117030	0.449446	0.225175
O6	O	1.450364	0.782780	0.558508
O7	O	0.900112	0.116076	0.008257
O8	O	1.233446	0.449410	0.341591
O9	O	1.566779	0.782743	0.674924
O10	O	0.887660	0.116103	-0.212121
O11	O	1.220993	0.449437	0.121212
O12	O	1.554327	0.782770	0.454545
O13	O	0.900103	-0.116444	0.008250
O14	O	1.233437	0.216889	0.341583
O15	O	1.566770	0.550223	0.674917
O16	O	0.783688	-0.116407	-0.108166
O17	O	1.117021	0.216926	0.225168
O18	O	1.450354	0.550259	0.558501
O19	O	1.004066	-0.116453	-0.095713
O20	O	1.337400	0.216880	0.237620
O21	O	1.670733	0.550213	0.570954
Zn22	Zn	0.893876	-0.153348	-0.101940
Zn23	Zn	1.227209	0.179985	0.231393
Zn24	Zn	1.560542	0.513319	0.564726
Zn25	Zn	0.893888	0.153007	-0.101931
Zn26	Zn	1.227221	0.486341	0.231402
Zn27	Zn	1.560554	0.819674	0.564736
O28	O	0.887651	-0.116417	-0.212128
O29	O	1.220984	0.216917	0.121205
O30	O	1.554317	0.550250	0.454538
C31	C	0.755495	-0.000141	-0.107716
C32	C	1.088829	0.333192	0.225618
C33	C	1.422162	0.666525	0.558951
C34	C	0.671477	-0.000124	-0.106377
C35	C	1.004811	0.333209	0.226956
C36	C	1.338144	0.666543	0.560290
N37	N	0.893873	-0.362427	-0.101946
N38	N	1.227206	-0.029094	0.231387
N39	N	1.560539	0.304239	0.564720
C40	C	0.622856	-0.000116	-0.174710
C41	C	0.956190	0.333217	0.158623
C42	C	1.289523	0.666551	0.491956
C43	C	0.543913	-0.000134	-0.173448
C44	C	0.877246	0.333199	0.159885
C45	C	1.210580	0.666532	0.493218
C46	C	0.513592	-0.000151	-0.103852
C47	C	0.846926	0.333183	0.229482
C48	C	1.180259	0.666516	0.562815
C49	C	0.562219	-0.000163	-0.035513
C50	C	0.895553	0.333170	0.297820
C51	C	1.228886	0.666504	0.631154
C52	C	0.641161	-0.000155	-0.036776
C53	C	0.974495	0.333179	0.296557
C54	C	1.307828	0.666512	0.629890
C55	C	0.243856	-0.000198	-0.030418
C56	C	0.577190	0.333135	0.302915
C57	C	0.910523	0.666469	0.636249
C58	C	0.164908	-0.000202	-0.029160
C59	C	0.498242	0.333131	0.304173
C60	C	0.831575	0.666465	0.637507
C61	C	0.146608	-0.000178	-0.167090
C62	C	0.479942	0.333156	0.166243
C63	C	0.813275	0.666489	0.499577
C64	C	0.225550	-0.000170	-0.168353
C65	C	0.558883	0.333164	0.164980
C66	C	0.892217	0.666497	0.498314
C67	C	0.274170	-0.000189	-0.100015
C68	C	0.607504	0.333144	0.233319
C69	C	0.940837	0.666478	0.566652
C70	C	0.359769	-0.000172	-0.101384
C71	C	0.693103	0.333161	0.231949
C72	C	1.026436	0.666495	0.565282
C73	C	0.427995	-0.000158	-0.102481
C74	C	0.761328	0.333176	0.230852
C75	C	1.094661	0.666509	0.564185
C76	C	0.840018	-0.453613	-0.155767
C77	C	1.173352	-0.120280	0.177566
C78	C	1.506685	0.213053	0.510900
C79	C	0.908386	-0.546805	-0.170327
C80	C	1.241719	-0.213471	0.163006
C81	C	1.575052	0.119862	0.496339
C82	C	0.825535	-0.546791	-0.087392
C83	C	1.158869	-0.213458	0.245942
C84	C	1.492202	0.119875	0.579275
C85	C	0.962274	-0.453567	-0.116541
C86	C	1.295608	-0.120233	0.216792
C87	C	1.628941	0.213100	0.550126
C88	C	0.879379	-0.453545	-0.033576
C89	C	1.212712	-0.120212	0.299758
C90	C	1.546046	0.213121	0.633091
C91	C	0.947796	-0.546694	-0.048107
C92	C	1.281129	-0.213361	0.285226
C93	C	1.614462	0.119972	0.618560
C94	C	1.032268	-0.000196	-0.096156
C95	C	1.365601	0.333137	0.237178
C96	C	1.698934	0.666471	0.570511
C97	C	1.116286	-0.000204	-0.097494
C98	C	1.449619	0.333129	0.235839
C99	C	1.782953	0.666463	0.569172
C100	C	0.899662	-0.000184	0.036451
C101	C	1.232995	0.333149	0.369784
C102	C	1.566328	0.666483	0.703117
C103	C	0.898323	-0.000184	0.120469
C104	C	1.231656	0.333149	0.453802
C105	C	1.564990	0.666482	0.787135
N106	N	0.893896	0.362087	-0.101919
N107	N	1.227230	0.695420	0.231415
N108	N	1.560563	1.028753	0.564748
C109	C	0.888102	-0.000153	-0.240322
C110	C	1.221435	0.333180	0.093011
C111	C	1.554768	0.666513	0.426345
C112	C	0.889440	-0.000144	-0.324340
C113	C	1.222773	0.333189	0.008993
C114	C	1.556107	0.666523	0.342327
C115	C	0.966656	-0.000201	0.169090
C116	C	1.299990	0.333133	0.502423
C117	C	1.633323	0.666466	0.835756
C118	C	0.965394	-0.000188	0.248033
C119	C	1.298727	0.333145	0.581366
C120	C	1.632061	0.666479	0.914700
C121	C	0.895798	-0.000169	0.278354
C122	C	1.229131	0.333164	0.611687
C123	C	1.562464	0.666498	0.945020
C124	C	0.827459	-0.000149	0.229727
C125	C	1.160792	0.333185	0.563060
C126	C	1.494126	0.666518	0.896393
C127	C	0.828722	-0.000151	0.150785
C128	C	1.162055	0.333182	0.484118
C129	C	1.495389	0.666516	0.817451
C130	C	0.822364	-0.000136	0.548090
C131	C	1.155697	0.333197	0.881423
C132	C	1.489030	0.666531	1.214756
C133	C	0.821106	-0.000138	0.627038
C134	C	1.154439	0.333196	0.960371
C135	C	1.487773	0.666529	1.293704
C136	C	0.959036	-0.000173	0.645338
C137	C	1.292369	0.333160	0.978671
C138	C	1.625703	0.666494	1.312004
C139	C	0.960299	-0.000175	0.566396
C140	C	1.293632	0.333158	0.899729
C141	C	1.626966	0.666491	1.233063
C142	C	0.891961	-0.000148	0.517776
C143	C	1.225294	0.333186	0.851109
C144	C	1.558627	0.666519	1.184442
C145	C	0.893330	-0.000159	0.432177
C146	C	1.226664	0.333175	0.765510
C147	C	1.559997	0.666508	1.098843
C148	C	0.894427	-0.000168	0.363951
C149	C	1.227761	0.333165	0.697285
C150	C	1.561094	0.666499	1.030618
H151	H	0.647537	-0.000102	-0.231384
H152	H	0.980870	0.333232	0.101949
H153	H	1.314204	0.666565	0.435283
N154	N	0.752562	-0.000151	0.498430
N155	N	1.085896	0.333182	0.831763
N156	N	1.419229	0.666516	1.165097
N157	N	0.737877	-0.098166	0.452340
N158	N	1.071210	0.235167	0.785673
N159	N	1.404543	0.568501	1.119007
H160	H	0.688577	-0.098181	0.417263
H161	H	1.021910	0.235152	0.750597
H162	H	1.355243	0.568485	1.083930
N163	N	0.494241	-0.000118	-0.243245
N164	N	0.827575	0.333216	0.090088
N165	N	1.160908	0.666549	0.423422
N166	N	0.448135	0.097879	-0.257927
N167	N	0.781468	0.431212	0.075407
N168	N	1.114801	0.764545	0.408740
H169	H	0.413051	0.097882	-0.307222
H170	H	0.746384	0.431215	0.026111
H171	H	1.079717	0.764548	0.359444
H172	H	1.023330	-0.000225	0.144409
H173	H	1.356663	0.333109	0.477742
H174	H	1.689997	0.666442	0.811076
N175	N	0.863964	-0.402127	0.038926
N176	N	1.197297	-0.068794	0.372259
N177	N	1.530631	0.264539	0.705593
N178	N	0.852392	-0.485912	0.090537
N179	N	1.185725	-0.152579	0.423871
N180	N	1.519059	0.180754	0.757204
H181	H	0.841499	-0.449598	0.141743
H182	H	1.174832	-0.116265	0.475076
H183	H	1.508165	0.217068	0.808410
N184	N	1.005003	-0.597685	0.008996
N185	N	1.338336	-0.264352	0.342329
N186	N	1.671670	0.068981	0.675663
N187	N	1.013963	-0.726351	0.018604
N188	N	1.347296	-0.393018	0.351937
N189	N	1.680629	-0.059685	0.685270
H190	H	1.054368	-0.762371	0.058928
H191	H	1.387701	-0.429037	0.392261
H192	H	1.721034	-0.095704	0.725595
N193	N	0.256519	-0.000187	-0.239445
N194	N	0.589853	0.333146	0.093889
N195	N	0.923186	0.666479	0.427222
N196	N	0.298529	-0.098203	-0.255537
N197	N	0.631862	0.235130	0.077797
N198	N	0.965195	0.568464	0.411130
H199	H	0.320400	-0.098224	-0.305747
H200	H	0.653733	0.235109	0.027586
H201	H	0.987067	0.568443	0.360920
H202	H	1.020089	-0.412789	-0.128909
H203	H	1.353422	-0.079456	0.204425
H204	H	1.686755	0.253878	0.537758
H205	H	0.794517	-0.412744	-0.201323
H206	H	1.127850	-0.079411	0.132011
H207	H	1.461183	0.253923	0.465344
H208	H	0.767734	-0.587745	-0.075094
H209	H	1.101067	-0.254411	0.258240
H210	H	1.434400	0.078922	0.591573
H211	H	0.283434	-0.000215	0.025228
H212	H	0.616767	0.333118	0.358561
H213	H	0.950101	0.666452	0.691894
H214	H	1.021038	-0.000204	0.287618
H215	H	1.354372	0.333129	0.620951
H216	H	1.687705	0.666462	0.954284
H217	H	0.920661	-0.587768	-0.228135
H218	H	1.253994	-0.254434	0.105198
H219	H	1.587327	0.078899	0.438532
H220	H	0.140225	-0.000217	0.027517
H221	H	0.473558	0.333116	0.360850
H222	H	0.806892	0.666449	0.694184
N223	N	0.096942	-0.000205	-0.236898
N224	N	0.430276	0.333128	0.096435
N225	N	0.763609	0.666462	0.429768
N226	N	0.099640	-0.098212	-0.283219
N227	N	0.432973	0.235121	0.050114
N228	N	0.766307	0.568455	0.383447
H229	H	0.064565	-0.098231	-0.332520
H230	H	0.397898	0.235102	0.000813
H231	H	0.731232	0.568436	0.334146
H232	H	1.016971	-0.000198	0.541714
H233	H	1.350305	0.333136	0.875047
H234	H	1.683638	0.666469	1.208380
N235	N	1.028851	-0.000172	0.694993
N236	N	1.362185	0.333162	1.028326
N237	N	1.695518	0.666495	1.361660
N238	N	1.090985	-0.000191	0.667909
N239	N	1.424318	0.333142	1.001243
N240	N	1.757651	0.666475	1.334576
H241	H	1.140291	-0.000194	0.702976
H242	H	1.473625	0.333140	1.036309
H243	H	1.806958	0.666473	1.369642
H244	H	0.764429	-0.000125	0.651721
H245	H	1.097762	0.333208	0.985054
H246	H	1.431096	0.666542	1.318388
N247	N	0.531238	-0.000194	0.035572
N248	N	0.864571	0.333139	0.368906
N249	N	1.197904	0.666473	0.702239
N250	N	0.460754	-0.000200	0.036692
N251	N	0.794087	0.333133	0.370025
N252	N	1.127420	0.666467	0.703359
H253	H	0.438873	-0.000219	0.086897
H254	H	0.772206	0.333114	0.420231
H255	H	1.105539	0.666447	0.753564
N256	N	0.756374	-0.000112	0.260708
N257	N	1.089707	0.333221	0.594042
N258	N	1.423040	0.666554	0.927375
N259	N	0.755254	-0.000110	0.331192
N260	N	1.088587	0.333223	0.664526
N261	N	1.421921	0.666557	0.997859
H262	H	0.705049	-0.000086	0.353073
H263	H	1.038382	0.333247	0.686407
H264	H	1.371715	0.666580	1.019740
N265	N	0.690818	-0.000178	0.033032
N266	N	1.024152	0.333155	0.366365
N267	N	1.357485	0.666488	0.699699
N268	N	0.663739	-0.000199	0.095167
N269	N	0.997072	0.333134	0.428501
N270	N	1.330406	0.666467	0.761834
H271	H	0.698808	-0.000225	0.144472
H272	H	1.032141	0.333108	0.477806
H273	H	1.365475	0.666442	0.811139
N274	N	0.758922	-0.000104	0.101115
N275	N	1.092256	0.333229	0.434449
N276	N	1.425589	0.666562	0.767782
N277	N	0.712613	0.097929	0.103804
N278	N	1.045947	0.431263	0.437137
N279	N	1.379280	0.764596	0.770470
H280	H	0.663315	0.097973	0.068724
H281	H	0.996648	0.431306	0.402057
H282	H	1.329982	0.764639	0.735391
