data_functionalizedCrystal
_audit_creation_method	'MofGen! by Chris Wilmer'
_symmetry_space_group_name_H-M	'P1'
_symmetry_Int_Tables_number	1
_symmetry_cell_setting	triclinic
loop_
_symmetry_equiv_pos_as_xyz
  x,y,z
_cell_length_a	12.811449
_cell_length_b	16.109304
_cell_length_c	14.586319
_cell_angle_alpha	89.999019
_cell_angle_beta	84.564529
_cell_angle_gamma	83.754502
loop_
_atom_site_label
_atom_site_type_symbol
_atom_site_fract_x
_atom_site_fract_y
_atom_site_fract_z
O1	O	-1.392638	-0.111984	0.192025
O2	O	-1.087049	-0.124160	0.166618
O3	O	-1.248237	0.002928	0.180020
O4	O	-1.231450	-0.239072	0.178623
O5	O	-1.248226	0.002930	0.027538
O6	O	-1.087038	-0.124158	0.014137
O7	O	-1.392627	-0.111982	0.039544
Cu8	Cu	-1.239831	-0.118070	0.012917
Cu9	Cu	-1.239845	-0.118072	0.193245
O10	O	-1.231439	-0.239070	0.026142
C11	C	-1.047940	-0.123477	0.087126
C12	C	-0.931423	-0.121433	0.077439
C13	C	-0.767191	-0.118552	-0.019327
C14	C	-0.876669	-0.120473	-0.010229
C15	C	-0.876690	-0.120476	0.156016
C16	C	-0.767211	-0.118555	0.146918
C17	C	-0.712466	-0.117592	0.059244
C18	C	-0.602987	-0.115666	0.050147
C19	C	-0.603008	-0.115675	0.216390
C20	C	-0.712486	-0.117595	0.225488
C21	C	-0.431736	-0.112665	0.119036
C22	C	-0.548254	-0.114708	0.128723
N23	N	-1.239830	-0.118068	-0.113915
C24	C	-1.247551	0.033907	0.103725
C25	C	-1.245511	0.126209	0.103561
C26	C	-1.232125	-0.270048	0.102439
C27	C	-1.234165	-0.362351	0.102609
C28	C	-1.240803	0.338563	0.186284
C29	C	-1.238877	0.425290	0.186123
C30	C	-1.238870	0.425289	0.019879
C31	C	-1.240789	0.338563	0.020041
C32	C	-1.241761	0.295202	0.103246
C33	C	-1.237915	0.468656	0.102924
C34	C	-1.235826	0.562690	0.102749
C35	C	-1.243848	0.201163	0.103422
C36	C	-1.311227	-0.061812	-0.342985
C37	C	-1.311230	-0.061810	-0.438966
C38	C	-1.168450	-0.174326	-0.450847
C39	C	-1.168442	-0.174323	-0.354868
C40	C	-1.239837	-0.118067	-0.300939
C41	C	-1.239847	-0.118068	-0.492899
C42	C	-1.239850	-0.118066	-0.596966
C43	C	-1.239833	-0.118068	-0.196865
N44	N	-1.239855	-0.118067	0.320077
H45	H	-0.921281	-0.121267	0.227395
H46	H	-1.241592	0.303261	0.254035
C47	C	-1.389763	0.000068	-0.485212
H48	H	-1.432284	0.033565	-0.439345
H49	H	-1.352028	0.034826	-0.525797
H50	H	-1.433447	-0.030018	-0.519015
H51	H	-1.238080	0.460604	-0.047863
C52	C	-1.241845	0.290863	-0.071305
H53	H	-1.241007	0.329108	-0.120881
H54	H	-1.181424	0.250902	-0.079784
H55	H	-1.303773	0.263162	-0.069605
C56	C	-1.389748	0.000074	-0.283667
H57	H	-1.432258	0.033583	-0.322459
H58	H	-1.433427	-0.029999	-0.242585
H59	H	-1.351993	0.034833	-0.249373
C60	C	-0.542815	-0.114611	0.302825
H61	H	-0.591104	-0.115451	0.356340
H62	H	-0.492080	-0.162282	0.302072
H63	H	-0.508139	-0.065426	0.303391
C64	C	-1.089932	-0.236210	-0.510170
H65	H	-1.100167	-0.228161	-0.573353
H66	H	-1.019886	-0.226911	-0.500276
H67	H	-1.101320	-0.291743	-0.493486
H68	H	-1.238095	0.460590	0.253740
H69	H	-1.110303	-0.220133	-0.320632
H70	H	-0.722615	-0.117773	-0.090715
C71	C	-0.542767	-0.114612	-0.046289
H72	H	-0.591042	-0.115468	-0.091779
H73	H	-0.508076	-0.065439	-0.052633
H74	H	-0.492041	-0.162295	-0.053956
C75	C	-0.772713	-0.118649	0.321921
H76	H	-0.845753	-0.119924	0.316088
H77	H	-0.746756	-0.166755	0.353923
H78	H	-0.762796	-0.069900	0.355243
H79	H	-0.921221	-0.121257	-0.074210
