data_functionalizedCrystal
_audit_creation_method	'MofGen! by Chris Wilmer'
_symmetry_space_group_name_H-M	'P1'
_symmetry_Int_Tables_number	1
_symmetry_cell_setting	triclinic
loop_
_symmetry_equiv_pos_as_xyz
  x,y,z
_cell_length_a	18.215407
_cell_length_b	19.805405
_cell_length_c	18.215399
_cell_angle_alpha	89.969390
_cell_angle_beta	89.980167
_cell_angle_gamma	90.026858
loop_
_atom_site_label
_atom_site_type_symbol
_atom_site_fract_x
_atom_site_fract_y
_atom_site_fract_z
Zn1	Zn	1.125064	-0.269462	-0.416102
Zn2	Zn	1.124969	-0.382653	-0.293030
Zn3	Zn	1.001997	-0.269484	-0.293050
Zn4	Zn	1.001959	-0.382615	-0.416055
O5	O	1.063497	-0.326054	-0.354559
O6	O	1.228036	-0.284484	-0.399788
O7	O	1.108633	-0.367666	-0.190049
O8	O	1.018377	-0.174765	-0.309401
O9	O	1.227966	-0.367644	-0.309368
O10	O	1.108794	-0.174748	-0.399807
O11	O	1.018285	-0.284521	-0.190063
O12	O	0.899008	-0.284485	-0.309355
O13	O	1.018313	-0.367580	-0.519046
O14	O	0.898980	-0.367602	-0.399727
O15	O	1.108758	-0.284447	-0.519080
O16	O	1.108596	-0.477365	-0.309322
O17	O	1.018221	-0.477337	-0.399708
C18	C	0.872291	-0.326042	-0.354538
C19	C	0.790492	-0.326053	-0.354547
C20	C	0.602303	-0.369400	-0.401544
C21	C	0.525444	-0.369403	-0.401553
C22	C	0.525444	-0.282719	-0.307591
C23	C	0.602301	-0.282714	-0.307586
C24	C	0.640729	-0.326059	-0.354561
C25	C	0.487013	-0.326066	-0.354575
C26	C	0.403679	-0.326068	-0.354585
C27	C	0.724068	-0.326056	-0.354553
C28	C	1.063415	-0.501910	-0.354524
C29	C	1.063446	-0.577142	-0.354533
C30	C	1.110550	-0.612478	-0.307518
C31	C	1.110582	-0.683166	-0.307535
C32	C	1.063505	-0.718517	-0.354562
C33	C	1.016399	-0.683176	-0.401582
C34	C	1.016372	-0.612489	-0.401569
C35	C	1.016507	-0.968249	-0.401637
C36	C	1.016536	-1.038941	-0.401645
C37	C	1.110717	-1.038927	-0.307602
C38	C	1.110690	-0.968239	-0.307589
C39	C	1.063587	-0.932905	-0.354611
C40	C	1.063555	-0.856256	-0.354594
C41	C	1.063533	-0.795164	-0.354577
C42	C	1.255450	-0.326066	-0.354581
C43	C	1.337249	-0.326071	-0.354590
C44	C	1.063542	-0.326007	-0.546512
C45	C	1.063561	-0.325987	-0.628311
C46	C	1.063601	-0.149511	-0.354611
C47	C	1.063645	-0.074279	-0.354633
C48	C	1.110673	-0.282659	-0.816524
C49	C	1.110682	-0.282639	-0.893383
C50	C	1.016502	-0.369210	-0.893336
C51	C	1.016490	-0.369226	-0.816479
C52	C	1.063580	-0.325952	-0.778075
C53	C	1.063600	-0.325916	-0.931791
C54	C	1.063609	-0.325895	-1.015125
C55	C	1.063570	-0.325972	-0.694736
C56	C	1.063495	-0.326051	-0.163353
C57	C	1.063619	-0.325880	-0.081555
H58	H	0.494146	-0.247431	-0.269344
C59	C	1.161772	-0.235526	-0.935032
C60	C	1.145795	-0.168563	-0.916335
C61	C	1.192851	-0.125141	-0.954679
H62	H	1.155084	-0.241617	-0.986318
H63	H	1.211223	-0.245398	-0.922427
H64	H	1.096355	-0.158695	-0.928946
H65	H	1.152487	-0.162451	-0.865056
H66	H	1.242303	-0.135012	-0.942073
H67	H	1.186160	-0.131237	-1.005963
H68	H	1.182022	-0.079702	-0.941993
C69	C	0.644120	-0.416343	-0.452594
C70	C	0.688294	-0.378069	-0.499820
C71	C	0.726831	-0.421289	-0.546854
H72	H	0.610309	-0.442171	-0.480647
H73	H	0.674120	-0.445791	-0.424405
H74	H	0.658296	-0.348633	-0.528006
H75	H	0.722118	-0.352243	-0.471787
H76	H	0.756831	-0.450737	-0.518665
H77	H	0.693015	-0.447114	-0.574902
H78	H	0.756812	-0.395327	-0.578898
C79	C	0.483858	-0.416536	-0.452590
C80	C	0.533965	-0.454503	-0.493713
C81	C	0.495683	-0.497936	-0.540731
H82	H	0.453899	-0.390759	-0.484775
H83	H	0.453866	-0.446032	-0.424399
H84	H	0.563945	-0.425010	-0.521901
H85	H	0.563925	-0.480293	-0.461547
H86	H	0.465691	-0.527432	-0.512540
H87	H	0.465726	-0.472154	-0.572911
H88	H	0.529675	-0.523706	-0.568633
C89	C	0.965427	-0.416307	-0.934940
C90	C	0.981400	-0.483278	-0.916210
C91	C	0.934360	-0.526684	-0.954512
H92	H	0.972133	-0.410191	-0.986232
H93	H	0.915970	-0.406443	-0.922324
H94	H	1.030845	-0.493138	-0.928830
H95	H	0.974690	-0.489416	-0.864925
H96	H	0.884903	-0.516820	-0.941896
H97	H	0.941070	-0.520562	-1.005802
H98	H	0.945187	-0.572128	-0.941803
C99	C	0.643893	-0.235629	-0.256491
C100	C	0.593791	-0.197688	-0.215335
C101	C	0.632079	-0.154313	-0.168257
H102	H	0.673902	-0.206109	-0.284618
H103	H	0.673836	-0.261468	-0.224335
H104	H	0.563862	-0.171851	-0.247486
H105	H	0.563781	-0.227189	-0.187193
H106	H	0.662022	-0.180152	-0.136101
H107	H	0.662087	-0.124798	-0.196389
H108	H	0.598091	-0.128569	-0.140322
C109	C	1.161743	-0.574222	-0.256428
C110	C	1.203014	-0.620301	-0.215273
C111	C	1.250189	-0.585087	-0.168208
H112	H	1.133681	-0.546687	-0.224266
H113	H	1.193822	-0.546618	-0.284587
H114	H	1.170939	-0.647893	-0.187116
H115	H	1.231091	-0.647837	-0.247416
H116	H	1.282268	-0.557483	-0.196367
H117	H	1.222121	-0.557553	-0.136050
H118	H	1.278202	-0.616346	-0.140283
H119	H	1.148938	-0.711934	-0.269250
C120	C	0.965477	-0.416272	-0.774633
C121	C	1.007116	-0.459651	-0.730487
C122	C	0.960149	-0.502989	-0.691920
H123	H	0.937420	-0.442111	-0.808426
H124	H	0.933434	-0.390402	-0.744612
H125	H	1.039147	-0.485519	-0.760505
H126	H	1.035172	-0.433831	-0.696680
H127	H	0.928106	-0.477118	-0.661899
H128	H	0.932095	-0.528823	-0.725719
H129	H	0.988394	-0.532422	-0.661958
C130	C	0.965308	-0.573999	-0.452585
C131	C	0.975375	-0.504529	-0.442524
C132	C	0.928357	-0.469052	-0.489518
H133	H	0.915841	-0.585545	-0.441819
H134	H	0.976064	-0.585506	-0.502059
H135	H	0.964615	-0.493027	-0.393061
H136	H	1.024832	-0.492963	-0.453295
H137	H	0.939112	-0.480558	-0.538992
H138	H	0.878893	-0.480603	-0.478748
H139	H	0.935185	-0.421913	-0.482702
H140	H	1.149022	-0.939459	-0.269292
H141	H	1.149073	-1.067705	-0.269317
C142	C	1.161670	-0.235630	-0.774736
C143	C	1.120015	-0.192268	-0.730606
C144	C	1.166967	-0.148937	-0.692096
H145	H	1.189732	-0.209778	-0.808562
H146	H	1.193709	-0.261506	-0.744708
H147	H	1.087989	-0.166394	-0.760632
H148	H	1.091954	-0.218100	-0.696766
H149	H	1.199006	-0.174813	-0.662068
H150	H	1.195027	-0.123090	-0.725928
H151	H	1.138711	-0.119515	-0.662145
H152	H	0.978202	-1.067722	-0.439946
H153	H	0.978153	-0.939485	-0.439923
C154	C	0.965313	-0.721677	-0.452562
C155	C	0.975402	-0.791146	-0.442496
C156	C	0.928344	-0.826632	-0.489437
H157	H	0.976003	-0.710136	-0.502047
H158	H	0.915853	-0.710174	-0.441735
H159	H	1.024851	-0.802644	-0.453328
H160	H	0.964706	-0.802707	-0.393021
H161	H	0.878884	-0.815129	-0.478611
H162	H	0.939038	-0.815085	-0.538920
H163	H	0.935178	-0.873770	-0.482610
