data_functionalizedCrystal
_audit_creation_method	'MofGen! by Chris Wilmer'
_symmetry_space_group_name_H-M	'P1'
_symmetry_Int_Tables_number	1
_symmetry_cell_setting	triclinic
loop_
_symmetry_equiv_pos_as_xyz
  x,y,z
_cell_length_a	16.959455
_cell_length_b	16.959454
_cell_length_c	16.959447
_cell_angle_alpha	90.025781
_cell_angle_beta	90.015228
_cell_angle_gamma	90.017705
loop_
_atom_site_label
_atom_site_type_symbol
_atom_site_fract_x
_atom_site_fract_y
_atom_site_fract_z
Zn1	Zn	-1.208368	0.314776	-0.446953
Zn2	Zn	-0.708368	0.814776	0.053047
Zn3	Zn	-1.208284	0.446969	-0.314785
Zn4	Zn	-0.708284	0.946969	0.185215
Zn5	Zn	-1.076196	0.314796	-0.314788
Zn6	Zn	-0.576196	0.814796	0.185212
Zn7	Zn	-1.076155	0.446905	-0.446921
Zn8	Zn	-0.576155	0.946905	0.053079
O9	O	-1.142251	0.380861	-0.380862
O10	O	-0.642251	0.880861	0.119138
O11	O	-1.318968	0.332330	-0.429432
O12	O	-0.818968	0.832330	0.070568
O13	O	-1.190745	0.429471	-0.204174
O14	O	-0.690745	0.929471	0.295826
O15	O	-1.093782	0.204183	-0.332335
O16	O	-0.593782	0.704183	0.167665
O17	O	-1.318906	0.429452	-0.332329
O18	O	-0.818906	0.929452	0.167671
O19	O	-1.190888	0.204168	-0.429435
O20	O	-0.690888	0.704168	0.070565
O21	O	-1.093701	0.332364	-0.204177
O22	O	-0.593701	0.832364	0.295823
O23	O	-0.965580	0.332302	-0.332304
O24	O	-0.465580	0.832302	0.167696
O25	O	-1.093711	0.429342	-0.557536
O26	O	-0.593711	0.929342	-0.057536
O27	O	-0.965549	0.429362	-0.429382
O28	O	-0.465549	0.929362	0.070618
O29	O	-1.190847	0.332268	-0.557559
O30	O	-0.690847	0.832268	-0.057559
O31	O	-1.190704	0.557571	-0.332298
O32	O	-0.690704	1.057571	0.167702
O33	O	-1.093629	0.557524	-0.429378
O34	O	-0.593629	1.057524	0.070622
C35	C	-0.936885	0.380828	-0.380840
C36	C	-0.436885	0.880828	0.119160
C37	C	-0.849028	0.380832	-0.380850
C38	C	-0.349028	0.880832	0.119150
C39	C	-1.142174	0.586228	-0.380852
C40	C	-0.642174	1.086228	0.119148
C41	C	-1.142214	0.674084	-0.380874
C42	C	-0.642214	1.174084	0.119126
C43	C	-0.477544	0.330256	-0.330408
C44	C	0.022456	0.830256	0.169592
C45	C	-0.477561	0.431482	-0.431339
C46	C	0.022439	0.931482	0.068661
C47	C	-0.560107	0.431473	-0.431336
C48	C	-0.060107	0.931473	0.068664
C49	C	-0.601375	0.380856	-0.380867
C50	C	-0.101375	0.880856	0.119133
C51	C	-0.560097	0.330248	-0.330402
C52	C	-0.060097	0.830248	0.169598
C53	C	-0.601390	0.482087	-0.481794
C54	C	-0.101390	0.982087	0.018206
C55	C	-0.683941	0.482081	-0.481792
C56	C	-0.183941	0.982081	0.018208
C57	C	-0.725211	0.431460	-0.431327
C58	C	-0.225211	0.931460	0.068673
C59	C	-0.683929	0.380848	-0.380860
C60	C	-0.183929	0.880848	0.119140
C61	C	-0.725197	0.330231	-0.330391
C62	C	-0.225197	0.830231	0.169609
C63	C	-0.683916	0.279615	-0.279928
C64	C	-0.183916	0.779615	0.220072
C65	C	-0.601367	0.279626	-0.279936
C66	C	-0.101367	0.779626	0.220064
C67	C	-0.807760	0.431449	-0.431319
C68	C	-0.307760	0.931449	0.068681
C69	C	-0.807750	0.330223	-0.330385
C70	C	-0.307750	0.830223	0.169615
C71	C	-0.348419	0.380886	-0.380880
C72	C	0.151581	0.880886	0.119120
C73	C	-0.436276	0.380873	-0.380877
C74	C	0.063724	0.880873	0.119123
C75	C	-1.091744	1.045565	-0.431417
C76	C	-0.591744	1.545565	0.068583
C77	C	-1.192911	1.045554	-0.330409
C78	C	-0.692911	1.545554	0.169591
C79	C	-1.192888	0.963008	-0.330400
C80	C	-0.692888	1.463008	0.169600
C81	C	-1.142291	0.921737	-0.380900
C82	C	-0.642291	1.421737	0.119100
C83	C	-1.091717	0.963012	-0.431408
C84	C	-0.591717	1.463012	0.068592
C85	C	-1.243455	0.921728	-0.279887
C86	C	-0.743455	1.421728	0.220113
C87	C	-1.243433	0.839177	-0.279876
C88	C	-0.743433	1.339177	0.220124
C89	C	-1.192839	0.797904	-0.330380
C90	C	-0.692839	1.297904	0.169620
C91	C	-1.142264	0.839184	-0.380891
C92	C	-0.642264	1.339184	0.119109
C93	C	-1.091667	0.797912	-0.431391
C94	C	-0.591667	1.297912	0.068609
C95	C	-1.041096	0.839190	-0.481906
C96	C	-0.541096	1.339190	0.018094
C97	C	-1.041124	0.921739	-0.481912
C98	C	-0.541124	1.421739	0.018088
C99	C	-1.192811	0.715356	-0.330374
C100	C	-0.692811	1.215356	0.169626
C101	C	-1.091640	0.715359	-0.431382
C102	C	-0.591640	1.215359	0.068618
C103	C	-1.142284	0.380796	-0.587030
C104	C	-0.642284	0.880796	-0.087030
C105	C	-1.142298	0.380768	-0.674887
C106	C	-0.642298	0.880768	-0.174887
C107	C	-1.142337	1.174693	-0.380893
C108	C	-0.642337	1.674693	0.119107
C109	C	-1.142341	1.086837	-0.380917
C110	C	-0.642341	1.586837	0.119083
C111	C	-1.091817	0.431227	-1.046353
C112	C	-0.591817	0.931227	-0.546353
C113	C	-1.192967	0.330143	-1.046372
C114	C	-0.692967	0.830143	-0.546372
C115	C	-1.192946	0.330159	-0.963826
C116	C	-0.692946	0.830159	-0.463826
C117	C	-1.142361	0.380711	-0.922540
C118	C	-0.642361	0.880711	-0.422540
C119	C	-1.091797	0.431247	-0.963799
C120	C	-0.591797	0.931247	-0.463799
C121	C	-1.243515	0.279631	-0.922560
C122	C	-0.743515	0.779631	-0.422560
C123	C	-1.243496	0.279646	-0.840009
C124	C	-0.743496	0.779646	-0.340009
C125	C	-1.192906	0.330195	-0.798722
C126	C	-0.692906	0.830195	-0.298722
C127	C	-1.142340	0.380731	-0.839986
C128	C	-0.642340	0.880731	-0.339986
C129	C	-1.091755	0.431283	-0.798700
C130	C	-0.591755	0.931283	-0.298700
C131	C	-1.041183	0.481817	-0.839963
C132	C	-0.541183	0.981817	-0.339963
C133	C	-1.041207	0.481795	-0.922511
C134	C	-0.541207	0.981795	-0.422511
C135	C	-1.192883	0.330216	-0.716173
C136	C	-0.692883	0.830216	-0.216173
C137	C	-1.091734	0.431303	-0.716146
C138	C	-0.591734	0.931303	-0.216146
C139	C	-1.142263	0.380870	-0.175495
C140	C	-0.642263	0.880870	0.324505
C141	C	-1.142403	0.380675	-0.087639
C142	C	-0.642403	0.880675	0.412361
H143	H	-0.841345	0.289000	-0.289291
H144	H	-0.341345	0.789000	0.210709
H145	H	-0.999895	0.805578	-0.523020
H146	H	-0.499895	1.305578	-0.023020
H147	H	-1.050572	1.079178	-0.472548
H148	H	-0.550572	1.579178	0.027452
H149	H	-1.234155	0.288990	-1.079992
H150	H	-0.734155	0.788990	-0.579992
H151	H	-1.050533	0.472462	-0.682537
H152	H	-0.550533	0.972462	-0.182537
H153	H	-1.234100	1.079162	-0.289290
H154	H	-0.734100	1.579162	0.210710
H155	H	-0.841367	0.472662	-0.472403
H156	H	-0.341367	0.972662	0.027597
H157	H	-1.284642	0.955337	-0.238768
H158	H	-0.784642	1.455337	0.261232
H159	H	-1.284611	0.805573	-0.238745
H160	H	-0.784611	1.305573	0.261255
H161	H	-0.717545	0.523295	-0.522883
H162	H	-0.217545	1.023295	-0.022883
H163	H	-1.050441	0.681761	-0.472508
H164	H	-0.550441	1.181761	0.027492
H165	H	-0.567783	0.523302	-0.522877
H166	H	-0.067783	1.023302	-0.022877
H167	H	-0.717527	0.238407	-0.238833
H168	H	-0.217527	0.738407	0.261167
H169	H	-0.999950	0.955355	-0.523038
H170	H	-0.499950	1.455355	-0.023038
H171	H	-1.050641	0.472367	-1.079953
H172	H	-0.550641	0.972367	-0.579953
H173	H	-1.000000	0.522980	-0.806337
H174	H	-0.500000	1.022980	-0.306337
H175	H	-1.233982	0.681751	-0.289242
H176	H	-0.733982	1.181751	0.210758
H177	H	-1.284703	0.238479	-0.956182
H178	H	-0.784703	0.738479	-0.456182
H179	H	-1.000037	0.522939	-0.956115
H180	H	-0.500037	1.022939	-0.456115
H181	H	-0.567749	0.238418	-0.238851
H182	H	-0.067749	0.738418	0.261149
H183	H	-1.284674	0.238498	-0.806420
H184	H	-0.784674	0.738498	-0.306420
H185	H	-1.234059	0.289075	-0.682580
H186	H	-0.734059	0.789075	-0.182580
H187	H	-0.443929	0.289043	-0.289325
H188	H	0.056071	0.789043	0.210675
H189	H	-0.443955	0.472696	-0.472424
H190	H	0.056045	0.972696	0.027576
