data_functionalizedCrystal
_audit_creation_method	'MofGen! by Chris Wilmer'
_symmetry_space_group_name_H-M	'P1'
_symmetry_Int_Tables_number	1
_symmetry_cell_setting	triclinic
loop_
_symmetry_equiv_pos_as_xyz
  x,y,z
_cell_length_a	19.077105
_cell_length_b	13.032721
_cell_length_c	19.077174
_cell_angle_alpha	99.721459
_cell_angle_beta	85.483752
_cell_angle_gamma	95.201395
loop_
_atom_site_label
_atom_site_type_symbol
_atom_site_fract_x
_atom_site_fract_y
_atom_site_fract_z
Zn1	Zn	1.051969	-0.507760	-0.483590
Zn2	Zn	1.551969	-0.007760	0.016410
Zn3	Zn	1.033390	-0.675201	-0.379469
Zn4	Zn	1.533390	-0.175201	0.120531
Zn5	Zn	0.930554	-0.493152	-0.359787
Zn6	Zn	1.430554	0.006848	0.140213
Zn7	Zn	0.920290	-0.675133	-0.492581
Zn8	Zn	1.420290	-0.175133	0.007419
O9	O	0.984051	-0.587812	-0.428857
O10	O	1.484051	-0.087812	0.071143
O11	O	1.147649	-0.536114	-0.474253
O12	O	1.647649	-0.036114	0.025747
O13	O	1.016269	-0.644967	-0.277708
O14	O	1.516269	-0.144967	0.222292
O15	O	0.958731	-0.348856	-0.364210
O16	O	1.458731	0.151144	0.135790
O17	O	1.134000	-0.659132	-0.397755
O18	O	1.634000	-0.159132	0.102245
O19	O	1.047934	-0.359588	-0.455168
O20	O	1.547934	0.140412	0.044832
O21	O	0.940716	-0.511216	-0.263248
O22	O	1.440716	-0.011216	0.236752
O23	O	0.831048	-0.511150	-0.372928
O24	O	1.331048	-0.011150	0.127072
O25	O	0.941236	-0.659015	-0.590539
O26	O	1.441236	-0.159015	-0.090539
O27	O	0.823506	-0.644850	-0.470491
O28	O	1.323506	-0.144850	0.029509
O29	O	1.037980	-0.536048	-0.583933
O30	O	1.537980	-0.036048	-0.083933
O31	O	1.006316	-0.821426	-0.406474
O32	O	1.506316	-0.321426	0.093526
O33	O	0.923222	-0.821376	-0.489577
O34	O	1.423222	-0.321376	0.010423
C35	C	0.801829	-0.576408	-0.420550
C36	C	1.301829	-0.076408	0.079450
C37	C	0.723872	-0.571556	-0.417015
C38	C	1.223872	-0.071556	0.082985
C39	C	0.683329	-0.638984	-0.466088
C40	C	1.183329	-0.138984	0.033912
C41	C	0.610081	-0.634411	-0.462769
C42	C	1.110081	-0.134411	0.037231
C43	C	0.577378	-0.562415	-0.410373
C44	C	1.077378	-0.062415	0.089627
C45	C	0.617927	-0.494981	-0.361298
C46	C	1.117927	0.005019	0.138702
C47	C	0.691173	-0.499549	-0.364621
C48	C	1.191173	0.000451	0.135379
C49	C	0.358735	-0.541273	-0.394998
C50	C	0.858735	-0.041273	0.105002
C51	C	0.285483	-0.536711	-0.391678
C52	C	0.785483	-0.036711	0.108322
C53	C	0.277643	-0.676141	-0.493149
C54	C	0.777643	-0.176141	0.006851
C55	C	0.350891	-0.680707	-0.496465
C56	C	0.850891	-0.180707	0.003535
C57	C	0.391433	-0.613269	-0.447392
C58	C	0.891433	-0.113269	0.052608
N59	N	0.502507	-0.557742	-0.406978
N60	N	1.002507	-0.057742	0.093022
N61	N	0.466303	-0.617938	-0.450791
N62	N	0.966303	-0.117938	0.049209
C63	C	0.961659	-0.859320	-0.451153
C64	C	1.461659	-0.359320	0.048847
C65	C	0.952144	-0.975478	-0.460718
C66	C	1.452144	-0.475478	0.039282
C67	C	0.989055	-1.027259	-0.423898
C68	C	1.489055	-0.527259	0.076102
C69	C	0.979222	-1.147315	-0.433783
C70	C	1.479222	-0.647315	0.066217
C71	C	1.166984	-0.599260	-0.437197
C72	C	1.666984	-0.099260	0.062803
C73	C	1.244939	-0.604139	-0.440751
C74	C	1.744939	-0.104139	0.059249
C75	C	0.990536	-0.599153	-0.613663
C76	C	1.490536	-0.099153	-0.113663
C77	C	0.993299	-0.603987	-0.692417
C78	C	1.493299	-0.103987	-0.192417
C79	C	1.006550	-0.315245	-0.406490
C80	C	1.506550	0.184755	0.093510
C81	C	1.016138	-0.199094	-0.396959
C82	C	1.516138	0.300906	0.103041
C83	C	0.955263	-0.536622	-0.721886
C84	C	1.455263	-0.036622	-0.221886
C85	C	0.957856	-0.541172	-0.795884
C86	C	1.457856	-0.041172	-0.295884
C87	C	0.998490	-0.613082	-0.840411
C88	C	1.498490	-0.113082	-0.340411
C89	C	1.036528	-0.680454	-0.810937
C90	C	1.536528	-0.180454	-0.310937
C91	C	1.033930	-0.675908	-0.736941
C92	C	1.533930	-0.175908	-0.236941
C93	C	1.010474	-0.634148	-1.062524
C94	C	1.510474	-0.134148	-0.562524
C95	C	1.013070	-0.638687	-1.136525
C96	C	1.513070	-0.138687	-0.636525
C97	C	0.934398	-0.499405	-1.121467
C98	C	1.434398	0.000595	-0.621467
C99	C	0.931807	-0.494862	-1.047469
C100	C	1.431807	0.005138	-0.547469
C101	C	0.969841	-0.562237	-1.018002
C102	C	1.469841	-0.062237	-0.518002
N103	N	1.001144	-0.617732	-0.916048
N104	N	1.501144	-0.117732	-0.416048
N105	N	0.967183	-0.557592	-0.942366
N106	N	1.467183	-0.057592	-0.442366
C107	C	0.977637	-0.576441	-0.244765
C108	C	1.477637	-0.076441	0.255235
C109	C	0.975034	-0.571322	-0.165994
C110	C	1.475034	-0.071322	0.334006
H111	H	0.244625	-0.731044	-0.533102
H112	H	0.744625	-0.231044	-0.033102
C113	C	0.899617	-1.035656	-0.513190
C114	C	1.399617	-0.535656	-0.013190
N115	N	0.860051	-1.080980	-0.552712
N116	N	1.360051	-0.580980	-0.052712
C117	C	1.068667	-1.138922	-0.344482
C118	C	1.568667	-0.638922	0.155518
N119	N	1.108231	-1.093600	-0.304956
N120	N	1.608231	-0.593600	0.195044
C121	C	1.081047	-0.759783	-0.859931
C122	C	1.581047	-0.259783	-0.359931
N123	N	1.114517	-0.819614	-0.896837
N124	N	1.614517	-0.319614	-0.396837
C125	C	0.565485	-0.708606	-0.516741
C126	C	1.065485	-0.208606	-0.016741
N127	N	0.531894	-0.764500	-0.557391
N128	N	1.031894	-0.264500	-0.057391
H129	H	1.064909	-0.730756	-0.712948
H130	H	1.564909	-0.230756	-0.212948
H131	H	0.922179	-0.478059	-0.685636
H132	H	1.422179	0.021941	-0.185636
H133	H	0.940342	-1.191859	-0.472630
H134	H	1.440342	-0.691859	0.027370
H135	H	1.027938	-0.982714	-0.385060
H136	H	1.527938	-0.482714	0.114940
C137	C	0.735770	-0.425375	-0.310636
C138	C	1.235770	0.074625	0.189364
N139	N	0.769360	-0.369504	-0.269974
N140	N	1.269360	0.130496	0.230026
C141	C	0.916021	-0.467054	-0.828296
C142	C	1.416021	0.032946	-0.328296
N143	N	0.884512	-0.411223	-0.852707
N144	N	1.384512	0.088777	-0.352707
C145	C	0.887105	-0.415757	-0.998495
C146	C	1.387105	0.084243	-0.498495
N147	N	0.853436	-0.356173	-0.961607
N148	N	1.353436	0.143827	-0.461607
C149	C	0.892558	-0.425304	-1.153887
C150	C	1.392558	0.074696	-0.653887
N151	N	0.861039	-0.369490	-1.178307
N152	N	1.361039	0.130510	-0.678307
C153	C	0.386858	-0.759913	-0.554101
C154	C	0.886858	-0.259913	-0.054101
N155	N	0.413948	-0.819576	-0.597511
N156	N	0.913948	-0.319576	-0.097511
H157	H	1.046162	-0.697246	-1.172778
H158	H	1.546162	-0.197246	-0.672778
H159	H	1.041435	-0.689021	-1.038542
H160	H	1.541435	-0.189021	-0.538542
H161	H	0.258859	-0.478072	-0.349015
H162	H	0.758859	0.021928	0.150985
C163	C	0.403322	-0.467094	-0.341013
C164	C	0.903322	0.032906	0.158987
N165	N	0.436907	-0.411221	-0.300347
N166	N	0.936907	0.088779	0.199653
C167	C	0.581950	-0.415782	-0.303664
C168	C	1.081950	0.084218	0.196336
N169	N	0.554854	-0.356130	-0.260252
N170	N	1.054854	0.143870	0.239748
C171	C	0.719296	-0.718186	-0.523727
C172	C	1.219296	-0.218186	-0.023727
N173	N	0.746384	-0.777840	-0.567144
N174	N	1.246384	-0.277840	-0.067144
