data_functionalizedCrystal
_audit_creation_method	'MofGen! by Chris Wilmer'
_symmetry_space_group_name_H-M	'P1'
_symmetry_Int_Tables_number	1
_symmetry_cell_setting	triclinic
loop_
_symmetry_equiv_pos_as_xyz
  x,y,z
_cell_length_a	29.839134
_cell_length_b	16.994747
_cell_length_c	29.839125
_cell_angle_alpha	89.991363
_cell_angle_beta	90.021980
_cell_angle_gamma	90.005924
loop_
_atom_site_label
_atom_site_type_symbol
_atom_site_fract_x
_atom_site_fract_y
_atom_site_fract_z
Zn1	Zn	0.686814	-0.314247	0.254207
Zn2	Zn	0.686786	-0.446127	0.179112
Zn3	Zn	0.611697	-0.314229	0.179077
Zn4	Zn	0.611685	-0.446101	0.254200
O5	O	0.649246	-0.380176	0.216649
O6	O	0.749678	-0.331759	0.244263
O7	O	0.676819	-0.428635	0.116240
O8	O	0.621679	-0.203850	0.189031
O9	O	0.749657	-0.428651	0.189091
O10	O	0.676867	-0.203863	0.244230
O11	O	0.621651	-0.331730	0.116214
O12	O	0.548828	-0.331704	0.189025
O13	O	0.621657	-0.428606	0.317068
O14	O	0.548819	-0.428589	0.244217
O15	O	0.676855	-0.331734	0.317074
O16	O	0.676807	-0.556505	0.189084
O17	O	0.621630	-0.556486	0.244251
C18	C	0.532523	-0.380143	0.216617
C19	C	0.482589	-0.380147	0.216613
C20	C	0.649220	-0.585116	0.216669
C21	C	0.649223	-0.674438	0.216668
Zn22	Zn	0.611710	-0.945316	0.179064
Zn23	Zn	0.686834	-0.945312	0.254188
Zn24	Zn	0.611700	-0.813493	0.254193
Zn25	Zn	0.686795	-0.813382	0.179097
O26	O	0.649260	-0.879376	0.216635
O27	O	0.621696	-1.055697	0.189014
O28	O	0.676880	-0.927870	0.317055
O29	O	0.548834	-0.831028	0.244215
O30	O	0.676890	-1.055693	0.244206
O31	O	0.548842	-0.927877	0.189019
O32	O	0.621679	-0.831024	0.317059
O33	O	0.621641	-0.703097	0.244247
O34	O	0.676822	-0.830839	0.116226
O35	O	0.676812	-0.703016	0.189075
O36	O	0.621658	-0.927770	0.116202
O37	O	0.749696	-0.927763	0.244238
O38	O	0.749667	-0.830835	0.189070
C39	C	0.172950	-0.430699	0.245353
C40	C	-0.014723	-0.430721	0.245373
O41	O	-0.038984	-0.473665	0.269789
N42	N	-0.038196	-0.380205	0.216683
C43	C	-0.014749	-0.329676	0.187988
O44	O	-0.039020	-0.286704	0.163589
C45	C	0.172924	-0.329650	0.187971
C46	C	0.196395	-0.380176	0.216659
C47	C	0.196421	-0.481219	0.274039
C48	C	0.243337	-0.481216	0.274032
C49	C	0.266781	-0.430693	0.245339
C50	C	0.243310	-0.380172	0.216652
C51	C	0.196371	-0.279118	0.159279
C52	C	0.243292	-0.279115	0.159278
C53	C	0.266762	-0.329640	0.187966
C54	C	0.313670	-0.329646	0.187952
N55	N	0.337143	-0.380162	0.216642
C56	C	0.313699	-0.430686	0.245335
C57	C	-0.113279	-0.329694	0.187999
C58	C	-0.160197	-0.329701	0.188002
C59	C	-0.160168	-0.430746	0.245388
C60	C	-0.113250	-0.430742	0.245381
C61	C	-0.089806	-0.380210	0.216688
C62	C	0.412225	-0.430676	0.245318
C63	C	0.459144	-0.430671	0.245307
C64	C	0.459111	-0.329624	0.187924
C65	C	0.412196	-0.329632	0.187933
C66	C	0.388754	-0.380160	0.216633
O67	O	0.337960	-0.286719	0.163552
O68	O	0.337979	-0.473639	0.269737
C69	C	0.126035	-0.430702	0.245360
C70	C	0.102564	-0.380182	0.216673
C71	C	0.126008	-0.329658	0.187980
C72	C	0.055646	-0.380189	0.216677
C73	C	0.032201	-0.430712	0.245371
C74	C	0.055675	-0.481228	0.274060
C75	C	0.102590	-0.481225	0.274053
C76	C	0.102535	-0.279142	0.159290
C77	C	0.055619	-0.279150	0.159299
C78	C	0.032175	-0.329673	0.187992
C79	C	0.766424	-0.380210	0.216682
C80	C	0.816358	-0.380225	0.216696
C81	C	0.649258	-0.380169	0.333827
C82	C	0.649263	-0.380166	0.383762
C83	C	0.649274	-0.174436	0.216626
C84	C	0.649288	-0.085114	0.216617
C85	C	0.649259	-0.380126	0.099927
C86	C	0.649341	-0.379907	0.049992
C87	C	0.678035	-0.329592	0.693411
C88	C	0.678057	-0.329525	0.881084
O89	O	0.702486	-0.286600	0.905354
N90	N	0.649323	-0.379955	0.904547
C91	C	0.620579	-0.430401	0.881089
O92	O	0.596136	-0.473287	0.905352
C93	C	0.620554	-0.430464	0.693417
C94	C	0.649294	-0.380037	0.669956
C95	C	0.706771	-0.279168	0.669951
C96	C	0.706767	-0.279189	0.623035
C97	C	0.678026	-0.329633	0.599580
C98	C	0.649290	-0.380057	0.623041
C99	C	0.591809	-0.480906	0.669959
C100	C	0.591804	-0.480916	0.623038
C101	C	0.620544	-0.430488	0.599578
C102	C	0.620545	-0.430521	0.552670
N103	N	0.649279	-0.380092	0.529207
C104	C	0.678020	-0.329648	0.552662
C105	C	0.620594	-0.430366	0.979620
C106	C	0.620601	-0.430351	1.026537
C107	C	0.678078	-0.329474	1.026530
C108	C	0.678074	-0.329493	0.979611
C109	C	0.649328	-0.379936	0.956157
C110	C	0.678009	-0.329695	0.454136
C111	C	0.678004	-0.329722	0.407217
C112	C	0.620525	-0.430596	0.407229
C113	C	0.620531	-0.430572	0.454144
C114	C	0.649275	-0.380115	0.477597
O115	O	0.596125	-0.473418	0.528372
O116	O	0.702452	-0.286755	0.528391
C117	C	0.678039	-0.329572	0.740327
C118	C	0.649302	-0.379996	0.763787
C119	C	0.620561	-0.430440	0.740332
C120	C	0.649309	-0.379981	0.810705
C121	C	0.678049	-0.329537	0.834160
C122	C	0.706784	-0.279107	0.810697
C123	C	0.706779	-0.279128	0.763782
C124	C	0.591827	-0.480870	0.763795
C125	C	0.591834	-0.480846	0.810711
C126	C	0.620575	-0.430402	0.834166
C127	C	0.765982	-0.879289	0.216658
C128	C	0.815917	-0.879274	0.216681
C129	C	0.649237	-0.879293	0.099457
C130	C	0.649227	-0.879257	0.049523
C131	C	0.532081	-0.879465	0.216614
C132	C	0.482147	-0.879504	0.216605
C133	C	0.649251	-0.879503	0.333358
C134	C	0.649135	-0.879690	0.383292
C135	C	0.839369	-0.929780	0.245392
C136	C	0.886287	-0.929782	0.245413
C137	C	0.909753	-0.879274	0.216726
C138	C	0.886298	-0.828766	0.188012
C139	C	0.839380	-0.828769	0.187989
C140	C	0.620497	-0.929708	0.026058
C141	C	0.620479	-0.929675	-0.020861
C142	C	0.649193	-0.879194	-0.044314
C143	C	0.677923	-0.828738	-0.020846
C144	C	0.677939	-0.828768	0.026072
C145	C	0.458691	-0.829091	0.245338
C146	C	0.411772	-0.829111	0.245330
C147	C	0.388311	-0.879549	0.216589
C148	C	0.411770	-0.929964	0.187852
C149	C	0.458688	-0.929939	0.187859
C150	C	0.620547	-0.828988	0.406724
C151	C	0.620430	-0.829163	0.453643
C152	C	0.648904	-0.880035	0.477128
C153	C	0.677494	-0.930741	0.453693
C154	C	0.677608	-0.930570	0.406775
H155	H	0.478252	-0.471817	0.268669
O156	O	0.734647	-0.230021	0.741018
C157	C	0.724844	-0.151405	0.752482
H158	H	0.688953	-0.147418	0.765363
H159	H	0.748930	-0.130792	0.779725
C160	C	0.774161	-0.103657	0.694981
C161	C	0.730078	-0.098759	0.710799
H162	H	0.777392	-0.071181	0.669270
H163	H	0.780767	-0.156622	0.687259
H164	H	0.794228	-0.086480	0.717688
H165	H	0.710013	-0.115944	0.688095
H166	H	0.723469	-0.045795	0.718517
H167	H	-0.179303	-0.288567	0.164637
H168	H	0.700891	-0.971855	0.387700
O169	O	0.705830	-0.779653	0.048813
C170	C	0.695988	-0.701037	0.037362
H171	H	0.678700	-0.699396	0.003299
H172	H	0.672901	-0.674495	0.063773
C173	C	0.761011	-0.655245	0.077028
C174	C	0.739781	-0.653230	0.035190
H175	H	0.788024	-0.625754	0.075690
H176	H	0.767641	-0.708210	0.084744
H177	H	0.741767	-0.633128	0.099033
H178	H	0.759022	-0.675356	0.013187
H179	H	0.733155	-0.600267	0.027470
O180	O	0.734766	-0.230188	0.833466
C181	C	0.779540	-0.247422	0.822015
H182	H	0.781802	-0.310440	0.809128
H183	H	0.791289	-0.205139	0.794780
C184	C	0.806742	-0.160839	0.879534
C185	C	0.809522	-0.238241	0.863709
H186	H	0.825237	-0.155172	0.905251
H187	H	0.776577	-0.149225	0.887247
H188	H	0.816532	-0.125612	0.856834
H189	H	0.799726	-0.273465	0.886407
H190	H	0.839686	-0.249860	0.856000
O191	O	0.592559	-0.978772	-0.043582
C192	C	0.567219	-1.023324	-0.012818
H193	H	0.585635	-1.026050	0.020626
H194	H	0.533093	-0.994479	-0.007825
C195	C	0.538143	-1.103926	-0.072210
C196	C	0.560764	-1.107279	-0.031135
H197	H	0.534159	-1.155713	-0.083509
H198	H	0.555214	-1.073909	-0.092937
H199	H	0.509707	-1.079885	-0.068044
H200	H	0.589201	-1.131311	-0.035302
H201	H	0.543698	-1.137303	-0.010408
O202	O	0.563872	-0.529783	0.692794
C203	C	0.534857	-0.484862	0.719910
H204	H	0.550710	-0.425087	0.726934
H205	H	0.501564	-0.476191	0.701817
C206	C	0.507250	-0.601667	0.755854
C207	C	0.526723	-0.528253	0.764484
H208	H	0.502230	-0.628434	0.783349
H209	H	0.526796	-0.631933	0.737584
H210	H	0.479508	-0.594431	0.740775
H211	H	0.554467	-0.535491	0.779557
H212	H	0.507181	-0.497990	0.782757
O213	O	0.592640	-0.479668	0.476889
C214	C	0.602451	-0.558296	0.465458
H215	H	0.619720	-0.559957	0.431399
H216	H	0.625545	-0.584856	0.491880
C217	C	0.537437	-0.604020	0.505120
C218	C	0.558643	-0.606062	0.463287
H219	H	0.510414	-0.633486	0.503783
H220	H	0.530827	-0.551048	0.512823
H221	H	0.556686	-0.626152	0.527134
H222	H	0.539396	-0.583921	0.441275
H223	H	0.565248	-0.659032	0.455580
O224	O	0.388997	-0.978878	0.159874
C225	C	0.400449	-0.961629	0.115099
H226	H	0.413340	-0.898608	0.112833
H227	H	0.427682	-1.003902	0.103354
C228	C	0.342926	-1.048221	0.087902
C229	C	0.358756	-0.970815	0.085117
H230	H	0.317209	-1.053890	0.069406
H231	H	0.335211	-1.059845	0.118067
H232	H	0.365624	-1.083440	0.078114
H233	H	0.336060	-0.935599	0.094910
H234	H	0.366466	-0.959186	0.054953
O235	O	0.705804	-0.779787	-0.043701
C236	C	0.699620	-0.790580	-0.090142
H237	H	0.684907	-0.851457	-0.096550
H238	H	0.675689	-0.743797	-0.103457
C239	C	0.763137	-0.708562	-0.106359
C240	C	0.745070	-0.783335	-0.114229
H241	H	0.791172	-0.704089	-0.121218
H242	H	0.767303	-0.701288	-0.075071
H243	H	0.743191	-0.669585	-0.117455
H244	H	0.765014	-0.822310	-0.103128
H245	H	0.740909	-0.790615	-0.145517
O246	O	0.032917	-0.530418	0.301888
C247	C	0.044377	-0.609011	0.292021
H248	H	0.057258	-0.612908	0.256127
H249	H	0.071620	-0.629692	0.316091
C250	C	-0.013125	-0.656873	0.341300
C251	C	0.002692	-0.661661	0.297214
H252	H	-0.038838	-0.689352	0.344505
H253	H	-0.020845	-0.603924	0.347949
H254	H	0.009581	-0.674106	0.361353
H255	H	-0.020012	-0.644419	0.277162
H256	H	0.010407	-0.714609	0.290561
H257	H	0.393144	-0.471819	0.268690
O258	O	0.481407	-0.780018	0.273273
C259	C	0.450635	-0.735546	0.298636
H260	H	0.417187	-0.732829	0.280226
H261	H	0.445655	-0.764455	0.332751
C262	C	0.510012	-0.654922	0.327735
C263	C	0.468932	-0.651579	0.305122
H264	H	0.521299	-0.603128	0.331739
H265	H	0.530744	-0.684885	0.310649
H266	H	0.505856	-0.679016	0.356163
H267	H	0.473090	-0.627494	0.276694
H268	H	0.448201	-0.621610	0.322204
H269	H	0.568391	-0.521985	0.603944
H270	H	0.597186	-0.471448	0.960528
H271	H	0.947957	-0.879279	0.216750
H272	H	0.568432	-0.521917	0.829808
H273	H	0.649176	-0.879179	-0.082517
O274	O	0.563954	-0.529988	0.741036
C275	C	0.573757	-0.608598	0.752535
H276	H	0.609649	-0.612580	0.765439
H277	H	0.549674	-0.629192	0.779772
C278	C	0.524429	-0.656377	0.695023
C279	C	0.568513	-0.661269	0.710869
H280	H	0.521192	-0.688869	0.669322
H281	H	0.517823	-0.603416	0.687276
H282	H	0.504365	-0.673537	0.717724
H283	H	0.588576	-0.644100	0.688170
H284	H	0.575122	-0.714229	0.718610
O285	O	0.266063	-0.530316	0.301946
C286	C	0.235302	-0.574916	0.327262
H287	H	0.201860	-0.542610	0.328840
H288	H	0.230302	-0.634781	0.310766
C289	C	0.294702	-0.626087	0.373131
C290	C	0.253629	-0.586404	0.375072
H291	H	0.306007	-0.633177	0.402621
H292	H	0.315427	-0.596042	0.356074
H293	H	0.290529	-0.675970	0.359382
H294	H	0.257803	-0.536519	0.388815
H295	H	0.232905	-0.616442	0.392132
H296	H	0.177338	-0.522362	0.297407
O297	O	-0.090521	-0.479842	0.273294
C298	C	-0.121281	-0.524449	0.298609
H299	H	-0.154724	-0.492147	0.300188
H300	H	-0.126278	-0.584313	0.282111
C301	C	-0.061878	-0.575616	0.344476
C302	C	-0.102953	-0.535939	0.346418
H303	H	-0.050573	-0.582708	0.373966
H304	H	-0.041155	-0.545566	0.327420
H305	H	-0.066049	-0.625498	0.330725
H306	H	-0.098781	-0.486054	0.360163
H307	H	-0.123675	-0.565981	0.363478
O308	O	0.388920	-0.780168	0.273208
C309	C	0.342478	-0.791009	0.267051
H310	H	0.336060	-0.816809	0.232374
H311	H	0.329175	-0.833047	0.293687
C312	C	0.326269	-0.679524	0.313777
C313	C	0.318386	-0.711206	0.271185
H314	H	0.311407	-0.630299	0.316329
H315	H	0.357558	-0.672222	0.317927
H316	H	0.315183	-0.714563	0.335970
H317	H	0.329476	-0.676172	0.248994
H318	H	0.287098	-0.718501	0.267032
O319	O	0.648750	-0.880068	0.522704
C320	C	0.617402	-0.824417	0.538345
H321	H	0.611359	-0.778167	0.511336
H322	H	0.584501	-0.855329	0.546546
C323	C	0.643189	-0.841150	0.614011
C324	C	0.635770	-0.784342	0.580839
H325	H	0.654517	-0.816432	0.640225
H326	H	0.664308	-0.878646	0.603474
H327	H	0.615770	-0.866906	0.620839
H328	H	0.663190	-0.758594	0.574008
H329	H	0.614656	-0.746841	0.591376
O330	O	0.592672	-0.479633	0.384386
C331	C	0.618244	-0.530602	0.357273
H332	H	0.652296	-0.502794	0.350259
H333	H	0.623168	-0.589058	0.375362
C334	C	0.551706	-0.579028	0.321309
C335	C	0.593527	-0.544871	0.312691
H336	H	0.536459	-0.587834	0.293810
H337	H	0.534477	-0.544691	0.339577
H338	H	0.555815	-0.627738	0.336385
H339	H	0.589418	-0.496158	0.297621
H340	H	0.610755	-0.579200	0.294420
H341	H	0.905378	-0.970911	0.268798
O342	O	0.705138	-0.980080	0.476579
C343	C	0.698895	-0.969361	0.523013
H344	H	0.684403	-0.908337	0.529440
H345	H	0.674755	-1.015909	0.536210
C346	C	0.762059	-1.052160	0.539332
C347	C	0.744263	-0.977206	0.547226
H348	H	0.790044	-1.057002	0.554268
H349	H	0.766265	-1.059384	0.508048
H350	H	0.741939	-1.090942	0.550330
H351	H	0.764381	-0.938427	0.536223
H352	H	0.740062	-0.969975	0.578508
H353	H	-0.179265	-0.471884	0.268751
O354	O	0.592666	-0.978829	0.048855
C355	C	0.618253	-1.029770	0.075999
H356	H	0.653634	-1.034614	0.061866
H357	H	0.619804	-1.005409	0.111561
C358	C	0.552858	-1.105834	0.094059
C359	C	0.596313	-1.111787	0.076699
H360	H	0.539324	-1.156425	0.094493
H361	H	0.535619	-1.071512	0.075773
H362	H	0.554157	-1.085530	0.123693
H363	H	0.595013	-1.132081	0.047064
H364	H	0.613551	-1.146115	0.094980
H365	H	0.036513	-0.238007	0.135933
O366	O	0.342734	-0.879649	0.216518
C367	C	0.327051	-0.934992	0.185000
H368	H	0.354078	-0.946006	0.158749
H369	H	0.318741	-0.992524	0.202806
C370	C	0.251441	-0.889320	0.194221
C371	C	0.284635	-0.902844	0.161977
H372	H	0.225276	-0.869493	0.180021
H373	H	0.262007	-0.852037	0.215457
H374	H	0.244521	-0.937268	0.209057
H375	H	0.291558	-0.854895	0.147145
H376	H	0.274070	-0.940119	0.140738
H377	H	-0.094196	-0.288545	0.164631
H378	H	0.177269	-0.237977	0.135916
H379	H	0.121619	-0.237999	0.135924
H380	H	0.477782	-0.970995	0.164462
H381	H	0.820269	-0.970909	0.268755
H382	H	0.262377	-0.237960	0.135914
H383	H	0.905411	-0.787644	0.164656
H384	H	0.393085	-0.288492	0.164571
H385	H	0.478208	-0.288492	0.164561
H386	H	0.820289	-0.787636	0.164610
H387	H	0.121696	-0.522368	0.297415
H388	H	0.701409	-0.288657	0.388117
H389	H	0.701414	-0.288605	0.473226
O390	O	0.734718	-0.230299	0.600223
C391	C	0.763723	-0.275196	0.573083
H392	H	0.766509	-0.337318	0.587229
H393	H	0.749821	-0.277923	0.537524
C394	C	0.807000	-0.160337	0.554985
C395	C	0.810424	-0.236635	0.572362
H396	H	0.835807	-0.136550	0.554538
H397	H	0.787458	-0.130089	0.573268
H398	H	0.795413	-0.162621	0.525354
H399	H	0.822005	-0.234350	0.601994
H400	H	0.829969	-0.266883	0.554083
H401	H	0.597361	-0.787558	0.387609
O402	O	0.734713	-0.230272	0.692781
C403	C	0.763737	-0.275177	0.719927
H404	H	0.747884	-0.334945	0.726969
H405	H	0.797023	-0.283864	0.701851
C406	C	0.791361	-0.158348	0.755834
C407	C	0.771889	-0.231754	0.764487
H408	H	0.796392	-0.131563	0.783320
H409	H	0.771809	-0.128094	0.737545
H410	H	0.819098	-0.165598	0.740770
H411	H	0.744151	-0.224504	0.779546
H412	H	0.791437	-0.262006	0.782780
H413	H	0.701475	-0.288429	0.960512
H414	H	0.701480	-0.288401	1.045634
H415	H	0.597203	-0.471423	1.045635
H416	H	0.597149	-0.787868	0.472717
