data_functionalizedCrystal
_audit_creation_method	'MofGen! by Chris Wilmer'
_symmetry_space_group_name_H-M	'P1'
_symmetry_Int_Tables_number	1
_symmetry_cell_setting	triclinic
loop_
_symmetry_equiv_pos_as_xyz
  x,y,z
_cell_length_a	15.625950
_cell_length_b	15.538191
_cell_length_c	7.088929
_cell_angle_alpha	86.254841
_cell_angle_beta	114.141725
_cell_angle_gamma	66.741480
loop_
_atom_site_label
_atom_site_type_symbol
_atom_site_fract_x
_atom_site_fract_y
_atom_site_fract_z
O1	O	1.208831	0.081738	0.678820
O2	O	0.926310	0.108270	0.483015
O3	O	1.122565	-0.044370	0.619023
O4	O	1.012576	0.234379	0.542812
O5	O	1.148808	-0.064814	0.955185
O6	O	0.952552	0.087827	0.819177
O7	O	1.235074	0.061295	1.014982
Cu8	Cu	1.096209	0.072695	0.947774
Cu9	Cu	1.065174	0.096871	0.550224
O10	O	1.038819	0.213936	0.878974
C11	C	0.904156	0.098869	0.626648
C12	C	0.799051	0.101303	0.553803
C13	C	0.524768	0.053658	1.230173
C14	C	0.425990	0.055970	1.161625
C15	C	0.397430	0.078255	0.795189
C16	C	0.496206	0.075950	0.863705
C17	C	0.559868	0.063650	1.081200
C18	C	0.531306	0.085942	0.714732
C19	C	0.630075	0.083632	0.783245
C20	C	0.693744	0.071330	1.000731
C21	C	0.658637	0.061340	1.149713
C22	C	0.467645	0.098235	0.497240
C23	C	0.502745	0.108227	0.348267
C24	C	0.601513	0.105924	0.416777
C25	C	0.665182	0.093622	0.634263
C26	C	0.636620	0.115913	0.267795
C27	C	0.735389	0.113603	0.336308
C28	C	0.763951	0.091311	0.702776
C29	C	1.147193	-0.090157	0.795073
C30	C	1.181470	-0.196129	0.818810
C31	C	0.840929	-0.470015	0.582835
C32	C	0.873163	-0.569598	0.605179
C33	C	1.054469	-0.599445	0.730835
C34	C	1.022250	-0.499862	0.708491
C35	C	0.915478	-0.435155	0.634492
C36	C	1.096799	-0.465002	0.760149
C37	C	1.064583	-0.365429	0.737817
C38	C	0.957817	-0.300716	0.663828
C39	C	0.883262	-0.335582	0.612161
C40	C	1.203571	-0.529712	0.834161
C41	C	1.278120	-0.494852	0.885819
C42	C	1.245903	-0.395276	0.863473
C43	C	1.139137	-0.330563	0.789484
C44	C	1.320458	-0.360410	0.915140
C45	C	1.288241	-0.260837	0.892808
C46	C	1.106921	-0.230990	0.767152
C47	C	1.257227	0.070696	0.871345
C48	C	1.362331	0.068263	0.944176
C49	C	1.014190	0.259723	0.702920
C50	C	0.979912	0.365696	0.679170
N51	N	1.118045	0.055689	1.227394
N52	N	1.043349	0.113868	0.270610
H53	H	0.774169	0.069448	1.056511
H54	H	1.195466	-0.004599	1.362704
H55	H	0.753984	-0.417325	0.522563
H56	H	0.965937	0.174159	1.135317
O57	O	0.800593	-0.603292	0.554791
C58	C	0.699454	-0.524827	0.484743
H59	H	0.698101	-0.454353	0.423611
H60	H	0.637738	-0.537223	0.349648
H61	H	0.680740	-0.519455	0.624320
O62	O	0.825754	0.079542	0.913975
C63	C	0.844801	0.160652	0.937553
H64	H	0.779699	0.225768	0.794054
H65	H	0.845474	0.178676	1.091323
H66	H	0.924628	0.143100	0.946350
O67	O	0.720530	0.049222	1.361067
C68	C	0.744026	-0.040104	1.482811
H69	H	0.735745	-0.091048	1.375643
H70	H	0.828540	-0.074579	1.620031
H71	H	0.686797	-0.026916	1.551207
O72	O	1.424179	-0.423162	0.986778
C73	C	1.457866	-0.397350	0.845414
H74	H	1.404169	-0.317282	0.753279
H75	H	1.542759	-0.409978	0.941284
H76	H	1.453913	-0.443916	0.727370
H77	H	0.576600	0.043657	1.407274
H78	H	0.584776	0.125918	0.090714
H79	H	0.397407	0.047855	1.282947
O80	O	1.158133	-0.662432	0.802593
C81	C	1.170590	-0.757797	0.811286
H82	H	1.092107	-0.754704	0.696707
H83	H	1.233112	-0.799239	0.762297
H84	H	1.196624	-0.796564	0.981880
H85	H	0.345586	0.088265	0.618105
H86	H	0.387219	0.100120	0.441462
H87	H	0.763965	0.121744	0.214997
O88	O	0.440748	0.120211	0.137066
C89	C	0.346056	0.120080	0.108542
H90	H	0.330599	0.141198	0.246793
H91	H	0.277556	0.174675	-0.049645
H92	H	0.353444	0.044265	0.105411
H93	H	1.019976	-0.178300	0.706880
O94	O	0.779491	-0.272791	0.539970
C95	C	0.718626	-0.277437	0.333073
H96	H	0.763259	-0.350451	0.309111
H97	H	0.639841	-0.269559	0.315493
H98	H	0.703560	-0.216058	0.207314
H99	H	1.229797	-0.610789	0.852323
O100	O	1.381784	-0.557838	0.957577
C101	C	1.394241	-0.653204	0.966271
H102	H	1.315759	-0.650111	0.851691
H103	H	1.456763	-0.694646	0.917281
H104	H	1.420275	-0.691971	1.136864
H105	H	0.931589	-0.219638	0.645658
O106	O	1.360533	-0.226832	0.942638
C107	C	1.333737	-0.159559	0.759359
H108	H	1.245666	-0.128165	0.643424
H109	H	1.352500	-0.098230	0.809395
H110	H	1.381376	-0.197883	0.677056
