data_functionalizedCrystal
_audit_creation_method	'MofGen! by Chris Wilmer'
_symmetry_space_group_name_H-M	'P1'
_symmetry_Int_Tables_number	1
_symmetry_cell_setting	triclinic
loop_
_symmetry_equiv_pos_as_xyz
  x,y,z
_cell_length_a	19.188925
_cell_length_b	19.188930
_cell_length_c	16.776229
_cell_angle_alpha	89.988225
_cell_angle_beta	89.991906
_cell_angle_gamma	83.143665
loop_
_atom_site_label
_atom_site_type_symbol
_atom_site_fract_x
_atom_site_fract_y
_atom_site_fract_z
O1	O	0.926150	0.087151	-0.066314
O2	O	1.259483	0.420484	0.267019
O3	O	1.592816	0.753818	0.600352
O4	O	0.722838	0.098889	-0.066313
O5	O	1.056171	0.432223	0.267020
O6	O	1.389505	0.765556	0.600353
O7	O	0.830361	-0.008636	-0.066298
O8	O	1.163694	0.324698	0.267035
O9	O	1.497028	0.658031	0.600368
O10	O	0.818627	0.194676	-0.066329
O11	O	1.151960	0.528009	0.267004
O12	O	1.485293	0.861343	0.600337
O13	O	0.830347	-0.008642	0.066278
O14	O	1.163680	0.324691	0.399612
O15	O	1.497013	0.658025	0.732945
O16	O	0.722824	0.098883	0.066263
O17	O	1.056157	0.432216	0.399597
O18	O	1.389490	0.765549	0.732930
O19	O	0.926135	0.087145	0.066262
O20	O	1.259469	0.420478	0.399596
O21	O	1.592802	0.753811	0.732929
Zn22	Zn	0.824477	0.093013	0.087312
Zn23	Zn	1.157811	0.426346	0.420645
Zn24	Zn	1.491144	0.759679	0.753979
Zn25	Zn	0.824496	0.093021	-0.087363
Zn26	Zn	1.157829	0.426355	0.245970
Zn27	Zn	1.491163	0.759688	0.579304
O28	O	0.818612	0.194669	0.066247
O29	O	1.151946	0.528003	0.399581
O30	O	1.485279	0.861336	0.732914
C31	C	0.696820	0.098507	-0.000025
C32	C	1.030153	0.431840	0.333309
C33	C	1.363486	0.765173	0.666642
C34	C	0.619315	0.097367	-0.000024
C35	C	0.952648	0.430701	0.333310
C36	C	1.285982	0.764034	0.666643
C37	C	0.057545	0.152831	-0.000034
C38	C	0.390878	0.486165	0.333299
C39	C	0.724211	0.819498	0.666633
C40	C	0.130368	0.153908	-0.000038
C41	C	0.463701	0.487241	0.333295
C42	C	0.797035	0.820575	0.666628
C43	C	0.175302	0.090816	-0.000027
C44	C	0.508636	0.424149	0.333306
C45	C	0.841969	0.757482	0.666639
C46	C	0.147408	0.026642	-0.000032
C47	C	0.480742	0.359976	0.333301
C48	C	0.814075	0.693309	0.666634
C49	C	0.074586	0.025568	-0.000036
C50	C	0.407920	0.358901	0.333298
C51	C	0.741253	0.692234	0.666631
N52	N	0.295975	0.045137	0.045110
N53	N	0.629308	0.378471	0.378443
N54	N	0.962641	0.711804	0.711776
N55	N	0.365152	0.046163	0.045115
N56	N	0.698485	0.379496	0.378448
N57	N	1.031819	0.712829	0.711781
C58	C	0.394712	0.094050	-0.000018
C59	C	0.728045	0.427383	0.333315
C60	C	1.061378	0.760716	0.666648
N61	N	0.352479	0.140884	-0.045147
N62	N	0.685812	0.474217	0.288186
N63	N	1.019146	0.807550	0.621520
N64	N	0.283295	0.139861	-0.045148
N65	N	0.616628	0.473194	0.288185
N66	N	0.949962	0.806527	0.621518
C67	C	0.254267	0.091974	-0.000024
C68	C	0.587600	0.425307	0.333309
C69	C	0.920933	0.758641	0.666643
C70	C	0.501561	0.159386	-0.000024
C71	C	0.834894	0.492720	0.333309
C72	C	1.168227	0.826053	0.666643
C73	C	0.574385	0.160460	-0.000033
C74	C	0.907719	0.493794	0.333300
C75	C	1.241052	0.827127	0.666633
C76	C	0.591425	0.033193	-0.000019
C77	C	0.924758	0.366526	0.333314
C78	C	1.258091	0.699859	0.666647
C79	C	0.518601	0.032121	-0.000018
C80	C	0.851934	0.365454	0.333315
C81	C	1.185268	0.698787	0.666649
C82	C	0.473673	0.095220	-0.000016
C83	C	0.807006	0.428553	0.333317
C84	C	1.140340	0.761886	0.666650
C85	C	0.829974	-0.034650	-0.000008
C86	C	1.163307	0.298683	0.333326
C87	C	1.496640	0.632017	0.666659
C88	C	0.828833	-0.112154	-0.000001
C89	C	1.162166	0.221179	0.333333
C90	C	1.495500	0.554512	0.666666
C91	C	0.891924	-0.157079	0.000003
C92	C	1.225257	0.176254	0.333336
C93	C	1.558591	0.509587	0.666669
C94	C	0.890852	-0.229903	-0.000010
C95	C	1.224186	0.103430	0.333323
C96	C	1.557519	0.436763	0.666657
C97	C	0.826686	-0.257799	-0.000010
C98	C	1.160020	0.075535	0.333323
C99	C	1.493353	0.408868	0.666656
C100	C	0.763587	-0.212864	-0.000018
C101	C	1.096920	0.120470	0.333315
C102	C	1.430254	0.453803	0.666648
C103	C	0.764660	-0.140041	-0.000014
C104	C	1.097994	0.193292	0.333320
C105	C	1.431327	0.526625	0.666653
N106	N	0.777634	-0.365805	0.045108
N107	N	1.110967	-0.032472	0.378442
N108	N	1.444301	0.300862	0.711775
N109	N	0.776618	-0.434983	0.045105
N110	N	1.109952	-0.101650	0.378439
N111	N	1.443285	0.231683	0.711772
C112	C	0.823448	-0.477207	-0.000026
C113	C	1.156781	-0.143874	0.333307
C114	C	1.490115	0.189459	0.666640
N115	N	0.871342	-0.447640	-0.045145
N116	N	1.204675	-0.114307	0.288188
N117	N	1.538009	0.219026	0.621521
N118	N	0.872360	-0.378456	-0.045139
N119	N	1.205693	-0.045122	0.288194
N120	N	1.539026	0.288211	0.621528
C121	C	0.825515	-0.336761	-0.000016
C122	C	1.158848	-0.003428	0.333317
C123	C	1.492182	0.329906	0.666651
C124	C	0.885381	-0.601097	-0.000038
C125	C	1.218715	-0.267763	0.333295
C126	C	1.552048	0.065570	0.666629
C127	C	0.884307	-0.673922	-0.000056
C128	C	1.217640	-0.340588	0.333278
C129	C	1.550974	-0.007255	0.666611
C130	C	0.757040	-0.656880	-0.000056
C131	C	1.090373	-0.323547	0.333277
C132	C	1.423706	0.009786	0.666611
C133	C	0.758116	-0.584057	-0.000046
C134	C	1.091449	-0.250724	0.333287
C135	C	1.424782	0.082610	0.666620
C136	C	0.822289	-0.556170	-0.000033
C137	C	1.155622	-0.222837	0.333300
C138	C	1.488955	0.110497	0.666633
C139	C	0.952154	0.087527	-0.000028
C140	C	1.285487	0.420861	0.333305
C141	C	1.618820	0.754194	0.666639
C142	C	1.029658	0.088666	-0.000034
C143	C	1.362992	0.422000	0.333299
C144	C	1.696325	0.755333	0.666632
C145	C	0.819000	0.220684	-0.000045
C146	C	1.152333	0.554017	0.333288
C147	C	1.485666	0.887350	0.666622
C148	C	0.820140	0.298188	-0.000057
C149	C	1.153474	0.631522	0.333276
C150	C	1.486807	0.964855	0.666609
N151	N	0.824470	0.093006	0.206523
N152	N	1.157803	0.426340	0.539857
N153	N	1.491136	0.759673	0.873190
N154	N	0.824509	0.093022	-0.206574
N155	N	1.157843	0.426355	0.126759
N156	N	1.491176	0.759689	0.460092
C157	C	0.872095	0.045414	0.248247
C158	C	1.205429	0.378747	0.581580
C159	C	1.538762	0.712080	0.914914
C160	C	0.872099	0.045413	0.331699
C161	C	1.205432	0.378746	0.665033
C162	C	1.538766	0.712080	0.998366
C163	C	0.824480	0.093009	0.373426
C164	C	1.157813	0.426342	0.706760
C165	C	1.491147	0.759676	1.040093
C166	C	0.776849	0.140604	0.331697
C167	C	1.110183	0.473937	0.665030
C168	C	1.443516	0.807270	0.998363
C169	C	0.776843	0.140601	0.248246
C170	C	1.110176	0.473934	0.581579
C171	C	1.443509	0.807267	0.914913
C172	C	0.776875	0.140617	0.668244
C173	C	1.110208	0.473951	1.001577
C174	C	1.443541	0.807284	1.334910
C175	C	0.776886	0.140618	0.751700
C176	C	1.110220	0.473952	1.085034
C177	C	1.443553	0.807285	1.418367
C178	C	0.872131	0.045430	0.751697
C179	C	1.205464	0.378763	1.085030
C180	C	1.538798	0.712097	1.418364
C181	C	0.872124	0.045427	0.668246
C182	C	1.205458	0.378760	1.001580
C183	C	1.538791	0.712093	1.334913
C184	C	0.824492	0.093019	0.626524
C185	C	1.157825	0.426352	0.959857
C186	C	1.491158	0.759685	1.293191
C187	C	0.824487	0.093018	0.536036
C188	C	1.157820	0.426351	0.869369
C189	C	1.491154	0.759685	1.202702
C190	C	0.824487	0.093014	0.463913
C191	C	1.157821	0.426347	0.797246
C192	C	1.491154	0.759680	1.130580
H193	H	0.597088	0.212713	-0.000040
H194	H	0.930421	0.546046	0.333294
H195	H	1.263755	0.879380	0.666627
H196	H	0.628010	-0.018178	-0.000016
H197	H	0.961343	0.315155	0.333317
H198	H	1.294676	0.648489	0.666650
H199	H	0.944179	-0.134379	0.000010
H200	H	1.277512	0.198954	0.333344
H201	H	1.610845	0.532288	0.666677
H202	H	0.464978	0.210765	-0.000024
H203	H	0.798311	0.544098	0.333309
H204	H	1.131645	0.877432	0.666642
Cl205	Cl	0.001068	0.232156	-0.000043
Cl206	Cl	0.334401	0.565489	0.333290
Cl207	Cl	0.667734	0.898822	0.666624
H208	H	0.942230	-0.266488	-0.000010
H209	H	1.275564	0.066845	0.333323
H210	H	1.608897	0.400178	0.666656
H211	H	0.153078	0.206160	-0.000031
H212	H	0.486411	0.539494	0.333303
H213	H	0.819744	0.872827	0.666636
H214	H	0.738060	0.179354	0.214275
H215	H	1.071394	0.512688	0.547609
H216	H	1.404727	0.846021	0.880942
Cl217	Cl	0.039528	-0.055104	-0.000038
Cl218	Cl	0.372861	0.278230	0.333295
Cl219	Cl	0.706194	0.611563	0.666628
H220	H	0.704794	-0.679592	-0.000060
H221	H	1.038128	-0.346258	0.333273
H222	H	1.371461	-0.012925	0.666607
Cl223	Cl	0.682921	-0.247931	-0.000025
Cl224	Cl	1.016254	0.085402	0.333308
Cl225	Cl	1.349587	0.418736	0.666642
Cl226	Cl	0.483542	-0.048549	-0.000021
Cl227	Cl	0.816875	0.284785	0.333312
Cl228	Cl	1.150208	0.618118	0.666645
H229	H	0.706740	-0.547478	-0.000045
H230	H	1.040073	-0.214144	0.333289
H231	H	1.373407	0.119189	0.666622
Cl232	Cl	0.931992	-0.014408	0.615793
Cl233	Cl	1.265325	0.318926	0.949126
Cl234	Cl	1.598659	0.652259	1.282460
H235	H	0.910875	0.006659	0.214278
H236	H	1.244208	0.339992	0.547612
H237	H	1.577542	0.673325	0.880945
H238	H	0.910879	0.006659	0.365670
H239	H	1.244212	0.339993	0.699004
H240	H	1.577546	0.673326	1.032337
Cl241	Cl	0.203896	-0.052674	-0.000022
Cl242	Cl	0.537230	0.280660	0.333312
Cl243	Cl	0.870563	0.613993	0.666645
Cl244	Cl	0.685339	-0.083561	-0.000018
Cl245	Cl	1.018672	0.249773	0.333316
Cl246	Cl	1.352006	0.583106	0.666649
H247	H	0.910914	0.006676	0.785676
H248	H	1.244248	0.340009	1.119010
H249	H	1.577581	0.673342	1.452343
H250	H	0.937635	-0.578390	-0.000031
H251	H	1.270968	-0.245057	0.333302
H252	H	1.604301	0.088277	0.666635
Cl253	Cl	0.717017	0.200457	0.804156
Cl254	Cl	1.050350	0.533790	1.137490
Cl255	Cl	1.383684	0.867124	1.470823
H256	H	0.738092	0.179370	0.634280
H257	H	1.071425	0.512703	0.967613
H258	H	1.404758	0.846036	1.300947
H259	H	0.935686	-0.710500	-0.000057
H260	H	1.269019	-0.377166	0.333276
H261	H	1.602352	-0.043833	0.666609
Cl262	Cl	0.716981	0.200437	0.384152
Cl263	Cl	1.050314	0.533770	0.717485
Cl264	Cl	1.383648	0.867103	1.050818
