data_functionalizedCrystal
_audit_creation_method	'MofGen! by Chris Wilmer'
_symmetry_space_group_name_H-M	'P1'
_symmetry_Int_Tables_number	1
_symmetry_cell_setting	triclinic
loop_
_symmetry_equiv_pos_as_xyz
  x,y,z
_cell_length_a	10.654550
_cell_length_b	8.559649
_cell_length_c	9.730223
_cell_angle_alpha	90.000781
_cell_angle_beta	89.996251
_cell_angle_gamma	77.131784
loop_
_atom_site_label
_atom_site_type_symbol
_atom_site_fract_x
_atom_site_fract_y
_atom_site_fract_z
O1	O	1.644677	0.224178	-0.114394
O2	O	1.276992	0.245537	-0.114371
O3	O	1.493228	0.002614	-0.114383
O4	O	1.428441	0.467100	-0.114382
O5	O	1.493225	0.002620	0.114197
O6	O	1.276989	0.245543	0.114209
O7	O	1.644674	0.224184	0.114186
Zn8	Zn	1.460831	0.234864	0.150489
Zn9	Zn	1.460835	0.234856	-0.150675
O10	O	1.428438	0.467106	0.114198
C11	C	1.230355	0.243972	-0.000079
C12	C	1.091396	0.239279	-0.000070
C13	C	0.997136	0.382308	-0.000090
C14	C	0.866571	0.377890	-0.000114
C15	C	0.924542	0.087401	-0.000104
C16	C	1.055103	0.091821	-0.000070
C17	C	0.963666	0.550020	-0.000101
C18	C	0.833101	0.545601	-0.000125
C19	C	1.498136	-0.056858	-0.000096
C20	C	1.512750	-0.234076	-0.000105
C21	C	1.691311	0.225749	-0.000110
C22	C	1.830270	0.230441	-0.000128
C23	C	1.423530	0.526579	-0.000092
C24	C	1.408916	0.703797	-0.000093
N25	N	1.460838	0.234869	0.356026
N26	N	1.460839	0.234839	-0.356211
C27	C	1.556605	0.127340	0.427946
C28	C	1.556604	0.127320	0.571829
C29	C	1.365062	0.342373	0.571858
C30	C	1.365060	0.342384	0.427978
C31	C	1.667193	0.003185	0.427931
C32	C	1.667192	0.003165	0.571814
H33	H	0.894975	-0.032654	-0.000125
H34	H	1.658424	-0.119498	0.388878
O35	O	1.271962	0.446980	0.358326
C36	C	1.187413	0.541840	0.452690
H37	H	1.238667	0.544256	0.555248
H38	H	1.099246	0.488888	0.467999
C39	C	1.081970	0.710759	0.270588
C40	C	1.144925	0.713737	0.396548
H41	H	1.055756	0.816792	0.235955
H42	H	1.138929	0.646847	0.207011
H43	H	1.008505	0.666625	0.283362
H44	H	1.218397	0.757852	0.383769
H45	H	1.087978	0.777661	0.460121
H46	H	1.612835	-0.316473	-0.000100
H47	H	1.287082	0.429908	0.630457
H48	H	0.986220	0.615614	0.095564
H49	H	1.754362	0.042060	0.383299
O50	O	1.644933	-0.135148	0.624875
C51	C	1.523836	-0.155792	0.580032
H52	H	1.495832	-0.085115	0.481194
H53	H	1.448585	-0.110616	0.662604
C54	C	1.565432	-0.421647	0.674415
C55	C	1.531042	-0.334851	0.553014
H56	H	1.569874	-0.532099	0.657754
H57	H	1.647016	-0.407738	0.704632
H58	H	1.502718	-0.383982	0.743213
H59	H	1.593765	-0.372502	0.484224
H60	H	1.449470	-0.348770	0.522785
H61	H	1.308838	-0.213815	-0.000082
O62	O	1.779028	0.035507	0.618479
C63	C	1.845218	-0.093800	0.698951
H64	H	1.812462	-0.207254	0.669218
H65	H	1.823546	-0.066542	0.812279
C66	C	2.031278	0.020735	0.710447
C67	C	1.991053	-0.118614	0.673921
H68	H	2.121236	0.005431	0.695014
H69	H	1.986683	0.107855	0.656236
H70	H	2.013206	0.043435	0.804886
H71	H	2.009110	-0.141301	0.579480
H72	H	2.035654	-0.205740	0.728116
O73	O	0.999861	0.613636	-0.117762
C74	C	1.131890	0.614451	-0.110750
H75	H	1.181498	0.519782	-0.034237
H76	H	1.143572	0.737543	-0.075797
C77	C	1.132388	0.693219	-0.347638
C78	C	1.193320	0.576936	-0.253672
H79	H	1.170281	0.670086	-0.435800
H80	H	1.043436	0.692676	-0.352362
H81	H	1.142128	0.795786	-0.318493
H82	H	1.183565	0.474376	-0.282808
H83	H	1.282271	0.577461	-0.248956
H84	H	0.784843	0.608790	-0.095793
H85	H	0.782193	0.596288	0.098559
H86	H	1.131848	-0.024647	-0.000034
