data_functionalizedCrystal
_audit_creation_method	'MofGen! by Chris Wilmer'
_symmetry_space_group_name_H-M	'P1'
_symmetry_Int_Tables_number	1
_symmetry_cell_setting	triclinic
loop_
_symmetry_equiv_pos_as_xyz
  x,y,z
_cell_length_a	14.853567
_cell_length_b	14.853567
_cell_length_c	13.930277
_cell_angle_alpha	90.000757
_cell_angle_beta	89.995755
_cell_angle_gamma	96.365070
loop_
_atom_site_label
_atom_site_type_symbol
_atom_site_fract_x
_atom_site_fract_y
_atom_site_fract_z
O1	O	1.196368	-0.117704	-0.079756
O2	O	0.933909	-0.131725	-0.079772
O3	O	1.072149	0.006516	-0.079767
O4	O	1.058128	-0.255944	-0.079762
O5	O	1.072130	0.006519	0.079895
O6	O	0.933890	-0.131722	0.079890
O7	O	1.196349	-0.117701	0.079905
Zn8	Zn	1.065116	-0.124711	0.105247
Zn9	Zn	1.065142	-0.124715	-0.105114
O10	O	1.058109	-0.255941	0.079900
C11	C	0.900311	-0.131088	0.000057
C12	C	0.800227	-0.129184	0.000051
C13	C	0.387693	-0.039019	0.000070
C14	C	0.366412	-0.203251	0.000073
C15	C	0.460446	-0.205042	0.000070
C16	C	0.518108	-0.123819	0.000066
C17	C	0.481736	-0.040806	0.000065
C18	C	0.496825	-0.288053	0.000061
C19	C	0.590864	-0.289846	0.000057
C20	C	0.648528	-0.208623	0.000060
C21	C	0.612150	-0.125607	0.000060
C22	C	0.669812	-0.044384	0.000056
C23	C	0.633437	0.038633	0.000063
C24	C	0.539399	0.040417	0.000067
C25	C	0.742565	-0.210407	0.000055
C26	C	0.763855	-0.046172	0.000050
C27	C	1.071504	0.040106	0.000061
C28	C	1.069601	0.140189	0.000053
C29	C	1.229947	-0.118337	0.000075
C30	C	1.330031	-0.120241	0.000075
C31	C	1.058754	-0.289531	0.000070
C32	C	1.060657	-0.389615	0.000072
N33	N	1.065106	-0.124708	0.248814
C34	C	0.979435	0.552723	0.000066
C35	C	1.143668	0.574004	0.000076
C36	C	1.145458	0.479971	0.000070
C37	C	1.064235	0.422309	0.000064
C38	C	0.981223	0.458680	0.000063
C39	C	1.228469	0.443591	0.000080
C40	C	1.230262	0.349552	0.000076
C41	C	1.149039	0.291889	0.000063
C42	C	1.066023	0.328266	0.000061
C43	C	0.984800	0.270604	0.000055
C44	C	0.901783	0.306979	0.000047
C45	C	0.899999	0.401017	0.000050
C46	C	1.150823	0.197851	0.000059
C47	C	0.986588	0.176561	0.000052
N48	N	1.065160	-0.124711	-0.248680
C49	C	1.003926	-0.185904	0.701081
C50	C	1.126382	-0.063519	0.701055
C51	C	1.126371	-0.063516	0.600559
C52	C	1.065138	-0.124709	0.550319
C53	C	1.003916	-0.185904	0.600576
C54	C	1.187598	-0.002328	0.550295
C55	C	1.187591	-0.002323	0.449793
C56	C	1.126353	-0.063512	0.399552
C57	C	1.065127	-0.124710	0.449814
C58	C	1.003894	-0.185902	0.399575
C59	C	0.942664	-0.247096	0.449835
C60	C	0.942677	-0.247094	0.550334
C61	C	1.126339	-0.063515	0.299053
C62	C	1.003883	-0.185903	0.299070
H63	H	0.680397	0.104764	0.000053
C64	C	0.808691	0.441032	0.000055
H65	H	0.819262	0.505295	0.000070
H66	H	0.775244	0.421256	-0.055623
H67	H	0.775244	0.421244	0.055739
H68	H	0.892811	-0.296924	0.408919
H69	H	1.218414	0.168238	0.000072
H70	H	1.297860	0.319944	0.000082
C71	C	0.302988	-0.292588	0.000079
H72	H	0.241773	-0.279634	0.000088
H73	H	0.314027	-0.326628	-0.055595
H74	H	0.314024	-0.326615	0.055767
H75	H	0.509774	0.108005	0.000096
H76	H	0.954071	-0.235724	0.742005
C77	C	0.347690	0.052295	0.000076
H78	H	0.395502	0.100409	0.000078
H79	H	0.311446	0.056409	-0.055597
H80	H	0.311452	0.056408	0.055765
H81	H	0.954016	-0.235731	0.258171
C82	C	0.433399	-0.377388	0.000069
H83	H	0.372185	-0.364432	0.000087
H84	H	0.444430	-0.411426	-0.055608
H85	H	0.444440	-0.411418	0.055754
H86	H	1.176196	-0.013696	0.258136
H87	H	0.810798	0.019971	0.000050
C88	C	1.254932	0.064994	0.394515
H89	H	1.291396	0.101441	0.438831
H90	H	1.292494	0.032500	0.355296
H91	H	1.222443	0.102586	0.355325
C92	C	0.875340	-0.314406	0.605622
H93	H	0.884126	-0.305648	0.672670
H94	H	0.815158	-0.304511	0.589171
H95	H	0.885210	-0.374596	0.589145
C96	C	1.193733	0.003787	0.756315
H97	H	1.184968	-0.004975	0.823367
H98	H	1.253909	-0.006110	0.739831
H99	H	1.183859	0.063977	0.739851
C100	C	0.630869	-0.381159	0.000062
H101	H	0.583059	-0.429274	0.000073
H102	H	0.667117	-0.385277	-0.055612
H103	H	0.667104	-0.385264	0.055750
H104	H	0.772178	-0.277998	0.000051
H105	H	0.920445	0.129618	0.000043
H106	H	1.237457	0.047489	0.591203
C107	C	0.812444	0.243546	0.000038
H108	H	0.825404	0.182333	0.000035
H109	H	0.778398	0.254581	0.055710
H110	H	0.778421	0.254579	-0.055652
H111	H	0.911844	0.582344	0.000055
C112	C	1.233007	0.637424	0.000083
H113	H	1.282702	0.602293	0.000088
H114	H	1.235728	0.674556	-0.055591
H115	H	1.235717	0.674545	0.055772
H116	H	1.294596	0.490546	0.000094
