data_functionalizedCrystal
_audit_creation_method	'MofGen! by Chris Wilmer'
_symmetry_space_group_name_H-M	'P1'
_symmetry_Int_Tables_number	1
_symmetry_cell_setting	triclinic
loop_
_symmetry_equiv_pos_as_xyz
  x,y,z
_cell_length_a	16.959454
_cell_length_b	16.959455
_cell_length_c	16.959447
_cell_angle_alpha	89.984280
_cell_angle_beta	90.026736
_cell_angle_gamma	89.981311
loop_
_atom_site_label
_atom_site_type_symbol
_atom_site_fract_x
_atom_site_fract_y
_atom_site_fract_z
Zn1	Zn	-0.314695	-1.208384	0.446958
Zn2	Zn	0.185305	-0.708384	0.946958
Zn3	Zn	-0.446888	-1.208306	0.314788
Zn4	Zn	0.053112	-0.708306	0.814788
Zn5	Zn	-0.314724	-1.076212	0.314792
Zn6	Zn	0.185276	-0.576212	0.814792
Zn7	Zn	-0.446832	-1.076177	0.446923
Zn8	Zn	0.053168	-0.576177	0.946923
O9	O	-0.380785	-1.142270	0.380865
O10	O	0.119215	-0.642270	0.880865
O11	O	-0.332242	-1.318984	0.429438
O12	O	0.167758	-0.818984	0.929438
O13	O	-0.429391	-1.190766	0.204177
O14	O	0.070609	-0.690766	0.704177
O15	O	-0.204109	-1.093792	0.332341
O16	O	0.295891	-0.593792	0.832341
O17	O	-0.429363	-1.318927	0.332333
O18	O	0.070637	-0.818927	0.832333
O19	O	-0.204088	-1.190898	0.429442
O20	O	0.295912	-0.690898	0.929442
O21	O	-0.332291	-1.093717	0.204181
O22	O	0.167709	-0.593717	0.704181
O23	O	-0.332237	-0.965597	0.332307
O24	O	0.167763	-0.465597	0.832307
O25	O	-0.429269	-1.093732	0.557539
O26	O	0.070731	-0.593732	1.057539
O27	O	-0.429297	-0.965571	0.429383
O28	O	0.070703	-0.465571	0.929383
O29	O	-0.332188	-1.190864	0.557564
O30	O	0.167812	-0.690864	1.057564
O31	O	-0.557491	-1.190732	0.332299
O32	O	-0.057491	-0.690732	0.832299
O33	O	-0.557451	-1.093657	0.429378
O34	O	-0.057451	-0.593657	0.929378
C35	C	-0.380765	-0.936904	0.380842
C36	C	0.119235	-0.436904	0.880842
C37	C	-0.380775	-0.849047	0.380851
C38	C	0.119225	-0.349047	0.880851
C39	C	-0.586151	-1.142204	0.380852
C40	C	-0.086151	-0.642204	0.880852
C41	C	-0.674008	-1.142248	0.380872
C42	C	-0.174008	-0.642248	0.880872
C43	C	-0.431269	-0.807741	0.330220
C44	C	0.068731	-0.307741	0.830220
C45	C	-0.330286	-0.807799	0.431486
C46	C	0.169714	-0.307799	0.931486
C47	C	-0.330291	-0.725253	0.431494
C48	C	0.169709	-0.225253	0.931494
C49	C	-0.380785	-0.683948	0.380864
C50	C	0.119215	-0.183948	0.880864
C51	C	-0.431274	-0.725188	0.330225
C52	C	0.068726	-0.225188	0.830225
C53	C	-0.279798	-0.684006	0.482126
C54	C	0.220202	-0.184006	0.982126
C55	C	-0.279800	-0.601455	0.482136
C56	C	0.220200	-0.101455	0.982136
C57	C	-0.330299	-0.560149	0.431509
C58	C	0.169701	-0.060149	0.931509
C59	C	-0.380790	-0.601394	0.380868
C60	C	0.119210	-0.101394	0.880868
C61	C	-0.431284	-0.560088	0.330238
C62	C	0.068716	-0.060088	0.830238
C63	C	-0.481780	-0.601332	0.279601
C64	C	0.018220	-0.101332	0.779601
C65	C	-0.481773	-0.683881	0.279597
C66	C	0.018227	-0.183881	0.779597
C67	C	-0.330306	-0.477600	0.431512
C68	C	0.169694	0.022400	0.931512
C69	C	-0.431289	-0.477535	0.330242
C70	C	0.068711	0.022465	0.830242
C71	C	-1.045492	-1.091796	0.431409
C72	C	-0.545492	-0.591796	0.931409
C73	C	-1.045474	-1.192964	0.330402
C74	C	-0.545474	-0.692964	0.830402
C75	C	-0.962928	-1.192936	0.330395
C76	C	-0.462928	-0.692936	0.830395
C77	C	-0.921661	-1.142337	0.380894
C78	C	-0.421661	-0.642337	0.880894
C79	C	-0.962938	-1.091765	0.431402
C80	C	-0.462938	-0.591765	0.931402
C81	C	-0.921644	-1.243501	0.279883
C82	C	-0.421644	-0.743501	0.779883
C83	C	-0.839093	-1.243475	0.279873
C84	C	-0.339093	-0.743475	0.779873
C85	C	-0.797824	-1.192879	0.330377
C86	C	-0.297824	-0.692879	0.830377
C87	C	-0.839107	-1.142306	0.380887
C88	C	-0.339107	-0.642306	0.880887
C89	C	-0.797839	-1.091707	0.431387
C90	C	-0.297839	-0.591707	0.931387
C91	C	-0.839121	-1.041137	0.481901
C92	C	-0.339121	-0.541137	0.981901
C93	C	-0.921669	-1.041170	0.481906
C94	C	-0.421669	-0.541170	0.981906
C95	C	-0.715276	-1.192847	0.330373
C96	C	-0.215276	-0.692847	0.830373
C97	C	-0.715286	-1.091676	0.431379
C98	C	-0.215286	-0.591676	0.931379
C99	C	-0.174617	-1.142358	0.380896
C100	C	0.325383	-0.642358	0.880896
C101	C	-0.086760	-1.142395	0.380909
C102	C	0.413240	-0.642395	0.880909
C103	C	-0.380719	-1.142303	0.587033
C104	C	0.119281	-0.642303	1.087033
C105	C	-0.380691	-1.142317	0.674890
C106	C	0.119309	-0.642317	1.174890
C107	C	-0.380802	-0.348438	0.380884
C108	C	0.119198	0.151562	0.880884
C109	C	-0.380800	-0.436295	0.380881
C110	C	0.119200	0.063705	0.880881
C111	C	-0.380793	-1.142283	0.175499
C112	C	0.119207	-0.642283	0.675499
C113	C	-0.380598	-1.142422	0.087643
C114	C	0.119402	-0.642422	0.587643
C115	C	-0.431153	-1.091839	1.046355
C116	C	0.068847	-0.591839	1.546355
C117	C	-0.330063	-1.192983	1.046377
C118	C	0.169937	-0.692983	1.546377
C119	C	-0.330079	-1.192962	0.963831
C120	C	0.169921	-0.692962	1.463831
C121	C	-0.380635	-1.142380	0.922543
C122	C	0.119365	-0.642380	1.422543
C123	C	-0.431173	-1.091818	0.963801
C124	C	0.068827	-0.591818	1.463801
C125	C	-0.279547	-1.243529	0.922566
C126	C	0.220453	-0.743529	1.422566
C127	C	-0.279563	-1.243510	0.840015
C128	C	0.220437	-0.743510	1.340015
C129	C	-0.330115	-1.192923	0.798726
C130	C	0.169885	-0.692923	1.298726
C131	C	-0.380655	-1.142359	0.839990
C132	C	0.119345	-0.642359	1.339990
C133	C	-0.431210	-1.091776	0.798702
C134	C	0.068790	-0.591776	1.298702
C135	C	-0.481747	-1.041207	0.839964
C136	C	0.018253	-0.541207	1.339964
C137	C	-0.481725	-1.041231	0.922512
C138	C	0.018275	-0.541231	1.422512
C139	C	-0.330136	-1.192899	0.716178
C140	C	0.169864	-0.692899	1.216178
C141	C	-0.431230	-1.091755	0.716148
C142	C	0.068770	-0.591755	1.216148
H143	H	-0.472411	-0.443910	0.289015
H144	H	0.027589	0.056090	0.789015
H145	H	-0.472297	-1.050665	1.079954
H146	H	0.027703	-0.550665	1.579954
H147	H	-0.472392	-1.050557	0.682538
H148	H	0.027608	-0.550557	1.182538
H149	H	-1.079080	-1.234154	0.289282
H150	H	-0.579080	-0.734154	0.789282
C151	C	-0.224260	-0.729438	0.537818
C152	C	0.275740	-0.229438	1.037818
H153	H	-0.194184	-0.693054	0.567971
H154	H	0.305816	-0.193054	1.067971
H155	H	-0.254539	-0.761641	0.572206
H156	H	0.245461	-0.261641	1.072206
H157	H	-0.189783	-0.761642	0.507632
H158	H	0.310217	-0.261642	1.007632
H159	H	-0.289173	-0.841435	0.472704
H160	H	0.210827	-0.341435	0.972704
H161	H	-0.955251	-1.284690	0.238763
H162	H	-0.455251	-0.784690	0.738763
H163	H	-0.522872	-1.000063	0.956115
H164	H	-0.022872	-0.500063	1.456115
C165	C	-0.274453	-1.248615	1.091791
C166	C	0.225547	-0.748615	1.591791
H167	H	-0.281675	-1.241382	1.146863
H168	H	0.218325	-0.741382	1.646863
H169	H	-0.286020	-1.301717	1.078262
H170	H	0.213980	-0.801717	1.578262
H171	H	-0.221345	-1.237054	1.078274
H172	H	0.278655	-0.737054	1.578274
C173	C	-0.486808	-0.853104	0.274522
C174	C	0.013192	-0.353104	0.774522
H175	H	-0.479574	-0.908184	0.281764
H176	H	0.020426	-0.408184	0.781764
H177	H	-0.539930	-0.839562	0.286001
H178	H	-0.039930	-0.339562	0.786001
H179	H	-0.475171	-0.839561	0.221430
H180	H	0.024829	-0.339561	0.721430
C181	C	-0.537354	-0.985570	0.794542
C182	C	-0.037354	-0.485570	1.294542
H183	H	-0.530122	-0.992802	0.739470
H184	H	-0.030122	-0.492802	1.239470
H185	H	-0.590462	-0.997112	0.808058
H186	H	-0.090462	-0.497112	1.308058
H187	H	-0.525769	-0.932465	0.808065
H188	H	-0.025769	-0.432465	1.308065
H189	H	-0.522882	-0.717469	0.238370
H190	H	-0.022882	-0.217469	0.738370
H191	H	-0.805487	-1.284651	0.238743
H192	H	-0.305487	-0.784651	0.738743
C193	C	-0.274549	-1.248513	0.670793
C194	C	0.225451	-0.748513	1.170793
H195	H	-0.244435	-1.278638	0.707206
H196	H	0.255565	-0.778638	1.207206
H197	H	-0.304793	-1.282930	0.638579
H198	H	0.195207	-0.782930	1.138579
H199	H	-0.240109	-1.218275	0.638604
H200	H	0.259891	-0.718275	1.138604
C201	C	-0.223944	-1.299169	0.967979
C202	C	0.276056	-0.799169	1.467979
H203	H	-0.193856	-1.329287	0.931584
H204	H	0.306144	-0.829287	1.431584
H205	H	-0.189492	-1.268957	1.000188
H206	H	0.310508	-0.768957	1.500188
H207	H	-0.254185	-1.333603	1.000175
H208	H	0.245815	-0.833603	1.500175
C209	C	-0.223969	-1.299126	0.794635
C210	C	0.276031	-0.799126	1.294635
H211	H	-0.193855	-1.329249	0.831048
H212	H	0.306145	-0.829249	1.331048
H213	H	-0.254212	-1.333544	0.762421
H214	H	0.245788	-0.833544	1.262421
H215	H	-0.189530	-1.268887	0.762445
H216	H	0.310470	-0.768887	1.262445
H217	H	-0.522889	-0.567691	0.238374
H218	H	-0.022889	-0.067691	0.738374
H219	H	-0.238684	-0.567882	0.523369
H220	H	0.261316	-0.067882	1.023369
H221	H	-0.681690	-1.050475	0.472506
H222	H	-0.181690	-0.550475	0.972506
C223	C	-0.274772	-0.432235	0.487208
C224	C	0.225228	0.067765	0.987208
H225	H	-0.244701	-0.468658	0.517363
H226	H	0.255299	0.031342	1.017363
H227	H	-0.240301	-0.400027	0.457033
H228	H	0.259699	0.099973	0.957033
H229	H	-0.305058	-0.400042	0.521606
H230	H	0.194942	0.099958	1.021606
H231	H	-0.805511	-0.999936	0.523015
H232	H	-0.305511	-0.499936	1.023015
C233	C	-0.669869	-1.248466	0.274815
C234	C	-0.169869	-0.748466	0.774815
H235	H	-0.706270	-1.278606	0.244742
H236	H	-0.206270	-0.778606	0.744742
H237	H	-0.637704	-1.218240	0.240347
H238	H	-0.137704	-0.718240	0.740347
H239	H	-0.637630	-1.282880	0.305085
H240	H	-0.137630	-0.782880	0.805085
C241	C	-1.090893	-1.036174	0.486973
C242	C	-0.590893	-0.536174	0.986973
H243	H	-1.054490	-1.006041	0.517050
H244	H	-0.554490	-0.506041	1.017050
H245	H	-1.123141	-1.001765	0.456714
H246	H	-0.623141	-0.501765	0.956714
H247	H	-1.123049	-1.066408	0.521449
H248	H	-0.623049	-0.566408	1.021449
H249	H	-0.955288	-0.999998	0.523031
H250	H	-0.455288	-0.499998	1.023031
