data_functionalizedCrystal
_audit_creation_method	'MofGen! by Chris Wilmer'
_symmetry_space_group_name_H-M	'P1'
_symmetry_Int_Tables_number	1
_symmetry_cell_setting	triclinic
loop_
_symmetry_equiv_pos_as_xyz
  x,y,z
_cell_length_a	27.732048
_cell_length_b	14.971486
_cell_length_c	14.048226
_cell_angle_alpha	90.001501
_cell_angle_beta	89.988614
_cell_angle_gamma	96.871608
loop_
_atom_site_label
_atom_site_type_symbol
_atom_site_fract_x
_atom_site_fract_y
_atom_site_fract_z
O1	O	0.062991	-1.185952	-0.079062
O2	O	0.070534	-0.925432	-0.079089
O3	O	-0.003597	-1.063783	-0.079057
O4	O	0.137122	-1.047601	-0.079094
O5	O	-0.003601	-1.063767	0.079265
O6	O	0.070530	-0.925416	0.079232
O7	O	0.062986	-1.185935	0.079259
Zn8	Zn	0.066757	-1.055673	0.104383
Zn9	Zn	0.066763	-1.055695	-0.104212
O10	O	0.137117	-1.047584	0.079227
C11	C	-0.021608	-1.063435	0.000107
C12	C	-0.075267	-1.062412	0.000114
C13	C	0.070195	-0.892105	0.000068
C14	C	0.069184	-0.792824	0.000059
C15	C	0.063326	-1.219263	0.000100
C16	C	0.064337	-1.318544	0.000103
C17	C	-0.413735	-1.137729	0.000073
C18	C	-0.615412	-1.133934	0.000060
O19	O	-0.646350	-1.202806	0.000025
N20	N	-0.634914	-1.051898	0.000052
C21	C	-0.603994	-0.970804	0.000042
O22	O	-0.625209	-0.900940	0.000025
C23	C	-0.402318	-0.974601	0.000048
C24	C	-0.382818	-1.056642	0.000066
C25	C	-0.394235	-1.219764	0.000090
C26	C	-0.343819	-1.220712	0.000098
C27	C	-0.312902	-1.139625	0.000091
C28	C	-0.332402	-1.057590	0.000074
C29	C	-0.371398	-0.893508	0.000031
C30	C	-0.320976	-0.894464	0.000030
C31	C	-0.301477	-0.976506	0.000048
C32	C	-0.251069	-0.977451	0.000075
N33	N	-0.231567	-1.059487	0.000083
C34	C	-0.262483	-1.140574	0.000091
C35	C	-0.709877	-0.968817	0.000040
C36	C	-0.760296	-0.967868	0.000040
C37	C	-0.771710	-1.130998	0.000056
C38	C	-0.721291	-1.131946	0.000063
C39	C	-0.690375	-1.050854	0.000048
C40	C	-0.156605	-1.142559	0.000110
C41	C	-0.106184	-1.143500	0.000122
C42	C	-0.094773	-0.980370	0.000101
C43	C	-0.145190	-0.979429	0.000093
C44	C	-0.176105	-1.060530	0.000094
O45	O	-0.220103	-0.908616	0.000099
O46	O	-0.241258	-1.210428	0.000086
C47	C	-0.464151	-1.136781	0.000065
C48	C	-0.483651	-1.054746	0.000049
C49	C	-0.452734	-0.973659	0.000041
C50	C	-0.534070	-1.053797	0.000049
C51	C	-0.564986	-1.134884	0.000056
C52	C	-0.545484	-1.216921	0.000064
C53	C	-0.495067	-1.217868	0.000072
C54	C	-0.472237	-0.891623	0.000033
C55	C	-0.522654	-0.890682	0.000026
C56	C	-0.553570	-0.971769	0.000033
C57	C	0.155128	-1.047932	0.000062
C58	C	0.208788	-1.048955	0.000048
N59	N	0.066753	-1.055665	0.246743
C60	C	0.112734	-0.734910	0.000048
C61	C	0.111781	-0.641626	0.000063
C62	C	0.067278	-0.606257	0.000081
C63	C	0.023724	-0.664178	0.000094
C64	C	0.024678	-0.757460	0.000086
C65	C	0.021740	-0.469746	0.000108
C66	C	0.020787	-0.376457	0.000114
C67	C	0.108844	-0.353912	0.000084
C68	C	0.109797	-0.447195	0.000076
C69	C	0.066243	-0.505109	0.000088
N70	N	0.066764	-1.055710	-0.246573
C71	C	0.033942	-1.116945	0.296576
C72	C	0.033941	-1.116951	0.396234
C73	C	0.066755	-1.055680	0.446057
C74	C	0.099569	-0.994393	0.396217
C75	C	0.099566	-0.994384	0.296562
C76	C	0.099572	-0.994419	0.603932
C77	C	0.099575	-0.994429	0.703594
C78	C	0.033947	-1.116987	0.703604
C79	C	0.033945	-1.116977	0.603948
C80	C	0.066759	-1.055691	0.554115
H81	H	-0.090310	-1.210310	0.000139
H82	H	-0.012511	-0.635373	0.000122
F83	F	0.158133	-0.579993	0.000048
H84	H	-0.069592	-0.914351	0.000098
F85	F	-0.000982	-1.182164	0.243560
H86	H	-0.479196	-1.284675	0.000086
F87	F	-0.000975	-1.182212	0.756643
F88	F	-0.189500	-1.228876	0.000110
F89	F	-0.578396	-1.303219	0.000077
H90	H	-0.010785	-0.804613	0.000094
F91	F	0.134490	-0.929179	0.449244
H92	H	0.126295	-0.944535	0.744156
H93	H	0.146035	-0.475989	0.000053
F94	F	0.155197	-0.292274	0.000074
H95	H	-0.015451	-0.347663	0.000130
H96	H	0.126291	-0.944510	0.563361
F97	F	-0.676979	-0.882501	0.000023
F98	F	0.134488	-0.929157	0.243528
H99	H	0.007223	-1.166850	0.436807
F100	F	-0.024614	-0.531382	0.000123
H101	H	-0.327947	-1.287519	0.000109
H102	H	-0.419403	-1.285799	0.000092
F103	F	-0.700543	-1.219265	0.000081
F104	F	0.160101	-0.772543	0.000023
F105	F	-0.000976	-1.182193	0.550922
H106	H	-0.796891	-1.197022	0.000063
F107	F	-0.781043	-0.880548	0.000039
F108	F	-0.392139	-0.806187	0.000009
H109	H	-0.295806	-0.828427	0.000016
H110	H	-0.161067	-0.912624	0.000106
H111	H	-0.538525	-0.823869	0.000020
H112	H	-0.447069	-0.825590	0.000025
