data_functionalizedCrystal
_audit_creation_method	'MofGen! by Chris Wilmer'
_symmetry_space_group_name_H-M	'P1'
_symmetry_Int_Tables_number	1
_symmetry_cell_setting	triclinic
loop_
_symmetry_equiv_pos_as_xyz
  x,y,z
_cell_length_a	16.109302
_cell_length_b	8.559649
_cell_length_c	14.586319
_cell_angle_alpha	89.989015
_cell_angle_beta	89.989806
_cell_angle_gamma	76.620223
loop_
_atom_site_label
_atom_site_type_symbol
_atom_site_fract_x
_atom_site_fract_y
_atom_site_fract_z
O1	O	1.090048	0.205414	-0.076277
O2	O	1.340048	0.455414	0.173723
O3	O	1.590048	0.705414	0.423723
O4	O	1.840048	0.955414	0.673723
O5	O	0.846358	0.230973	-0.076269
O6	O	1.096358	0.480973	0.173731
O7	O	1.346358	0.730973	0.423731
O8	O	1.596358	0.980973	0.673731
O9	O	0.989672	-0.014420	-0.076272
O10	O	1.239672	0.235580	0.173728
O11	O	1.489672	0.485580	0.423728
O12	O	1.739672	0.735580	0.673728
O13	O	0.946734	0.450806	-0.076273
O14	O	1.196734	0.700806	0.173727
O15	O	1.446734	0.950806	0.423727
O16	O	1.696734	1.200806	0.673727
O17	O	0.989657	-0.014461	0.076208
O18	O	1.239657	0.235539	0.326208
O19	O	1.489657	0.485539	0.576208
O20	O	1.739657	0.735539	0.826208
O21	O	0.846343	0.230931	0.076212
O22	O	1.096343	0.480931	0.326212
O23	O	1.346343	0.730931	0.576212
O24	O	1.596343	0.980931	0.826212
O25	O	1.090033	0.205372	0.076204
O26	O	1.340033	0.455372	0.326204
O27	O	1.590033	0.705372	0.576204
O28	O	1.840033	0.955372	0.826204
Cu29	Cu	0.968186	0.218148	0.090131
Cu30	Cu	1.218186	0.468148	0.340131
Cu31	Cu	1.468186	0.718148	0.590131
Cu32	Cu	1.718186	0.968148	0.840131
Cu33	Cu	0.968205	0.218197	-0.090195
Cu34	Cu	1.218205	0.468197	0.159805
Cu35	Cu	1.468205	0.718197	0.409805
Cu36	Cu	1.718205	0.968197	0.659805
O37	O	0.946718	0.450765	0.076208
O38	O	1.196718	0.700765	0.326208
O39	O	1.446718	0.950765	0.576208
O40	O	1.696718	1.200765	0.826208
C41	C	0.815441	0.229917	-0.000027
C42	C	1.065441	0.479917	0.249973
C43	C	1.315441	0.729917	0.499973
C44	C	1.565441	0.979917	0.749973
C45	C	0.723344	0.226812	-0.000025
C46	C	0.973344	0.476812	0.249975
C47	C	1.223344	0.726812	0.499975
C48	C	1.473344	0.976812	0.749975
C49	C	0.511452	0.219611	0.083084
C50	C	0.761452	0.469611	0.333084
C51	C	1.011452	0.719611	0.583084
C52	C	1.261452	0.969611	0.833084
C53	C	0.424919	0.216676	0.083080
C54	C	0.674919	0.466676	0.333080
C55	C	0.924919	0.716676	0.583080
C56	C	1.174919	0.966676	0.833080
C57	C	0.424946	0.216730	-0.083163
C58	C	0.674946	0.466730	0.166837
C59	C	0.924946	0.716730	0.416837
C60	C	1.174946	0.966730	0.666837
C61	C	0.511479	0.219652	-0.083158
C62	C	0.761479	0.469652	0.166842
C63	C	1.011479	0.719652	0.416842
C64	C	1.261479	0.969652	0.666842
C65	C	0.554728	0.221101	-0.000033
C66	C	0.804728	0.471101	0.249967
C67	C	1.054728	0.721101	0.499967
C68	C	1.304728	0.971101	0.749967
C69	C	0.381662	0.215244	-0.000040
C70	C	0.631662	0.465244	0.249960
C71	C	0.881662	0.715244	0.499960
C72	C	1.131662	0.965244	0.749960
C73	C	0.287839	0.212063	-0.000044
C74	C	0.537839	0.462063	0.249956
C75	C	0.787839	0.712063	0.499956
C76	C	1.037839	0.962063	0.749956
C77	C	0.648558	0.224280	-0.000028
C78	C	0.898558	0.474280	0.249972
C79	C	1.148558	0.724280	0.499972
C80	C	1.398558	0.974280	0.749972
C81	C	0.992919	-0.073972	-0.000034
C82	C	1.242919	0.176028	0.249966
C83	C	1.492919	0.426028	0.499966
C84	C	1.742919	0.676028	0.749966
C85	C	1.002605	-0.251357	-0.000039
C86	C	1.252605	-0.001357	0.249961
C87	C	1.502605	0.248643	0.499961
C88	C	1.752605	0.498643	0.749961
C89	C	1.120949	0.206428	-0.000039
C90	C	1.370949	0.456428	0.249961
C91	C	1.620949	0.706428	0.499961
C92	C	1.870949	0.956428	0.749961
C93	C	1.213047	0.209533	-0.000048
C94	C	1.463047	0.459533	0.249952
C95	C	1.713047	0.709533	0.499952
C96	C	1.963047	0.959533	0.749952
C97	C	0.943472	0.510317	-0.000033
C98	C	1.193472	0.760317	0.249967
C99	C	1.443472	1.010317	0.499967
C100	C	1.693472	1.260317	0.749967
C101	C	0.933786	0.687702	-0.000033
C102	C	1.183786	0.937702	0.249967
C103	C	1.433786	1.187702	0.499967
C104	C	1.683786	1.437702	0.749967
N105	N	0.968180	0.218113	0.216963
N106	N	1.218180	0.468113	0.466963
N107	N	1.468180	0.718113	0.716963
N108	N	1.718180	0.968113	0.966963
N109	N	0.968219	0.218220	-0.217027
N110	N	1.218219	0.468220	0.032973
N111	N	1.468219	0.718220	0.282973
N112	N	1.718219	0.968220	0.532973
C113	C	0.923969	0.121238	0.547993
C114	C	1.173969	0.371238	0.797993
C115	C	1.423969	0.621238	1.047993
C116	C	1.673969	0.871238	1.297993
C117	C	0.923964	0.121216	0.452012
C118	C	1.173964	0.371216	0.702012
C119	C	1.423964	0.621216	0.952012
C120	C	1.673964	0.871216	1.202012
C121	C	1.012435	0.315098	0.451949
C122	C	1.262435	0.565098	0.701949
C123	C	1.512435	0.815098	0.951949
C124	C	1.762435	1.065098	1.201949
C125	C	1.012444	0.315111	0.547928
C126	C	1.262444	0.565111	0.797928
C127	C	1.512444	0.815111	1.047928
C128	C	1.762444	1.065111	1.297928
C129	C	0.968207	0.218183	0.595948
C130	C	1.218207	0.468183	0.845948
C131	C	1.468207	0.718183	1.095948
C132	C	1.718207	0.968183	1.345948
C133	C	0.968192	0.218149	0.403987
C134	C	1.218192	0.468149	0.653987
C135	C	1.468192	0.718149	0.903987
C136	C	1.718192	0.968149	1.153987
C137	C	0.968186	0.218126	0.299920
C138	C	1.218186	0.468126	0.549920
C139	C	1.468186	0.718126	0.799920
C140	C	1.718186	0.968126	1.049920
C141	C	0.968213	0.218204	0.700022
C142	C	1.218213	0.468204	0.950022
C143	C	1.468213	0.718204	1.200022
C144	C	1.718213	0.968204	1.450022
H145	H	0.389687	0.215463	0.150762
H146	H	0.639687	0.465463	0.400762
H147	H	0.889687	0.715463	0.650762
H148	H	1.139687	0.965463	0.900762
H149	H	0.887948	0.042313	0.587088
H150	H	1.137948	0.292313	0.837088
H151	H	1.387948	0.542313	1.087088
H152	H	1.637948	0.792313	1.337088
N153	N	0.845923	-0.201660	-0.000043
N154	N	1.095923	0.048340	0.249957
N155	N	1.345923	0.298340	0.499957
N156	N	1.595923	0.548340	0.749957
H157	H	0.801375	-0.267524	-0.000039
H158	H	1.051375	-0.017524	0.249961
H159	H	1.301375	0.232476	0.499961
H160	H	1.551375	0.482476	0.749961
H161	H	0.838833	-0.131688	0.056481
H162	H	1.088833	0.118312	0.306481
H163	H	1.338833	0.368312	0.556481
H164	H	1.588833	0.618312	0.806481
H165	H	0.887942	0.042272	0.412972
H166	H	1.137942	0.292272	0.662972
H167	H	1.387942	0.542272	0.912972
H168	H	1.637942	0.792272	1.162972
H169	H	0.389721	0.215552	-0.150841
H170	H	0.639721	0.465552	0.099159
H171	H	0.889721	0.715552	0.349159
H172	H	1.139721	0.965552	0.599159
H173	H	1.048450	0.394015	0.412839
H174	H	1.298450	0.644015	0.662839
H175	H	1.548450	0.894015	0.912839
H176	H	1.798450	1.144015	1.162839
H177	H	1.068938	-0.334897	-0.000034
H178	H	1.318938	-0.084897	0.249966
H179	H	1.568938	0.165103	0.499966
H180	H	1.818938	0.415103	0.749966
H181	H	1.048472	0.394056	0.586974
H182	H	1.298472	0.644056	0.836974
H183	H	1.548472	0.894056	1.086974
H184	H	1.798472	1.144056	1.336974
H185	H	0.546716	0.220862	-0.150846
H186	H	0.796716	0.470862	0.099154
H187	H	1.046716	0.720862	0.349154
H188	H	1.296716	0.970862	0.599154
N189	N	0.558102	0.221172	0.172736
N190	N	0.808102	0.471172	0.422736
N191	N	1.058102	0.721172	0.672736
N192	N	1.308102	0.971172	0.922736
H193	H	0.517553	0.219781	0.225388
H194	H	0.767553	0.469781	0.475388
H195	H	1.017553	0.719781	0.725388
H196	H	1.267553	0.969781	0.975388
H197	H	0.607068	0.123388	0.176357
H198	H	0.857068	0.373388	0.426357
H199	H	1.107068	0.623388	0.676357
H200	H	1.357068	0.873388	0.926357
