data_functionalizedCrystal
_audit_creation_method	'MofGen! by Chris Wilmer'
_symmetry_space_group_name_H-M	'P1'
_symmetry_Int_Tables_number	1
_symmetry_cell_setting	triclinic
loop_
_symmetry_equiv_pos_as_xyz
  x,y,z
_cell_length_a	8.559649
_cell_length_b	10.723024
_cell_length_c	7.681481
_cell_angle_alpha	84.204337
_cell_angle_beta	94.913240
_cell_angle_gamma	77.123267
loop_
_atom_site_label
_atom_site_type_symbol
_atom_site_fract_x
_atom_site_fract_y
_atom_site_fract_z
O1	O	2.104705	-0.029042	-0.146401
O2	O	1.640206	0.035334	-0.146409
O3	O	1.883170	-0.179530	-0.146398
O4	O	1.861740	0.185821	-0.146412
O5	O	1.913074	-0.206029	0.146461
O6	O	1.670110	0.008834	0.146450
O7	O	2.134609	-0.055542	0.146458
Zn8	Zn	1.907107	-0.027561	0.192952
Zn9	Zn	1.867707	0.007353	-0.192903
O10	O	1.891644	0.159322	0.146447
C11	C	1.595681	0.026963	0.000019
C12	C	1.418460	0.041484	0.000016
C13	C	1.896563	-0.239119	0.000029
C14	C	1.891896	-0.377194	0.000023
C15	C	2.027846	-0.466115	0.000023
C16	C	2.023026	-0.608823	0.000016
C17	C	2.179133	-0.047170	0.000026
C18	C	2.356353	-0.061691	0.000018
C19	C	1.878251	0.218911	0.000016
C20	C	1.882917	0.356988	0.000011
N21	N	1.934009	-0.051391	0.456287
N22	N	1.840818	0.031172	-0.456238
H23	H	1.438759	-0.161133	0.000012
H24	H	1.336043	0.140934	0.000003
H25	H	1.771936	-0.406717	0.000009
O26	O	2.170835	-0.430694	0.000106
C27	C	2.305994	-0.256148	0.000007
C28	C	2.143949	-0.296082	-0.000046
H29	H	2.284309	-0.147310	-0.000153
H30	H	2.389346	-0.306799	0.122599
H31	H	2.364290	-0.284776	-0.122524
H32	H	2.085514	-0.267460	0.122401
H33	H	2.060711	-0.245443	-0.122719
O34	O	2.162037	-0.699760	0.000091
C35	C	2.450637	-0.743460	-0.000019
C36	C	2.293329	-0.640345	-0.000061
H37	H	2.556823	-0.695459	-0.000179
H38	H	2.468381	-0.816711	0.122569
H39	H	2.443143	-0.794550	-0.122553
H40	H	2.300710	-0.589159	0.122391
H41	H	2.275642	-0.567178	-0.122730
O42	O	1.744068	-0.551851	-0.000303
C43	C	1.565230	-0.358060	-0.151969
C44	C	1.722491	-0.461243	-0.151853
H45	H	1.547752	-0.284762	-0.274465
H46	H	1.458916	-0.405926	-0.152090
H47	H	1.572657	-0.307055	-0.029349
H48	H	1.715222	-0.512283	-0.274452
H49	H	1.828740	-0.413303	-0.151640
O50	O	1.727489	0.131857	0.454139
C51	C	1.630887	0.362650	0.397479
C52	C	1.759357	0.248743	0.499067
H53	H	1.656588	0.457179	0.433793
H54	H	1.634380	0.359652	0.249904
H55	H	1.506503	0.355435	0.433624
H56	H	1.883803	0.255883	0.463069
H57	H	1.755723	0.251779	0.646617
O58	O	2.047421	-0.152080	0.545807
C59	C	2.143895	-0.382878	0.602636
C60	C	2.015383	-0.268969	0.501114
H61	H	2.118019	-0.477411	0.566567
H62	H	2.268323	-0.375839	0.566434
H63	H	2.140422	-0.379705	0.750180
H64	H	2.018708	-0.272070	0.353547
H65	H	1.891014	-0.276049	0.537462
