data_functionalizedCrystal
_audit_creation_method	'MofGen! by Chris Wilmer'
_symmetry_space_group_name_H-M	'P1'
_symmetry_Int_Tables_number	1
_symmetry_cell_setting	triclinic
loop_
_symmetry_equiv_pos_as_xyz
  x,y,z
_cell_length_a	15.944499
_cell_length_b	15.021413
_cell_length_c	11.792241
_cell_angle_alpha	89.996104
_cell_angle_beta	83.835512
_cell_angle_gamma	90.009905
loop_
_atom_site_label
_atom_site_type_symbol
_atom_site_fract_x
_atom_site_fract_y
_atom_site_fract_z
O1	O	1.115215	0.074086	0.146085
O2	O	0.870741	0.074076	0.164193
O3	O	0.998911	0.074075	-0.010082
O4	O	0.987046	0.074087	0.320360
O5	O	0.998890	-0.073989	-0.010057
O6	O	0.870721	-0.073988	0.164218
O7	O	1.115195	-0.073978	0.146110
Zn8	Zn	0.992955	-0.097492	0.155168
Zn9	Zn	0.992981	0.097589	0.155135
O10	O	0.987025	-0.073977	0.320385
C11	C	0.839433	0.000042	0.163464
C12	C	0.746175	0.000039	0.161242
C13	C	0.455096	0.000056	0.262491
C14	C	0.515897	0.073059	0.209847
C15	C	0.410502	0.000059	0.153167
C16	C	0.515863	-0.072921	0.209842
C17	C	0.575428	0.000047	0.157140
C18	C	0.470075	0.073122	0.100492
C19	C	0.470034	-0.072923	0.100503
C20	C	0.530818	0.000098	0.047779
C21	C	0.315491	0.000066	0.150881
C22	C	0.670438	0.000046	0.159417
N23	N	0.992942	-0.230629	0.155190
C24	C	0.933667	-0.470312	0.235737
C25	C	1.009669	-0.529643	0.257752
C26	C	0.992964	-0.412236	0.155161
C27	C	0.916983	-0.529648	0.133171
C28	C	0.992978	-0.587660	0.155137
C29	C	1.069004	-0.470260	0.177228
C30	C	0.976268	-0.470260	0.052603
C31	C	1.052324	-0.529564	0.074574
C32	C	0.992955	-0.311179	0.155179
C33	C	0.992995	-0.688716	0.155118
C34	C	1.146503	0.000057	0.146839
C35	C	1.239761	0.000067	0.149061
C36	C	0.998155	0.000043	-0.052354
C37	C	0.995924	0.000044	-0.178349
N38	N	0.993000	0.230727	0.155105
C39	C	0.991822	0.000058	-0.409026
C40	C	0.994102	0.000050	-0.280660
C41	C	0.987781	0.000056	0.362657
C42	C	0.990011	0.000062	0.488652
H43	H	0.563586	0.000133	-0.043031
Br44	Br	0.809878	-0.573132	0.102188
H45	H	1.023803	-0.555726	0.344473
H46	H	0.449896	0.134910	0.054285
Br47	Br	1.176138	-0.426972	0.208376
H48	H	0.449701	-0.134647	0.054311
H49	H	0.536138	-0.134637	0.256110
H50	H	0.422175	0.000129	0.353219
Br51	Br	1.135999	-0.572661	-0.039022
Br52	Br	0.952672	-0.426748	-0.091895
Br53	Br	0.549745	0.175936	0.286893
Br54	Br	0.850174	-0.426944	0.349392
