data_functionalizedCrystal
_audit_creation_method	'MofGen! by Chris Wilmer'
_symmetry_space_group_name_H-M	'P1'
_symmetry_Int_Tables_number	1
_symmetry_cell_setting	triclinic
loop_
_symmetry_equiv_pos_as_xyz
  x,y,z
_cell_length_a	18.215407
_cell_length_b	13.897448
_cell_length_c	18.215399
_cell_angle_alpha	89.973253
_cell_angle_beta	89.980650
_cell_angle_gamma	90.018140
loop_
_atom_site_label
_atom_site_type_symbol
_atom_site_fract_x
_atom_site_fract_y
_atom_site_fract_z
Zn1	Zn	1.125105	-0.384009	-0.416124
Zn2	Zn	1.375105	-0.134009	-0.166124
Zn3	Zn	1.625105	0.115991	0.083876
Zn4	Zn	1.875105	0.365991	0.333876
Zn5	Zn	1.125030	-0.545320	-0.293061
Zn6	Zn	1.375030	-0.295320	-0.043061
Zn7	Zn	1.625030	-0.045320	0.206939
Zn8	Zn	1.875030	0.204680	0.456939
Zn9	Zn	1.002039	-0.384042	-0.293072
Zn10	Zn	1.252039	-0.134042	-0.043072
Zn11	Zn	1.502039	0.115958	0.206928
Zn12	Zn	1.752039	0.365958	0.456928
Zn13	Zn	1.002019	-0.545265	-0.416086
Zn14	Zn	1.252019	-0.295265	-0.166086
Zn15	Zn	1.502019	-0.045265	0.083914
Zn16	Zn	1.752019	0.204735	0.333914
O17	O	1.063548	-0.464659	-0.354586
O18	O	1.313548	-0.214659	-0.104586
O19	O	1.563548	0.035341	0.145414
O20	O	1.813548	0.285341	0.395414
O21	O	1.228080	-0.405417	-0.399811
O22	O	1.478080	-0.155417	-0.149811
O23	O	1.728080	0.094583	0.100189
O24	O	1.978080	0.344583	0.350189
O25	O	1.108692	-0.523963	-0.190078
O26	O	1.358692	-0.273963	0.059922
O27	O	1.608692	-0.023963	0.309922
O28	O	1.858692	0.226037	0.559922
O29	O	1.018404	-0.249056	-0.309415
O30	O	1.268404	0.000944	-0.059415
O31	O	1.518404	0.250944	0.190585
O32	O	1.768404	0.500944	0.440585
O33	O	1.228024	-0.523931	-0.309398
O34	O	1.478024	-0.273931	-0.059398
O35	O	1.728024	-0.023931	0.190602
O36	O	1.978024	0.226069	0.440602
O37	O	1.108820	-0.249032	-0.399821
O38	O	1.358820	0.000968	-0.149821
O39	O	1.608820	0.250968	0.100179
O40	O	1.858820	0.500968	0.350179
O41	O	1.018331	-0.405473	-0.190086
O42	O	1.268331	-0.155473	0.059914
O43	O	1.518331	0.094527	0.309914
O44	O	1.768331	0.344527	0.559914
O45	O	0.899052	-0.405419	-0.309378
O46	O	1.149052	-0.155419	-0.059378
O47	O	1.399052	0.094581	0.190622
O48	O	1.649052	0.344581	0.440622
O49	O	1.018370	-0.523838	-0.519076
O50	O	1.268370	-0.273838	-0.269076
O51	O	1.518370	-0.023838	-0.019076
O52	O	1.768370	0.226162	0.230924
O53	O	0.899037	-0.523869	-0.399757
O54	O	1.149037	-0.273869	-0.149757
O55	O	1.399037	-0.023869	0.100243
O56	O	1.649037	0.226131	0.350243
O57	O	1.108801	-0.405364	-0.519103
O58	O	1.358801	-0.155364	-0.269103
O59	O	1.608801	0.094636	-0.019103
O60	O	1.858801	0.344636	0.230897
O61	O	1.108673	-0.680294	-0.309361
O62	O	1.358673	-0.430294	-0.059361
O63	O	1.608673	-0.180294	0.190639
O64	O	1.858673	0.069706	0.440639
O65	O	1.018297	-0.680254	-0.399747
O66	O	1.268297	-0.430254	-0.149747
O67	O	1.518297	-0.180254	0.100253
O68	O	1.768297	0.069746	0.350253
C69	C	0.872342	-0.464643	-0.354565
C70	C	1.122342	-0.214643	-0.104565
C71	C	1.372342	0.035357	0.145435
C72	C	1.622342	0.285357	0.395435
C73	C	0.790543	-0.464659	-0.354573
C74	C	1.040543	-0.214659	-0.104573
C75	C	1.290543	0.035341	0.145427
C76	C	1.540543	0.285341	0.395427
C77	C	0.602361	-0.526433	-0.401574
C78	C	0.852361	-0.276433	-0.151574
C79	C	1.102361	-0.026433	0.098426
C80	C	1.352361	0.223567	0.348426
C81	C	0.525502	-0.526436	-0.401583
C82	C	0.775502	-0.276436	-0.151583
C83	C	1.025502	-0.026436	0.098417
C84	C	1.275502	0.223564	0.348417
C85	C	0.525488	-0.402903	-0.307614
C86	C	0.775488	-0.152903	-0.057614
C87	C	1.025488	0.097097	0.192386
C88	C	1.275488	0.347097	0.442386
C89	C	0.602345	-0.402896	-0.307609
C90	C	0.852345	-0.152896	-0.057609
C91	C	1.102345	0.097104	0.192391
C92	C	1.352345	0.347104	0.442391
C93	C	0.640780	-0.464666	-0.354588
C94	C	0.890780	-0.214666	-0.104588
C95	C	1.140780	0.035334	0.145412
C96	C	1.390780	0.285334	0.395412
C97	C	0.487064	-0.464676	-0.354602
C98	C	0.737064	-0.214676	-0.104602
C99	C	0.987064	0.035324	0.145398
C100	C	1.237064	0.285324	0.395398
C101	C	0.403730	-0.464679	-0.354612
C102	C	0.653730	-0.214679	-0.104612
C103	C	0.903730	0.035321	0.145388
C104	C	1.153730	0.285321	0.395388
C105	C	0.724119	-0.464662	-0.354579
C106	C	0.974119	-0.214662	-0.104579
C107	C	1.224119	0.035338	0.145421
C108	C	1.474119	0.285338	0.395421
C109	C	1.063495	-0.715274	-0.354565
C110	C	1.313495	-0.465274	-0.104565
C111	C	1.563495	-0.215274	0.145435
C112	C	1.813495	0.034726	0.395435
C113	C	1.063539	-0.822487	-0.354580
C114	C	1.313539	-0.572487	-0.104580
C115	C	1.563539	-0.322487	0.145420
C116	C	1.813539	-0.072487	0.395420
C117	C	1.063616	-1.018782	-0.354626
C118	C	1.313616	-0.768782	-0.104626
C119	C	1.563616	-0.518782	0.145374
C120	C	1.813616	-0.268782	0.395374
C121	C	1.063571	-0.909550	-0.354603
C122	C	1.313571	-0.659550	-0.104603
C123	C	1.563571	-0.409550	0.145397
C124	C	1.813571	-0.159550	0.395397
C125	C	1.255501	-0.464676	-0.354607
C126	C	1.505501	-0.214676	-0.104607
C127	C	1.755501	0.035324	0.145393
C128	C	2.005501	0.285324	0.395393
C129	C	1.337300	-0.464684	-0.354617
C130	C	1.587300	-0.214684	-0.104617
C131	C	1.837300	0.035316	0.145383
C132	C	2.087300	0.285316	0.395383
C133	C	1.063592	-0.464591	-0.546539
C134	C	1.313592	-0.214591	-0.296539
C135	C	1.563592	0.035409	-0.046539
C136	C	1.813592	0.285409	0.203461
C137	C	1.063610	-0.464562	-0.628338
C138	C	1.313610	-0.214562	-0.378338
C139	C	1.563610	0.035438	-0.128338
C140	C	1.813610	0.285438	0.121662
C141	C	1.063622	-0.213066	-0.354623
C142	C	1.313622	0.036934	-0.104623
C143	C	1.563622	0.286934	0.145377
C144	C	1.813622	0.536934	0.395377
C145	C	1.063654	-0.105852	-0.354639
C146	C	1.313654	0.144148	-0.104639
C147	C	1.563654	0.394148	0.145361
C148	C	1.813654	0.644148	0.395361
C149	C	1.110724	-0.402789	-0.893411
C150	C	1.360724	-0.152789	-0.643411
C151	C	1.610724	0.097211	-0.393411
C152	C	1.860724	0.347211	-0.143411
C153	C	1.110716	-0.402815	-0.816552
C154	C	1.360716	-0.152815	-0.566552
C155	C	1.610716	0.097185	-0.316552
C156	C	1.860716	0.347185	-0.066552
C157	C	1.016555	-0.526195	-0.816513
C158	C	1.266555	-0.276195	-0.566513
C159	C	1.516555	-0.026195	-0.316513
C160	C	1.766555	0.223805	-0.066513
C161	C	1.016568	-0.526173	-0.893370
C162	C	1.266568	-0.276173	-0.643370
C163	C	1.516568	-0.026173	-0.393370
C164	C	1.766568	0.223827	-0.143370
C165	C	1.063652	-0.464464	-0.931818
C166	C	1.313652	-0.214464	-0.681818
C167	C	1.563652	0.035536	-0.431818
C168	C	1.813652	0.285536	-0.181818
C169	C	1.063630	-0.464512	-0.778101
C170	C	1.313630	-0.214512	-0.528101
C171	C	1.563630	0.035488	-0.278101
C172	C	1.813630	0.285488	-0.028101
C173	C	1.063620	-0.464541	-0.694768
C174	C	1.313620	-0.214541	-0.444768
C175	C	1.563620	0.035459	-0.194768
C176	C	1.813620	0.285459	0.055232
C177	C	1.063663	-0.464437	-1.015157
C178	C	1.313663	-0.214437	-0.765157
C179	C	1.563663	0.035563	-0.515157
C180	C	1.813663	0.285563	-0.265157
C181	C	1.063548	-0.464658	-0.163380
C182	C	1.313548	-0.214658	0.086620
C183	C	1.563548	0.035342	0.336620
C184	C	1.813548	0.285342	0.586620
C185	C	1.063672	-0.464415	-0.081581
C186	C	1.313672	-0.214415	0.168419
C187	C	1.563672	0.035585	0.418419
C188	C	1.813672	0.285585	0.668419
H189	H	0.633652	-0.576728	-0.439829
H190	H	0.883652	-0.326728	-0.189829
H191	H	1.133652	-0.076728	0.060171
H192	H	1.383652	0.173272	0.310171
H193	H	1.149048	-0.352594	-0.785285
H194	H	1.399048	-0.102594	-0.535285
H195	H	1.649048	0.147406	-0.285285
H196	H	1.899048	0.397406	-0.035285
H197	H	0.633626	-0.352592	-0.269347
H198	H	0.883626	-0.102592	-0.019347
H199	H	1.133626	0.147408	0.230653
H200	H	1.383626	0.397408	0.480653
H201	H	0.978220	-0.576434	-0.785200
H202	H	1.228220	-0.326434	-0.535200
H203	H	1.478220	-0.076434	-0.285200
H204	H	1.728220	0.173566	-0.035200
Cl205	Cl	0.957391	-0.603720	-0.941657
Cl206	Cl	1.207391	-0.353720	-0.691657
Cl207	Cl	1.457391	-0.103720	-0.441657
Cl208	Cl	1.707391	0.146280	-0.191657
Cl209	Cl	0.477208	-0.604087	-0.460656
Cl210	Cl	0.727208	-0.354087	-0.210656
Cl211	Cl	0.977208	-0.104087	0.039344
Cl212	Cl	1.227208	0.145913	0.289344
H213	H	0.494185	-0.352613	-0.269364
H214	H	0.744185	-0.102613	-0.019364
H215	H	0.994185	0.147387	0.230636
H216	H	1.244185	0.397387	0.480636
H217	H	1.149063	-0.352542	-0.924713
H218	H	1.399063	-0.102542	-0.674713
H219	H	1.649063	0.147458	-0.424713
H220	H	1.899063	0.397458	-0.174713
