data_functionalizedCrystal
_audit_creation_method	'MofGen! by Chris Wilmer'
_symmetry_space_group_name_H-M	'P1'
_symmetry_Int_Tables_number	1
_symmetry_cell_setting	triclinic
loop_
_symmetry_equiv_pos_as_xyz
  x,y,z
_cell_length_a	10.540514
_cell_length_b	17.038272
_cell_length_c	9.016244
_cell_angle_alpha	89.997742
_cell_angle_beta	89.992124
_cell_angle_gamma	87.813358
loop_
_atom_site_label
_atom_site_type_symbol
_atom_site_fract_x
_atom_site_fract_y
_atom_site_fract_z
O1	O	1.696187	0.110152	-0.123361
O2	O	1.327740	0.120560	-0.123360
O3	O	1.509774	0.001528	-0.123349
O4	O	1.514153	0.229184	-0.123372
O5	O	1.509746	0.001531	0.123332
O6	O	1.327712	0.120563	0.123321
O7	O	1.696158	0.110155	0.123320
Cu8	Cu	1.511933	0.115359	0.145844
Cu9	Cu	1.511966	0.115356	-0.145884
O10	O	1.514125	0.229187	0.123309
C11	C	1.280350	0.119785	-0.000019
C12	C	1.139184	0.117462	-0.000019
C13	C	1.076419	0.202593	-0.000030
C14	C	0.929584	0.200205	-0.000598
C15	C	0.942544	0.071163	-0.140615
C16	C	1.089362	0.074154	-0.140726
C17	C	1.089615	0.072897	0.139806
C18	C	0.942560	0.072076	0.141646
C19	C	1.505776	-0.027621	-0.000008
C20	C	1.493892	-0.114482	-0.000009
C21	C	1.603003	-0.163975	-0.000008
C22	C	1.591829	-0.245589	-0.000022
C23	C	1.471543	-0.277708	-0.000026
C24	C	1.362424	-0.228209	-0.000032
C25	C	1.373599	-0.146596	-0.000029
C26	C	1.432063	-0.523691	-0.000047
C27	C	1.420896	-0.605310	-0.000046
C28	C	1.650302	-0.622685	-0.000038
C29	C	1.661467	-0.541070	-0.000026
C30	C	1.552348	-0.491577	-0.000039
C31	C	1.460118	-0.361131	-0.000036
C32	C	1.563773	-0.408157	-0.000040
C33	C	1.743548	0.110930	-0.000024
C34	C	1.884715	0.113252	-0.000034
N35	N	1.511919	0.115361	0.351030
C36	C	1.518122	0.258336	-0.000035
C37	C	1.530007	0.345197	-0.000044
N38	N	1.511990	0.115348	-0.351071
C39	C	1.414206	0.178821	0.586057
C40	C	1.414457	0.179059	0.414166
C41	C	1.646375	0.133923	0.413366
C42	C	1.645851	0.134373	0.585311
C43	C	1.476474	0.033129	0.585583
C44	C	1.473478	0.033663	0.413628
H45	H	0.902640	0.100012	-0.245641
Br46	Br	1.824718	-0.497486	-0.000067
Br47	Br	1.453093	0.279920	0.658002
Br48	Br	1.453716	0.280739	0.345561
H49	H	1.131536	0.011620	-0.146722
Br50	Br	0.878997	0.123340	0.315000
Br51	Br	1.695770	0.234349	0.652127
Br52	Br	1.771155	0.058972	0.345212
Br53	Br	0.892386	-0.033561	0.156521
Br54	Br	1.158639	-0.031754	0.142102
Br55	Br	1.697103	0.232770	0.341560
H56	H	1.547680	-0.014114	0.626239
H57	H	1.721355	0.090004	0.626898
Br58	Br	1.727014	-0.364565	-0.000047
Br59	Br	0.863593	0.255389	0.167319
H60	H	1.380088	0.015461	0.629032
H61	H	1.739140	-0.662990	-0.000030
Br62	Br	1.308550	0.010207	0.345732
H63	H	1.108169	0.237128	0.100766
H64	H	1.322940	-0.631458	-0.000025
Br65	Br	1.141212	0.125384	-0.316558
Br66	Br	1.583345	-0.048848	0.342030
H67	H	1.109833	0.236620	-0.100701
Br68	Br	1.283971	-0.456533	-0.000074
H69	H	0.890938	0.233166	-0.101972
H70	H	0.914273	0.007299	-0.145439
Br71	Br	1.146493	0.120129	0.317464
H72	H	1.362181	-0.387292	-0.000037
H73	H	1.680679	-0.285884	-0.000017
Br74	Br	1.766256	-0.120394	0.000020
Br75	Br	1.248332	0.160499	0.343917
Br76	Br	1.199176	-0.271798	-0.000063
Br77	Br	1.247597	0.160482	0.655007
Br78	Br	1.225514	-0.079425	-0.000042
