data_functionalizedCrystal
_audit_creation_method	'MofGen! by Chris Wilmer'
_symmetry_space_group_name_H-M	'P1'
_symmetry_Int_Tables_number	1
_symmetry_cell_setting	triclinic
loop_
_symmetry_equiv_pos_as_xyz
  x,y,z
_cell_length_a	12.759401
_cell_length_b	12.759400
_cell_length_c	12.759393
_cell_angle_alpha	89.968436
_cell_angle_beta	89.981504
_cell_angle_gamma	90.014845
loop_
_atom_site_label
_atom_site_type_symbol
_atom_site_fract_x
_atom_site_fract_y
_atom_site_fract_z
Zn1	Zn	1.606255	-0.418200	-0.593981
Zn2	Zn	1.606150	-0.593919	-0.418301
Zn3	Zn	1.430557	-0.418255	-0.418321
Zn4	Zn	1.430546	-0.593838	-0.593943
O5	O	1.518377	-0.506053	-0.506137
O6	O	1.753262	-0.441520	-0.570685
O7	O	1.582818	-0.570673	-0.271283
O8	O	1.453913	-0.271226	-0.441647
O9	O	1.753185	-0.570620	-0.441614
O10	O	1.582998	-0.271186	-0.570704
O11	O	1.453811	-0.441614	-0.271297
O12	O	1.283535	-0.441535	-0.441609
O13	O	1.453894	-0.570482	-0.740969
O14	O	1.283527	-0.570536	-0.570638
O15	O	1.582987	-0.441442	-0.740997
O16	O	1.582807	-0.740929	-0.441577
O17	O	1.453791	-0.740870	-0.570620
C18	C	1.245410	-0.506033	-0.506122
C19	C	1.128633	-0.506050	-0.506141
C20	C	1.073794	-0.573328	-0.573215
C21	C	0.964070	-0.573342	-0.573227
C22	C	0.964034	-0.438796	-0.439081
C23	C	1.073756	-0.438778	-0.439075
C24	C	1.073815	-0.651010	-0.650660
C25	C	0.964091	-0.651024	-0.650672
C26	C	1.518315	-0.779020	-0.506115
C27	C	1.518384	-0.895797	-0.506140
C28	C	1.585637	-0.950655	-0.439022
C29	C	1.585702	-1.060379	-0.439054
C30	C	1.451252	-1.060377	-0.573327
C31	C	1.451193	-0.950655	-0.573299
C32	C	1.652828	-0.895797	-0.371864
C33	C	1.720086	-0.950655	-0.304739
C34	C	1.720150	-1.060379	-0.304771
C35	C	1.652957	-1.115245	-0.371929
C36	C	1.792410	-0.506073	-0.506152
C37	C	1.909187	-0.506082	-0.506158
C38	C	1.518451	-0.505947	-0.780170
C39	C	1.518482	-0.505902	-0.896947
C40	C	1.518468	-0.232019	-0.506182
C41	C	1.518507	-0.115243	-0.506201
C42	C	1.585710	-0.438704	-0.951825
C43	C	1.585735	-0.438666	-1.061549
C44	C	1.451301	-0.573033	-1.061507
C45	C	1.451272	-0.573064	-0.951785
C46	C	1.663328	-0.361131	-0.951851
C47	C	1.663353	-0.361093	-1.061575
C48	C	1.518364	-0.506083	-0.233169
C49	C	1.518537	-0.505832	-0.116393
H50	H	1.107829	-0.728262	-0.621376
H51	H	0.930093	-0.621980	-0.728024
H52	H	1.396579	-0.627712	-1.106169
H53	H	1.774798	-0.905977	-0.250068
H54	H	1.118401	-0.383987	-0.384464
H55	H	1.740599	-0.390300	-0.917815
C56	C	0.923827	-0.760912	-0.621029
C57	C	1.002227	-0.849484	-0.597115
C58	C	0.961964	-0.959366	-0.567470
C59	C	0.843300	-0.980676	-0.561740
C60	C	0.764893	-0.892101	-0.585655
C61	C	0.805156	-0.782219	-0.615300
H62	H	1.090076	-0.833712	-0.601356
H63	H	1.020007	-1.024935	-0.549766
H64	H	0.813495	-1.062017	-0.539795
H65	H	0.677044	-0.907873	-0.581414
H66	H	0.747113	-0.716650	-0.633004
H67	H	1.634239	-0.283784	-1.095623
C68	C	1.377211	-0.890306	-0.647127
C69	C	1.422654	-0.814775	-0.729632
C70	C	1.348673	-0.754427	-0.803465
C71	C	1.229249	-0.769611	-0.794794
C72	C	1.183800	-0.845146	-0.712285
C73	C	1.257781	-0.905493	-0.638452
H74	H	1.511064	-0.803532	-0.736054
H75	H	1.382318	-0.698511	-0.864543
H76	H	1.174483	-0.724937	-0.849450
H77	H	1.095389	-0.856388	-0.705863
H78	H	1.224136	-0.961409	-0.577374
H79	H	1.641559	-0.279767	-0.922095
C80	C	0.903666	-0.364805	-0.365306
C81	C	0.782976	-0.364818	-0.365310
C82	C	0.722610	-0.290825	-0.291533
C83	C	0.782935	-0.216820	-0.217752
C84	C	0.903632	-0.216805	-0.217745
C85	C	0.963997	-0.290797	-0.291522
H86	H	0.738314	-0.419603	-0.419930
H87	H	0.633262	-0.290837	-0.291539
H88	H	0.738249	-0.162047	-0.163137
H89	H	0.948294	-0.162020	-0.163125
H90	H	1.053345	-0.290785	-0.291517
H91	H	1.652780	-0.806454	-0.371827
H92	H	1.103623	-0.629311	-0.732067
C93	C	1.377337	-1.120726	-0.647189
C94	C	1.377397	-1.241416	-0.647218
C95	C	1.303479	-1.301764	-0.721080
C96	C	1.229501	-1.241422	-0.794912
C97	C	1.229439	-1.120725	-0.794886
C98	C	1.303357	-1.060377	-0.721024
H99	H	1.432163	-1.286091	-0.592560
H100	H	1.303526	-1.391112	-0.721099
H101	H	1.174783	-1.286095	-0.849589
H102	H	1.174673	-1.076050	-0.849543
H103	H	1.303310	-0.971030	-0.721005
H104	H	1.744723	-0.382886	-1.091353
H105	H	1.653024	-1.204589	-0.371958
H106	H	1.774922	-1.105041	-0.250123
H107	H	1.396525	-0.627780	-0.907107
