data_functionalizedCrystal
_audit_creation_method	'MofGen! by Chris Wilmer'
_symmetry_space_group_name_H-M	'P1'
_symmetry_Int_Tables_number	1
_symmetry_cell_setting	triclinic
loop_
_symmetry_equiv_pos_as_xyz
  x,y,z
_cell_length_a	21.395362
_cell_length_b	15.297327
_cell_length_c	15.297738
_cell_angle_alpha	110.757659
_cell_angle_beta	80.281572
_cell_angle_gamma	99.725883
loop_
_atom_site_label
_atom_site_type_symbol
_atom_site_fract_x
_atom_site_fract_y
_atom_site_fract_z
Zn1	Zn	0.973361	-0.460950	-0.590291
Zn2	Zn	0.942368	-0.589572	-0.461664
Zn3	Zn	0.853125	-0.434106	-0.434747
Zn4	Zn	0.853080	-0.616454	-0.617079
O5	O	0.905483	-0.525271	-0.525945
O6	O	1.056936	-0.477996	-0.573282
O7	O	0.917577	-0.546465	-0.327955
O8	O	0.882063	-0.307524	-0.432904
O9	O	1.034165	-0.572494	-0.478780
O10	O	0.970400	-0.327246	-0.547182
O11	O	0.852011	-0.432244	-0.308180
O12	O	0.765432	-0.458311	-0.458880
O13	O	0.881988	-0.618311	-0.743663
O14	O	0.765400	-0.592282	-0.592838
O15	O	0.970357	-0.504062	-0.723982
O16	O	0.917535	-0.723281	-0.504755
O17	O	0.851936	-0.743031	-0.618938
C18	C	0.742680	-0.525301	-0.525846
C19	C	0.673032	-0.525340	-0.525829
C20	C	0.640302	-0.595162	-0.595506
C21	C	0.574873	-0.595147	-0.595543
C22	C	0.542174	-0.525316	-0.525889
C23	C	0.574913	-0.455482	-0.456206
C24	C	0.640342	-0.455494	-0.456176
C25	C	0.430880	-0.503352	-0.440872
C26	C	0.365451	-0.503346	-0.440901
C27	C	0.340369	-0.525273	-0.525981
C28	C	0.380723	-0.547226	-0.611038
C29	C	0.446152	-0.547238	-0.611008
C30	C	0.471227	-0.525295	-0.525914
C31	C	0.236694	-0.595082	-0.595704
C32	C	0.171264	-0.595060	-0.595742
C33	C	0.171304	-0.455399	-0.456398
C34	C	0.236734	-0.455417	-0.456367
C35	C	0.269424	-0.525264	-0.526020
C36	C	0.881386	-0.766904	-0.567695
C37	C	0.871138	-0.870281	-0.585587
C38	C	0.979020	-1.120455	-0.398386
C39	C	0.988648	-1.023327	-0.381571
C40	C	0.959272	-0.985060	-0.432574
C41	C	0.920265	-1.043933	-0.500394
C42	C	0.910632	-1.141070	-0.517206
C43	C	0.890883	-1.005675	-0.551393
C44	C	0.851877	-1.064548	-0.619213
C45	C	0.842246	-1.161675	-0.636022
C46	C	0.871622	-1.199941	-0.585020
C47	C	0.900517	-0.908538	-0.534582
C48	C	0.832128	-0.929153	-0.653401
C49	C	0.822500	-1.026281	-0.670216
C50	C	1.068922	-0.525241	-0.526045
C51	C	1.138570	-0.525228	-0.526088
C52	C	0.929625	-0.567179	-0.768509
C53	C	0.939912	-0.585039	-0.871875
C54	C	0.929694	-0.282697	-0.484052
C55	C	0.940011	-0.179327	-0.466200
C56	C	0.978882	-0.652899	-0.930735
C57	C	0.988553	-0.669670	-1.027851
C58	C	0.959250	-0.618589	-1.066119
C59	C	0.920275	-0.550732	-1.007260
C60	C	0.910608	-0.533953	-0.910133
C61	C	0.890976	-0.499643	-1.045517
C62	C	0.852001	-0.431786	-0.986659
C63	C	0.842335	-0.415011	-0.889542
C64	C	0.871638	-0.466093	-0.851274
C65	C	0.900643	-0.516422	-1.142644
C66	C	0.832368	-0.397476	-1.122043
C67	C	0.822698	-0.380705	-1.024926
C68	C	0.881479	-0.483458	-0.284313
C69	C	0.871338	-0.465337	-0.180902
H70	H	0.666914	-0.652036	-0.652224
Cl71	Cl	0.793348	-0.329694	-0.815548
H72	H	0.863787	-1.279031	-0.598709
Cl73	Cl	0.773712	-0.295391	-0.950920
H74	H	0.863767	-0.452441	-0.772194
Cl75	Cl	0.949637	-0.601725	-1.216626
Cl76	Cl	0.130205	-0.367606	-0.368836
H77	H	0.808510	-0.355879	-1.153199
Cl78	Cl	0.533717	-0.682930	-0.683144
H79	H	0.479005	-0.565110	-0.680263
H80	H	0.263312	-0.651951	-0.652424
H81	H	0.144617	-0.651917	-0.652487
Cl82	Cl	0.971405	-0.639678	-1.188211
Cl83	Cl	0.462403	-0.475788	-0.333904
Cl84	Cl	1.015725	-0.717095	-0.882620
H85	H	0.360304	-0.565079	-0.680318
Cl86	Cl	1.037542	-0.754978	-1.101838
H87	H	0.548286	-0.398624	-0.399495
Cl88	Cl	0.277882	-0.367638	-0.368766
H89	H	0.332600	-0.485477	-0.371644
H90	H	0.666991	-0.398634	-0.399436
H91	H	0.967113	-0.905973	-0.418878
H92	H	0.932276	-0.860612	-0.479361
H93	H	1.020406	-0.975396	-0.326351
H94	H	1.002930	-1.151621	-0.356861
H95	H	0.790740	-1.074229	-0.725436
Cl96	Cl	0.793206	-1.235683	-0.721278
Cl97	Cl	0.795191	-0.881053	-0.717516
