data_functionalizedCrystal
_audit_creation_method	'MofGen! by Chris Wilmer'
_symmetry_space_group_name_H-M	'P1'
_symmetry_Int_Tables_number	1
_symmetry_cell_setting	triclinic
loop_
_symmetry_equiv_pos_as_xyz
  x,y,z
_cell_length_a	21.395361
_cell_length_b	19.805407
_cell_length_c	21.395355
_cell_angle_alpha	90.031996
_cell_angle_beta	89.978489
_cell_angle_gamma	89.970677
loop_
_atom_site_label
_atom_site_type_symbol
_atom_site_fract_x
_atom_site_fract_y
_atom_site_fract_z
Zn1	Zn	-0.249534	-1.034755	-0.354373
Zn2	Zn	-0.354294	-1.034650	-0.249590
Zn3	Zn	-0.249532	-0.921558	-0.249596
Zn4	Zn	-0.354275	-0.921525	-0.354316
O5	O	-0.301909	-0.978122	-0.301969
O6	O	-0.263440	-1.129458	-0.340494
O7	O	-0.340404	-1.019618	-0.161913
O8	O	-0.161854	-0.936632	-0.263521
O9	O	-0.340406	-1.129380	-0.263511
O10	O	-0.161856	-1.019797	-0.340500
O11	O	-0.263436	-0.936530	-0.161917
O12	O	-0.263417	-0.826837	-0.263466
O13	O	-0.340374	-0.936575	-0.442002
O14	O	-0.340372	-0.826813	-0.340404
O15	O	-0.263422	-1.019765	-0.442043
O16	O	-0.441969	-1.019585	-0.263456
O17	O	-0.441956	-0.936473	-0.340398
C18	C	-0.301893	-0.802266	-0.301930
C19	C	-0.301901	-0.727034	-0.301928
C20	C	-0.342047	-0.265248	-0.341986
C21	C	-0.342047	-0.335936	-0.341975
C22	C	-0.301918	-0.371272	-0.301975
C23	C	-0.261791	-0.335916	-0.261979
C24	C	-0.261795	-0.265229	-0.261987
C25	C	-0.261775	-0.620989	-0.261944
C26	C	-0.261772	-0.691681	-0.261940
C27	C	-0.342027	-0.691697	-0.341931
C28	C	-0.342031	-0.621010	-0.341939
C29	C	-0.301906	-0.585659	-0.301941
C30	C	-0.301908	-0.509011	-0.301953
C31	C	-0.301913	-0.447919	-0.301966
C32	C	-0.464696	-0.978032	-0.301934
C33	C	-0.534338	-0.978056	-0.301940
C34	C	-0.567037	-1.021371	-0.261917
C35	C	-0.632473	-1.021403	-0.261931
C36	C	-0.665206	-0.978107	-0.301961
C37	C	-0.632499	-0.934789	-0.341992
C38	C	-0.567065	-0.934764	-0.341981
C39	C	-0.768920	-0.917163	-0.306864
C40	C	-0.834353	-0.917188	-0.306870
C41	C	-0.867027	-0.978186	-0.301998
C42	C	-0.834260	-1.039162	-0.297106
C43	C	-0.768826	-1.039136	-0.297096
C44	C	-0.736158	-0.978130	-0.301978
C45	C	-0.970679	-1.021539	-0.261988
C46	C	-1.036115	-1.021571	-0.262007
C47	C	-1.036140	-0.934952	-0.342064
C48	C	-0.970705	-0.934925	-0.342049
C49	C	-0.937978	-0.978218	-0.302008
C50	C	-0.138486	-0.978230	-0.302017
C51	C	-0.068844	-0.978276	-0.302038
C52	C	-0.301896	-0.978178	-0.465392
C53	C	-0.301891	-0.978202	-0.535033
C54	C	-0.301923	-0.154665	-0.302000
C55	C	-0.301922	-0.229897	-0.301994
C56	C	-0.261820	-1.021517	-0.567769
C57	C	-0.261793	-1.021516	-0.633205
C58	C	-0.301848	-0.978207	-0.665902
C59	C	-0.341922	-0.934884	-0.633158
C60	C	-0.341943	-0.934881	-0.567724
C61	C	-0.358263	-0.972832	-0.769564
C62	C	-0.358243	-0.972839	-0.834997
C63	C	-0.301782	-0.978211	-0.867723
C64	C	-0.245339	-0.983590	-0.835008
C65	C	-0.245361	-0.983588	-0.769573
C66	C	-0.301829	-0.978205	-0.736854
C67	C	-0.261678	-1.021528	-0.971411
C68	C	-0.261650	-1.021522	-1.036848
C69	C	-0.341785	-0.934893	-1.036800
C70	C	-0.341807	-0.934895	-0.971365
C71	C	-0.301755	-0.978216	-0.938674
C72	C	-0.301876	-0.978105	-0.139181
C73	C	-0.301705	-0.978212	-0.069540
H74	H	-0.374699	-0.720487	-0.374497
H75	H	-1.062791	-0.899702	-0.374660
H76	H	-0.861027	-0.867537	-0.310847
H77	H	-0.229016	-1.056793	-1.063500
H78	H	-0.229119	-0.236447	-0.229424
H79	H	-0.374573	-0.899606	-0.541071
N80	N	-0.667797	-0.888085	-0.385164
H81	H	-0.656379	-0.898569	-0.429940
H82	H	-0.714201	-0.894691	-0.379044
N83	N	-0.869490	-1.104959	-0.291848
H84	H	-0.915914	-1.095726	-0.292600
H85	H	-0.858005	-1.135195	-0.328108
N86	N	-0.385130	-0.888171	-0.668414
H87	H	-0.375394	-0.839817	-0.657002
H88	H	-0.379022	-0.894799	-0.714824
N89	N	-0.384991	-0.888184	-1.072059
H90	H	-0.410382	-0.860745	-1.041388
H91	H	-0.359474	-0.856878	-1.099193
H92	H	-0.374441	-0.899628	-0.944711
N93	N	-0.385317	-0.582897	-0.385076
H94	H	-0.359903	-0.553602	-0.414164
H95	H	-0.410730	-0.616062	-0.410365
N96	N	-0.531791	-0.888042	-0.385149
H97	H	-0.562454	-0.860619	-0.410513
H98	H	-0.504684	-0.856722	-0.359608
N99	N	-0.419117	-0.967043	-0.870280
H100	H	-0.454887	-0.963631	-0.839621
H101	H	-0.418199	-0.925341	-0.897410
H102	H	-1.062738	-1.056848	-0.229417
N103	N	-0.385328	-0.227138	-0.385131
H104	H	-0.410748	-0.260262	-0.410462
H105	H	-0.414287	-0.197777	-0.359575
H106	H	-0.404229	-0.968276	-0.742924
H107	H	-0.944079	-0.899651	-0.374637
N108	N	-0.218486	-1.068249	-0.936140
H109	H	-0.173710	-1.057772	-0.947513
H110	H	-0.224645	-1.061651	-0.889733
H111	H	-0.944032	-1.056792	-0.229386
H112	H	-0.374722	-0.364716	-0.374538
H113	H	-0.229092	-0.720450	-0.229366
N114	N	-0.218500	-0.582867	-0.218806
H115	H	-0.193077	-0.615980	-0.193468
H116	H	-0.189543	-0.553569	-0.244364
H117	H	-0.742323	-0.867487	-0.310834
N118	N	-0.218511	-0.374024	-0.218832
H119	H	-0.224595	-0.424169	-0.224896
H120	H	-0.173779	-0.361696	-0.228667
N121	N	-0.531741	-1.068073	-0.218740
H122	H	-0.504555	-1.099414	-0.244232
H123	H	-0.504664	-1.040527	-0.189681
N124	N	-0.218621	-1.068238	-0.532510
H125	H	-0.193231	-1.095678	-0.563181
H126	H	-0.189630	-1.040706	-0.505350
N127	N	-0.667752	-1.068123	-0.218763
H128	H	-0.637091	-1.095545	-0.193397
H129	H	-0.694938	-1.040592	-0.189749
H130	H	-0.742148	-1.088784	-0.293114
N131	N	-0.218572	-1.068236	-0.668523
H132	H	-0.193202	-1.095677	-0.637885
H133	H	-0.244075	-1.099539	-0.695685
N134	N	-0.184490	-0.989391	-0.734286
H135	H	-0.148716	-0.992797	-0.764942
H136	H	-0.178677	-0.948155	-0.707117
H137	H	-0.199363	-0.987966	-0.861651
