data_functionalizedCrystal
_audit_creation_method	'MofGen! by Chris Wilmer'
_symmetry_space_group_name_H-M	'P1'
_symmetry_Int_Tables_number	1
_symmetry_cell_setting	triclinic
loop_
_symmetry_equiv_pos_as_xyz
  x,y,z
_cell_length_a	10.723023
_cell_length_b	9.065218
_cell_length_c	7.540329
_cell_angle_alpha	90.001757
_cell_angle_beta	89.997501
_cell_angle_gamma	95.258283
loop_
_atom_site_label
_atom_site_type_symbol
_atom_site_fract_x
_atom_site_fract_y
_atom_site_fract_z
O1	O	1.658027	-0.206934	-0.147457
O2	O	1.294955	-0.226744	-0.147463
O3	O	1.483996	-0.002154	-0.147456
O4	O	1.468986	-0.431524	-0.147464
O5	O	1.483984	-0.002151	0.147509
O6	O	1.294944	-0.226741	0.147502
O7	O	1.658016	-0.206931	0.147508
Cu8	Cu	1.476479	-0.216836	0.174438
Cu9	Cu	1.476492	-0.216839	-0.174393
O10	O	1.468975	-0.431521	0.147501
C11	C	1.248444	-0.225301	0.000018
C12	C	1.109872	-0.220989	0.000015
C13	C	1.048086	-0.219064	0.152815
C14	C	0.904865	-0.214607	0.152815
C15	C	1.482547	0.052826	0.000023
C16	C	1.478234	0.216644	0.000015
C17	C	1.704527	-0.208374	0.000023
C18	C	1.843099	-0.212687	0.000014
C19	C	1.470423	-0.486501	0.000018
C20	C	1.474736	-0.650319	0.000015
N21	N	1.476478	-0.216833	0.419786
N22	N	1.476502	-0.216831	-0.419741
H23	H	0.896224	-0.214350	-0.130810
O24	O	1.111304	-0.221225	0.309002
C25	C	1.138741	-0.350111	0.583742
C26	C	1.067037	-0.347831	0.406937
H27	H	1.102997	-0.452477	0.662957
H28	H	1.123428	-0.246308	0.663202
H29	H	1.242958	-0.353279	0.555895
H30	H	0.962798	-0.344714	0.434623
H31	H	1.082454	-0.451628	0.327532
O32	O	0.841459	-0.212366	0.308844
C33	C	0.706922	-0.080220	0.495164
C34	C	0.778694	-0.082557	0.318411
H35	H	0.656137	0.024704	0.502941
H36	H	0.775666	-0.082260	0.610278
H37	H	0.635755	-0.181448	0.503074
H38	H	0.849862	0.018653	0.310328
H39	H	0.709876	-0.080593	0.203381
O40	O	1.046612	-0.219222	-0.156169
C41	C	0.993776	-0.345630	-0.430903
C42	C	1.065495	-0.347798	-0.254102
H43	H	1.008996	-0.449586	-0.510116
H44	H	1.029577	-0.243422	-0.510367
H45	H	0.889573	-0.342314	-0.403050
H46	H	1.169709	-0.351166	-0.281794
H47	H	1.029591	-0.449994	-0.174692
