data_functionalizedCrystal
_audit_creation_method	'MofGen! by Chris Wilmer'
_symmetry_space_group_name_H-M	'P1'
_symmetry_Int_Tables_number	1
_symmetry_cell_setting	triclinic
loop_
_symmetry_equiv_pos_as_xyz
  x,y,z
_cell_length_a	10.654550
_cell_length_b	10.540539
_cell_length_c	9.730223
_cell_angle_alpha	89.997733
_cell_angle_beta	89.999957
_cell_angle_gamma	84.505211
loop_
_atom_site_label
_atom_site_type_symbol
_atom_site_fract_x
_atom_site_fract_y
_atom_site_fract_z
O1	O	1.667902	0.178301	-0.114180
O2	O	2.167902	0.678301	0.385820
O3	O	1.302429	0.195288	-0.114205
O4	O	1.802429	0.695288	0.385795
O5	O	1.493504	0.002085	-0.114190
O6	O	1.993504	0.502085	0.385810
O7	O	1.476827	0.371504	-0.114195
O8	O	1.976827	0.871504	0.385805
O9	O	1.493491	0.002079	0.114390
O10	O	1.993491	0.502079	0.614390
O11	O	1.302417	0.195282	0.114375
O12	O	1.802417	0.695282	0.614375
O13	O	1.667889	0.178295	0.114400
O14	O	2.167889	0.678295	0.614400
Zn15	Zn	1.485151	0.186788	0.150679
Zn16	Zn	1.985151	0.686788	0.650679
Zn17	Zn	1.485167	0.186795	-0.150484
Zn18	Zn	1.985167	0.686795	0.349516
O19	O	1.476815	0.371498	0.114385
O20	O	1.976815	0.871498	0.614385
C21	C	1.255625	0.194038	0.000082
C22	C	1.755625	0.694038	0.500082
C23	C	1.116180	0.190306	0.000072
C24	C	1.616180	0.690306	0.500072
C25	C	1.036735	0.304061	0.000075
C26	C	1.536735	0.804061	0.500075
C27	C	0.905712	0.300547	0.000099
C28	C	1.405712	0.800547	0.500099
C29	C	0.933594	0.069513	0.000112
C30	C	1.433594	0.569513	0.500112
C31	C	1.064614	0.073029	0.000098
C32	C	1.564614	0.573029	0.500098
C33	C	1.492247	-0.045221	0.000097
C34	C	1.992247	0.454779	0.500097
C35	C	1.488505	-0.186167	0.000090
C36	C	1.988505	0.313833	0.500090
C37	C	1.345134	-0.369543	-0.000433
C38	C	1.845134	0.130457	0.499567
C39	C	1.348927	-0.222926	0.000082
C40	C	1.848927	0.277074	0.500082
C41	C	1.555670	-0.247852	0.130624
C42	C	2.055670	0.252148	0.630624
C43	C	1.550906	-0.394395	0.130734
C44	C	2.050906	0.105605	0.630734
C45	C	1.553759	-0.394908	-0.129204
C46	C	2.053759	0.105092	0.370796
C47	C	1.555044	-0.247927	-0.130930
C48	C	2.055044	0.252073	0.369070
C49	C	1.714694	0.179545	0.000110
C50	C	2.214694	0.679545	0.500110
C51	C	1.854139	0.183277	0.000110
C52	C	2.354139	0.683277	0.500110
C53	C	1.478072	0.418804	0.000095
C54	C	1.978072	0.918804	0.500095
C55	C	1.481813	0.559750	0.000093
C56	C	1.981813	1.059750	0.500093
N57	N	1.485149	0.186782	0.356216
N58	N	1.985149	0.686782	0.856216
N59	N	1.485179	0.186791	-0.356021
N60	N	1.985179	0.686791	0.143979
C61	C	1.569786	0.101269	0.428148
C62	C	2.069786	0.601269	0.928148
C63	C	1.569799	0.101269	0.572031
C64	C	2.069799	0.601269	1.072031
C65	C	1.400533	0.272309	0.572037
C66	C	1.900533	0.772309	1.072037
C67	C	1.400516	0.272301	0.428156
C68	C	1.900516	0.772301	0.928156
H69	H	1.129302	-0.019610	0.000100
H70	H	1.629302	0.480390	0.500100
F71	F	1.273068	-0.406892	-0.122789
F72	F	1.773068	0.093108	0.377211
H73	H	1.296078	-0.180301	-0.093491
H74	H	1.796078	0.319699	0.406509
H75	H	1.505901	-0.207048	-0.227496
H76	H	2.005901	0.292952	0.272504
H77	H	1.290216	-0.399732	0.092644
H78	H	1.790216	0.100268	0.592644
F79	F	1.091611	0.428878	0.000053
F80	F	1.591611	0.928878	0.500053
F81	F	1.659878	0.010251	0.648582
F82	F	2.159878	0.510251	1.148582
H83	H	1.331628	0.341938	0.630625
H84	H	1.831628	0.841938	1.130625
H85	H	0.841032	0.393178	0.000104
H86	H	1.341032	0.893178	0.500104
F87	F	0.878702	-0.055295	0.000133
F88	F	1.378702	0.444705	0.500133
H89	H	1.295697	-0.181153	0.093803
H90	H	1.795697	0.318847	0.593803
F91	F	1.310424	0.363316	0.351595
F92	F	1.810424	0.863316	0.851595
F93	F	1.494675	-0.192157	0.257588
F94	F	1.994675	0.307843	0.757588
H95	H	1.651289	-0.442400	0.136663
H96	H	2.151289	0.057600	0.636663
F97	F	1.689648	-0.218685	0.136982
F98	F	2.189648	0.281315	0.636982
F99	F	1.486008	-0.431237	0.258262
F100	F	1.986008	0.068763	0.758262
F101	F	1.494711	-0.436112	-0.258523
F102	F	1.994711	0.063888	0.241477
H103	H	1.656808	-0.223742	-0.138805
H104	H	2.156808	0.276258	0.361195
H105	H	1.654576	-0.442170	-0.130075
H106	H	2.154576	0.057830	0.369925
H107	H	1.638698	0.031632	0.369578
H108	H	2.138698	0.531632	0.869578
