data_functionalizedCrystal
_audit_creation_method	'MofGen! by Chris Wilmer'
_symmetry_space_group_name_H-M	'P1'
_symmetry_Int_Tables_number	1
_symmetry_cell_setting	triclinic
loop_
_symmetry_equiv_pos_as_xyz
  x,y,z
_cell_length_a	27.731988
_cell_length_b	19.188924
_cell_length_c	26.809956
_cell_angle_alpha	89.993348
_cell_angle_beta	90.004168
_cell_angle_gamma	97.119837
loop_
_atom_site_label
_atom_site_type_symbol
_atom_site_fract_x
_atom_site_fract_y
_atom_site_fract_z
O1	O	-0.641206	0.082879	-0.041344
O2	O	-0.141206	0.582879	0.458656
O3	O	-0.500447	0.095554	-0.041375
O4	O	-0.000447	0.595554	0.458625
O5	O	-0.574890	-0.012467	-0.041353
O6	O	-0.074890	0.487533	0.458647
O7	O	-0.566763	0.190900	-0.041366
O8	O	-0.066763	0.690900	0.458634
O9	O	-0.574868	-0.012467	0.041606
O10	O	-0.074868	0.487533	0.541606
O11	O	-0.500424	0.095554	0.041584
O12	O	-0.000424	0.595554	0.541584
O13	O	-0.641183	0.082879	0.041616
O14	O	-0.141183	0.582879	0.541616
Zn15	Zn	-0.570800	0.089216	0.054771
Zn16	Zn	-0.070800	0.589216	0.554771
Zn17	Zn	-0.570830	0.089216	-0.054531
Zn18	Zn	-0.070830	0.589216	0.445469
O19	O	-0.566740	0.190900	0.041593
O20	O	-0.066740	0.690900	0.541593
C21	C	-0.482427	0.095295	0.000100
C22	C	0.017573	0.595295	0.500100
C23	C	-0.428769	0.094513	0.000088
C24	C	0.071231	0.594513	0.500088
C25	C	-0.045603	0.088845	-0.045110
C26	C	0.454397	0.588845	0.454890
C27	C	-0.247270	0.091826	-0.045123
C28	C	0.252730	0.591826	0.454877
O29	O	-0.273355	0.092183	-0.083582
O30	O	0.226645	0.592183	0.416418
N31	N	-0.272479	0.092198	0.000097
N32	N	0.227521	0.592198	0.500097
C33	C	-0.247268	0.091822	0.045324
C34	C	0.252732	0.591822	0.545324
O35	O	-0.273338	0.092200	0.083786
O36	O	0.226662	0.592200	0.583786
C37	C	-0.045603	0.088836	0.045336
C38	C	0.454397	0.588836	0.545336
C39	C	-0.020396	0.088470	0.000113
C40	C	0.479604	0.588470	0.500113
C41	C	-0.020396	0.088479	-0.090330
C42	C	0.479604	0.588479	0.409670
C43	C	0.030018	0.087737	-0.090326
C44	C	0.530018	0.587737	0.409674
C45	C	0.055225	0.087363	-0.045103
C46	C	0.555225	0.587363	0.454897
C47	C	0.030018	0.087729	0.000116
C48	C	0.530018	0.587729	0.500116
C49	C	-0.020394	0.088454	0.090562
C50	C	0.479606	0.588454	0.590562
C51	C	0.030026	0.087706	0.090561
C52	C	0.530026	0.587706	0.590561
C53	C	0.055233	0.087340	0.045338
C54	C	0.555233	0.587340	0.545338
C55	C	0.105639	0.086613	0.045343
C56	C	0.605639	0.586613	0.545343
N57	N	0.130848	0.086240	0.000123
N58	N	0.630848	0.586240	0.500123
C59	C	0.105641	0.086615	-0.045100
C60	C	0.605641	0.586615	0.454900
C61	C	-0.353146	0.093390	0.045314
C62	C	0.146854	0.593390	0.545314
C63	C	-0.403562	0.094138	0.045312
C64	C	0.096438	0.594138	0.545312
C65	C	-0.403560	0.094141	-0.045135
C66	C	0.096440	0.594141	0.454865
C67	C	-0.353142	0.093398	-0.045132
C68	C	0.146858	0.593398	0.454868
C69	C	-0.327937	0.093017	0.000094
C70	C	0.172063	0.593017	0.500094
C71	C	0.211515	0.085059	-0.045089
C72	C	0.711515	0.585059	0.454911
C73	C	0.261933	0.084321	-0.045082
C74	C	0.761933	0.584321	0.454918
C75	C	0.261927	0.084314	0.045365
C76	C	0.761927	0.584314	0.545365
C77	C	0.211513	0.085056	0.045357
C78	C	0.711513	0.585056	0.545357
C79	C	0.186308	0.085426	0.000126
C80	C	0.686308	0.585426	0.500126
O81	O	0.131755	0.086248	0.083782
O82	O	0.631755	0.586248	0.583782
O83	O	0.131719	0.086221	-0.083557
O84	O	0.631719	0.586221	0.416443
C85	C	-0.096017	0.089586	-0.045114
C86	C	0.403983	0.589586	0.454886
C87	C	-0.121224	0.089953	0.000105
C88	C	0.378776	0.589953	0.500105
C89	C	-0.096017	0.089578	0.045329
C90	C	0.403983	0.589578	0.545329
C91	C	-0.171640	0.090700	0.000103
C92	C	0.328360	0.590700	0.500103
C93	C	-0.196847	0.091075	-0.045120
C94	C	0.303153	0.591075	0.454880
C95	C	-0.171638	0.090702	-0.090341
C96	C	0.328362	0.590702	0.409659
C97	C	-0.121224	0.089961	-0.090337
C98	C	0.378776	0.589961	0.409663
C99	C	-0.121226	0.089951	0.090549
C100	C	0.378774	0.589951	0.590549
C101	C	-0.171640	0.090693	0.090541
C102	C	0.328360	0.590693	0.590541
C103	C	-0.196847	0.091068	0.045318
C104	C	0.303153	0.591068	0.545318
C105	C	-0.574616	-0.038476	0.000127
C106	C	-0.074616	0.461524	0.500127
C107	C	-0.573828	-0.115976	0.000128
C108	C	-0.073828	0.384024	0.500128
C109	C	0.340798	0.083145	0.000137
C110	C	0.840798	0.583145	0.500137
C111	C	0.287141	0.083946	0.000141
C112	C	0.787141	0.583946	0.500141
C113	C	-0.573472	-0.152372	-0.045093
C114	C	-0.073472	0.347628	0.454907
C115	C	-0.572725	-0.225190	-0.045097
C116	C	-0.072725	0.274810	0.454903
C117	C	-0.572342	-0.261610	0.000123
C118	C	-0.072342	0.238390	0.500123
C119	C	-0.572695	-0.225204	0.045350
C120	C	-0.072695	0.274796	0.545350
C121	C	-0.573438	-0.152387	0.045353
C122	C	-0.073438	0.347613	0.545353
N123	N	-0.598675	-0.381450	0.033785
N124	N	-0.098675	0.118550	0.533785
N125	N	-0.597970	-0.450623	0.033780
N126	N	-0.097970	0.049377	0.533780
C127	C	-0.570103	-0.481004	0.000118
C128	C	-0.070103	0.018996	0.500118
N129	N	-0.542974	-0.439600	-0.033546
N130	N	-0.042974	0.060400	0.466454
N131	N	-0.543681	-0.370421	-0.033542
N132	N	-0.043681	0.129579	0.466458
C133	C	-0.571537	-0.340568	0.000125
C134	C	-0.071537	0.159432	0.500125
C135	C	-0.568936	-0.596358	-0.045111
C136	C	-0.068936	-0.096358	0.454889
C137	C	-0.568186	-0.669176	-0.045113
C138	C	-0.068186	-0.169176	0.454887
C139	C	-0.568161	-0.669191	0.045335
C140	C	-0.068161	-0.169191	0.545335
C141	C	-0.568907	-0.596373	0.045336
C142	C	-0.068907	-0.096373	0.545336
C143	C	-0.569297	-0.559961	0.000112
C144	C	-0.069297	-0.059961	0.500112
C145	C	-0.567014	0.216909	0.000112
C146	C	-0.067014	0.716909	0.500112
C147	C	-0.567803	0.294408	0.000107
C148	C	-0.067803	0.794408	0.500107
N149	N	-0.570783	0.089216	0.129367
N150	N	-0.070783	0.589216	0.629367
N151	N	-0.570851	0.089211	-0.129127
N152	N	-0.070851	0.589211	0.370873
C153	C	-0.600050	0.131255	0.473997
C154	C	-0.100050	0.631255	0.973997
C155	C	-0.600065	0.131255	0.682875
C156	C	-0.100065	0.631255	1.182875
O157	O	-0.624936	0.166990	0.709882
O158	O	-0.124936	0.666990	1.209882
N159	N	-0.570842	0.089209	0.708994
N160	N	-0.070842	0.589209	1.208994
C161	C	-0.541615	0.047157	0.682891
C162	C	-0.041615	0.547157	1.182891
O163	O	-0.516763	0.011390	0.709900
O164	O	-0.016763	0.511390	1.209900
C165	C	-0.541602	0.047155	0.474014
C166	C	-0.041602	0.547155	0.974014
C167	C	-0.570824	0.089208	0.447898
C168	C	-0.070824	0.589208	0.947898
C169	C	-0.629269	0.173305	0.447881
C170	C	-0.129269	0.673305	0.947881
C171	C	-0.629263	0.173307	0.395664
C172	C	-0.129263	0.673307	0.895664
C173	C	-0.600037	0.131261	0.369565
C174	C	-0.100037	0.631261	0.869565
C175	C	-0.570818	0.089211	0.395681
C176	C	-0.070818	0.589211	0.895681
C177	C	-0.512378	0.005100	0.447912
C178	C	-0.012378	0.505100	0.947912
C179	C	-0.512379	0.005102	0.395689
C180	C	-0.012379	0.505102	0.895689
C181	C	-0.541600	0.047155	0.369573
C182	C	-0.041600	0.547155	0.869573
C183	C	-0.541586	0.047167	0.317365
C184	C	-0.041586	0.547167	0.817365
N185	N	-0.570809	0.089212	0.291246
N186	N	-0.070809	0.589212	0.791246
C187	C	-0.600035	0.131259	0.317346
C188	C	-0.100035	0.631259	0.817346
C189	C	-0.541623	0.047163	0.792554
C190	C	-0.041623	0.547163	1.292554
C191	C	-0.541625	0.047164	0.844773
C192	C	-0.041625	0.547164	1.344773
C193	C	-0.600076	0.131261	0.844754
C194	C	-0.100076	0.631261	1.344754
C195	C	-0.600071	0.131263	0.792534
C196	C	-0.100071	0.631263	1.292534
C197	C	-0.570846	0.089208	0.766435
C198	C	-0.070846	0.589208	1.266435
C199	C	-0.600019	0.131262	0.207688
C200	C	-0.100019	0.631262	0.707688
C201	C	-0.600009	0.131263	0.155467
C202	C	-0.100009	0.631263	0.655467
C203	C	-0.541560	0.047164	0.155491
C204	C	-0.041560	0.547164	0.655491
C205	C	-0.541568	0.047165	0.207707
C206	C	-0.041568	0.547165	0.707707
C207	C	-0.570802	0.089216	0.233805
C208	C	-0.070802	0.589216	0.733805
O209	O	-0.516732	0.011444	0.290326
O210	O	-0.016732	0.511444	0.790326
O211	O	-0.624891	0.167010	0.290328
O212	O	-0.124891	0.667010	0.790328
C213	C	-0.600056	0.131253	0.526214
C214	C	-0.100056	0.631253	1.026214
C215	C	-0.570836	0.089203	0.552330
C216	C	-0.070836	0.589203	1.052330
C217	C	-0.541610	0.047156	0.526231
C218	C	-0.041610	0.547156	1.026231
C219	C	-0.570839	0.089205	0.604549
C220	C	-0.070839	0.589205	1.104549
C221	C	-0.600064	0.131252	0.630649
C222	C	-0.100064	0.631252	1.130649
C223	C	-0.629288	0.173297	0.604530
C224	C	-0.129288	0.673297	1.104530
C225	C	-0.629281	0.173300	0.552313
C226	C	-0.129281	0.673300	1.052313
C227	C	-0.512387	0.005111	0.552350
C228	C	-0.012387	0.505111	1.052350
C229	C	-0.512395	0.005112	0.604566
C230	C	-0.012395	0.505112	1.104566
C231	C	-0.541621	0.047159	0.630666
C232	C	-0.041621	0.547159	1.130666
H233	H	-0.332622	0.093100	-0.081957
H234	H	0.167378	0.593100	0.418043
H235	H	-0.567846	-0.698843	0.082154
H236	H	-0.067846	-0.198843	0.582154
H237	H	-0.040909	0.088750	0.127387
H238	H	0.459091	0.588750	0.627387
H239	H	0.282460	0.084012	0.082184
H240	H	0.782460	0.584012	0.582184
H241	H	-0.623824	0.165503	0.228930
H242	H	-0.123824	0.665503	0.728930
H243	H	-0.569200	-0.566739	0.082160
H244	H	-0.069200	-0.066739	0.582160
H245	H	-0.488588	-0.029131	0.531105
H246	H	0.011412	0.470869	1.031105
H247	H	-0.569251	-0.566710	-0.081935
H248	H	-0.069251	-0.066710	0.418065
H249	H	-0.424092	0.094448	-0.081958
H250	H	0.075908	0.594448	0.418042
O251	O	-0.196051	0.091097	-0.134316
O252	O	0.303949	0.591097	0.365684
C253	C	-0.162999	0.090593	-0.174234
C254	C	0.337001	0.590593	0.325766
H255	H	-0.125008	0.112176	-0.160982
H256	H	0.374992	0.612176	0.339018
H257	H	-0.174428	0.124718	-0.205863
H258	H	0.325572	0.624718	0.294137
H259	H	-0.162834	0.034478	-0.188135
H260	H	0.337166	0.534478	0.311865
O261	O	0.286341	0.083934	-0.089059
O262	O	0.786341	0.583934	0.410941
C263	C	0.253279	0.084439	-0.128972
C264	C	0.753279	0.584439	0.371028
H265	H	0.215292	0.062854	-0.115714
H266	H	0.715292	0.562854	0.384286
H267	H	0.264701	0.050316	-0.160599
H268	H	0.764701	0.550316	0.339401
H269	H	0.253110	0.140555	-0.142880
H270	H	0.753110	0.640555	0.357120
H271	H	0.190999	0.085361	-0.081921
H272	H	0.690999	0.585361	0.418079
O273	O	-0.513167	0.006255	0.233002
O274	O	-0.013167	0.506255	0.733002
C275	C	-0.487359	-0.030837	0.198764
C276	C	0.012641	0.469163	0.698764
H277	H	-0.507373	-0.035108	0.161536
H278	H	-0.007373	0.464892	0.661536
H279	H	-0.484483	-0.085715	0.213851
H280	H	0.015517	0.414285	0.713851
H281	H	-0.449355	-0.001683	0.193218
H282	H	0.050645	0.498317	0.693218
H283	H	-0.488584	-0.029146	0.469167
H284	H	0.011416	0.470854	0.969167
O285	O	-0.483943	-0.035768	0.370415
O286	O	0.016057	0.464232	0.870415
C287	C	-0.458165	-0.072894	0.404669
C288	C	0.041835	0.427106	0.904669
H289	H	-0.455286	-0.043960	0.441890
H290	H	0.044714	0.456040	0.941890
H291	H	-0.420163	-0.076839	0.389591
H292	H	0.079837	0.423161	0.889591
H293	H	-0.478199	-0.127904	0.410223
H294	H	0.021801	0.372096	0.910223
O295	O	-0.572239	-0.260530	0.089290
O296	O	-0.072239	0.239470	0.589290
C297	C	-0.530563	-0.234357	0.116796
C298	C	-0.030563	0.265643	0.616796
H299	H	-0.501520	-0.208484	0.090329
H300	H	-0.001520	0.291516	0.590329
H301	H	-0.516020	-0.279437	0.137305
H302	H	-0.016020	0.220563	0.637305
H303	H	-0.540447	-0.193986	0.144997
H304	H	-0.040447	0.306014	0.644997
O305	O	-0.096680	0.089679	0.134448
O306	O	0.403320	0.589679	0.634448
C307	C	-0.061918	0.149751	0.137162
C308	C	0.438082	0.649751	0.637162
H309	H	-0.052492	0.169810	0.097898
H310	H	0.447508	0.669810	0.597898
H311	H	-0.027728	0.135622	0.156308
H312	H	0.472272	0.635622	0.656308
H313	H	-0.077424	0.192395	0.159473
H314	H	0.422576	0.692395	0.659473
O315	O	-0.628504	0.172128	0.767244
O316	O	-0.128504	0.672128	1.267244
C317	C	-0.654286	0.209252	0.801484
C318	C	-0.154286	0.709252	1.301484
H319	H	-0.657168	0.180317	0.838709
H320	H	-0.157168	0.680317	1.338709
H321	H	-0.692287	0.213195	0.786396
H322	H	-0.192287	0.713195	1.286396
H323	H	-0.634254	0.264262	0.807035
H324	H	-0.134254	0.764262	1.307035
O325	O	-0.573852	-0.116966	0.089252
O326	O	-0.073852	0.383034	0.589252
C327	C	-0.616143	-0.083237	0.091976
C328	C	-0.116143	0.416763	0.591976
H329	H	-0.630221	-0.075115	0.052716
H330	H	-0.130221	0.424885	0.552716
H331	H	-0.607248	-0.030152	0.111114
H332	H	-0.107248	0.469848	0.611114
H333	H	-0.645157	-0.117170	0.114299
H334	H	-0.145157	0.382830	0.614299
H335	H	-0.567894	-0.698809	-0.081939
H336	H	-0.067894	-0.198809	0.418061
H337	H	-0.573789	-0.122730	-0.081918
H338	H	-0.073789	0.377270	0.418082
O339	O	-0.657698	0.214170	0.370376
O340	O	-0.157698	0.714170	0.870376
C341	C	-0.683484	0.251287	0.404618
C342	C	-0.183484	0.751287	0.904618
H343	H	-0.686362	0.222350	0.441843
H344	H	-0.186362	0.722350	0.941843
H345	H	-0.721485	0.255225	0.389532
H346	H	-0.221485	0.755225	0.889532
H347	H	-0.663455	0.306300	0.410171
H348	H	-0.163455	0.806300	0.910171
H349	H	-0.653077	0.207544	0.531054
H350	H	-0.153077	0.707544	1.031054
O351	O	0.054422	0.087341	-0.134301
O352	O	0.554422	0.587341	0.365699
C353	C	0.021356	0.087845	-0.174211
C354	C	0.521356	0.587845	0.325789
H355	H	-0.016631	0.066269	-0.160946
H356	H	0.483369	0.566269	0.339054
H357	H	0.032770	0.053713	-0.205836
H358	H	0.532770	0.553713	0.294164
H359	H	0.021190	0.143959	-0.188124
H360	H	0.521190	0.643959	0.311876
H361	H	-0.623804	0.165511	0.134205
H362	H	-0.123804	0.665511	0.634205
H363	H	-0.192159	0.090997	0.127370
H364	H	0.307841	0.590997	0.627370
H365	H	-0.040914	0.088781	-0.127158
H366	H	0.459086	0.588781	0.372842
H367	H	-0.424080	0.094447	0.082137
H368	H	0.075920	0.594447	0.582137
O369	O	-0.484075	-0.035782	0.629988
O370	O	0.015925	0.464218	1.129988
C371	C	-0.513658	-0.083742	0.660179
C372	C	-0.013658	0.416258	1.160179
H373	H	-0.549474	-0.062376	0.667997
H374	H	-0.049474	0.437624	1.167997
H375	H	-0.494248	-0.091331	0.696902
H376	H	0.005752	0.408669	1.196902
H377	H	-0.521174	-0.136298	0.640052
H378	H	-0.021174	0.363702	1.140052
H379	H	-0.653071	0.207545	0.469126
H380	H	-0.153071	0.707545	0.969126
O381	O	-0.328736	0.093059	0.089295
O382	O	0.171264	0.593059	0.589295
C383	C	-0.361804	0.093533	0.129201
C384	C	0.138196	0.593533	0.629201
H385	H	-0.395690	0.116177	0.115932
H386	H	0.104310	0.616177	0.615932
H387	H	-0.344098	0.127230	0.160829
H388	H	0.155902	0.627230	0.660829
H389	H	-0.372364	0.037577	0.143110
H390	H	0.127636	0.537577	0.643110
H391	H	0.050546	0.087402	0.127390
H392	H	0.550546	0.587402	0.627390
O393	O	-0.628457	0.172037	0.870189
O394	O	-0.128457	0.672037	1.370189
C395	C	-0.622181	0.163027	0.921878
C396	C	-0.122181	0.663027	1.421878
H397	H	-0.608508	0.110288	0.929010
H398	H	-0.108508	0.610288	1.429010
H399	H	-0.658406	0.164401	0.941722
H400	H	-0.158406	0.664401	1.441722
H401	H	-0.594554	0.207106	0.936698
H402	H	-0.094554	0.707106	1.436698
O403	O	0.187096	0.085383	0.089331
O404	O	0.687096	0.585383	0.589331
C405	C	0.220160	0.084914	0.129246
C406	C	0.720160	0.584914	0.629246
H407	H	0.254051	0.062281	0.115989
H408	H	0.754051	0.562281	0.615989
H409	H	0.202454	0.051210	0.160874
H410	H	0.702454	0.551210	0.660874
H411	H	0.230711	0.140870	0.143151
H412	H	0.730711	0.640870	0.643151
O413	O	-0.513147	0.006418	0.130076
O414	O	-0.013147	0.506418	0.630076
C415	C	-0.480062	0.049327	0.099879
C416	C	0.019938	0.549327	0.599879
H417	H	-0.494985	0.100987	0.092055
H418	H	0.005015	0.600987	0.592055
H419	H	-0.474746	0.021316	0.063158
H420	H	0.025254	0.521316	0.563158
H421	H	-0.443702	0.060376	0.120002
H422	H	0.056298	0.560376	0.620002
O423	O	-0.572385	-0.260448	-0.089071
O424	O	-0.072385	0.239552	0.410929
C425	C	-0.572864	-0.212691	-0.128986
C426	C	-0.072864	0.287309	0.371014
H427	H	-0.588705	-0.163855	-0.115732
H428	H	-0.088705	0.336145	0.384268
H429	H	-0.596105	-0.238427	-0.160619
H430	H	-0.096105	0.261573	0.339381
H431	H	-0.534172	-0.197173	-0.142884
H432	H	-0.034172	0.302827	0.357116
H433	H	-0.517825	0.012928	0.866033
H434	H	-0.017825	0.512928	1.366033
H435	H	-0.517823	0.012915	0.771309
H436	H	-0.017823	0.512915	1.271309
H437	H	-0.100705	0.089663	-0.127162
H438	H	0.399295	0.589663	0.372838
O439	O	-0.657735	0.214035	0.629910
O440	O	-0.157735	0.714035	1.129910
C441	C	-0.690800	0.171114	0.660122
C442	C	-0.190800	0.671114	1.160122
H443	H	-0.696107	0.115504	0.644383
H444	H	-0.196107	0.615504	1.144383
H445	H	-0.727163	0.193050	0.660713
H446	H	-0.227163	0.693050	1.160713
H447	H	-0.675866	0.170082	0.699698
H448	H	-0.175866	0.670082	1.199698
