data_functionalizedCrystal
_audit_creation_method	'MofGen! by Chris Wilmer'
_symmetry_space_group_name_H-M	'P1'
_symmetry_Int_Tables_number	1
_symmetry_cell_setting	triclinic
loop_
_symmetry_equiv_pos_as_xyz
  x,y,z
_cell_length_a	10.540535
_cell_length_b	14.044220
_cell_length_c	12.503572
_cell_angle_alpha	86.156832
_cell_angle_beta	86.445537
_cell_angle_gamma	91.143740
loop_
_atom_site_label
_atom_site_type_symbol
_atom_site_fract_x
_atom_site_fract_y
_atom_site_fract_z
O1	O	1.706109	-0.128223	-0.089341
O2	O	1.337969	-0.140823	-0.089340
O3	O	1.516513	0.003498	-0.089330
O4	O	1.527566	-0.272545	-0.089351
O5	O	1.503087	-0.007374	0.089311
O6	O	1.324544	-0.151695	0.089301
O7	O	1.692684	-0.139095	0.089300
Cu8	Cu	1.507388	-0.146388	0.105612
Cu9	Cu	1.523265	-0.133531	-0.105652
O10	O	1.514140	-0.283417	0.089290
C11	C	1.283858	-0.145315	-0.000019
C12	C	1.142624	-0.142491	-0.000018
C13	C	1.504962	0.033409	-0.000009
C14	C	1.490532	0.138732	-0.000008
C15	C	1.746795	-0.134603	-0.000023
C16	C	1.888030	-0.137427	-0.000031
C17	C	1.935354	-0.242799	-0.000037
C18	C	2.082224	-0.245796	0.000375
C19	C	2.084859	-0.095523	0.101794
C20	C	1.937861	-0.093286	0.101873
C21	C	1.953073	-0.079389	-0.101282
C22	C	2.100012	-0.084181	-0.102614
C23	C	1.525691	-0.313328	-0.000034
C24	C	1.540121	-0.418650	-0.000042
N25	N	1.496230	-0.155431	0.254203
C26	C	1.464153	0.331573	-0.000023
C27	C	1.566495	0.388515	-0.000027
C28	C	1.551817	0.495818	-0.000035
C29	C	1.478829	0.224260	-0.000014
N30	N	1.534432	-0.124481	-0.254244
C31	C	1.479817	-0.168741	0.473318
C32	C	1.550841	-0.111174	0.526649
C33	C	1.541709	-0.118579	0.648572
C34	C	1.488948	-0.161336	0.351384
H35	H	2.121243	-0.282927	-0.072598
H36	H	2.138186	-0.118283	-0.177937
C37	C	2.156593	0.018196	-0.111320
N38	N	2.199205	0.095311	-0.117867
C39	C	1.891587	-0.291466	-0.098658
N40	N	1.858614	-0.328121	-0.172943
H41	H	1.665143	0.356682	-0.000099
C42	C	1.330899	0.374582	-0.000008
N43	N	1.230532	0.406986	0.000011
C44	C	1.388409	-0.242830	0.535336
N45	N	1.319562	-0.298635	0.582060
H46	H	1.890442	-0.287023	0.072859
C47	C	2.118874	-0.307719	0.099551
N48	N	2.146477	-0.354357	0.174257
C49	C	1.880744	-0.148088	0.205066
N50	N	1.837729	-0.189373	0.282788
C51	C	1.642270	-0.037088	0.464630
N52	N	1.711138	0.018706	0.417913
H53	H	1.923117	-0.001803	-0.102264
H54	H	2.124264	-0.019692	0.105298
C55	C	2.123858	-0.151059	0.204541
N56	N	2.153227	-0.192895	0.281927
C57	C	1.895752	0.010712	0.107746
N58	N	1.864041	0.089041	0.112176
H59	H	1.919620	-0.107499	-0.178475
