data_functionalizedCrystal
_audit_creation_method	'MofGen! by Chris Wilmer'
_symmetry_space_group_name_H-M	'P1'
_symmetry_Int_Tables_number	1
_symmetry_cell_setting	triclinic
loop_
_symmetry_equiv_pos_as_xyz
  x,y,z
_cell_length_a	13.033291
_cell_length_b	12.594516
_cell_length_c	13.032268
_cell_angle_alpha	97.151307
_cell_angle_beta	89.079236
_cell_angle_gamma	97.181953
loop_
_atom_site_label
_atom_site_type_symbol
_atom_site_fract_x
_atom_site_fract_y
_atom_site_fract_z
Zn1	Zn	1.498494	-0.331139	-0.781497
Zn2	Zn	1.998494	0.168861	-0.281497
Zn3	Zn	1.520251	-0.484096	-0.609531
Zn4	Zn	2.020251	0.015904	-0.109531
Zn5	Zn	1.348353	-0.325519	-0.587672
Zn6	Zn	1.848353	0.174481	-0.087672
Zn7	Zn	1.326506	-0.528466	-0.759574
Zn8	Zn	1.826506	-0.028466	-0.259574
O9	O	1.423401	-0.417305	-0.684569
O10	O	1.923401	0.082695	-0.184569
O11	O	1.645297	-0.335212	-0.777008
O12	O	2.145297	0.164788	-0.277008
O13	O	1.515697	-0.442139	-0.462722
O14	O	2.015697	0.057861	0.037278
O15	O	1.368308	-0.177317	-0.613411
O16	O	1.868308	0.322683	-0.113411
O17	O	1.661282	-0.447589	-0.650666
O18	O	2.161282	0.052411	-0.150666
O19	O	1.478615	-0.181446	-0.755813
O20	O	1.978615	0.318554	-0.255813
O21	O	1.389405	-0.325633	-0.446663
O22	O	1.889405	0.174367	0.053337
O23	O	1.201538	-0.368657	-0.592153
O24	O	1.701538	0.131343	-0.092153
O25	O	1.331071	-0.523212	-0.906391
O26	O	1.831071	-0.023212	-0.406391
O27	O	1.185486	-0.517762	-0.718448
O28	O	1.685486	-0.017762	-0.218448
O29	O	1.457430	-0.378236	-0.922498
O30	O	1.957430	0.121764	-0.422498
O31	O	1.494512	-0.638929	-0.629408
O32	O	1.994512	-0.138929	-0.129408
O33	O	1.352168	-0.671528	-0.739643
O34	O	1.852168	-0.171528	-0.239643
C35	C	1.156196	-0.447415	-0.650550
C36	C	1.656196	0.052585	-0.150550
C37	C	1.041881	-0.460326	-0.636021
C38	C	1.541881	0.039674	-0.136021
C39	C	0.864847	-0.423929	-0.677144
C40	C	1.364847	0.076071	-0.177144
C41	C	0.982997	-0.410587	-0.692159
C42	C	1.482997	0.089413	-0.192159
C43	C	1.423355	-0.693849	-0.684545
C44	C	1.923355	-0.193849	-0.184545
C45	C	1.423426	-0.812150	-0.684581
C46	C	1.923426	-0.312150	-0.184581
C47	C	1.500917	-0.863635	-0.624707
C48	C	2.000917	-0.363635	-0.124707
C49	C	1.514123	-0.945179	-0.721765
C50	C	2.014123	-0.445179	-0.221765
C51	C	1.410341	-0.941399	-0.587599
C52	C	1.910341	-0.441399	-0.087599
C53	C	1.436673	-0.892136	-0.781694
C54	C	1.936673	-0.392136	-0.281694
C55	C	1.332856	-0.888347	-0.647459
C56	C	1.832856	-0.388347	-0.147459
C57	C	1.346018	-0.969872	-0.744577
C58	C	1.846018	-0.469872	-0.244577
C59	C	1.691649	-0.387078	-0.718721
C60	C	2.191649	0.112922	-0.218721
C61	C	1.805960	-0.374197	-0.733274
C62	C	2.305960	0.125803	-0.233274
C63	C	1.389387	-0.456300	-0.952802
C64	C	1.889387	0.043700	-0.452802
C65	C	1.374892	-0.472918	-1.067107
C66	C	1.874892	0.027082	-0.567107
C67	C	1.423471	-0.139681	-0.684619
C68	C	1.923471	0.360319	-0.184619
C69	C	1.423502	-0.021375	-0.684640
C70	C	1.923502	0.478625	-0.184640
C71	C	1.430950	-0.408596	-1.126038
C72	C	1.930950	0.091404	-0.626038
C73	C	1.415970	-0.425769	-1.244178
C74	C	1.915970	0.074231	-0.744178
C75	C	1.457342	-0.378378	-0.417386
C76	C	1.957342	0.121622	0.082614
C77	C	1.472035	-0.361438	-0.303107
C78	C	1.972035	0.138562	0.196893
H79	H	1.004832	-0.512784	-0.576844
H80	H	1.504832	-0.012784	-0.076844
H81	H	0.827792	-0.476377	-0.617967
H82	H	1.327792	0.023623	-0.117967
O83	O	1.615614	-0.978562	-0.763408
O84	O	2.115614	-0.478562	-0.263408
H85	H	1.679787	-0.935506	-0.713560
H86	H	2.179787	-0.435506	-0.213560
O87	O	1.032060	-0.341098	-0.770549
O88	O	1.532060	0.158902	-0.270549
H89	H	1.117159	-0.341529	-0.770047
H90	H	1.617159	0.158471	-0.270047
O91	O	1.337696	-0.515558	-1.293191
O92	O	1.837696	-0.015558	-0.793191
H93	H	1.298905	-0.560057	-1.232051
H94	H	1.798905	-0.060057	-0.732051
O95	O	1.550308	-0.271647	-1.254097
O96	O	2.050308	0.228353	-0.754097
H97	H	1.589088	-0.227140	-1.315237
H98	H	2.089088	0.272860	-0.815237
O99	O	1.296619	-0.562703	-1.116116
O100	O	1.796619	-0.062703	-0.616116
H101	H	1.336471	-0.618739	-1.170906
H102	H	1.836471	-0.118739	-0.670906
O103	O	0.855027	-0.304705	-0.811655
O104	O	1.355027	0.195295	-0.311655
H105	H	0.897351	-0.354533	-0.870082
H106	H	1.397351	0.145467	-0.370082
O107	O	1.587714	-0.802605	-0.557707
O108	O	2.087714	-0.302605	-0.057707
H109	H	1.662836	-0.825209	-0.588790
H110	H	2.162836	-0.325209	-0.088790
H111	H	1.447686	-0.870294	-0.863794
H112	H	1.947686	-0.370294	-0.363794
H113	H	1.490029	-0.340810	-1.089027
H114	H	1.990029	0.159190	-0.589027
H115	H	1.280510	-1.015752	-0.795303
H116	H	1.780510	-0.515752	-0.295303
H117	H	1.256258	-0.863120	-0.616005
H118	H	1.756258	-0.363120	-0.116005
O119	O	1.395620	-0.970530	-0.478927
O120	O	1.895620	-0.470530	0.021073
H121	H	1.460006	-0.927463	-0.429365
H122	H	1.960006	-0.427463	0.070635
