data_functionalizedCrystal
_audit_creation_method	'MofGen! by Chris Wilmer'
_symmetry_space_group_name_H-M	'P1'
_symmetry_Int_Tables_number	1
_symmetry_cell_setting	triclinic
loop_
_symmetry_equiv_pos_as_xyz
  x,y,z
_cell_length_a	6.817900
_cell_length_b	16.256208
_cell_length_c	16.256237
_cell_angle_alpha	95.342051
_cell_angle_beta	103.499434
_cell_angle_gamma	103.499088
loop_
_atom_site_label
_atom_site_type_symbol
_atom_site_fract_x
_atom_site_fract_y
_atom_site_fract_z
V1	V	-4.026870	-0.117749	-0.264172
O2	O	-4.014286	0.004984	-0.258833
O3	O	-3.978478	-0.232829	-0.262664
O4	O	-3.978475	-0.116234	-0.379250
O5	O	-4.014289	-0.112418	-0.141439
V6	V	-4.510496	-0.103034	-0.249456
O7	O	-4.287902	-0.150029	-0.296453
O8	O	-4.699662	-0.070755	-0.217175
O9	O	-4.335682	0.012046	-0.250964
O10	O	-4.640477	-0.225768	-0.254795
O11	O	-4.640474	-0.108365	-0.372189
O12	O	-4.335685	-0.104550	-0.134377
C13	C	-3.823480	-0.260874	-0.258573
C14	C	-3.865201	-0.354955	-0.258107
C15	C	-4.181092	-0.643059	-0.261099
C16	C	-4.024660	-0.573395	-0.189038
C17	C	-4.015225	-0.693588	-0.256393
C18	C	-4.097435	-0.595617	-0.329272
C19	C	-3.941524	-0.527207	-0.257237
C20	C	-3.859310	-0.625153	-0.184268
C21	C	-3.932147	-0.647391	-0.324566
C22	C	-3.775577	-0.577746	-0.252484
C23	C	-4.057687	-0.789436	-0.255907
C24	C	-3.899045	-0.431359	-0.257717
C25	C	-3.823476	-0.112144	-0.407290
C26	C	-3.865191	-0.111666	-0.501369
C27	C	-4.181091	-0.114672	-0.789476
C28	C	-4.097497	-0.182877	-0.742031
C29	C	-4.015230	-0.109977	-0.840006
C30	C	-4.024628	-0.042641	-0.719824
C31	C	-3.941520	-0.110806	-0.673623
C32	C	-3.932213	-0.178234	-0.793810
C33	C	-3.859340	-0.037936	-0.771598
C34	C	-3.775627	-0.106155	-0.724178
C35	C	-4.057698	-0.109501	-0.935855
C36	C	-3.899042	-0.111288	-0.577776
C37	C	-4.154022	0.040086	-0.255053
C38	C	-4.091539	0.134166	-0.255524
C39	C	-4.154026	-0.108642	-0.106333
C40	C	-4.091550	-0.109116	-0.012253
H41	H	-3.759042	-0.638460	-0.122923
O42	O	-3.885769	-0.246603	-0.832052
C43	C	-3.672898	-0.242275	-0.797972
H44	H	-3.582995	-0.173128	-0.769921
H45	H	-3.657097	-0.284040	-0.745485
C46	C	-3.693579	-0.359463	-0.903991
C47	C	-3.583155	-0.274534	-0.869545
H48	H	-3.638221	-0.379365	-0.948139
H49	H	-3.836996	-0.362381	-0.926950
H50	H	-3.680402	-0.394257	-0.860244
H51	H	-3.596355	-0.239740	-0.913289
H52	H	-3.439738	-0.271611	-0.846596
O53	O	-3.885780	-0.685741	-0.392892
C54	C	-3.673346	-0.651200	-0.388998
H55	H	-3.615254	-0.584830	-0.348586
H56	H	-3.577564	-0.694752	-0.358792
C57	C	-3.720504	-0.725809	-0.529774
C58	C	-3.649159	-0.644289	-0.480145
H59	H	-3.705580	-0.721549	-0.585998
H60	H	-3.863623	-0.749083	-0.532397
H61	H	-3.640677	-0.762094	-0.504593
H62	H	-3.729003	-0.608009	-0.505321
H63	H	-3.506052	-0.621009	-0.477529
O64	O	-4.070580	-0.534816	-0.120707
C65	C	-4.028569	-0.445830	-0.121696
H66	H	-3.909701	-0.426304	-0.160073
H67	H	-4.179370	-0.428995	-0.152548
C68	C	-4.085534	-0.421726	0.017874
C69	C	-3.939526	-0.397742	-0.029255
H70	H	-4.030617	-0.392062	0.074896
H71	H	-4.113847	-0.481677	0.018540
H72	H	-4.211191	-0.407696	-0.007845
H73	H	-3.813883	-0.411782	-0.003541
H74	H	-3.911190	-0.337792	-0.029914
H75	H	-3.603792	-0.102577	-0.695812
O76	O	-4.385954	-0.677231	-0.265370
C77	C	-4.423179	-0.766301	-0.265598
H78	H	-4.298616	-0.790099	-0.289401
H79	H	-4.416889	-0.780596	-0.197832
C80	C	-4.793594	-0.782908	-0.296001
C81	C	-4.640613	-0.812138	-0.325243
H82	H	-4.927720	-0.811183	-0.332789
H83	H	-4.768516	-0.722900	-0.295845
H84	H	-4.788325	-0.794822	-0.239529
H85	H	-4.645866	-0.800214	-0.381709
H86	H	-4.665697	-0.872146	-0.325410
H87	H	-3.603700	-0.549367	-0.248824
O88	O	-4.385978	-0.118908	-0.823542
C89	C	-4.401633	-0.045399	-0.861573
H90	H	-4.254143	0.008636	-0.831562
H91	H	-4.419937	-0.060594	-0.933286
C92	C	-4.774390	-0.083934	-0.883643
C93	C	-4.593248	-0.017565	-0.846778
H94	H	-4.892592	-0.066766	-0.874521
H95	H	-4.763846	-0.133461	-0.858024
H96	H	-4.789615	-0.096590	-0.943401
H97	H	-4.578012	-0.004917	-0.787020
H98	H	-4.603794	0.031965	-0.872387
H99	H	-4.197741	-0.244162	-0.728603
O100	O	-4.216958	-0.579454	-0.402321
C101	C	-4.174260	-0.490279	-0.402128
H102	H	-4.107577	-0.455514	-0.333404
H103	H	-4.055782	-0.470244	-0.440564
C104	C	-4.459644	-0.509597	-0.527238
C105	C	-4.377759	-0.466897	-0.442829
H106	H	-4.585168	-0.495173	-0.552348
H107	H	-4.488407	-0.569676	-0.527371
H108	H	-4.360893	-0.492896	-0.559257
H109	H	-4.476499	-0.483606	-0.410809
H110	H	-4.349017	-0.406820	-0.442692
O111	O	-3.740068	0.035255	-0.787601
C112	C	-3.789868	0.106567	-0.749662
H113	H	-3.953928	0.085913	-0.740378
H114	H	-3.672434	0.133669	-0.684871
C115	C	-3.579783	0.201122	-0.819685
C116	C	-3.781292	0.175756	-0.808289
H117	H	-3.574484	0.243803	-0.855845
H118	H	-3.546224	0.153079	-0.845242
H119	H	-3.481943	0.223702	-0.765688
H120	H	-3.879124	0.153167	-0.862283
H121	H	-3.814867	0.223797	-0.782741
H122	H	-4.063331	0.014651	-0.687620
