data_functionalizedCrystal
_audit_creation_method	'MofGen! by Chris Wilmer'
_symmetry_space_group_name_H-M	'P1'
_symmetry_Int_Tables_number	1
_symmetry_cell_setting	triclinic
loop_
_symmetry_equiv_pos_as_xyz
  x,y,z
_cell_length_a	19.805407
_cell_length_b	18.050589
_cell_length_c	19.805399
_cell_angle_alpha	89.977706
_cell_angle_beta	89.980427
_cell_angle_gamma	90.028221
loop_
_atom_site_label
_atom_site_type_symbol
_atom_site_fract_x
_atom_site_fract_y
_atom_site_fract_z
Zn1	Zn	1.034727	-0.295677	-0.382745
Zn2	Zn	1.534727	0.204323	0.117255
Zn3	Zn	1.034638	-0.419869	-0.269567
Zn4	Zn	1.534638	0.080131	0.230433
Zn5	Zn	0.921542	-0.295697	-0.269569
Zn6	Zn	1.421542	0.204303	0.230431
Zn7	Zn	0.921502	-0.419829	-0.382713
Zn8	Zn	1.421502	0.080171	0.117287
O9	O	0.978102	-0.357768	-0.326148
O10	O	1.478102	0.142232	0.173852
O11	O	1.129432	-0.312159	-0.367743
O12	O	1.629432	0.187841	0.132257
O13	O	1.019616	-0.403422	-0.174850
O14	O	1.519616	0.096578	0.325150
O15	O	0.936610	-0.191770	-0.284596
O16	O	1.436610	0.308230	0.215404
O17	O	1.129367	-0.403402	-0.284592
O18	O	1.629367	0.096598	0.215408
O19	O	1.019767	-0.191755	-0.367746
O20	O	1.519767	0.308245	0.132254
O21	O	0.936524	-0.312194	-0.174852
O22	O	1.436524	0.187806	0.325148
O23	O	0.826820	-0.312156	-0.284566
O24	O	1.326820	0.187844	0.215434
O25	O	0.936542	-0.403335	-0.477434
O26	O	1.436542	0.096665	0.022566
O27	O	0.826791	-0.403355	-0.367693
O28	O	1.326791	0.096645	0.132307
O29	O	1.019728	-0.312121	-0.477457
O30	O	1.519728	0.187879	0.022543
O31	O	1.019577	-0.523788	-0.284562
O32	O	1.519577	-0.023788	0.215438
O33	O	0.936456	-0.523759	-0.367690
O34	O	1.436456	-0.023759	0.132310
C35	C	0.802246	-0.357754	-0.326127
C36	C	1.302246	0.142246	0.173873
C37	C	0.727014	-0.357766	-0.326133
C38	C	1.227014	0.142234	0.173867
C39	C	0.691673	-0.405325	-0.369347
C40	C	1.191673	0.094675	0.130653
C41	C	0.620984	-0.405326	-0.369357
C42	C	1.120984	0.094674	0.130643
C43	C	0.585639	-0.357771	-0.326148
C44	C	1.085639	0.142229	0.173852
C45	C	0.620985	-0.310207	-0.282933
C46	C	1.120985	0.189793	0.217067
C47	C	0.691673	-0.310203	-0.282927
C48	C	1.191673	0.189797	0.217073
C49	C	0.335912	-0.310224	-0.282955
C50	C	0.835912	0.189776	0.217045
C51	C	0.265220	-0.310233	-0.282962
C52	C	0.765220	0.189767	0.217038
C53	C	0.265224	-0.405347	-0.369385
C54	C	0.765224	0.094653	0.130615
C55	C	0.335911	-0.405342	-0.369379
C56	C	0.835911	0.094658	0.130621
C57	C	0.371251	-0.357776	-0.326166
C58	C	0.871251	0.142224	0.173834
C59	C	0.447900	-0.357774	-0.326157
C60	C	0.947900	0.142226	0.173843
C61	C	0.508992	-0.357776	-0.326153
C62	C	1.008992	0.142224	0.173847
C63	C	0.978021	-0.550720	-0.326137
C64	C	1.478021	-0.050720	0.173863
C65	C	0.978048	-0.633266	-0.326155
C66	C	1.478048	-0.133266	0.173845
C67	C	0.932891	-0.832728	-0.371344
C68	C	1.432891	-0.332728	0.128656
C69	C	0.916392	-0.882167	-0.309581
C70	C	1.416392	-0.382167	0.190419
C71	C	0.978114	-0.784396	-0.326164
C72	C	1.478114	-0.284396	0.173836
C73	C	0.994646	-0.882039	-0.387934
C74	C	1.494646	-0.382039	0.112066
C75	C	0.978177	-0.930381	-0.326178
C76	C	1.478177	-0.430381	0.173822
C77	C	0.961583	-0.832748	-0.264368
C78	C	1.461583	-0.332748	0.235632
C79	C	1.039865	-0.832616	-0.342762
C80	C	1.539865	-0.332616	0.157238
C81	C	1.023390	-0.882033	-0.280957
C82	C	1.523390	-0.382033	0.219043
C83	C	0.978076	-0.700298	-0.326157
C84	C	1.478076	-0.200298	0.173843
C85	C	0.978215	-1.014478	-0.326178
C86	C	1.478215	-0.514478	0.173822
C87	C	1.154645	-0.357783	-0.326171
C88	C	1.654645	0.142217	0.173829
C89	C	1.229877	-0.357789	-0.326180
C90	C	1.729877	0.142211	0.173820
C91	C	0.978140	-0.357721	-0.502691
C92	C	1.478140	0.142279	-0.002691
C93	C	0.978156	-0.357701	-0.577923
C94	C	1.478156	0.142299	-0.077923
C95	C	0.978203	-0.164062	-0.326175
C96	C	1.478203	0.335938	0.173825
C97	C	0.978246	-0.081517	-0.326186
C98	C	1.478246	0.418483	0.173814
C99	C	1.021472	-0.310204	-0.613280
C100	C	1.521472	0.189796	-0.113280
C101	C	1.021479	-0.310182	-0.683969
C102	C	1.521479	0.189818	-0.183969
C103	C	0.978173	-0.357662	-0.719299
C104	C	1.478173	0.142338	-0.219299
C105	C	0.934852	-0.405162	-0.683937
C106	C	1.434852	0.094838	-0.183937
C107	C	0.934843	-0.405180	-0.613250
C108	C	1.434843	0.094820	-0.113250
C109	C	0.934891	-0.405093	-0.969010
C110	C	1.434891	0.094907	-0.469010
C111	C	0.934905	-0.405074	-1.039702
C112	C	1.434905	0.094926	-0.539702
C113	C	1.021527	-0.310096	-1.039729
C114	C	1.521527	0.189904	-0.539729
C115	C	1.021518	-0.310113	-0.969042
C116	C	1.521518	0.189887	-0.469042
C117	C	0.978195	-0.357609	-0.933686
C118	C	1.478195	0.142391	-0.433686
C119	C	0.978187	-0.357631	-0.857038
C120	C	1.478187	0.142369	-0.357038
C121	C	0.978184	-0.357645	-0.795946
C122	C	1.478184	0.142355	-0.295946
C123	C	0.978103	-0.357761	-0.150292
C124	C	1.478103	0.142239	0.349708
C125	C	0.978218	-0.357572	-0.075061
C126	C	1.478218	0.142428	0.424939
H127	H	0.236444	-0.271504	-0.247777
H128	H	0.736444	0.228496	0.252223
C129	C	0.582111	-0.457686	-0.416851
C130	C	1.082111	0.042314	0.083149
H131	H	0.613285	-0.486027	-0.442565
H132	H	1.113285	0.013973	0.057435
H133	H	0.554540	-0.429366	-0.446404
H134	H	1.054540	0.070634	0.053596
H135	H	0.554533	-0.489995	-0.390869
H136	H	1.054533	0.010005	0.109131
H137	H	0.899563	-0.443850	-0.584463
H138	H	1.399563	0.056150	-0.084463
C139	C	0.730552	-0.257889	-0.235393
C140	C	1.230552	0.242111	0.264607
H141	H	0.777712	-0.264692	-0.241582
H142	H	1.277712	0.235308	0.258418
H143	H	0.718946	-0.268689	-0.189899
H144	H	1.218946	0.231311	0.310101
H145	H	0.718989	-0.208004	-0.245384
H146	H	1.218989	0.291996	0.254616
H147	H	0.864201	-0.903948	-0.295555
H148	H	1.364201	-0.403948	0.204445
H149	H	1.061661	-0.903545	-0.242711
H150	H	1.561661	-0.403545	0.257289
H151	H	0.364686	-0.444069	-0.404562
H152	H	0.864686	0.055931	0.095438
C153	C	1.110353	-0.803186	-0.361747
C154	C	1.610353	-0.303186	0.138253
H155	H	1.127683	-0.774238	-0.325637
H156	H	1.627683	-0.274238	0.174363
H157	H	1.107089	-0.773464	-0.401201
H158	H	1.607089	-0.273464	0.098799
H159	H	1.139781	-0.843706	-0.370107
H160	H	1.639781	-0.343706	0.129893
H161	H	1.056784	-0.271452	-0.940280
H162	H	1.556784	0.228548	-0.440280
C163	C	0.942639	-0.803625	-0.193788
C164	C	1.442639	-0.303625	0.306212
H165	H	0.942708	-0.750995	-0.194221
H166	H	1.442708	-0.250995	0.305779
H167	H	0.974582	-0.820900	-0.161672
H168	H	1.474582	-0.320900	0.338328
H169	H	0.898928	-0.821005	-0.181937
H170	H	1.398928	-0.321005	0.318063
H171	H	1.008603	-0.903691	-0.440167
H172	H	1.508603	-0.403691	0.059833
C173	C	1.069107	-0.257971	-0.574423
C174	C	1.569107	0.242029	-0.074423
H175	H	1.094899	-0.229674	-0.605608
H176	H	1.594899	0.270326	-0.105608
H177	H	1.098581	-0.286383	-0.546848
H178	H	1.598581	0.213617	-0.046848
H179	H	1.043221	-0.225615	-0.546851
H180	H	1.543221	0.274385	-0.046851
H181	H	1.056801	-0.271419	-1.068525
H182	H	1.556801	0.228581	-0.568525
H183	H	0.236441	-0.444075	-0.404574
H184	H	0.736441	0.055925	0.095426
H185	H	1.056753	-0.271506	-0.712754
H186	H	1.556753	0.228494	-0.212754
H187	H	0.899637	-0.443740	-1.068466
H188	H	1.399637	0.056260	-0.568466
H189	H	0.899624	-0.443779	-0.940232
H190	H	1.399624	0.056221	-0.440232
C191	C	0.582107	-0.257901	-0.235402
C192	C	1.082107	0.242099	0.264598
H193	H	0.534947	-0.264720	-0.241588
H194	H	1.034947	0.235280	0.258412
H195	H	0.593713	-0.208015	-0.245381
H196	H	1.093713	0.291985	0.254619
H197	H	0.593671	-0.268710	-0.189906
H198	H	1.093671	0.231290	0.310094
C199	C	0.881155	-0.803473	-0.422884
C200	C	1.381155	-0.303473	0.077116
H201	H	0.837322	-0.820442	-0.410982
H202	H	1.337322	-0.320442	0.089018
H203	H	0.892445	-0.821074	-0.466648
H204	H	1.392445	-0.321074	0.033352
H205	H	0.881772	-0.750847	-0.422806
H206	H	1.381772	-0.250847	0.077194
C207	C	0.730549	-0.457639	-0.416871
C208	C	1.230549	0.042361	0.083129
H209	H	0.777710	-0.450832	-0.410675
H210	H	1.277710	0.049168	0.089325
H211	H	0.718990	-0.446841	-0.462367
H212	H	1.218990	0.053159	0.037633
H213	H	0.718938	-0.507525	-0.406881
H214	H	1.218938	-0.007525	0.093119
C215	C	0.887215	-0.457391	-0.722795
C216	C	1.387215	0.042609	-0.222795
H217	H	0.861412	-0.485677	-0.691611
H218	H	1.361412	0.014323	-0.191611
H219	H	0.913094	-0.489745	-0.750370
H220	H	1.413094	0.010255	-0.250370
H221	H	0.857740	-0.428969	-0.750368
H222	H	1.357740	0.071031	-0.250368
C223	C	0.374778	-0.257916	-0.235411
C224	C	0.874778	0.242084	0.264589
H225	H	0.343602	-0.229604	-0.209672
H226	H	0.843602	0.270396	0.290328
H227	H	0.402380	-0.225588	-0.261341
H228	H	0.902380	0.274412	0.238659
H229	H	0.402325	-0.286291	-0.205873
H230	H	0.902325	0.213709	0.294127
