data_functionalizedCrystal
_audit_creation_method	'MofGen! by Chris Wilmer'
_symmetry_space_group_name_H-M	'P1'
_symmetry_Int_Tables_number	1
_symmetry_cell_setting	triclinic
loop_
_symmetry_equiv_pos_as_xyz
  x,y,z
_cell_length_a	14.853567
_cell_length_b	17.699083
_cell_length_c	16.176319
_cell_angle_alpha	90.001389
_cell_angle_beta	90.003003
_cell_angle_gamma	83.458972
loop_
_atom_site_label
_atom_site_type_symbol
_atom_site_fract_x
_atom_site_fract_y
_atom_site_fract_z
O1	O	-0.114008	-1.004375	-0.068624
O2	O	0.385992	-0.504375	0.431376
O3	O	-0.128841	-0.784035	-0.068650
O4	O	0.371159	-0.284035	0.431350
O5	O	0.009827	-0.900090	-0.068639
O6	O	0.509827	-0.400090	0.431361
O7	O	-0.252676	-0.888319	-0.068635
O8	O	0.247324	-0.388319	0.431365
O9	O	0.009836	-0.900074	0.068855
O10	O	0.509836	-0.400074	0.568855
O11	O	-0.128832	-0.784019	0.068843
O12	O	0.371168	-0.284019	0.568843
O13	O	-0.113999	-1.004359	0.068869
O14	O	0.386001	-0.504359	0.568869
Cu15	Cu	-0.121415	-0.894187	0.081411
Cu16	Cu	0.378585	-0.394187	0.581411
Cu17	Cu	-0.121425	-0.894206	-0.081191
Cu18	Cu	0.378575	-0.394206	0.418809
O19	O	-0.252667	-0.888303	0.068858
O20	O	0.247333	-0.388303	0.568858
C21	C	-0.128305	-0.755828	0.000093
C22	C	0.371695	-0.255828	0.500093
C23	C	-0.126711	-0.671806	0.000083
C24	C	0.373289	-0.171806	0.500083
C25	C	0.043418	-0.899549	0.000106
C26	C	0.543418	-0.399549	0.500106
C27	C	0.143496	-0.897951	0.000098
C28	C	0.643496	-0.397951	0.500098
C29	C	-0.286258	-0.888844	0.000112
C30	C	0.213742	-0.388844	0.500112
C31	C	-0.386336	-0.890443	0.000114
C32	C	0.113664	-0.390443	0.500114
C33	C	0.555751	-0.822255	0.000105
C34	C	1.055751	-0.322255	0.500105
C35	C	0.577539	-0.960131	0.000121
C36	C	1.077539	-0.460131	0.500121
C37	C	0.483511	-0.961634	0.000117
C38	C	0.983511	-0.461634	0.500117
C39	C	0.425598	-0.893446	0.000107
C40	C	0.925598	-0.393446	0.500107
C41	C	0.461714	-0.823756	0.000103
C42	C	0.961714	-0.323756	0.500103
C43	C	0.447389	-1.031324	0.000129
C44	C	0.947389	-0.531324	0.500129
C45	C	0.353355	-1.032829	0.000126
C46	C	0.853355	-0.532829	0.500126
C47	C	0.295441	-0.964641	0.000111
C48	C	0.795441	-0.464641	0.500111
C49	C	0.331561	-0.894947	0.000105
C50	C	0.831561	-0.394947	0.500105
C51	C	0.273648	-0.826759	0.000096
C52	C	0.773648	-0.326759	0.500096
C53	C	0.309767	-0.757065	0.000084
C54	C	0.809767	-0.257065	0.500084
C55	C	0.403799	-0.755567	0.000088
C56	C	0.903799	-0.255567	0.500088
C57	C	0.201409	-0.966139	0.000107
C58	C	0.701409	-0.466139	0.500107
C59	C	0.179611	-0.828260	0.000094
C60	C	0.679611	-0.328260	0.500094
C61	C	-0.114535	-1.032565	0.000125
C62	C	0.385465	-0.532565	0.500125
C63	C	-0.116130	-1.116587	0.000129
C64	C	0.383870	-0.616587	0.500129
N65	N	-0.121407	-0.894179	0.195776
N66	N	0.378593	-0.394179	0.695776
C67	C	-0.208106	-0.623396	0.000084
C68	C	0.291894	-0.123396	0.500084
C69	C	-0.206602	-0.544449	0.000095
C70	C	0.293398	-0.044449	0.500095
C71	C	-0.123703	-0.513913	0.000098
C72	C	0.376297	-0.013913	0.500098
C73	C	-0.042301	-0.562329	0.000099
C74	C	0.457699	-0.062329	0.500099
C75	C	-0.043806	-0.641275	0.000095
C76	C	0.456194	-0.141275	0.500095
C77	C	-0.036232	-0.243950	0.000120
C78	C	0.463768	0.256050	0.500120
C79	C	-0.034734	-0.164999	0.000122
C80	C	0.465266	0.335001	0.500122
C81	C	-0.199028	-0.147125	0.000120
C82	C	0.300972	0.352875	0.500120
C83	C	-0.200533	-0.226070	0.000115
C84	C	0.299467	0.273930	0.500115
C85	C	-0.119132	-0.274479	0.000121
C86	C	0.380868	0.225521	0.500121
C87	C	-0.120763	-0.360083	0.000111
C88	C	0.379237	0.139917	0.500111
C89	C	-0.122070	-0.428311	0.000102
C90	C	0.377930	0.071689	0.500102
N91	N	-0.121426	-0.894220	-0.195556
N92	N	0.378574	-0.394220	0.304444
C93	C	-0.060030	-0.945584	0.239045
C94	C	0.439970	-0.445584	0.739045
C95	C	-0.060029	-0.945588	0.325592
C96	C	0.439971	-0.445588	0.825592
C97	C	-0.121410	-0.894190	0.368868
C98	C	0.378590	-0.394190	0.868868
C99	C	-0.182790	-0.842780	0.325593
C100	C	0.317210	-0.342780	0.825593
C101	C	-0.182786	-0.842773	0.239048
C102	C	0.317214	-0.342773	0.739048
C103	C	-0.182807	-0.842806	0.674621
C104	C	0.317193	-0.342806	1.174621
C105	C	-0.182808	-0.842818	0.761173
C106	C	0.317192	-0.342818	1.261173
C107	C	-0.060050	-0.945621	0.761166
C108	C	0.439950	-0.445621	1.261166
C109	C	-0.060046	-0.945614	0.674620
C110	C	0.439954	-0.445614	1.174620
C111	C	-0.121422	-0.894201	0.631353
C112	C	0.378578	-0.394201	1.131353
C113	C	-0.121422	-0.894197	0.537508
C114	C	0.378578	-0.394197	1.037508
C115	C	-0.121416	-0.894198	0.462711
C116	C	0.378584	-0.394198	0.962711
H117	H	0.262602	-0.701546	0.000083
H118	H	0.762602	-0.201546	0.500083
H119	H	0.323956	-1.089579	0.000134
H120	H	0.823956	-0.589579	0.500134
H121	H	0.433216	-0.698825	0.000079
H122	H	0.933216	-0.198825	0.500079
O123	O	-0.248985	-0.787318	0.192386
O124	O	0.251015	-0.287318	0.692386
H125	H	-0.211077	-0.750490	0.152979
H126	H	0.288923	-0.250490	0.652979
H127	H	0.172005	-1.022883	0.000122
H128	H	0.672005	-0.522883	0.500122
H129	H	-0.010071	-0.987482	0.796404
H130	H	0.489929	-0.487482	1.296404
H131	H	-0.232783	-0.800945	0.639400
H132	H	0.267217	-0.300945	1.139400
O133	O	0.006190	-1.001006	0.192366
O134	O	0.506190	-0.501006	0.692366
H135	H	-0.031688	-1.037832	0.152924
H136	H	0.468312	-0.537832	0.652924
O137	O	-0.286830	-0.094912	0.000122
O138	O	0.213170	0.405088	0.500122
H139	H	-0.326511	-0.105789	0.056156
H140	H	0.173489	0.394211	0.556156
H141	H	-0.275612	-0.648252	0.000081
H142	H	0.224388	-0.148252	0.500081
O143	O	0.006153	-1.001045	0.372264
O144	O	0.506153	-0.501045	0.872264
H145	H	0.048823	-1.036795	0.327632
H146	H	0.548823	-0.536795	0.827632
O147	O	0.509854	-1.104863	0.000149
O148	O	1.009854	-0.604863	0.500149
H149	H	0.497031	-1.138224	-0.055880
H150	H	0.997031	-0.638224	0.444120
O151	O	-0.294392	-0.492233	0.000097
O152	O	0.205608	0.007767	0.500097
H153	H	-0.352289	-0.526729	0.000084
H154	H	0.147711	-0.026729	0.500084
O155	O	0.594697	-0.747085	0.000102
O156	O	1.094697	-0.247085	0.500102
H157	H	0.669813	-0.757492	0.000112
H158	H	1.169813	-0.257492	0.500112
O159	O	0.639995	-1.033675	0.000139
O160	O	1.139995	-0.533675	0.500139
H161	H	0.711449	-1.020924	0.000139
H162	H	1.211449	-0.520924	0.500139
H163	H	0.022475	-0.680690	0.000093
H164	H	0.522475	-0.180690	0.500093
O165	O	-0.289945	-0.259008	0.000124
O166	O	0.210055	0.240992	0.500124
H167	H	-0.346293	-0.212082	0.000138
H168	H	0.153707	0.287918	0.500138
H169	H	0.032777	-0.140140	0.000126
H170	H	0.532777	0.359860	0.500126
H171	H	-0.010067	-0.987470	0.639387
H172	H	0.489933	-0.487470	1.139387
O173	O	0.051560	-0.296159	0.000125
O174	O	0.551560	0.203841	0.500125
H175	H	0.109454	-0.261659	0.000121
H176	H	0.609454	0.238341	0.500121
O177	O	-0.249001	-0.787344	0.372263
O178	O	0.250999	-0.287344	0.872263
H179	H	-0.238702	-0.795990	0.439714
H180	H	0.261298	-0.295990	0.939714
H181	H	0.132463	-0.772732	0.000082
H182	H	0.632463	-0.272732	0.500082
O183	O	0.047116	-0.529400	0.000106
O184	O	0.547116	-0.029400	0.500106
H185	H	0.034489	-0.466371	0.000102
H186	H	0.534489	0.033629	0.500102
O187	O	-0.249028	-0.787391	0.807855
O188	O	0.250972	-0.287391	1.307855
H189	H	-0.291708	-0.751639	0.763229
H190	H	0.208292	-0.251639	1.263229
