data_functionalizedCrystal
_audit_creation_method	'MofGen! by Chris Wilmer'
_symmetry_space_group_name_H-M	'P1'
_symmetry_Int_Tables_number	1
_symmetry_cell_setting	triclinic
loop_
_symmetry_equiv_pos_as_xyz
  x,y,z
_cell_length_a	14.519709
_cell_length_b	15.995350
_cell_length_c	13.596369
_cell_angle_alpha	89.996243
_cell_angle_beta	90.000291
_cell_angle_gamma	83.586260
loop_
_atom_site_label
_atom_site_type_symbol
_atom_site_fract_x
_atom_site_fract_y
_atom_site_fract_z
O1	O	1.223669	0.109760	-0.081658
O2	O	1.723669	0.609760	0.418342
O3	O	0.955169	0.122685	-0.081688
O4	O	1.455169	0.622685	0.418312
O5	O	1.096759	-0.005654	-0.081671
O6	O	1.596759	0.494346	0.418329
O7	O	1.082079	0.238099	-0.081675
O8	O	1.582079	0.738099	0.418325
O9	O	1.096744	-0.005661	0.081912
O10	O	1.596744	0.494339	0.581912
O11	O	0.955155	0.122679	0.081895
O12	O	1.455155	0.622679	0.581895
O13	O	1.223655	0.109753	0.081925
O14	O	1.723655	0.609753	0.581925
Zn15	Zn	1.089403	0.116215	0.107882
Zn16	Zn	1.589403	0.616215	0.607882
Zn17	Zn	1.089421	0.116224	-0.107645
Zn18	Zn	1.589421	0.616224	0.392355
O19	O	1.082065	0.238093	0.081908
O20	O	1.582065	0.738093	0.581908
C21	C	0.920803	0.122080	0.000100
C22	C	1.420803	0.622080	0.500100
C23	C	0.818425	0.120275	0.000088
C24	C	1.318425	0.620275	0.500088
C25	C	0.443541	0.113629	0.000133
C26	C	0.943541	0.613629	0.500133
C27	C	0.547846	0.115475	0.000120
C28	C	1.047846	0.615475	0.500120
C29	C	0.630980	0.116952	0.000110
C30	C	1.130980	0.616952	0.500110
C31	C	0.735291	0.118797	0.000099
C32	C	1.235291	0.618797	0.500099
C33	C	1.096145	-0.036853	0.000118
C34	C	1.596145	0.463147	0.500118
C35	C	1.094325	-0.129806	0.000112
C36	C	1.594325	0.370194	0.500112
C37	C	1.087791	-0.467563	0.000115
C38	C	1.587791	0.032437	0.500115
C39	C	0.986954	-0.420280	-0.000263
C40	C	1.486954	0.079720	0.499737
C41	C	0.988773	-0.323587	0.000106
C42	C	1.488773	0.176413	0.500106
C43	C	1.091032	-0.299998	0.000113
C44	C	1.591032	0.200002	0.500113
C45	C	1.140761	-0.341005	0.093531
C46	C	1.640761	0.158995	0.593531
C47	C	1.138228	-0.437644	0.093609
C48	C	1.638228	0.062356	0.593609
C49	C	1.140327	-0.437992	-0.092415
C50	C	1.640327	0.062008	0.407585
C51	C	1.140303	-0.341046	-0.093650
C52	C	1.640303	0.158954	0.406350
C53	C	1.092869	-0.205298	0.000115
C54	C	1.592869	0.294702	0.500115
C55	C	1.085957	-0.562264	0.000119
C56	C	1.585957	-0.062264	0.500119
C57	C	1.258021	0.110359	0.000135
C58	C	1.758021	0.610359	0.500135
C59	C	1.360399	0.112164	0.000140
C60	C	1.860399	0.612164	0.500140
C61	C	1.082679	0.269292	0.000116
C62	C	1.582679	0.769292	0.500116
C63	C	1.084498	0.362245	0.000116
C64	C	1.584498	0.862245	0.500116
N65	N	1.089397	0.116208	0.254974
N66	N	1.589397	0.616208	0.754974
N67	N	1.089434	0.116224	-0.254737
N68	N	1.589434	0.616224	0.245263
C69	C	1.089420	0.116225	0.656265
C70	C	1.589420	0.616225	1.156265
C71	C	1.089411	0.116223	0.544614
C72	C	1.589411	0.616223	1.044614
C73	C	1.089409	0.116217	0.455623
C74	C	1.589409	0.616217	0.955623
C75	C	1.089399	0.116214	0.343965
C76	C	1.589399	0.616214	0.843965
H77	H	0.946656	-0.438870	-0.067255
H78	H	1.446656	0.061130	0.432745
H79	H	1.212261	-0.469782	0.097852
H80	H	1.712261	0.030218	0.597852
H81	H	1.107364	-0.458578	-0.163220
H82	H	1.607364	0.041422	0.336780
H83	H	1.214674	-0.469641	-0.093038
H84	H	1.714674	0.030359	0.406962
H85	H	0.949409	-0.295784	0.067177
H86	H	1.449409	0.204216	0.567177
H87	H	1.215888	-0.326767	0.097010
H88	H	1.715888	0.173233	0.597010
H89	H	0.949683	-0.295221	-0.066860
H90	H	1.449683	0.204779	0.433140
O91	O	1.099410	-0.307301	0.176435
O92	O	1.599410	0.192699	0.676435
C93	C	1.005554	-0.322300	0.177495
C94	C	1.505554	0.177700	0.677495
H95	H	0.996136	-0.378920	0.129104
H96	H	1.496136	0.121080	0.629104
H97	H	0.960764	-0.264589	0.148185
H98	H	1.460764	0.235411	0.648185
C99	C	0.987825	-0.270614	0.343050
C100	C	1.487825	0.229386	0.843050
C101	C	0.976259	-0.340161	0.283621
C102	C	1.476259	0.159839	0.783621
H103	H	0.969753	-0.281628	0.408513
H104	H	1.469753	0.218372	0.908513
H105	H	1.051057	-0.260506	0.342335
H106	H	1.551057	0.239494	0.842335
H107	H	0.950499	-0.222528	0.318613
H108	H	1.450499	0.277472	0.818613
H109	H	1.013594	-0.388242	0.308051
H110	H	1.513594	0.111758	0.808051
H111	H	0.913033	-0.350278	0.284343
H112	H	1.413033	0.149722	0.784343
H113	H	0.946823	-0.439937	0.066347
H114	H	1.446823	0.060063	0.566347
O115	O	1.094849	-0.459639	0.176804
O116	O	1.594849	0.040361	0.676804
C117	C	1.015814	-0.498703	0.151290
C118	C	1.515814	0.001297	0.651290
H119	H	1.024509	-0.525578	0.073770
H120	H	1.524509	-0.025578	0.573770
H121	H	0.951860	-0.450430	0.154044
H122	H	1.451860	0.049570	0.654044
C123	C	0.993445	-0.537273	0.319627
C124	C	1.493445	-0.037273	0.819627
C125	C	1.004128	-0.570287	0.224418
C126	C	1.504128	-0.070287	0.724418
H127	H	0.986232	-0.581426	0.364738
H128	H	1.486232	-0.081426	0.864738
H129	H	1.046690	-0.510952	0.336818
H130	H	1.546690	-0.010952	0.836818
H131	H	0.940151	-0.497045	0.321908
H132	H	1.440151	0.002955	0.821908
H133	H	1.057426	-0.610506	0.222135
H134	H	1.557426	-0.110506	0.722135
H135	H	0.950890	-0.596616	0.207229
H136	H	1.450890	-0.096616	0.707229
O137	O	1.096909	-0.308429	-0.176003
O138	O	1.596909	0.191571	0.323997
C139	C	1.022286	-0.248785	-0.149012
C140	C	1.522286	0.251215	0.350988
H141	H	1.034893	-0.223945	-0.072159
H142	H	1.534893	0.276055	0.427841
H143	H	0.955282	-0.279761	-0.149359
H144	H	1.455282	0.220239	0.350641
C145	C	0.998769	-0.205853	-0.317271
C146	C	1.498769	0.294147	0.182729
C147	C	1.014257	-0.175339	-0.222881
C148	C	1.514257	0.324661	0.277119
H149	H	0.993813	-0.160550	-0.362839
H150	H	1.493813	0.339450	0.137161
H151	H	1.049042	-0.246039	-0.335457
H152	H	1.549042	0.253961	0.164543
H153	H	0.942934	-0.231667	-0.317546
H154	H	1.442934	0.268333	0.182454
H155	H	1.070097	-0.149536	-0.222605
H156	H	1.570097	0.350464	0.277395
H157	H	0.963994	-0.135147	-0.204697
H158	H	1.463994	0.364853	0.295303
O159	O	1.229258	-0.322598	-0.100583
O160	O	1.729258	0.177402	0.399417
C161	C	1.270733	-0.360630	-0.185625
C162	C	1.770733	0.139370	0.314375
H163	H	1.214561	-0.372814	-0.240707
H164	H	1.714561	0.127186	0.259293
H165	H	1.312420	-0.422791	-0.164925
H166	H	1.812420	0.077209	0.335075
C167	C	1.404595	-0.286779	-0.164427
C168	C	1.904595	0.213221	0.335573
C169	C	1.335604	-0.301738	-0.232082
C170	C	1.835604	0.198262	0.267918
H171	H	1.444614	-0.250455	-0.193082
H172	H	1.944614	0.249545	0.306918
H173	H	1.376655	-0.261159	-0.107130
H174	H	1.876655	0.238841	0.392870
H175	H	1.439324	-0.338585	-0.147182
H176	H	1.939324	0.161415	0.352818
H177	H	1.300869	-0.249934	-0.249317
H178	H	1.800869	0.250066	0.250683
H179	H	1.363540	-0.327348	-0.289384
H180	H	1.863540	0.172652	0.210616
