data_functionalizedCrystal
_audit_creation_method	'MofGen! by Chris Wilmer'
_symmetry_space_group_name_H-M	'P1'
_symmetry_Int_Tables_number	1
_symmetry_cell_setting	triclinic
loop_
_symmetry_equiv_pos_as_xyz
  x,y,z
_cell_length_a	16.959455
_cell_length_b	18.050590
_cell_length_c	16.959447
_cell_angle_alpha	90.031775
_cell_angle_beta	90.020374
_cell_angle_gamma	90.015572
loop_
_atom_site_label
_atom_site_type_symbol
_atom_site_fract_x
_atom_site_fract_y
_atom_site_fract_z
Zn1	Zn	1.208392	-0.295704	0.447028
Zn2	Zn	1.208318	-0.419905	0.314846
Zn3	Zn	1.076221	-0.295727	0.314852
Zn4	Zn	1.076189	-0.419850	0.446971
O5	O	1.142280	-0.357797	0.380924
O6	O	1.318993	-0.312193	0.429516
O7	O	1.190778	-0.403466	0.204236
O8	O	1.093798	-0.191800	0.332412
O9	O	1.318939	-0.403443	0.332402
O10	O	1.190904	-0.191782	0.429521
O11	O	1.093726	-0.312233	0.204240
O12	O	0.965606	-0.312179	0.332356
O13	O	1.093744	-0.403349	0.557590
O14	O	0.965582	-0.403372	0.429423
O15	O	1.190873	-0.312139	0.557632
O16	O	1.190747	-0.523823	0.332347
O17	O	1.093672	-0.523782	0.429418
C18	C	0.936914	-0.357772	0.380885
C19	C	0.849057	-0.357780	0.380886
C20	C	0.477543	-0.405264	0.330332
C21	C	0.477620	-0.310391	0.431613
C22	C	0.560166	-0.310379	0.431594
C23	C	0.601404	-0.357811	0.380944
C24	C	0.560096	-0.405254	0.330313
C25	C	0.601481	-0.262941	0.482230
C26	C	0.684032	-0.262928	0.482214
C27	C	0.725271	-0.310356	0.431559
C28	C	0.683958	-0.357801	0.380925
C29	C	0.725195	-0.405233	0.330274
C30	C	0.683884	-0.452675	0.279636
C31	C	0.601335	-0.452683	0.279657
C32	C	0.807819	-0.310348	0.431537
C33	C	0.807749	-0.405224	0.330255
C34	C	1.142219	-0.550749	0.380893
C35	C	1.142266	-0.633294	0.380906
C36	C	1.195165	-0.832740	0.328192
C37	C	1.214468	-0.882070	0.400335
C38	C	1.142310	-0.784425	0.380937
C39	C	1.123088	-0.882177	0.308827
C40	C	1.142355	-0.930410	0.380962
C41	C	1.161650	-0.832667	0.453118
C42	C	1.070237	-0.832770	0.361562
C43	C	1.089513	-0.882077	0.433754
C44	C	1.142287	-0.700327	0.380922
C45	C	1.142379	-1.014506	0.380985
C46	C	1.348448	-0.357821	0.380965
C47	C	1.436305	-0.357832	0.380982
C48	C	1.142313	-0.357735	0.587093
C49	C	1.142327	-0.357709	0.674949
C50	C	1.142362	-0.164091	0.380973
C51	C	1.142398	-0.081545	0.380994
C52	C	1.142293	-0.357804	0.175558
C53	C	1.142432	-0.357621	0.087702
C54	C	1.091851	-0.405119	1.046406
C55	C	1.192992	-0.310142	1.046445
C56	C	1.192971	-0.310158	0.963899
C57	C	1.142390	-0.357656	0.922603
C58	C	1.091830	-0.405138	0.963852
C59	C	1.243536	-0.262682	0.922643
C60	C	1.243518	-0.262696	0.840092
C61	C	1.192932	-0.310191	0.798794
C62	C	1.142369	-0.357674	0.840049
C63	C	1.091788	-0.405172	0.798753
C64	C	1.041220	-0.452653	0.840006
C65	C	1.041244	-0.452633	0.922554
C66	C	1.192908	-0.310211	0.716246
C67	C	1.091767	-0.405191	0.716199
H68	H	0.567692	-0.491307	0.238430
H69	H	1.275438	-0.903727	0.416738
H70	H	1.009285	-0.811097	0.345137
Br71	Br	0.739859	-0.517051	0.210906
Br72	Br	1.312186	-0.198232	0.978690
Br73	Br	0.545513	-0.198587	0.550979
H74	H	0.443903	-0.443888	0.289101
Br75	Br	0.421655	-0.246033	0.500361
Br76	Br	0.863708	-0.469592	0.261504
Br77	Br	1.188909	-0.796581	0.554805
Br78	Br	0.740090	-0.198545	0.550936
H79	H	1.044835	-0.903604	0.478421
Br80	Br	1.095959	-0.918427	0.207171
H81	H	1.284692	-0.224034	0.806510
Br82	Br	0.863882	-0.245974	0.500260
Br83	Br	1.261537	-0.245786	0.660262
Br84	Br	1.023222	-0.469550	1.102388
H85	H	1.000077	-0.491291	0.956150
H86	H	1.239877	-0.811076	0.283633
Br87	Br	1.023110	-0.469650	0.660160
Br88	Br	0.972583	-0.517118	0.783951
Br89	Br	1.261643	-0.245691	1.102490
