data_functionalizedCrystal
_audit_creation_method	'MofGen! by Chris Wilmer'
_symmetry_space_group_name_H-M	'P1'
_symmetry_Int_Tables_number	1
_symmetry_cell_setting	triclinic
loop_
_symmetry_equiv_pos_as_xyz
  x,y,z
_cell_length_a	10.685980
_cell_length_b	13.897447
_cell_length_c	13.897441
_cell_angle_alpha	90.028354
_cell_angle_beta	94.393822
_cell_angle_gamma	94.386237
loop_
_atom_site_label
_atom_site_type_symbol
_atom_site_fract_x
_atom_site_fract_y
_atom_site_fract_z
Zn1	Zn	1.929196	-0.270991	0.658612
Zn2	Zn	2.179196	-0.020991	0.908612
Zn3	Zn	2.429196	0.229009	1.158612
Zn4	Zn	2.679196	0.479009	1.408612
Zn5	Zn	1.929059	-0.432318	0.497309
Zn6	Zn	2.179059	-0.182318	0.747309
Zn7	Zn	2.429059	0.067682	0.997309
Zn8	Zn	2.679059	0.317682	1.247309
Zn9	Zn	1.718174	-0.283391	0.484946
Zn10	Zn	1.968174	-0.033391	0.734946
Zn11	Zn	2.218174	0.216609	0.984946
Zn12	Zn	2.468174	0.466609	1.234946
Zn13	Zn	1.718135	-0.444609	0.646183
Zn14	Zn	1.968135	-0.194609	0.896183
Zn15	Zn	2.218135	0.055391	1.146183
Zn16	Zn	2.468135	0.305391	1.396183
O17	O	1.823641	-0.357827	0.571762
O18	O	2.073641	-0.107827	0.821762
O19	O	2.323641	0.142173	1.071762
O20	O	2.573641	0.392173	1.321762
O21	O	2.105764	-0.282058	0.647590
O22	O	2.355764	-0.032058	0.897590
O23	O	2.605764	0.217942	1.147590
O24	O	2.855764	0.467942	1.397590
O25	O	1.901043	-0.412608	0.360685
O26	O	2.151043	-0.162608	0.610685
O27	O	2.401043	0.087392	0.860685
O28	O	2.651043	0.337392	1.110685
O29	O	1.746240	-0.146760	0.508011
O30	O	1.996240	0.103240	0.758011
O31	O	2.246240	0.353240	1.008011
O32	O	2.496240	0.603240	1.258011
O33	O	2.105663	-0.400584	0.529082
O34	O	2.355663	-0.150584	0.779082
O35	O	2.605663	0.099416	1.029082
O36	O	2.855663	0.349416	1.279082
O37	O	1.901277	-0.137650	0.635602
O38	O	2.151277	0.112350	0.885602
O39	O	2.401277	0.362350	1.135602
O40	O	2.651277	0.612350	1.385602
O41	O	1.746107	-0.303192	0.351601
O42	O	1.996107	-0.053192	0.601601
O43	O	2.246107	0.196808	0.851601
O44	O	2.496107	0.446808	1.101601
O45	O	1.541583	-0.315110	0.495958
O46	O	1.791583	-0.065110	0.745958
O47	O	2.041583	0.184890	0.995958
O48	O	2.291583	0.434890	1.245958
O49	O	1.746174	-0.421532	0.782815
O50	O	1.996174	-0.171532	1.032815
O51	O	2.246174	0.078468	1.282815
O52	O	2.496174	0.328468	1.532815
O53	O	1.541554	-0.433556	0.614418
O54	O	1.791554	-0.183556	0.864418
O55	O	2.041554	0.066444	1.114418
O56	O	2.291554	0.316444	1.364418
O57	O	1.901240	-0.293976	0.791947
O58	O	2.151240	-0.043976	1.041947
O59	O	2.401240	0.206024	1.291947
O60	O	2.651240	0.456024	1.541947
O61	O	1.901006	-0.568934	0.517030
O62	O	2.151006	-0.318934	0.767030
O63	O	2.401006	-0.068934	1.017030
O64	O	2.651006	0.181066	1.267030
O65	O	1.746041	-0.577964	0.626406
O66	O	1.996041	-0.327964	0.876406
O67	O	2.246041	-0.077964	1.126406
O68	O	2.496041	0.172036	1.376406
C69	C	1.495782	-0.377013	0.552499
C70	C	1.745782	-0.127013	0.802499
C71	C	1.995782	0.122987	1.052499
C72	C	2.245782	0.372987	1.302499
C73	C	1.355522	-0.385244	0.544280
C74	C	1.605522	-0.135244	0.794280
C75	C	1.855522	0.114756	1.044280
C76	C	2.105522	0.364756	1.294280
C77	C	1.823538	-0.608448	0.571734
C78	C	2.073538	-0.358448	0.821734
C79	C	2.323538	-0.108448	1.071734
C80	C	2.573538	0.141552	1.321734
C81	C	1.823610	-0.715657	0.571761
C82	C	2.073610	-0.465657	0.821761
C83	C	2.323610	-0.215657	1.071761
C84	C	2.573610	0.034343	1.321761
C85	C	1.823671	-0.802723	0.571786
C86	C	2.073671	-0.552723	0.821786
C87	C	2.323671	-0.302723	1.071786
C88	C	2.573671	-0.052723	1.321786
C89	C	1.823759	-0.911951	0.571816
C90	C	2.073759	-0.661951	0.821816
C91	C	2.323759	-0.411951	1.071816
C92	C	2.573759	-0.161951	1.321816
C93	C	2.152781	-0.338567	0.591102
C94	C	2.402781	-0.088567	0.841102
C95	C	2.652781	0.161433	1.091102
C96	C	2.902781	0.411433	1.341102
C97	C	2.293040	-0.330360	0.599343
C98	C	2.543040	-0.080360	0.849343
C99	C	2.793040	0.169640	1.099343
C100	C	3.043040	0.419640	1.349343
C101	C	1.823718	-0.357742	0.823360
C102	C	2.073718	-0.107742	1.073360
C103	C	2.323718	0.142258	1.323360
C104	C	2.573718	0.392258	1.573360
C105	C	1.823751	-0.357705	0.930576
C106	C	2.073751	-0.107705	1.180576
C107	C	2.323751	0.142295	1.430576
C108	C	2.573751	0.392295	1.680576
C109	C	1.823778	-0.106226	0.571814
C110	C	2.073778	0.143774	0.821814
C111	C	2.323778	0.393774	1.071814
C112	C	2.573778	0.643774	1.321814
C113	C	1.823837	0.000991	0.571836
C114	C	2.073837	0.250991	0.821836
C115	C	2.323837	0.500991	1.071836
C116	C	2.573837	0.750991	1.321836
C117	C	1.823637	-0.357838	0.321148
C118	C	2.073637	-0.107838	0.571148
C119	C	2.323637	0.142162	0.821148
C120	C	2.573637	0.392162	1.071148
C121	C	1.823848	-0.357589	0.213947
C122	C	2.073848	-0.107589	0.463947
C123	C	2.323848	0.142411	0.713947
C124	C	2.573848	0.392411	0.963947
C125	C	1.823777	-0.357676	1.017647
C126	C	2.073777	-0.107676	1.267647
C127	C	2.323777	0.142324	1.517647
C128	C	2.573777	0.392324	1.767647
C129	C	1.823813	-0.357631	1.126882
C130	C	2.073813	-0.107631	1.376882
C131	C	2.323813	0.142369	1.626882
C132	C	2.573813	0.392369	1.876882
H133	H	1.301706	-0.438533	0.490844
H134	H	1.551706	-0.188533	0.740844
H135	H	1.801706	0.061467	0.990844
H136	H	2.051706	0.311467	1.240844
Cl137	Cl	1.376114	-0.248079	0.681835
Cl138	Cl	1.626114	0.001921	0.931835
Cl139	Cl	1.876114	0.251921	1.181835
Cl140	Cl	2.126114	0.501921	1.431835
