data_functionalizedCrystal
_audit_creation_method	'MofGen! by Chris Wilmer'
_symmetry_space_group_name_H-M	'P1'
_symmetry_Int_Tables_number	1
_symmetry_cell_setting	triclinic
loop_
_symmetry_equiv_pos_as_xyz
  x,y,z
_cell_length_a	15.944551
_cell_length_b	15.944551
_cell_length_c	9.130313
_cell_angle_alpha	89.994529
_cell_angle_beta	90.000967
_cell_angle_gamma	83.498738
loop_
_atom_site_label
_atom_site_type_symbol
_atom_site_fract_x
_atom_site_fract_y
_atom_site_fract_z
O1	O	1.114523	0.108332	-0.121650
O2	O	0.869973	0.121688	-0.121687
O3	O	0.998926	-0.007265	-0.121654
O4	O	0.985570	0.237285	-0.121682
O5	O	0.998917	-0.007269	0.121945
O6	O	0.869965	0.121684	0.121912
O7	O	1.114514	0.108328	0.121949
Cu8	Cu	0.992239	0.115006	0.144173
Cu9	Cu	0.992249	0.115010	-0.143911
O10	O	0.985561	0.237281	0.121916
C11	C	0.838675	0.121132	0.000108
C12	C	0.745429	0.119470	0.000095
C13	C	0.530572	0.035565	0.000133
C14	C	0.469556	0.074529	-0.119979
C15	C	0.574703	0.116462	0.000112
C16	C	0.469570	0.074545	0.120190
C17	C	0.409790	0.113551	0.000136
C18	C	0.514915	0.155449	-0.120099
C19	C	0.514935	0.155453	0.120179
C20	C	0.453937	0.194476	0.000038
C21	C	0.669705	0.118137	0.000097
C22	C	0.314789	0.111883	0.000140
C23	C	0.998367	-0.038561	0.000146
C24	C	0.996705	-0.131807	0.000146
C25	C	0.912801	-0.346663	0.000113
C26	C	0.951759	-0.407682	0.120228
C27	C	0.993698	-0.302533	0.000134
C28	C	0.951787	-0.407662	-0.119941
C29	C	0.990787	-0.467445	0.000117
C30	C	1.032678	-0.362323	0.120348
C31	C	1.032695	-0.362297	-0.119929
C32	C	1.071711	-0.423298	0.000215
C33	C	0.995372	-0.207530	0.000146
C34	C	0.989119	-0.562446	0.000116
C35	C	1.145813	0.108885	0.000151
C36	C	1.239059	0.110547	0.000155
C37	C	0.986120	0.268577	0.000114
C38	C	0.987782	0.361823	0.000103
N39	N	0.992237	0.115002	0.346796
N40	N	0.992257	0.115007	-0.346533
C41	C	1.049357	0.057926	0.423462
C42	C	1.049365	0.057926	0.576799
C43	C	0.935131	0.172087	0.576790
C44	C	0.935120	0.172082	0.423456
H45	H	0.534907	0.189641	-0.221754
H46	H	0.917539	-0.427792	0.221766
H47	H	0.420779	0.261683	-0.000037
O48	O	1.104934	0.002452	0.651045
C49	C	1.218205	-0.110812	0.634862
C50	C	1.155331	-0.048016	0.550598
H51	H	1.258955	-0.151643	0.553688
H52	H	1.260225	-0.074560	0.706595
H53	H	1.181933	-0.152762	0.706704
H54	H	1.191534	-0.006050	0.478677
H55	H	1.113311	-0.084320	0.478958
O56	O	1.073494	-0.338131	-0.240951
C57	C	1.121320	-0.222652	-0.375859
C58	C	1.075124	-0.249910	-0.238707
H59	H	1.122638	-0.151322	-0.374106
H60	H	1.188713	-0.255347	-0.376910
H61	H	1.086751	-0.241110	-0.478162
H62	H	1.109622	-0.231456	-0.136331
H63	H	1.007728	-0.217221	-0.237785
H64	H	0.449450	0.040315	-0.221517
H65	H	0.917563	-0.427738	-0.221496
O66	O	0.879538	0.227449	0.651198
C67	C	0.733495	0.276601	0.698072
C68	C	0.796361	0.213842	0.613743
H69	H	0.666233	0.265634	0.667797
H70	H	0.743244	0.266801	0.820851
H71	H	0.744477	0.343879	0.667922
H72	H	0.785417	0.146539	0.643770
H73	H	0.786597	0.223715	0.490985
H74	H	0.888602	0.218561	0.361030
H75	H	0.535063	0.189639	0.221722
H76	H	0.449480	0.040312	0.221732
H77	H	1.095864	0.011447	0.361049
H78	H	0.563905	-0.031573	-0.000008
H79	H	1.066862	-0.342334	0.222008
H80	H	1.138919	-0.456457	0.000293
O81	O	0.832682	-0.306959	0.000495
C82	C	0.699533	-0.284951	0.127506
C83	C	0.790247	-0.329954	0.127266
H84	H	0.665192	-0.303539	0.229974
H85	H	0.701494	-0.213701	0.126553
H86	H	0.664735	-0.304342	0.026095
H87	H	0.825098	-0.310632	0.228661
H88	H	0.788226	-0.401195	0.128143
