data_functionalizedCrystal
_audit_creation_method	'MofGen! by Chris Wilmer'
_symmetry_space_group_name_H-M	'P1'
_symmetry_Int_Tables_number	1
_symmetry_cell_setting	triclinic
loop_
_symmetry_equiv_pos_as_xyz
  x,y,z
_cell_length_a	18.215407
_cell_length_b	14.908520
_cell_length_c	18.215399
_cell_angle_alpha	93.269364
_cell_angle_beta	89.980167
_cell_angle_gamma	93.321174
loop_
_atom_site_label
_atom_site_type_symbol
_atom_site_fract_x
_atom_site_fract_y
_atom_site_fract_z
Zn1	Zn	1.108178	-0.359158	-0.433017
Zn2	Zn	1.441511	-0.025825	-0.099684
Zn3	Zn	1.774844	0.307508	0.233649
Zn4	Zn	1.100989	-0.510027	-0.317051
Zn5	Zn	1.434323	-0.176694	0.016283
Zn6	Zn	1.767656	0.156639	0.349616
Zn7	Zn	0.985109	-0.359188	-0.309966
Zn8	Zn	1.318442	-0.025855	0.023367
Zn9	Zn	1.651775	0.307479	0.356701
Zn10	Zn	0.977982	-0.509977	-0.440073
Zn11	Zn	1.311315	-0.176644	-0.106740
Zn12	Zn	1.644648	0.156689	0.226593
O13	O	1.043064	-0.434588	-0.375027
O14	O	1.376398	-0.101254	-0.041693
O15	O	1.709731	0.232079	0.291640
O16	O	1.210208	-0.379180	-0.417646
O17	O	1.543541	-0.045847	-0.084313
O18	O	1.876875	0.287487	0.249021
O19	O	1.085592	-0.490052	-0.213128
O20	O	1.418925	-0.156718	0.120205
O21	O	1.752259	0.176615	0.453539
O22	O	1.007425	-0.232939	-0.320371
O23	O	1.340758	0.100394	0.012962
O24	O	1.674092	0.433728	0.346295
O25	O	1.204927	-0.490023	-0.332446
O26	O	1.538260	-0.156690	0.000887
O27	O	1.871593	0.176644	0.334221
O28	O	1.097843	-0.232917	-0.410776
O29	O	1.431177	0.100416	-0.077443
O30	O	1.764510	0.433749	0.255890
O31	O	1.000455	-0.379230	-0.207923
O32	O	1.333788	-0.045897	0.125410
O33	O	1.667122	0.287436	0.458744
O34	O	0.881180	-0.379182	-0.327213
O35	O	1.214513	-0.045848	0.006120
O36	O	1.547846	0.287485	0.339454
O37	O	0.995278	-0.489937	-0.542120
O38	O	1.328611	-0.156604	-0.208787
O39	O	1.661945	0.176729	0.124547
O40	O	0.875943	-0.489966	-0.422802
O41	O	1.209277	-0.156633	-0.089469
O42	O	1.542610	0.176701	0.243864
O43	O	1.090932	-0.379131	-0.536936
O44	O	1.424266	-0.045798	-0.203603
O45	O	1.757599	0.287535	0.129731
O46	O	1.078681	-0.636266	-0.339288
O47	O	1.412014	-0.302933	-0.005954
O48	O	1.745348	0.030401	0.327379
O49	O	0.988308	-0.636229	-0.429672
O50	O	1.321641	-0.302896	-0.096339
O51	O	1.654975	0.030438	0.236995
C52	C	0.851859	-0.434572	-0.375005
C53	C	1.185192	-0.101239	-0.041672
C54	C	1.518526	0.232094	0.291662
C55	C	0.770059	-0.434587	-0.375014
C56	C	1.103393	-0.101254	-0.041681
C57	C	1.436726	0.232079	0.291653
C58	C	0.579154	-0.492363	-0.424733
C59	C	0.912487	-0.159030	-0.091399
C60	C	1.245820	0.174303	0.241934
C61	C	0.502295	-0.492366	-0.424742
C62	C	0.835628	-0.159033	-0.091409
C63	C	1.168962	0.174300	0.241925
C64	C	0.507726	-0.376828	-0.325338
C65	C	0.841060	-0.043495	0.007995
C66	C	1.174393	0.289838	0.341329
C67	C	0.584584	-0.376822	-0.325333
C68	C	0.917917	-0.043488	0.008001
C69	C	1.251251	0.289845	0.341334
C70	C	0.620295	-0.434594	-0.375029
C71	C	0.953629	-0.101261	-0.041696
C72	C	1.286962	0.232072	0.291638
C73	C	0.466579	-0.434604	-0.375044
C74	C	0.799912	-0.101271	-0.041710
C75	C	1.133246	0.232063	0.291623
C76	C	0.383245	-0.434606	-0.375053
C77	C	0.716578	-0.101273	-0.041720
C78	C	1.049912	0.232060	0.291613
C79	C	0.703635	-0.434591	-0.375021
C80	C	1.036968	-0.101257	-0.041687
C81	C	1.370301	0.232076	0.291646
C82	C	1.031961	-0.668981	-0.386030
C83	C	1.365294	-0.335648	-0.052697
C84	C	1.698628	-0.002315	0.280636
C85	C	1.027278	-0.769256	-0.390762
C86	C	1.360612	-0.435923	-0.057429
C87	C	1.693945	-0.102589	0.275904
C88	C	1.112681	-0.957660	-0.305613
C89	C	1.446015	-0.624326	0.027720
C90	C	1.779348	-0.290993	0.361054
C91	C	1.108284	-1.051877	-0.310057
C92	C	1.441617	-0.718543	0.023277
C93	C	1.774951	-0.385210	0.356610
C94	C	1.014091	-1.051908	-0.404097
C95	C	1.347424	-0.718575	-0.070763
C96	C	1.680757	-0.385242	0.262570
C97	C	1.018488	-0.957691	-0.399653
C98	C	1.351821	-0.624358	-0.066320
C99	C	1.685155	-0.291025	0.267014
C100	C	1.067784	-0.910570	-0.350409
C101	C	1.401118	-0.577237	-0.017075
C102	C	1.734451	-0.243904	0.316258
C103	C	1.072177	-0.816352	-0.345962
C104	C	1.405511	-0.483018	-0.012628
C105	C	1.738844	-0.149685	0.320705
C106	C	0.977988	-0.816385	-0.440005
C107	C	1.311321	-0.483052	-0.106671
C108	C	1.644655	-0.149718	0.226662
C109	C	0.973591	-0.910602	-0.444449
C110	C	1.306924	-0.577269	-0.111115
C111	C	1.640257	-0.243935	0.222218
C112	C	1.235017	-0.434604	-0.375049
C113	C	1.568350	-0.101271	-0.041716
C114	C	1.901683	0.232063	0.291617
C115	C	1.316815	-0.434611	-0.375059
C116	C	1.650148	-0.101277	-0.041725
C117	C	1.983482	0.232056	0.291608
C118	C	1.043112	-0.434526	-0.566977
C119	C	1.376445	-0.101192	-0.233644
C120	C	1.709779	0.232141	0.099690
C121	C	1.043133	-0.434499	-0.648775
C122	C	1.376466	-0.101166	-0.315441
C123	C	1.709799	0.232168	0.017892
C124	C	1.054231	-0.199279	-0.363996
C125	C	1.387564	0.134054	-0.030663
C126	C	1.720898	0.467388	0.302670
C127	C	1.058990	-0.099004	-0.359296
C128	C	1.392323	0.234329	-0.025963
C129	C	1.725656	0.567662	0.307371
C130	C	1.092959	-0.376748	-0.834268
C131	C	1.426293	-0.043415	-0.500935
C132	C	1.759626	0.289918	-0.167601
C133	C	1.092969	-0.376722	-0.911126
C134	C	1.426303	-0.043389	-0.577792
C135	C	1.759636	0.289945	-0.244459
C136	C	0.993364	-0.492110	-0.916513
C137	C	1.326698	-0.158777	-0.583179
C138	C	1.660031	0.174557	-0.249846
C139	C	0.993351	-0.492131	-0.839656
C140	C	1.326685	-0.158798	-0.506323
C141	C	1.660018	0.174535	-0.172989
C142	C	1.043153	-0.434452	-0.798536
C143	C	1.376486	-0.101118	-0.465203
C144	C	1.709820	0.232215	-0.131869
C145	C	1.043176	-0.434404	-0.952250
C146	C	1.376509	-0.101071	-0.618917
C147	C	1.709843	0.232262	-0.285583
C148	C	1.043186	-0.434376	-1.035582
C149	C	1.376520	-0.101043	-0.702249
C150	C	1.709853	0.232290	-0.368916
C151	C	1.043142	-0.434478	-0.715198
C152	C	1.376475	-0.101145	-0.381865
C153	C	1.709808	0.232188	-0.048531
C154	C	1.043062	-0.434585	-0.183820
C155	C	1.376396	-0.101251	0.149513
C156	C	1.709729	0.232082	0.482846
C157	C	1.043196	-0.434357	-0.102011
C158	C	1.376530	-0.101024	0.231322
C159	C	1.709863	0.232310	0.564655
H160	H	0.478640	-0.329793	-0.284876
H161	H	0.811974	0.003540	0.048458
H162	H	1.145307	0.336873	0.381791
N163	N	0.628965	-0.314499	-0.271730
N164	N	0.962299	0.018834	0.061603
N165	N	1.295632	0.352168	0.394936
H166	H	0.594681	-0.277903	-0.240247
H167	H	0.928015	0.055430	0.093086
H168	H	1.261348	0.388764	0.426419
H169	H	0.659110	-0.351159	-0.239343
H170	H	0.992443	-0.017825	0.093990
H171	H	1.325777	0.315508	0.427323
H172	H	1.112315	-0.777987	-0.305863
H173	H	1.445648	-0.444653	0.027471
H174	H	1.778982	-0.111320	0.360804
H175	H	0.608228	-0.539403	-0.465200
H176	H	0.941561	-0.206070	-0.131867
H177	H	1.274895	0.127263	0.201466
N178	N	0.939634	-0.554368	-0.801101
N179	N	1.272968	-0.221035	-0.467768
N180	N	1.606301	0.112298	-0.134434
H181	H	0.907269	-0.517703	-0.767491
H182	H	1.240602	-0.184370	-0.434158
H183	H	1.573936	0.148964	-0.100825
H184	H	0.908136	-0.590902	-0.838850
H185	H	1.241469	-0.257569	-0.505517
H186	H	1.574803	0.075765	-0.172184
H187	H	1.152815	-0.919293	-0.265511
H188	H	1.486149	-0.585960	0.067822
H189	H	1.819482	-0.252627	0.401155
N190	N	0.457924	-0.554683	-0.478347
N191	N	0.791257	-0.221349	-0.145014
N192	N	1.124590	0.111984	0.188319
H193	H	0.424045	-0.596442	-0.450345
H194	H	0.757378	-0.263109	-0.117011
H195	H	1.090712	0.070225	0.216322
H196	H	0.427829	-0.518015	-0.510774
H197	H	0.761162	-0.184681	-0.177441
H198	H	1.094496	0.148652	0.155892
H199	H	1.144846	-1.090213	-0.273581
H200	H	1.478179	-0.756880	0.059753
H201	H	1.811512	-0.423547	0.393086
N202	N	0.960929	-1.102739	-0.457210
N203	N	1.294262	-0.769405	-0.123876
N204	N	1.627596	-0.436072	0.209457
H205	H	0.964960	-1.169570	-0.453226
H206	H	1.298294	-0.836236	-0.119893
H207	H	1.631627	-0.502903	0.213440
H208	H	0.909141	-1.086342	-0.444929
H209	H	1.242475	-0.753009	-0.111596
H210	H	1.575808	-0.419675	0.221737
N211	N	0.920422	-0.961435	-0.497554
N212	N	1.253755	-0.628101	-0.164220
N213	N	1.587089	-0.294768	0.169113
H214	H	0.868611	-0.945104	-0.485297
H215	H	1.201944	-0.611770	-0.151964
H216	H	1.535277	-0.278437	0.181370
H217	H	0.932645	-0.944967	-0.549351
H218	H	1.265978	-0.611633	-0.216018
H219	H	1.599311	-0.278300	0.117315
N220	N	0.929557	-0.765593	-0.488319
N221	N	1.262890	-0.432259	-0.154985
N222	N	1.596223	-0.098926	0.178348
H223	H	0.961265	-0.726440	-0.520607
H224	H	1.294598	-0.393106	-0.187274
H225	H	1.627932	-0.059773	0.146060
H226	H	0.897668	-0.809799	-0.520139
H227	H	1.231002	-0.476466	-0.186806
H228	H	1.564335	-0.143133	0.146528
N229	N	1.146670	-0.314539	-0.789915
N230	N	1.480003	0.018794	-0.456582
N231	N	1.813337	0.352127	-0.123249
H232	H	1.178222	-0.277980	-0.824217
H233	H	1.511556	0.055353	-0.490883
H234	H	1.844889	0.388687	-0.157550
H235	H	1.118688	-0.272798	-0.756065
H236	H	1.452022	0.060536	-0.422731
H237	H	1.785355	0.393869	-0.089398
N238	N	1.146681	-0.314475	-0.949666
N239	N	1.480014	0.018858	-0.616332
N240	N	1.813347	0.352192	-0.282999
H241	H	1.178223	-0.277938	-0.911951
H242	H	1.511556	0.055395	-0.578618
H243	H	1.844889	0.388728	-0.245285
H244	H	1.179003	-0.351181	-0.983286
H245	H	1.512336	-0.017848	-0.649953
H246	H	1.845670	0.315485	-0.316620
N247	N	0.939642	-0.554306	-0.960863
N248	N	1.272975	-0.220972	-0.627530
N249	N	1.606308	0.112361	-0.294196
H250	H	0.947204	-0.545534	-1.014974
H251	H	1.280537	-0.212201	-0.681640
H252	H	1.613871	0.121132	-0.348307
H253	H	0.948025	-0.618746	-0.950455
H254	H	1.281358	-0.285413	-0.617122
H255	H	1.614692	0.047921	-0.283788
