data_functionalizedCrystal
_audit_creation_method	'MofGen! by Chris Wilmer'
_symmetry_space_group_name_H-M	'P1'
_symmetry_Int_Tables_number	1
_symmetry_cell_setting	triclinic
loop_
_symmetry_equiv_pos_as_xyz
  x,y,z
_cell_length_a	12.759401
_cell_length_b	25.639240
_cell_length_c	12.759393
_cell_angle_alpha	89.955560
_cell_angle_beta	89.982549
_cell_angle_gamma	90.031802
loop_
_atom_site_label
_atom_site_type_symbol
_atom_site_fract_x
_atom_site_fract_y
_atom_site_fract_z
Zn1	Zn	1.606112	-0.208132	-0.593891
Zn2	Zn	1.605954	-0.295579	-0.418172
Zn3	Zn	1.430417	-0.208158	-0.418230
Zn4	Zn	1.430347	-0.295537	-0.593813
O5	O	1.518208	-0.251852	-0.506027
O6	O	1.753112	-0.219739	-0.570590
O7	O	1.582632	-0.284011	-0.271159
O8	O	1.453819	-0.134990	-0.441588
O9	O	1.752996	-0.283986	-0.441490
O10	O	1.582901	-0.134970	-0.570646
O11	O	1.453666	-0.219783	-0.271201
O12	O	1.283387	-0.219742	-0.441513
O13	O	1.453699	-0.283914	-0.740845
O14	O	1.283336	-0.283939	-0.570514
O15	O	1.582833	-0.219698	-0.740902
O16	O	1.582564	-0.368739	-0.441415
O17	O	1.453547	-0.368708	-0.570457
C18	C	1.245240	-0.251839	-0.506012
C19	C	1.128464	-0.251847	-0.506031
C20	C	1.073655	-0.218456	-0.573357
C21	C	0.963931	-0.218467	-0.573364
C22	C	0.963834	-0.285262	-0.438714
C23	C	1.073556	-0.285249	-0.438703
C24	C	1.128563	-0.185055	-0.640684
C25	C	1.073754	-0.151662	-0.708017
C26	C	0.964030	-0.151672	-0.708023
C27	C	0.909115	-0.185075	-0.640697
C28	C	1.518059	-0.387694	-0.505944
C29	C	1.518092	-0.445808	-0.505944
C30	C	1.585454	-0.806123	-0.573348
C31	C	1.585485	-0.860727	-0.573369
O32	O	1.642582	-0.888923	-0.630594
N33	N	1.518354	-0.888091	-0.506128
C34	C	1.451179	-0.860847	-0.438869
O35	O	1.394080	-0.889136	-0.381678
C36	C	1.451143	-0.806244	-0.438853
C37	C	1.518287	-0.778883	-0.506091
C38	C	1.652591	-0.778762	-0.640581
C39	C	1.652562	-0.724162	-0.640558
C40	C	1.585394	-0.696922	-0.573302
C41	C	1.518257	-0.724283	-0.506068
C42	C	1.383964	-0.779001	-0.371600
C43	C	1.383934	-0.724394	-0.371591
C44	C	1.451078	-0.697033	-0.438829
C45	C	1.451060	-0.642442	-0.438789
N46	N	1.518192	-0.615079	-0.506030
C47	C	1.585359	-0.642319	-0.573287
C48	C	1.451257	-0.975518	-0.438907
C49	C	1.451297	-1.030120	-0.438916
C50	C	1.585602	-1.029996	-0.573419
C51	C	1.585567	-0.975393	-0.573403
C52	C	1.518389	-0.948154	-0.506148
C53	C	1.585292	-0.527653	-0.573233
C54	C	1.585259	-0.473048	-0.573201
C55	C	1.450951	-0.473177	-0.438703
C56	C	1.450987	-0.527777	-0.438730
C57	C	1.518161	-0.555014	-0.506004
O58	O	1.393989	-0.614212	-0.381597
O59	O	1.642438	-0.614023	-0.630478
C60	C	1.792241	-0.251864	-0.506042
C61	C	1.909018	-0.251870	-0.506048
C62	C	1.518276	-0.251798	-0.780060
C63	C	1.518305	-0.251776	-0.896837
C64	C	1.518385	-0.115479	-0.506132
C65	C	1.518461	-0.057365	-0.506177
C66	C	1.451181	-0.218326	-0.951727
C67	C	1.451213	-0.218311	-1.061451
C68	C	1.585502	-0.285196	-1.061385
C69	C	1.585464	-0.285214	-0.951663
C70	C	1.384022	-0.184888	-0.896901
C71	C	1.316893	-0.151436	-0.951791
C72	C	1.316925	-0.151420	-1.061515
C73	C	1.384085	-0.184857	-1.116349
C74	C	1.518200	-0.251867	-0.233059
C75	C	1.518375	-0.251742	-0.116283
H76	H	0.919407	-0.124479	-0.762841
H77	H	0.819770	-0.185069	-0.640686
Cl78	Cl	1.383982	-0.184903	-0.758962
H79	H	1.639984	-0.549824	-0.628020
H80	H	1.639939	-0.450773	-0.627954
H81	H	1.640292	-1.052185	-0.628184
H82	H	1.384103	-0.184843	-1.205694
Cl83	Cl	1.669929	-0.327226	-1.130320
H84	H	1.217905	-0.185043	-0.640686
Cl85	Cl	1.142788	-0.109669	-0.792642
H86	H	0.919113	-0.312457	-0.383903
Cl87	Cl	1.736967	-0.689774	-0.725100
H88	H	1.640137	-0.312444	-0.906970
H89	H	1.640240	-0.953119	-0.628155
Cl90	Cl	1.232516	-0.109376	-1.130518
Cl91	Cl	1.366899	-1.064510	-0.354371
Cl92	Cl	1.142464	-0.327231	-0.354073
H93	H	1.707287	-0.800935	-0.695356
H94	H	1.396556	-0.953342	-0.384131
Cl95	Cl	1.299545	-0.813384	-0.287071
Cl96	Cl	1.366590	-0.562174	-0.354188
H97	H	1.329226	-0.702219	-0.316825
Cl98	Cl	1.366516	-0.438922	-0.354157
Cl99	Cl	1.232465	-0.109404	-0.882859
