data_functionalizedCrystal
_audit_creation_method	'MofGen! by Chris Wilmer'
_symmetry_space_group_name_H-M	'P1'
_symmetry_Int_Tables_number	1
_symmetry_cell_setting	triclinic
loop_
_symmetry_equiv_pos_as_xyz
  x,y,z
_cell_length_a	17.077404
_cell_length_b	18.050582
_cell_length_c	17.077402
_cell_angle_alpha	89.976653
_cell_angle_beta	90.020853
_cell_angle_gamma	89.986324
loop_
_atom_site_label
_atom_site_type_symbol
_atom_site_fract_x
_atom_site_fract_y
_atom_site_fract_z
Zn1	Zn	1.200018	-0.419884	-0.312601
Zn2	Zn	1.199936	-0.295692	-0.443861
Zn3	Zn	1.068761	-0.295711	-0.312608
Zn4	Zn	1.068718	-0.419843	-0.443824
O5	O	1.134358	-0.357783	-0.378223
O6	O	1.309854	-0.403419	-0.330025
O7	O	1.182519	-0.191770	-0.426468
O8	O	1.086225	-0.312207	-0.202760
O9	O	1.309794	-0.312176	-0.426461
O10	O	1.182659	-0.403437	-0.202755
O11	O	1.086145	-0.191784	-0.330038
O12	O	0.958908	-0.312168	-0.330002
O13	O	1.086152	-0.523773	-0.426398
O14	O	0.958877	-0.403368	-0.426405
O15	O	1.182618	-0.523803	-0.329989
O16	O	1.182478	-0.312136	-0.553703
O17	O	1.086072	-0.403350	-0.553675
C18	C	0.930410	-0.357766	-0.378201
C19	C	0.843161	-0.357776	-0.378210
C20	C	0.802203	-0.405359	-0.328085
C21	C	0.720222	-0.405363	-0.328090
C22	C	0.679201	-0.357786	-0.378225
C23	C	0.720165	-0.310198	-0.428352
C24	C	0.802144	-0.310192	-0.428343
C25	C	0.549295	-0.310217	-0.428370
C26	C	0.467310	-0.310224	-0.428381
C27	C	0.467373	-0.405388	-0.328118
C28	C	0.549352	-0.405381	-0.328108
C29	C	0.590310	-0.357794	-0.378237
C30	C	1.134389	-0.551488	-0.378188
C31	C	1.134402	-0.634034	-0.378174
C32	C	1.081984	-0.833469	-0.430529
C33	C	1.153602	-0.882858	-0.449720
C34	C	1.134441	-0.785164	-0.378114
C35	C	1.062862	-0.882857	-0.358901
C36	C	1.134472	-0.931150	-0.378057
C37	C	1.206097	-0.833467	-0.397342
C38	C	1.115308	-0.833461	-0.306490
C39	C	1.186976	-0.882828	-0.325653
C40	C	1.134422	-0.701066	-0.378148
C41	C	1.134499	-1.015246	-0.378023
C42	C	1.339103	-0.357800	-0.378246
C43	C	1.426352	-0.357807	-0.378256
C44	C	1.134283	-0.357753	-0.582171
C45	C	1.134322	-0.357765	-0.669421
C46	C	1.134373	-0.164830	-0.378201
C47	C	1.134512	-0.082285	-0.377995
C48	C	1.184571	-0.310321	-0.710399
C49	C	1.184610	-0.310340	-0.792380
C50	C	1.134394	-0.357800	-0.833380
C51	C	1.084142	-0.405249	-0.792396
C52	C	1.084109	-0.405233	-0.710417
C53	C	1.084215	-0.405277	-0.963266
C54	C	1.084248	-0.405292	-1.045251
C55	C	1.184716	-0.310384	-1.045229
C56	C	1.184683	-0.310368	-0.963250
C57	C	1.134430	-0.357817	-0.922271
C58	C	1.134456	-0.357829	-0.173479
C59	C	1.134497	-0.357848	-0.086229
H60	H	0.582749	-0.444126	-0.287289
H61	H	1.225459	-0.271671	-0.677022
O62	O	1.233497	-0.264369	-0.923332
C63	C	1.284158	-0.306688	-0.875860
H64	H	1.256429	-0.362944	-0.863570
H65	H	1.294669	-0.276440	-0.818220
H66	H	1.342340	-0.314899	-0.907399
H67	H	1.225637	-0.271752	-1.078597
H68	H	0.434021	-0.444134	-0.287300
H69	H	1.266661	-0.811863	-0.413637
O70	O	1.035452	-0.451471	-1.084959
C71	C	0.991084	-0.493340	-1.031214
H72	H	1.023206	-0.495924	-0.972747
H73	H	0.982694	-0.551851	-1.054872
H74	H	0.931475	-0.466104	-1.022563
H75	H	1.043296	-0.443917	-0.929904
O76	O	0.588961	-0.263970	-0.477142
C77	C	0.535178	-0.221969	-0.521385
H78	H	0.476749	-0.252386	-0.524149
H79	H	0.558845	-0.213948	-0.583219
H80	H	0.526451	-0.165613	-0.492564
O81	O	1.035448	-0.451459	-0.832188
C82	C	1.052531	-0.525486	-0.812082
H83	H	1.115229	-0.529285	-0.789495
H84	H	1.045767	-0.562180	-0.865978
H85	H	1.010413	-0.544856	-0.764518
H86	H	1.099085	-0.811747	-0.245961
O87	O	1.233370	-0.264315	-0.832331
C88	C	1.188825	-0.216306	-0.879888
H89	H	1.129270	-0.242361	-0.892145
H90	H	1.220845	-0.206548	-0.937539
H91	H	1.180342	-0.161188	-0.848439
H92	H	1.043191	-0.443868	-0.677054
O93	O	0.427423	-0.264111	-0.477157
C94	C	0.379989	-0.306306	-0.527914
H95	H	0.404719	-0.364784	-0.532859
H96	H	0.379025	-0.279334	-0.588279
H97	H	0.317869	-0.308921	-0.503648
H98	H	0.686878	-0.444111	-0.287275
O99	O	0.841926	-0.451602	-0.279312
C100	C	0.788191	-0.493613	-0.235086
H101	H	0.729745	-0.463201	-0.232329
H102	H	0.811895	-0.501640	-0.173248
H103	H	0.779482	-0.549966	-0.263917
O104	O	1.172821	-0.908840	-0.521942
C105	C	1.111139	-0.952876	-0.550995
H106	H	1.074634	-0.974531	-0.500018
H107	H	1.136332	-1.001591	-0.585184
H108	H	1.072576	-0.918117	-0.591277
H109	H	0.686759	-0.271457	-0.469169
O110	O	1.240077	-0.908493	-0.272833
C111	C	1.315430	-0.883175	-0.293339
H112	H	1.316889	-0.869383	-0.358471
H113	H	1.360320	-0.928243	-0.280152
H114	H	1.330015	-0.831427	-0.257976
H115	H	0.835491	-0.271444	-0.469159
O116	O	1.029200	-0.807642	-0.483581
C117	C	1.049677	-0.832830	-0.558986
H118	H	1.114791	-0.846684	-0.560469
H119	H	1.036551	-0.787658	-0.603783
H120	H	1.014247	-0.884512	-0.573679
O121	O	0.990574	-0.908652	-0.339630
C122	C	0.935448	-0.883518	-0.395091
H123	H	0.958679	-0.831515	-0.425013
H124	H	0.877915	-0.870210	-0.364315
H125	H	0.925172	-0.928503	-0.440790
