data_functionalizedCrystal
_audit_creation_method	'MofGen! by Chris Wilmer'
_symmetry_space_group_name_H-M	'P1'
_symmetry_Int_Tables_number	1
_symmetry_cell_setting	triclinic
loop_
_symmetry_equiv_pos_as_xyz
  x,y,z
_cell_length_a	9.065215
_cell_length_b	16.956984
_cell_length_c	8.140239
_cell_angle_alpha	89.996139
_cell_angle_beta	89.997810
_cell_angle_gamma	80.534058
loop_
_atom_site_label
_atom_site_type_symbol
_atom_site_fract_x
_atom_site_fract_y
_atom_site_fract_z
O1	O	1.943264	0.116805	-0.136596
O2	O	1.512573	0.126390	-0.136603
O3	O	1.753794	0.005706	-0.136587
O4	O	1.702043	0.237490	-0.136611
O5	O	1.753782	0.005704	0.136640
O6	O	1.512561	0.126388	0.136624
O7	O	1.943252	0.116804	0.136631
Zn8	Zn	1.727904	0.121596	0.180008
Zn9	Zn	1.727921	0.121598	-0.179980
O10	O	1.702031	0.237488	0.136616
C11	C	1.457715	0.125468	0.000010
C12	C	1.294276	0.122716	0.000007
C13	C	1.756438	-0.023984	0.000026
C14	C	1.764316	-0.112448	0.000024
C15	C	1.632588	-0.145483	0.000015
C16	C	1.639999	-0.228605	0.000019
C17	C	1.779141	-0.278690	0.000022
C18	C	1.910880	-0.245650	0.000036
C19	C	1.903467	-0.162530	0.000043
C20	C	1.815834	-0.528198	0.000011
C21	C	1.823237	-0.611323	-0.000001
C22	C	1.552356	-0.594272	-0.000014
C23	C	1.544955	-0.511151	-0.000017
C24	C	1.676694	-0.478118	0.000006
N25	N	1.786720	-0.363654	0.000021
N26	N	1.669113	-0.393156	0.000018
C27	C	1.998110	0.117725	0.000015
C28	C	2.161549	0.120478	0.000007
C29	C	1.699387	0.267178	-0.000001
C30	C	1.691509	0.355642	-0.000010
N31	N	1.727904	0.121594	0.425691
N32	N	1.727933	0.121593	-0.425663
H33	H	1.519283	-0.104708	0.000005
H34	H	1.936549	-0.652102	-0.000010
H35	H	2.010734	-0.135635	0.000054
H36	H	1.923105	-0.501313	0.000026
H37	H	1.532732	-0.255497	-0.000001
H38	H	1.431651	-0.470376	-0.000024
C39	C	1.407453	-0.630616	-0.000012
N40	N	1.298307	-0.657989	0.000002
C41	C	2.063938	-0.300747	0.000042
N42	N	2.179224	-0.342246	0.000041
