data_functionalizedCrystal
_audit_creation_method	'MofGen! by Chris Wilmer'
_symmetry_space_group_name_H-M	'P1'
_symmetry_Int_Tables_number	1
_symmetry_cell_setting	triclinic
loop_
_symmetry_equiv_pos_as_xyz
  x,y,z
_cell_length_a	13.897448
_cell_length_b	10.685969
_cell_length_c	13.897449
_cell_angle_alpha	94.372737
_cell_angle_beta	90.010270
_cell_angle_gamma	94.348258
loop_
_atom_site_label
_atom_site_type_symbol
_atom_site_fract_x
_atom_site_fract_y
_atom_site_fract_z
Zn1	Zn	-0.497105	-1.928901	0.432123
Zn2	Zn	-0.247105	-1.678901	0.682123
Zn3	Zn	0.002895	-1.428901	0.932123
Zn4	Zn	0.252895	-1.178901	1.182123
Zn5	Zn	-0.658364	-1.928817	0.270830
Zn6	Zn	-0.408364	-1.678817	0.520830
Zn7	Zn	-0.158364	-1.428817	0.770830
Zn8	Zn	0.091636	-1.178817	1.020830
Zn9	Zn	-0.484739	-1.717942	0.283229
Zn10	Zn	-0.234739	-1.467942	0.533229
Zn11	Zn	0.015261	-1.217942	0.783229
Zn12	Zn	0.265261	-0.967942	1.033229
Zn13	Zn	-0.646004	-1.717863	0.444469
Zn14	Zn	-0.396004	-1.467863	0.694469
Zn15	Zn	-0.146004	-1.217863	0.944469
Zn16	Zn	0.103996	-0.967863	1.194469
O17	O	-0.571553	-1.823381	0.357663
O18	O	-0.321553	-1.573381	0.607663
O19	O	-0.071553	-1.323381	0.857663
O20	O	0.178447	-1.073381	1.107663
O21	O	-0.528844	-2.105461	0.400372
O22	O	-0.278844	-1.855461	0.650372
O23	O	-0.028844	-1.605461	0.900372
O24	O	0.221156	-1.355461	1.150372
O25	O	-0.635330	-1.900841	0.137493
O26	O	-0.385330	-1.650841	0.387493
O27	O	-0.135330	-1.400841	0.637493
O28	O	0.114670	-1.150841	0.887493
O29	O	-0.351402	-1.745994	0.303002
O30	O	-0.101402	-1.495994	0.553002
O31	O	0.148598	-1.245994	0.803002
O32	O	0.398598	-0.995994	1.053002
O33	O	-0.647320	-2.105400	0.281870
O34	O	-0.397320	-1.855400	0.531870
O35	O	-0.147320	-1.605400	0.781870
O36	O	0.102680	-1.355400	1.031870
O37	O	-0.360487	-1.900985	0.412395
O38	O	-0.110487	-1.650985	0.662395
O39	O	0.139513	-1.400985	0.912395
O40	O	0.389513	-1.150985	1.162395
O41	O	-0.507769	-1.745912	0.146602
O42	O	-0.257769	-1.495912	0.396602
O43	O	-0.007769	-1.245912	0.646602
O44	O	0.242231	-0.995912	0.896602
O45	O	-0.495784	-1.541359	0.314973
O46	O	-0.245784	-1.291359	0.564973
O47	O	0.004216	-1.041359	0.814973
O48	O	0.254216	-0.791359	1.064973
O49	O	-0.626255	-1.745860	0.577813
O50	O	-0.376255	-1.495860	0.827813
O51	O	-0.126255	-1.245860	1.077813
O52	O	0.123745	-0.995860	1.327813
O53	O	-0.614264	-1.541302	0.433435
O54	O	-0.364264	-1.291302	0.683435
O55	O	-0.114264	-1.041302	0.933435
O56	O	0.135736	-0.791302	1.183435
O57	O	-0.516859	-1.900909	0.568743
O58	O	-0.266859	-1.650909	0.818743
O59	O	-0.016859	-1.400909	1.068743
O60	O	0.233141	-1.150909	1.318743
O61	O	-0.791702	-1.900765	0.293841
O62	O	-0.541702	-1.650765	0.543841
O63	O	-0.291702	-1.400765	0.793841
O64	O	-0.041702	-1.150765	1.043841
O65	O	-0.782621	-1.745779	0.421413
O66	O	-0.532621	-1.495779	0.671413
O67	O	-0.282621	-1.245779	0.921413
O68	O	-0.032621	-0.995779	1.171413
C69	C	-0.552342	-1.495548	0.376890
C70	C	-0.302342	-1.245548	0.626890
C71	C	-0.052342	-0.995548	0.876890
C72	C	0.197658	-0.745548	1.126890
C73	C	-0.544146	-1.355299	0.385138
C74	C	-0.294146	-1.105299	0.635138
C75	C	-0.044146	-0.855299	0.885138
C76	C	0.205854	-0.605299	1.135138
C77	C	-0.822162	-1.823288	0.357640
C78	C	-0.572162	-1.573288	0.607640
C79	C	-0.322162	-1.323288	0.857640
C80	C	-0.072162	-1.073288	1.107640
C81	C	-0.929380	-1.823365	0.357656
C82	C	-0.679380	-1.573365	0.607656
C83	C	-0.429380	-1.323365	0.857656
C84	C	-0.179380	-1.073365	1.107656
C85	C	-1.125683	-1.823497	0.357709
C86	C	-0.875683	-1.573497	0.607709
C87	C	-0.625683	-1.323497	0.857709
C88	C	-0.375683	-1.073497	1.107709
C89	C	-1.016446	-1.823420	0.357683
C90	C	-0.766446	-1.573420	0.607683
C91	C	-0.516446	-1.323420	0.857683
C92	C	-0.266446	-1.073420	1.107683
C93	C	-0.319967	-1.823507	0.357704
C94	C	-0.069967	-1.573507	0.607704
C95	C	0.180033	-1.323507	0.857704
C96	C	0.430033	-1.073507	1.107704
C97	C	-0.212757	-1.823561	0.357722
C98	C	0.037243	-1.573561	0.607722
C99	C	0.287243	-1.323561	0.857722
C100	C	0.537243	-1.073561	1.107722
C101	C	-0.571557	-1.823385	0.609255
C102	C	-0.321557	-1.573385	0.859255
C103	C	-0.071557	-1.323385	1.109255
C104	C	0.178443	-1.073385	1.359255
C105	C	-0.571559	-1.823387	0.716469
C106	C	-0.321559	-1.573387	0.966469
C107	C	-0.071559	-1.323387	1.216469
C108	C	0.178441	-1.073387	1.466469
C109	C	-0.590831	-1.152494	0.338350
C110	C	-0.340831	-0.902494	0.588350
C111	C	-0.090831	-0.652494	0.838350
C112	C	0.159169	-0.402494	1.088350
C113	C	-0.599022	-1.292742	0.330092
C114	C	-0.349022	-1.042742	0.580092
C115	C	-0.099022	-0.792742	0.830092
C116	C	0.150978	-0.542742	1.080092
C117	C	-0.571562	-1.823355	0.912766
C118	C	-0.321562	-1.573355	1.162766
C119	C	-0.071562	-1.323355	1.412766
C120	C	0.178438	-1.073355	1.662766
C121	C	-0.571563	-1.823369	0.803533
C122	C	-0.321563	-1.573369	1.053533
C123	C	-0.071563	-1.323369	1.303533
C124	C	0.178437	-1.073369	1.553533
C125	C	-0.571568	-1.823364	1.107049
C126	C	-0.321568	-1.573364	1.357049
C127	C	-0.071568	-1.323364	1.607049
C128	C	0.178432	-1.073364	1.857049
C129	C	-0.571559	-1.823354	0.999836
C130	C	-0.321559	-1.573354	1.249836
C131	C	-0.071559	-1.323354	1.499836
C132	C	0.178441	-1.073354	1.749836
H133	H	-0.490896	-1.301563	0.438581
H134	H	-0.240896	-1.051563	0.688581
H135	H	0.009104	-0.801563	0.938581
H136	H	0.259104	-0.551563	1.188581
H137	H	-0.652284	-1.346485	0.276654
H138	H	-0.402284	-1.096485	0.526654
H139	H	-0.152284	-0.846485	0.776654
H140	H	0.097716	-0.596485	1.026654
