data_functionalizedCrystal
_audit_creation_method	'MofGen! by Chris Wilmer'
_symmetry_space_group_name_H-M	'P1'
_symmetry_Int_Tables_number	1
_symmetry_cell_setting	triclinic
loop_
_symmetry_equiv_pos_as_xyz
  x,y,z
_cell_length_a	10.654549
_cell_length_b	10.868271
_cell_length_c	10.654550
_cell_angle_alpha	89.995020
_cell_angle_beta	95.515146
_cell_angle_gamma	90.003291
loop_
_atom_site_label
_atom_site_type_symbol
_atom_site_fract_x
_atom_site_fract_y
_atom_site_fract_z
O1	O	1.667841	0.102294	-0.176398
O2	O	2.167841	0.602294	0.323602
O3	O	1.302363	0.102302	-0.193204
O4	O	1.802363	0.602302	0.306796
O5	O	1.493505	0.102290	-0.002062
O6	O	1.993505	0.602290	0.497938
O7	O	1.476699	0.102306	-0.367540
O8	O	1.976699	0.602306	0.132460
O9	O	1.493489	-0.102355	-0.002054
O10	O	1.993489	0.397645	0.497946
O11	O	1.302347	-0.102342	-0.193197
O12	O	1.802347	0.397658	0.306803
O13	O	1.667825	-0.102351	-0.176390
O14	O	2.167825	0.397649	0.323610
Zn15	Zn	1.485083	-0.134838	-0.184792
Zn16	Zn	1.985083	0.365162	0.315208
Zn17	Zn	1.485104	0.134790	-0.184802
Zn18	Zn	1.985104	0.634790	0.315198
O19	O	1.476683	-0.102339	-0.367532
O20	O	1.976683	0.397661	0.132468
C21	C	1.255557	-0.000019	-0.191966
C22	C	1.755557	0.499981	0.308034
C23	C	1.116113	-0.000016	-0.188275
C24	C	1.616113	0.499984	0.311725
C25	C	0.905599	-0.000016	-0.297338
C26	C	1.405599	0.499984	0.202662
C27	C	1.036619	-0.000009	-0.300816
C28	C	1.536619	0.499991	0.199184
C29	C	1.064581	-0.000018	-0.072247
C30	C	1.564581	0.499982	0.427753
C31	C	0.933563	-0.000017	-0.068770
C32	C	1.433563	0.499983	0.431230
N33	N	1.485078	-0.318853	-0.184784
N34	N	1.985078	0.181147	0.315216
C35	C	1.485098	-0.569859	-0.184799
C36	C	1.985098	-0.069859	0.315201
C37	C	1.485083	-0.430181	-0.184795
C38	C	1.985083	0.069819	0.315205
C39	C	1.714631	-0.000027	-0.177628
C40	C	2.214631	0.499973	0.322372
C41	C	1.854074	-0.000022	-0.181319
C42	C	2.354074	0.499978	0.318681
C43	C	1.492263	-0.000032	0.044740
C44	C	1.992263	0.499968	0.544740
C45	C	1.488571	-0.000030	0.184183
C46	C	1.988571	0.499970	0.684183
N47	N	1.485119	0.318804	-0.184800
N48	N	1.985119	0.818804	0.315200
C49	C	1.477925	-0.000014	-0.414334
C50	C	1.977925	0.499986	0.085666
C51	C	1.481617	-0.000008	-0.553777
C52	C	1.981617	0.499992	-0.053777
C53	C	1.601113	-0.000032	0.263669
C54	C	2.101113	0.499968	0.763669
C55	C	1.597636	-0.000017	0.394690
C56	C	2.097636	0.499983	0.894690
C57	C	1.369067	-0.000002	0.366727
C58	C	1.869067	0.499998	0.866727
C59	C	1.372544	-0.000009	0.235708
C60	C	1.872544	0.499991	0.735708
H61	H	0.891613	-0.000018	0.025712
H62	H	1.391613	0.499982	0.525712
H63	H	1.689279	-0.000016	0.459403
H64	H	2.189279	0.499984	0.959403
C65	C	1.728745	-0.000041	0.206997
C66	C	2.228745	0.499959	0.706997
N67	N	1.824881	-0.000043	0.164315
N68	N	2.324881	0.499957	0.664315
C69	C	1.093289	-0.000012	-0.428446
C70	C	1.593289	0.499988	0.071554
N71	N	1.135971	-0.000016	-0.524582
N72	N	1.635971	0.499984	-0.024582
H73	H	0.840882	-0.000020	-0.388983
H74	H	1.340882	0.499980	0.111017
H75	H	1.129316	-0.000017	0.019386
H76	H	1.629316	0.499983	0.519386
H77	H	1.274601	0.000012	0.408694
H78	H	1.774601	0.500012	0.908694
H79	H	1.280894	-0.000003	0.170987
H80	H	1.780894	0.499997	0.670987
