data_functionalizedCrystal
_audit_creation_method	'MofGen! by Chris Wilmer'
_symmetry_space_group_name_H-M	'P1'
_symmetry_Int_Tables_number	1
_symmetry_cell_setting	triclinic
loop_
_symmetry_equiv_pos_as_xyz
  x,y,z
_cell_length_a	17.077404
_cell_length_b	19.805405
_cell_length_c	17.077396
_cell_angle_alpha	89.971037
_cell_angle_beta	89.981638
_cell_angle_gamma	90.024696
loop_
_atom_site_label
_atom_site_type_symbol
_atom_site_fract_x
_atom_site_fract_y
_atom_site_fract_z
Zn1	Zn	1.200034	-0.269500	-0.443816
Zn2	Zn	1.700034	0.230500	0.056184
Zn3	Zn	1.199932	-0.382693	-0.312549
Zn4	Zn	1.699932	0.117307	0.187451
Zn5	Zn	1.068765	-0.269519	-0.312567
Zn6	Zn	1.568765	0.230481	0.187433
Zn7	Zn	1.068725	-0.382648	-0.443775
Zn8	Zn	1.568725	0.117352	0.056225
O9	O	1.134364	-0.326090	-0.378177
O10	O	1.634364	0.173910	0.121823
O11	O	1.309867	-0.284526	-0.426413
O12	O	1.809867	0.215474	0.073587
O13	O	1.182507	-0.367707	-0.202704
O14	O	1.682507	0.132293	0.297296
O15	O	1.086238	-0.174800	-0.330002
O16	O	1.586238	0.325200	0.169998
O17	O	1.309792	-0.367688	-0.329972
O18	O	1.809792	0.132312	0.170028
O19	O	1.182680	-0.174786	-0.426430
O20	O	1.682680	0.325214	0.073570
O21	O	1.086139	-0.284559	-0.202717
O22	O	1.586139	0.215441	0.297283
O23	O	0.958913	-0.284515	-0.329962
O24	O	1.458913	0.215485	0.170038
O25	O	1.086169	-0.367612	-0.553628
O26	O	1.586169	0.132388	-0.053628
O27	O	0.958883	-0.367631	-0.426360
O28	O	1.458883	0.132369	0.073640
O29	O	1.182641	-0.284482	-0.553658
O30	O	1.682641	0.215518	-0.053658
O31	O	1.182467	-0.477404	-0.329932
O32	O	1.682467	0.022596	0.170068
O33	O	1.086070	-0.477371	-0.426343
O34	O	1.586070	0.022629	0.073657
C35	C	0.930416	-0.326071	-0.378159
C36	C	1.430416	0.173929	0.121841
C37	C	0.843166	-0.326079	-0.378170
C38	C	1.343166	0.173921	0.121830
C39	C	0.802216	-0.282853	-0.428464
C40	C	1.302216	0.217147	0.071536
C41	C	0.720235	-0.282858	-0.428468
C42	C	1.220235	0.217142	0.071532
C43	C	0.679207	-0.326092	-0.378181
C44	C	1.179207	0.173908	0.121819
C45	C	0.720163	-0.369319	-0.327882
C46	C	1.220163	0.130681	0.172118
C47	C	0.802142	-0.369311	-0.327875
C48	C	1.302142	0.130689	0.172125
C49	C	0.549293	-0.369335	-0.327901
C50	C	1.049293	0.130665	0.172099
C51	C	0.467308	-0.369344	-0.327909
C52	C	0.967308	0.130656	0.172091
C53	C	0.467386	-0.282881	-0.428494
C54	C	0.967386	0.217119	0.071506
C55	C	0.549365	-0.282873	-0.428487
C56	C	1.049365	0.217127	0.071513
C57	C	0.590316	-0.326102	-0.378189
C58	C	1.090316	0.173898	0.121811
C59	C	1.134274	-0.501946	-0.378148
C60	C	1.634274	-0.001946	0.121852
C61	C	1.134308	-0.577178	-0.378163
C62	C	1.634308	-0.077178	0.121837
C63	C	1.184496	-0.612457	-0.428412
C64	C	1.684496	-0.112457	0.071588
C65	C	1.184524	-0.683145	-0.428427
C66	C	1.684524	-0.183145	0.071573
C67	C	1.134368	-0.718554	-0.378187
C68	C	1.634368	-0.218554	0.121813
C69	C	1.084175	-0.683270	-0.327935
C70	C	1.584175	-0.183270	0.172065
C71	C	1.084143	-0.612583	-0.327925
C72	C	1.584143	-0.112583	0.172075
C73	C	1.084301	-0.968343	-0.327976
C74	C	1.584301	-0.468343	0.172024
C75	C	1.084338	-1.039035	-0.327988
C76	C	1.584338	-0.539035	0.172012
C77	C	1.184682	-1.038905	-0.428477
C78	C	1.684682	-0.538905	0.071523
C79	C	1.184650	-0.968218	-0.428467
C80	C	1.684650	-0.468218	0.071533
C81	C	1.134454	-0.932941	-0.378218
C82	C	1.634454	-0.432941	0.121782
C83	C	1.134423	-0.856293	-0.378204
C84	C	1.634423	-0.356293	0.121796
C85	C	1.134403	-0.795201	-0.378197
C86	C	1.634403	-0.295201	0.121803
C87	C	1.339108	-0.326110	-0.378195
C88	C	1.839108	0.173890	0.121805
C89	C	1.426358	-0.326118	-0.378203
C90	C	1.926358	0.173882	0.121797
C91	C	1.134411	-0.326040	-0.582921
C92	C	1.634411	0.173960	-0.082921
C93	C	1.134432	-0.326019	-0.670171
C94	C	1.634432	0.173981	-0.170171
C95	C	1.134475	-0.149547	-0.378223
C96	C	1.634475	0.350453	0.121777
C97	C	1.134522	-0.074315	-0.378242
C98	C	1.634522	0.425685	0.121758
C99	C	1.184667	-0.282730	-0.711178
C100	C	1.684667	0.217270	-0.211178
C101	C	1.184676	-0.282707	-0.793159
C102	C	1.684676	0.217293	-0.293159
C103	C	1.134454	-0.325978	-0.834131
C104	C	1.634454	0.174022	-0.334131
C105	C	1.084214	-0.369269	-0.793118
C106	C	1.584214	0.130731	-0.293118
C107	C	1.084201	-0.369287	-0.711139
C108	C	1.584201	0.130713	-0.211139
C109	C	1.084245	-0.369228	-0.963988
C110	C	1.584245	0.130772	-0.463988
C111	C	1.084259	-0.369211	-1.045973
C112	C	1.584259	0.130789	-0.545973
C113	C	1.184720	-0.282648	-1.046008
C114	C	1.684720	0.217352	-0.546008
C115	C	1.184708	-0.282666	-0.964029
C116	C	1.684708	0.217334	-0.464029
C117	C	1.134468	-0.325959	-0.923022
C118	C	1.634468	0.174041	-0.423022
C119	C	1.134362	-0.326091	-0.174229
C120	C	1.634362	0.173909	0.325771
C121	C	1.134494	-0.325921	-0.086980
C122	C	1.634494	0.174079	0.413020
H123	H	0.835483	-0.404509	-0.286920
H124	H	1.335483	0.095491	0.213080
H125	H	1.043274	-0.583860	-0.287008
H126	H	1.543274	-0.083860	0.212992
H127	H	1.225584	-0.247458	-0.826543
H128	H	1.725584	0.252542	-0.326543
Br129	Br	0.605047	-0.224205	-0.496743
Br130	Br	1.105047	0.275795	0.003257
H131	H	1.225342	-0.583632	-0.469320
H132	H	1.725342	-0.083632	0.030680
H133	H	1.043491	-1.067863	-0.287075
H134	H	1.543491	-0.567863	0.212925
H135	H	1.043286	-0.404531	-0.677752
H136	H	1.543286	0.095469	-0.177752
H137	H	0.433905	-0.404549	-0.286962
H138	H	0.933905	0.095451	0.213038
Br139	Br	0.411812	-0.224213	-0.496756
Br140	Br	0.911812	0.275787	0.003244
H141	H	1.225607	-0.247436	-0.930672
H142	H	1.725607	0.252564	-0.430672
Br143	Br	1.252625	-0.731021	-0.496639
Br144	Br	1.752625	-0.231021	0.003361
H145	H	1.043322	-0.404471	-0.930602
H146	H	1.543322	0.095529	-0.430602
Br147	Br	0.664662	-0.224192	-0.496727
Br148	Br	1.164662	0.275808	0.003273
H149	H	1.043362	-0.404444	-1.079330
H150	H	1.543362	0.095556	-0.579330
Br151	Br	1.252725	-0.920167	-0.496648
Br152	Br	1.752725	-0.420167	0.003352
H153	H	1.225626	-0.247397	-1.079400
H154	H	1.725626	0.252603	-0.579400
H155	H	1.043334	-0.712105	-0.287033
H156	H	1.543334	-0.212105	0.212967
Br157	Br	0.857889	-0.224180	-0.496720
Br158	Br	1.357889	0.275820	0.003280
Br159	Br	0.604869	-0.428006	-0.259643
Br160	Br	1.104869	0.071994	0.240357
H161	H	1.225551	-1.067637	-0.469395
H162	H	1.725551	-0.567637	0.030605
Br163	Br	1.016168	-0.920476	-0.259791
Br164	Br	1.516168	-0.420476	0.240209
H165	H	0.686751	-0.404518	-0.286934
H166	H	1.186751	0.095482	0.213066
H167	H	1.225566	-0.247496	-0.677825
H168	H	1.725566	0.252504	-0.177825
H169	H	1.043319	-0.404498	-0.826484
H170	H	1.543319	0.095502	-0.326484
