data_functionalizedCrystal
_audit_creation_method	'MofGen! by Chris Wilmer'
_symmetry_space_group_name_H-M	'P1'
_symmetry_Int_Tables_number	1
_symmetry_cell_setting	triclinic
loop_
_symmetry_equiv_pos_as_xyz
  x,y,z
_cell_length_a	16.959454
_cell_length_b	12.759395
_cell_length_c	16.959447
_cell_angle_alpha	89.983293
_cell_angle_beta	90.025463
_cell_angle_gamma	89.978388
loop_
_atom_site_label
_atom_site_type_symbol
_atom_site_fract_x
_atom_site_fract_y
_atom_site_fract_z
Zn1	Zn	-0.314643	-1.606190	0.446902
Zn2	Zn	-0.446833	-1.606076	0.314732
Zn3	Zn	-0.314676	-1.430500	0.314742
Zn4	Zn	-0.446787	-1.430464	0.446873
O5	O	-0.380735	-1.518307	0.380812
O6	O	-0.332184	-1.753196	0.429377
O7	O	-0.429335	-1.582752	0.204122
O8	O	-0.204061	-1.453868	0.332290
O9	O	-0.429303	-1.753112	0.332272
O10	O	-0.204037	-1.582947	0.429387
O11	O	-0.332239	-1.453758	0.204130
O12	O	-0.332195	-1.283474	0.332262
O13	O	-0.429226	-1.453807	0.557488
O14	O	-0.429257	-1.283448	0.429338
O15	O	-0.332140	-1.582912	0.557509
O16	O	-0.557438	-1.582718	0.332244
O17	O	-0.557404	-1.453697	0.429328
C18	C	-0.380725	-1.245340	0.380799
C19	C	-0.380740	-1.128563	0.380811
C20	C	-0.586101	-1.518219	0.380799
C21	C	-0.673958	-1.518278	0.380819
C22	C	-0.380674	-1.518369	0.586980
C23	C	-0.380648	-1.518395	0.674837
C24	C	-1.045446	-1.451224	0.431358
C25	C	-1.045421	-1.585684	0.330347
C26	C	-0.962875	-1.585647	0.330339
C27	C	-0.921611	-1.518397	0.380841
C28	C	-0.962892	-1.451183	0.431351
C29	C	-0.921587	-1.652852	0.279825
C30	C	-0.839036	-1.652818	0.279815
C31	C	-0.797770	-1.585571	0.330322
C32	C	-0.839057	-1.518356	0.380834
C33	C	-0.797793	-1.451105	0.431336
C34	C	-0.839078	-1.383894	0.481853
C35	C	-0.921627	-1.383936	0.481858
C36	C	-0.715222	-1.585529	0.330317
C37	C	-0.715239	-1.451064	0.431329
C38	C	-0.174567	-1.518424	0.380843
C39	C	-0.086710	-1.518474	0.380856
C40	C	-0.380745	-1.792341	0.380826
C41	C	-0.380750	-1.909118	0.380832
C42	C	-0.481974	-1.128574	0.481733
C43	C	-0.532597	-1.073719	0.532196
C44	C	-0.532607	-0.963998	0.532206
C45	C	-0.481986	-0.909129	0.481749
C46	C	-0.431363	-0.963984	0.431286
C47	C	-0.431361	-1.073708	0.431280
C48	C	-0.330126	-0.963973	0.330369
C49	C	-0.330120	-1.073694	0.330354
C50	C	-0.279506	-0.909104	0.279912
C51	C	-0.228885	-0.963959	0.229444
C52	C	-0.228878	-1.073687	0.229435
C53	C	-0.279496	-1.128550	0.279891
C54	C	-0.380739	-1.518307	0.175446
C55	C	-0.380542	-1.518484	0.087590
C56	C	-0.431188	-1.585570	0.716109
C57	C	-0.330088	-1.451238	0.716119
C58	C	-0.330065	-1.451256	0.798665
C59	C	-0.380605	-1.518431	0.839937
C60	C	-0.431168	-1.585588	0.798662
C61	C	-0.279509	-1.384092	0.839946
C62	C	-0.279484	-1.384107	0.922497
C63	C	-0.330021	-1.451288	0.963770
C64	C	-0.380585	-1.518449	0.922490
C65	C	-0.431125	-1.585624	0.963762
C66	C	-0.481686	-1.652790	0.922484
C67	C	-0.481704	-1.652769	0.839935
C68	C	-0.330002	-1.451309	1.046318
C69	C	-0.431105	-1.585641	1.046315
H70	H	-0.681647	-1.396304	0.472457
O71	O	-0.482117	-1.235157	0.481710
C72	C	-0.557838	-1.271762	0.461244
H73	H	-0.603387	-1.208519	0.474678
H74	H	-0.571938	-1.345187	0.496856
H75	H	-0.559421	-1.291180	0.395652
H76	H	-0.279514	-0.819763	0.279927
H77	H	-0.238367	-1.329395	0.806336
O78	O	-0.480236	-1.650754	1.086492
C79	C	-0.531295	-1.590928	1.134210
H80	H	-0.503421	-1.511320	1.146572
H81	H	-0.541870	-1.633729	1.192261
H82	H	-0.589880	-1.579359	1.102383
O83	O	-0.481993	-0.802546	0.481615
C84	C	-0.502212	-0.765836	0.405833
H85	H	-0.488647	-0.829047	0.360322
H86	H	-0.466542	-0.692440	0.391854
H87	H	-0.567795	-0.746335	0.404045
H88	H	-0.522869	-1.707451	0.806319
H89	H	-0.522838	-1.707481	0.956098
H90	H	-0.187670	-0.919276	0.188369
H91	H	-0.681611	-1.640246	0.289184
H92	H	-0.279498	-1.217891	0.279887
O93	O	-0.480276	-1.650713	0.675895
C94	C	-0.469444	-1.636321	0.594184
H95	H	-0.443561	-1.555252	0.582902
H96	H	-0.528658	-1.643416	0.562800
H97	H	-0.427356	-1.698657	0.570777
O98	O	-0.179618	-1.127016	0.180526
C99	C	-0.128635	-1.190551	0.225610
H100	H	-0.123840	-1.157527	0.287878
H101	H	-0.067766	-1.191799	0.197132
H102	H	-0.153071	-1.273700	0.228276
H103	H	-0.288946	-1.396541	0.682511
O104	O	-0.230293	-1.318838	0.962468
C105	C	-0.185706	-1.259525	0.908338
H106	H	-0.182988	-1.302543	0.849497
H107	H	-0.123421	-1.248357	0.932196
H108	H	-0.214653	-1.179714	0.899550
O109	O	-0.581819	-0.910594	0.581117
C110	C	-0.632829	-0.847103	0.536027
H111	H	-0.604873	-0.830648	0.476176
H112	H	-0.643468	-0.769957	0.568209
H113	H	-0.691391	-0.889361	0.527237
O114	O	-0.280855	-1.386218	1.086501
C115	C	-0.229772	-1.446066	1.134249
H116	H	-0.257641	-1.525678	1.146618
H117	H	-0.219165	-1.403290	1.192296
H118	H	-0.171204	-1.457624	1.102445
H119	H	-0.955248	-1.329215	0.522985
O120	O	-0.798953	-1.318719	0.530993
C121	C	-0.751122	-1.378477	0.582058
H122	H	-0.775953	-1.461230	0.586999
H123	H	-0.750161	-1.340433	0.642863
H124	H	-0.688575	-1.382088	0.557604
H125	H	-1.079064	-1.396505	0.472490
O126	O	-0.798848	-1.718159	0.230860
C127	C	-0.751055	-1.785977	0.275908
H128	H	-0.738679	-1.748868	0.335783
H129	H	-0.693014	-1.800058	0.243719
H130	H	-0.782824	-1.863842	0.284646
H131	H	-0.573810	-1.118406	0.573279
H132	H	-1.079023	-1.640430	0.289225
H133	H	-0.955190	-1.707597	0.238703
