data_functionalizedCrystal
_audit_creation_method	'MofGen! by Chris Wilmer'
_symmetry_space_group_name_H-M	'P1'
_symmetry_Int_Tables_number	1
_symmetry_cell_setting	triclinic
loop_
_symmetry_equiv_pos_as_xyz
  x,y,z
_cell_length_a	15.995350
_cell_length_b	15.995300
_cell_length_c	14.472311
_cell_angle_alpha	89.996261
_cell_angle_beta	89.998542
_cell_angle_gamma	83.482091
loop_
_atom_site_label
_atom_site_type_symbol
_atom_site_fract_x
_atom_site_fract_y
_atom_site_fract_z
O1	O	-1.110966	-0.107933	0.076753
O2	O	-0.867189	-0.121261	0.076771
O3	O	-0.995763	0.007293	0.076766
O4	O	-0.982392	-0.236488	0.076758
O5	O	-0.995752	0.007306	-0.076916
O6	O	-0.867177	-0.121249	-0.076911
O7	O	-1.110955	-0.107921	-0.076929
Cu8	Cu	-0.989065	-0.114584	-0.090952
Cu9	Cu	-0.989079	-0.114598	0.090795
O10	O	-0.982380	-0.236475	-0.076924
C11	C	-0.835988	-0.120704	-0.000067
C12	C	-0.743038	-0.119052	-0.000060
C13	C	-1.142155	-0.108478	-0.000088
C14	C	-1.235105	-0.110130	-0.000089
C15	C	-0.405292	-0.113120	-0.000079
C16	C	-0.452742	-0.021566	-0.000419
C17	C	-0.549432	-0.023218	-0.000066
C18	C	-0.572852	-0.116062	-0.000070
C19	C	-0.531763	-0.161227	0.087684
C20	C	-0.435128	-0.158927	0.087752
C21	C	-0.434775	-0.160805	-0.087014
C22	C	-0.531721	-0.160783	-0.088167
C23	C	-0.667549	-0.117730	-0.000062
C24	C	-0.310594	-0.111455	-0.000081
C25	C	-0.995212	0.038495	-0.000072
C26	C	-0.993577	0.131448	-0.000062
C27	C	-0.982931	-0.267677	-0.000084
C28	C	-0.984566	-0.360630	-0.000088
C29	C	-0.990558	0.301631	-0.000071
C30	C	-1.082105	0.349096	-0.000076
C31	C	-1.080435	0.445784	-0.000428
C32	C	-0.987586	0.469187	-0.000079
C33	C	-0.942159	0.428060	-0.087662
C34	C	-0.944476	0.331427	-0.087732
C35	C	-0.943133	0.331137	0.087039
C36	C	-0.943142	0.428081	0.088187
C37	C	-0.985901	0.563883	-0.000086
C38	C	-0.992239	0.206935	-0.000070
N39	N	-0.989061	-0.114573	-0.218783
C40	C	-0.989070	-0.114583	-0.407283
C41	C	-1.057884	-0.045820	-0.446488
C42	C	-1.058133	-0.046003	-0.553576
C43	C	-0.989080	-0.114592	-0.592874
C44	C	-1.007784	-0.202067	-0.553986
C45	C	-1.008273	-0.201658	-0.446864
C46	C	-0.901346	-0.096659	-0.446767
C47	C	-0.901940	-0.094680	-0.553895
C48	C	-0.989083	-0.114603	-0.697763
C49	C	-0.989069	-0.114579	-0.302395
N50	N	-0.989089	-0.114603	0.218625
H51	H	-0.577863	0.012283	-0.062973
H52	H	-0.959901	-0.254259	-0.420929
H53	H	-0.545876	-0.229438	0.090945
H54	H	-0.875633	0.299366	0.087879
H55	H	-0.547073	-0.228487	-0.093471
H56	H	-0.416830	-0.126002	0.153353
H57	H	-0.883279	-0.034217	-0.419755
H58	H	-1.118368	0.329433	-0.062747
H59	H	-0.577301	0.012513	0.062952
H60	H	-0.850141	-0.146802	-0.421413
H61	H	-0.877251	0.299154	-0.091465
H62	H	-0.973321	0.456418	-0.153092
H63	H	-0.973277	0.310630	0.153445
H64	H	-1.116130	0.474244	0.062340
H65	H	-0.434222	0.015036	-0.063351
H66	H	-0.559038	-0.127813	-0.153088
H67	H	-0.433160	0.014857	0.062169
H68	H	-0.403002	-0.228307	-0.087610
H69	H	-1.118896	0.330613	0.062730
H70	H	-0.560148	-0.129868	0.152996
H71	H	-0.402867	-0.226145	0.091731
H72	H	-0.875451	0.443425	0.093744
H73	H	-1.122622	-0.057136	-0.419555
H74	H	-0.873935	0.442160	-0.090668
H75	H	-1.047051	0.019010	-0.579870
H76	H	-0.958981	-0.254485	-0.579440
H77	H	-0.848361	-0.141495	-0.580643
H78	H	-1.046999	0.019408	-0.420714
H79	H	-0.414240	-0.130868	-0.153530
H80	H	-1.071017	-0.218189	-0.580813
H81	H	-1.115966	0.473636	-0.063583
H82	H	-1.123241	-0.057491	-0.579201
H83	H	-0.977204	0.313111	-0.153455
H84	H	-0.976315	0.455417	0.152982
H85	H	-1.072238	-0.217402	-0.421878
H86	H	-0.887738	-0.030328	-0.579313
