data_functionalizedCrystal
_audit_creation_method	'MofGen! by Chris Wilmer'
_symmetry_space_group_name_H-M	'P1'
_symmetry_Int_Tables_number	1
_symmetry_cell_setting	triclinic
loop_
_symmetry_equiv_pos_as_xyz
  x,y,z
_cell_length_a	8.497374
_cell_length_b	19.077105
_cell_length_c	19.077068
_cell_angle_alpha	89.884684
_cell_angle_beta	92.284024
_cell_angle_gamma	92.300019
loop_
_atom_site_label
_atom_site_type_symbol
_atom_site_fract_x
_atom_site_fract_y
_atom_site_fract_z
Zn1	Zn	1.016648	1.062860	0.323110
Zn2	Zn	0.762970	1.058079	0.440586
Zn3	Zn	0.741875	0.945387	0.318369
Zn4	Zn	1.015701	0.940595	0.435851
O5	O	0.884299	1.001730	0.379479
O6	O	0.992222	1.160556	0.342659
O7	O	0.539410	1.043135	0.424372
O8	O	0.769893	0.964977	0.220667
O9	O	0.805846	1.157044	0.428968
O10	O	0.971767	1.051283	0.224150
O11	O	0.523911	0.960341	0.334579
O12	O	0.768974	0.846421	0.329988
O13	O	1.236588	0.956809	0.420898
O14	O	0.970152	0.842901	0.416301
O15	O	1.237285	1.046636	0.338067
O16	O	0.804927	1.038488	0.538289
O17	O	0.990607	0.952173	0.534810
C18	C	0.867172	0.819165	0.372117
C19	C	0.859884	0.741062	0.368984
C20	C	0.899989	0.994311	0.562047
C21	C	0.906761	0.991201	0.640152
C22	C	0.961050	0.702552	0.412519
C23	C	0.954209	0.629166	0.409566
C24	C	0.846193	0.594292	0.363082
C25	C	0.745023	0.632808	0.319542
C26	C	0.751873	0.706192	0.322492
C27	C	0.814499	0.375011	0.349430
C28	C	0.807654	0.301621	0.346485
C29	C	1.016843	0.297985	0.436509
C30	C	1.023677	0.371371	0.439457
C31	C	0.922512	0.409880	0.395915
N32	N	0.839195	0.519280	0.360064
N33	N	0.929519	0.484891	0.398930
C34	C	1.295778	1.001725	0.379480
C35	C	1.474423	1.001726	0.379487
C36	C	0.901493	1.185009	0.386870
C37	C	0.908820	1.263111	0.390020
C38	C	0.868583	1.009198	0.196199
C39	C	0.861886	1.012380	0.118097
C40	C	0.813355	1.034715	0.678636
C41	C	0.819734	1.031794	0.752025
C42	C	0.919510	0.985356	0.786928
C43	C	1.012926	0.941841	0.748439
C44	C	1.006555	0.944765	0.675052
C45	C	0.948930	0.971789	1.006221
C46	C	0.955291	0.968866	1.079613
C47	C	0.762100	1.058821	1.083193
C48	C	0.755730	1.061739	1.009804
C49	C	0.849152	1.018226	0.971322
N50	N	0.926029	0.982368	0.861943
N51	N	0.842641	1.021218	0.896309
H52	H	1.049004	0.730941	0.450374
H53	H	0.732099	1.072527	0.650222
C54	C	1.109296	0.896898	0.632716
C55	C	1.089665	0.816616	0.639655
C56	C	1.192414	0.768750	0.597320
C57	C	1.314795	0.801164	0.548045
C58	C	1.334432	0.881450	0.541105
C59	C	1.231682	0.929317	0.583440
H60	H	0.999066	0.792617	0.676133
H61	H	1.177877	0.709317	0.602458
H62	H	1.390856	0.765731	0.516706
H63	H	1.425030	0.905449	0.504627
H64	H	1.246220	0.988749	0.578302
H65	H	0.686043	1.094248	1.114533
H66	H	1.036570	0.931059	1.108030
C67	C	1.142509	0.409726	0.490589
C68	C	1.135271	0.396389	0.570056
C69	C	1.254102	0.434742	0.621190
C70	C	1.380171	0.486434	0.592857
C71	C	1.387414	0.499774	0.513387
C72	C	1.268583	0.461420	0.462252
H73	H	1.041942	0.358121	0.591033
H74	H	1.248740	0.424867	0.680020
H75	H	1.468137	0.514825	0.630710
H76	H	1.480743	0.538041	0.492409
H77	H	1.273945	0.471296	0.403423
C78	C	1.122682	0.890757	0.786831
C79	C	1.225429	0.842893	0.744498
C80	C	1.335182	0.791806	0.782887
C81	C	1.342188	0.788582	0.863610
C82	C	1.239438	0.836448	0.905948
C83	C	1.129684	0.887535	0.867558
H84	H	1.220246	0.845278	0.684738
H85	H	1.411245	0.756373	0.751545
H86	H	1.423434	0.750764	0.892028
H87	H	1.244621	0.834063	0.965708
H88	H	1.053621	0.922968	0.898900
C89	C	0.626215	0.594449	0.268403
C90	C	0.514944	0.636812	0.220509
C91	C	0.396135	0.598455	0.169368
C92	C	0.388596	0.517735	0.166119
C93	C	0.499870	0.475367	0.214014
C94	C	0.618679	0.513724	0.265156
H95	H	0.520522	0.696569	0.222912
H96	H	0.313763	0.629818	0.133913
H97	H	0.300646	0.489341	0.128261
H98	H	0.494293	0.415610	0.211611
H99	H	0.701052	0.482361	0.300611
H100	H	1.036588	0.597814	0.445018
C101	C	1.128133	0.255624	0.484397
C102	C	1.120615	0.174904	0.481155
C103	C	1.231916	0.132544	0.529042
C104	C	1.350734	0.170903	0.580172
C105	C	1.358257	0.251628	0.583416
C106	C	1.246956	0.293988	0.535528
H107	H	1.032654	0.146504	0.443304
H108	H	1.226347	0.072786	0.526640
H109	H	1.433126	0.139546	0.615621
H110	H	1.446217	0.280028	0.621267
H111	H	1.252525	0.353746	0.537930
H112	H	0.669500	0.737547	0.287037
C113	C	0.688833	0.263258	0.295347
C114	C	0.681293	0.182538	0.292110
C115	C	0.562476	0.144174	0.240977
C116	C	0.451199	0.186531	0.193081
C117	C	0.458735	0.267256	0.196317
C118	C	0.577552	0.305619	0.247450
H119	H	0.763671	0.151179	0.327567
H120	H	0.556899	0.084416	0.238582
H121	H	0.363243	0.158131	0.155229
H122	H	0.376357	0.298615	0.160860
H123	H	0.583129	0.365377	0.249845
H124	H	0.732112	0.406356	0.313981
C125	C	0.716987	1.079664	0.794352
C126	C	0.536230	1.074400	0.784073
C127	C	0.433483	1.122276	0.826399
C128	C	0.511492	1.175417	0.879004
C129	C	0.692258	1.180684	0.889285
C130	C	0.795005	1.132807	0.846960
H131	H	0.478475	1.035059	0.745129
H132	H	0.299668	1.118377	0.818787
H133	H	0.435432	1.210858	0.910336
H134	H	0.750014	1.220024	0.928229
H135	H	0.928821	1.136707	0.854571
H136	H	0.674484	1.099553	0.981387
H137	H	1.024995	0.936358	0.974894
