data_functionalizedCrystal
_audit_creation_method	'MofGen! by Chris Wilmer'
_symmetry_space_group_name_H-M	'P1'
_symmetry_Int_Tables_number	1
_symmetry_cell_setting	triclinic
loop_
_symmetry_equiv_pos_as_xyz
  x,y,z
_cell_length_a	15.712078
_cell_length_b	11.792241
_cell_length_c	14.185569
_cell_angle_alpha	76.753184
_cell_angle_beta	107.170411
_cell_angle_gamma	101.887282
loop_
_atom_site_label
_atom_site_type_symbol
_atom_site_fract_x
_atom_site_fract_y
_atom_site_fract_z
O1	O	1.130241	0.641279	-0.083656
O2	O	0.878192	0.554700	-0.083605
O3	O	1.010335	0.435308	-0.083625
O4	O	0.998098	0.760672	-0.083637
O5	O	1.049371	0.400044	0.083204
O6	O	0.917228	0.519436	0.083223
O7	O	1.169277	0.606015	0.083172
Cu8	Cu	1.046817	0.559506	0.098431
Cu9	Cu	1.000652	0.601210	-0.098864
O10	O	1.037135	0.725408	0.083192
C11	C	0.865442	0.522925	-0.000184
C12	C	0.769294	0.480767	-0.000165
C13	C	0.403856	0.838676	-0.000247
C14	C	0.313503	0.799045	-0.000270
C15	C	0.333189	0.600440	-0.000265
C16	C	0.423545	0.640055	-0.000247
C17	C	0.458870	0.759174	-0.000236
C18	C	0.478559	0.560554	-0.000236
C19	C	0.568908	0.600165	-0.000213
C20	C	0.604242	0.719278	-0.000199
C21	C	0.549219	0.798785	-0.000212
C22	C	0.443233	0.441434	-0.000240
C23	C	0.498248	0.361932	-0.000229
C24	C	0.588597	0.401545	-0.000213
C25	C	0.623931	0.520658	-0.000199
C26	C	0.643619	0.322037	-0.000199
C27	C	0.733968	0.361649	-0.000175
C28	C	0.714279	0.560269	-0.000175
C29	C	1.029084	0.375072	-0.000211
C30	C	1.026784	0.248122	-0.000211
C31	C	1.022551	0.015692	-0.000227
C32	C	1.024903	0.145032	-0.000219
C33	C	1.182027	0.637792	-0.000251
C34	C	1.278173	0.679950	-0.000277
C35	C	1.018384	0.785644	-0.000224
C36	C	1.020683	0.912595	-0.000230
N37	N	1.079293	0.530176	0.237197
N38	N	0.968183	0.630534	-0.237630
C39	C	0.872768	0.716657	0.604878
C40	C	0.897374	0.694449	0.709895
C41	C	1.014411	0.588795	0.709839
C42	C	0.989811	0.610988	0.604819
C43	C	0.918990	0.674921	0.552346
C44	C	1.036033	0.569253	0.552288
C45	C	1.011439	0.591450	0.447277
C46	C	0.940622	0.655383	0.394797
C47	C	0.894395	0.697118	0.447336
C48	C	1.106859	0.505327	0.604762
C49	C	1.153081	0.463592	0.552231
C50	C	1.128482	0.485781	0.447219
C51	C	1.057666	0.549714	0.394739
C52	C	1.174709	0.444046	0.394680
C53	C	1.150114	0.466243	0.289669
C54	C	1.033071	0.571912	0.289728
H55	H	0.677811	0.751527	-0.000175
C56	C	1.133911	0.480911	0.720278
N57	N	1.154285	0.462519	0.807285
C58	C	0.588080	0.929825	-0.000210
N59	N	0.617351	1.028519	-0.000206
H60	H	0.469476	0.264942	-0.000226
H61	H	0.304417	0.503451	-0.000262
H62	H	1.072076	0.536744	0.752574
H63	H	0.614846	0.225048	-0.000195
H64	H	0.920601	0.673459	0.309291
C65	C	1.230980	0.393263	0.609963
N66	N	1.289652	0.340285	0.653445
C67	C	0.846517	0.740364	0.767676
N68	N	0.808214	0.774947	0.811196
C69	C	0.343845	0.397864	-0.000268
N70	N	0.268986	0.365049	-0.000292
C71	C	0.816452	0.767387	0.389610
N72	N	0.757738	0.820294	0.346131
C73	C	0.442717	0.969715	-0.000244
N74	N	0.471988	1.068409	-0.000241
H75	H	0.975395	0.623961	0.247003
C76	C	1.200959	0.420328	0.231882
N77	N	1.239258	0.385745	0.188356
H78	H	0.778762	0.296910	-0.000170
C79	C	0.252985	0.886517	-0.000295
N80	N	0.207402	0.952400	-0.000316
H81	H	0.743044	0.657267	-0.000165
C82	C	0.794825	0.786925	0.547152
N83	N	0.736111	0.839832	0.503673
C84	C	1.252614	0.373727	0.452414
N85	N	1.311292	0.320761	0.495899
