data_functionalizedCrystal
_audit_creation_method	'MofGen! by Chris Wilmer'
_symmetry_space_group_name_H-M	'P1'
_symmetry_Int_Tables_number	1
_symmetry_cell_setting	triclinic
loop_
_symmetry_equiv_pos_as_xyz
  x,y,z
_cell_length_a	13.033293
_cell_length_b	16.625545
_cell_length_c	13.032268
_cell_angle_alpha	97.146495
_cell_angle_beta	89.079182
_cell_angle_gamma	97.195104
loop_
_atom_site_label
_atom_site_type_symbol
_atom_site_fract_x
_atom_site_fract_y
_atom_site_fract_z
Zn1	Zn	1.498419	-0.250858	-0.781472
Zn2	Zn	1.998419	0.249142	-0.281472
Zn3	Zn	1.520141	-0.366731	-0.609493
Zn4	Zn	2.020141	0.133269	-0.109493
Zn5	Zn	1.348280	-0.246600	-0.587647
Zn6	Zn	1.848280	0.253400	-0.087647
Zn7	Zn	1.326386	-0.400344	-0.759532
Zn8	Zn	1.826386	0.099656	-0.259532
O9	O	1.423306	-0.316133	-0.684536
O10	O	1.923306	0.183867	-0.184536
O11	O	1.645221	-0.253943	-0.776983
O12	O	2.145221	0.246057	-0.276983
O13	O	1.515597	-0.334946	-0.462688
O14	O	2.015597	0.165054	0.037312
O15	O	1.368267	-0.134329	-0.613398
O16	O	1.868267	0.365671	-0.113398
O17	O	1.661180	-0.339075	-0.650631
O18	O	2.161180	0.160925	-0.150631
O19	O	1.478574	-0.137457	-0.755799
O20	O	1.978574	0.362543	-0.255799
O21	O	1.389331	-0.246686	-0.446638
O22	O	1.889331	0.253314	0.053362
O23	O	1.201454	-0.279279	-0.592124
O24	O	1.701454	0.220721	-0.092124
O25	O	1.330953	-0.396363	-0.906350
O26	O	1.830953	0.103637	-0.406350
O27	O	1.185369	-0.392234	-0.718407
O28	O	1.685369	0.107766	-0.218407
O29	O	1.457345	-0.286536	-0.922469
O30	O	1.957345	0.213464	-0.422469
O31	O	1.494368	-0.484025	-0.629357
O32	O	1.994368	0.015975	-0.129357
O33	O	1.352017	-0.508720	-0.739590
O34	O	1.852017	-0.008720	-0.239590
C35	C	1.156095	-0.338943	-0.650515
C36	C	1.656095	0.161057	-0.150515
C37	C	1.041777	-0.348723	-0.635984
C38	C	1.541777	0.151277	-0.135984
C39	C	0.982902	-0.311049	-0.692119
C40	C	1.482902	0.188951	-0.192119
C41	C	0.864749	-0.321156	-0.677103
C42	C	1.364749	0.178844	-0.177103
C43	C	1.423199	-0.525630	-0.684489
C44	C	1.923199	-0.025630	-0.184489
C45	C	1.423242	-0.615249	-0.684516
C46	C	1.923242	-0.115249	-0.184516
C47	C	1.423280	-0.688030	-0.684541
C48	C	1.923280	-0.188030	-0.184541
C49	C	1.423337	-0.779336	-0.684572
C50	C	1.923337	-0.279336	-0.184572
C51	C	1.423388	-0.852110	-0.684592
C52	C	1.923388	-0.352110	-0.184592
C53	C	1.423445	-0.943421	-0.684620
C54	C	1.923445	-0.443421	-0.184620
C55	C	1.691561	-0.293235	-0.718691
C56	C	2.191561	0.206765	-0.218691
C57	C	1.805875	-0.283477	-0.733246
C58	C	2.305875	0.216523	-0.233246
C59	C	1.389284	-0.345674	-0.952767
C60	C	1.889284	0.154326	-0.452767
C61	C	1.374785	-0.358263	-1.067070
C62	C	1.874785	0.141737	-0.567070
C63	C	1.423440	-0.105818	-0.684609
C64	C	1.923440	0.394182	-0.184609
C65	C	1.423496	-0.016194	-0.684640
C66	C	1.923496	0.483806	-0.184640
C67	C	1.430857	-0.309535	-1.126006
C68	C	1.930857	0.190465	-0.626006
C69	C	1.415874	-0.322545	-1.244145
C70	C	1.915874	0.177455	-0.744145
C71	C	1.457256	-0.286643	-0.417357
C72	C	1.957256	0.213357	0.082643
C73	C	1.471954	-0.273811	-0.303079
C74	C	1.971954	0.226189	0.196921
H75	H	0.842937	-0.243732	-0.792421
H76	H	1.342937	0.256268	-0.292421
C77	C	0.814695	-0.374842	-0.597153
C78	C	1.314695	0.125158	-0.097153
H79	H	0.866955	-0.397163	-0.563877
H80	H	1.366955	0.102837	-0.063877
H81	H	0.767796	-0.417904	-0.631122
H82	H	1.267796	0.082096	-0.131122
H83	H	0.778465	-0.342569	-0.547123
H84	H	1.278465	0.157431	-0.047123
H85	H	1.004711	-0.388458	-0.576806
H86	H	1.504711	0.111542	-0.076806
H87	H	1.489952	-0.258184	-1.089000
H88	H	1.989952	0.241816	-0.589000
H89	H	1.356765	-0.373893	-1.281145
H90	H	1.856765	0.126107	-0.781145
C91	C	1.551796	-0.204437	-1.253106
C92	C	2.051796	0.295563	-0.753106
H93	H	1.551399	-0.204795	-1.180260
H94	H	2.051399	0.295205	-0.680260
H95	H	1.534571	-0.153464	-1.268764
H96	H	2.034571	0.346536	-0.768764
H97	H	1.618684	-0.212264	-1.279453
H98	H	2.118684	0.287736	-0.779453
C99	C	1.294952	-0.427635	-1.117051
C100	C	1.794952	0.072365	-0.617051
H101	H	1.295361	-0.427283	-1.189898
H102	H	1.795361	0.072717	-0.689898
H103	H	1.228066	-0.419821	-1.090705
H104	H	1.728066	0.080179	-0.590705
H105	H	1.312192	-0.478609	-1.101396
H106	H	1.812192	0.021391	-0.601396
H107	H	1.019970	-0.271308	-0.751292
H108	H	1.519970	0.228692	-0.251292
