data_functionalizedCrystal
_audit_creation_method	'MofGen! by Chris Wilmer'
_symmetry_space_group_name_H-M	'P1'
_symmetry_Int_Tables_number	1
_symmetry_cell_setting	triclinic
loop_
_symmetry_equiv_pos_as_xyz
  x,y,z
_cell_length_a	15.995350
_cell_length_b	11.026607
_cell_length_c	9.482900
_cell_angle_alpha	78.599815
_cell_angle_beta	80.716666
_cell_angle_gamma	83.960804
loop_
_atom_site_label
_atom_site_type_symbol
_atom_site_fract_x
_atom_site_fract_y
_atom_site_fract_z
O1	O	1.144729	-0.137454	-0.120670
O2	O	1.644729	0.362546	0.379330
O3	O	0.903870	-0.156762	-0.120719
O4	O	1.403870	0.343238	0.379281
O5	O	1.004337	0.029545	-0.120693
O6	O	1.504337	0.529545	0.379307
O7	O	1.044262	-0.323761	-0.120696
O8	O	1.544262	0.176239	0.379304
O9	O	0.983953	-0.008450	0.121094
O10	O	1.483953	0.491550	0.621094
O11	O	0.883485	-0.194757	0.121068
O12	O	1.383485	0.305243	0.621068
O13	O	1.124345	-0.175449	0.121117
O14	O	1.624345	0.324551	0.621117
Cu15	Cu	1.002054	-0.188572	0.143170
Cu16	Cu	1.502054	0.311428	0.643170
Cu17	Cu	1.026161	-0.143639	-0.142772
Cu18	Cu	1.526161	0.356361	0.357228
O19	O	1.023878	-0.361756	0.121092
O20	O	1.523878	0.138244	0.621092
C21	C	0.862363	-0.174960	0.000168
C22	C	1.362363	0.325040	0.500168
C23	C	0.769053	-0.172563	0.000149
C24	C	1.269053	0.327437	0.500149
C25	C	0.986780	0.055759	0.000197
C26	C	1.486780	0.555759	0.500197
C27	C	0.964824	0.190474	0.000187
C28	C	1.464824	0.690474	0.500187
C29	C	1.165852	-0.157250	0.000227
C30	C	1.665852	0.342750	0.500227
C31	C	1.259163	-0.159646	0.000236
C32	C	1.759163	0.340354	0.500236
C33	C	1.598211	-0.168234	0.000178
C34	C	2.098211	0.331766	0.500178
C35	C	1.570730	-0.301007	0.000723
C36	C	2.070730	0.198993	0.500723
C37	C	1.473724	-0.298530	0.000194
C38	C	1.973724	0.201470	0.500194
C39	C	1.430005	-0.163974	0.000208
C40	C	1.930005	0.336026	0.500208
C41	C	1.472842	-0.076831	-0.137867
C42	C	1.972842	0.423169	0.362133
C43	C	1.569991	-0.080143	-0.137998
C44	C	2.069991	0.419857	0.362002
C45	C	1.546789	-0.120611	0.136960
C46	C	2.046789	0.379389	0.636960
C47	C	1.449693	-0.120931	0.138800
C48	C	1.949693	0.379069	0.638800
C49	C	1.334942	-0.161559	0.000220
C50	C	1.834942	0.338441	0.500220
C51	C	1.693274	-0.170644	0.000156
C52	C	2.193274	0.329356	0.500156
C53	C	1.041436	-0.387969	0.000198
C54	C	1.541436	0.112031	0.500198
C55	C	1.063392	-0.522683	0.000198
C56	C	1.563392	-0.022683	0.500198
N57	N	0.985105	-0.220175	0.344286
N58	N	1.485105	0.279825	0.844286
C59	C	1.025449	0.264278	0.000198
C60	C	1.525449	0.764278	0.500198
C61	C	1.002758	0.403514	0.000188
C62	C	1.502758	0.903514	0.500188
N63	N	1.043115	-0.112026	-0.343887
N64	N	1.543115	0.387974	0.156113
C65	C	1.021155	-0.152954	0.416494
C66	C	1.521155	0.347046	0.916494
C67	C	1.007060	-0.179257	0.583908
C68	C	1.507060	0.320743	1.083908
H69	H	1.444724	-0.365533	0.099166
H70	H	1.944724	0.134467	0.599166
H71	H	1.132109	0.437448	0.000103
H72	H	1.632109	0.937448	0.500103
H73	H	1.062450	-0.075925	0.354377
H74	H	1.562450	0.424075	0.854377
H75	H	0.965755	-0.256282	0.646022
H76	H	1.465755	0.243718	1.146022
Cl77	Cl	1.455634	-0.354426	-0.152879
Cl78	Cl	1.955634	0.145574	0.347121
H79	H	1.094151	0.224383	0.000221
H80	H	1.594151	0.724383	0.500221
Cl81	Cl	1.574995	-0.212975	0.298524
Cl82	Cl	2.074995	0.287025	0.798524
H83	H	0.896122	0.230370	0.000164
H84	H	1.396122	0.730370	0.500164
Cl85	Cl	1.107100	0.006644	0.560225
Cl86	Cl	1.607100	0.506644	1.060225
H87	H	0.934052	0.443404	0.000164
H88	H	1.434052	0.943404	0.500164
H89	H	0.943802	-0.297195	0.406405
H90	H	1.443802	0.202805	0.906405
H91	H	1.588923	-0.369600	0.099729
H92	H	2.088923	0.130400	0.599729
H93	H	1.444247	0.022830	-0.142991
H94	H	1.944247	0.522830	0.357009
H95	H	1.420998	-0.184771	0.240946
H96	H	1.920998	0.315229	0.740946
H97	H	1.606571	-0.338332	-0.097743
H98	H	2.106571	0.161668	0.402257
H99	H	1.604175	-0.111651	-0.241213
H100	H	2.104175	0.388349	0.258787
H101	H	1.588085	0.018260	-0.144283
H102	H	2.088085	0.518260	0.355717
Cl103	Cl	1.452961	-0.122079	-0.296506
Cl104	Cl	1.952961	0.377921	0.203494
H105	H	1.418841	-0.024117	0.147144
H106	H	1.918841	0.475883	0.647144
Cl107	Cl	1.572949	0.030194	0.138413
Cl108	Cl	2.072949	0.530194	0.638413
