data_functionalizedCrystal
_audit_creation_method	'MofGen! by Chris Wilmer'
_symmetry_space_group_name_H-M	'P1'
_symmetry_Int_Tables_number	1
_symmetry_cell_setting	triclinic
loop_
_symmetry_equiv_pos_as_xyz
  x,y,z
_cell_length_a	8.559649
_cell_length_b	17.699097
_cell_length_c	16.176319
_cell_angle_alpha	90.010997
_cell_angle_beta	89.999369
_cell_angle_gamma	76.533548
loop_
_atom_site_label
_atom_site_type_symbol
_atom_site_fract_x
_atom_site_fract_y
_atom_site_fract_z
O1	O	0.202195	0.992497	0.068810
O2	O	0.702195	1.492497	0.568810
O3	O	0.228468	0.770615	0.068796
O4	O	0.728468	1.270615	0.568796
O5	O	-0.017345	0.901104	0.068804
O6	O	0.482655	1.401104	0.568804
O7	O	0.448007	0.862008	0.068803
O8	O	0.948007	1.362008	0.568803
O9	O	-0.017331	0.901086	-0.068689
O10	O	0.482669	1.401086	0.431311
O11	O	0.228481	0.770597	-0.068697
O12	O	0.728481	1.270597	0.431303
O13	O	0.202209	0.992478	-0.068683
O14	O	0.702209	1.492478	0.431317
Cu15	Cu	0.215346	0.881536	-0.081244
Cu16	Cu	0.715346	1.381536	0.418756
Cu17	Cu	0.215330	0.881558	0.081358
Cu18	Cu	0.715330	1.381558	0.581358
O19	O	0.448021	0.861990	-0.068690
O20	O	0.948021	1.361990	0.431310
C21	C	0.227529	0.742464	0.000048
C22	C	0.727529	1.242464	0.500048
C23	C	0.224694	0.658608	0.000043
C24	C	0.724694	1.158608	0.500043
C25	C	0.207310	0.143895	0.075024
C26	C	0.707310	0.643895	0.575024
C27	C	0.209963	0.222687	0.075020
C28	C	0.709963	0.722687	0.575020
C29	C	0.211299	0.262067	0.000069
C30	C	0.711299	0.762067	0.500069
C31	C	0.209966	0.222653	-0.074883
C32	C	0.709966	0.722653	0.425117
C33	C	0.207302	0.143863	-0.074878
C34	C	0.707302	0.643863	0.425122
C35	C	0.220709	0.540402	-0.074905
C36	C	0.720709	1.040402	0.425095
C37	C	0.223378	0.619196	-0.074904
C38	C	0.723378	1.119196	0.425096
C39	C	0.223369	0.619226	0.074993
C40	C	0.723369	1.119226	0.574993
C41	C	0.220705	0.540436	0.074998
C42	C	0.720705	1.040436	0.574998
C43	C	0.219364	0.501030	0.000047
C44	C	0.719364	1.001030	0.500047
C45	C	0.216484	0.415595	0.000052
C46	C	0.716484	0.915595	0.500052
C47	C	0.214190	0.347499	0.000063
C48	C	0.714190	0.847499	0.500063
C49	C	-0.076879	0.904058	0.000059
C50	C	0.423121	1.404058	0.500059
C51	C	-0.254292	0.912877	0.000064
C52	C	0.245708	1.412877	0.500064
C53	C	0.507555	0.859036	0.000057
C54	C	1.007555	1.359036	0.500057
C55	C	0.684968	0.850217	0.000057
C56	C	1.184968	1.350217	0.500057
C57	C	0.203147	1.020630	0.000067
C58	C	0.703147	1.520630	0.500067
C59	C	0.205982	1.104485	0.000078
C60	C	0.705982	1.604485	0.500078
N61	N	0.215356	0.881526	-0.195609
N62	N	0.715356	1.381526	0.304391
C63	C	0.106501	0.939359	-0.760988
C64	C	0.606501	1.439359	-0.260988
C65	C	0.106512	0.939355	-0.674441
C66	C	0.606512	1.439355	-0.174441
C67	C	0.215323	0.881562	-0.631185
C68	C	0.715323	1.381562	-0.131185
C69	C	0.324141	0.823775	-0.674479
C70	C	0.824141	1.323775	-0.174479
C71	C	0.324136	0.823783	-0.761025
C72	C	0.824136	1.323783	-0.261025
C73	C	0.324163	0.823743	-0.325451
C74	C	0.824163	1.323743	0.174549
C75	C	0.324156	0.823738	-0.238899
C76	C	0.824156	1.323738	0.261101
C77	C	0.106539	0.939315	-0.238868
C78	C	0.606539	1.439315	0.261132
C79	C	0.106534	0.939323	-0.325413
C80	C	0.606534	1.439323	0.174587
C81	C	0.215357	0.881538	-0.368700
C82	C	0.715357	1.381538	0.131300
C83	C	0.215346	0.881544	-0.462544
C84	C	0.715346	1.381544	0.037456
C85	C	0.215328	0.881553	-0.537342
C86	C	0.715328	1.381553	-0.037342
N87	N	0.215307	0.881574	0.195723
N88	N	0.715307	1.381574	0.695723
H89	H	0.224455	0.651321	0.136022
H90	H	0.724455	1.151321	0.636022
H91	H	0.211034	0.254772	0.136048
H92	H	0.711034	0.754772	0.636048
C93	C	-0.367408	0.994471	0.000065
C94	C	0.132592	1.494471	0.500065
N95	N	-0.452608	1.055927	0.000066
N96	N	0.047392	1.555927	0.500066
C97	C	0.219225	0.497124	0.157450
C98	C	0.719225	0.997124	0.657450
N99	N	0.218099	0.464504	0.219554
N100	N	0.718099	0.964504	0.719554
C101	C	0.211503	0.265965	-0.157330
C102	C	0.711503	0.765965	0.342670
N103	N	0.212692	0.298584	-0.219431
N104	N	0.712692	0.798584	0.280569
C105	C	-0.013172	1.002879	-0.191244
C106	C	0.486828	1.502879	0.308756
N107	N	-0.103343	1.050752	-0.155375
N108	N	0.396657	1.550752	0.344625
H109	H	0.224466	0.651257	-0.135942
H110	H	0.724466	1.151257	0.364058
C111	C	-0.013206	1.002934	-0.808563
C112	C	0.486794	1.502934	-0.308563
N113	N	-0.103371	1.050823	-0.844394
N114	N	0.396629	1.550823	-0.344394
C115	C	0.443834	0.760202	-0.626894
C116	C	0.943834	1.260202	-0.126894
N117	N	0.533985	0.712316	-0.591053
N118	N	1.033985	1.212316	-0.091053
H119	H	0.206233	0.111836	0.136058
H120	H	0.706233	0.611836	0.636058
C121	C	-0.013192	1.002919	-0.626828
C122	C	0.486808	1.502919	-0.126828
N123	N	-0.103360	1.050798	-0.590966
N124	N	0.396640	1.550798	-0.090966
H125	H	0.017925	0.986380	-0.360630
H126	H	0.517925	1.486380	0.139370
C127	C	0.443857	0.760171	-0.373056
C128	C	0.943857	1.260171	0.126944
N129	N	0.534011	0.712284	-0.408914
N130	N	1.034011	1.212284	0.091086
H131	H	0.206237	0.111775	-0.135907
H132	H	0.706237	0.611775	0.364093
H133	H	-0.231306	0.789824	0.000050
H134	H	0.268694	1.289824	0.500050
C135	C	0.219282	0.497059	-0.157353
C136	C	0.719282	0.997059	0.342647
N137	N	0.218224	0.464408	-0.219458
N138	N	0.718224	0.964408	0.280542
C139	C	0.443917	0.760182	-0.191319
C140	C	0.943917	1.260182	0.308681
N141	N	0.534134	0.712321	-0.155481
N142	N	1.034134	1.212321	0.344519
C143	C	0.443828	0.760214	-0.808642
C144	C	0.943828	1.260214	-0.308642
N145	N	0.533987	0.712332	-0.844506
N146	N	1.033987	1.212332	-0.344506
