data_functionalizedCrystal
_audit_creation_method	'MofGen! by Chris Wilmer'
_symmetry_space_group_name_H-M	'P1'
_symmetry_Int_Tables_number	1
_symmetry_cell_setting	triclinic
loop_
_symmetry_equiv_pos_as_xyz
  x,y,z
_cell_length_a	10.654550
_cell_length_b	10.723023
_cell_length_c	9.730223
_cell_angle_alpha	90.003073
_cell_angle_beta	90.000043
_cell_angle_gamma	84.476239
loop_
_atom_site_label
_atom_site_type_symbol
_atom_site_fract_x
_atom_site_fract_y
_atom_site_fract_z
O1	O	-1.667812	-0.175275	-0.114183
O2	O	-1.302331	-0.191974	-0.114208
O3	O	-1.493503	-0.002049	-0.114190
O4	O	-1.476641	-0.365199	-0.114200
O5	O	-1.493490	-0.002044	0.114390
O6	O	-1.302319	-0.191969	0.114372
O7	O	-1.667800	-0.175270	0.114397
Zn8	Zn	-1.485057	-0.183618	0.150677
Zn9	Zn	-1.485074	-0.183625	-0.150487
O10	O	-1.476628	-0.365194	0.114379
C11	C	-1.255527	-0.190745	0.000079
C12	C	-1.116084	-0.187077	0.000069
C13	C	-1.492269	0.044453	0.000098
C14	C	-1.488599	0.183008	0.000092
C15	C	-1.714604	-0.176498	0.000107
C16	C	-1.854046	-0.180167	0.000108
C17	C	-1.477861	-0.411696	0.000088
C18	C	-1.481532	-0.550251	0.000085
C19	C	-1.036582	-0.298901	0.000070
C20	C	-0.905561	-0.295447	0.000094
C21	C	-0.933559	-0.068334	0.000111
C22	C	-1.064577	-0.071789	0.000097
C23	C	-1.486956	0.244789	0.118501
C24	C	-1.483162	0.387993	0.118498
N25	N	-1.485055	-0.183613	0.356213
N26	N	-1.485085	-0.183621	-0.356024
C27	C	-1.569735	-0.099550	0.428147
C28	C	-1.569748	-0.099550	0.572030
C29	C	-1.400397	-0.267687	0.572033
C30	C	-1.400379	-0.267680	0.428152
H31	H	-1.078514	-0.392775	0.000058
H32	H	-1.488365	0.191665	0.219877
H33	H	-0.840835	-0.386506	0.000098
H34	H	-1.331416	-0.336134	0.369580
H35	H	-0.891606	0.025530	0.000142
H36	H	-1.481741	0.441122	0.219872
H37	H	-1.129312	0.019278	0.000100
H38	H	-1.482935	0.396625	-0.101294
H39	H	-1.487203	0.236134	-0.101284
H40	H	-1.638682	-0.031096	0.369577
H41	H	-1.638700	-0.031098	0.630594
H42	H	-1.331457	-0.336135	0.630620
