data_functionalizedCrystal
_audit_creation_method	'MofGen! by Chris Wilmer'
_symmetry_space_group_name_H-M	'P1'
_symmetry_Int_Tables_number	1
_symmetry_cell_setting	triclinic
loop_
_symmetry_equiv_pos_as_xyz
  x,y,z
_cell_length_a	16.109295
_cell_length_b	16.776229
_cell_length_c	16.109301
_cell_angle_alpha	90.008074
_cell_angle_beta	96.539666
_cell_angle_gamma	89.995788
loop_
_atom_site_label
_atom_site_type_symbol
_atom_site_fract_x
_atom_site_fract_y
_atom_site_fract_z
O1	O	-1.103138	0.066236	0.106847
O2	O	-0.861075	0.066250	0.120151
O3	O	-0.988756	0.066235	-0.007532
O4	O	-0.975457	0.066252	0.234530
O5	O	-0.988739	-0.066342	-0.007540
O6	O	-0.861058	-0.066326	0.120143
O7	O	-1.103121	-0.066340	0.106839
Zn8	Zn	-0.982087	-0.087382	0.113490
Zn9	Zn	-0.982109	0.087293	0.113500
O10	O	-0.975440	-0.066325	0.234522
C11	C	-0.830092	-0.000036	0.119609
C12	C	-0.737796	-0.000031	0.117996
C13	C	-0.515523	-0.000035	0.190008
C14	C	-0.428803	-0.000040	0.188486
C15	C	-0.448677	-0.000047	0.036996
C16	C	-0.535396	-0.000048	0.038520
C17	C	-0.568816	-0.000038	0.115028
C18	C	-0.395377	-0.000042	0.111982
C19	C	-0.301351	-0.000047	0.110331
C20	C	-0.662849	-0.000034	0.116679
N21	N	-0.982078	-0.206594	0.113482
C22	C	-1.038632	-0.248318	0.056967
C23	C	-1.038637	-0.331770	0.056967
C24	C	-0.982090	-0.373497	0.113486
C25	C	-0.925530	-0.331767	0.170003
C26	C	-0.925522	-0.248316	0.169999
C27	C	-0.925560	-0.668314	0.170019
C28	C	-0.925574	-0.751771	0.170021
C29	C	-1.038675	-0.751768	0.056987
C30	C	-1.038667	-0.668317	0.056983
C31	C	-0.982104	-0.626595	0.113497
C32	C	-0.982098	-0.536106	0.113496
C33	C	-0.982099	-0.463983	0.113491
C34	C	-0.134104	-0.000051	0.107386
C35	C	-0.226397	-0.000048	0.109014
C36	C	-0.988209	-0.000054	-0.038511
C37	C	-0.986594	-0.000055	-0.130806
N38	N	-0.982125	0.206504	0.113501
C39	C	-1.058602	-0.000046	-0.353080
C40	C	-1.057078	-0.000040	-0.439800
C41	C	-0.905588	-0.000034	-0.419923
C42	C	-0.907113	-0.000035	-0.333204
C43	C	-0.983622	-0.000045	-0.299785
C44	C	-0.980573	-0.000038	-0.473225
C45	C	-0.978920	-0.000030	-0.567251
C46	C	-0.985276	-0.000051	-0.205754
C47	C	-0.975987	-0.000034	0.265501
C48	C	-0.977602	-0.000028	0.357796
H49	H	-0.542731	-0.000032	0.252306
O50	O	-0.864560	-0.623324	0.230981
H51	H	-0.874044	-0.558285	0.221483
O52	O	-1.099637	-0.376769	-0.003991
H53	H	-1.090137	-0.441807	0.005496
O54	O	-0.412631	-0.000056	-0.045521
H55	H	-0.373607	0.053983	-0.049840
O56	O	-0.826237	-0.000044	-0.275717
H57	H	-0.789621	0.053988	-0.287590
H58	H	-0.385414	-0.000039	0.249542
H59	H	-0.578790	-0.000052	-0.022542
H60	H	-1.084682	-0.214349	0.010947
H61	H	-1.084715	-0.634346	0.010963
O62	O	-1.137951	-0.000044	-0.497279
H63	H	-1.124042	-0.000033	-0.563196
O64	O	-1.099678	-0.796767	-0.003980
H65	H	-1.090181	-0.861805	0.005508
O66	O	-0.864595	-0.796781	0.230995
H67	H	-0.825262	-0.753750	0.270294
O68	O	-0.864541	-0.376766	0.230969
H69	H	-0.874054	-0.441805	0.221486
H70	H	-0.879469	-0.214345	0.216018
H71	H	-1.120900	-0.000053	-0.325874
O72	O	-0.823070	-0.000040	-0.455966
H73	H	-0.834604	-0.000051	-0.525221
