data_functionalizedCrystal
_audit_creation_method	'MofGen! by Chris Wilmer'
_symmetry_space_group_name_H-M	'P1'
_symmetry_Int_Tables_number	1
_symmetry_cell_setting	triclinic
loop_
_symmetry_equiv_pos_as_xyz
  x,y,z
_cell_length_a	15.995292
_cell_length_b	15.995350
_cell_length_c	7.540329
_cell_angle_alpha	89.998640
_cell_angle_beta	89.995868
_cell_angle_gamma	83.480495
loop_
_atom_site_label
_atom_site_type_symbol
_atom_site_fract_x
_atom_site_fract_y
_atom_site_fract_z
O1	O	1.111014	0.107694	-0.147522
O2	O	0.867232	0.121072	-0.147513
O3	O	0.995787	-0.007506	-0.147516
O4	O	0.982459	0.236272	-0.147519
O5	O	0.995779	-0.007508	0.147449
O6	O	0.867225	0.121070	0.147452
O7	O	1.111007	0.107692	0.147444
Cu8	Cu	0.989115	0.114381	0.174380
Cu9	Cu	0.989124	0.114383	-0.174450
O10	O	0.982452	0.236270	0.147446
C11	C	0.836033	0.120527	-0.000030
C12	C	0.743080	0.118894	-0.000027
C13	C	0.405341	0.112893	-0.000047
C14	C	0.428654	0.205697	-0.000707
C15	C	0.525329	0.207461	-0.000034
C16	C	0.572897	0.115871	-0.000038
C17	C	0.543791	0.069472	0.168396
C18	C	0.447001	0.068355	0.168529
C19	C	0.447154	0.066462	-0.166901
C20	C	0.543646	0.069901	-0.169120
C21	C	0.667593	0.117549	-0.000027
C22	C	0.310646	0.111212	-0.000046
C23	C	0.995232	-0.038702	-0.000037
C24	C	0.993580	-0.131652	-0.000047
C25	C	0.987648	-0.469398	-0.000041
C26	C	0.896094	-0.421945	-0.000699
C27	C	0.897746	-0.325255	-0.000034
C28	C	0.990591	-0.301838	-0.000045
C29	C	1.035744	-0.342926	0.168390
C30	C	1.033444	-0.439561	0.168531
C31	C	1.035344	-0.439918	-0.166899
C32	C	1.035323	-0.342973	-0.169125
C33	C	0.992259	-0.207141	-0.000041
C34	C	0.985983	-0.564095	-0.000032
C35	C	1.142206	0.108237	-0.000044
C36	C	1.235159	0.109870	-0.000058
C37	C	0.983006	0.267466	-0.000037
C38	C	0.984658	0.360416	-0.000039
N39	N	0.989115	0.114379	0.419729
N40	N	0.989131	0.114378	-0.419799
H41	H	0.432450	0.000311	0.176178
N42	N	0.852913	-0.290270	0.151680
N43	N	0.789939	-0.237233	0.131958
H44	H	0.758274	-0.212524	0.239113
N45	N	0.996389	-0.307312	0.325632
N46	N	0.935096	-0.251681	0.314083
H47	H	0.907296	-0.226529	0.425131
N48	N	1.120253	-0.323700	-0.181901
N49	N	1.149329	-0.279140	-0.066074
H50	H	1.209313	-0.265524	-0.075089
H51	H	0.575659	0.002074	0.174656
N52	N	0.392254	0.250339	0.149958
N53	N	0.341353	0.314841	0.128636
H54	H	0.315644	0.346369	0.235044
N55	N	0.850197	-0.445198	-0.152223
N56	N	0.838199	-0.520306	-0.175164
H57	H	0.805786	-0.536735	-0.282185
N58	N	1.120028	-0.479771	-0.168297
N59	N	1.145241	-0.529680	-0.047069
H60	H	1.205048	-0.557827	-0.048036
H61	H	0.562219	0.103684	-0.293726
H62	H	0.544359	0.243794	-0.120779
H63	H	0.543730	0.244017	0.120911
H64	H	1.005414	-0.460451	-0.294563
H65	H	0.859660	-0.441532	0.119418
N66	N	0.993961	-0.308688	-0.325418
N67	N	0.989682	-0.231478	-0.355584
H68	H	0.960467	-0.207253	-0.465957
N69	N	0.393533	0.250568	-0.152244
N70	N	0.350907	0.214677	-0.261525
H71	H	0.326097	0.246366	-0.368555
N72	N	0.413362	0.108664	0.326489
N73	N	0.461395	0.137425	0.435862
H74	H	0.437642	0.165896	0.547425
N75	N	0.992130	-0.462505	0.326494
N76	N	0.965191	-0.407175	0.435863
H77	H	0.936010	-0.423374	0.547428
H78	H	0.563847	0.101692	0.293747
N79	N	0.429620	-0.019238	-0.168285
N80	N	0.386531	-0.046101	-0.047051
H81	H	0.374151	-0.106626	-0.048003
H82	H	0.576617	0.003049	-0.179296
H83	H	0.862252	-0.296825	-0.120775
N84	N	0.411719	0.102915	-0.327081
N85	N	0.375793	0.058964	-0.433688
H86	H	0.350766	0.084715	-0.546810
H87	H	1.100662	-0.471823	0.176166
H88	H	1.103955	-0.328814	0.174647
