data_functionalizedCrystal
_audit_creation_method	'MofGen! by Chris Wilmer'
_symmetry_space_group_name_H-M	'P1'
_symmetry_Int_Tables_number	1
_symmetry_cell_setting	triclinic
loop_
_symmetry_equiv_pos_as_xyz
  x,y,z
_cell_length_a	15.944493
_cell_length_b	23.532357
_cell_length_c	15.021413
_cell_angle_alpha	89.998468
_cell_angle_beta	89.993251
_cell_angle_gamma	83.151668
loop_
_atom_site_label
_atom_site_type_symbol
_atom_site_fract_x
_atom_site_fract_y
_atom_site_fract_z
O1	O	1.113922	0.073287	-0.074031
O2	O	0.869287	0.082377	-0.074037
O3	O	0.999003	-0.005074	-0.074016
O4	O	0.984206	0.160738	-0.074053
O5	O	0.998983	-0.005062	0.074049
O6	O	0.869266	0.082390	0.074027
O7	O	1.113902	0.073299	0.074033
Zn8	Zn	0.991581	0.077846	0.097538
Zn9	Zn	0.991608	0.077830	-0.097543
O10	O	0.984185	0.160751	0.074012
C11	C	0.837985	0.082012	-0.000005
C12	C	0.744746	0.080898	-0.000007
C13	C	0.508539	0.132374	-0.000019
C14	C	0.458212	0.104621	0.072995
C15	C	0.574043	0.078834	-0.000005
C16	C	0.458237	0.104596	-0.072985
C17	C	0.409151	0.076844	-0.000006
C18	C	0.524944	0.051096	0.073069
C19	C	0.524972	0.051079	-0.072976
C20	C	0.474678	0.023287	0.000055
C21	C	0.669033	0.079982	-0.000003
C22	C	0.314164	0.075692	-0.000002
C23	C	0.998623	-0.026286	0.000019
C24	C	0.997510	-0.089509	0.000028
C25	C	0.990535	-0.481553	-0.080730
C26	C	0.989477	-0.540956	-0.080736
O27	O	0.988911	-0.571680	-0.149376
N28	N	0.988941	-0.570663	-0.000027
C29	C	0.989455	-0.540962	0.080692
O30	O	0.988901	-0.571684	0.149341
C31	C	0.990507	-0.481559	0.080696
C32	C	0.991051	-0.451856	-0.000018
C33	C	0.991079	-0.451850	-0.161438
C34	C	0.992138	-0.392451	-0.161432
C35	C	0.992654	-0.362754	-0.080720
C36	C	0.992111	-0.392457	-0.000012
C37	C	0.991014	-0.451858	0.161414
C38	C	0.992065	-0.392451	0.161412
C39	C	0.992610	-0.362749	0.080698
C40	C	0.993686	-0.303361	0.080706
N41	N	0.994222	-0.273655	-0.000003
C42	C	0.993706	-0.303352	-0.080715
C43	C	0.987245	-0.665711	0.080677
C44	C	0.986199	-0.725114	0.080674
C45	C	0.986220	-0.725104	-0.080754
C46	C	0.987272	-0.665701	-0.080750
C47	C	0.987780	-0.636005	-0.000031
C48	C	0.995931	-0.178609	-0.080698
C49	C	0.996994	-0.119205	-0.080685
C50	C	0.996969	-0.119220	0.080742
C51	C	0.995910	-0.178619	0.080730
C52	C	0.995389	-0.208312	0.000003
O53	O	0.994249	-0.272599	0.149312
O54	O	0.994248	-0.272621	-0.149352
C55	C	1.145204	0.073665	-0.000001
C56	C	1.238442	0.074778	-0.000005
C57	C	0.984566	0.181962	-0.000025
C58	C	0.985678	0.245185	-0.000039
N59	N	0.991568	0.077857	0.230676
N60	N	0.991627	0.077815	-0.230680
C61	C	0.931578	0.118276	0.470349
C62	C	1.007385	0.129322	0.529683
C63	C	0.991590	0.077843	0.412283
C64	C	0.915804	0.066810	0.529691
C65	C	0.991604	0.077831	0.587707
C66	C	1.067434	0.088914	0.470310
C67	C	0.975804	0.026381	0.470313
C68	C	1.051665	0.037404	0.529620
C69	C	0.991581	0.077852	0.311226
C70	C	0.991622	0.077822	0.688762
H71	H	0.523762	0.178492	0.000039
H72	H	1.102476	0.003204	0.555480
C73	C	0.331472	0.133296	-0.155837
C74	C	0.418927	0.135126	-0.156307
H75	H	0.307208	0.152151	-0.207271
H76	H	0.320158	0.094572	-0.155931
H77	H	0.307736	0.151934	-0.103995
H78	H	0.442663	0.116484	-0.208147
H79	H	0.430247	0.173857	-0.156222
H80	H	0.880879	0.152496	0.444326
H81	H	1.020750	0.172837	0.555760
C82	C	0.546368	-0.036231	-0.157041
C83	C	0.564340	0.020577	-0.156294
H84	H	0.570669	-0.055055	-0.208487
H85	H	0.569330	-0.055301	-0.105224
H86	H	0.486914	-0.036860	-0.157933
H87	H	0.623795	0.021206	-0.155395
H88	H	0.541382	0.039652	-0.208125
H89	H	0.985797	-0.749293	-0.146475
H90	H	0.997439	-0.095024	-0.146415
C91	C	1.153145	0.101562	0.342042
C92	C	1.153959	0.101625	0.435254
H93	H	1.206552	0.109427	0.320401
H94	H	1.141883	0.065125	0.321209
H95	H	1.110454	0.130100	0.321303
H96	H	1.196646	0.073084	0.455994
H97	H	1.165231	0.138067	0.456096
C98	C	0.878285	-0.043804	0.464992
C99	C	0.957730	-0.032343	0.435070
H100	H	0.867120	-0.080056	0.443226
H101	H	0.877647	-0.044133	0.528216
H102	H	0.836208	-0.014999	0.443810
H103	H	0.999809	-0.061146	0.456256
H104	H	0.958376	-0.032019	0.371832
H105	H	0.990655	-0.476022	-0.227168
C106	C	0.987185	-0.671672	-0.240311
C107	C	0.987860	-0.633054	-0.169472
H108	H	0.987541	-0.651517	-0.295086
H109	H	1.035763	-0.699188	-0.236951
H110	H	0.937782	-0.690494	-0.236945
H111	H	1.037265	-0.614235	-0.172835
H112	H	0.939276	-0.605528	-0.172834
H113	H	0.995502	-0.202778	-0.146434
C114	C	0.992038	-0.398425	-0.320992
C115	C	0.992722	-0.359806	-0.250157
H116	H	0.992390	-0.378272	-0.375769
H117	H	1.040616	-0.425942	-0.317635
H118	H	0.942635	-0.417246	-0.317619
H119	H	1.042128	-0.340988	-0.253526
H120	H	0.944139	-0.332279	-0.253516
C121	C	0.766533	0.096615	0.534971
C122	C	0.829277	0.054211	0.564897
H123	H	0.713114	0.088837	0.556699
H124	H	0.778162	0.132886	0.556178
H125	H	0.765763	0.096872	0.471738
H126	H	0.830052	0.053957	0.628131
H127	H	0.817645	0.017931	0.543695
H128	H	0.429069	0.127237	0.134711
C129	C	0.500296	0.000753	0.207809
C130	C	0.564104	0.020601	0.156488
H131	H	0.524475	-0.018074	0.259305
H132	H	0.460750	0.032188	0.225247
H133	H	0.472399	-0.025325	0.173683
H134	H	0.591997	0.046683	0.190612
H135	H	0.603665	-0.010838	0.139051
C136	C	0.366626	-0.039584	-0.000627
C137	C	0.454339	-0.039018	0.000103
H138	H	0.354072	-0.078049	-0.000606
H139	H	0.342755	-0.020446	0.050741
H140	H	0.343566	-0.020649	-0.052523
H141	H	0.477398	-0.057950	0.052002
H142	H	0.478219	-0.058165	-0.051271
C143	C	0.986283	-0.719142	0.240236
C144	C	0.985608	-0.757759	0.169397
H145	H	0.985909	-0.739295	0.295011
H146	H	1.035684	-0.700327	0.236879
H147	H	0.937704	-0.691618	0.236867
H148	H	1.034191	-0.785280	0.172763
H149	H	0.936202	-0.776583	0.172756
H150	H	0.987662	-0.641537	0.146412
H151	H	0.990572	-0.476032	0.227141
H152	H	0.992467	-0.368275	0.227144
C153	C	0.995995	-0.172658	0.240295
C154	C	0.995316	-0.211272	0.169451
H155	H	0.995617	-0.192814	0.295067
H156	H	1.045399	-0.153847	0.236943
H157	H	0.947419	-0.145132	0.236927
H158	H	1.043896	-0.238796	0.172815
H159	H	0.945906	-0.230092	0.172805
H160	H	0.997393	-0.095030	0.146457
