data_functionalizedCrystal
_audit_creation_method	'MofGen! by Chris Wilmer'
_symmetry_space_group_name_H-M	'P1'
_symmetry_Int_Tables_number	1
_symmetry_cell_setting	triclinic
loop_
_symmetry_equiv_pos_as_xyz
  x,y,z
_cell_length_a	19.077105
_cell_length_b	17.077402
_cell_length_c	19.077271
_cell_angle_alpha	87.673975
_cell_angle_beta	90.107074
_cell_angle_gamma	92.279266
loop_
_atom_site_label
_atom_site_type_symbol
_atom_site_fract_x
_atom_site_fract_y
_atom_site_fract_z
Zn1	Zn	1.058274	0.340278	0.440431
Zn2	Zn	1.391608	0.673611	0.773765
Zn3	Zn	1.724941	1.006945	1.107098
Zn4	Zn	1.062914	0.477024	0.322924
Zn5	Zn	1.396247	0.810357	0.656257
Zn6	Zn	1.729580	1.143690	0.989590
Zn7	Zn	0.945491	0.340717	0.318222
Zn8	Zn	1.278825	0.674050	0.651555
Zn9	Zn	1.612158	1.007383	0.984889
Zn10	Zn	0.940736	0.466443	0.435679
Zn11	Zn	1.274069	0.799777	0.769012
Zn12	Zn	1.607403	1.133110	1.102345
O13	O	1.001854	0.406115	0.379314
O14	O	1.335187	0.739449	0.712647
O15	O	1.668520	1.072782	1.045981
O16	O	1.157222	0.362662	0.428800
O17	O	1.490555	0.695995	0.762134
O18	O	1.823888	1.029328	1.095467
O19	O	1.051269	0.463554	0.223967
O20	O	1.384602	0.796887	0.557300
O21	O	1.717935	1.130220	0.890634
O22	O	0.960501	0.230813	0.334455
O23	O	1.293834	0.564146	0.667788
O24	O	1.627167	0.897479	1.001121
O25	O	1.160630	0.463128	0.342468
O26	O	1.493963	0.796462	0.675801
O27	O	1.827297	1.129795	1.009135
O28	O	1.043362	0.230490	0.424241
O29	O	1.376695	0.563824	0.757575
O30	O	1.710029	0.897157	1.090908
O31	O	0.964999	0.363409	0.220513
O32	O	1.298332	0.696743	0.553846
O33	O	1.631666	1.030076	0.887179
O34	O	0.846529	0.353150	0.329846
O35	O	1.179862	0.686484	0.663180
O36	O	1.513195	1.019817	0.996513
O37	O	0.952396	0.445096	0.534642
O38	O	1.285730	0.778429	0.867976
O39	O	1.619063	1.111763	1.201309
O40	O	0.843035	0.445521	0.416141
O41	O	1.176368	0.778855	0.749474
O42	O	1.509702	1.112188	1.082808
O43	O	1.038751	0.352403	0.538134
O44	O	1.372085	0.685736	0.871467
O45	O	1.705418	1.019069	1.204801
O46	O	1.046658	0.585466	0.337860
O47	O	1.379991	0.918799	0.671193
O48	O	1.713325	1.252133	1.004526
O49	O	0.956895	0.577693	0.420700
O50	O	1.290228	0.911026	0.754033
O51	O	1.623561	1.244359	1.087367
C52	C	0.819285	0.398236	0.371968
C53	C	1.152619	0.731569	0.705301
C54	C	1.485952	1.064902	1.038635
C55	C	0.741181	0.394883	0.368842
C56	C	1.074515	0.728216	0.702176
C57	C	1.407848	1.061550	1.035509
C58	C	1.001782	0.610061	0.379290
C59	C	1.335116	0.943394	0.712624
C60	C	1.668449	1.276728	1.045957
C61	C	1.001815	0.697312	0.379306
C62	C	1.335148	1.030645	0.712640
C63	C	1.668482	1.363978	1.045973
C64	C	0.994526	0.397520	0.562598
C65	C	1.327859	0.730854	0.895931
C66	C	1.661193	1.064187	1.229264
C67	C	0.991403	0.393858	0.640702
C68	C	1.324736	0.727191	0.974036
C69	C	1.658070	1.060524	1.307369
C70	C	0.702690	0.441480	0.412232
C71	C	1.036023	0.774813	0.745565
C72	C	1.369357	1.108146	1.078899
C73	C	0.629303	0.438319	0.409298
C74	C	0.962636	0.771652	0.742632
C75	C	1.295969	1.104985	1.075965
C76	C	0.594408	0.388565	0.362971
C77	C	0.927741	0.721898	0.696304
C78	C	1.261075	1.055232	1.029637
C79	C	0.632905	0.341963	0.319579
C80	C	0.966238	0.675297	0.652912
C81	C	1.299571	1.008630	0.986246
C82	C	0.706290	0.345120	0.322517
C83	C	1.039624	0.678454	0.655850
C84	C	1.372957	1.011787	0.989184
C85	C	0.375121	0.373953	0.349378
C86	C	0.708454	0.707286	0.682711
C87	C	1.041787	1.040620	1.016044
C88	C	0.301730	0.370801	0.346442
C89	C	0.635063	0.704134	0.679775
C90	C	0.968396	1.037468	1.013108
C91	C	0.298133	0.467156	0.436162
C92	C	0.631466	0.800489	0.769496
C93	C	0.964800	1.133822	1.102829
C94	C	0.371521	0.470312	0.439093
C95	C	0.704854	0.803645	0.772426
C96	C	1.038187	1.136979	1.105760
C97	C	0.410010	0.423707	0.395704
C98	C	0.743344	0.757041	0.729037
C99	C	1.076677	1.090374	1.062371
N100	N	0.519395	0.385335	0.359969
N101	N	0.852728	0.718668	0.693303
N102	N	1.186061	1.052001	1.026636
N103	N	0.485022	0.426934	0.398709
N104	N	0.818356	0.760267	0.732043
N105	N	1.151689	1.093601	1.065376
C106	C	1.185135	0.414026	0.386689
C107	C	1.518468	0.747360	0.720022
C108	C	1.851802	1.080693	1.053355
C109	C	1.263239	0.417397	0.389832
C110	C	1.596572	0.750731	0.723165
C111	C	1.929905	1.084064	1.056498
C112	C	1.048598	0.742323	0.336223
C113	C	1.381931	1.075656	0.669556
C114	C	1.715264	1.408990	1.002890
C115	C	1.048629	0.824304	0.336245
C116	C	1.381963	1.157637	0.669579
C117	C	1.715296	1.490970	1.002912
C118	C	1.001874	0.861272	0.379348
C119	C	1.335208	1.194605	0.712681
C120	C	1.668541	1.527938	1.046014
C121	C	0.955089	0.816255	0.422436
C122	C	1.288423	1.149588	0.755769
C123	C	1.621756	1.482921	1.089103
C124	C	0.955062	0.734275	0.422417
C125	C	1.288395	1.067609	0.755750
C126	C	1.621728	1.400942	1.089084
C127	C	0.955149	0.987126	0.422472
C128	C	1.288483	1.320459	0.755805
C129	C	1.621816	1.653792	1.089138
C130	C	0.955176	1.069111	0.422490
C131	C	1.288509	1.402444	0.755823
C132	C	1.621843	1.735777	1.089156
C133	C	1.048717	1.077154	0.336300
C134	C	1.382050	1.410487	0.669633
C135	C	1.715384	1.743821	1.002966
C136	C	1.048689	0.995175	0.336281
C137	C	1.382022	1.328508	0.669614
C138	C	1.715356	1.661841	1.002947
C139	C	1.001903	0.950163	0.379368
C140	C	1.335237	1.283497	0.712702
C141	C	1.668570	1.616830	1.046035
C142	C	1.001938	1.201373	0.379363
C143	C	1.335272	1.534706	0.712696
C144	C	1.668605	1.868039	1.046029
C145	C	1.001959	1.114122	0.379406
C146	C	1.335292	1.447455	0.712740
C147	C	1.668625	1.780789	1.046073
C148	C	1.009194	0.414622	0.196745
C149	C	1.342527	0.747956	0.530078
C150	C	1.675860	1.081289	0.863411
C151	C	1.012453	0.418070	0.118646
C152	C	1.345786	0.751403	0.451979
C153	C	1.679119	1.084736	0.785313
C154	C	0.969006	0.367650	1.080156
C155	C	1.302339	0.700983	1.413489
C156	C	1.635673	1.034316	1.746823
C157	C	0.971944	0.371088	1.006769
C158	C	1.305277	0.704422	1.340102
C159	C	1.638610	1.037755	1.673435
C160	C	1.018324	0.424951	0.971872
C161	C	1.351658	0.758285	1.305206
C162	C	1.684991	1.091618	1.638539
C163	C	1.061776	0.475374	1.010368
C164	C	1.395109	0.808707	1.343701
C165	C	1.728442	1.142040	1.677034
C166	C	1.058841	0.471930	1.083754
C167	C	1.392175	0.805264	1.417087
C168	C	1.725508	1.138597	1.750421
C169	C	1.031920	0.440837	0.752584
C170	C	1.365253	0.774170	1.085917
C171	C	1.698587	1.107503	1.419251
C172	C	1.034850	0.444277	0.679192
C173	C	1.368183	0.777611	1.012526
C174	C	1.701516	1.110944	1.345859
C175	C	0.945018	0.339991	0.675598
C176	C	1.278351	0.673324	1.008932
C177	C	1.611685	1.006658	1.342265
C178	C	0.942085	0.336556	0.748986
C179	C	1.275418	0.669889	1.082319
C180	C	1.608751	1.003222	1.415653
C181	C	0.985539	0.386975	0.787475
C182	C	1.318872	0.720308	1.120808
C183	C	1.652205	1.053642	1.454142
N184	N	1.021327	0.428469	0.896859
N185	N	1.354660	0.761803	1.230192
N186	N	1.687993	1.095136	1.563525
N187	N	0.982539	0.383453	0.862488
N188	N	1.315873	0.716786	1.195821
N189	N	1.649206	1.050119	1.529154
H190	H	0.731096	0.481997	0.449955
H191	H	1.064429	0.815330	0.783288
H192	H	1.397763	1.148664	1.116621
H193	H	0.931236	0.323790	1.108563
H194	H	1.264569	0.657124	1.441896
H195	H	1.597903	0.990457	1.775230
H196	H	1.086724	0.860949	0.301162
H197	H	1.420057	1.194282	0.634495
H198	H	1.753391	1.527615	0.967829
H199	H	0.917024	0.846360	0.457534
H200	H	1.250357	1.179694	0.790867
H201	H	1.583690	1.513027	1.124201
C202	C	0.903602	0.684763	0.469810
C203	C	1.236935	1.018096	0.803143
C204	C	1.570269	1.351430	1.136477
H205	H	0.875757	0.718520	0.495480
H206	H	1.209090	1.051853	0.828813
H207	H	1.542423	1.385186	1.162146
H208	H	0.929224	0.652465	0.501521
H209	H	1.262558	0.985799	0.834854
H210	H	1.595891	1.319132	1.168187
H211	H	0.874068	0.652766	0.441665
H212	H	1.207401	0.986100	0.774999
H213	H	1.540735	1.319433	1.108332
C214	C	0.924155	0.315623	0.964433
C215	C	1.257488	0.648957	1.297766
C216	C	1.590822	0.982290	1.631099
H217	H	0.896108	0.283057	0.995726
H218	H	1.229441	0.616390	1.329059
H219	H	1.562774	0.949724	1.662392
H220	H	0.952199	0.283925	0.936896
H221	H	1.285532	0.617259	1.270229
H222	H	1.618865	0.950592	1.603563
H223	H	0.894666	0.345671	0.934564
H224	H	1.227999	0.679004	1.267898
H225	H	1.561332	1.012338	1.601231
H226	H	1.094221	0.512987	1.115092
H227	H	1.427555	0.846320	1.448425
H228	H	1.760888	1.179653	1.781759
C229	C	0.903748	1.109778	0.469900
C230	C	1.237082	1.443112	0.803233
C231	C	1.570415	1.776445	1.136567
H232	H	0.910461	1.165049	0.463731
H233	H	1.243794	1.498382	0.797065
H234	H	1.577128	1.831715	1.130398
H235	H	0.912101	1.094544	0.517532
H236	H	1.245435	1.427877	0.850866
H237	H	1.578768	1.761211	1.184199
H238	H	0.856949	1.094840	0.457673
H239	H	1.190283	1.428174	0.791006
H240	H	1.523616	1.761507	1.124339
C241	C	0.903688	0.937614	0.469870
C242	C	1.237022	1.270948	0.803203
C243	C	1.570355	1.604281	1.136536
H244	H	0.875843	0.971371	0.495539
H245	H	1.209176	1.304705	0.828872
H246	H	1.542509	1.638038	1.162205
H247	H	0.929309	0.905316	0.501581
H248	H	1.262642	1.238649	0.834914
H249	H	1.595975	1.571982	1.168248
H250	H	0.874155	0.905619	0.441723
H251	H	1.207489	1.238952	0.775056
H252	H	1.540822	1.572286	1.108390
H253	H	0.597966	0.476263	0.444630
H254	H	0.931300	0.809597	0.777964
H255	H	1.264633	1.142930	1.111297
C256	C	0.891070	0.277302	0.787367
C257	C	1.224404	0.610635	1.120700
C258	C	1.557737	0.943968	1.454034
H259	H	0.865619	0.247760	0.753932
H260	H	1.198953	0.581093	1.087266
H261	H	1.532286	0.914427	1.420599
H262	H	0.859294	0.304660	0.814759
H263	H	1.192627	0.637994	1.148092
H264	H	1.525961	0.971327	1.481426
H265	H	0.916829	0.242917	0.817081
H266	H	1.250163	0.576251	1.150414
H267	H	1.583496	0.909584	1.483748
C268	C	0.255793	0.518408	0.483892
C269	C	0.589126	0.851742	0.817225
C270	C	0.922460	1.185075	1.150559
H271	H	0.207089	0.509399	0.475514
H272	H	0.540422	0.842733	0.808847
H273	H	0.873756	1.176066	1.142181
H274	H	0.268214	0.572135	0.474010
H275	H	0.601548	0.905469	0.807344
H276	H	0.934881	1.238802	1.140677
H277	H	0.265947	0.505296	0.531607
H278	H	0.599280	0.838629	0.864940
H279	H	0.932614	1.171962	1.198274
C280	C	0.897230	0.284528	0.633260
C281	C	1.230563	0.617861	0.966593
C282	C	1.563897	0.951195	1.299926
H283	H	0.905623	0.294286	0.584556
H284	H	1.238956	0.627619	0.917889
H285	H	1.572289	0.960953	1.251222
H286	H	0.849530	0.293406	0.643384
H287	H	1.182863	0.626740	0.976718
H288	H	1.516196	0.960073	1.310051
H289	H	0.907067	0.231666	0.645712
H290	H	1.240401	0.564999	0.979046
H291	H	1.573734	0.898333	1.312379
H292	H	1.099543	0.519227	0.981950
H293	H	1.432876	0.852560	1.315283
H294	H	1.766210	1.185893	1.648616
H295	H	1.072635	0.488126	0.650783
H296	H	1.405968	0.821459	0.984116
H297	H	1.739301	1.154793	1.317449
C298	C	0.409899	0.525036	0.490058
C299	C	0.743233	0.858369	0.823391
C300	C	1.076566	1.191703	1.156724
H301	H	0.376464	0.552330	0.515484
H302	H	0.709797	0.885663	0.848818
H303	H	1.043131	1.218997	1.182151
H304	H	0.439589	0.561685	0.464271
H305	H	0.772922	0.895018	0.797604
H306	H	1.106256	1.228352	1.130938
H307	H	0.437315	0.494848	0.521870
H308	H	0.770649	0.828181	0.855204
H309	H	1.103982	1.161515	1.188537
H310	H	0.273321	0.330276	0.308720
H311	H	0.606654	0.663610	0.642054
H312	H	0.939987	0.996943	0.975387
C313	C	1.100119	0.954511	0.288870
C314	C	1.433452	1.287844	0.622203
C315	C	1.766785	1.621177	0.955537
H316	H	1.127991	0.993058	0.263216
H317	H	1.461325	1.326391	0.596550
H318	H	1.794658	1.659724	0.929883
H319	H	1.074478	0.922848	0.257145
H320	H	1.407811	1.256181	0.590478
H321	H	1.741145	1.589514	0.923811
H322	H	1.129628	0.922548	0.317006
H323	H	1.462961	1.255881	0.650340
H324	H	1.796294	1.589215	0.983673
C325	C	0.748634	0.293866	0.274789
C326	C	1.081967	0.627200	0.608123
C327	C	1.415301	0.960533	0.941456
H328	H	0.797337	0.302866	0.283179
H329	H	1.130670	0.636199	0.616512
H330	H	1.464003	0.969532	0.949846
H331	H	0.738484	0.306965	0.227075
H332	H	1.071817	0.640298	0.560408
H333	H	1.405151	0.973632	0.893742
H334	H	0.736210	0.240137	0.284683
H335	H	1.069543	0.573471	0.618016
H336	H	1.402877	0.906804	0.951349
H337	H	1.086814	1.113807	0.301219
H338	H	1.420147	1.447140	0.634552
H339	H	1.753481	1.780473	0.967885
C340	C	1.079705	0.496309	0.794912
C341	C	1.413038	0.829642	1.128246
C342	C	1.746372	1.162975	1.461579
H343	H	1.107738	0.528887	0.763616
H344	H	1.441072	0.862221	1.096950
H345	H	1.774405	1.195554	1.430283
H346	H	1.109197	0.466273	0.824781
H347	H	1.442530	0.799606	1.158115
H348	H	1.775863	1.132940	1.491448
H349	H	1.051653	0.528006	0.822448
H350	H	1.384987	0.861339	1.155781
H351	H	1.718320	1.194673	1.489114
H352	H	0.604487	0.301449	0.281861
H353	H	0.937821	0.634783	0.615194
H354	H	1.271154	0.968116	0.948528
C355	C	0.417451	0.322704	0.301639
C356	C	0.750784	0.656037	0.634973
C357	C	1.084118	0.989371	0.968306
H358	H	0.386157	0.292631	0.273621
H359	H	0.719490	0.625965	0.606955
H360	H	1.052823	0.959298	0.940288
H361	H	0.445022	0.288513	0.329710
H362	H	0.778356	0.621846	0.663044
H363	H	1.111689	0.955180	0.996377
H364	H	0.447284	0.355359	0.272119
H365	H	0.780618	0.688692	0.605453
H366	H	1.113951	1.022025	0.938786
H367	H	1.086668	0.712229	0.301121
H368	H	1.420001	1.045563	0.634454
H369	H	1.753334	1.378896	0.967788
