data_functionalizedCrystal
_audit_creation_method	'MofGen! by Chris Wilmer'
_symmetry_space_group_name_H-M	'P1'
_symmetry_Int_Tables_number	1
_symmetry_cell_setting	triclinic
loop_
_symmetry_equiv_pos_as_xyz
  x,y,z
_cell_length_a	14.519731
_cell_length_b	14.519709
_cell_length_c	12.996460
_cell_angle_alpha	90.007090
_cell_angle_beta	89.994327
_cell_angle_gamma	96.315501
loop_
_atom_site_label
_atom_site_type_symbol
_atom_site_fract_x
_atom_site_fract_y
_atom_site_fract_z
O1	O	1.223857	-0.120986	-0.085571
O2	O	1.557190	0.212347	0.247762
O3	O	1.890523	0.545680	0.581095
O4	O	0.955382	-0.135203	-0.085573
O5	O	1.288716	0.198131	0.247760
O6	O	1.622049	0.531464	0.581094
O7	O	1.096738	0.006143	-0.085563
O8	O	1.430071	0.339477	0.247770
O9	O	1.763404	0.672810	0.581104
O10	O	1.082501	-0.262332	-0.085582
O11	O	1.415835	0.071001	0.247752
O12	O	1.749168	0.404334	0.581085
O13	O	1.096723	0.006151	0.085571
O14	O	1.430056	0.339485	0.418904
O15	O	1.763390	0.672818	0.752238
O16	O	0.955368	-0.135195	0.085561
O17	O	1.288701	0.198139	0.418894
O18	O	1.622034	0.531472	0.752227
O19	O	1.223842	-0.120979	0.085563
O20	O	1.557175	0.212355	0.418896
O21	O	1.890509	0.545688	0.752229
Cu22	Cu	1.089603	-0.128086	0.101187
Cu23	Cu	1.422937	0.205247	0.434521
Cu24	Cu	1.756270	0.538581	0.767854
Cu25	Cu	1.089621	-0.128095	-0.101198
Cu26	Cu	1.422954	0.205238	0.232135
Cu27	Cu	1.756288	0.538571	0.565469
O28	O	1.082487	-0.262325	0.085552
O29	O	1.415820	0.071009	0.418886
O30	O	1.749153	0.404342	0.752219
C31	C	0.921016	-0.134532	-0.000006
C32	C	1.254349	0.198801	0.333327
C33	C	1.587682	0.532134	0.666660
C34	C	0.818635	-0.132536	-0.000007
C35	C	1.151969	0.200797	0.333327
C36	C	1.485302	0.534130	0.666660
C37	C	0.735491	-0.130915	-0.000011
C38	C	1.068825	0.202419	0.333322
C39	C	1.402158	0.535752	0.666656
C40	C	0.631182	-0.128888	-0.000011
C41	C	0.964516	0.204445	0.333322
C42	C	1.297849	0.537779	0.666656
C43	C	0.548043	-0.127280	-0.000011
C44	C	0.881377	0.206054	0.333322
C45	C	1.214710	0.539387	0.666656
C46	C	0.443728	-0.125253	-0.000013
C47	C	0.777061	0.208080	0.333320
C48	C	1.110395	0.541414	0.666654
C49	C	1.096067	0.040507	0.000004
C50	C	1.429400	0.373840	0.333337
C51	C	1.762734	0.707174	0.666671
C52	C	1.094079	0.142889	0.000005
C53	C	1.427412	0.476222	0.333338
C54	C	1.760745	0.809555	0.666671
C55	C	1.258209	-0.121649	-0.000007
C56	C	1.591542	0.211685	0.333327
C57	C	1.924875	0.545018	0.666660
C58	C	1.360589	-0.123645	-0.000013
C59	C	1.693922	0.209689	0.333320
C60	C	2.027256	0.543022	0.666654
C61	C	1.083157	-0.296688	-0.000017
C62	C	1.416491	0.036645	0.333316
C63	C	1.749824	0.369978	0.666650
C64	C	1.085146	-0.399070	-0.000024
C65	C	1.418479	-0.065736	0.333309
C66	C	1.751812	0.267597	0.666642
N67	N	1.089598	-0.128079	0.243535
N68	N	1.422931	0.205254	0.576868
N69	N	1.756265	0.538588	0.910201
C70	C	1.086759	0.517785	-0.000022
C71	C	1.420093	0.851118	0.333311
C72	C	1.753426	1.184452	0.666645
C73	C	1.088792	0.413477	-0.000014
C74	C	1.422125	0.746810	0.333319
C75	C	1.755459	1.080143	0.666652
C76	C	1.090419	0.330340	-0.000008
C77	C	1.423752	0.663673	0.333326
C78	C	1.757085	0.997007	0.666659
C79	C	1.092452	0.226025	-0.000002
C80	C	1.425785	0.559359	0.333331
C81	C	1.759118	0.892692	0.666665
N82	N	1.089634	-0.128095	-0.243545
N83	N	1.422967	0.205238	0.089788
N84	N	1.756300	0.538572	0.423121
C85	C	1.089620	-0.128096	0.663349
C86	C	1.422953	0.205237	0.996682
C87	C	1.756286	0.538571	1.330016
C88	C	1.089611	-0.128094	0.546544
C89	C	1.422944	0.205239	0.879877
C90	C	1.756277	0.538572	1.213210
C91	C	1.089609	-0.128088	0.453445
C92	C	1.422943	0.205245	0.786779
C93	C	1.756276	0.538578	1.120112
C94	C	1.089600	-0.128085	0.336633
C95	C	1.422933	0.205248	0.669966
C96	C	1.756266	0.538582	1.003300
