data_functionalizedCrystal
_audit_creation_method	'MofGen! by Chris Wilmer'
_symmetry_space_group_name_H-M	'P1'
_symmetry_Int_Tables_number	1
_symmetry_cell_setting	triclinic
loop_
_symmetry_equiv_pos_as_xyz
  x,y,z
_cell_length_a	20.453700
_cell_length_b	23.752963
_cell_length_c	23.753277
_cell_angle_alpha	82.879326
_cell_angle_beta	79.927496
_cell_angle_gamma	100.066732
loop_
_atom_site_label
_atom_site_type_symbol
_atom_site_fract_x
_atom_site_fract_y
_atom_site_fract_z
V1	V	-1.323956	-0.079914	0.178732
O2	O	-1.325917	0.003068	0.174984
O3	O	-1.302367	-0.157713	0.177842
O4	O	-1.302376	-0.079023	0.256532
O5	O	-1.325907	-0.076166	0.095750
V6	V	-1.486578	-0.069948	0.168766
O7	O	-1.407867	-0.101774	0.200593
O8	O	-1.552734	-0.048088	0.146906
O9	O	-1.433765	0.007851	0.169657
O10	O	-1.523750	-0.152930	0.172514
O11	O	-1.523759	-0.073695	0.251749
O12	O	-1.433756	-0.070839	0.090967
V13	V	-0.990623	-0.079914	0.178732
O14	O	-0.992583	0.003068	0.174984
O15	O	-0.969033	-0.157713	0.177842
O16	O	-0.969043	-0.079023	0.256532
O17	O	-0.992574	-0.076166	0.095750
V18	V	-1.153245	-0.069948	0.168766
O19	O	-1.074533	-0.101774	0.200593
O20	O	-1.219400	-0.048088	0.146906
O21	O	-1.100432	0.007851	0.169657
O22	O	-1.190417	-0.152930	0.172514
O23	O	-1.190426	-0.073695	0.251749
O24	O	-1.100423	-0.070839	0.090967
V25	V	-0.657290	-0.079914	0.178732
O26	O	-0.659250	0.003068	0.174984
O27	O	-0.635700	-0.157713	0.177842
O28	O	-0.635709	-0.079023	0.256532
O29	O	-0.659241	-0.076166	0.095750
V30	V	-0.819912	-0.069948	0.168766
O31	O	-0.741200	-0.101774	0.200593
O32	O	-0.886067	-0.048088	0.146906
O33	O	-0.767099	0.007851	0.169657
O34	O	-0.857083	-0.152930	0.172514
O35	O	-0.857093	-0.073695	0.251749
O36	O	-0.767090	-0.070839	0.090967
C37	C	-1.249549	-0.176668	0.175108
C38	C	-1.258957	-0.240272	0.174899
C39	C	-1.308240	-0.626288	0.121108
C40	C	-1.317088	-0.686050	0.120904
O41	O	-1.313939	-0.709824	0.076209
N42	N	-1.330620	-0.724330	0.173234
C43	C	-1.335311	-0.702846	0.225773
O44	O	-1.347633	-0.740894	0.270266
C45	C	-1.326468	-0.643085	0.225977
C46	C	-1.312929	-0.604807	0.173643
C47	C	-1.294703	-0.588011	0.068778
C48	C	-1.285855	-0.528253	0.068983
C49	C	-1.290544	-0.506772	0.121517
C50	C	-1.304081	-0.545049	0.173847
C51	C	-1.331163	-0.621602	0.278516
C52	C	-1.322320	-0.561836	0.278715
C53	C	-1.308781	-0.523559	0.226381
C54	C	-1.299921	-0.463811	0.226587
N55	N	-1.286390	-0.425530	0.174256
C56	C	-1.281701	-0.447011	0.121721
C57	C	-1.353882	-0.828347	0.225340
C58	C	-1.362720	-0.888107	0.225137
C59	C	-1.344498	-0.871307	0.120267
C60	C	-1.335655	-0.811546	0.120471
C61	C	-1.340350	-0.790067	0.173010
C62	C	-1.263119	-0.321516	0.122155
C63	C	-1.254268	-0.261753	0.122364
C64	C	-1.272494	-0.278559	0.227234
C65	C	-1.281341	-0.338316	0.227025
C66	C	-1.276655	-0.359792	0.174481
O67	O	-1.303064	-0.439995	0.271259
O68	O	-1.269387	-0.408958	0.077237
C69	C	-1.249561	-0.076291	0.275484
C70	C	-1.258975	-0.076077	0.339088
C71	C	-1.374363	0.026804	0.172389
C72	C	-1.358035	0.090407	0.172602
C73	C	-1.374352	-0.073573	0.072012
C74	C	-1.358018	-0.073783	0.008407
C75	C	-1.308749	-0.127572	0.622392
C76	C	-1.299905	-0.127776	0.562630
O77	O	-1.303050	-0.172470	0.538855
N78	N	-1.286381	-0.075446	0.524350
C79	C	-1.281694	-0.022907	0.545835
O80	O	-1.269378	0.021585	0.507788
C81	C	-1.290534	-0.022703	0.605596
C82	C	-1.304065	-0.075038	0.643873
C83	C	-1.322279	-0.179902	0.660668
C84	C	-1.331124	-0.179698	0.720426
C85	C	-1.326439	-0.127163	0.741907
C86	C	-1.312910	-0.074833	0.703631
C87	C	-1.285842	0.029835	0.627079
C88	C	-1.294683	0.030034	0.686845
C89	C	-1.308214	-0.022300	0.725122
C90	C	-1.317070	-0.022095	0.784870
N91	N	-1.330595	-0.074425	0.823149
C92	C	-1.335279	-0.126960	0.801668
C93	C	-1.263130	-0.023339	0.420334
C94	C	-1.254295	-0.023543	0.360575
C95	C	-1.272505	-0.128412	0.377373
C96	C	-1.281345	-0.128208	0.437134
C97	C	-1.276654	-0.075670	0.458614
C98	C	-1.353854	-0.126527	0.927163
C99	C	-1.362702	-0.126318	0.986926
C100	C	-1.344488	-0.021449	0.970122
C101	C	-1.335644	-0.021657	0.910365
C102	C	-1.340326	-0.074201	0.888887
O103	O	-1.313932	0.022577	0.808686
O104	O	-1.347586	-0.171444	0.839721
C105	C	-0.916216	-0.176668	0.175108
C106	C	-0.925623	-0.240272	0.174899
C107	C	-0.916228	-0.076291	0.275484
C108	C	-0.925642	-0.076077	0.339088
C109	C	-1.041030	0.026804	0.172389
C110	C	-1.024702	0.090407	0.172602
C111	C	-1.041019	-0.073573	0.072012
C112	C	-1.024684	-0.073783	0.008407
C113	C	-0.582883	-0.176668	0.175108
C114	C	-0.592290	-0.240272	0.174899
C115	C	-0.582894	-0.076291	0.275484
C116	C	-0.592309	-0.076077	0.339088
C117	C	-0.707697	0.026804	0.172389
C118	C	-0.691368	0.090407	0.172602
C119	C	-0.707685	-0.073573	0.072012
C120	C	-0.691351	-0.073783	0.008407
C121	C	-0.990342	-0.273071	0.177672
C122	C	-0.999192	-0.332836	0.177484
C123	C	-0.943322	-0.359800	0.174519
C124	C	-0.878599	-0.326997	0.171748
C125	C	-0.869750	-0.267234	0.171940
C126	C	-0.990363	-0.078842	0.371886
C127	C	-0.999216	-0.078634	0.431647
C128	C	-0.943349	-0.075665	0.458611
C129	C	-0.878623	-0.072899	0.425809
C130	C	-0.869769	-0.073102	0.366048
C131	C	-1.074979	0.123206	0.169830
C132	C	-1.059643	0.182970	0.170021
C133	C	-0.994031	0.209934	0.172987
C134	C	-0.943750	0.177132	0.175757
C135	C	-0.959085	0.117369	0.175562
C136	C	-0.959064	-0.076746	-0.018542
C137	C	-0.943705	-0.076937	-0.078306
C138	C	-0.993968	-0.074169	-0.111119
C139	C	-1.059593	-0.071205	-0.084166
C140	C	-1.074950	-0.071010	-0.024404
C141	C	-0.657009	-0.273071	0.177672
C142	C	-0.665859	-0.332836	0.177484
C143	C	-0.609989	-0.359800	0.174519
C144	C	-0.545265	-0.326997	0.171748
C145	C	-0.536417	-0.267234	0.171940
C146	C	-0.657029	-0.078842	0.371886
C147	C	-0.665883	-0.078634	0.431647
C148	C	-0.610016	-0.075665	0.458611
C149	C	-0.545290	-0.072899	0.425809
C150	C	-0.536436	-0.073102	0.366048
C151	C	-0.741646	0.123206	0.169830
C152	C	-0.726310	0.182970	0.170021
C153	C	-0.660698	0.209934	0.172987
C154	C	-0.610417	0.177132	0.175757
C155	C	-0.625752	0.117369	0.175562
C156	C	-0.625731	-0.076746	-0.018542
C157	C	-0.610371	-0.076937	-0.078306
C158	C	-0.660635	-0.074169	-0.111119
C159	C	-0.726260	-0.071205	-0.084166
C160	C	-0.741617	-0.071010	-0.024404
H161	H	-1.243241	-0.230589	0.079745
H162	H	-0.890266	-0.079350	-0.100242
C163	C	-0.737086	-0.081684	0.467722
C164	C	-0.776946	-0.034138	0.453907
C165	C	-0.848148	-0.037189	0.489980
C166	C	-0.879491	-0.087786	0.539866
C167	C	-0.839630	-0.135335	0.553683
C168	C	-0.768428	-0.132284	0.517611
H169	H	-0.753744	0.003320	0.416976
H170	H	-0.877655	-0.001989	0.479751
H171	H	-0.932199	-0.090044	0.566569
H172	H	-0.862832	-0.172793	0.590615
H173	H	-0.738921	-0.167484	0.527840
C174	C	-0.737056	-0.368909	0.180525
C175	C	-0.794268	-0.371082	0.232858
C176	C	-0.865464	-0.407152	0.235897
C177	C	-0.879449	-0.441049	0.186604
C178	C	-0.822236	-0.438877	0.134268
C179	C	-0.751039	-0.402807	0.131228
H180	H	-0.783917	-0.345988	0.269351
H181	H	-0.907817	-0.408760	0.274640
H182	H	-0.932153	-0.467750	0.188854
H183	H	-0.832587	-0.463971	0.097775
H184	H	-0.708686	-0.401200	0.092485
H185	H	-0.584808	0.090668	0.177824
H186	H	-0.767259	0.209670	0.167766
H187	H	-0.483732	-0.070852	0.339348
C188	C	-0.643737	-0.074389	-0.176857
C189	C	-0.682003	-0.122871	-0.203345
C190	C	-0.665102	-0.123092	-0.269082
C191	C	-0.609935	-0.074831	-0.308332
C192	C	-0.571666	-0.026345	-0.281845
C193	C	-0.588567	-0.026124	-0.216107
H194	H	-0.722844	-0.158600	-0.174289
H195	H	-0.693431	-0.158985	-0.288689
H196	H	-0.597424	-0.074995	-0.356994
H197	H	-0.530825	0.009384	-0.310900
H198	H	-0.560237	0.009769	-0.196500
H199	H	-0.950568	-0.075500	0.507273
C200	C	-0.619728	-0.425540	0.174302
C201	C	-0.690921	-0.461612	0.177347
C202	C	-0.700664	-0.527350	0.177128
C203	C	-0.639215	-0.557017	0.173863
C204	C	-0.568017	-0.520945	0.170818
C205	C	-0.558274	-0.455206	0.171038
H206	H	-0.736414	-0.439651	0.179764
H207	H	-0.753370	-0.554053	0.179382
H208	H	-0.646428	-0.605681	0.173701
H209	H	-0.522524	-0.542906	0.168401
H210	H	-0.505568	-0.428504	0.168783
H211	H	-0.817066	-0.070852	0.339348
H212	H	-0.483714	-0.240533	0.169679
C213	C	-0.781545	-0.068167	-0.120267
C214	C	-0.772071	-0.017571	-0.170157
C215	C	-0.827356	-0.014537	-0.206259
C216	C	-0.892114	-0.062098	-0.192472
C217	C	-0.901591	-0.112698	-0.142579
C218	C	-0.846306	-0.115732	-0.106477
H219	H	-0.724131	0.017640	-0.180365
H220	H	-0.820340	0.022920	-0.243193
H221	H	-0.933039	-0.059852	-0.219197
H222	H	-0.949531	-0.147909	-0.132371
H223	H	-0.853322	-0.153189	-0.069543
C224	C	-1.257958	-0.345134	0.064357
C225	C	-1.204095	-0.381124	0.047060
C226	C	-1.198928	-0.404741	-0.010737
C227	C	-1.247625	-0.392368	-0.051239
C228	C	-1.301492	-0.356375	-0.033943
C229	C	-1.306658	-0.332758	0.023855
H230	H	-1.168043	-0.390286	0.077043
H231	H	-1.159052	-0.431386	-0.023541
H232	H	-1.243800	-0.409851	-0.094024
H233	H	-1.337544	-0.347214	-0.063925
H234	H	-1.346535	-0.306114	0.036658
H235	H	-1.276307	-0.261058	0.270006
H236	H	-1.274836	-0.497092	0.026367
H237	H	-1.326152	-0.544353	0.321500
H238	H	-0.918128	-0.078999	0.008167
H239	H	-1.290885	-0.605493	0.025996
H240	H	-0.584795	-0.078999	0.008167
H241	H	-1.324630	-0.780383	0.077856
C242	C	-1.070390	-0.368909	0.180525
C243	C	-1.127601	-0.371082	0.232858
C244	C	-1.198798	-0.407152	0.235897
C245	C	-1.212782	-0.441049	0.186604
C246	C	-1.155569	-0.438877	0.134268
C247	C	-1.084373	-0.402807	0.131228
H248	H	-1.117250	-0.345988	0.269351
H249	H	-1.241151	-0.408760	0.274640
H250	H	-1.265486	-0.467750	0.188854
H251	H	-1.165920	-0.463971	0.097775
H252	H	-1.042020	-0.401200	0.092485
H253	H	-0.981456	-0.074336	-0.159779
C254	C	-1.114961	0.219043	0.166981
C255	C	-1.179722	0.205235	0.214544
C256	C	-1.235041	0.241305	0.211505
C257	C	-1.225597	0.291183	0.160903
C258	C	-1.160832	0.304992	0.113336
C259	C	-1.105514	0.268922	0.116375
H260	H	-1.186716	0.168311	0.252006
H261	H	-1.282984	0.231082	0.246718
H262	H	-1.266547	0.317884	0.158653
H263	H	-1.153839	0.341917	0.075874
H264	H	-1.057571	0.279145	0.081162
H265	H	-0.817048	-0.240533	0.169679
H266	H	-0.890328	0.199095	0.178171
H267	H	-0.981553	0.258597	0.173145
C268	C	-1.296206	-0.380433	0.284584
C269	C	-1.245051	-0.376364	0.325122
C270	C	-1.259911	-0.418480	0.382679
C271	C	-1.325927	-0.464665	0.399700
C272	C	-1.377087	-0.468735	0.359161
C273	C	-1.362226	-0.426619	0.301604
H274	H	-1.196178	-0.342174	0.312523
H275	H	-1.222039	-0.415467	0.412688
H276	H	-1.336928	-0.495842	0.442307
H277	H	-1.425959	-0.502926	0.371760
H278	H	-1.400098	-0.429633	0.271595
C279	C	-1.114878	-0.068167	-0.120267
C280	C	-1.105405	-0.017571	-0.170157
C281	C	-1.160689	-0.014537	-0.206259
C282	C	-1.225448	-0.062098	-0.192472
C283	C	-1.234924	-0.112698	-0.142579
C284	C	-1.179640	-0.115732	-0.106477
H285	H	-1.057464	0.017640	-0.180365
H286	H	-1.153674	0.022920	-0.243193
H287	H	-1.266372	-0.059852	-0.219197
H288	H	-1.282865	-0.147909	-0.132371
H289	H	-1.186655	-0.153189	-0.069543
H290	H	-1.340681	-0.888807	0.077490
H291	H	-1.373732	-0.919268	0.267752
H292	H	-1.243288	0.019073	0.329414
H293	H	-1.274826	0.072451	0.595924
H294	H	-1.357703	-0.810864	0.268126
H295	H	-1.342187	-0.652759	0.321132
H296	H	-0.833113	-0.348961	0.169334
H297	H	-1.373721	-0.168936	1.018090
H298	H	-1.326093	-0.222684	0.643186
H299	H	-1.357666	-0.169312	0.909684
H300	H	-1.035841	-0.251125	0.180083
H301	H	-0.702527	-0.081261	0.349940
H302	H	-1.128387	-0.068601	-0.002467
C303	C	-1.346004	-0.237272	0.762518
C304	C	-1.409735	-0.283286	0.763998
C305	C	-1.424614	-0.340867	0.806082
C306	C	-1.375763	-0.352433	0.846685
C307	C	-1.312028	-0.306417	0.845206
C308	C	-1.297149	-0.248837	0.803122
H309	H	-1.445901	-0.274726	0.733940
H310	H	-1.471796	-0.374930	0.807176
H311	H	-1.386778	-0.395057	0.877838
H312	H	-1.275862	-0.314978	0.875264
H313	H	-1.249968	-0.214773	0.802028
H314	H	-1.128408	0.101260	0.167416
H315	H	-1.292360	-0.170823	0.468296
H316	H	-0.702508	-0.251125	0.180083
H317	H	-1.276315	-0.171188	0.359873
H318	H	-0.499779	-0.348961	0.169334
H319	H	-1.290866	0.072818	0.704329
C320	C	-1.257980	0.034457	0.443959
C321	C	-1.191817	0.080421	0.426017
C322	C	-1.186666	0.138217	0.449638
C323	C	-1.247679	0.150049	0.491200
C324	C	-1.313847	0.104083	0.509143
C325	C	-1.318998	0.046287	0.485523
H326	H	-1.146648	0.071664	0.395249
H327	H	-1.137684	0.172244	0.436354
H328	H	-1.243866	0.192833	0.508685
H329	H	-1.359016	0.112840	0.539912
H330	H	-1.367980	0.012261	0.498806
C331	C	-1.320738	0.035903	0.868245
C332	C	-1.256988	0.081901	0.866754
C333	C	-1.242062	0.139460	0.824633
C334	C	-1.290886	0.151022	0.784002
C335	C	-1.354640	0.105024	0.785492
C336	C	-1.369566	0.047465	0.827613
H337	H	-1.220842	0.073343	0.896832
H338	H	-1.194867	0.173511	0.823531
H339	H	-1.279836	0.193631	0.752822
H340	H	-1.390786	0.113582	0.755413
H341	H	-1.416761	0.013414	0.828715
H342	H	-1.340678	0.021323	0.987623
C343	C	-0.953062	-0.425540	0.174303
C344	C	-0.999774	-0.468006	0.225718
C345	C	-1.009518	-0.533745	0.225499
C346	C	-0.972551	-0.557018	0.173865
C347	C	-0.925836	-0.514550	0.122445
C348	C	-0.916092	-0.448811	0.122664
H349	H	-1.027142	-0.450779	0.263945
H350	H	-1.044099	-0.565182	0.263564
H351	H	-0.979764	-0.605682	0.173702
H352	H	-0.898468	-0.531777	0.084218
H353	H	-0.881511	-0.417374	0.084600
H354	H	-0.648220	0.258597	0.173145
H355	H	-1.035860	-0.081261	0.349940
H356	H	-1.051924	-0.080889	0.458347
H357	H	-0.833139	-0.070482	0.447772
H358	H	-0.918141	0.090668	0.177824
H359	H	-0.617235	-0.075500	0.507273
H360	H	-0.499806	-0.070482	0.447772
H361	H	-0.795074	0.101260	0.167416
H362	H	-0.556994	0.199095	0.178171
H363	H	-0.556933	-0.079350	-0.100242
H364	H	-0.795053	-0.068601	-0.002467
