data_functionalizedCrystal
_audit_creation_method	'MofGen! by Chris Wilmer'
_symmetry_space_group_name_H-M	'P1'
_symmetry_Int_Tables_number	1
_symmetry_cell_setting	triclinic
loop_
_symmetry_equiv_pos_as_xyz
  x,y,z
_cell_length_a	10.489711
_cell_length_b	16.109301
_cell_length_c	14.586319
_cell_angle_alpha	90.005214
_cell_angle_beta	89.994956
_cell_angle_gamma	96.005755
loop_
_atom_site_label
_atom_site_type_symbol
_atom_site_fract_x
_atom_site_fract_y
_atom_site_fract_z
O1	O	1.692374	-0.117180	-0.076277
O2	O	2.192374	0.382820	0.423723
O3	O	1.321013	-0.128216	-0.076272
O4	O	1.821013	0.371784	0.423728
O5	O	1.516895	-0.001729	-0.076265
O6	O	2.016895	0.498271	0.423735
O7	O	1.496492	-0.243667	-0.076283
O8	O	1.996492	0.256333	0.423717
O9	O	1.516882	-0.001727	0.076216
O10	O	2.016882	0.498273	0.576216
O11	O	1.321000	-0.128214	0.076209
O12	O	1.821000	0.371786	0.576209
O13	O	1.692360	-0.117178	0.076204
O14	O	2.192360	0.382822	0.576204
Cu15	Cu	1.506679	-0.122696	0.090129
Cu16	Cu	2.006679	0.377304	0.590129
Cu17	Cu	1.506695	-0.122698	-0.090197
Cu18	Cu	2.006695	0.377302	0.409803
O19	O	1.496478	-0.243665	0.076197
O20	O	1.996478	0.256335	0.576197
C21	C	1.516062	0.029252	-0.000024
C22	C	2.016062	0.529252	0.499976
C23	C	1.513584	0.121562	-0.000023
C24	C	2.013584	0.621562	0.499977
C25	C	1.273486	-0.127387	-0.000030
C26	C	1.773486	0.372613	0.499970
C27	C	1.131891	-0.124909	-0.000028
C28	C	1.631891	0.375091	0.499972
C29	C	0.948401	-0.200974	-0.000044
C30	C	1.448401	0.299026	0.499956
C31	C	1.041104	-0.162979	-0.075221
C32	C	1.541104	0.337021	0.424779
C33	C	1.041064	-0.162957	0.075113
C34	C	1.541064	0.337043	0.575113
C35	C	0.972321	-0.082457	-0.075286
C36	C	1.472321	0.417543	0.424714
C37	C	0.972272	-0.082446	0.075115
C38	C	1.472272	0.417554	0.575115
C39	C	1.064949	-0.044393	-0.000080
C40	C	1.564949	0.455607	0.499920
C41	C	1.739887	-0.118007	-0.000039
C42	C	2.239887	0.381993	0.499961
C43	C	1.881483	-0.120485	-0.000047
C44	C	2.381483	0.379515	0.499953
N45	N	1.506677	-0.122694	0.216961
N46	N	2.006677	0.377306	0.716961
C47	C	1.497312	-0.274646	-0.000045
C48	C	1.997312	0.225354	0.499955
C49	C	1.499790	-0.366956	-0.000053
C50	C	1.999790	0.133044	0.499947
C51	C	1.624055	0.343161	-0.000039
C52	C	2.124055	0.843161	0.499961
C53	C	1.621717	0.429896	-0.000046
C54	C	2.121717	0.929896	0.499954
C55	C	1.389310	0.411438	-0.000040
C56	C	1.889310	0.911438	0.499960
C57	C	1.391649	0.324705	-0.000039
C58	C	1.891649	0.824705	0.499961
C59	C	1.509026	0.290569	-0.000034
C60	C	2.009026	0.790569	0.499966
C61	C	1.504348	0.464037	-0.000042
C62	C	2.004348	0.964037	0.499958
C63	C	1.501812	0.558078	-0.000050
C64	C	2.001812	1.058078	0.499950
C65	C	1.511562	0.196522	-0.000027
C66	C	2.011562	0.696522	0.499973
N67	N	1.506707	-0.122694	-0.217029
N68	N	2.006707	0.377306	0.282971
C69	C	1.593442	-0.066705	0.451970
C70	C	2.093442	0.433295	0.951970
C71	C	1.593446	-0.066703	0.547952
C72	C	2.093446	0.433297	1.047952
C73	C	1.419933	-0.178686	0.547955
C74	C	1.919933	0.321314	1.047955
C75	C	1.419924	-0.178683	0.451976
C76	C	1.919924	0.321317	0.951976
C77	C	1.506686	-0.122693	0.403986
C78	C	2.006686	0.377307	0.903986
C79	C	1.506698	-0.122694	0.595947
C80	C	2.006698	0.377306	1.095947
C81	C	1.506701	-0.122692	0.700014
C82	C	2.006701	0.377308	1.200014
C83	C	1.506681	-0.122694	0.299912
C84	C	2.006681	0.377306	0.799912
H85	H	0.897751	-0.267130	-0.000124
H86	H	1.397751	0.232870	0.499876
H87	H	1.664089	-0.021110	0.587018
H88	H	2.164089	0.478890	1.087018
F89	F	1.080965	-0.207493	-0.158304
F90	F	1.580965	0.292507	0.341696
H91	H	0.941737	-0.048417	0.138680
H92	H	1.441737	0.451583	0.638680
H93	H	1.349270	-0.224276	0.412904
H94	H	1.849270	0.275724	0.912904
F95	F	1.748977	0.306834	-0.000035
F96	F	2.248977	0.806834	0.499965
F97	F	1.080877	-0.207488	0.158185
F98	F	1.580877	0.292512	0.658185
H99	H	1.293746	0.439242	-0.000042
H100	H	1.793746	0.939242	0.499958
F101	F	1.327602	-0.238273	0.599036
F102	F	1.827602	0.261727	1.099036
H103	H	0.942012	-0.048433	-0.138917
H104	H	1.442012	0.451567	0.361083
H105	H	1.115367	0.021824	-0.000113
H106	H	1.615367	0.521824	0.499887
F107	F	1.269212	0.268729	-0.000040
F108	F	1.769212	0.768729	0.499960
H109	H	1.715386	0.472713	-0.000053
H110	H	2.215386	0.972713	0.499947
F111	F	1.685779	-0.007113	0.400900
F112	F	2.185779	0.492887	0.900900
