data_functionalizedCrystal
_audit_creation_method	'MofGen! by Chris Wilmer'
_symmetry_space_group_name_H-M	'P1'
_symmetry_Int_Tables_number	1
_symmetry_cell_setting	triclinic
loop_
_symmetry_equiv_pos_as_xyz
  x,y,z
_cell_length_a	18.215407
_cell_length_b	18.215405
_cell_length_c	18.215407
_cell_angle_alpha	89.985182
_cell_angle_beta	89.989002
_cell_angle_gamma	90.024806
loop_
_atom_site_label
_atom_site_type_symbol
_atom_site_fract_x
_atom_site_fract_y
_atom_site_fract_z
Zn1	Zn	-1.125002	0.293108	0.416117
Zn2	Zn	-0.875002	0.543108	0.666117
Zn3	Zn	-0.625002	0.793108	0.916117
Zn4	Zn	-0.375002	1.043108	1.166117
Zn5	Zn	-1.124931	0.416145	0.293045
Zn6	Zn	-0.874931	0.666145	0.543045
Zn7	Zn	-0.624931	0.916145	0.793045
Zn8	Zn	-0.374931	1.166145	1.043045
Zn9	Zn	-1.001955	0.293097	0.293063
Zn10	Zn	-0.751955	0.543097	0.543063
Zn11	Zn	-0.501955	0.793097	0.793063
Zn12	Zn	-0.251955	1.043097	1.043063
Zn13	Zn	-1.001901	0.416137	0.416069
Zn14	Zn	-0.751901	0.666137	0.666069
Zn15	Zn	-0.501901	0.916137	0.916069
Zn16	Zn	-0.251901	1.166137	1.166069
O17	O	-1.063447	0.354622	0.354574
O18	O	-0.813447	0.604622	0.604574
O19	O	-0.563447	0.854622	0.854574
O20	O	-0.313447	1.104622	1.104574
O21	O	-1.227977	0.309437	0.399805
O22	O	-0.977977	0.559437	0.649805
O23	O	-0.727977	0.809437	0.899805
O24	O	-0.477977	1.059437	1.149805
O25	O	-1.108611	0.399821	0.190064
O26	O	-0.858611	0.649821	0.440064
O27	O	-0.608611	0.899821	0.690064
O28	O	-0.358611	1.149821	0.940064
O29	O	-1.018330	0.190114	0.309414
O30	O	-0.768330	0.440114	0.559414
O31	O	-0.518330	0.690114	0.809414
O32	O	-0.268330	0.940114	1.059414
O33	O	-1.227925	0.399832	0.309384
O34	O	-0.977925	0.649832	0.559384
O35	O	-0.727925	0.899832	0.809384
O36	O	-0.477925	1.149832	1.059384
O37	O	-1.108732	0.190122	0.399822
O38	O	-0.858732	0.440122	0.649822
O39	O	-0.608732	0.690122	0.899822
O40	O	-0.358732	0.940122	1.149822
O41	O	-1.018262	0.309418	0.190076
O42	O	-0.768262	0.559418	0.440076
O43	O	-0.518262	0.809418	0.690076
O44	O	-0.268262	1.059418	0.940076
O45	O	-0.898964	0.309410	0.309367
O46	O	-0.648964	0.559410	0.559367
O47	O	-0.398964	0.809410	0.809367
O48	O	-0.148964	1.059410	1.059367
O49	O	-1.018237	0.399818	0.519059
O50	O	-0.768237	0.649818	0.769059
O51	O	-0.518237	0.899818	1.019059
O52	O	-0.268237	1.149818	1.269059
O53	O	-0.898924	0.399807	0.399739
O54	O	-0.648924	0.649807	0.649739
O55	O	-0.398924	0.899807	0.899739
O56	O	-0.148924	1.149807	1.149739
O57	O	-1.108679	0.309429	0.519095
O58	O	-0.858679	0.559429	0.769095
O59	O	-0.608679	0.809429	1.019095
O60	O	-0.358679	1.059429	1.269095
O61	O	-1.108558	0.519128	0.309337
O62	O	-0.858558	0.769128	0.559337
O63	O	-0.608558	1.019128	0.809337
O64	O	-0.358558	1.269128	1.059337
O65	O	-1.018168	0.519122	0.399722
O66	O	-0.768168	0.769122	0.649722
O67	O	-0.518168	1.019122	0.899722
O68	O	-0.268168	1.269122	1.149722
C69	C	-0.872241	0.354607	0.354550
C70	C	-0.622241	0.604607	0.604550
C71	C	-0.372241	0.854607	0.854550
C72	C	-0.122241	1.104607	1.104550
C73	C	-0.790442	0.354619	0.354557
C74	C	-0.540442	0.604619	0.604557
C75	C	-0.290442	0.854619	0.854557
C76	C	-0.040442	1.104619	1.104557
C77	C	-0.602247	0.401761	0.401552
C78	C	-0.352247	0.651761	0.651552
C79	C	-0.102247	0.901761	0.901552
C80	C	0.147753	1.151761	1.151552
C81	C	-0.525388	0.401762	0.401560
C82	C	-0.275388	0.651762	0.651560
C83	C	-0.025388	0.901762	0.901560
C84	C	0.224612	1.151762	1.151560
C85	C	-0.525400	0.307487	0.307598
C86	C	-0.275400	0.557487	0.557598
C87	C	-0.025400	0.807487	0.807598
C88	C	0.224600	1.057487	1.057598
C89	C	-0.602257	0.307482	0.307594
C90	C	-0.352257	0.557482	0.557594
C91	C	-0.102257	0.807482	0.807594
C92	C	0.147743	1.057482	1.057594
C93	C	-0.640679	0.354623	0.354570
C94	C	-0.390679	0.604623	0.604570
C95	C	-0.140679	0.854623	0.854570
C96	C	0.109321	1.104623	1.104570
C97	C	-0.486963	0.354629	0.354582
C98	C	-0.236963	0.604629	0.604582
C99	C	0.013037	0.854629	0.854582
C100	C	0.263037	1.104629	1.104582
C101	C	-0.403629	0.354631	0.354591
C102	C	-0.153629	0.604631	0.604591
C103	C	0.096371	0.854631	0.854591
C104	C	0.346371	1.104631	1.104591
C105	C	-0.724018	0.354621	0.354563
C106	C	-0.474018	0.604621	0.604563
C107	C	-0.224018	0.854621	0.854563
C108	C	0.025982	1.104621	1.104563
C109	C	-1.063370	0.545828	0.354538
C110	C	-0.813370	0.795828	0.604538
C111	C	-0.563370	1.045828	0.854538
C112	C	-0.313370	1.295828	1.104538
C113	C	-1.063404	0.627627	0.354548
C114	C	-0.813404	0.877627	0.604548
C115	C	-0.563404	1.127627	0.854548
C116	C	-0.313404	1.377627	1.104548
C117	C	-0.255400	0.354634	0.354594
C118	C	-0.005400	0.604634	0.604594
C119	C	0.244600	0.854634	0.854594
C120	C	0.494600	1.104634	1.104594
C121	C	-0.337199	0.354634	0.354595
C122	C	-0.087199	0.604634	0.604595
C123	C	0.162801	0.854634	0.854595
C124	C	0.412801	1.104634	1.104595
C125	C	-1.063460	0.354624	0.546527
C126	C	-0.813460	0.604624	0.796527
C127	C	-0.563460	0.854624	1.046527
C128	C	-0.313460	1.104624	1.296527
C129	C	-1.063465	0.354624	0.628325
C130	C	-0.813465	0.604624	0.878325
C131	C	-0.563465	0.854624	1.128325
C132	C	-0.313465	1.104624	1.378325
C133	C	-1.063545	0.162669	0.354625
C134	C	-0.813545	0.412669	0.604625
C135	C	-0.563545	0.662669	0.854625
C136	C	-0.313545	0.912669	1.104625
C137	C	-1.063587	0.080870	0.354647
C138	C	-0.813587	0.330870	0.604647
C139	C	-0.563587	0.580870	0.854647
C140	C	-0.313587	0.830870	1.104647
C141	C	-1.110580	0.815799	0.307571
C142	C	-0.860580	1.065799	0.557571
C143	C	-0.610580	1.315799	0.807571
C144	C	-0.360580	1.565799	1.057571
C145	C	-1.110613	0.892658	0.307589
C146	C	-0.860613	1.142658	0.557589
C147	C	-0.610613	1.392658	0.807589
C148	C	-0.360613	1.642658	1.057589
C149	C	-1.016409	0.892692	0.401629
C150	C	-0.766409	1.142692	0.651629
C151	C	-0.516409	1.392692	0.901629
C152	C	-0.266409	1.642692	1.151629
C153	C	-1.016380	0.815834	0.401614
C154	C	-0.766380	1.065834	0.651614
C155	C	-0.516380	1.315834	0.901614
C156	C	-0.266380	1.565834	1.151614
C157	C	-1.063465	0.777390	0.354581
C158	C	-0.813465	1.027390	0.604581
C159	C	-0.563465	1.277390	0.854581
C160	C	-0.313465	1.527390	1.104581
C161	C	-1.063526	0.931106	0.354614
C162	C	-0.813526	1.181106	0.604614
C163	C	-0.563526	1.431106	0.854614
C164	C	-0.313526	1.681106	1.104614
C165	C	-1.063562	1.014440	0.354633
C166	C	-0.813562	1.264440	0.604633
C167	C	-0.563562	1.514440	0.854633
C168	C	-0.313562	1.764440	1.104633
C169	C	-1.063431	0.694051	0.354562
C170	C	-0.813431	0.944051	0.604562
C171	C	-0.563431	1.194051	0.854562
C172	C	-0.313431	1.444051	1.104562
C173	C	-1.110544	0.307567	0.816539
C174	C	-0.860544	0.557567	1.066539
C175	C	-0.610544	0.807567	1.316539
C176	C	-0.360544	1.057567	1.566539
C177	C	-1.110540	0.307566	0.893398
C178	C	-0.860540	0.557566	1.143398
C179	C	-0.610540	0.807566	1.393398
C180	C	-0.360540	1.057566	1.643398
C181	C	-1.016363	0.401693	0.893349
C182	C	-0.766363	0.651693	1.143349
C183	C	-0.516363	0.901693	1.393349
C184	C	-0.266363	1.151693	1.643349
C185	C	-1.016364	0.401689	0.816492
C186	C	-0.766364	0.651689	1.066492
C187	C	-0.516364	0.901689	1.316492
C188	C	-0.266364	1.151689	1.566492
C189	C	-1.063459	0.354627	0.778089
C190	C	-0.813459	0.604627	1.028089
C191	C	-0.563459	0.854627	1.278089
C192	C	-0.313459	1.104627	1.528089
C193	C	-1.063454	0.354631	0.931805
C194	C	-0.813454	0.604631	1.181805
C195	C	-0.563454	0.854631	1.431805
C196	C	-0.313454	1.104631	1.681805
C197	C	-1.063449	0.354631	1.015139
C198	C	-0.813449	0.604631	1.265139
C199	C	-0.563449	0.854631	1.515139
C200	C	-0.313449	1.104631	1.765139
C201	C	-1.063463	0.354626	0.694750
C202	C	-0.813463	0.604626	0.944750
C203	C	-0.563463	0.854626	1.194750
C204	C	-0.313463	1.104626	1.444750
C205	C	-1.063435	0.354636	1.163367
C206	C	-0.813435	0.604636	1.413367
C207	C	-0.563435	0.854636	1.663367
C208	C	-0.313435	1.104636	1.913367
C209	C	-1.063447	0.354633	1.081568
C210	C	-0.813447	0.604633	1.331568
C211	C	-0.563447	0.854633	1.581568
C212	C	-0.313447	1.104633	1.831568
H213	H	-0.633550	0.269092	0.269335
H214	H	-0.383550	0.519092	0.519335
H215	H	-0.133550	0.769092	0.769335
H216	H	0.116450	1.019092	1.019335
O217	O	-1.161370	0.774331	0.256854
O218	O	-0.911370	1.024331	0.506854
O219	O	-0.661370	1.274331	0.756854
O220	O	-0.411370	1.524331	1.006854
H221	H	-1.194144	0.813955	0.224175
H222	H	-0.944144	1.063955	0.474175
H223	H	-0.694144	1.313955	0.724175
H224	H	-0.444144	1.563955	0.974175
O225	O	-0.965569	0.452450	0.934771
O226	O	-0.715569	0.702450	1.184771
O227	O	-0.465569	0.952450	1.434771
O228	O	-0.215569	1.202450	1.684771
H229	H	-0.998486	0.489902	0.969779
H230	H	-0.748486	0.739902	1.219779
H231	H	-0.498486	0.989902	1.469779
H232	H	-0.248486	1.239902	1.719779
H233	H	-0.978013	0.784560	0.439899
H234	H	-0.728013	1.034560	0.689899
H235	H	-0.478013	1.284560	0.939899
H236	H	-0.228013	1.534560	1.189899
H237	H	-1.148981	0.923928	0.269309
H238	H	-0.898981	1.173928	0.519309
H239	H	-0.648981	1.423928	0.769309
H240	H	-0.398981	1.673928	1.019309
H241	H	-0.978073	0.924002	0.439921
H242	H	-0.728073	1.174002	0.689921
H243	H	-0.478073	1.424002	0.939921
H244	H	-0.228073	1.674002	1.189921
H245	H	-1.148890	0.269244	0.785274
H246	H	-0.898890	0.519244	1.035274
H247	H	-0.648890	0.769244	1.285274
H248	H	-0.398890	1.019244	1.535274
O249	O	-0.483933	0.452685	0.452151
O250	O	-0.233933	0.702685	0.702151
O251	O	0.016067	0.952685	0.952151
O252	O	0.266067	1.202685	1.202151
H253	H	-0.523565	0.485494	0.484781
H254	H	-0.273565	0.735494	0.734781
H255	H	-0.023565	0.985494	0.984781
H256	H	0.226435	1.235494	1.234781
H257	H	-1.148880	0.269244	0.924701
H258	H	-0.898880	0.519244	1.174701
H259	H	-0.648880	0.769244	1.424701
H260	H	-0.398880	1.019244	1.674701
H261	H	-0.978016	0.440011	0.785185
H262	H	-0.728016	0.690011	1.035185
H263	H	-0.478016	0.940011	1.285185
H264	H	-0.228016	1.190011	1.535185
H265	H	-0.494108	0.269107	0.269350
H266	H	-0.244108	0.519107	0.519350
H267	H	0.005892	0.769107	0.769350
H268	H	0.255892	1.019107	1.019350
O269	O	-0.643690	0.452594	0.452225
O270	O	-0.393690	0.702594	0.702225
O271	O	-0.143690	0.952594	0.952225
O272	O	0.106310	1.202594	1.202225
H273	H	-0.604050	0.485366	0.484902
H274	H	-0.354050	0.735366	0.734902
H275	H	-0.104050	0.985366	0.984902
H276	H	0.145950	1.235366	1.234902
