data_functionalizedCrystal
_audit_creation_method	'MofGen! by Chris Wilmer'
_symmetry_space_group_name_H-M	'P1'
_symmetry_Int_Tables_number	1
_symmetry_cell_setting	triclinic
loop_
_symmetry_equiv_pos_as_xyz
  x,y,z
_cell_length_a	10.540539
_cell_length_b	10.540539
_cell_length_c	9.616153
_cell_angle_alpha	90.004388
_cell_angle_beta	90.000138
_cell_angle_gamma	84.525492
loop_
_atom_site_label
_atom_site_type_symbol
_atom_site_fract_x
_atom_site_fract_y
_atom_site_fract_z
O1	O	1.685883	0.178904	0.115573
O2	O	1.316470	0.195760	0.115589
O3	O	1.509604	0.002626	0.115579
O4	O	1.492748	0.372039	0.115583
O5	O	1.509596	0.002612	-0.115712
O6	O	1.316462	0.195746	-0.115702
O7	O	1.685875	0.178891	-0.115718
Zn8	Zn	1.501167	0.187316	-0.152433
Zn9	Zn	1.501177	0.187334	0.152304
O10	O	1.492741	0.372025	-0.115708
C11	C	1.269163	0.194489	-0.000054
C12	C	1.128215	0.190707	-0.000048
C13	C	0.944788	0.045790	-0.000589
C14	C	1.091406	0.049624	-0.000054
C15	C	1.066547	0.258610	0.132027
C16	C	0.920002	0.253795	0.132123
C17	C	0.919505	0.256650	-0.130899
C18	C	1.066487	0.257949	-0.132630
C19	C	1.508336	-0.044684	-0.000064
C20	C	1.504554	-0.185632	-0.000056
C21	C	1.359637	-0.369059	0.000469
C22	C	1.363471	-0.222441	-0.000052
C23	C	1.572445	-0.247298	-0.132138
C24	C	1.567630	-0.393842	-0.132249
C25	C	1.570509	-0.394345	0.130772
C26	C	1.571808	-0.247363	0.132518
C27	C	1.733182	0.180161	-0.000072
C28	C	1.874130	0.183943	-0.000069
C29	C	1.494008	0.419335	-0.000062
C30	C	1.497790	0.560283	-0.000060
N31	N	1.501170	0.187303	-0.360407
C32	C	1.604870	0.084346	-0.580739
C33	C	1.604590	0.083953	-0.419572
C34	C	1.368465	0.157173	-0.418932
C35	C	1.369081	0.156451	-0.580150
C36	C	1.529013	0.320752	-0.580281
C37	C	1.532007	0.319880	-0.419053
N38	N	1.501185	0.187337	0.360278
H39	H	1.107446	0.208344	-0.230338
F40	F	1.581799	-0.044300	-0.633705
F41	F	1.293145	-0.167864	-0.124005
F42	F	1.700249	-0.456545	-0.140102
H43	H	1.522133	-0.206499	0.230229
H44	H	1.703806	0.102194	-0.619504
F45	F	1.147105	-0.020213	-0.123802
F46	F	1.703703	-0.456073	0.131931
H47	H	1.090713	0.360808	-0.140603
F48	F	1.265115	0.252536	-0.368844
H49	H	1.703197	0.102073	-0.380002
H50	H	1.586684	-0.015035	-0.381019
H51	H	1.344738	0.059116	-0.617767
H52	H	1.343553	0.060934	-0.378569
F53	F	1.707869	-0.218082	-0.138568
H54	H	1.289546	0.228550	-0.619169
F55	F	0.878274	0.196961	-0.261753
F56	F	1.286792	-0.406430	0.124274
H57	H	1.310050	-0.179832	0.094630
F58	F	1.145945	-0.020404	0.124104
F59	F	1.652885	0.358216	-0.633404
H60	H	1.304129	-0.399272	-0.093714
H61	H	0.891795	0.203620	0.230849
F62	F	0.905303	-0.026753	0.122515
H63	H	1.629636	0.342716	-0.380803
F64	F	1.510822	-0.435565	0.261624
F65	F	0.857299	0.386415	0.139961
H66	H	1.517449	-0.422048	-0.230979
H67	H	1.525278	-0.204704	-0.230425
F68	F	0.907415	-0.027068	-0.124394
H69	H	1.461472	0.400200	-0.378776
H70	H	1.088900	0.362218	0.136942
H71	H	1.453417	0.397410	-0.618432
H72	H	0.872278	0.358553	-0.131790
F73	F	1.122213	0.196972	0.260504
F74	F	1.706254	-0.215698	0.142946
