data_functionalizedCrystal
_audit_creation_method	'MofGen! by Chris Wilmer'
_symmetry_space_group_name_H-M	'P1'
_symmetry_Int_Tables_number	1
_symmetry_cell_setting	triclinic
loop_
_symmetry_equiv_pos_as_xyz
  x,y,z
_cell_length_a	12.827893
_cell_length_b	19.121063
_cell_length_c	12.827885
_cell_angle_alpha	92.403967
_cell_angle_beta	89.980728
_cell_angle_gamma	92.468878
loop_
_atom_site_label
_atom_site_type_symbol
_atom_site_fract_x
_atom_site_fract_y
_atom_site_fract_z
Zn1	Zn	1.579835	-0.279579	-0.608539
Zn2	Zn	2.079835	0.220421	-0.108539
Zn3	Zn	1.572236	-0.397046	-0.441232
Zn4	Zn	2.072236	0.102954	0.058768
Zn5	Zn	1.405075	-0.279614	-0.433815
Zn6	Zn	1.905075	0.220386	0.066185
Zn7	Zn	1.397572	-0.396994	-0.615928
Zn8	Zn	1.897572	0.103006	-0.115928
O9	O	1.488680	-0.338308	-0.524878
O10	O	1.988680	0.161692	-0.024878
O11	O	1.725063	-0.295169	-0.586357
O12	O	2.225063	0.204831	-0.086357
O13	O	1.550022	-0.381505	-0.294014
O14	O	2.050022	0.118495	0.205986
O15	O	1.434577	-0.181325	-0.450796
O16	O	1.934577	0.318675	0.049204
O17	O	1.719480	-0.381471	-0.463437
O18	O	2.219480	0.118529	0.036563
O19	O	1.562973	-0.181300	-0.579165
O20	O	2.062973	0.318700	-0.079165
O21	O	1.427209	-0.295227	-0.288565
O22	O	1.927209	0.204773	0.211435
O23	O	1.257844	-0.295177	-0.457961
O24	O	1.757844	0.204823	0.042039
O25	O	1.421790	-0.381382	-0.761182
O26	O	1.921790	0.118618	-0.261182
O27	O	1.252332	-0.381415	-0.591759
O28	O	1.752332	0.118585	-0.091759
O29	O	1.555698	-0.295118	-0.755753
O30	O	2.055698	0.204882	-0.255753
O31	O	1.542747	-0.495323	-0.470602
O32	O	2.042747	0.004677	0.029398
O33	O	1.414422	-0.495285	-0.598951
O34	O	1.914422	0.004715	-0.098951
C35	C	1.217171	-0.338295	-0.524858
C36	C	1.717171	0.161705	-0.024858
C37	C	1.101017	-0.338306	-0.524875
C38	C	1.601017	0.161694	-0.024875
C39	C	1.046528	-0.381046	-0.590989
C40	C	1.546528	0.118954	-0.090989
C41	C	0.926477	-0.381059	-0.591008
C42	C	1.426477	0.118941	-0.091008
C43	C	1.476974	-0.520788	-0.536406
C44	C	1.976974	-0.020788	-0.036406
C45	C	1.472062	-0.598854	-0.541373
C46	C	1.972062	-0.098854	-0.041373
C47	C	1.536618	-0.635526	-0.476937
C48	C	2.036618	-0.135526	0.023063
C49	C	1.532005	-0.708877	-0.481615
C50	C	2.032005	-0.208877	0.018385
C51	C	1.462829	-0.745554	-0.550723
C52	C	1.962829	-0.245554	-0.050723
C53	C	1.398270	-0.708877	-0.615166
C54	C	1.898270	-0.208877	-0.115166
C55	C	1.402890	-0.635528	-0.610493
C56	C	1.902890	-0.135528	-0.110493
C57	C	1.445540	-0.967023	-0.568177
C58	C	1.945540	-0.467023	-0.068177
C59	C	1.440923	-1.040378	-0.572842
C60	C	1.940923	-0.540378	-0.072842
C61	C	1.574660	-1.040373	-0.439292
C62	C	2.074660	-0.540373	0.060708
C63	C	1.579269	-0.967021	-0.434621
C64	C	2.079269	-0.467021	0.065379
C65	C	1.514714	-0.930351	-0.499067
C66	C	2.014714	-0.430351	0.000933
C67	C	1.458109	-0.820531	-0.555503
C68	C	1.958109	-0.320531	-0.055503
C69	C	1.519440	-0.855375	-0.494292
C70	C	2.019440	-0.355375	0.005708
C71	C	1.761249	-0.338322	-0.524900
C72	C	2.261249	0.161678	-0.024900
C73	C	1.877402	-0.338328	-0.524909
C74	C	2.377402	0.161672	-0.024909
C75	C	1.488755	-0.338241	-0.797445
C76	C	1.988755	0.161759	-0.297445
C77	C	1.488787	-0.338212	-0.913596
C78	C	1.988787	0.161788	-0.413596
C79	C	1.500460	-0.155116	-0.513328
C80	C	2.000460	0.344884	-0.013328
C81	C	1.505479	-0.077050	-0.508407
C82	C	2.005479	0.422950	-0.008407
C83	C	1.555057	-0.295518	-0.962694
C84	C	2.055057	0.204482	-0.462694
C85	C	1.555091	-0.295487	-1.082742
C86	C	2.055091	0.204513	-0.582742
C87	C	1.488668	-0.338325	-0.253370
C88	C	1.988668	0.161675	0.246630
C89	C	1.488851	-0.338156	-0.137206
C90	C	1.988851	0.161844	0.362794
H91	H	1.058790	-0.301721	-0.468290
H92	H	1.558790	0.198279	0.031710
H93	H	1.088756	-0.417626	-0.647580
H94	H	1.588756	0.082374	-0.147580
H95	H	1.611830	-0.258937	-1.124975
H96	H	2.111830	0.241063	-0.624975
N97	N	0.936175	-0.292419	-0.453910
N98	N	1.436175	0.207581	0.046090
N99	N	0.999980	-0.247727	-0.488013
N100	N	1.499980	0.252273	0.011987
H101	H	1.041497	-0.215303	-0.437871
H102	H	1.541497	0.284697	0.062129
N103	N	1.336961	-0.598065	-0.676326
N104	N	1.836961	-0.098065	-0.176326
N105	N	1.343335	-0.606201	-0.773278
N106	N	1.843335	-0.106201	-0.273278
H107	H	1.296775	-0.579744	-0.819779
H108	H	1.796775	-0.079744	-0.319779
N109	N	1.379617	-0.929566	-0.634013
N110	N	1.879617	-0.429566	-0.134013
N111	N	1.418938	-0.888589	-0.698034
N112	N	1.918938	-0.388589	-0.198034
H113	H	1.372380	-0.862134	-0.744540
H114	H	1.872380	-0.362134	-0.244540
H115	H	1.592944	-0.605668	-0.420657
H116	H	2.092944	-0.105668	0.079343
N117	N	1.597970	-0.746325	-0.415803
N118	N	2.097970	-0.246325	0.084197
N119	N	1.659734	-0.713570	-0.354109
N120	N	2.159734	-0.213570	0.145891
H121	H	1.706332	-0.740017	-0.307631
H122	H	2.206332	-0.240017	0.192369
N123	N	0.867699	-0.426968	-0.662003
N124	N	1.367699	0.073032	-0.162003
N125	N	0.770260	-0.426916	-0.661913
N126	N	1.270260	0.073084	-0.161913
H127	H	0.728744	-0.459342	-0.712054
H128	H	1.228744	0.040658	-0.212054
N129	N	1.649933	-0.929569	-0.364018
N130	N	2.149933	-0.429569	0.135982
N131	N	1.707568	-0.962322	-0.306489
N132	N	2.207568	-0.462322	0.193511
H133	H	1.757473	-0.935872	-0.256622
H134	H	2.257473	-0.435872	0.243378
N135	N	1.640588	-1.077842	-0.373472
N136	N	2.140588	-0.577842	0.126528
N137	N	1.636457	-1.143332	-0.377647
N138	N	2.136457	-0.643332	0.122353
H139	H	1.683023	-1.169796	-0.331161
H140	H	2.183023	-0.669796	0.168839
N141	N	1.327623	-0.746351	-0.685762
N142	N	1.827623	-0.246351	-0.185762
N143	N	1.323507	-0.811841	-0.689927
N144	N	1.823507	-0.311841	-0.189927
H145	H	1.273610	-0.838307	-0.739787
H146	H	1.773610	-0.338307	-0.239787
H147	H	1.432071	-0.374737	-0.960437
H148	H	1.932071	0.125263	-0.460437
N149	N	1.370244	-1.077834	-0.643436
N150	N	1.870244	-0.577834	-0.143436
N151	N	1.312607	-1.045085	-0.700967
N152	N	1.812607	-0.545085	-0.200967
H153	H	1.262688	-1.071537	-0.750819
H154	H	1.762688	-0.571537	-0.250819
H155	H	1.432116	-0.374712	-1.094980
H156	H	1.932116	0.125288	-0.594980
H157	H	1.401784	-0.850402	-0.611769
H158	H	1.901784	-0.350402	-0.111769
N159	N	1.590083	-0.817903	-0.423697
N160	N	2.090083	-0.317903	0.076303
N161	N	1.555910	-0.777028	-0.354480
N162	N	2.055910	-0.277028	0.145520
H163	H	1.605798	-0.750557	-0.304617
H164	H	2.105798	-0.250557	0.195383
N165	N	1.626188	-0.249688	-0.903927
N166	N	2.126188	0.250312	-0.403927
N167	N	1.626056	-0.249775	-0.806490
N168	N	2.126056	0.250225	-0.306490
H169	H	1.676294	-0.217407	-0.764986
H170	H	2.176294	0.282593	-0.264986
