data_functionalizedCrystal
_audit_creation_method	'MofGen! by Chris Wilmer'
_symmetry_space_group_name_H-M	'P1'
_symmetry_Int_Tables_number	1
_symmetry_cell_setting	triclinic
loop_
_symmetry_equiv_pos_as_xyz
  x,y,z
_cell_length_a	14.853567
_cell_length_b	15.995350
_cell_length_c	13.330367
_cell_angle_alpha	89.997588
_cell_angle_beta	89.995418
_cell_angle_gamma	83.563653
loop_
_atom_site_label
_atom_site_type_symbol
_atom_site_fract_x
_atom_site_fract_y
_atom_site_fract_z
O1	O	1.196221	0.109317	-0.083349
O2	O	1.696221	0.609317	0.416651
O3	O	0.933744	0.122339	-0.083366
O4	O	1.433744	0.622339	0.416634
O5	O	1.072158	-0.006051	-0.083356
O6	O	1.572158	0.493949	0.416644
O7	O	1.057808	0.237707	-0.083359
O8	O	1.557808	0.737707	0.416641
O9	O	1.072138	-0.006054	0.083491
O10	O	1.572138	0.493946	0.583491
O11	O	0.933724	0.122336	0.083481
O12	O	1.433724	0.622336	0.583481
O13	O	1.196201	0.109314	0.083498
O14	O	1.696201	0.609314	0.583498
Cu15	Cu	1.064961	0.115825	0.098724
Cu16	Cu	1.564961	0.615825	0.598724
Cu17	Cu	1.064985	0.115828	-0.098592
Cu18	Cu	1.564985	0.615828	0.401408
O19	O	1.057788	0.237704	0.083488
O20	O	1.557788	0.737704	0.583488
C21	C	0.900146	0.121748	0.000056
C22	C	1.400146	0.621748	0.500056
C23	C	0.800065	0.119980	0.000049
C24	C	1.300065	0.619980	0.500049
C25	C	1.071555	-0.037248	0.000065
C26	C	1.571555	0.462752	0.500065
C27	C	1.069776	-0.130201	0.000060
C28	C	1.569776	0.369799	0.500060
C29	C	0.387644	0.036238	0.000072
C30	C	0.887644	0.536238	0.500072
C31	C	0.366158	0.188769	0.000070
C32	C	0.866158	0.688769	0.500070
C33	C	0.460189	0.190432	0.000067
C34	C	0.960189	0.690432	0.500067
C35	C	0.517953	0.114996	0.000065
C36	C	1.017953	0.614996	0.500065
C37	C	0.481685	0.037899	0.000066
C38	C	0.981685	0.537899	0.500066
C39	C	0.496464	0.267528	0.000055
C40	C	0.996464	0.767528	0.500055
C41	C	0.590501	0.269194	0.000051
C42	C	1.090501	0.769194	0.500051
C43	C	0.648266	0.193758	0.000056
C44	C	1.148266	0.693758	0.500056
C45	C	0.611993	0.116657	0.000059
C46	C	1.111993	0.616657	0.500059
C47	C	0.669757	0.041221	0.000057
C48	C	1.169757	0.541221	0.500057
C49	C	0.633485	-0.035880	0.000067
C50	C	1.133485	0.464120	0.500067
C51	C	0.539450	-0.037538	0.000072
C52	C	1.039450	0.462462	0.500072
C53	C	0.742302	0.195415	0.000051
C54	C	1.242302	0.695415	0.500051
C55	C	0.763797	0.042882	0.000051
C56	C	1.263797	0.542882	0.500051
C57	C	1.063389	-0.467956	0.000063
C58	C	1.563389	0.032044	0.500063
C59	C	0.964813	-0.420636	-0.000318
C60	C	1.464813	0.079364	0.499682
C61	C	0.966592	-0.323944	0.000058
C62	C	1.466592	0.176056	0.500058
C63	C	1.066557	-0.300391	0.000061
C64	C	1.566557	0.199609	0.500061
C65	C	1.115167	-0.341414	0.095340
C66	C	1.615167	0.158586	0.595340
C67	C	1.112690	-0.438053	0.095419
C68	C	1.612690	0.061947	0.595419
C69	C	1.114749	-0.438405	-0.094317
C70	C	1.614749	0.061595	0.405683
C71	C	1.114726	-0.341460	-0.095576
C72	C	1.614726	0.158540	0.404424
C73	C	1.068353	-0.205692	0.000063
C74	C	1.568353	0.294308	0.500063
C75	C	1.061596	-0.562655	0.000067
C76	C	1.561596	-0.062655	0.500067
C77	C	1.229799	0.109906	0.000074
C78	C	1.729799	0.609906	0.500074
C79	C	1.329881	0.111674	0.000074
C80	C	1.829881	0.611674	0.500074
C81	C	1.058391	0.268901	0.000064
C82	C	1.558391	0.768901	0.500064
C83	C	1.060170	0.361854	0.000064
C84	C	1.560170	0.861854	0.500064
N85	N	1.064951	0.115822	0.237506
N86	N	1.564951	0.615822	0.737506
N87	N	1.065002	0.115825	-0.237374
N88	N	1.565002	0.615825	0.262626
C89	C	1.003693	0.172657	0.710124
C90	C	1.503693	0.672657	1.210124
C91	C	1.126301	0.058993	0.710101
C92	C	1.626301	0.558993	1.210101
C93	C	1.126291	0.058990	0.605082
C94	C	1.626291	0.558990	1.105082
C95	C	1.064982	0.115823	0.552580
C96	C	1.564982	0.615823	1.052580
C97	C	1.003682	0.172658	0.605096
C98	C	1.503682	0.672658	1.105096
C99	C	1.187595	0.002162	0.552559
C100	C	1.687595	0.502162	1.052559
C101	C	1.187588	0.002158	0.447534
C102	C	1.687588	0.502158	0.947534
C103	C	1.126274	0.058987	0.395030
C104	C	1.626274	0.558987	0.895030
C105	C	1.064971	0.115824	0.447552
C106	C	1.564971	0.615824	0.947552
C107	C	1.003662	0.172656	0.395050
C108	C	1.503662	0.672656	0.895050
C109	C	0.942354	0.229490	0.447570
C110	C	1.442354	0.729490	0.947570
C111	C	0.942368	0.229487	0.552592
C112	C	1.442368	0.729487	1.052592
C113	C	1.126260	0.058989	0.290008
C114	C	1.626260	0.558989	0.790008
C115	C	1.003652	0.172657	0.290022
C116	C	1.503652	0.672657	0.790022
H117	H	0.810823	-0.018548	0.000053
H118	H	1.310823	0.481452	0.500053
C119	C	1.255020	-0.060366	0.389771
C120	C	1.755020	0.439634	0.889771
N121	N	1.305807	-0.107463	0.346263
N122	N	1.805807	0.392537	0.846263
C123	C	1.071218	-0.466198	-0.191878
C124	C	1.571218	0.033802	0.308122
N125	N	1.038419	-0.487130	-0.265356
N126	N	1.538419	0.012870	0.234644
H127	H	1.237516	-0.044106	0.595309
H128	H	1.737516	0.455894	1.095309
H129	H	0.892454	0.275760	0.595361
H130	H	1.392454	0.775760	1.095361
C131	C	0.432920	0.350501	0.000058
C132	C	0.932920	0.850501	0.500058
N133	N	0.385053	0.412999	0.000064
N134	N	0.885053	0.912999	0.500064
C135	C	0.914963	-0.285602	-0.092207
C136	C	1.414963	0.214398	0.407793
N137	N	0.876069	-0.256727	-0.161702
N138	N	1.376069	0.243273	0.338298
C139	C	0.782196	0.280221	0.000039
C140	C	1.282196	0.780221	0.500039
N141	N	0.812244	0.344102	0.000032
N142	N	1.312244	0.844102	0.500032
H143	H	0.953723	0.218935	0.247280
H144	H	1.453723	0.718935	0.747280
C145	C	0.911820	-0.447143	0.091489
C146	C	1.411820	0.052857	0.591489
N147	N	0.871912	-0.467102	0.160646
N148	N	1.371912	0.032898	0.660646
C149	C	1.212933	-0.481203	-0.095185
C150	C	1.712933	0.018797	0.404815
N151	N	1.286882	-0.513444	-0.095832
N152	N	1.786882	-0.013444	0.404168
H153	H	0.509909	-0.100310	0.000103
H154	H	1.009909	0.399690	0.500103
H155	H	0.925422	-0.439212	-0.068644
H156	H	1.425422	0.060788	0.431356
C157	C	0.347745	-0.048570	0.000083
C158	C	0.847745	0.451430	0.500083
N159	N	0.317692	-0.112448	0.000089
N160	N	0.817692	0.387552	0.500089
C161	C	0.936251	0.235165	0.767897
C162	C	1.436251	0.735165	1.267897
N163	N	0.885453	0.282246	0.811412
N164	N	1.385453	0.782246	1.311412
H165	H	0.620025	0.331975	0.000042
H166	H	1.120025	0.831975	0.500042
C167	C	0.302615	0.271743	0.000072
C168	C	0.802615	0.771743	0.500072
N169	N	0.254751	0.334242	0.000077
N170	N	0.754751	0.834242	0.500077
H171	H	0.892440	0.275767	0.404811
H172	H	1.392440	0.775767	0.904811
C173	C	1.193738	-0.003519	0.767857
C174	C	1.693738	0.496481	1.267857
N175	N	1.244532	-0.050608	0.811363
N176	N	1.744532	0.449392	1.311363
C177	C	0.914604	-0.286359	0.092483
C178	C	1.414604	0.213641	0.592483
N179	N	0.875446	-0.258050	0.162102
N180	N	1.375446	0.241950	0.662102
H181	H	1.185062	-0.470217	0.099744
H182	H	1.685062	0.029783	0.599744
C183	C	1.064771	-0.462835	0.191630
C184	C	1.564771	0.037165	0.691630
N185	N	1.028673	-0.481497	0.264095
N186	N	1.528673	0.018503	0.764095
C187	C	1.214377	-0.322199	0.100145
C188	C	1.714377	0.177801	0.600145
N189	N	1.289100	-0.307719	0.103767
N190	N	1.789100	0.192281	0.603767
C191	C	1.069530	-0.303134	0.191127
C192	C	1.569530	0.196866	0.691127
N193	N	1.035150	-0.274303	0.263272
N194	N	1.535150	0.225697	0.763272
C195	C	0.697037	-0.118856	0.000067
C196	C	1.197037	0.381144	0.500067
N197	N	0.744908	-0.181352	0.000070
N198	N	1.244908	0.318648	0.500070
C199	C	1.193695	-0.003523	0.232240
C200	C	1.693695	0.496477	0.732240
N201	N	1.244488	-0.050613	0.188731
N202	N	1.744488	0.449387	0.688731
C203	C	1.066759	-0.304654	-0.190802
C204	C	1.566759	0.195346	0.309198
N205	N	1.030621	-0.276935	-0.262525
N206	N	1.530621	0.223065	0.237475
H207	H	1.187625	-0.326013	-0.101327
H208	H	1.687625	0.173987	0.398673
