data_functionalizedCrystal
_audit_creation_method	'MofGen! by Chris Wilmer'
_symmetry_space_group_name_H-M	'P1'
_symmetry_Int_Tables_number	1
_symmetry_cell_setting	triclinic
loop_
_symmetry_equiv_pos_as_xyz
  x,y,z
_cell_length_a	19.288840
_cell_length_b	23.532357
_cell_length_c	17.766277
_cell_angle_alpha	89.988084
_cell_angle_beta	89.983415
_cell_angle_gamma	82.977153
loop_
_atom_site_label
_atom_site_type_symbol
_atom_site_fract_x
_atom_site_fract_y
_atom_site_fract_z
O1	O	0.921130	0.070979	-0.062729
O2	O	0.718835	0.080578	-0.062704
O3	O	0.826101	-0.007143	-0.062702
O4	O	0.813864	0.158700	-0.062731
O5	O	0.826082	-0.007147	0.062487
O6	O	0.718816	0.080574	0.062484
O7	O	0.921111	0.070975	0.062460
Cu8	Cu	0.819962	0.075774	0.073903
Cu9	Cu	0.819984	0.075779	-0.074147
O10	O	0.813845	0.158696	0.062457
C11	C	0.692950	0.080269	-0.000106
C12	C	0.615848	0.079349	-0.000096
C13	C	0.579657	0.078910	-0.068338
C14	C	0.507212	0.078039	-0.068347
C15	C	0.470965	0.077596	-0.000110
C16	C	0.507165	0.078039	0.068141
C17	C	0.579607	0.078916	0.068148
C18	C	0.361744	0.042847	0.052164
C19	C	0.289304	0.041967	0.052154
C20	C	0.247530	0.074895	-0.000130
C21	C	0.278206	0.108696	-0.052416
C22	C	0.350648	0.109573	-0.052409
C23	C	0.392414	0.076646	-0.000111
C24	C	0.132786	0.073512	-0.068386
C25	C	0.060340	0.072645	-0.068392
C26	C	0.060295	0.072639	0.068098
C27	C	0.132739	0.073513	0.068102
C28	C	0.168980	0.073946	-0.000142
C29	C	0.825785	-0.028362	-0.000105
C30	C	0.824865	-0.091583	-0.000098
C31	C	0.819098	-0.483603	-0.068378
C32	C	0.818223	-0.543004	-0.068382
O33	O	0.817756	-0.573720	-0.126418
N34	N	0.817779	-0.572719	-0.000143
C35	C	0.818203	-0.543028	0.068105
O36	O	0.817744	-0.573757	0.126148
C37	C	0.819073	-0.483628	0.068108
C38	C	0.819524	-0.453917	-0.000135
C39	C	0.819548	-0.453892	-0.136616
C40	C	0.820424	-0.394495	-0.136612
C41	C	0.820850	-0.364809	-0.068369
C42	C	0.820400	-0.394520	-0.000131
C43	C	0.819492	-0.453938	0.136356
C44	C	0.820361	-0.394533	0.136353
C45	C	0.820812	-0.364822	0.068109
C46	C	0.821702	-0.305437	0.068116
N47	N	0.822146	-0.275722	-0.000123
C48	C	0.821720	-0.305409	-0.068366
C49	C	0.816375	-0.667773	0.068093
C50	C	0.815511	-0.727174	0.068090
C51	C	0.815530	-0.727145	-0.068398
C52	C	0.816399	-0.667745	-0.068394
C53	C	0.816819	-0.638059	-0.000147
C54	C	0.823560	-0.180671	-0.068351
C55	C	0.824439	-0.121269	-0.068341
C56	C	0.824416	-0.121302	0.068146
C57	C	0.823541	-0.180699	0.068136
C58	C	0.823111	-0.210382	-0.000119
O59	O	0.822167	-0.274684	0.126122
O60	O	0.822169	-0.274672	-0.126399
C61	C	0.946996	0.071283	-0.000140
C62	C	1.024098	0.072203	-0.000155
C63	C	0.814161	0.179915	-0.000141
C64	C	0.815081	0.243135	-0.000153
N65	N	0.819951	0.075770	0.178033
N66	N	0.820000	0.075778	-0.178278
C67	C	0.867464	0.036946	0.217421
C68	C	0.867468	0.036943	0.296223
C69	C	0.819966	0.075774	0.335634
C70	C	0.772445	0.114601	0.296236
C71	C	0.772437	0.114599	0.217436
C72	C	0.810496	0.127667	0.460463
C73	C	0.810508	0.127670	0.539262
C74	C	0.819985	0.075781	0.578680
C75	C	0.829464	0.023887	0.539289
C76	C	0.829457	0.023884	0.460489
C77	C	0.819968	0.075781	0.421079
C78	C	0.867504	0.036951	0.703514
C79	C	0.867503	0.036948	0.782317
C80	C	0.772483	0.114611	0.782329
C81	C	0.772481	0.114609	0.703527
C82	C	0.819995	0.075780	0.664124
H83	H	0.162295	0.073871	-0.123955
H84	H	0.824808	-0.097081	-0.123915
C85	C	0.818988	-0.486606	0.211425
H86	H	0.819357	-0.460409	0.252062
H87	H	0.859155	-0.514233	0.214271
H88	H	0.778128	-0.505320	0.214263
H89	H	0.395752	0.016031	0.094744
C90	C	0.467289	0.077595	0.143199
H91	H	0.418960	0.077018	0.133422
H92	H	0.473626	0.110956	0.171197
H93	H	0.484672	0.044542	0.171282
C94	C	0.720180	0.157305	0.339581
H95	H	0.691874	0.180421	0.304834
H96	H	0.744983	0.180965	0.370310
H97	H	0.691422	0.136865	0.370332
C98	C	0.720176	0.157311	0.174107
H99	H	0.691888	0.180440	0.208862
H100	H	0.691410	0.136887	0.143382
H101	H	0.744996	0.180967	0.143354
C102	C	0.800066	0.184747	0.417107
H103	H	0.801411	0.177314	0.364536
H104	H	0.836230	0.206988	0.429996
H105	H	0.756110	0.205148	0.430035
H106	H	0.030873	0.072291	-0.123966
H107	H	0.609074	0.079274	0.123720
C108	C	0.823106	-0.213316	-0.143430
H109	H	0.823510	-0.187108	-0.184064
H110	H	0.782260	-0.232039	-0.146283
H111	H	0.863287	-0.240936	-0.146264
H112	H	0.609160	0.079263	-0.123908
C113	C	0.255566	0.004778	0.109652
H114	H	0.206442	0.008962	0.102150
H115	H	0.265457	0.016642	0.159196
H116	H	0.273981	-0.034224	0.103066
C117	C	0.820917	-0.361818	-0.211679
H118	H	0.821503	-0.322189	-0.201913
H119	H	0.780268	-0.367098	-0.239714
H120	H	0.861295	-0.376006	-0.239719
C121	C	0.467392	0.077561	-0.143416
H122	H	0.499352	0.077944	-0.184058
H123	H	0.433594	0.110425	-0.146258
H124	H	0.444674	0.044011	-0.146250
H125	H	0.816719	-0.643607	0.123671
C126	C	0.720232	0.157324	0.825671
H127	H	0.727043	0.151767	0.878244
H128	H	0.673920	0.151240	0.812778
H129	H	0.727506	0.195320	0.812742
H130	H	0.819199	-0.478056	-0.192191
C131	C	0.720231	0.157325	0.660195
H132	H	0.727028	0.151762	0.607620
H133	H	0.727508	0.195318	0.673097
H134	H	0.673916	0.151242	0.673126
C135	C	0.816889	-0.635068	-0.143461
H136	H	0.816507	-0.661260	-0.184101
H137	H	0.857737	-0.616345	-0.146306
H138	H	0.776710	-0.607445	-0.146295
H139	H	0.815180	-0.751326	-0.123965
H140	H	0.802794	0.169926	0.571328
C141	C	0.823047	-0.213382	0.143202
H142	H	0.823423	-0.187192	0.183845
H143	H	0.863211	-0.241014	0.146038
H144	H	0.782184	-0.232093	0.146039
H145	H	0.815154	-0.751360	0.123661
C146	C	0.824881	-0.088639	0.143208
H147	H	0.825458	-0.049007	0.133430
H148	H	0.865241	-0.102828	0.171251
H149	H	0.784214	-0.093923	0.171245
C150	C	0.919720	-0.005770	0.174082
H151	H	0.948013	-0.028897	0.208831
H152	H	0.948483	0.014651	0.143319
H153	H	0.894896	-0.029429	0.143365
H154	H	0.030783	0.072283	0.123657
H155	H	0.375620	0.137096	-0.094981
H156	H	0.906191	0.005332	0.671431
C157	C	0.232266	0.144929	-0.109924
H158	H	0.260910	0.165182	-0.141062
H159	H	0.199528	0.171410	-0.084037
H160	H	0.208024	0.120541	-0.140163
C161	C	0.172553	0.073989	0.143169
H162	H	0.140593	0.073596	0.183808
H163	H	0.195272	0.107534	0.146004
H164	H	0.206351	0.041121	0.146013
C165	C	0.919765	-0.005762	0.825648
H166	H	0.912960	-0.000206	0.878222
H167	H	0.966075	0.000324	0.812716
H168	H	0.912492	-0.043759	0.812745
C169	C	0.820823	-0.361879	0.211425
H170	H	0.821403	-0.322246	0.201660
H171	H	0.861184	-0.376074	0.239464
H172	H	0.780157	-0.367166	0.239463
C173	C	0.919735	-0.005764	0.339559
H174	H	0.948033	-0.028887	0.304806
H175	H	0.894925	-0.029417	0.370319
H176	H	0.948502	0.014670	0.370277
H177	H	0.837173	-0.018370	0.428421
C178	C	0.839883	-0.033195	0.582638
H179	H	0.838521	-0.025763	0.635210
H180	H	0.883833	-0.053601	0.569716
H181	H	0.803711	-0.055430	0.569741
