data_functionalizedCrystal
_audit_creation_method	'MofGen! by Chris Wilmer'
_symmetry_space_group_name_H-M	'P1'
_symmetry_Int_Tables_number	1
_symmetry_cell_setting	triclinic
loop_
_symmetry_equiv_pos_as_xyz
  x,y,z
_cell_length_a	16.120484
_cell_length_b	16.120542
_cell_length_c	18.215399
_cell_angle_alpha	87.082098
_cell_angle_beta	87.130211
_cell_angle_gamma	89.836765
loop_
_atom_site_label
_atom_site_type_symbol
_atom_site_fract_x
_atom_site_fract_y
_atom_site_fract_z
Zn1	Zn	-0.395705	-1.254473	0.489917
Zn2	Zn	0.104295	-0.754473	0.989917
Zn3	Zn	-0.534763	-1.247316	0.372750
Zn4	Zn	-0.034763	-0.747316	0.872750
Zn5	Zn	-0.388660	-1.115413	0.360330
Zn6	Zn	0.111340	-0.615413	0.860330
Zn7	Zn	-0.527648	-1.108325	0.489241
Zn8	Zn	-0.027648	-0.608325	0.989241
O9	O	-0.461694	-1.181382	0.428060
O10	O	0.038306	-0.681382	0.928060
O11	O	-0.420077	-1.369889	0.479856
O12	O	0.079923	-0.869889	0.979856
O13	O	-0.515411	-1.229790	0.268118
O14	O	-0.015411	-0.729790	0.768118
O15	O	-0.273232	-1.139820	0.372606
O16	O	0.226768	-0.639820	0.872606
O17	O	-0.522242	-1.364631	0.393773
O18	O	-0.022242	-0.864631	0.893773
O19	O	-0.278408	-1.241987	0.467813
O20	O	0.221592	-0.741987	0.967813
O21	O	-0.408070	-1.132881	0.258994
O22	O	0.091930	-0.632881	0.758994
O23	O	-0.401171	-0.998107	0.371950
O24	O	0.098829	-0.498107	0.871950
O25	O	-0.510116	-1.127740	0.592315
O26	O	-0.010116	-0.627740	1.092315
O27	O	-0.503285	-0.992899	0.466659
O28	O	-0.003285	-0.492899	0.966659
O29	O	-0.413178	-1.235115	0.592812
O30	O	0.086822	-0.735115	1.092812
O31	O	-0.650182	-1.222917	0.393117
O32	O	-0.150182	-0.722917	0.893117
O33	O	-0.644954	-1.120801	0.478702
O34	O	-0.144954	-0.620801	0.978702
C35	C	-0.450692	-0.965331	0.417884
C36	C	0.049308	-0.465331	0.917884
C37	C	-0.446005	-0.872902	0.413549
C38	C	0.053995	-0.372902	0.913549
C39	C	-0.485980	-0.659933	0.450504
C40	C	0.014020	-0.159933	0.950504
C41	C	-0.437456	-0.703679	0.405634
C42	C	0.062544	-0.203679	0.905634
C43	C	-0.442214	-0.797844	0.410039
C44	C	0.057786	-0.297844	0.910039
C45	C	-0.481223	-0.565760	0.446100
C46	C	0.018777	-0.065760	0.946100
C47	C	-0.677741	-1.170336	0.437201
C48	C	-0.177741	-0.670336	0.937201
C49	C	-0.770170	-1.165687	0.441140
C50	C	-0.270170	-0.665687	0.941140
C51	C	-0.939401	-1.157204	0.448347
C52	C	-0.439401	-0.657204	0.948347
C53	C	-0.983154	-1.205709	0.407791
C54	C	-0.483154	-0.705709	0.907791
C55	C	-1.077320	-1.200988	0.411801
C56	C	-0.577320	-0.700988	0.911801
C57	C	-0.845226	-1.161923	0.444338
C58	C	-0.345226	-0.661923	0.944338
C59	C	-0.244805	-1.192493	0.418899
C60	C	0.255195	-0.692493	0.918899
C61	C	-0.152379	-1.197228	0.414996
C62	C	0.347621	-0.697228	0.914996
C63	C	-0.461639	-1.181435	0.620012
C64	C	0.038361	-0.681435	1.120012
C65	C	-0.461616	-1.181458	0.701811
C66	C	0.038384	-0.681458	1.201811
C67	C	-0.472735	-0.398276	0.438265
C68	C	0.027265	0.101724	0.938265
C69	C	-0.477429	-0.490704	0.442587
C70	C	0.022571	0.009296	0.942587
C71	C	-0.461691	-1.181379	0.236853
C72	C	0.038309	-0.681379	0.736853
C73	C	-0.461488	-1.181529	0.155052
C74	C	0.038512	-0.681529	0.655052
C75	C	-0.411092	-1.237389	0.890264
C76	C	0.088908	-0.737389	1.390264
C77	C	-0.411068	-1.237400	0.967122
C78	C	0.088932	-0.737400	1.467122
C79	C	-0.512014	-1.125592	0.966594
C80	C	-0.012014	-0.625592	1.466594
C81	C	-0.512033	-1.125577	0.889737
C82	C	-0.012033	-0.625577	1.389737
C83	C	-0.461573	-1.181481	0.851574
C84	C	0.038427	-0.681481	1.351574
C85	C	-0.461531	-1.181506	1.005289
C86	C	0.038469	-0.681506	1.505289
C87	C	-0.461505	-1.181518	1.088623
C88	C	0.038495	-0.681518	1.588623
C89	C	-0.461597	-1.181468	0.768236
C90	C	0.038403	-0.681468	1.268236
H91	H	-0.531093	-0.693198	0.492224
H92	H	-0.031093	-0.193198	0.992224
C93	C	-0.366294	-1.287013	0.772682
C94	C	0.133706	-0.787013	1.272682
C95	C	-0.355618	-1.298828	0.848313
C96	C	0.144382	-0.798828	1.348313
H97	H	-0.332046	-1.324946	0.746787
H98	H	0.167954	-0.824946	1.246787
H99	H	-0.351287	-1.231767	0.756943
H100	H	0.148713	-0.731767	1.256943
H101	H	-0.422788	-1.296328	0.763024
H102	H	0.077212	-0.796328	1.263024
H103	H	-0.299125	-1.289508	0.857972
H104	H	0.200875	-0.789508	1.357972
H105	H	-0.370619	-1.354087	0.864058
H106	H	0.129381	-0.854087	1.364058
C107	C	-0.852311	-1.259500	0.362675
C108	C	-0.352311	-0.759500	0.862675
C109	C	-0.938257	-1.266546	0.356843
C110	C	-0.438257	-0.766546	0.856843
H111	H	-0.824593	-1.297051	0.331217
H112	H	-0.324593	-0.797051	0.831217
H113	H	-0.838694	-1.272348	0.412100
H114	H	-0.338694	-0.772348	0.912100
H115	H	-0.835357	-1.204323	0.348650
H116	H	-0.335357	-0.704323	0.848650
H117	H	-0.955212	-1.321722	0.370873
H118	H	-0.455212	-0.821722	0.870873
H119	H	-0.951880	-1.253704	0.307407
H120	H	-0.451880	-0.753704	0.807407
C121	C	-0.517916	-1.013111	0.798517
C122	C	-0.017916	-0.513111	1.298517
C123	C	-0.567527	-1.064117	0.847204
C124	C	-0.067527	-0.564117	1.347204
H125	H	-0.552174	-0.975166	0.772263
H126	H	-0.052174	-0.475166	1.272263
H127	H	-0.487873	-1.046399	0.764794
H128	H	0.012127	-0.546399	1.264794
H129	H	-0.480065	-0.983166	0.825481
H130	H	0.019935	-0.483166	1.325481
H131	H	-0.605375	-1.094067	0.820240
H132	H	-0.105375	-0.594067	1.320240
H133	H	-0.597585	-1.030825	0.880932
H134	H	-0.097585	-0.530825	1.380932
C135	C	-0.383614	-0.572829	0.355747
C136	C	0.116386	-0.072829	0.855747
C137	C	-0.376583	-0.658774	0.349278
C138	C	0.123417	-0.158774	0.849278
H139	H	-0.346048	-0.545106	0.320945
H140	H	0.153952	-0.045106	0.820945
H141	H	-0.370780	-0.559277	0.404032
H142	H	0.129220	-0.059277	0.904032
H143	H	-0.438782	-0.555818	0.346639
H144	H	0.061218	-0.055818	0.846639
H145	H	-0.321417	-0.675786	0.358392
H146	H	0.178583	-0.175786	0.858392
H147	H	-0.389412	-0.672333	0.300982
H148	H	0.110588	-0.172333	0.800982
C149	C	-1.070241	-1.103396	0.493431
C150	C	-0.570241	-0.603396	0.993431
C151	C	-0.984296	-1.096353	0.499276
C152	C	-0.484296	-0.596353	0.999276
H153	H	-1.097963	-1.065824	0.524867
H154	H	-0.597963	-0.565824	1.024867
H155	H	-1.087202	-1.158559	0.507470
H156	H	-0.587202	-0.658559	1.007470
H157	H	-1.083846	-1.090567	0.443993
H158	H	-0.583846	-0.590567	0.943993
H159	H	-0.970691	-1.109188	0.548713
H160	H	-0.470691	-0.609188	1.048713
H161	H	-0.967329	-1.041178	0.485241
H162	H	-0.467329	-0.541178	0.985241
H163	H	-0.369959	-1.282926	0.998621
H164	H	0.130041	-0.782926	1.498621
C165	C	-0.556813	-1.075972	1.084177
C166	C	-0.056813	-0.575972	1.584177
C167	C	-0.567485	-1.064151	1.008545
C168	C	-0.067485	-0.564151	1.508545
H169	H	-0.591065	-1.038044	1.110074
H170	H	-0.091065	-0.538044	1.610074
H171	H	-0.500327	-1.066662	1.093838
H172	H	-0.000327	-0.566662	1.593838
H173	H	-0.571824	-1.131226	1.099913
H174	H	-0.071824	-0.631226	1.599913
H175	H	-0.552468	-1.008899	0.992808
H176	H	-0.052468	-0.508899	1.492808
H177	H	-0.623983	-1.073455	0.998880
H178	H	-0.123983	-0.573455	1.498880
