data_functionalizedCrystal
_audit_creation_method	'MofGen! by Chris Wilmer'
_symmetry_space_group_name_H-M	'P1'
_symmetry_Int_Tables_number	1
_symmetry_cell_setting	triclinic
loop_
_symmetry_equiv_pos_as_xyz
  x,y,z
_cell_length_a	6.817900
_cell_length_b	15.301126
_cell_length_c	23.752930
_cell_angle_alpha	96.170040
_cell_angle_beta	100.066047
_cell_angle_gamma	104.177575
loop_
_atom_site_label
_atom_site_type_symbol
_atom_site_fract_x
_atom_site_fract_y
_atom_site_fract_z
V1	V	-3.992265	-0.125949	-0.178569
O2	O	-3.976898	0.004829	-0.174990
O3	O	-3.947419	-0.248559	-0.177519
O4	O	-3.927267	-0.124548	-0.256370
O5	O	-3.997190	-0.120040	-0.095594
V6	V	-4.477583	-0.110243	-0.168623
O7	O	-4.249586	-0.160401	-0.200384
O8	O	-4.670459	-0.075791	-0.146807
O9	O	-4.299222	0.012367	-0.169672
O10	O	-4.610346	-0.241021	-0.172201
O11	O	-4.590055	-0.116152	-0.251598
O12	O	-4.319374	-0.111643	-0.090822
C13	C	-3.793822	-0.278432	-0.174747
C14	C	-3.838331	-0.378670	-0.174408
C15	C	-4.040869	-0.430374	-0.177108
C16	C	-4.082680	-0.524560	-0.176793
C17	C	-3.921949	-0.567038	-0.173773
C18	C	-3.719395	-0.515328	-0.171073
C19	C	-3.677589	-0.421145	-0.171393
C20	C	-3.806545	-0.711634	-0.170406
C21	C	-3.848352	-0.805823	-0.170085
C22	C	-4.211636	-0.815049	-0.175806
C23	C	-4.169830	-0.720866	-0.176126
C24	C	-3.967278	-0.669162	-0.173425
C25	C	-3.768115	-0.120243	-0.275328
C26	C	-3.796279	-0.119909	-0.338932
C27	C	-4.152722	-0.122276	-0.736260
C28	C	-4.179208	-0.121950	-0.796022
O29	O	-4.347344	-0.125595	-0.829411
N30	N	-4.010836	-0.117273	-0.822992
C31	C	-3.815961	-0.112911	-0.790195
O32	O	-3.675180	-0.108902	-0.818622
C33	C	-3.789475	-0.113230	-0.730433
C34	C	-3.957864	-0.117917	-0.703468
C35	C	-4.321096	-0.126961	-0.709294
C36	C	-4.294613	-0.127289	-0.649536
C37	C	-4.099755	-0.122930	-0.616744
C38	C	-3.931381	-0.118244	-0.643710
C39	C	-3.594599	-0.108862	-0.697637
C40	C	-3.568126	-0.109181	-0.637872
C41	C	-3.736516	-0.113868	-0.610906
C42	C	-3.710039	-0.114213	-0.551160
N43	N	-3.878411	-0.118891	-0.524191
C44	C	-4.073269	-0.123249	-0.556983
C45	C	-3.871597	-0.112240	-0.915698
C46	C	-3.898084	-0.111927	-0.975460
C47	C	-4.261329	-0.120965	-0.981282
C48	C	-4.234843	-0.121284	-0.921521
C49	C	-4.039969	-0.116917	-0.888729
C50	C	-4.017638	-0.123937	-0.431487
C51	C	-3.991137	-0.124267	-0.371724
C52	C	-3.627894	-0.115225	-0.365906
C53	C	-3.654393	-0.114899	-0.425664
C54	C	-3.849279	-0.119252	-0.458453
O55	O	-3.541964	-0.110567	-0.517734
O56	O	-4.214015	-0.127246	-0.528546
C57	C	-4.116162	0.042235	-0.172443
C58	C	-4.050890	0.142473	-0.172786
C59	C	-4.141869	-0.115952	-0.071861
C60	C	-4.092943	-0.116281	-0.008256
H61	H	-4.300713	-0.686282	-0.178582
Br62	Br	-3.363453	-0.109315	-0.321392
Br63	Br	-3.607110	-0.106325	-0.871202
H64	H	-3.717477	-0.840410	-0.167643
H65	H	-4.419997	-0.124513	-1.007992
H66	H	-4.376558	-0.857149	-0.177997
Br67	Br	-3.303637	-0.103246	-0.593371
Br68	Br	-4.219687	-0.130634	-0.335132
Br69	Br	-4.585577	-0.132880	-0.753787
Br70	Br	-3.531653	-0.641465	-0.166746
Br71	Br	-3.501258	-0.572977	-0.166980
Br72	Br	-4.463382	-0.127645	-0.884931
Br73	Br	-3.669554	-0.105589	-1.012050
Br74	Br	-3.425872	-0.108554	-0.462263
Br75	Br	-3.402709	-0.350975	-0.167733
H76	H	-4.171758	-0.395794	-0.179563
H77	H	-4.176329	-0.127483	-0.458177
H78	H	-4.247603	-0.566654	-0.178993
H79	H	-4.431735	-0.131101	-0.627586
H80	H	-3.457472	-0.105046	-0.719582
