data_functionalizedCrystal
_audit_creation_method	'MofGen! by Chris Wilmer'
_symmetry_space_group_name_H-M	'P1'
_symmetry_Int_Tables_number	1
_symmetry_cell_setting	triclinic
loop_
_symmetry_equiv_pos_as_xyz
  x,y,z
_cell_length_a	8.497374
_cell_length_b	8.497374
_cell_length_c	13.032831
_cell_angle_alpha	97.172717
_cell_angle_beta	97.192176
_cell_angle_gamma	90.005237
loop_
_atom_site_label
_atom_site_type_symbol
_atom_site_fract_x
_atom_site_fract_y
_atom_site_fract_z
Zn1	Zn	0.935186	1.198019	1.597645
Zn2	Zn	1.198930	0.934283	1.597637
Zn3	Zn	0.901603	0.900793	1.422934
Zn4	Zn	1.165357	1.164558	1.422909
O5	O	1.050269	1.049413	1.510281
O6	O	0.998277	1.191053	1.743885
O7	O	1.159485	0.709079	1.574469
O8	O	0.685298	0.940208	1.446124
O9	O	1.192049	0.997287	1.743879
O10	O	0.709972	1.158579	1.574483
O11	O	0.941040	0.684474	1.446116
O12	O	0.908486	0.907763	1.276690
O13	O	1.134828	1.389758	1.446081
O14	O	1.102264	1.101550	1.276672
O15	O	0.965723	1.414341	1.574459
O16	O	1.415236	0.964841	1.574445
O17	O	1.390570	1.134024	1.446073
C18	C	0.998089	0.997392	1.238762
C19	C	0.975804	0.975175	1.122605
C20	C	1.061900	1.061008	1.070837
C21	C	1.038870	1.038048	0.950783
C22	C	1.460146	1.049433	1.510268
C23	C	1.638796	1.049413	1.510296
C24	C	1.050270	1.460892	1.510273
C25	C	1.050287	1.639536	1.510276
C26	C	1.102654	1.101638	1.782861
C27	C	1.124978	1.123893	1.899018
H28	H	1.215736	1.214393	0.943571
N29	N	0.855586	0.855305	1.063595
H30	H	0.856181	0.855887	0.986197
H31	H	0.883604	0.746217	1.082613
N32	N	0.918648	0.918169	0.891776
H33	H	0.837013	0.973778	0.846484
H34	H	0.974159	0.836408	0.846550
H35	H	1.152655	1.151497	1.115396
