data_functionalizedCrystal
_audit_creation_method	'MofGen! by Chris Wilmer'
_symmetry_space_group_name_H-M	'P1'
_symmetry_Int_Tables_number	1
_symmetry_cell_setting	triclinic
loop_
_symmetry_equiv_pos_as_xyz
  x,y,z
_cell_length_a	6.817900
_cell_length_b	19.452420
_cell_length_c	19.453114
_cell_angle_alpha	96.328802
_cell_angle_beta	101.709288
_cell_angle_gamma	101.696715
loop_
_atom_site_label
_atom_site_type_symbol
_atom_site_fract_x
_atom_site_fract_y
_atom_site_fract_z
V1	V	-3.997947	-0.097915	-0.219345
O2	O	-3.995100	0.003953	-0.214816
O3	O	-3.940917	-0.193426	-0.218185
O4	O	-3.940968	-0.096739	-0.314854
O5	O	-3.995048	-0.093403	-0.117478
V6	V	-4.483804	-0.085692	-0.207120
O7	O	-4.254084	-0.124729	-0.246163
O8	O	-4.677865	-0.058878	-0.180302
O9	O	-4.317628	0.009819	-0.208280
O10	O	-4.604048	-0.187560	-0.211649
O11	O	-4.604099	-0.090204	-0.308987
O12	O	-4.317576	-0.086868	-0.111611
C13	C	-3.784096	-0.216699	-0.214813
C14	C	-3.818697	-0.294782	-0.214501
C15	C	-3.801490	-0.321196	-0.149986
C16	C	-3.834075	-0.394562	-0.149672
C17	C	-3.883827	-0.441511	-0.213874
C18	C	-3.901045	-0.415090	-0.278397
C19	C	-3.868480	-0.341726	-0.278711
N20	N	-3.846563	-0.562110	-0.259091
N21	N	-3.877492	-0.631802	-0.258789
C22	C	-3.981949	-0.662553	-0.212935
N23	N	-4.054279	-0.620977	-0.167383
N24	N	-4.023337	-0.551278	-0.167682
C25	C	-3.919143	-0.521063	-0.213542
C26	C	-4.000075	-0.768518	-0.148075
C27	C	-4.032674	-0.841885	-0.147764
C28	C	-4.099624	-0.862412	-0.276491
C29	C	-4.067045	-0.789046	-0.276801
C30	C	-4.017262	-0.742102	-0.212591
C31	C	-3.784160	-0.093365	-0.338123
C32	C	-3.818800	-0.093035	-0.416204
C33	C	-4.016538	-0.096406	-0.456473
C34	C	-4.049086	-0.096097	-0.529838
C35	C	-3.883893	-0.092431	-0.562934
C36	C	-3.686126	-0.089055	-0.522655
C37	C	-3.653579	-0.089358	-0.449290
N38	N	-3.820798	-0.129525	-0.681855
N39	N	-3.851729	-0.129240	-0.751549
C40	C	-3.981942	-0.091517	-0.783979
N41	N	-4.080090	-0.054101	-0.744084
N42	N	-4.049164	-0.054390	-0.674384
C43	C	-3.919164	-0.092102	-0.642486
C44	C	-4.214984	-0.094552	-0.903800
C45	C	-4.247523	-0.094238	-0.977166
C46	C	-3.884560	-0.087203	-0.969983
C47	C	-3.852023	-0.087510	-0.896617
C48	C	-4.017244	-0.091188	-0.863531
C49	C	-4.137790	0.033088	-0.211650
C50	C	-4.082427	0.111171	-0.211967
C51	C	-4.137726	-0.090245	-0.088339
C52	C	-4.082325	-0.090570	-0.010257
H53	H	-4.018672	-0.863389	-0.095226
H54	H	-4.140134	-0.900637	-0.328766
O55	O	-4.083725	-0.763500	-0.339532
C56	C	-4.153683	-0.791606	-0.467178
C57	C	-4.134801	-0.820629	-0.396182
H58	H	-4.195022	-0.837781	-0.512999
H59	H	-4.000795	-0.755059	-0.467889
H60	H	-4.279361	-0.760485	-0.473205
H61	H	-4.009209	-0.851783	-0.390110
H62	H	-4.287777	-0.857139	-0.395503
H63	H	-4.151076	-0.099398	-0.429538
O64	O	-3.817184	-0.420109	-0.086935
C65	C	-3.747419	-0.392014	0.040708
C66	C	-3.766441	-0.362989	-0.030288
H67	H	-3.706434	-0.345848	0.086525
H68	H	-3.621609	-0.423080	0.046815
H69	H	-3.900296	-0.428614	0.041338
H70	H	-3.613666	-0.326360	-0.030967
H71	H	-3.892347	-0.331964	-0.036366
H72	H	-3.551625	-0.086068	-0.549606
O73	O	-3.952117	-0.722946	-0.085697
C74	C	-4.057389	-0.686367	0.020891
C75	C	-4.111963	-0.738009	-0.049737
H76	H	-4.186573	-0.698537	0.049992
H77	H	-4.037169	-0.629383	0.009620
H78	H	-3.907926	-0.692981	0.055373
H79	H	-4.261447	-0.731459	-0.084254
H80	H	-4.132049	-0.794973	-0.038414
H81	H	-3.882500	-0.320222	-0.331248
O82	O	-3.949646	-0.460768	-0.340723
C83	C	-4.197785	-0.558878	-0.418437
C84	C	-4.142963	-0.507203	-0.347822
H85	H	-4.354102	-0.596425	-0.424206
H86	H	-4.075508	-0.591048	-0.418820
H87	H	-4.204379	-0.527378	-0.464590
H88	H	-4.136396	-0.538648	-0.301630
H89	H	-4.265255	-0.475033	-0.347500
H90	H	-3.691009	-0.084773	-0.863830
H91	H	-3.760969	-0.282979	-0.097702
O92	O	-3.461630	-0.086208	-0.410125
C93	C	-3.246051	-0.143714	-0.332954
C94	C	-3.463542	-0.147345	-0.377258
H95	H	-3.247515	-0.193144	-0.306382
H96	H	-3.195949	-0.094312	-0.290498
H97	H	-3.133630	-0.141014	-0.369231
H98	H	-3.576112	-0.150072	-0.341038
H99	H	-3.513471	-0.196739	-0.419721
H100	H	-4.210115	-0.098846	-0.562632
H101	H	-4.349516	-0.097544	-0.876859
O102	O	-4.439574	-0.097603	-1.016374
C103	C	-4.718787	-0.162536	-1.113091
C104	C	-4.501262	-0.158803	-1.068756
H105	H	-4.768746	-0.212019	-1.155443
H106	H	-4.717510	-0.113191	-1.139797
H107	H	-4.831210	-0.165182	-1.076817
H108	H	-4.388716	-0.156179	-1.104982
H109	H	-4.502707	-0.208146	-1.042043
O110	O	-3.724195	-0.083547	-1.002186
C111	C	-3.518432	-0.017927	-1.071062
C112	C	-3.700128	-0.021993	-1.034634
H113	H	-3.498888	0.031844	-1.097292
H114	H	-3.550232	-0.066984	-1.113145
H115	H	-3.371555	-0.015608	-1.029666
H116	H	-3.847082	-0.024290	-1.075977
H117	H	-3.668150	0.027063	-0.992537
