data_functionalizedCrystal
_audit_creation_method	'MofGen! by Chris Wilmer'
_symmetry_space_group_name_H-M	'P1'
_symmetry_Int_Tables_number	1
_symmetry_cell_setting	triclinic
loop_
_symmetry_equiv_pos_as_xyz
  x,y,z
_cell_length_a	13.032831
_cell_length_b	13.032721
_cell_length_c	13.033327
_cell_angle_alpha	105.164023
_cell_angle_beta	103.316083
_cell_angle_gamma	89.097115
loop_
_atom_site_label
_atom_site_type_symbol
_atom_site_fract_x
_atom_site_fract_y
_atom_site_fract_z
Zn1	Zn	1.617000	0.734950	0.889167
Zn2	Zn	1.577544	0.884219	0.728371
Zn3	Zn	1.422620	0.684049	0.683334
Zn4	Zn	1.422521	0.884183	0.883406
O5	O	1.509921	0.796850	0.796070
O6	O	1.757993	0.776068	0.889097
O7	O	1.540522	0.836379	0.571372
O8	O	1.464958	0.544574	0.694202
O9	O	1.729005	0.885736	0.770961
O10	O	1.607768	0.581971	0.845426
O11	O	1.426700	0.689315	0.538284
O12	O	1.276380	0.689279	0.688614
O13	O	1.464790	0.885674	1.035194
O14	O	1.276307	0.836317	0.835606
O15	O	1.607673	0.776033	1.039428
O16	O	1.540427	1.030441	0.765374
O17	O	1.426532	1.030415	0.879277
C18	C	1.238429	0.757272	0.756599
C19	C	1.122283	0.740369	0.739741
C20	C	1.070471	0.805672	0.804867
C21	C	0.950429	0.788204	0.787446
C22	C	1.479218	1.068350	0.826615
C23	C	1.466182	1.184518	0.839732
C24	C	1.540622	0.836527	1.077565
C25	C	1.553704	0.853435	1.197521
C26	C	1.782474	0.836584	0.835695
C27	C	1.898619	0.853516	0.852581
C28	C	1.540775	0.524297	0.765433
C29	C	1.553924	0.408151	0.752377
C30	C	1.516785	1.236303	0.789280
C31	C	1.503314	1.356369	0.802836
C32	C	1.503220	0.788209	1.234630
C33	C	1.516740	0.805683	1.358611
C34	C	1.479330	0.757351	1.515671
C35	C	1.466249	0.740447	1.395715
H36	H	0.943128	0.922358	0.921247
C37	C	1.588558	0.898685	1.439680
N38	N	1.642615	0.968759	1.500742
C39	C	1.625931	1.347974	0.680460
N40	N	1.680164	1.302647	0.626292
C41	C	1.625518	0.946433	1.278593
N42	N	1.679575	1.016507	1.339655
H43	H	0.905920	0.719354	0.718791
C44	C	1.130601	0.898678	0.897617
N45	N	1.175889	0.968735	0.967476
C46	C	1.431305	1.416549	0.874751
N47	N	1.377068	1.461877	0.928914
H48	H	1.077771	0.671524	0.671091
H49	H	1.570087	1.191754	0.736055
C50	C	1.394178	1.244702	0.911643
N51	N	1.339940	1.290030	0.965806
C52	C	1.431315	0.695281	1.153555
N53	N	1.377159	0.625282	1.092491
C54	C	1.394328	0.647523	1.314645
N55	N	1.340158	0.577533	1.253582
