data_functionalizedCrystal
_audit_creation_method	'MofGen! by Chris Wilmer'
_symmetry_space_group_name_H-M	'P1'
_symmetry_Int_Tables_number	1
_symmetry_cell_setting	triclinic
loop_
_symmetry_equiv_pos_as_xyz
  x,y,z
_cell_length_a	10.654550
_cell_length_b	8.559649
_cell_length_c	9.730223
_cell_angle_alpha	89.997407
_cell_angle_beta	89.999957
_cell_angle_gamma	77.131797
loop_
_atom_site_label
_atom_site_type_symbol
_atom_site_fract_x
_atom_site_fract_y
_atom_site_fract_z
O1	O	1.644681	0.224185	-0.114181
O2	O	1.276996	0.245543	-0.114206
O3	O	1.493232	0.002621	-0.114190
O4	O	1.428445	0.467107	-0.114197
O5	O	1.493220	0.002614	0.114390
O6	O	1.276985	0.245537	0.114374
O7	O	1.644669	0.224178	0.114398
Zn8	Zn	1.460825	0.234856	0.150678
Zn9	Zn	1.460841	0.234865	-0.150486
O10	O	1.428434	0.467100	0.114383
C11	C	1.230355	0.243972	0.000081
C12	C	1.091396	0.239280	0.000071
C13	C	1.498136	-0.056858	0.000097
C14	C	1.512750	-0.234076	0.000091
C15	C	0.997136	0.382309	0.000073
C16	C	0.866571	0.377890	0.000097
C17	C	0.924541	0.087402	0.000112
C18	C	1.055103	0.091822	0.000097
C19	C	1.691311	0.225750	0.000109
C20	C	1.830270	0.230442	0.000109
C21	C	1.423530	0.526579	0.000092
C22	C	1.408915	0.703797	0.000089
N23	N	1.460824	0.234849	0.356214
N24	N	1.460853	0.234860	-0.356022
C25	C	1.556598	0.127329	0.428147
C26	C	1.556610	0.127330	0.572030
C27	C	1.365070	0.342385	0.572035
C28	C	1.365053	0.342375	0.428154
H29	H	1.026680	0.502378	0.000062
N30	N	1.659858	0.011335	0.350537
H31	H	1.709508	0.072970	0.290819
H32	H	1.720445	-0.056768	0.418020
H33	H	0.789827	0.494359	0.000101
N34	N	1.659923	0.011384	0.649617
H35	H	1.720592	-0.056721	0.582206
H36	H	1.709470	0.073182	0.709290
H37	H	0.894975	-0.032654	0.000141
N38	N	1.261779	0.458355	0.649627
H39	H	1.276322	0.442051	0.751691
H40	H	1.265336	0.571759	0.624462
N41	N	1.156773	-0.062460	0.000107
H42	H	1.146723	-0.126734	-0.084621
H43	H	1.244942	-0.037157	0.000154
N44	N	1.276351	-0.187068	0.000094
H45	H	1.265548	-0.117191	-0.084642
H46	H	1.209210	-0.253801	0.000151
N47	N	1.645329	-0.343201	0.000122
H48	H	1.637332	-0.458580	0.000132
H49	H	1.693679	-0.321943	-0.084613
N50	N	1.261741	0.458336	0.350557
H51	H	1.201077	0.526460	0.417960
H52	H	1.302938	0.529466	0.290839
