data_functionalizedCrystal
_audit_creation_method	'MofGen! by Chris Wilmer'
_symmetry_space_group_name_H-M	'P1'
_symmetry_Int_Tables_number	1
_symmetry_cell_setting	triclinic
loop_
_symmetry_equiv_pos_as_xyz
  x,y,z
_cell_length_a	10.654559
_cell_length_b	16.992694
_cell_length_c	15.455301
_cell_angle_alpha	87.178730
_cell_angle_beta	92.973969
_cell_angle_gamma	92.421546
loop_
_atom_site_label
_atom_site_type_symbol
_atom_site_fract_x
_atom_site_fract_y
_atom_site_fract_z
O1	O	0.271639	-1.044933	0.072014
O2	O	0.771639	-0.544933	0.572014
O3	O	0.268718	-0.816633	0.072040
O4	O	0.768718	-0.316633	0.572040
O5	O	0.087893	-0.936028	0.072026
O6	O	0.587893	-0.436028	0.572026
O7	O	0.452463	-0.925538	0.072028
O8	O	0.952463	-0.425538	0.572028
O9	O	0.077453	-0.929833	-0.072236
O10	O	0.577453	-0.429833	0.427764
O11	O	0.258278	-0.810438	-0.072222
O12	O	0.758278	-0.310438	0.427778
O13	O	0.261199	-1.038738	-0.072248
O14	O	0.761199	-0.538738	0.427752
Cu15	Cu	0.258786	-0.924022	-0.085407
Cu16	Cu	0.758786	-0.424022	0.414593
Cu17	Cu	0.271131	-0.931349	0.085199
Cu18	Cu	0.771131	-0.431349	0.585199
O19	O	0.442024	-0.919343	-0.072234
O20	O	0.942024	-0.419343	0.427766
C21	C	0.259738	-0.784302	-0.000088
C22	C	0.759738	-0.284302	0.499912
C23	C	0.248519	-0.697197	-0.000078
C24	C	0.748519	-0.197197	0.499922
N25	N	0.250102	-0.918875	-0.205403
N26	N	0.750102	-0.418875	0.294597
C27	C	0.035809	-0.932159	-0.000103
C28	C	0.535809	-0.432159	0.499897
C29	C	-0.103833	-0.929850	-0.000097
C30	C	0.396167	-0.429850	0.499903
C31	C	-0.161634	-0.857382	-0.000087
C32	C	0.338366	-0.357382	0.499913
C33	C	-0.292844	-0.855217	-0.000093
C34	C	0.207156	-0.355217	0.499907
C35	C	-0.308440	-0.997995	-0.000116
C36	C	0.191560	-0.497995	0.499884
C37	C	-0.177233	-1.000159	-0.000116
C38	C	0.322767	-0.500159	0.499884
C39	C	-0.088235	-0.787073	-0.000067
C40	C	0.411765	-0.287073	0.499933
C41	C	-0.146036	-0.714599	-0.000056
C42	C	0.353964	-0.214599	0.499944
C43	C	-0.277245	-0.712434	-0.000062
C44	C	0.222755	-0.212434	0.499938
C45	C	-0.350654	-0.782743	-0.000080
C46	C	0.149346	-0.282743	0.499920
C47	C	0.494108	-0.923212	-0.000103
C48	C	0.994108	-0.423212	0.499897
C49	C	0.633750	-0.925521	-0.000103
C50	C	1.133750	-0.425521	0.499897
C51	C	0.270179	-1.071068	-0.000118
C52	C	0.770179	-0.571068	0.499882
C53	C	0.281398	-1.158174	-0.000123
C54	C	0.781398	-0.658174	0.499877
C55	C	0.356770	-0.647548	-0.000078
C56	C	0.856770	-0.147548	0.499922
C57	C	0.346220	-0.565703	-0.000090
C58	C	0.846220	-0.065703	0.499910
C59	C	0.227419	-0.533510	-0.000096
C60	C	0.727419	-0.033510	0.499904
C61	C	0.119160	-0.583166	-0.000098
C62	C	0.619160	-0.083166	0.499902
C63	C	0.129711	-0.665009	-0.000092
C64	C	0.629711	-0.165009	0.499908
C65	C	0.183690	-0.289672	-0.000119
C66	C	0.683690	0.210328	0.499881
C67	C	0.173148	-0.207823	-0.000122
C68	C	0.673148	0.292177	0.499878
C69	C	0.400209	-0.190366	-0.000116
C70	C	0.900209	0.309634	0.499884
C71	C	0.410749	-0.272212	-0.000105
C72	C	0.910749	0.227788	0.499895
C73	C	0.302490	-0.321860	-0.000112
C74	C	0.802490	0.178140	0.499888
N75	N	0.216632	-0.449852	-0.000105
N76	N	0.716632	0.050148	0.499895
N77	N	0.313277	-0.405516	-0.000109
N78	N	0.813277	0.094484	0.499891
C79	C	0.327848	-0.964923	-0.250798
C80	C	0.827848	-0.464923	0.249202
C81	C	0.321274	-0.961041	-0.341606
C82	C	0.821274	-0.461041	0.158394
C83	C	0.236959	-0.911106	-0.387017
C84	C	0.736959	-0.411106	0.112983
C85	C	0.159205	-0.865056	-0.341615
C86	C	0.659205	-0.365056	0.158385
C87	C	0.165773	-0.868943	-0.250808
C88	C	0.665773	-0.368943	0.249192
C89	C	0.208620	-0.894339	-0.658597
C90	C	0.708620	-0.394339	-0.158597
C91	C	0.202060	-0.890454	-0.749410
C92	C	0.702060	-0.390454	-0.249410
C93	C	0.364128	-0.986440	-0.749395
C94	C	0.864128	-0.486440	-0.249395
C95	C	0.370694	-0.990319	-0.658587
C96	C	0.870694	-0.490319	-0.158587
C97	C	0.292935	-0.944272	-0.613193
C98	C	0.792935	-0.444272	-0.113193
N99	N	0.230241	-0.907135	-0.479837
N100	N	0.730241	-0.407135	0.020163
N101	N	0.299649	-0.948248	-0.520375
N102	N	0.799649	-0.448248	-0.020375
N103	N	0.279806	-0.936502	0.205194
N104	N	0.779806	-0.436502	0.705194
H105	H	0.018604	-0.788828	-0.000061
H106	H	0.518604	-0.288828	0.499939
H107	H	0.384581	-0.998540	-0.378563
H108	H	0.884581	-0.498540	0.121437
H109	H	-0.086259	-0.657356	-0.000050
H110	H	0.413741	-0.157356	0.499950
H111	H	-0.457493	-0.780974	-0.000085
H112	H	0.042507	-0.280974	0.499915
H113	H	0.488347	-0.149934	-0.000112
H114	H	0.988347	0.350066	0.499888
N115	N	-0.339594	-0.634270	-0.000068
N116	N	0.160406	-0.134270	0.499932
H117	H	-0.273182	-0.590062	-0.000059
H118	H	0.226818	-0.090062	0.499941
H119	H	-0.389831	-0.632556	0.053408
H120	H	0.110169	-0.132556	0.553408
H121	H	0.439348	-1.030984	-0.621620
H122	H	0.939348	-0.530984	-0.121620
H123	H	-0.368219	-1.055237	-0.000129
H124	H	0.131781	-0.555237	0.499871
H125	H	-0.130170	-1.059169	-0.000126
H126	H	0.369830	-0.559169	0.499874
H127	H	0.090548	-0.824402	-0.378595
H128	H	0.590548	-0.324402	0.121405
N129	N	0.484913	-0.682259	-0.000073
N130	N	0.984913	-0.182259	0.499927
H131	H	0.490485	-0.713539	-0.053548
H132	H	0.990485	-0.213539	0.446452
H133	H	0.498149	-0.718076	0.053444
H134	H	0.998149	-0.218076	0.553444
N135	N	0.447991	-1.036104	-0.798355
N136	N	0.947991	-0.536104	-0.298355
H137	H	0.431039	-1.026067	-0.862771
H138	H	0.931039	-0.526067	-0.362771
H139	H	0.430091	-1.093703	-0.782478
H140	H	0.930091	-0.593703	-0.282478
H141	H	0.434369	-0.525281	-0.000089
H142	H	0.934369	-0.025281	0.499911
N143	N	0.538886	-0.306934	-0.000083
N144	N	1.038886	0.193066	0.499917
H145	H	0.605864	-0.263061	-0.000081
H146	H	1.105864	0.236939	0.499919
H147	H	0.544356	-0.338227	-0.053555
H148	H	1.044356	0.161773	0.446445
N149	N	0.045007	-0.173098	-0.000123
N150	N	0.545007	0.326902	0.499877
H151	H	-0.021975	-0.216968	-0.000127
H152	H	0.478025	0.283032	0.499873
H153	H	0.031821	-0.137228	-0.053602
H154	H	0.531821	0.362772	0.446398
H155	H	0.102464	-0.831445	-0.213848
H156	H	0.602464	-0.331445	0.286152
H157	H	0.133401	-0.849786	-0.786381
H158	H	0.633401	-0.349786	-0.286381
H159	H	0.041561	-0.705433	-0.000092
H160	H	0.541561	-0.205433	0.499908
N161	N	0.066930	-0.343215	-0.000132
N162	N	0.566930	0.156785	0.499868
H163	H	-0.009927	-0.310399	-0.000135
H164	H	0.490073	0.189601	0.499865
H165	H	0.070220	-0.379846	0.053346
H166	H	0.570220	0.120154	0.553346
N167	N	-0.008979	-0.548447	-0.000118
N168	N	0.491021	-0.048447	0.499882
H169	H	0.000761	-0.489066	-0.000121
H170	H	0.500761	0.010934	0.499879
H171	H	-0.052851	-0.568854	0.053359
H172	H	0.447149	-0.068854	0.553359
H173	H	0.396513	-1.005581	-0.213832
H174	H	0.896513	-0.505581	0.286168
H175	H	0.145302	-0.856844	-0.621648
H176	H	0.645302	-0.356844	-0.121648
