data_functionalizedCrystal
_audit_creation_method	'MofGen! by Chris Wilmer'
_symmetry_space_group_name_H-M	'P1'
_symmetry_Int_Tables_number	1
_symmetry_cell_setting	triclinic
loop_
_symmetry_equiv_pos_as_xyz
  x,y,z
_cell_length_a	16.992694
_cell_length_b	27.731996
_cell_length_c	16.053802
_cell_angle_alpha	92.537600
_cell_angle_beta	87.249047
_cell_angle_gamma	86.644806
loop_
_atom_site_label
_atom_site_type_symbol
_atom_site_fract_x
_atom_site_fract_y
_atom_site_fract_z
O1	O	1.042446	0.100542	-0.069343
O2	O	1.542446	0.600542	0.430657
O3	O	0.814176	0.099418	-0.069367
O4	O	1.314176	0.599418	0.430633
O5	O	0.935421	0.029889	-0.069336
O6	O	1.435421	0.529889	0.430664
O7	O	0.921201	0.170070	-0.069374
O8	O	1.421201	0.670070	0.430626
O9	O	0.928748	0.033700	0.069521
O10	O	1.428748	0.533700	0.569521
O11	O	0.807503	0.103228	0.069490
O12	O	1.307503	0.603228	0.569490
O13	O	1.035773	0.104352	0.069515
O14	O	1.535773	0.604352	0.569515
Zn15	Zn	0.920578	0.104395	0.091549
Zn16	Zn	1.420578	0.604395	0.591549
Zn17	Zn	0.929371	0.099375	-0.091401
Zn18	Zn	1.429371	0.599375	0.408599
O19	O	0.914528	0.173881	0.069484
O20	O	1.414528	0.673881	0.569484
C21	C	0.781645	0.099877	0.000059
C22	C	1.281645	0.599877	0.500059
C23	C	0.694655	0.095563	0.000050
C24	C	1.194655	0.595563	0.500050
C25	C	0.643898	0.137186	0.000040
C26	C	1.143898	0.637186	0.500040
C27	C	0.562161	0.133130	0.000052
C28	C	1.062161	0.633130	0.500052
C29	C	0.531183	0.087450	0.000069
C30	C	1.031183	0.587450	0.500069
C31	C	0.581946	0.045824	0.000083
C32	C	1.081946	0.545824	0.500083
C33	C	0.663681	0.049880	0.000076
C34	C	1.163681	0.549880	0.500076
C35	C	0.287793	0.070637	0.000096
C36	C	0.787793	0.570637	0.500096
C37	C	0.206052	0.066584	0.000100
C38	C	0.706052	0.566584	0.500100
C39	C	0.186272	0.153891	0.000072
C40	C	0.686272	0.653891	0.500072
C41	C	0.268009	0.157943	0.000060
C42	C	0.768009	0.657943	0.500060
C43	C	0.318765	0.116317	0.000078
C44	C	0.818765	0.616317	0.500078
N45	N	0.447635	0.083303	0.000080
N46	N	0.947635	0.583303	0.500080
N47	N	0.402311	0.120464	0.000073
N48	N	0.902311	0.620464	0.500073
C49	C	0.931792	0.013774	0.000095
C50	C	1.431792	0.513774	0.500095
C51	C	0.930912	-0.039920	0.000104
C52	C	1.430912	0.460080	0.500104
C53	C	0.929015	-0.374953	-0.075629
C54	C	1.429015	0.125047	0.424371
C55	C	0.925674	-0.576756	-0.075644
C56	C	1.425674	-0.076756	0.424356
O57	O	0.928302	-0.604614	-0.140017
O58	O	1.428302	-0.104614	0.359983
N59	N	0.921622	-0.599915	0.000047
N60	N	1.421622	-0.099915	0.500047
C61	C	0.918399	-0.572619	0.075746
C62	C	1.418399	-0.072619	0.575746
O63	O	0.914867	-0.596946	0.140125
O64	O	1.414867	-0.096946	0.640125
C65	C	0.921734	-0.370816	0.075760
C66	C	1.421734	0.129184	0.575760
C67	C	0.925795	-0.347661	0.000065
C68	C	1.425795	0.152339	0.500065
C69	C	0.933075	-0.351798	-0.151318
C70	C	1.433075	0.148202	0.348682
C71	C	0.933914	-0.301350	-0.151313
C72	C	1.433914	0.198650	0.348687
C73	C	0.930694	-0.274058	-0.075620
C74	C	1.430694	0.225942	0.424380
C75	C	0.926634	-0.297213	0.000070
C76	C	1.426634	0.202787	0.500070
C77	C	0.918506	-0.343521	0.151459
C78	C	1.418506	0.156479	0.651459
C79	C	0.919338	-0.293067	0.151456
C80	C	1.419338	0.206933	0.651456
C81	C	0.923399	-0.269912	0.075760
C82	C	1.423399	0.230088	0.575760
C83	C	0.924254	-0.219474	0.075768
C84	C	1.424254	0.280526	0.575768
N85	N	0.928306	-0.196315	0.000077
N86	N	1.428306	0.303685	0.500077
C87	C	0.931526	-0.223608	-0.075616
C88	C	1.431526	0.276392	0.424384
C89	C	0.916650	-0.678568	0.075733
C90	C	1.416650	-0.178568	0.575733
C91	C	0.915817	-0.729018	0.075730
C92	C	1.415817	-0.229018	0.575730
C93	C	0.923091	-0.733153	-0.075660
C94	C	1.423091	-0.233153	0.424340
C95	C	0.923929	-0.682702	-0.075656
C96	C	1.423929	-0.182702	0.424344
C97	C	0.920702	-0.655410	0.000043
C98	C	1.420702	-0.155410	0.500043
C99	C	0.933290	-0.117664	-0.075601
C100	C	1.433290	0.382336	0.424399
C101	C	0.934132	-0.067212	-0.075590
C102	C	1.434132	0.432788	0.424410
C103	C	0.926854	-0.063082	0.075800
C104	C	1.426854	0.436918	0.575800
C105	C	0.926016	-0.113530	0.075789
C106	C	1.426016	0.386470	0.575789
C107	C	0.929231	-0.140820	0.000082
C108	C	1.429231	0.359180	0.500082
O109	O	0.921619	-0.191586	0.140107
O110	O	1.421619	0.308414	0.640107
O111	O	0.935040	-0.199270	-0.139986
O112	O	1.435040	0.300730	0.360014
C113	C	0.928176	-0.425401	-0.075633
C114	C	1.428176	0.074599	0.424367
C115	C	0.924116	-0.448556	0.000056
C116	C	1.424116	0.051444	0.500056
C117	C	0.920896	-0.421264	0.075750
C118	C	1.420896	0.078736	0.575750
C119	C	0.923284	-0.499007	0.000053
C120	C	1.423284	0.000993	0.500053
C121	C	0.926504	-0.526299	-0.075641
C122	C	1.426504	-0.026299	0.424359
C123	C	0.930557	-0.503141	-0.151331
C124	C	1.430557	-0.003141	0.348669
C125	C	0.931396	-0.452693	-0.151327
C126	C	1.431396	0.047307	0.348673
C127	C	0.916843	-0.444422	0.151440
C128	C	1.416843	0.055578	0.651440
C129	C	0.916005	-0.494870	0.151429
C130	C	1.416005	0.005130	0.651429
C131	C	0.919225	-0.522162	0.075736
C132	C	1.419225	-0.022162	0.575736
C133	C	1.068304	0.103893	0.000087
C134	C	1.568304	0.603893	0.500087
C135	C	1.155295	0.108207	0.000090
C136	C	1.655295	0.608207	0.500090
C137	C	0.918157	0.189995	0.000050
C138	C	1.418157	0.689995	0.500050
C139	C	0.919038	0.243689	0.000036
C140	C	1.419038	0.743689	0.500036
N141	N	0.914583	0.107821	0.216408
N142	N	1.414583	0.607821	0.716408
N143	N	0.935372	0.095945	-0.216260
N144	N	1.435372	0.595945	0.283740
C145	C	0.966192	0.078249	0.260115
C146	C	1.466192	0.578249	0.760115
C147	C	0.962005	0.080650	0.347521
C148	C	1.462005	0.580650	0.847521
C149	C	0.906214	0.112627	0.391217
C150	C	1.406214	0.612627	0.891217
C151	C	0.854600	0.142200	0.347504
C152	C	1.354600	0.642200	0.847504
C153	C	0.858783	0.139796	0.260100
C154	C	1.358783	0.639796	0.760100
C155	C	0.887941	0.123115	0.652622
C156	C	1.387941	0.623115	1.152622
C157	C	0.883764	0.125518	0.740033
C158	C	1.383764	0.625518	1.240033
C159	C	0.991169	0.063967	0.740043
C160	C	1.491169	0.563967	1.240043
C161	C	0.995350	0.061567	0.652637
C162	C	1.495350	0.561567	1.152637
C163	C	0.943733	0.091139	0.608932
C164	C	1.443733	0.591139	1.108932
N165	N	0.901935	0.115083	0.480560
N166	N	1.401935	0.615083	0.980560
N167	N	0.948009	0.088680	0.519590
N168	N	1.448009	0.588680	1.019590
H169	H	0.180833	0.029384	0.000114
H170	H	0.680833	0.529384	0.500114
H171	H	0.934702	-0.433845	-0.212966
H172	H	1.434702	0.066155	0.287034
H173	H	0.705008	0.015986	0.000084
H174	H	1.205008	0.515986	0.500084
H175	H	0.914025	-0.656351	0.137380
H176	H	1.414025	-0.156351	0.637380
H177	H	0.838329	0.151559	0.775607
H178	H	1.338329	0.651559	1.275607
O179	O	1.055538	0.027084	0.605513
O180	O	1.555538	0.527084	1.105513
H181	H	1.049785	0.030387	0.537392
H182	H	1.549785	0.530387	1.037392
H183	H	0.925714	-0.755383	-0.137293
H184	H	1.425714	-0.255383	0.362707
O185	O	0.914118	-0.368488	0.233102
O186	O	1.414118	0.131512	0.733102
H187	H	0.912007	-0.341026	0.285728
H188	H	1.412007	0.158974	0.785728
O189	O	0.342532	0.025743	0.000115
O190	O	0.842532	0.525743	0.500115
H191	H	0.307257	-0.006702	0.000121
H192	H	0.807257	0.493298	0.500121
H193	H	0.669113	0.174384	0.000025
H194	H	1.169113	0.674384	0.500025
O195	O	0.915867	-0.263630	0.233104
O196	O	1.415867	0.236370	0.733104
H197	H	0.912911	-0.288211	0.285732
H198	H	1.412911	0.211789	0.785732
O199	O	0.548533	-0.003445	0.000106
O200	O	1.048533	0.496555	0.500106
H201	H	0.597562	-0.031707	0.000122
H202	H	1.097562	0.468293	0.500122
O203	O	0.938501	-0.042236	-0.157235
O204	O	1.438501	0.457764	0.342765
H205	H	0.940588	-0.069692	-0.209868
H206	H	1.440588	0.430308	0.290132
O207	O	0.934023	-0.532581	-0.232976
O208	O	1.434023	-0.032581	0.267024
H209	H	0.932750	-0.571551	-0.220252
H210	H	1.432750	-0.071551	0.279748
H211	H	0.520837	0.167025	0.000043
H212	H	1.020837	0.667025	0.500043
O213	O	1.046836	0.032074	0.787187
O214	O	1.546836	0.532074	1.287187
H215	H	1.086338	0.009438	0.742117
H216	H	1.586338	0.509438	1.242117
H217	H	0.922716	-0.132384	0.137426
H218	H	1.422716	0.367616	0.637426
O219	O	0.923379	-0.033641	0.157440
O220	O	1.423379	0.466359	0.657440
H221	H	0.924636	0.005330	0.144718
H222	H	1.424636	0.505330	0.644718
O223	O	0.832279	0.155013	0.605487
O224	O	1.332279	0.655013	1.105487
H225	H	0.792790	0.177656	0.650559
H226	H	1.292790	0.677656	1.150559
H227	H	1.004029	0.056570	0.383106
H228	H	1.504029	0.556570	0.883106
H229	H	0.935904	-0.139878	-0.137249
H230	H	1.435904	0.360122	0.362751
O231	O	0.938273	-0.276377	-0.232956
O232	O	1.438273	0.223623	0.267044
H233	H	0.940359	-0.303837	-0.285584
H234	H	1.440359	0.196163	0.214416
H235	H	0.809169	0.168235	0.383087
H236	H	1.309169	0.668235	0.883087
H237	H	0.293226	0.195140	0.000037
H238	H	0.793226	0.695140	0.500037
H239	H	0.816757	0.163876	0.224515
H240	H	1.316757	0.663876	0.724515
H241	H	0.144938	0.187781	0.000059
H242	H	0.644938	0.687781	0.500059
H243	H	0.935695	-0.374014	-0.212960
H244	H	1.435695	0.125986	0.287040
H245	H	0.912704	-0.513718	0.213074
H246	H	1.412704	-0.013718	0.713074
H247	H	0.914222	-0.422206	0.213080
H248	H	1.414222	0.077794	0.713080
O249	O	0.928296	-0.657727	-0.157297
O250	O	1.428296	-0.157727	0.342703
H251	H	0.930389	-0.685185	-0.209927
H252	H	1.430389	-0.185185	0.290073
O253	O	0.911444	-0.753992	0.157372
O254	O	1.411444	-0.253992	0.657372
H255	H	0.909337	-0.726533	0.210002
H256	H	1.409337	-0.226533	0.710002
O257	O	1.026364	0.043757	0.212985
O258	O	1.526364	0.543757	0.712985
H259	H	1.061541	0.023594	0.258065
H260	H	1.561541	0.523594	0.758065
