data_functionalizedCrystal
_audit_creation_method	'MofGen! by Chris Wilmer'
_symmetry_space_group_name_H-M	'P1'
_symmetry_Int_Tables_number	1
_symmetry_cell_setting	triclinic
loop_
_symmetry_equiv_pos_as_xyz
  x,y,z
_cell_length_a	27.732046
_cell_length_b	15.021413
_cell_length_c	15.944551
_cell_angle_alpha	89.996935
_cell_angle_beta	96.929642
_cell_angle_gamma	89.998829
loop_
_atom_site_label
_atom_site_type_symbol
_atom_site_fract_x
_atom_site_fract_y
_atom_site_fract_z
O1	O	-0.641363	0.073907	0.099927
O2	O	-0.391363	0.323907	0.349927
O3	O	-0.141363	0.573907	0.599927
O4	O	0.108637	0.823907	0.849927
O5	O	-0.500635	0.073937	0.115125
O6	O	-0.250635	0.323937	0.365125
O7	O	-0.000635	0.573937	0.615125
O8	O	0.249365	0.823937	0.865125
O9	O	-0.574842	0.073914	-0.014799
O10	O	-0.324842	0.323914	0.235201
O11	O	-0.074842	0.573914	0.485201
O12	O	0.175158	0.823914	0.735201
O13	O	-0.567156	0.073931	0.229851
O14	O	-0.317156	0.323931	0.479851
O15	O	-0.067156	0.573931	0.729851
O16	O	0.182844	0.823931	0.979851
O17	O	-0.574830	-0.074151	-0.014781
O18	O	-0.324830	0.175849	0.235219
O19	O	-0.074830	0.425849	0.485219
O20	O	0.175170	0.675849	0.735219
O21	O	-0.500624	-0.074127	0.115143
O22	O	-0.250624	0.175873	0.365143
O23	O	-0.000624	0.425873	0.615143
O24	O	0.249376	0.675873	0.865143
O25	O	-0.641351	-0.074157	0.099945
O26	O	-0.391351	0.175843	0.349945
O27	O	-0.141351	0.425843	0.599945
O28	O	0.108649	0.675843	0.849945
Zn29	Zn	-0.570986	-0.097650	0.107547
Zn30	Zn	-0.320986	0.152350	0.357547
Zn31	Zn	-0.070986	0.402350	0.607547
Zn32	Zn	0.179014	0.652350	0.857547
Zn33	Zn	-0.571001	0.097431	0.107523
Zn34	Zn	-0.321001	0.347431	0.357523
Zn35	Zn	-0.071001	0.597431	0.607523
Zn36	Zn	0.178999	0.847431	0.857523
O37	O	-0.567145	-0.074133	0.229869
O38	O	-0.317145	0.175867	0.479869
O39	O	-0.067145	0.425867	0.729869
O40	O	0.182855	0.675867	0.979869
C41	C	-0.482621	-0.000091	0.114815
C42	C	-0.232621	0.249909	0.364815
C43	C	0.017379	0.499909	0.614815
C44	C	0.267379	0.749909	0.864815
C45	C	-0.428962	-0.000080	0.113855
C46	C	-0.178962	0.249920	0.363855
C47	C	0.071038	0.499920	0.613855
C48	C	0.321038	0.749920	0.863855
N49	N	-0.570979	-0.230788	0.107563
N50	N	-0.320979	0.019212	0.357563
N51	N	-0.070979	0.269212	0.607563
N52	N	0.179021	0.519212	0.857563
C53	C	-0.574517	-0.000119	-0.046080
C54	C	-0.324517	0.249881	0.203920
C55	C	-0.074517	0.499881	0.453920
C56	C	0.175483	0.749881	0.703920
C57	C	-0.573561	-0.000119	-0.139313
C58	C	-0.323561	0.249881	0.110687
C59	C	-0.073561	0.499881	0.360687
C60	C	0.176439	0.749881	0.610687
C61	C	-0.090453	-0.000107	0.184588
C62	C	0.159547	0.249893	0.434588
C63	C	0.409547	0.499893	0.684588
C64	C	0.659547	0.749893	0.934588
C65	C	0.111222	-0.000112	0.181026
C66	C	0.361222	0.249888	0.431026
C67	C	0.611222	0.499888	0.681026
C68	C	0.861222	0.749888	0.931026
O69	O	0.142198	-0.000145	0.245703
O70	O	0.392198	0.249855	0.495703
O71	O	0.642198	0.499855	0.745703
O72	O	0.892198	0.749855	0.995703
N73	N	0.130680	-0.000115	0.103987
N74	N	0.380680	0.249885	0.353987
N75	N	0.630680	0.499885	0.603987
N76	N	0.880680	0.749885	0.853987
C77	C	0.099715	-0.000124	0.027833
C78	C	0.349715	0.249876	0.277833
C79	C	0.599715	0.499876	0.527833
C80	C	0.849715	0.749876	0.777833
O81	O	0.120892	-0.000136	-0.037775
O82	O	0.370892	0.249864	0.212225
O83	O	0.620892	0.499864	0.462225
O84	O	0.870892	0.749864	0.712225
C85	C	-0.101960	-0.000125	0.031396
C86	C	0.148040	0.249875	0.281396
C87	C	0.398040	0.499875	0.531396
C88	C	0.648040	0.749875	0.781396
C89	C	-0.121414	-0.000113	0.108440
C90	C	0.128586	0.249887	0.358440
C91	C	0.378586	0.499887	0.608440
C92	C	0.628586	0.749887	0.858440
C93	C	-0.109908	-0.000096	0.261625
C94	C	0.140092	0.249904	0.511625
C95	C	0.390092	0.499904	0.761625
C96	C	0.640092	0.749904	1.011625
C97	C	-0.160324	-0.000090	0.262515
C98	C	0.089676	0.249910	0.512515
C99	C	0.339676	0.499910	0.762515
C100	C	0.589676	0.749910	1.012515
C101	C	-0.191285	-0.000095	0.186367
C102	C	0.058715	0.249905	0.436367
C103	C	0.308715	0.499905	0.686367
C104	C	0.558715	0.749905	0.936367
C105	C	-0.171830	-0.000107	0.109329
C106	C	0.078170	0.249893	0.359329
C107	C	0.328170	0.499893	0.609329
C108	C	0.578170	0.749893	0.859329
C109	C	-0.132923	-0.000140	-0.044757
C110	C	0.117077	0.249860	0.205243
C111	C	0.367077	0.499860	0.455243
C112	C	0.617077	0.749860	0.705243
C113	C	-0.183345	-0.000143	-0.043860
C114	C	0.066655	0.249857	0.206140
C115	C	0.316655	0.499857	0.456140
C116	C	0.566655	0.749857	0.706140
C117	C	-0.202799	-0.000130	0.033184
C118	C	0.047201	0.249870	0.283184
C119	C	0.297201	0.499870	0.533184
C120	C	0.547201	0.749870	0.783184
C121	C	-0.253207	-0.000107	0.034071
C122	C	-0.003207	0.249893	0.284071
C123	C	0.246793	0.499893	0.534071
C124	C	0.496793	0.749893	0.784071
N125	N	-0.272664	-0.000103	0.111110
N126	N	-0.022664	0.249897	0.361110
N127	N	0.227336	0.499897	0.611110
N128	N	0.477336	0.749897	0.861110
C129	C	-0.241703	-0.000097	0.187258
C130	C	0.008297	0.249903	0.437258
C131	C	0.258297	0.499903	0.687258
C132	C	0.508297	0.749903	0.937258
C133	C	0.205597	-0.000121	0.025968
C134	C	0.455597	0.249879	0.275968
C135	C	0.705597	0.499879	0.525968
C136	C	0.955597	0.749879	0.775968
C137	C	0.256015	-0.000119	0.025077
C138	C	0.506015	0.249881	0.275077
C139	C	0.756015	0.499881	0.525077
C140	C	1.006015	0.749881	0.775077
C141	C	0.267519	-0.000108	0.178270
C142	C	0.517519	0.249892	0.428270
C143	C	0.767519	0.499892	0.678270
C144	C	1.017519	0.749892	0.928270
C145	C	0.217100	-0.000104	0.179160
C146	C	0.467100	0.249896	0.429160
C147	C	0.717100	0.499896	0.679160
C148	C	0.967100	0.749896	0.929160
C149	C	0.186140	-0.000117	0.103007
C150	C	0.436140	0.249883	0.353007
C151	C	0.686140	0.499883	0.603007
C152	C	0.936140	0.749883	0.853007
C153	C	-0.347580	-0.000084	0.189120
C154	C	-0.097580	0.249916	0.439120
C155	C	0.152420	0.499916	0.689120
C156	C	0.402420	0.749916	0.939120
C157	C	-0.398001	-0.000074	0.190003
C158	C	-0.148001	0.249926	0.440003
C159	C	0.101999	0.499926	0.690003
C160	C	0.351999	0.749926	0.940003
C161	C	-0.409501	-0.000089	0.036811
C162	C	-0.159501	0.249911	0.286811
C163	C	0.090499	0.499911	0.536811
C164	C	0.340499	0.749911	0.786811
C165	C	-0.359084	-0.000094	0.035927
C166	C	-0.109084	0.249906	0.285927
C167	C	0.140916	0.499906	0.535927
C168	C	0.390916	0.749906	0.785927
C169	C	-0.328125	-0.000095	0.112089
C170	C	-0.078125	0.249905	0.362089
C171	C	0.171875	0.499905	0.612089
C172	C	0.421875	0.749905	0.862089
O173	O	-0.284211	-0.000083	-0.030571
O174	O	-0.034211	0.249917	0.219429
O175	O	0.215789	0.499917	0.469429
O176	O	0.465789	0.749917	0.719429
O177	O	-0.262890	-0.000105	0.252856
O178	O	-0.012890	0.249895	0.502856
O179	O	0.237110	0.499895	0.752856
O180	O	0.487110	0.749895	1.002856
C181	C	-0.040037	-0.000113	0.183698
C182	C	0.209963	0.249887	0.433698
C183	C	0.459963	0.499887	0.683698
C184	C	0.709963	0.749887	0.933698
C185	C	-0.020582	-0.000125	0.106660
C186	C	0.229418	0.249875	0.356660
C187	C	0.479418	0.499875	0.606660
C188	C	0.729418	0.749875	0.856660
C189	C	-0.051543	-0.000130	0.030512
C190	C	0.198457	0.249870	0.280512
C191	C	0.448457	0.499870	0.530512
C192	C	0.698457	0.749870	0.780512
C193	C	0.029836	-0.000123	0.105770
C194	C	0.279836	0.249877	0.355770
C195	C	0.529836	0.499877	0.605770
C196	C	0.779836	0.749877	0.855770
C197	C	0.060797	-0.000117	0.181918
C198	C	0.310797	0.249883	0.431918
C199	C	0.560797	0.499883	0.681918
C200	C	0.810797	0.749883	0.931918
C201	C	0.041339	-0.000114	0.258957
C202	C	0.291339	0.249886	0.508957
C203	C	0.541339	0.499886	0.758957
C204	C	0.791339	0.749886	1.008957
C205	C	-0.009076	-0.000108	0.259846
C206	C	0.240924	0.249892	0.509846
C207	C	0.490924	0.499892	0.759846
C208	C	0.740924	0.749892	1.009846
C209	C	-0.032086	-0.000134	-0.046527
C210	C	0.217914	0.249866	0.203473
C211	C	0.467914	0.499866	0.453473
C212	C	0.717914	0.749866	0.703473
C213	C	0.018331	-0.000139	-0.047410
C214	C	0.268331	0.249861	0.202590
C215	C	0.518331	0.499861	0.452590
C216	C	0.768331	0.749861	0.702590
C217	C	0.049291	-0.000133	0.028738
C218	C	0.299291	0.249867	0.278738
C219	C	0.549291	0.499867	0.528738
C220	C	0.799291	0.749867	0.778738
C221	C	0.340635	-0.000122	0.100257
C222	C	0.590635	0.249878	0.350257
C223	C	0.840635	0.499878	0.600257
C224	C	1.090635	0.749878	0.850257
C225	C	0.286976	-0.000113	0.101225
C226	C	0.536976	0.249887	0.351225
C227	C	0.786976	0.499887	0.601225
C228	C	1.036976	0.749887	0.851225
C229	C	-0.536660	-0.470460	0.167612
C230	C	-0.286660	-0.220460	0.417612
C231	C	-0.036660	0.029540	0.667612
C232	C	0.213340	0.279540	0.917612
C233	C	-0.580337	-0.529803	0.183348
C234	C	-0.330337	-0.279803	0.433348
C235	C	-0.080337	-0.029803	0.683348
C236	C	0.169663	0.220197	0.933348
C237	C	-0.570991	-0.412395	0.107542
C238	C	-0.320991	-0.162395	0.357542
C239	C	-0.070991	0.087605	0.607542
C240	C	0.179009	0.337605	0.857542
C241	C	-0.527325	-0.529794	0.091825
C242	C	-0.277325	-0.279794	0.341825
C243	C	-0.027325	-0.029794	0.591825
C244	C	0.222675	0.220206	0.841825
C245	C	-0.570999	-0.587819	0.107524
C246	C	-0.320999	-0.337819	0.357524
C247	C	-0.070999	-0.087819	0.607524
C248	C	0.179001	0.162181	0.857524
C249	C	-0.614690	-0.470431	0.123315
C250	C	-0.364690	-0.220431	0.373315
C251	C	-0.114690	0.029569	0.623315
C252	C	0.135310	0.279569	0.873315
C253	C	-0.561650	-0.470417	0.031760
C254	C	-0.311650	-0.220417	0.281760
C255	C	-0.061650	0.029583	0.531760
C256	C	0.188350	0.279583	0.781760
C257	C	-0.605358	-0.529733	0.047463
C258	C	-0.355358	-0.279733	0.297463
C259	C	-0.105358	-0.029733	0.547463
C260	C	0.144642	0.220267	0.797463
C261	C	-0.570986	-0.311337	0.107555
C262	C	-0.320986	-0.061337	0.357555
C263	C	-0.070986	0.188663	0.607555
C264	C	0.179014	0.438663	0.857555
C265	C	-0.571009	-0.688874	0.107510
C266	C	-0.321009	-0.438874	0.357510
C267	C	-0.071009	-0.188874	0.607510
C268	C	0.178991	0.061126	0.857510
N269	N	-0.571012	0.230568	0.107500
N270	N	-0.321012	0.480568	0.357500
N271	N	-0.071012	0.730568	0.607500
N272	N	0.178988	0.980568	0.857500
C273	C	-0.525277	-0.000097	-0.353538
C274	C	-0.275277	0.249903	-0.103538
C275	C	-0.025277	0.499903	0.146462
C276	C	0.224723	0.749903	0.396462
C277	C	-0.547693	-0.073106	-0.414840
C278	C	-0.297693	0.176894	-0.164840
C279	C	-0.047693	0.426894	0.085160
C280	C	0.202307	0.676894	0.335160
C281	C	-0.571830	-0.000112	-0.310017
C282	C	-0.321830	0.249888	-0.060017
C283	C	-0.071830	0.499888	0.189983
C284	C	0.178170	0.749888	0.439983
C285	C	-0.547715	0.072874	-0.414842
C286	C	-0.297715	0.322874	-0.164842
C287	C	-0.047715	0.572874	0.085158
C288	C	0.202285	0.822874	0.335158
C289	C	-0.570155	-0.000101	-0.474907
C290	C	-0.320155	0.249899	-0.224907
C291	C	-0.070155	0.499899	0.025093
C292	C	0.179845	0.749899	0.275093
C293	C	-0.594258	-0.073181	-0.370090
C294	C	-0.344258	0.176819	-0.120090
C295	C	-0.094258	0.426819	0.129910
C296	C	0.155742	0.676819	0.379910
C297	C	-0.594274	0.072864	-0.370086
C298	C	-0.344274	0.322864	-0.120086
C299	C	-0.094274	0.572864	0.129914
C300	C	0.155726	0.822864	0.379914
C301	C	-0.616724	-0.000163	-0.431370
C302	C	-0.366724	0.249837	-0.181370
C303	C	-0.116724	0.499837	0.068630
C304	C	0.133276	0.749837	0.318630
C305	C	-0.572794	-0.000119	-0.215027
C306	C	-0.322794	0.249881	0.034973
C307	C	-0.072794	0.499881	0.284973
C308	C	0.177206	0.749881	0.534973
C309	C	-0.569195	-0.000100	-0.569896
C310	C	-0.319195	0.249900	-0.319896
C311	C	-0.069195	0.499900	-0.069896
C312	C	0.180805	0.749900	0.180104
C313	C	-0.567470	-0.000099	0.261150
C314	C	-0.317470	0.249901	0.511150
C315	C	-0.067470	0.499901	0.761150
C316	C	0.182530	0.749901	1.011150
C317	C	-0.568426	-0.000093	0.354383
C318	C	-0.318426	0.249907	0.604383
C319	C	-0.068426	0.499907	0.854383
C320	C	0.181574	0.749907	1.104383
H321	H	-0.413838	-0.000064	0.252744
H322	H	-0.163838	0.249936	0.502744
H323	H	0.086162	0.499936	0.752744
H324	H	0.336162	0.749936	1.002744
H325	H	-0.634426	-0.555594	-0.003348
H326	H	-0.384426	-0.305594	0.246652
H327	H	-0.134426	-0.055594	0.496652
H328	H	0.115574	0.194406	0.746652
Br329	Br	-0.676259	-0.427159	0.145581
Br330	Br	-0.426259	-0.177159	0.395581
Br331	Br	-0.176259	0.072841	0.645581
Br332	Br	0.073741	0.322841	0.895581
H333	H	-0.553728	-0.444312	-0.032298
H334	H	-0.303728	-0.194312	0.217702
H335	H	-0.053728	0.055688	0.467702
H336	H	0.196272	0.305688	0.717702
H337	H	-0.322379	-0.000087	0.251139
H338	H	-0.072379	0.249913	0.501139
H339	H	0.177621	0.499913	0.751139
H340	H	0.427621	0.749913	1.001139
H341	H	-0.490395	-0.555872	0.078541
H342	H	-0.240395	-0.305872	0.328541
H343	H	0.009605	-0.055872	0.578541
H344	H	0.259605	0.194128	0.828541
H345	H	-0.486636	-0.000161	-0.319725
H346	H	-0.236636	0.249839	-0.069725
H347	H	0.013364	0.499839	0.180275
H348	H	0.263364	0.749839	0.430275
H349	H	-0.527998	-0.134821	-0.434683
H350	H	-0.277998	0.115179	-0.184683
H351	H	-0.027998	0.365179	0.065317
H352	H	0.222002	0.615179	0.315317
H353	H	-0.613927	-0.134973	-0.350349
H354	H	-0.363927	0.115027	-0.100349
H355	H	-0.113927	0.365027	0.149651
H356	H	0.136073	0.615027	0.399651
H357	H	-0.655398	-0.000213	-0.465035
H358	H	-0.405398	0.249787	-0.215035
H359	H	-0.155398	0.499787	0.034965
H360	H	0.094602	0.749787	0.284965
H361	H	-0.613952	0.134583	-0.350220
H362	H	-0.363952	0.384583	-0.100220
H363	H	-0.113952	0.634583	0.149780
H364	H	0.136048	0.884583	0.399780
Br365	Br	0.044726	-0.000141	-0.151980
Br366	Br	0.294726	0.249859	0.098020
Br367	Br	0.544726	0.499859	0.348020
Br368	Br	0.794726	0.749859	0.598020
H369	H	-0.528024	0.134602	-0.434668
H370	H	-0.278024	0.384602	-0.184668
H371	H	-0.028024	0.634602	0.065332
H372	H	0.221976	0.884602	0.315332
Br373	Br	-0.186718	-0.000077	0.367080
Br374	Br	0.063282	0.249923	0.617080
Br375	Br	0.313282	0.499923	0.867080
Br376	Br	0.563282	0.749923	1.117080
H377	H	0.201264	-0.000099	0.241896
H378	H	0.451264	0.249901	0.491896
H379	H	0.701264	0.499901	0.741896
H380	H	0.951264	0.749901	0.991896
Br381	Br	-0.067898	-0.000088	0.364984
Br382	Br	0.182102	0.249912	0.614984
Br383	Br	0.432102	0.499912	0.864984
Br384	Br	0.682102	0.749912	1.114984
H385	H	0.292736	-0.000104	0.240273
H386	H	0.542736	0.249896	0.490273
H387	H	0.792736	0.499896	0.740273
H388	H	1.042736	0.749896	0.990273
H389	H	0.180393	-0.000131	-0.036049
H390	H	0.430393	0.249869	0.213951
H391	H	0.680393	0.499869	0.463951
H392	H	0.930393	0.749869	0.713951
Br393	Br	0.282411	-0.000109	-0.079487
Br394	Br	0.532411	0.249891	0.170513
Br395	Br	0.782411	0.499891	0.420513
Br396	Br	1.032411	0.749891	0.670513
Br397	Br	-0.106534	-0.000138	-0.149324
Br398	Br	0.143466	0.249862	0.100676
Br399	Br	0.393466	0.499862	0.350676
Br400	Br	0.643466	0.749862	0.600676
H401	H	-0.343244	-0.000091	-0.026808
H402	H	-0.093244	0.249909	0.223192
H403	H	0.156756	0.499909	0.473192
H404	H	0.406756	0.749909	0.723192
Br405	Br	-0.225360	-0.000165	-0.147217
Br406	Br	0.024640	0.249835	0.102783
Br407	Br	0.274640	0.499835	0.352783
Br408	Br	0.524640	0.749835	0.602783
H409	H	-0.434718	-0.000091	-0.025187
H410	H	-0.184718	0.249909	0.224813
H411	H	0.065282	0.499909	0.474813
H412	H	0.315282	0.749909	0.724813
H413	H	-0.024911	-0.000099	0.322583
H414	H	0.225089	0.249901	0.572583
H415	H	0.475089	0.499901	0.822583
H416	H	0.725089	0.749901	1.072583
Br417	Br	-0.488319	-0.427078	0.252343
Br418	Br	-0.238319	-0.177078	0.502343
Br419	Br	0.011681	0.072922	0.752343
Br420	Br	0.261681	0.322922	1.002343
H421	H	-0.588246	-0.555887	0.247427
H422	H	-0.338246	-0.305887	0.497427
H423	H	-0.088246	-0.055887	0.747427
H424	H	0.161754	0.194113	0.997427
Br425	Br	0.083368	-0.000099	0.362299
Br426	Br	0.333368	0.249901	0.612299
Br427	Br	0.583368	0.499901	0.862299
Br428	Br	0.833368	0.749901	1.112299
H429	H	-0.057290	-0.000141	-0.108537
H430	H	0.192710	0.249859	0.141463
H431	H	0.442710	0.499859	0.391463
H432	H	0.692710	0.749859	0.641463
