data_functionalizedCrystal
_audit_creation_method	'MofGen! by Chris Wilmer'
_symmetry_space_group_name_H-M	'P1'
_symmetry_Int_Tables_number	1
_symmetry_cell_setting	triclinic
loop_
_symmetry_equiv_pos_as_xyz
  x,y,z
_cell_length_a	29.839134
_cell_length_b	29.839131
_cell_length_c	19.076919
_cell_angle_alpha	87.732541
_cell_angle_beta	87.730797
_cell_angle_gamma	90.034165
loop_
_atom_site_label
_atom_site_type_symbol
_atom_site_fract_x
_atom_site_fract_y
_atom_site_fract_z
Zn1	Zn	0.676527	-0.189159	0.398157
Zn2	Zn	0.679472	-0.261269	0.280458
Zn3	Zn	0.604423	-0.186144	0.280453
Zn4	Zn	0.601359	-0.264251	0.398087
O5	O	0.640445	-0.225206	0.339289
O6	O	0.739784	-0.198738	0.382576
O7	O	0.672031	-0.248793	0.181970
O8	O	0.614037	-0.123678	0.296094
O9	O	0.741948	-0.251717	0.296103
O10	O	0.667012	-0.125893	0.382571
O11	O	0.616893	-0.193600	0.181966
O12	O	0.541150	-0.196492	0.296026
O13	O	0.608815	-0.256800	0.496585
O14	O	0.538899	-0.253877	0.382451
O15	O	0.664041	-0.201630	0.496636
O16	O	0.669061	-0.324531	0.296035
O17	O	0.611671	-0.326722	0.382457
C18	C	0.523724	-0.225181	0.339231
C19	C	0.473790	-0.225182	0.339223
C20	C	0.640365	-0.341928	0.339254
C21	C	0.640371	-0.391862	0.339263
C22	C	0.118358	-0.195285	0.294379
C23	C	0.306032	-0.195272	0.294336
O24	O	0.331281	-0.169813	0.256143
N25	N	0.328344	-0.225190	0.339258
C26	C	0.303734	-0.255112	0.384197
O27	O	0.327017	-0.280556	0.422409
C28	C	0.116060	-0.255123	0.384242
C29	C	0.093752	-0.225206	0.339313
C30	C	0.096049	-0.165370	0.249454
C31	C	0.049134	-0.165376	0.249462
C32	C	0.024527	-0.195296	0.294396
C33	C	0.046836	-0.225211	0.339321
C34	C	0.091451	-0.285042	0.429184
C35	C	0.044530	-0.285042	0.429193
C36	C	0.022221	-0.255125	0.384263
C37	C	-0.024687	-0.255137	0.384264
N38	N	-0.046998	-0.225219	0.339342
C39	C	-0.022391	-0.195298	0.294408
C40	C	0.402265	-0.255104	0.384169
C41	C	0.449183	-0.255102	0.384156
C42	C	0.451479	-0.195261	0.294297
C43	C	0.404560	-0.195266	0.294306
C44	C	0.379954	-0.225186	0.339247
C45	C	-0.120918	-0.195312	0.294429
C46	C	-0.167838	-0.195322	0.294439
C47	C	-0.170129	-0.255161	0.384301
C48	C	-0.123213	-0.255153	0.384288
C49	C	-0.098609	-0.225225	0.339350
O50	O	-0.049964	-0.280579	0.422442
O51	O	-0.045683	-0.169851	0.256212
C52	C	0.165274	-0.195280	0.294371
C53	C	0.187583	-0.225195	0.339296
C54	C	0.162976	-0.255115	0.384230
C55	C	0.234501	-0.225193	0.339284
C56	C	0.259108	-0.195272	0.294350
C57	C	0.236796	-0.165354	0.249428
C58	C	0.189881	-0.165359	0.249437
C59	C	0.185288	-0.285034	0.429151
C60	C	0.232203	-0.285026	0.429139
C61	C	0.256810	-0.255106	0.384205
C62	C	0.670378	-0.700354	0.294355
C63	C	0.670433	-0.888028	0.294382
O64	O	0.695883	-0.911313	0.256173
N65	N	0.640537	-0.912649	0.339342
C66	C	0.610627	-0.890349	0.384301
O67	O	0.585203	-0.915598	0.422548
C68	C	0.610575	-0.702677	0.384277
C69	C	0.640470	-0.678058	0.339309
C70	C	0.700271	-0.675735	0.249392
C71	C	0.700255	-0.628820	0.249382
C72	C	0.670347	-0.606523	0.294337
C73	C	0.640454	-0.631142	0.339300
C74	C	0.580667	-0.680378	0.429240
C75	C	0.580658	-0.633456	0.429231
C76	C	0.610553	-0.608837	0.384263
C77	C	0.610530	-0.561929	0.384246
N78	N	0.640426	-0.537308	0.339286
C79	C	0.670335	-0.559605	0.294332
C80	C	0.610656	-0.988880	0.384310
C81	C	0.610668	-1.035798	0.384315
C82	C	0.670475	-1.033474	0.294397
C83	C	0.670460	-0.986555	0.294389
C84	C	0.640552	-0.964259	0.339350
C85	C	0.670299	-0.461079	0.294315
C86	C	0.670280	-0.414159	0.294308
C87	C	0.610475	-0.416488	0.384229
C88	C	0.610493	-0.463403	0.384234
C89	C	0.640408	-0.485698	0.339275
O90	O	0.585097	-0.538615	0.422440
O91	O	0.695762	-0.534349	0.256102
C92	C	0.670394	-0.747270	0.294364
C93	C	0.640501	-0.771889	0.339328
C94	C	0.610593	-0.749592	0.384282
C95	C	0.640514	-0.818807	0.339333
C96	C	0.670422	-0.841104	0.294379
C97	C	0.700318	-0.816482	0.249419
C98	C	0.700302	-0.769567	0.249410
C99	C	0.580696	-0.774213	0.429242
C100	C	0.580714	-0.821129	0.429247
C101	C	0.610623	-0.843426	0.384292
C102	C	0.757622	-0.225231	0.339348
C103	C	0.807556	-0.225242	0.339373
C104	C	0.635758	-0.229884	0.522861
C105	C	0.633760	-0.231878	0.601089
C106	C	0.640538	-0.108029	0.339339
C107	C	0.640577	-0.058095	0.339361
C108	C	0.645140	-0.220513	0.156431
C109	C	0.647225	-0.218393	0.078204
C110	C	0.661573	-0.204092	0.637868
C111	C	0.659691	-0.205963	0.711371
C112	C	0.629998	-0.235623	0.748094
C113	C	0.602182	-0.263411	0.711309
C114	C	0.604062	-0.261537	0.637807
C115	C	0.621289	-0.244306	0.967917
C116	C	0.619412	-0.246179	1.041424
C117	C	0.676921	-0.188731	1.041482
C118	C	0.678800	-0.186861	0.967978
C119	C	0.650983	-0.214647	0.931200
N120	N	0.628074	-0.237538	0.823226
N121	N	0.652904	-0.212730	0.856070
H122	H	-0.185999	-0.170959	0.257850
H123	H	0.030974	-0.141014	0.212876
C124	C	0.590682	-0.274860	0.927471
H125	H	0.572729	-0.292792	0.959870
H126	H	0.571857	-0.256930	0.898804
H127	H	0.608575	-0.293713	0.898790
C128	C	-0.197202	-0.288068	0.433728
H129	H	-0.228339	-0.283780	0.427300
H130	H	-0.189270	-0.317980	0.423351
H131	H	-0.190705	-0.282737	0.481034
H132	H	0.586321	-1.055839	0.420926
H133	H	0.578003	-0.287559	0.741214
C134	C	0.165347	-0.132447	0.200019
H135	H	0.186726	-0.114627	0.173266
H136	H	0.147809	-0.148817	0.169306
H137	H	0.146375	-0.113584	0.227004
C138	C	0.380024	-0.162354	0.244890
H139	H	0.401402	-0.144534	0.218133
H140	H	0.362484	-0.178724	0.214180
H141	H	0.361054	-0.143490	0.271877
C142	C	0.577750	-0.964360	0.433763
H143	H	0.559946	-0.985747	0.460531
H144	H	0.594125	-0.946817	0.464463
H145	H	0.558871	-0.945396	0.406798
H146	H	0.682341	-0.183338	0.741314
H147	H	0.694803	-0.966513	0.257773
C148	C	0.573479	-0.292113	0.597350
H149	H	0.555531	-0.310052	0.629746
H150	H	0.554649	-0.274201	0.568664
H151	H	0.591394	-0.310958	0.568687
H152	H	0.556303	-0.615306	0.465846
C153	C	0.733145	-0.601745	0.199926
H154	H	0.750961	-0.621749	0.173164
H155	H	0.716761	-0.582680	0.169222
H156	H	0.752015	-0.584109	0.226887
H157	H	0.595230	-0.270333	1.071322
H158	H	0.724669	-0.834645	0.212813
H159	H	-0.100890	-0.170940	0.257839
H160	H	0.116079	-0.141003	0.212863
C161	C	0.711459	-0.154233	0.927585
H162	H	0.708598	-0.157099	0.878543
H163	H	0.704600	-0.124354	0.939641
H164	H	0.741332	-0.161123	0.939645
C165	C	0.017465	-0.317938	0.478656
H166	H	0.037474	-0.335750	0.505414
H167	H	-0.001595	-0.301551	0.509363
H168	H	-0.000175	-0.336812	0.451707
C169	C	0.703376	-1.058004	0.244950
H170	H	0.721181	-1.036625	0.218167
H171	H	0.722249	-1.076971	0.271916
H172	H	0.686994	-1.075546	0.214253
C173	C	-0.098672	-0.288063	0.433706
H174	H	-0.120049	-0.305882	0.460469
H175	H	-0.079695	-0.306921	0.406730
H176	H	-0.081140	-0.271684	0.464421
H177	H	0.724629	-0.693884	0.212784
H178	H	0.471521	-0.170899	0.257709
C179	C	0.263870	-0.132441	0.200005
H180	H	0.295006	-0.136723	0.206444
H181	H	0.257376	-0.137760	0.152698
H182	H	0.255935	-0.102530	0.210400
C183	C	0.256738	-0.317937	0.478566
H184	H	0.235359	-0.335752	0.505331
H185	H	0.275715	-0.336799	0.451595
H186	H	0.274270	-0.301557	0.509280
H187	H	0.467343	-0.279468	0.420735
H188	H	0.382235	-0.279471	0.420766
H189	H	0.109607	-0.309404	0.465770
C190	C	0.158227	-0.317956	0.478568
H191	H	0.178238	-0.335775	0.505310
H192	H	0.139152	-0.301596	0.509293
H193	H	0.140602	-0.336820	0.451580
H194	H	0.556322	-0.700414	0.465854
C195	C	0.577609	-0.490485	0.433695
H196	H	0.559796	-0.470484	0.460469
H197	H	0.558742	-0.508130	0.406749
H198	H	0.594006	-0.509542	0.464399
H199	H	0.699568	-0.166109	1.071434
H200	H	0.694624	-0.394115	0.257688
H201	H	0.694660	-0.479225	0.257707
C202	C	0.577580	-0.391955	0.433678
H203	H	0.581859	-0.360487	0.427235
H204	H	0.547665	-0.399407	0.423335
H205	H	0.582931	-0.400832	0.480981
C206	C	0.733190	-0.742492	0.199950
H207	H	0.751005	-0.762496	0.173187
H208	H	0.716804	-0.723428	0.169247
H209	H	0.752061	-0.724854	0.226908
H210	H	0.556366	-0.841170	0.465864
H211	H	0.556342	-0.756063	0.465850
H212	H	0.685754	-0.179940	0.607974
