data_functionalizedCrystal
_audit_creation_method	'MofGen! by Chris Wilmer'
_symmetry_space_group_name_H-M	'P1'
_symmetry_Int_Tables_number	1
_symmetry_cell_setting	triclinic
loop_
_symmetry_equiv_pos_as_xyz
  x,y,z
_cell_length_a	16.109301
_cell_length_b	15.944551
_cell_length_c	14.586319
_cell_angle_alpha	89.995256
_cell_angle_beta	89.999213
_cell_angle_gamma	83.480109
loop_
_atom_site_label
_atom_site_type_symbol
_atom_site_fract_x
_atom_site_fract_y
_atom_site_fract_z
O1	O	1.103166	0.107966	-0.076184
O2	O	0.861108	0.121403	-0.076199
O3	O	0.988747	-0.007593	-0.076183
O4	O	0.975527	0.236961	-0.076200
O5	O	0.988738	-0.007595	0.076298
O6	O	0.861099	0.121401	0.076282
O7	O	1.103157	0.107964	0.076296
Cu8	Cu	0.982127	0.114682	0.090212
Cu9	Cu	0.982138	0.114685	-0.090114
O10	O	0.975518	0.236960	0.076280
C11	C	0.830129	0.120857	0.000039
C12	C	0.737833	0.119226	0.000034
C13	C	0.988194	-0.038887	0.000057
C14	C	0.986548	-0.132133	0.000058
C15	C	0.515584	0.191975	0.000040
C16	C	0.428863	0.190435	0.000046
C17	C	0.448688	0.037387	0.000053
C18	C	0.535407	0.038927	0.000053
C19	C	0.568853	0.116224	0.000042
C20	C	0.395412	0.113143	0.000047
C21	C	0.301386	0.111473	0.000054
C22	C	0.662885	0.117894	0.000037
C23	C	0.903499	-0.346962	0.000040
C24	C	0.942060	-0.407993	0.075225
C25	C	0.983572	-0.302858	0.000051
C26	C	0.942088	-0.407975	-0.075109
C27	C	0.980691	-0.467769	0.000040
C28	C	1.022155	-0.362660	0.075297
C29	C	1.022171	-0.362636	-0.075104
C30	C	1.060790	-0.423649	0.000099
C31	C	0.985229	-0.207856	0.000058
C32	C	0.979039	-0.562770	0.000039
C33	C	1.134136	0.108510	0.000056
C34	C	1.226432	0.110141	0.000055
C35	C	0.976071	0.268254	0.000038
C36	C	0.977717	0.361500	0.000031
N37	N	0.982126	0.114680	0.217044
N38	N	0.982146	0.114680	-0.216946
C39	C	1.038663	0.057580	0.452057
C40	C	1.038666	0.057578	0.548038
C41	C	0.925602	0.171783	0.548034
C42	C	0.925597	0.171780	0.452054
C43	C	0.982132	0.114680	0.404068
C44	C	0.982140	0.114680	0.596029
C45	C	0.982142	0.114679	0.700096
C46	C	0.982129	0.114680	0.299995
H47	H	0.542812	0.254914	0.000037
C48	C	0.896994	-0.434697	0.160083
C49	C	0.938271	-0.410599	0.238624
C50	C	0.896770	-0.435171	0.316807
H51	H	0.896709	-0.494238	0.159877
H52	H	0.841126	-0.408155	0.160053
H53	H	0.994125	-0.437144	0.238654
H54	H	0.938557	-0.351062	0.238860
H55	H	0.840901	-0.408629	0.316778
H56	H	0.896487	-0.494712	0.316592
H57	H	0.924765	-0.418818	0.370106
C58	C	1.099883	-0.004499	0.399864
C59	C	1.055561	-0.055913	0.344784
C60	C	1.111919	-0.113124	0.296697
H61	H	1.133553	-0.038586	0.442109
H62	H	1.134503	0.025660	0.362346
H63	H	1.020956	-0.086070	0.382300
H64	H	1.021894	-0.021849	0.302523
H65	H	1.146538	-0.082964	0.259178
H66	H	1.145586	-0.147204	0.338948
H67	H	1.081854	-0.148009	0.259313
H68	H	1.127313	-0.456830	0.000145
H69	H	1.084697	0.011082	0.587108
H70	H	0.879558	0.218278	0.412979
C71	C	1.067155	-0.335826	-0.159964
C72	C	1.024951	-0.358501	-0.238477
C73	C	1.066352	-0.333804	-0.316673
H74	H	1.122721	-0.363121	-0.160630
H75	H	1.068287	-0.276387	-0.159092
H76	H	1.023828	-0.417929	-0.239349
H77	H	0.969388	-0.331208	-0.237842
H78	H	1.067484	-0.274365	-0.315801
H79	H	1.121916	-0.361101	-0.317329
H80	H	1.037719	-0.349179	-0.369953
H81	H	0.385495	0.252119	0.000045
C82	C	0.896913	-0.434906	-0.159784
C83	C	0.896610	-0.522681	-0.159078
C84	C	0.854988	-0.547515	-0.237054
H85	H	0.924765	-0.418699	-0.213237
H86	H	0.841021	-0.408427	-0.159693
H87	H	0.952492	-0.549151	-0.159178
H88	H	0.868753	-0.538910	-0.105643
H89	H	0.799096	-0.521036	-0.236963
H90	H	0.882844	-0.531302	-0.290501
H91	H	0.854770	-0.607071	-0.236581
C92	C	0.412212	-0.046447	0.000009
C93	C	0.324865	-0.031585	-0.000019
C94	C	0.291238	-0.108793	-0.000074
H95	H	0.430403	-0.077704	0.053169
H96	H	0.430452	-0.077640	-0.053185
H97	H	0.306633	-0.000404	0.053170
H98	H	0.306652	-0.000340	-0.053175
H99	H	0.309478	-0.139987	-0.053268
H100	H	0.309434	-0.140045	0.053087
H101	H	0.231970	-0.098720	-0.000101
C102	C	0.864190	0.233645	0.600255
C103	C	0.813316	0.188888	0.655388
C104	C	0.756741	0.245849	0.703515
H105	H	0.830438	0.267676	0.558033
H106	H	0.894080	0.268608	0.637741
H107	H	0.783428	0.153940	0.617905
H108	H	0.847045	0.154860	0.697626
H109	H	0.786632	0.280812	0.741001
H110	H	0.722995	0.279877	0.661287
H111	H	0.722222	0.215490	0.740934
C112	C	0.593111	-0.043413	0.000008
C113	C	0.545262	-0.111436	-0.000014
C114	C	0.598389	-0.187296	-0.000064
H115	H	0.627369	-0.046113	0.053168
H116	H	0.627341	-0.046035	-0.053186
H117	H	0.511046	-0.108815	0.053174
H118	H	0.511005	-0.108764	-0.053170
H119	H	0.632620	-0.189918	-0.053258
H120	H	0.632645	-0.189987	0.053096
H121	H	0.565931	-0.233458	-0.000088
C122	C	0.814817	-0.302672	0.000178
C123	C	0.758128	-0.363043	0.001065
C124	C	0.676430	-0.322275	0.001210
H125	H	0.806092	-0.268737	-0.053240
H126	H	0.806572	-0.268007	0.053109
H127	H	0.766369	-0.397693	-0.051860
H128	H	0.766826	-0.396981	0.054480
H129	H	0.668185	-0.287610	0.054141
H130	H	0.667714	-0.288341	-0.052209
H131	H	0.637957	-0.363230	0.001821
C132	C	1.067362	-0.335925	0.160037
C133	C	1.136649	-0.296163	0.133312
C134	C	1.178303	-0.271511	0.211348
H135	H	1.085495	-0.384249	0.195954
H136	H	1.030484	-0.297835	0.195177
H137	H	1.173520	-0.334251	0.098187
H138	H	1.118539	-0.247830	0.097406
H139	H	1.141425	-0.233421	0.246489
H140	H	1.196431	-0.319839	0.247260
H141	H	1.225314	-0.244523	0.193227
