data_functionalizedCrystal
_audit_creation_method	'MofGen! by Chris Wilmer'
_symmetry_space_group_name_H-M	'P1'
_symmetry_Int_Tables_number	1
_symmetry_cell_setting	triclinic
loop_
_symmetry_equiv_pos_as_xyz
  x,y,z
_cell_length_a	31.640172
_cell_length_b	20.875492
_cell_length_c	20.875641
_cell_angle_alpha	60.662107
_cell_angle_beta	89.996382
_cell_angle_gamma	58.311032
loop_
_atom_site_label
_atom_site_type_symbol
_atom_site_fract_x
_atom_site_fract_y
_atom_site_fract_z
Zr1	Zr	0.385003	0.731442	-0.117967
O2	O	0.315513	0.864450	-0.223441
O3	O	0.409524	0.593158	-0.080735
O4	O	0.408331	0.723819	-0.216382
O5	O	0.313986	0.741642	0.013634
O6	O	0.477888	0.723807	-0.216385
O7	O	0.316705	0.733789	-0.087794
O8	O	0.480021	0.490079	0.026263
O9	O	0.311852	0.975370	-0.229014
O10	O	0.468003	0.651982	-0.070777
O11	O	0.414064	0.657851	0.004921
O12	O	0.412660	0.811687	-0.154786
O13	O	0.358721	0.817556	-0.079088
Zr14	Zr	0.491601	0.743948	0.043794
Zr15	Zr	0.495938	0.731423	-0.117972
Zr16	Zr	0.380666	0.743966	0.043800
Zr17	Zr	0.379166	0.908347	-0.126854
Zr18	Zr	0.497439	0.567042	0.052682
O19	O	0.467081	0.882231	0.006562
O20	O	0.473248	0.864424	-0.223449
O21	O	0.309345	0.882258	0.006570
O22	O	0.561092	0.610940	0.149269
O23	O	0.567259	0.593132	-0.080743
O24	O	0.403357	0.610966	0.149277
O25	O	0.562619	0.733748	-0.087807
O26	O	0.468273	0.751570	0.142209
O27	O	0.398716	0.751582	0.142213
O28	O	0.559899	0.741601	0.013622
O29	O	0.400031	0.975356	-0.229018
O30	O	0.476573	0.500034	0.154846
O31	O	0.564752	0.500019	0.154841
O32	O	0.568200	0.490064	0.026258
O33	O	0.308405	0.985326	-0.100430
O34	O	0.396583	0.985311	-0.100435
O35	O	0.463944	0.663702	0.080614
O36	O	0.517883	0.657833	0.004916
O37	O	0.462540	0.817539	-0.079093
O38	O	0.408601	0.823408	-0.003396
C39	C	0.445604	0.516413	-0.025970
C40	C	0.448082	0.441312	-0.022197
C41	C	0.410407	0.462838	-0.079383
C42	C	0.412737	0.392284	-0.075865
C43	C	0.452741	0.300205	-0.015158
C44	C	0.490420	0.278680	0.042031
C45	C	0.488092	0.349234	0.038510
C46	C	0.463872	0.083106	0.001692
C47	C	0.466197	0.012552	0.005211
C48	C	0.388515	0.126160	-0.112687
C49	C	0.386188	0.196710	-0.116201
C50	C	0.423868	0.175179	-0.059014
N51	N	0.455123	0.228086	-0.011559
N52	N	0.421488	0.247297	-0.062616
C53	C	0.299539	0.737718	-0.037079
C54	C	0.252445	0.737726	-0.037077
C55	C	-0.038061	0.733352	-0.092962
C56	C	-0.215047	0.733339	-0.092967
O57	O	-0.236644	0.729619	-0.140468
N58	N	-0.238676	0.737667	-0.037090
C59	C	-0.218053	0.741993	0.018796
O60	O	-0.242209	0.745664	0.066327
C61	C	-0.041066	0.741998	0.018804
C62	C	-0.017442	0.737679	-0.037082
C63	C	-0.014437	0.729032	-0.148842
C64	C	0.029805	0.729040	-0.148843
C65	C	0.050423	0.733368	-0.092963
C66	C	0.026800	0.737688	-0.037083
C67	C	-0.020442	0.746317	0.074692
C68	C	0.023808	0.746316	0.074690
C69	C	0.047432	0.741997	0.018804
C70	C	0.091660	0.742024	0.018796
N71	N	0.115289	0.737696	-0.037081
C72	C	0.094671	0.733368	-0.092961
C73	C	-0.310975	0.741991	0.018787
C74	C	-0.355222	0.741991	0.018784
C75	C	-0.352212	0.733336	-0.092978
C76	C	-0.307966	0.733343	-0.092978
C77	C	-0.287346	0.737663	-0.037090
C78	C	0.187582	0.733386	-0.092959
C79	C	0.231826	0.733398	-0.092956
C80	C	0.228814	0.742049	0.018807
C81	C	0.184572	0.742041	0.018803
C82	C	0.163958	0.737706	-0.037083
O83	O	0.113289	0.745731	0.066278
O84	O	0.118841	0.729676	-0.140474
C85	C	-0.082303	0.733343	-0.092961
C86	C	-0.105927	0.737663	-0.037080
C87	C	-0.085308	0.741991	0.018799
C88	C	-0.150174	0.737663	-0.037083
C89	C	-0.170792	0.733336	-0.092963
C90	C	-0.147163	0.729007	-0.148840
C91	C	-0.102921	0.729016	-0.148840
C92	C	-0.108937	0.746319	0.074676
C93	C	-0.153180	0.746311	0.074672
C94	C	-0.173798	0.741984	0.018792
C95	C	0.577065	0.737671	-0.037093
C96	C	0.624160	0.737664	-0.037096
C97	C	0.443727	0.722029	-0.239432
C98	C	0.445569	0.716712	-0.308106
C99	C	0.431000	0.958976	-0.048202
C100	C	0.428522	1.034077	-0.051975
C101	C	0.417546	0.797577	-0.384221
C102	C	0.419283	0.792575	-0.448745
C103	C	0.449040	0.706709	-0.437152
C104	C	0.477066	0.625838	-0.361029
C105	C	0.475332	0.630840	-0.296507
C106	C	0.457327	0.682809	-0.625421
C107	C	0.459058	0.677813	-0.689951
C108	C	0.401276	0.844551	-0.777663
C109	C	0.399542	0.849546	-0.713135
C110	C	0.427570	0.768675	-0.637018
N111	N	0.450815	0.701595	-0.503105
N112	N	0.425798	0.773790	-0.571067
C113	C	0.432877	0.753361	0.165260
C114	C	0.431036	0.758678	0.233934
C115	C	0.584367	0.516390	-0.025977
C116	C	0.633940	0.441281	-0.022206
C117	C	0.440179	0.532079	0.176376
C118	C	0.440816	0.462295	0.248823
C119	C	0.578941	0.532056	0.176369
C120	C	0.626673	0.462264	0.248814
C121	C	0.297663	0.943334	-0.250541
C122	C	0.249931	1.013126	-0.322986
C123	C	0.292238	0.959000	-0.048196
C124	C	0.242665	1.034108	-0.051966
C125	C	0.436426	0.943310	-0.250548
C126	C	0.435789	1.013094	-0.322995
C127	C	0.631183	0.402954	-0.059953
C128	C	0.677758	0.332390	-0.056426
C129	C	0.727089	0.300150	-0.015147
C130	C	0.729844	0.338484	0.022600
C131	C	0.683270	0.409051	0.019068
C132	C	0.467151	0.432579	0.322362
C133	C	0.467747	0.367020	0.390440
C134	C	0.442011	0.331173	0.384976
C135	C	0.415671	0.360896	0.311429
C136	C	0.415073	0.426459	0.243353
C137	C	0.677249	0.426425	0.243321
C138	C	0.722102	0.360858	0.311384
C139	C	0.716378	0.331125	0.384939
C140	C	0.665797	0.366971	0.390429
C141	C	0.620945	0.432542	0.322367
C142	C	0.199355	1.048973	-0.317494
C143	C	0.154502	1.114562	-0.385558
C144	C	0.160225	1.144299	-0.459113
C145	C	0.210806	1.108449	-0.464603
C146	C	0.255658	1.042865	-0.396540
C147	C	0.245421	1.072442	-0.014226
C148	C	0.198846	1.143025	-0.017772
C149	C	0.149515	1.175267	-0.059053
C150	C	0.146760	1.136930	-0.096798
C151	C	0.193334	1.066354	-0.093256
C152	C	0.461531	1.048920	-0.317507
C153	C	0.460943	1.114481	-0.385572
C154	C	0.434609	1.144219	-0.459125
C155	C	0.408866	1.108386	-0.464612
C156	C	0.409458	1.042822	-0.396547
H157	H	0.498774	-0.062426	0.054650
H158	H	0.685522	0.440249	0.049811
Br159	Br	0.202598	1.195037	0.033459
H160	H	-0.083690	0.725498	-0.194347
Br161	Br	0.685031	0.466767	0.143505
H162	H	-0.369007	0.729814	-0.138478
H163	H	0.111595	1.232735	-0.061931
H164	H	0.353620	0.271681	-0.165646
Br165	Br	0.539228	0.320018	0.116118
H166	H	-0.039670	0.749833	0.120199
Br167	Br	-0.080961	0.752192	0.150520
H168	H	0.763283	0.331678	0.306899
H169	H	0.106588	1.163193	-0.130409
H170	H	0.123699	1.197701	-0.514528
H171	H	0.481905	1.143650	-0.381089
H172	H	0.357838	0.143680	-0.159247
Br173	Br	-0.185238	0.752182	0.150519
Br174	Br	0.379330	0.466776	0.143553
Br175	Br	0.380745	0.312237	0.304028
Br176	Br	0.324296	0.994218	-0.404008
H177	H	0.752904	0.277732	0.440353
Br178	Br	0.363240	0.954298	-0.880965
Br179	Br	0.051792	0.752174	0.150545
H180	H	0.165332	0.745571	0.064303
H181	H	0.489197	0.342828	0.450318
H182	H	0.245607	0.745576	0.064302
H183	H	-0.163959	0.725488	-0.194342
Br184	Br	0.564240	0.446695	-0.115983
Br185	Br	0.159613	0.727502	-0.168805
Br186	Br	0.658039	0.326610	0.490261
H187	H	0.483289	0.607886	-0.680503
Br188	Br	-0.042410	0.723156	-0.224688
H189	H	0.393312	0.867499	-0.393670
Br190	Br	0.515007	0.053877	0.079309
Br191	Br	0.374513	0.994216	-0.404011
Br192	Br	0.189584	1.014333	-0.144476
Br193	Br	0.552309	0.481169	0.329836
H194	H	0.387426	1.132609	-0.524508
Br195	Br	0.191573	1.008629	-0.217678
H196	H	-0.288734	0.729825	-0.138484
Br197	Br	0.790293	0.204378	-0.010361
H198	H	0.434131	1.197607	-0.514541
Br199	Br	0.085863	1.163201	-0.378088
H200	H	0.382058	0.409818	-0.122432
H201	H	0.488110	0.461759	0.326826
H202	H	0.480150	0.616959	-0.563451
Br203	Br	0.218564	1.148813	-0.564434
Br204	Br	0.356110	0.587800	-0.161772
Br205	Br	0.674006	0.280378	-0.107658
H206	H	0.251059	0.729884	-0.138468
Br207	Br	0.544714	0.153716	0.124418
H208	H	0.049038	0.725519	-0.194348
Br209	Br	-0.387285	0.747876	0.094619
Br210	Br	-0.282996	0.747857	0.094639
Br211	Br	0.796798	0.294716	0.078622
Br212	Br	0.442828	0.242195	0.477374
H213	H	0.285584	1.046196	0.019395
H214	H	0.396465	0.858424	-0.510720
Br215	Br	0.497274	1.008577	-0.217693
H216	H	0.375312	0.919468	-0.722584
H217	H	0.501297	0.555923	-0.351594
H218	H	0.498150	0.564991	-0.234530
