data_functionalizedCrystal
_audit_creation_method	'MofGen! by Chris Wilmer'
_symmetry_space_group_name_H-M	'P1'
_symmetry_Int_Tables_number	1
_symmetry_cell_setting	triclinic
loop_
_symmetry_equiv_pos_as_xyz
  x,y,z
_cell_length_a	16.974885
_cell_length_b	12.811415
_cell_length_c	16.053802
_cell_angle_alpha	87.154093
_cell_angle_beta	91.069328
_cell_angle_gamma	84.066381
loop_
_atom_site_label
_atom_site_type_symbol
_atom_site_fract_x
_atom_site_fract_y
_atom_site_fract_z
O1	O	1.049988	0.133187	-0.008632
O2	O	1.549988	0.633187	0.491368
O3	O	0.820639	0.149171	-0.025326
O4	O	1.320639	0.649171	0.474674
O5	O	0.940535	-0.010866	-0.005111
O6	O	1.440535	0.489134	0.494889
O7	O	0.930091	0.293224	-0.028847
O8	O	1.430091	0.793224	0.471153
O9	O	0.933935	-0.002094	0.132638
O10	O	1.433935	0.497906	0.632638
O11	O	0.814039	0.157943	0.112423
O12	O	1.314039	0.657943	0.612423
O13	O	1.043388	0.141960	0.129117
O14	O	1.543388	0.641960	0.629117
Zn15	Zn	0.927666	0.151344	0.142640
Zn16	Zn	1.427666	0.651344	0.642640
Zn17	Zn	0.936361	0.139786	-0.038850
Zn18	Zn	1.436361	0.639786	0.461150
O19	O	0.923491	0.301997	0.108902
O20	O	1.423491	0.801997	0.608902
C21	C	0.787971	0.152788	0.041624
C22	C	1.287971	0.652788	0.541624
C23	C	0.700463	0.150482	0.035891
C24	C	1.200463	0.650482	0.535891
C25	C	0.936448	-0.045399	0.066656
C26	C	1.436448	0.454601	0.566656
C27	C	0.934092	-0.161365	0.075275
C28	C	1.434092	0.338635	0.575275
C29	C	0.208279	0.136950	-0.004495
C30	C	0.708279	0.636950	0.495505
C31	C	0.290502	0.139118	0.000903
C32	C	0.790502	0.639118	0.500903
C33	C	0.328006	0.144991	0.078689
C34	C	0.828006	0.644991	0.578689
C35	C	0.283286	0.148686	0.151083
C36	C	0.783286	0.648686	0.651083
C37	C	0.201066	0.146511	0.145684
C38	C	0.701066	0.646511	0.645684
C39	C	0.573522	0.152002	0.102886
C40	C	1.073522	0.652002	0.602886
C41	C	0.655748	0.154180	0.108279
C42	C	1.155748	0.654180	0.608279
C43	C	0.662958	0.144609	-0.041902
C44	C	1.162958	0.644609	0.458098
C45	C	0.580736	0.142441	-0.047293
C46	C	1.080736	0.642441	0.452707
C47	C	0.536022	0.146131	0.025100
C48	C	1.036022	0.646131	0.525100
N49	N	0.412051	0.147210	0.084208
N50	N	0.912051	0.647210	0.584208
N51	N	0.451981	0.143904	0.019581
N52	N	0.951981	0.643904	0.519581
C53	C	0.936847	-0.388831	-0.058722
C54	C	1.436847	0.111169	0.441278
C55	C	0.934634	-0.497792	-0.050628
C56	C	1.434634	0.002208	0.449372
C57	C	0.927447	-0.488249	0.099556
C58	C	1.427447	0.011751	0.599556
C59	C	0.929660	-0.379288	0.091462
C60	C	1.429660	0.120712	0.591462
C61	C	0.934361	-0.329583	0.012320
C62	C	1.434361	0.170417	0.512320
C63	C	0.936580	-0.220621	0.004228
C64	C	1.436580	0.279379	0.504228
C65	C	0.929388	-0.211079	0.154410
C66	C	1.429388	0.288921	0.654410
C67	C	0.927174	-0.320040	0.162504
C68	C	1.427174	0.179960	0.662504
C69	C	1.076056	0.138343	0.062165
C70	C	1.576056	0.638343	0.562165
C71	C	1.163564	0.140648	0.067893
C72	C	1.663564	0.640648	0.567893
C73	C	0.927579	0.336529	0.037133
C74	C	1.427579	0.836529	0.537133
C75	C	0.929935	0.452495	0.028509
C76	C	1.429935	0.952495	0.528509
N77	N	0.921737	0.159232	0.266503
N78	N	1.421737	0.659232	0.766503
N79	N	0.942296	0.131890	-0.162711
N80	N	1.442296	0.631890	0.337289
C81	C	0.972772	0.091160	0.318798
C82	C	1.472772	0.591160	0.818798
C83	C	0.968632	0.096688	0.405507
C84	C	1.468632	0.596688	0.905507
C85	C	0.913461	0.170292	0.439919
C86	C	1.413461	0.670292	0.939919
C87	C	0.862420	0.238367	0.387617
C88	C	1.362420	0.738367	0.887617
C89	C	0.866557	0.232834	0.300910
C90	C	1.366557	0.732834	0.800910
C91	C	0.895392	0.194432	0.698280
C92	C	1.395392	0.694432	1.198280
C93	C	0.891261	0.199962	0.784994
C94	C	1.391261	0.699962	1.284994
C95	C	0.997472	0.058281	0.802877
C96	C	1.497472	0.558281	1.302877
C97	C	1.001607	0.052758	0.716168
C98	C	1.501607	0.552758	1.216168
C99	C	0.950564	0.120829	0.663874
C100	C	1.450564	0.620829	1.163874
N101	N	0.909230	0.175946	0.528549
N102	N	1.409230	0.675946	1.028549
N103	N	0.954792	0.115170	0.575246
N104	N	1.454792	0.615170	1.075246
H105	H	0.177748	0.132175	-0.067838
H106	H	0.677748	0.632175	0.432162
H107	H	0.550205	0.137657	-0.110635
H108	H	1.050205	0.637657	0.389365
Cl109	Cl	0.330435	0.156068	0.248872
Cl110	Cl	0.830435	0.656068	0.748872
H111	H	0.936655	-0.546028	-0.108478
H112	H	1.436655	-0.046028	0.391522
H113	H	0.686281	0.158970	0.171624
H114	H	1.186281	0.658970	0.671624
Cl115	Cl	0.346712	0.134463	-0.090103
Cl116	Cl	0.846712	0.634463	0.409897
H117	H	0.923613	-0.528736	0.163988
H118	H	1.423613	-0.028736	0.663988
Cl119	Cl	0.831228	0.280009	0.632545
Cl120	Cl	1.331228	0.780009	1.132545
H121	H	0.537128	0.154991	0.161836
H122	H	1.037128	0.654991	0.661836
Cl123	Cl	0.793057	0.330895	0.430876
Cl124	Cl	1.293057	0.830895	0.930876
H125	H	0.164658	0.149534	0.204629
H126	H	0.664658	0.649534	0.704629
H127	H	0.940411	-0.180154	-0.060213
H128	H	1.440411	0.319846	0.439787
H129	H	0.940682	-0.348362	-0.123161
H130	H	1.440682	0.151638	0.376839
Cl131	Cl	1.061634	-0.027293	0.868621
Cl132	Cl	1.561634	0.472707	1.368621
Cl133	Cl	0.921258	-0.382535	0.261990
Cl134	Cl	1.421258	0.117465	0.761990
H135	H	1.017702	0.031228	0.290786
H136	H	1.517702	0.531228	0.790786
Cl137	Cl	1.032791	0.011109	0.471251
Cl138	Cl	1.532791	0.511109	0.971251
Cl139	Cl	0.821896	0.292505	0.828247
Cl140	Cl	1.321896	0.792505	1.328247
H141	H	0.824998	0.288264	0.258332
H142	H	1.324998	0.788264	0.758332
Cl143	Cl	0.926271	-0.136591	0.243726
Cl144	Cl	1.426271	0.363409	0.743726
H145	H	1.046532	-0.007176	0.688152
H146	H	1.546532	0.492824	1.188152
H147	H	0.699372	0.141603	-0.100840
H148	H	1.199372	0.641603	0.399160
