data_functionalizedCrystal
_audit_creation_method	'MofGen! by Chris Wilmer'
_symmetry_space_group_name_H-M	'P1'
_symmetry_Int_Tables_number	1
_symmetry_cell_setting	triclinic
loop_
_symmetry_equiv_pos_as_xyz
  x,y,z
_cell_length_a	21.295418
_cell_length_b	21.295417
_cell_length_c	21.295411
_cell_angle_alpha	89.978356
_cell_angle_beta	89.956262
_cell_angle_gamma	90.046319
loop_
_atom_site_label
_atom_site_type_symbol
_atom_site_fract_x
_atom_site_fract_y
_atom_site_fract_z
Zn1	Zn	0.962356	-0.250415	-0.356234
Zn2	Zn	0.962258	-0.355667	-0.250959
Zn3	Zn	0.857079	-0.250445	-0.250943
Zn4	Zn	0.857048	-0.355680	-0.356155
O5	O	0.909685	-0.303052	-0.303573
O6	O	1.050432	-0.264360	-0.342308
O7	O	0.948278	-0.341716	-0.162867
O8	O	0.871098	-0.162351	-0.264937
O9	O	1.050361	-0.341688	-0.264963
O10	O	0.948444	-0.162330	-0.342293
O11	O	0.871003	-0.264410	-0.162856
O12	O	0.768985	-0.264422	-0.264861
O13	O	0.871046	-0.341709	-0.444255
O14	O	0.768963	-0.341738	-0.342160
O15	O	0.948415	-0.264372	-0.444313
O16	O	0.948248	-0.443758	-0.264887
O17	O	0.870951	-0.443767	-0.342175
C18	C	0.746134	-0.303085	-0.303500
C19	C	0.676166	-0.303114	-0.303484
C20	C	0.909603	-0.466603	-0.303538
C21	C	0.909625	-0.536571	-0.303544
C22	C	0.643304	-0.343426	-0.343674
C23	C	0.577561	-0.343410	-0.343702
C24	C	0.544683	-0.303090	-0.303530
C25	C	0.577553	-0.262770	-0.263337
C26	C	0.643294	-0.262783	-0.263315
N27	N	0.441407	-0.298163	-0.248472
N28	N	0.378956	-0.298155	-0.248495
C29	C	0.346608	-0.303050	-0.303596
N30	N	0.379072	-0.307965	-0.358675
N31	N	0.441529	-0.307976	-0.358650
C32	C	0.473398	-0.303072	-0.303550
C33	C	0.242461	-0.343346	-0.343820
C34	C	0.176717	-0.343326	-0.343849
C35	C	0.176710	-0.262690	-0.263479
C36	C	0.242453	-0.262707	-0.263455
C37	C	0.275324	-0.303038	-0.303625
C38	C	0.949910	-0.569412	-0.263342
C39	C	0.949939	-0.635155	-0.263356
C40	C	0.909673	-0.668054	-0.303566
C41	C	0.869386	-0.635205	-0.343776
C42	C	0.869362	-0.569464	-0.343765
N43	N	0.854606	-0.771336	-0.308340
N44	N	0.854630	-0.833787	-0.308347
C45	C	0.909743	-0.866129	-0.303602
N46	N	0.964832	-0.833659	-0.298838
N47	N	0.964807	-0.771202	-0.298828
C48	C	0.909695	-0.739339	-0.303582
C49	C	0.950063	-0.970255	-0.263413
C50	C	0.950094	-1.035999	-0.263431
C51	C	0.869535	-1.036048	-0.343848
C52	C	0.869510	-0.970305	-0.343833
C53	C	0.909773	-0.937413	-0.303612
C54	C	1.073876	-0.303019	-0.303646
C55	C	1.143844	-0.303005	-0.303677
C56	C	0.909738	-0.303038	-0.467763
C57	C	0.909760	-0.303033	-0.537731
C58	C	0.909785	-0.138861	-0.303622
C59	C	0.909828	-0.068893	-0.303642
C60	C	0.950044	-0.262761	-0.570629
C61	C	0.950043	-0.262734	-0.636371
C62	C	0.909765	-0.302989	-0.669214
C63	C	0.869473	-0.343263	-0.636308
C64	C	0.869470	-0.343285	-0.570567
N65	N	0.904908	-0.358058	-0.772428
N66	N	0.904914	-0.358036	-0.834879
C67	C	0.909769	-0.302926	-0.867289
N68	N	0.914629	-0.247837	-0.834888
N69	N	0.914627	-0.247860	-0.772430
C70	C	0.909763	-0.302970	-0.740499
C71	C	0.950054	-0.262621	-0.971472
C72	C	0.950049	-0.262593	-1.037216
C73	C	0.869482	-0.343128	-1.037151
C74	C	0.869484	-0.343151	-0.971409
C75	C	0.909773	-0.302898	-0.938573
C76	C	0.909670	-0.303019	-0.140021
C77	C	0.909769	-0.302848	-0.070054
H78	H	0.670063	-0.376266	-0.376384
O79	O	0.989145	-0.938367	-0.224261
C80	C	1.019719	-0.918245	-0.117216
C81	C	0.975432	-0.954407	-0.161484
H82	H	1.008639	-0.931190	-0.066451
H83	H	1.070489	-0.931113	-0.128284
H84	H	1.012788	-0.865620	-0.124144
H85	H	0.982307	-1.007041	-0.154581
H86	H	0.924678	-0.941487	-0.150405
O87	O	0.830378	-0.382457	-0.668139
C88	C	0.799782	-0.489536	-0.688252
C89	C	0.844089	-0.445222	-0.652156
H90	H	0.810860	-0.540291	-0.675353
H91	H	0.749018	-0.478547	-0.675279
H92	H	0.806693	-0.482573	-0.740888
H93	H	0.837234	-0.452160	-0.599512
H94	H	0.894836	-0.456222	-0.665181
O95	O	0.830311	-0.938497	-0.382900
C96	C	0.750436	-0.945485	-0.462685
C97	C	0.794786	-0.981586	-0.418461
H98	H	0.721712	-0.980307	-0.491458
H99	H	0.717482	-0.914780	-0.433766
H100	H	0.779317	-0.914637	-0.495605
H101	H	0.765955	-1.012468	-0.385532
H102	H	0.827742	-1.012251	-0.447419
H103	H	0.982857	-0.229842	-0.944736
O104	O	0.274370	-0.382449	-0.382934
C105	C	0.294549	-0.413186	-0.489947
C106	C	0.258387	-0.368855	-0.445722
H107	H	0.281631	-0.402220	-0.540720
H108	H	0.347189	-0.406270	-0.483079
H109	H	0.281567	-0.463922	-0.478775
H110	H	0.271317	-0.318102	-0.456867
H111	H	0.205756	-0.375825	-0.452599
H112	H	0.550800	-0.376236	-0.376431
H113	H	0.982850	-0.229984	-0.543898
O114	O	0.545591	-0.223696	-0.224243
C115	C	0.471260	-0.215092	-0.139314
C116	C	0.507426	-0.259419	-0.183540
H117	H	0.440385	-0.243957	-0.106403
H118	H	0.506017	-0.186294	-0.110538
H119	H	0.440571	-0.182201	-0.168296
H120	H	0.538116	-0.292349	-0.154607
H121	H	0.472635	-0.288173	-0.212318
O122	O	0.830427	-0.382441	-0.538537
C123	C	0.821914	-0.467482	-0.464333
C124	C	0.866198	-0.423167	-0.500558
H125	H	0.850817	-0.500430	-0.433628
H126	H	0.789027	-0.438634	-0.433486
H127	H	0.793108	-0.496221	-0.499107
H128	H	0.895045	-0.394419	-0.465830
H129	H	0.899043	-0.452052	-0.531414
H130	H	0.670050	-0.229954	-0.230588
O131	O	0.989242	-0.223450	-1.069077
C132	C	1.069134	-0.143557	-1.062200
C133	C	1.024790	-0.187864	-1.026038
H134	H	1.097876	-0.114764	-1.027419
H135	H	1.102071	-0.172412	-1.092986
H136	H	1.040246	-0.110660	-1.092974
H137	H	1.053627	-0.220769	-0.995231
H138	H	0.991851	-0.158969	-0.995292
H139	H	0.149962	-0.376152	-0.376580
H140	H	0.836680	-0.375898	-1.063891
O141	O	0.830334	-0.382333	-0.939546
C142	C	0.750393	-0.462178	-0.946422
C143	C	0.794713	-0.417847	-0.982584
H144	H	0.721573	-0.490893	-0.981203
H145	H	0.779240	-0.495141	-0.915679
H146	H	0.717523	-0.433281	-0.915605
H147	H	0.827593	-0.446694	-1.013436
H148	H	0.765827	-0.384883	-1.013287
H149	H	0.149942	-0.229857	-0.230773
O150	O	0.989341	-1.067805	-0.224410
C151	C	1.096467	-1.087746	-0.194041
C152	C	1.052075	-1.051693	-0.238262
H153	H	1.147197	-1.074743	-0.205233
H154	H	1.085490	-1.074838	-0.143257
H155	H	1.089575	-1.140388	-0.200924
H156	H	1.058942	-0.999043	-0.231435
H157	H	1.063063	-1.064653	-0.289029
H158	H	0.269209	-0.229884	-0.230726
O159	O	0.989086	-0.537559	-0.224259
C160	C	1.068966	-0.544452	-0.144475
C161	C	1.024640	-0.580605	-0.188712
H162	H	1.097713	-0.579239	-0.115715
H163	H	1.101899	-0.513640	-0.173385
H164	H	1.040064	-0.513705	-0.111545
H165	H	1.053491	-0.611386	-0.221651
H166	H	0.991705	-0.611378	-0.159764
H167	H	0.836752	-1.062833	-0.376591
O168	O	0.989125	-0.667101	-0.224382
C169	C	1.074089	-0.741288	-0.215995
C170	C	1.029772	-0.705136	-0.260210
H171	H	1.106955	-0.772058	-0.244944
H172	H	1.102909	-0.706523	-0.187249
H173	H	1.045177	-0.772081	-0.183050
H174	H	1.058635	-0.674342	-0.293193
H175	H	1.000950	-0.739935	-0.288912
O176	O	0.989239	-0.223595	-0.668240
C177	C	1.069132	-0.143702	-0.661371
C178	C	1.024786	-0.188004	-0.625204
H179	H	1.097874	-0.114905	-0.626592
H180	H	1.102069	-0.172562	-0.692153
H181	H	1.040245	-0.110808	-0.692149
H182	H	1.053622	-0.220906	-0.594392
H183	H	0.991847	-0.159104	-0.594462
H184	H	0.836602	-0.661996	-0.376516
H185	H	0.836557	-0.542724	-0.376503
