data_functionalizedCrystal
_audit_creation_method	'MofGen! by Chris Wilmer'
_symmetry_space_group_name_H-M	'P1'
_symmetry_Int_Tables_number	1
_symmetry_cell_setting	triclinic
loop_
_symmetry_equiv_pos_as_xyz
  x,y,z
_cell_length_a	17.699103
_cell_length_b	19.188930
_cell_length_c	16.176319
_cell_angle_alpha	90.017585
_cell_angle_beta	89.998536
_cell_angle_gamma	83.217919
loop_
_atom_site_label
_atom_site_type_symbol
_atom_site_fract_x
_atom_site_fract_y
_atom_site_fract_z
O1	O	0.094478	0.926257	0.069021
O2	O	0.107198	0.722961	0.068966
O3	O	-0.009358	0.830346	0.068979
O4	O	0.211034	0.818873	0.069008
O5	O	-0.009336	0.830335	-0.068514
O6	O	0.107219	0.722951	-0.068527
O7	O	0.094499	0.926247	-0.068472
Cu8	Cu	0.100861	0.824598	-0.081054
Cu9	Cu	0.100836	0.824610	0.081548
O10	O	0.211055	0.818863	-0.068485
C11	C	0.106797	0.696945	0.000212
C12	C	0.105560	0.619439	0.000190
C13	C	-0.037543	0.829927	0.000230
C14	C	-0.121559	0.828687	0.000223
C15	C	-0.637272	0.821106	0.075223
C16	C	-0.558330	0.822270	0.075216
C17	C	-0.518861	0.822845	0.000263
C18	C	-0.558339	0.822263	-0.074687
C19	C	-0.637280	0.821104	-0.074679
C20	C	-0.239978	0.826940	-0.074720
C21	C	-0.161031	0.828098	-0.074722
C22	C	-0.161029	0.828107	0.075175
C23	C	-0.239970	0.826947	0.075182
C24	C	-0.279441	0.826369	0.000233
C25	C	-0.365039	0.825107	0.000241
C26	C	-0.433264	0.824102	0.000254
C27	C	0.173951	0.574596	0.000212
C28	C	0.172790	0.501771	0.000221
C29	C	0.103233	0.473791	0.000225
C30	C	0.034833	0.518644	0.000198
C31	C	0.035997	0.591468	0.000181
N32	N	0.050058	0.365752	0.047046
N33	N	0.048958	0.296572	0.047064
C34	C	0.099723	0.254379	0.000275
N35	N	0.151642	0.283977	-0.046523
N36	N	0.152745	0.353163	-0.046538
C37	C	0.101964	0.394827	0.000243
C38	C	0.166859	0.130570	0.000305
C39	C	0.165694	0.057744	0.000309
C40	C	0.027736	0.074619	0.000294
C41	C	0.028902	0.147444	0.000282
C42	C	0.098466	0.175414	0.000291
C43	C	0.239241	0.819281	0.000265
C44	C	0.323256	0.820521	0.000278
C45	C	0.094901	0.952264	0.000284
C46	C	0.096137	1.029770	0.000311
N47	N	0.100878	0.824595	-0.195419
C48	C	0.055028	0.782350	-0.760828
C49	C	0.055034	0.782348	-0.674280
C50	C	0.100830	0.824613	-0.630994
C51	C	0.146616	0.866887	-0.674260
C52	C	0.146606	0.866892	-0.760806
C53	C	0.146659	0.866870	-0.325232
C54	C	0.146668	0.866861	-0.238680
C55	C	0.055087	0.782327	-0.238707
C56	C	0.055077	0.782331	-0.325252
C57	C	0.100860	0.824608	-0.368510
C58	C	0.100852	0.824610	-0.462354
C59	C	0.100842	0.824608	-0.537152
N60	N	0.100813	0.824619	0.195913
H61	H	-0.669401	0.820631	0.136258
H62	H	-0.026789	0.183956	0.000269
C63	C	-0.041680	0.487870	0.000204
C64	C	-0.061438	0.440090	-0.071180
C65	C	-0.137954	0.409317	-0.071179
C66	C	-0.194712	0.426325	0.000206
C67	C	-0.174956	0.474107	0.071596
C68	C	-0.098440	0.504880	0.071594
H69	H	-0.019421	0.427498	-0.124028
H70	H	-0.152579	0.373946	-0.124026
H71	H	-0.251354	0.403545	0.000207
H72	H	-0.216973	0.486699	0.124444
H73	H	-0.083815	0.540252	0.124442
C74	C	-0.680704	0.820453	-0.157117
C75	C	-0.661068	0.759999	-0.218963
C76	C	-0.704493	0.759349	-0.301402
C77	C	-0.767555	0.819152	-0.321997
C78	C	-0.787195	0.879610	-0.260150
C79	C	-0.743769	0.880261	-0.177710
H80	H	-0.614382	0.715725	-0.203719
H81	H	-0.689954	0.714594	-0.347185
H82	H	-0.799701	0.818671	-0.383023
H83	H	-0.833880	0.923884	-0.275393
H84	H	-0.758308	0.925016	-0.131927
C85	C	0.196972	0.913386	-0.808397
C86	C	0.185605	0.993562	-0.796462
C87	C	0.235969	1.040059	-0.844053
C88	C	0.297701	1.006381	-0.903579
C89	C	0.309071	0.926201	-0.915517
C90	C	0.258706	0.879704	-0.867925
H91	H	0.139905	1.018496	-0.752395
H92	H	0.227552	1.099414	-0.835216
H93	H	0.334983	1.040801	-0.938809
H94	H	0.354770	0.901267	-0.959584
H95	H	0.267123	0.820349	-0.876763
H96	H	0.183962	0.901280	-0.203439
C97	C	-0.117610	0.828752	0.157623
C98	C	-0.119671	0.767990	0.219437
C99	C	-0.076255	0.768633	0.301884
C100	C	-0.030779	0.830038	0.322516
C101	C	-0.028716	0.890805	0.260700
C102	C	-0.072132	0.890161	0.178254
H103	H	-0.153337	0.722531	0.204166
H104	H	-0.077782	0.723650	0.347644
H105	H	0.001360	0.830514	0.383547
H106	H	0.004950	0.936264	0.275972
H107	H	-0.070605	0.935145	0.132494
C108	C	0.004654	0.735856	-0.808439
C109	C	-0.057094	0.769538	-0.867916
C110	C	-0.107471	0.723044	-0.915526
C111	C	-0.096100	0.642868	-0.903659
C112	C	-0.034350	0.609181	-0.844180
C113	C	0.016027	0.655675	-0.796570
H114	H	-0.065513	0.828894	-0.876703
H115	H	-0.153183	0.747982	-0.959557
H116	H	-0.133392	0.608450	-0.938903
H117	H	-0.025930	0.549826	-0.835393
H118	H	0.061739	0.630738	-0.752539
C119	C	0.250473	0.605358	0.000208
C120	C	0.307224	0.588345	-0.071182
C121	C	0.383746	0.619106	-0.071189
C122	C	0.403518	0.666881	0.000194
C123	C	0.346765	0.683897	0.071589
C124	C	0.270243	0.653135	0.071597
H125	H	0.292589	0.552977	-0.124029
H126	H	0.425758	0.606510	-0.124042
H127	H	0.460164	0.689653	0.000188
H128	H	0.361400	0.719265	0.124436
H129	H	0.228231	0.665732	0.124449
C130	C	0.004700	0.735841	-0.372866
C131	C	-0.045668	0.689347	-0.325282
C132	C	-0.096048	0.642858	-0.372894
C133	C	-0.096061	0.642862	-0.468091
C134	C	-0.045691	0.689357	-0.515680
C135	C	0.004690	0.735846	-0.468068
H136	H	-0.045660	0.689343	-0.254807
H137	H	-0.133335	0.608439	-0.337665
H138	H	-0.133355	0.608448	-0.503337
H139	H	-0.045698	0.689362	-0.586155
H140	H	0.041977	0.770265	-0.503297
H141	H	0.228484	0.465253	0.000236
H142	H	-0.019697	0.627980	0.000163
H143	H	0.017749	0.747931	-0.639062
C144	C	0.004717	0.735827	-0.191121
C145	C	-0.057024	0.769502	-0.131603
C146	C	-0.107391	0.723002	-0.084020
C147	C	-0.096017	0.642826	-0.095953
C148	C	-0.034274	0.609146	-0.155473
C149	C	0.016093	0.655647	-0.203057
H150	H	-0.065446	0.828856	-0.122767
H151	H	-0.153097	0.747934	-0.039959
H152	H	-0.133301	0.608404	-0.060729
H153	H	-0.025852	0.549792	-0.164310
H154	H	0.061800	0.630715	-0.247118
H155	H	-0.128897	0.828562	-0.135761
H156	H	0.223502	0.153345	0.000300
H157	H	0.183939	0.901294	-0.360442
C158	C	-0.514906	0.822909	0.157654
C159	C	-0.451842	0.763105	0.178237
C160	C	-0.408417	0.763744	0.260677
C161	C	-0.428056	0.824188	0.322535
C162	C	-0.491124	0.883997	0.301954
C163	C	-0.534549	0.883357	0.219513
H164	H	-0.437301	0.718357	0.132444
H165	H	-0.361730	0.719470	0.275913
H166	H	-0.395910	0.824661	0.383563
H167	H	-0.505665	0.928745	0.347746
H168	H	-0.581236	0.927632	0.204278
C169	C	-0.048780	0.043853	0.000297
C170	C	-0.068541	-0.003921	-0.071092
C171	C	-0.145059	-0.034690	-0.071093
C172	C	-0.201817	-0.017684	0.000293
C173	C	-0.182057	0.030092	0.071687
C174	C	-0.105538	0.060861	0.071688
H175	H	-0.026525	-0.016512	-0.123941
H176	H	-0.159687	-0.070057	-0.123944
H177	H	-0.258460	-0.040461	0.000292
H178	H	-0.224073	0.042683	0.124536
H179	H	-0.090911	0.096228	0.124539
H180	H	0.221389	0.021233	0.000322
C181	C	-0.283396	0.826341	-0.157163
C182	C	-0.239982	0.827001	-0.239606
C183	C	-0.283407	0.826423	-0.322053
C184	C	-0.370244	0.825184	-0.322057
C185	C	-0.413662	0.824524	-0.239610
C186	C	-0.370238	0.825103	-0.157163
H187	H	-0.175696	0.827918	-0.239606
H188	H	-0.251265	0.826911	-0.383085
H189	H	-0.402389	0.824756	-0.383089
H190	H	-0.477949	0.823607	-0.239610
H191	H	-0.402379	0.824614	-0.096131
C192	C	0.196992	0.913379	-0.626647
C193	C	0.160447	0.970304	-0.567114
C194	C	0.210827	1.016794	-0.519502
C195	C	0.297751	1.006360	-0.531422
C196	C	0.334300	0.949433	-0.590958
C197	C	0.283921	0.902943	-0.638570
H198	H	0.096097	0.978030	-0.558287
H199	H	0.183770	1.058936	-0.475430
H200	H	0.335044	1.040776	-0.496177
H201	H	0.398650	0.941707	-0.599784
H202	H	0.310978	0.860801	-0.682642
H203	H	-0.272101	0.826475	0.136216
H204	H	-0.526197	0.822736	-0.135715
