data_functionalizedCrystal
_audit_creation_method	'MofGen! by Chris Wilmer'
_symmetry_space_group_name_H-M	'P1'
_symmetry_Int_Tables_number	1
_symmetry_cell_setting	triclinic
loop_
_symmetry_equiv_pos_as_xyz
  x,y,z
_cell_length_a	15.995280
_cell_length_b	26.210047
_cell_length_c	15.995350
_cell_angle_alpha	90.006733
_cell_angle_beta	83.477986
_cell_angle_gamma	89.990244
loop_
_atom_site_label
_atom_site_type_symbol
_atom_site_fract_x
_atom_site_fract_y
_atom_site_fract_z
O1	O	-1.111029	0.042435	-0.107634
O2	O	-0.611029	0.542435	0.392366
O3	O	-0.867246	0.042434	-0.121023
O4	O	-0.367246	0.542434	0.378977
O5	O	-0.995801	0.042434	0.007561
O6	O	-0.495801	0.542434	0.507561
O7	O	-0.982474	0.042435	-0.236218
O8	O	-0.482474	0.542435	0.263782
O9	O	-0.995777	-0.042424	0.007541
O10	O	-0.495777	0.457576	0.507541
O11	O	-0.867221	-0.042424	-0.121043
O12	O	-0.367221	0.457576	0.378957
O13	O	-1.111004	-0.042423	-0.107654
O14	O	-0.611004	0.457577	0.392346
Cu15	Cu	-0.989110	-0.050172	-0.114350
Cu16	Cu	-0.489110	0.449828	0.385650
Cu17	Cu	-0.989140	0.050183	-0.114326
Cu18	Cu	-0.489140	0.550183	0.385674
O19	O	-0.982449	-0.042423	-0.236238
O20	O	-0.482449	0.457577	0.263762
C21	C	-0.836038	0.000005	-0.120490
C22	C	-0.336038	0.500005	0.379510
C23	C	-0.743084	0.000004	-0.118861
C24	C	-0.243084	0.500004	0.381139
C25	C	-0.405344	0.000012	-0.112875
C26	C	0.094656	0.500012	0.387125
C27	C	-0.428656	0.000201	-0.205678
C28	C	0.071344	0.500201	0.294322
C29	C	-0.525332	0.000007	-0.207438
C30	C	-0.025332	0.500007	0.292562
C31	C	-0.572901	0.000008	-0.115846
C32	C	-0.072901	0.500008	0.384154
C33	C	-0.543784	-0.048448	-0.069461
C34	C	-0.043784	0.451552	0.430539
C35	C	-0.446993	-0.048486	-0.068348
C36	C	0.053007	0.451514	0.431652
C37	C	-0.447166	0.048013	-0.066430
C38	C	0.052834	0.548013	0.433570
C39	C	-0.543659	0.048651	-0.069864
C40	C	-0.043659	0.548651	0.430136
C41	C	-0.667597	0.000005	-0.117519
C42	C	-0.167597	0.500005	0.382481
C43	C	-0.310647	0.000012	-0.111199
C44	C	0.189353	0.500012	0.388801
N45	N	-0.989096	-0.120756	-0.114366
N46	N	-0.489096	0.379244	0.385634
C47	C	-1.046058	-0.473270	-0.057402
C48	C	-0.546058	0.026730	0.442598
C49	C	-1.046077	-0.686928	-0.057391
C50	C	-0.546077	-0.186928	0.442609
O51	O	-1.094476	-0.714550	-0.008962
O52	O	-0.594476	-0.214550	0.491038
N53	N	-0.989144	-0.713650	-0.114308
N54	N	-0.489144	-0.213650	0.385692
C55	C	-0.932199	-0.686953	-0.171229
C56	C	-0.432199	-0.186953	0.328771
O57	O	-0.883769	-0.714584	-0.219634
O58	O	-0.383769	-0.214584	0.280366
C59	C	-0.932177	-0.473296	-0.171236
C60	C	-0.432177	0.026704	0.328764
C61	C	-0.989120	-0.446577	-0.114320
C62	C	-0.489120	0.053423	0.385680
C63	C	-1.102995	-0.446551	-0.000491
C64	C	-0.602995	0.053449	0.499509
C65	C	-1.102993	-0.393140	-0.000498
C66	C	-0.602993	0.106860	0.499502
C67	C	-1.046054	-0.366447	-0.057415
C68	C	-0.546054	0.133553	0.442585
C69	C	-0.989117	-0.393166	-0.114327
C70	C	-0.489117	0.106834	0.385673
C71	C	-0.875229	-0.446600	-0.228152
C72	C	-0.375229	0.053400	0.271848
C73	C	-0.875227	-0.393182	-0.228147
C74	C	-0.375227	0.106818	0.271853
C75	C	-0.932169	-0.366464	-0.171231
C76	C	-0.432169	0.133536	0.328769
C77	C	-0.932176	-0.313061	-0.171251
C78	C	-0.432176	0.186939	0.328749
N79	N	-0.989109	-0.286340	-0.114334
N80	N	-0.489109	0.213660	0.385666
C81	C	-1.046048	-0.313033	-0.057416
C82	C	-0.546048	0.186967	0.442584
C83	C	-0.932216	-0.799127	-0.171222
C84	C	-0.432216	-0.299127	0.328778
C85	C	-0.932222	-0.852541	-0.171222
C86	C	-0.432222	-0.352541	0.328778
C87	C	-1.046099	-0.852512	-0.057382
C88	C	-0.546099	-0.352512	0.442618
C89	C	-1.046096	-0.799097	-0.057388
C90	C	-0.546096	-0.299097	0.442612
C91	C	-0.989148	-0.772405	-0.114305
C92	C	-0.489148	-0.272405	0.385695
C93	C	-1.046040	-0.200865	-0.057435
C94	C	-0.546040	0.299135	0.442565
C95	C	-1.046035	-0.147449	-0.057448
C96	C	-0.546035	0.352551	0.442552
C97	C	-0.932155	-0.147482	-0.171284
C98	C	-0.432155	0.352518	0.328716
C99	C	-0.932163	-0.200893	-0.171274
C100	C	-0.432163	0.299107	0.328726
C101	C	-0.989108	-0.227584	-0.114342
C102	C	-0.489108	0.272416	0.385658
O103	O	-0.883796	-0.285406	-0.219649
O104	O	-0.383796	0.214594	0.280351
O105	O	-1.094458	-0.285393	-0.009005
O106	O	-0.594458	0.214607	0.490995
C107	C	-1.046061	-0.526681	-0.057396
C108	C	-0.546061	-0.026681	0.442604
C109	C	-0.989124	-0.553400	-0.114307
C110	C	-0.489124	-0.053400	0.385693
C111	C	-0.932185	-0.526707	-0.171225
C112	C	-0.432185	-0.026707	0.328775
C113	C	-0.989130	-0.606814	-0.114307
C114	C	-0.489130	-0.106814	0.385693
C115	C	-1.046069	-0.633507	-0.057389
C116	C	-0.546069	-0.133507	0.442611
C117	C	-1.103002	-0.606786	-0.000471
C118	C	-0.603002	-0.106786	0.499529
C119	C	-1.102999	-0.553374	-0.000478
C120	C	-0.602999	-0.053374	0.499522
C121	C	-0.875252	-0.553428	-0.228142
C122	C	-0.375252	-0.053428	0.271858
C123	C	-0.875260	-0.606840	-0.228132
C124	C	-0.375260	-0.106840	0.271868
C125	C	-0.932199	-0.633533	-0.171214
C126	C	-0.432199	-0.133533	0.328786
C127	C	-0.142211	0.000008	-0.108198
C128	C	0.357789	0.500008	0.391802
C129	C	-0.235160	0.000016	-0.109859
C130	C	0.264840	0.500016	0.390141
C131	C	-0.995238	0.000006	0.038746
C132	C	-0.495238	0.500006	0.538746
C133	C	-0.993586	0.000009	0.131696
C134	C	-0.493586	0.500009	0.631696
N135	N	-0.989161	0.120766	-0.114304
N136	N	-0.489161	0.620766	0.385696
C137	C	-0.983012	0.000006	-0.267422
C138	C	-0.483012	0.500006	0.232578
C139	C	-0.984664	0.000006	-0.360372
C140	C	-0.484664	0.500006	0.139628
C141	C	-0.987654	0.000007	0.469442
C142	C	-0.487654	0.500007	0.969442
C143	C	-0.896099	0.000197	0.421984
C144	C	-0.396099	0.500197	0.921984
C145	C	-0.897751	0.000006	0.325295
C146	C	-0.397751	0.500006	0.825295
C147	C	-0.990596	0.000008	0.301882
C148	C	-0.490596	0.500008	0.801882
C149	C	-1.035740	-0.048449	0.342959
C150	C	-0.535740	0.451551	0.842959
C151	C	-1.033440	-0.048489	0.439594
C152	C	-0.533440	0.451511	0.939594
C153	C	-1.035360	0.048010	0.439976
C154	C	-0.535360	0.548010	0.939976
C155	C	-1.035338	0.048650	0.343031
C156	C	-0.535338	0.548650	0.843031
C157	C	-0.992264	0.000007	0.207185
C158	C	-0.492264	0.500007	0.707185
C159	C	-0.985989	0.000005	0.564139
C160	C	-0.485989	0.500005	1.064139
H161	H	-1.092407	-0.125696	-0.011101
H162	H	-0.592407	0.374304	0.488899
H163	H	-0.885799	-0.125740	-0.217629
H164	H	-0.385799	0.374260	0.282371
Cl165	Cl	-0.553737	-0.053716	-0.263883
Cl166	Cl	-0.053737	0.446284	0.236117
Cl167	Cl	-0.803666	-0.519878	-0.299704
Cl168	Cl	-0.303666	-0.019878	0.200296
Cl169	Cl	-0.989153	0.104715	0.471676
Cl170	Cl	-0.489153	0.604715	0.971676
H171	H	-0.885863	-0.874291	-0.217576
H172	H	-0.385863	-0.374291	0.282424
H173	H	-0.862264	0.034741	0.296872
H174	H	-0.362264	0.534741	0.796872
Cl175	Cl	-1.117677	-0.886079	0.014172
Cl176	Cl	-0.617677	-0.386079	0.514172
Cl177	Cl	-1.174586	-0.519792	0.071078
Cl178	Cl	-0.674586	-0.019792	0.571078
Cl179	Cl	-0.860621	-0.765577	-0.242785
Cl180	Cl	-0.360621	-0.265577	0.257215
Cl181	Cl	-1.137215	-0.051889	0.489412
Cl182	Cl	-0.637215	0.448111	0.989412
Cl183	Cl	-1.141053	-0.051232	0.321178
Cl184	Cl	-0.641053	0.448768	0.821178
H185	H	-0.828862	-0.468347	-0.274497
H186	H	-0.328862	0.031653	0.225503
H187	H	-0.420166	-0.084709	-0.100491
H188	H	0.079834	0.415291	0.399509
Cl189	Cl	-1.117681	-0.765514	0.014168
Cl190	Cl	-0.617681	-0.265514	0.514168
Cl191	Cl	-1.174583	-0.640352	0.071080
Cl192	Cl	-0.674583	-0.140352	0.571080
H193	H	-0.859658	-0.034359	0.441561
H194	H	-0.359658	0.465641	0.941561
H195	H	-0.828851	-0.371452	-0.274495
H196	H	-0.328851	0.128548	0.225505
Cl197	Cl	-0.860585	-0.234481	-0.242836
Cl198	Cl	-0.360585	0.265519	0.257164
H199	H	-0.828892	-0.628591	-0.274487
H200	H	-0.328892	-0.128591	0.225513
Cl201	Cl	-0.839611	0.053848	0.450592
Cl202	Cl	-0.339611	0.553848	0.950592
H203	H	-1.004365	-0.084511	0.314561
H204	H	-0.504365	0.415489	0.814561
Cl205	Cl	-0.572384	0.104000	-0.121979
Cl206	Cl	-0.072384	0.604000	0.378021
Cl207	Cl	-0.592976	-0.051229	0.034603
Cl208	Cl	-0.092976	0.448771	0.534603
H209	H	-0.862005	-0.034790	0.297413
H210	H	-0.362005	0.465210	0.797413
H211	H	-1.102863	0.048337	0.471754
H212	H	-0.602863	0.548337	0.971754
Cl213	Cl	-0.425567	0.048520	0.039036
Cl214	Cl	0.074433	0.548520	0.539036
H215	H	-1.103046	0.051578	0.327686
H216	H	-0.603046	0.551578	0.827686
Cl217	Cl	-0.594556	0.053170	0.033358
Cl218	Cl	-0.094556	0.553170	0.533358
H219	H	-1.000500	-0.084714	0.457879
H220	H	-0.500500	0.415286	0.957879
H221	H	-0.432442	-0.050686	-0.000304
H222	H	0.067558	0.449314	0.499696
Cl223	Cl	-0.984798	0.104005	0.300472
Cl224	Cl	-0.484798	0.604005	0.800472
H225	H	-0.544369	0.034744	-0.243761
H226	H	-0.044369	0.534744	0.256239
H227	H	-1.092409	-0.222590	-0.011074
H228	H	-0.592409	0.277410	0.488926
H229	H	-0.563833	-0.084510	-0.101689
H230	H	-0.063833	0.415490	0.398311
Cl231	Cl	-0.385448	0.053854	-0.260901
Cl232	Cl	0.114552	0.553854	0.239099
Cl233	Cl	-0.403460	0.104718	-0.111214
Cl234	Cl	0.096540	0.604718	0.388786
H235	H	-0.399627	-0.034354	-0.241260
H236	H	0.100373	0.465646	0.258740
H237	H	-1.149358	-0.371389	0.045850
H238	H	-0.649358	0.128611	0.545850
Cl239	Cl	-1.174585	-0.480099	0.071072
Cl240	Cl	-0.674585	0.019901	0.571072
