data_functionalizedCrystal
_audit_creation_method	'MofGen! by Chris Wilmer'
_symmetry_space_group_name_H-M	'P1'
_symmetry_Int_Tables_number	1
_symmetry_cell_setting	triclinic
loop_
_symmetry_equiv_pos_as_xyz
  x,y,z
_cell_length_a	15.995350
_cell_length_b	15.995292
_cell_length_c	14.472310
_cell_angle_alpha	89.985801
_cell_angle_beta	90.001162
_cell_angle_gamma	83.480495
loop_
_atom_site_label
_atom_site_type_symbol
_atom_site_fract_x
_atom_site_fract_y
_atom_site_fract_z
O1	O	0.107689	1.111027	-0.076861
O2	O	0.121067	0.867245	-0.076857
O3	O	-0.007511	0.995800	-0.076858
O4	O	0.236267	0.982472	-0.076860
O5	O	-0.007503	0.995767	0.076824
O6	O	0.121075	0.867212	0.076825
O7	O	0.107696	1.110994	0.076821
Cu8	Cu	0.114386	0.989100	0.090855
Cu9	Cu	0.114378	0.989139	-0.090892
O10	O	0.236275	0.982439	0.076822
C11	C	0.120527	0.836033	-0.000016
C12	C	0.118894	0.743080	-0.000014
C13	C	-0.038702	0.995232	-0.000019
C14	C	-0.131652	0.993580	-0.000024
C15	C	0.112893	0.405341	-0.000025
C16	C	0.205697	0.428654	-0.000368
C17	C	0.207461	0.525329	-0.000018
C18	C	0.115871	0.572897	-0.000020
C19	C	0.069477	0.543777	0.087737
C20	C	0.068360	0.446986	0.087807
C21	C	0.066457	0.447168	-0.086958
C22	C	0.069896	0.543661	-0.088114
C23	C	0.117549	0.667593	-0.000014
C24	C	0.111212	0.310646	-0.000024
C25	C	-0.469398	0.987648	-0.000021
C26	C	-0.421945	0.896094	-0.000364
C27	C	-0.325255	0.897746	-0.000018
C28	C	-0.301838	0.990591	-0.000023
C29	C	-0.342921	1.035730	0.087734
C30	C	-0.439556	1.033430	0.087808
C31	C	-0.439923	1.035359	-0.086958
C32	C	-0.342978	1.035337	-0.088117
C33	C	-0.207141	0.992259	-0.000021
C34	C	-0.564095	0.985983	-0.000017
C35	C	0.267466	0.983006	-0.000019
C36	C	0.360416	0.984658	-0.000020
C37	C	0.108237	1.142206	-0.000023
C38	C	0.109870	1.235159	-0.000030
N39	N	0.114392	0.989078	0.218686
N40	N	0.114365	0.989167	-0.218722
C41	C	0.114374	0.989138	0.592777
C42	C	0.182943	0.920120	0.553612
C43	C	0.183193	0.920279	0.446524
C44	C	0.114383	0.989108	0.407186
C45	C	0.133447	1.076475	0.446022
C46	C	0.133934	1.076087	0.553143
C47	C	0.026538	0.971568	0.553308
C48	C	0.027124	0.969564	0.446180
C49	C	0.114386	0.989096	0.302298
C50	C	0.114373	0.989155	0.697665
H51	H	0.243790	0.544369	-0.062928
H52	H	-0.457847	1.000486	0.153412
H53	H	-0.026291	1.016569	0.419406
H54	H	-0.471698	1.102861	-0.087551
Br55	Br	0.164325	0.812023	0.402759
Br56	Br	-0.278786	0.838156	0.105011
H57	H	0.171775	0.854968	0.579401
H58	H	0.003044	0.576632	-0.093416
Br59	Br	-0.454983	0.835174	0.103626
Br60	Br	0.052419	1.164125	0.403556
Br61	Br	0.240700	1.101893	0.594775
H62	H	-0.314530	1.004351	0.153044
Br63	Br	0.291846	0.938940	0.403789
H64	H	0.008203	0.909244	0.580376
Br65	Br	0.238995	1.102903	0.401292
H66	H	0.101701	0.563822	0.153047
H67	H	0.247758	0.931185	0.580521
Br68	Br	0.265000	0.380263	0.103932
H69	H	0.012657	0.905296	0.420799
Br70	Br	-0.047400	0.423854	-0.087947
Br71	Br	-0.042863	0.596877	0.093172
H72	H	-0.315725	1.002335	-0.153038
H73	H	0.103675	0.562245	-0.153037
H74	H	0.241465	0.400671	-0.063303
Br75	Br	0.268391	0.555989	0.105015
Br76	Br	-0.452820	0.835119	-0.105259
Br77	Br	-0.493333	1.145458	0.094450
Br78	Br	-0.319406	1.149419	0.093173
H79	H	-0.296829	0.862262	-0.062926
Br80	Br	0.053767	1.164172	0.596327
Br81	Br	0.121925	0.402260	0.197145
H82	H	-0.460460	1.005439	-0.153473
Br83	Br	-0.045045	0.422727	0.094507
H84	H	-0.327630	1.103045	-0.093420
H85	H	-0.024488	1.021900	0.578633
Br86	Br	0.114805	0.399988	-0.197823
