data_functionalizedCrystal
_audit_creation_method	'MofGen! by Chris Wilmer'
_symmetry_space_group_name_H-M	'P1'
_symmetry_Int_Tables_number	1
_symmetry_cell_setting	triclinic
loop_
_symmetry_equiv_pos_as_xyz
  x,y,z
_cell_length_a	9.130313
_cell_length_b	14.971486
_cell_length_c	14.971486
_cell_angle_alpha	96.385871
_cell_angle_beta	90.002238
_cell_angle_gamma	90.005941
loop_
_atom_site_label
_atom_site_type_symbol
_atom_site_fract_x
_atom_site_fract_y
_atom_site_fract_z
O1	O	0.121632	-1.186938	0.116560
O2	O	0.121672	-0.926538	0.130519
O3	O	0.121640	-1.063717	-0.006661
O4	O	0.121663	-1.049758	0.253739
O5	O	-0.121959	-1.063719	-0.006659
O6	O	-0.121927	-0.926539	0.130520
O7	O	-0.121967	-1.186940	0.116561
Cu8	Cu	-0.144190	-1.056740	0.123541
Cu9	Cu	0.143894	-1.056738	0.123539
O10	O	-0.121936	-1.049760	0.253741
C11	C	-0.000123	-0.893214	0.129895
C12	C	-0.000108	-0.793917	0.128024
N13	N	-0.346812	-1.056748	0.123541
N14	N	0.346517	-1.056737	0.123532
C15	C	0.423196	-1.002550	0.069083
C16	C	0.576533	-1.002558	0.069086
C17	C	0.576498	-1.110940	0.177992
C18	C	0.423164	-1.110937	0.177984
C19	C	0.423217	-0.939973	0.006210
C20	C	0.576554	-0.939981	0.006212
C21	C	-0.000159	-1.063094	-0.039985
C22	C	-0.000157	-1.061223	-0.139282
C23	C	-0.000170	-1.220263	0.117185
C24	C	-0.000175	-1.319561	0.119056
C25	C	-0.000103	-0.736692	0.208614
C26	C	-0.000125	-0.643392	0.206850
C27	C	-0.000141	-0.607320	0.124497
C28	C	-0.000151	-0.664552	0.043902
C29	C	-0.000139	-0.757850	0.045666
C30	C	-0.000171	-0.470090	0.040231
C31	C	-0.000180	-0.376786	0.038466
C32	C	-0.000157	-0.355632	0.201415
C33	C	-0.000145	-0.448930	0.203179
C34	C	-0.000152	-0.506156	0.122584
C35	C	-0.000171	-1.141812	-0.196507
C36	C	-0.000156	-1.140049	-0.289807
C37	C	-0.000138	-1.057696	-0.325879
C38	C	-0.000120	-0.977101	-0.268646
C39	C	-0.000124	-0.978865	-0.175349
C40	C	-0.000114	-0.973430	-0.463109
C41	C	-0.000112	-0.971665	-0.556413
C42	C	-0.000145	-1.134614	-0.577567
C43	C	-0.000150	-1.136378	-0.484269
C44	C	-0.000135	-1.055782	-0.427043
C45	C	-0.000134	-1.050384	0.287065
C46	C	-0.000126	-1.052254	0.386362
H47	H	0.638923	-1.155069	0.222325
C48	C	0.486316	-0.989200	-0.147068
C49	C	0.367028	-0.970609	-0.089205
H50	H	0.451623	-1.008117	-0.205970
H51	H	0.544120	-0.936564	-0.148017
H52	H	0.544090	-1.035541	-0.126466
H53	H	0.309259	-0.924263	-0.109803
H54	H	0.309200	-1.023252	-0.088259
H55	H	-0.000158	-0.309033	0.267039
H56	H	0.618186	-0.869239	0.028625
C57	C	0.473247	-0.788746	0.069969
C58	C	0.359017	-0.848692	0.044690
H59	H	0.433608	-0.732393	0.093723
H60	H	0.531785	-0.812130	0.114383
H61	H	0.531802	-0.781051	0.018939
H62	H	0.300468	-0.856393	0.095722
H63	H	0.300454	-0.825303	0.000273
C64	C	-0.000097	-0.706401	0.369503
C65	C	-0.000088	-0.776337	0.299141
H66	H	-0.000101	-0.730877	0.425391
H67	H	0.084842	-0.670445	0.365426
H68	H	-0.085056	-0.670460	0.365417
H69	H	0.084876	-0.812275	0.303223
H70	H	-0.085036	-0.812308	0.303219
H71	H	-0.000185	-0.635175	-0.023152
C72	C	0.125113	-0.526186	0.299390
C73	C	-0.000103	-0.580491	0.295438
H74	H	0.125120	-0.487352	0.354082
H75	H	0.210049	-0.563015	0.296685
H76	H	0.125075	-0.491352	0.250090
H77	H	-0.000060	-0.615330	0.344735
H78	H	-0.085061	-0.543658	0.298152
C79	C	0.125001	-0.366074	-0.100975
C80	C	-0.000208	-0.337130	-0.052055
H81	H	0.124976	-0.341594	-0.156861
H82	H	0.209942	-0.346430	-0.067793
H83	H	0.124985	-0.429829	-0.111460
H84	H	-0.000187	-0.273375	-0.041564
H85	H	-0.085171	-0.356769	-0.085244
H86	H	-0.000179	-0.516682	-0.025399
H87	H	-0.000098	-0.907800	-0.416517
C88	C	-0.000138	-0.769394	-0.115578
C89	C	-0.000131	-0.820756	-0.042920
H90	H	-0.000127	-0.808231	-0.170268
H91	H	-0.085086	-0.732577	-0.112879
H92	H	0.084811	-0.732552	-0.112870
H93	H	-0.085087	-0.857593	-0.045625
H94	H	0.084825	-0.857589	-0.045621
H95	H	0.624107	-0.968769	-0.061317
C96	C	-0.000177	-1.302702	-0.226798
C97	C	-0.000180	-1.232339	-0.156862
H98	H	-0.000169	-1.358589	-0.202322
H99	H	-0.085121	-1.298629	-0.262747
H100	H	0.084777	-1.298612	-0.262746
H101	H	-0.085140	-1.236425	-0.120917
H102	H	0.084772	-1.236414	-0.120897
C103	C	0.125071	-1.232607	-0.406981
C104	C	-0.000165	-1.228639	-0.352704
H105	H	0.125070	-1.287306	-0.445805
H106	H	0.125075	-1.183319	-0.441818
H107	H	0.210002	-1.229904	-0.370126
H108	H	-0.085097	-1.231336	-0.389558
H109	H	-0.000183	-1.277941	-0.317864
H110	H	-0.000175	-1.203437	-0.454903
C111	C	0.125094	-1.227178	-0.694738
C112	C	-0.000143	-1.223211	-0.640462
H113	H	0.125094	-1.281875	-0.733563
H114	H	0.125098	-1.177889	-0.729574
H115	H	0.210025	-1.224475	-0.657884
H116	H	-0.085075	-1.225908	-0.677316
H117	H	-0.000160	-1.272514	-0.605623
H118	H	-0.000118	-0.478296	0.270239
H119	H	-0.000121	-0.904606	-0.585780
C120	C	0.125122	-0.880590	-0.361297
C121	C	-0.000100	-0.886577	-0.308298
H122	H	0.125122	-0.824705	-0.385779
H123	H	0.210053	-0.884659	-0.325337
H124	H	0.125097	-0.928340	-0.408728
H125	H	-0.000070	-0.838831	-0.260863
H126	H	-0.085054	-0.882499	-0.344260
C127	C	-0.000107	-0.909217	-0.022934
C128	C	-0.000109	-0.890279	-0.112442
H129	H	-0.000083	-0.854525	0.015900
H130	H	-0.085058	-0.942973	-0.011997
H131	H	0.084840	-0.942985	-0.012000
H132	H	-0.085061	-0.856517	-0.123378
H133	H	0.084851	-0.856509	-0.123383
H134	H	0.360738	-1.155070	0.222312
