data_functionalizedCrystal
_audit_creation_method	'MofGen! by Chris Wilmer'
_symmetry_space_group_name_H-M	'P1'
_symmetry_Int_Tables_number	1
_symmetry_cell_setting	triclinic
loop_
_symmetry_equiv_pos_as_xyz
  x,y,z
_cell_length_a	12.594516
_cell_length_b	13.897449
_cell_length_c	13.897441
_cell_angle_alpha	90.020722
_cell_angle_beta	89.974595
_cell_angle_gamma	89.984114
loop_
_atom_site_label
_atom_site_type_symbol
_atom_site_fract_x
_atom_site_fract_y
_atom_site_fract_z
Zn1	Zn	-0.423723	-1.474693	-0.545464
Zn2	Zn	-0.601731	-1.474598	-0.384177
Zn3	Zn	-0.423766	-1.313388	-0.384177
Zn4	Zn	-0.601659	-1.313369	-0.545424
O5	O	-0.512720	-1.394012	-0.464811
O6	O	-0.447348	-1.609662	-0.524086
O7	O	-0.578171	-1.453181	-0.249196
O8	O	-0.274815	-1.334834	-0.405588
O9	O	-0.578130	-1.609592	-0.405590
O10	O	-0.274783	-1.453344	-0.524085
O11	O	-0.447422	-1.334742	-0.249195
O12	O	-0.447352	-1.178404	-0.405549
O13	O	-0.578008	-1.334800	-0.680411
O14	O	-0.578050	-1.178390	-0.524017
O15	O	-0.447279	-1.453325	-0.680441
O16	O	-0.750667	-1.453162	-0.405551
O17	O	-0.750615	-1.334708	-0.524018
C18	C	-0.512699	-1.143398	-0.464779
C19	C	-0.512715	-1.036184	-0.464789
C20	C	-0.512714	-0.839889	-0.464807
C21	C	-0.512711	-0.949121	-0.464794
C22	C	-0.789261	-1.393949	-0.464801
C23	C	-0.907566	-1.394010	-0.464829
C24	C	-0.976830	-1.329576	-0.529218
C25	C	-1.047694	-1.306076	-0.441201
C26	C	-1.047501	-1.417598	-0.552862
C27	C	-0.976872	-1.370463	-0.376765
C28	C	-0.976674	-1.482026	-0.488486
C29	C	-1.047506	-1.458559	-0.400407
C30	C	-0.235099	-1.394102	-0.464841
C31	C	-0.116794	-1.394140	-0.464854
C32	C	-0.512631	-1.394071	-0.716404
C33	C	-0.512592	-1.394096	-0.823618
C34	C	-0.512735	-0.645605	-0.464833
C35	C	-0.512723	-0.752819	-0.464819
C36	C	-0.512562	-1.394116	-0.910688
C37	C	-0.512514	-1.394144	-1.019920
C38	C	-0.512732	-1.394009	-0.214196
C39	C	-0.512470	-1.394170	-0.106983
H40	H	-1.078912	-1.231703	-0.421212
H41	H	-0.945796	-1.274990	-0.583591
H42	H	-1.078526	-1.437496	-0.627301
H43	H	-0.945975	-1.350479	-0.302306
C44	C	-1.089177	-1.532240	-0.326777
C45	C	-1.059441	-1.639272	-0.336720
C46	C	-1.101116	-1.712945	-0.263085
C47	C	-1.172527	-1.679587	-0.179507
C48	C	-1.202267	-1.572550	-0.169561
C49	C	-1.160592	-1.498877	-0.243196
H50	H	-1.006575	-1.663970	-0.398592
H51	H	-1.079100	-1.792180	-0.270448
H52	H	-1.203377	-1.734124	-0.124998
H53	H	-1.255133	-1.547852	-0.107688
H54	H	-1.182608	-1.419642	-0.235833
H55	H	-0.945458	-1.556382	-0.508517
