data_functionalizedCrystal
_audit_creation_method	'MofGen! by Chris Wilmer'
_symmetry_space_group_name_H-M	'P1'
_symmetry_Int_Tables_number	1
_symmetry_cell_setting	triclinic
loop_
_symmetry_equiv_pos_as_xyz
  x,y,z
_cell_length_a	19.288859
_cell_length_b	19.288865
_cell_length_c	17.766277
_cell_angle_alpha	90.013390
_cell_angle_beta	89.997830
_cell_angle_gamma	96.865014
loop_
_atom_site_label
_atom_site_type_symbol
_atom_site_fract_x
_atom_site_fract_y
_atom_site_fract_z
O1	O	0.921347	-0.086631	-0.062618
O2	O	1.421347	0.413369	0.437382
O3	O	0.719086	-0.098324	-0.062617
O4	O	1.219086	0.401676	0.437383
O5	O	0.826061	0.008653	-0.062602
O6	O	1.326061	0.508653	0.437398
O7	O	0.814372	-0.193608	-0.062632
O8	O	1.314372	0.306392	0.437368
O9	O	0.826059	0.008664	0.062586
O10	O	1.326059	0.508664	0.562586
O11	O	0.719084	-0.098313	0.062571
O12	O	1.219084	0.401687	0.562571
O13	O	0.921345	-0.086620	0.062571
O14	O	1.421345	0.413380	0.562571
Cu15	Cu	0.820215	-0.092466	0.074002
Cu16	Cu	1.320215	0.407534	0.574002
Cu17	Cu	0.820217	-0.092479	-0.074048
Cu18	Cu	1.320217	0.407521	0.425952
O19	O	0.814370	-0.193597	0.062556
O20	O	1.314370	0.306403	0.562556
C21	C	0.693209	-0.097943	-0.000022
C22	C	1.193209	0.402057	0.499978
C23	C	0.616105	-0.096816	-0.000022
C24	C	1.116105	0.403184	0.499978
C25	C	0.052064	-0.151959	-0.000031
C26	C	0.552064	0.348041	0.499969
C27	C	0.124511	-0.153025	-0.000035
C28	C	0.624511	0.346975	0.499965
C29	C	0.169217	-0.090255	-0.000024
C30	C	0.669217	0.409745	0.499976
C31	C	0.141472	-0.026416	-0.000029
C32	C	0.641472	0.473584	0.499971
C33	C	0.069027	-0.025353	-0.000032
C34	C	0.569027	0.474647	0.499968
C35	C	0.290487	-0.043438	0.043845
C36	C	0.790487	0.456562	0.543845
C37	C	0.362931	-0.044505	0.043853
C38	C	0.862931	0.455495	0.543853
C39	C	0.392663	-0.093533	-0.000017
C40	C	0.892663	0.406467	0.499983
C41	C	0.349942	-0.141507	-0.043885
C42	C	0.849942	0.358493	0.456115
C43	C	0.277496	-0.140443	-0.043888
C44	C	0.777496	0.359557	0.456112
C45	C	0.247773	-0.091401	-0.000021
C46	C	0.747773	0.408599	0.499979
C47	C	0.498955	-0.158523	-0.000022
C48	C	0.998955	0.341477	0.499978
C49	C	0.571403	-0.159586	-0.000031
C50	C	1.071403	0.340414	0.499969
C51	C	0.588364	-0.032976	-0.000017
C52	C	1.088364	0.467024	0.499983
C53	C	0.515917	-0.031915	-0.000016
C54	C	1.015917	0.468085	0.499984
C55	C	0.471216	-0.094691	-0.000015
C56	C	0.971216	0.405309	0.499985
C57	C	0.825684	0.034535	-0.000006
C58	C	1.325684	0.534535	0.499994
C59	C	0.824555	0.111638	0.000001
C60	C	1.324555	0.611638	0.500001
C61	C	0.947223	-0.087001	-0.000025
C62	C	1.447223	0.412999	0.499975
C63	C	1.024327	-0.088128	-0.000031
C64	C	1.524327	0.411872	0.499969
N65	N	0.820219	-0.092483	-0.178178
N66	N	1.320219	0.407517	0.321822
C67	C	0.814747	-0.219479	-0.000042
C68	C	1.314747	0.280521	0.499958
C69	C	0.815876	-0.296583	-0.000053
C70	C	1.315876	0.203417	0.499947
C71	C	0.887323	0.156336	0.000004
C72	C	1.387323	0.656336	0.500004
C73	C	0.886262	0.228783	-0.000008
C74	C	1.386262	0.728783	0.499992
C75	C	0.822430	0.256529	-0.000008
C76	C	1.322430	0.756529	0.499992
C77	C	0.759654	0.211822	-0.000016
C78	C	1.259654	0.711822	0.499984
C79	C	0.760716	0.139376	-0.000011
C80	C	1.260716	0.639376	0.499989
C81	C	0.772250	0.364819	0.043843
C82	C	1.272250	0.864819	0.543843
C83	C	0.771190	0.437264	0.043843
C84	C	1.271190	0.937264	0.543843
C85	C	0.819150	0.479975	-0.000025
C86	C	1.319150	0.979975	0.499975
C87	C	0.868183	0.450234	-0.043883
C88	C	1.368183	0.950234	0.456117
C89	C	0.869245	0.377788	-0.043879
C90	C	1.369245	0.877788	0.456121
C91	C	0.821271	0.335083	-0.000013
C92	C	1.321271	0.835083	0.499987
C93	C	0.880773	0.603228	-0.000035
C94	C	1.380773	1.103228	0.499965
C95	C	0.879709	0.675676	-0.000052
C96	C	1.379709	1.175676	0.499948
C97	C	0.753099	0.658713	-0.000052
C98	C	1.253099	1.158713	0.499948
C99	C	0.754164	0.586267	-0.000043
C100	C	1.254164	1.086267	0.499957
C101	C	0.818003	0.558529	-0.000031
C102	C	1.318003	1.058529	0.499969
C103	C	0.867680	-0.045192	-0.782461
C104	C	1.367680	0.454808	-0.282461
C105	C	0.867678	-0.045190	-0.703659
C106	C	1.367678	0.454810	-0.203659
C107	C	0.820221	-0.092466	-0.664267
C108	C	1.320221	0.407534	-0.164267
C109	C	0.772751	-0.139734	-0.703684
C110	C	1.272751	0.360266	-0.203684
C111	C	0.772749	-0.139729	-0.782484
C112	C	1.272749	0.360271	-0.282484
C113	C	0.810793	-0.155753	-0.539444
C114	C	1.310793	0.344247	-0.039444
C115	C	0.810799	-0.155759	-0.460645
C116	C	1.310799	0.344241	0.039355
C117	C	0.820221	-0.092480	-0.421221
C118	C	1.320221	0.407520	0.078779
C119	C	0.829652	-0.029193	-0.460605
C120	C	1.329652	0.470807	0.039395
C121	C	0.829651	-0.029188	-0.539405
C122	C	1.329651	0.470812	-0.039405
C123	C	0.820217	-0.092476	-0.578821
C124	C	1.320217	0.407524	-0.078821
C125	C	0.867683	-0.045210	-0.296368
C126	C	1.367683	0.454790	0.203632
C127	C	0.867677	-0.045208	-0.217565
C128	C	1.367677	0.454792	0.282435
C129	C	0.772753	-0.139757	-0.217591
C130	C	1.272753	0.360243	0.282409
C131	C	0.772757	-0.139754	-0.296393
C132	C	1.272757	0.360246	0.203607
C133	C	0.820225	-0.092481	-0.335776
C134	C	1.320225	0.407519	0.164224
N135	N	0.820218	-0.092456	0.178132
N136	N	1.320218	0.407544	0.678132
H137	H	0.046445	0.026628	-0.000033
H138	H	0.546445	0.526628	0.499967
Cl139	Cl	0.930878	0.340401	-0.099018
Cl140	Cl	1.430878	0.840401	0.400982
Cl141	Cl	0.442757	-0.237440	-0.000024
Cl142	Cl	0.942757	0.262560	0.499976
Cl143	Cl	0.681801	0.083181	-0.000015
Cl144	Cl	1.181801	0.583181	0.499985
Cl145	Cl	0.416629	0.015799	0.099007
Cl146	Cl	0.916629	0.515799	0.599007
H147	H	0.734110	-0.178225	-0.671607
H148	H	1.234110	0.321775	-0.171607
Cl149	Cl	0.927343	0.014220	-0.168021
Cl150	Cl	1.427343	0.514220	0.331979
Cl151	Cl	0.197674	0.052494	-0.000019
Cl152	Cl	0.697674	0.552494	0.499981
Cl153	Cl	0.713088	-0.199184	-0.168076
Cl154	Cl	1.213088	0.300816	0.331924
H155	H	0.803124	-0.207291	-0.428585
H156	H	1.303124	0.292709	0.071415
H157	H	0.015673	-0.203077	-0.000034
H158	H	0.515673	0.296923	0.499966
H159	H	0.803108	-0.207286	-0.571537
H160	H	1.303108	0.292714	-0.071537
H161	H	0.734100	-0.178218	-0.814570
H162	H	1.234100	0.321782	-0.314570
Cl163	Cl	0.253122	0.018238	0.098956
Cl164	Cl	0.753122	0.518238	0.598956
Cl165	Cl	0.961025	0.568354	-0.000016
Cl166	Cl	1.461025	1.068354	0.499984
Cl167	Cl	0.159389	-0.233275	-0.000032
Cl168	Cl	0.659389	0.266725	0.499968
Cl169	Cl	0.223793	-0.200746	-0.099039
Cl170	Cl	0.723793	0.299254	0.400961
H171	H	0.374147	-0.181432	-0.079606
H172	H	0.874147	0.318568	0.420394
Cl173	Cl	0.967577	0.121469	-0.000002
Cl174	Cl	1.467577	0.621469	0.499998
H175	H	0.593984	-0.211567	-0.000037
H176	H	1.093984	0.288433	0.499963
H177	H	0.906330	-0.006698	-0.814525
H178	H	1.406330	0.493302	-0.314525
H179	H	0.624763	0.018132	-0.000014
H180	H	1.124763	0.518132	0.499986
H181	H	0.493333	0.020063	-0.000012
H182	H	0.993333	0.520063	0.499988
H183	H	0.734112	-0.178244	-0.328480
H184	H	1.234112	0.321756	0.171520
H185	H	0.937377	0.265183	-0.000008
H186	H	1.437377	0.765183	0.499992
H187	H	0.907236	0.485008	-0.079606
H188	H	1.407236	0.985008	0.420394
Cl189	Cl	0.927349	0.014233	-0.654110
Cl190	Cl	1.427349	0.514233	-0.154110
Cl191	Cl	0.672851	0.693587	-0.000057
Cl192	Cl	1.172851	1.193587	0.499943
Cl193	Cl	0.958626	0.731869	-0.000052
Cl194	Cl	1.458626	1.231869	0.499948
Cl195	Cl	0.841498	0.050369	-0.588914
Cl196	Cl	1.341498	0.550369	-0.088914
H197	H	0.703051	0.549873	-0.000042
H198	H	1.203051	1.049873	0.499958
H199	H	0.837325	0.022335	-0.428508
H200	H	1.337325	0.522335	0.071492
Cl201	Cl	0.709553	0.474645	0.098982
Cl202	Cl	1.209553	0.974645	0.598982
H203	H	0.733193	0.330049	0.079570
H204	H	1.233193	0.830049	0.579570
H205	H	0.707681	0.234417	-0.000018
H206	H	1.207681	0.734417	0.499982
Cl207	Cl	0.927353	0.014221	-0.345882
Cl208	Cl	1.427353	0.514221	0.154118
