data_functionalizedCrystal
_audit_creation_method	'MofGen! by Chris Wilmer'
_symmetry_space_group_name_H-M	'P1'
_symmetry_Int_Tables_number	1
_symmetry_cell_setting	triclinic
loop_
_symmetry_equiv_pos_as_xyz
  x,y,z
_cell_length_a	10.540539
_cell_length_b	8.559649
_cell_length_c	7.088929
_cell_angle_alpha	84.674985
_cell_angle_beta	83.715612
_cell_angle_gamma	102.847922
loop_
_atom_site_label
_atom_site_type_symbol
_atom_site_fract_x
_atom_site_fract_y
_atom_site_fract_z
O1	O	-0.028386	-2.103404	-0.158958
O2	O	0.037097	-1.638947	-0.158965
O3	O	-0.181461	-1.881772	-0.158959
O4	O	0.190172	-1.860579	-0.158964
O5	O	-0.210727	-1.914223	0.159017
O6	O	0.007830	-1.671397	0.159011
O7	O	-0.057653	-2.135855	0.159018
Cu8	Cu	-0.027584	-1.906589	0.188048
Cu9	Cu	0.007028	-1.868213	-0.187995
O10	O	0.160905	-1.893030	0.159012
C11	C	0.027426	-1.595699	0.000022
C12	C	0.042198	-1.418487	0.000019
C13	C	-0.243230	-1.896408	0.000025
C14	C	-0.383680	-1.891652	0.000015
C15	C	-0.047981	-2.179103	0.000027
C16	C	-0.062752	-2.356313	0.000017
C17	C	-0.547965	-1.709377	-0.000701
C18	C	-0.401917	-1.714270	0.000014
C19	C	-0.470987	-1.995547	0.181596
C20	C	-0.616912	-1.989509	0.181749
C21	C	-0.584526	-1.956214	-0.179849
C22	C	-0.437494	-1.957603	-0.182250
C23	C	0.222675	-1.878394	0.000023
C24	C	0.363125	-1.883148	0.000021
N25	N	-0.051929	-1.933593	0.452537
N26	N	0.031362	-1.841222	-0.452484
H27	H	-0.340301	-1.633817	-0.130150
C28	C	0.265658	-1.744083	0.485537
C29	C	0.147886	-1.711978	0.437303
H30	H	0.337595	-1.664296	0.417477
H31	H	0.267316	-1.742239	0.619016
H32	H	0.271943	-1.847480	0.452797
H33	H	0.141597	-1.608585	0.470056
H34	H	0.146227	-1.713806	0.303795
C35	C	-0.241592	-2.143943	0.432820
C36	C	-0.168460	-2.062844	0.562755
H37	H	-0.313527	-2.223740	0.500868
H38	H	-0.273530	-2.068981	0.354765
H39	H	-0.187318	-2.194132	0.354728
H40	H	-0.222732	-2.012646	0.640838
H41	H	-0.136522	-2.137819	0.640843
C42	C	-0.521301	-1.659084	-0.343280
C43	C	-0.560500	-1.596837	-0.176479
H44	H	-0.529056	-1.589610	-0.451798
H45	H	-0.432573	-1.666513	-0.345696
H46	H	-0.575707	-1.763338	-0.345479
H47	H	-0.506087	-1.492587	-0.174273
H48	H	-0.649243	-1.589389	-0.174062
C49	C	-0.725081	-1.622232	0.167790
C50	C	-0.594958	-1.633011	0.174105
H51	H	-0.754095	-1.575101	0.275719
H52	H	-0.730099	-1.557103	0.054101
H53	H	-0.779300	-1.727190	0.169300
H54	H	-0.540737	-1.528050	0.172581
H55	H	-0.589931	-1.698140	0.287824
H56	H	-0.365080	-1.659936	0.130394
C57	C	-0.293426	-1.374941	0.000005
C58	C	-0.199311	-1.467460	0.000013
H59	H	-0.377731	-1.443568	-0.000010
H60	H	-0.293406	-1.320586	0.110885
H61	H	-0.272978	-1.297939	-0.110886
H62	H	-0.219754	-1.544455	0.110913
H63	H	-0.199335	-1.521841	-0.110878
C64	C	0.261565	-1.320058	-0.163455
C65	C	0.178764	-1.307327	0.000006
H66	H	0.345870	-1.251424	-0.163465
H67	H	0.269213	-1.428550	-0.163432
H68	H	0.225773	-1.288807	-0.274327
H69	H	0.214551	-1.338590	0.110879
H70	H	0.171120	-1.198812	0.000001
H71	H	-0.651000	-1.940273	0.317483
H72	H	-0.678995	-2.117920	0.189989
H73	H	-0.462893	-2.126500	0.188350
C74	C	-0.500715	-2.027921	0.524847
C75	C	-0.421905	-1.934116	0.364022
H76	H	-0.470407	-1.989992	0.637462
H77	H	-0.589041	-2.020006	0.522959
H78	H	-0.496124	-2.137380	0.523203
H79	H	-0.426504	-1.824657	0.365658
H80	H	-0.333556	-1.942015	0.365911
H81	H	-0.377733	-1.881434	-0.316578
H82	H	-0.425804	-2.085809	-0.193212
H83	H	-0.597401	-1.884759	-0.317476
H84	H	-0.645054	-2.084212	-0.181068
