data_functionalizedCrystal
_audit_creation_method	'MofGen! by Chris Wilmer'
_symmetry_space_group_name_H-M	'P1'
_symmetry_Int_Tables_number	1
_symmetry_cell_setting	triclinic
loop_
_symmetry_equiv_pos_as_xyz
  x,y,z
_cell_length_a	10.686220
_cell_length_b	19.077068
_cell_length_c	19.077174
_cell_angle_alpha	85.342852
_cell_angle_beta	91.882865
_cell_angle_gamma	83.477335
loop_
_atom_site_label
_atom_site_type_symbol
_atom_site_fract_x
_atom_site_fract_y
_atom_site_fract_z
Zn1	Zn	1.937147	0.210211	-0.323598
Zn2	Zn	2.437147	0.710211	0.176402
Zn3	Zn	1.920694	0.324100	-0.211174
Zn4	Zn	2.420694	0.824100	0.288826
Zn5	Zn	1.717997	0.215279	-0.215485
Zn6	Zn	2.217997	0.715279	0.284515
Zn7	Zn	1.717913	0.337847	-0.338048
Zn8	Zn	2.217913	0.837847	0.161952
O9	O	1.823438	0.271859	-0.272076
O10	O	2.323438	0.771859	0.227924
O11	O	2.111543	0.217445	-0.300833
O12	O	2.611543	0.717445	0.199167
O13	O	1.886955	0.306032	-0.113403
O14	O	2.386955	0.806032	0.386597
O15	O	1.753989	0.115648	-0.225583
O16	O	2.253989	0.615648	0.274417
O17	O	2.099455	0.301119	-0.218236
O18	O	2.599455	0.801119	0.281764
O19	O	1.914997	0.111925	-0.305013
O20	O	2.414997	0.611925	0.194987
O21	O	1.738035	0.226082	-0.116570
O22	O	2.238035	0.726082	0.383430
O23	O	1.541407	0.239411	-0.239595
O24	O	2.041407	0.739411	0.260405
O25	O	1.753846	0.324548	-0.434474
O26	O	2.253846	0.824548	0.065526
O27	O	1.541345	0.329462	-0.329641
O28	O	2.041345	0.829462	0.170359
O29	O	1.914915	0.230774	-0.423858
O30	O	2.414915	0.730774	0.076142
O31	O	1.886874	0.424882	-0.232247
O32	O	2.386874	0.924882	0.267753
O33	O	1.737892	0.434981	-0.325461
O34	O	2.237892	0.934981	0.174539
C35	C	1.495591	0.286479	-0.286654
C36	C	1.995591	0.786479	0.213346
C37	C	1.355337	0.292751	-0.292908
C38	C	1.855337	0.792751	0.207092
C39	C	1.810623	0.455589	-0.279968
C40	C	2.310623	0.955589	0.220032
C41	C	1.805259	0.534186	-0.283363
C42	C	2.305259	1.034186	0.216637
C43	C	1.836206	0.278629	-0.455378
C44	C	2.336206	0.778629	0.044622
C45	C	1.841648	0.281514	-0.533491
C46	C	2.341648	0.781514	-0.033491
C47	C	2.152564	0.257183	-0.257442
C48	C	2.652564	0.757183	0.242558
C49	C	2.292818	0.250929	-0.251205
C50	C	2.792818	0.750929	0.248795
C51	C	1.836337	0.087410	-0.264167
C52	C	2.336337	0.587410	0.235833
C53	C	1.841834	0.008809	-0.260797
C54	C	2.341834	0.508809	0.239203
C55	C	1.880370	0.565827	-0.236461
C56	C	2.380370	1.065827	0.263539
C57	C	1.875332	0.639677	-0.239658
C58	C	2.375332	1.139677	0.260342
C59	C	1.795175	0.681884	-0.289754
C60	C	2.295175	1.181884	0.210246
C61	C	1.720060	0.650238	-0.336661
C62	C	2.220060	1.150238	0.163339
C63	C	1.725106	0.576389	-0.333467
C64	C	2.225106	1.076389	0.166533
C65	C	1.771766	0.903314	-0.304510
C66	C	2.271766	1.403314	0.195490
C67	C	1.766723	0.977168	-0.307699
C68	C	2.266723	1.477168	0.192301
C69	C	1.921997	0.966602	-0.210696
C70	C	2.421997	1.466602	0.289304
C71	C	1.927030	0.892753	-0.207504
C72	C	2.427030	1.392753	0.292496
C73	C	1.851920	0.861113	-0.254413
C74	C	2.351920	1.361113	0.245587
N75	N	1.790020	0.757370	-0.293021
N76	N	2.290020	1.257370	0.206979
N77	N	1.857083	0.785627	-0.251149
N78	N	2.357083	1.285627	0.248851
C79	C	1.766673	0.241244	-0.571836
C80	C	2.266673	0.741244	-0.071836
C81	C	1.771780	0.243961	-0.645232
C82	C	2.271780	0.743961	-0.145232
C83	C	1.851870	0.286945	-0.680279
C84	C	2.351870	0.786945	-0.180279
C85	C	1.926848	0.327219	-0.641929
C86	C	2.426848	0.827219	-0.141929
C87	C	1.921733	0.324506	-0.568535
C88	C	2.421733	0.824506	-0.068535
C89	C	1.875475	0.299527	-0.899606
C90	C	2.375475	0.799527	-0.399606
C91	C	1.880587	0.302236	-0.973005
C92	C	2.380587	0.802236	-0.473005
C93	C	1.725517	0.218979	-0.976303
C94	C	2.225517	0.718979	-0.476303
C95	C	1.720415	0.216266	-0.902907
C96	C	2.220415	0.716266	-0.402907
C97	C	1.795388	0.256543	-0.864563
C98	C	2.295388	0.756543	-0.364563
N99	N	1.857095	0.289721	-0.755301
N100	N	2.357095	0.789721	-0.255301
N101	N	1.790155	0.253770	-0.789543
N102	N	2.290155	0.753770	-0.289543
C103	C	1.810795	0.265061	-0.089482
C104	C	2.310795	0.765061	0.410518
C105	C	1.805612	0.261966	-0.011350
C106	C	2.305612	0.761966	0.488650
H107	H	1.301557	0.333361	-0.333395
H108	H	1.801557	0.833361	0.166605
C109	C	1.631886	0.696663	-0.391764
C110	C	2.131886	1.196663	0.108236
H111	H	1.639627	0.745177	-0.386944
H112	H	2.139627	1.245177	0.113056
H113	H	1.654398	0.685457	-0.437649
H114	H	2.154398	1.185457	0.062351
H115	H	1.547220	0.688003	-0.384682
H116	H	2.047220	1.188003	0.115318
H117	H	1.982795	0.357292	-0.537314
H118	H	2.482795	0.857292	-0.037314
C119	C	1.968546	0.519406	-0.181356
C120	C	2.468546	1.019406	0.318644
H121	H	2.012566	0.548830	-0.153886
H122	H	2.512566	1.048830	0.346114
H123	H	1.920158	0.491652	-0.151612
H124	H	2.420158	0.991652	0.348388
H125	H	2.027337	0.489104	-0.204579
H126	H	2.527337	0.989104	0.295421
H127	H	1.936495	0.665436	-0.201464
H128	H	2.436495	1.165436	0.298536
C129	C	1.365454	0.196072	-0.196512
C130	C	1.865454	0.696072	0.303488
H131	H	1.453354	0.198905	-0.199348
H132	H	1.953354	0.698905	0.300652
H133	H	1.339897	0.205552	-0.150668
H134	H	1.839897	0.705552	0.349332
H135	H	1.347943	0.149908	-0.205791
H136	H	1.847943	0.649908	0.294209
C137	C	1.689126	0.868520	-0.356097
C138	C	2.189126	1.368520	0.143903
H139	H	1.640652	0.904236	-0.386380
H140	H	2.140652	1.404236	0.113620
H141	H	1.741439	0.838653	-0.383352
H142	H	2.241439	1.338653	0.116648
H143	H	1.634273	0.841211	-0.330377
H144	H	2.134273	1.341211	0.169623
C145	C	1.632326	0.168978	-0.864359
C146	C	2.132326	0.668978	-0.364359
H147	H	1.588401	0.145385	-0.897709
H148	H	2.088401	0.645385	-0.397709
H149	H	1.680769	0.134959	-0.832264
H150	H	2.180769	0.634959	-0.332264
H151	H	1.573450	0.197420	-0.839329
H152	H	2.073450	0.697420	-0.339329
C153	C	2.015211	0.846330	-0.152402
C154	C	2.515211	1.346330	0.347598
H155	H	2.059233	0.875752	-0.124930
H156	H	2.559233	1.375752	0.375070
H157	H	1.966821	0.818576	-0.122660
H158	H	2.466821	1.318576	0.377340
H159	H	2.074001	0.816028	-0.175626
H160	H	2.574001	1.316028	0.324374
C161	C	1.968699	0.349514	-1.011556
C162	C	2.468699	0.849514	-0.511556
H163	H	2.012615	0.373115	-0.978209
H164	H	2.512615	0.873115	-0.478209
H165	H	2.027564	0.321062	-1.036577
H166	H	2.527564	0.821062	-0.536577
H167	H	1.920270	0.383537	-1.043659
H168	H	2.420270	0.883537	-0.543659
C169	C	2.004619	1.001408	-0.159106
C170	C	2.504619	1.501408	0.340894
H171	H	1.990145	1.051434	-0.168184
H172	H	2.490145	1.551434	0.331816
H173	H	1.983761	0.988411	-0.112175
H174	H	2.483761	1.488411	0.387825
H175	H	2.090940	0.985858	-0.165141
H176	H	2.590940	1.485858	0.334859
C177	C	1.678557	1.023595	-0.362812
C178	C	2.178557	1.523595	0.137188
H179	H	1.634557	0.994174	-0.390298
H180	H	2.134557	1.494174	0.109702
H181	H	1.619767	1.053899	-0.339599
H182	H	2.119767	1.553899	0.160401
H183	H	1.726970	1.051345	-0.392550
H184	H	2.226970	1.551345	0.107450
H185	H	1.663944	0.550627	-0.371660
H186	H	2.163944	1.050627	0.128340
C187	C	1.689315	0.199660	-0.687408
C188	C	2.189315	0.699660	-0.187408
H189	H	1.640898	0.173664	-0.656023
H190	H	2.140898	0.673664	-0.156023
H191	H	1.634433	0.230216	-0.719644
H192	H	2.134433	0.730216	-0.219644
H193	H	1.741748	0.167753	-0.712571
H194	H	2.241748	0.667753	-0.212571
C195	C	1.678562	0.193968	-0.533291
C196	C	2.178562	0.693968	-0.033291
H197	H	1.634631	0.170382	-0.566643
H198	H	2.134631	0.670382	-0.066643
H199	H	1.726978	0.159943	-0.501190
H200	H	2.226978	0.659943	-0.001190
H201	H	1.619693	0.222423	-0.508269
H202	H	2.119693	0.722423	-0.008269
C203	C	1.643039	0.174687	-1.018483
C204	C	2.143039	0.674687	-0.518483
H205	H	1.657543	0.182463	-1.067214
H206	H	2.157543	0.682463	-0.567214
H207	H	1.663981	0.125905	-1.003600
H208	H	2.163981	0.625905	-0.503600
H209	H	1.556692	0.188382	-1.010666
H210	H	2.056692	0.688382	-0.510666
C211	C	1.957962	0.343819	-0.857436
C212	C	2.457962	0.843819	-0.357436
H213	H	2.006404	0.369797	-0.888822
H214	H	2.506404	0.869797	-0.388822
H215	H	1.905556	0.375728	-0.832269
H216	H	2.405556	0.875728	-0.332269
H217	H	2.012842	0.313249	-0.825204
H218	H	2.512842	0.813249	-0.325204
H219	H	1.992052	0.362221	-0.670471
H220	H	2.492052	0.862221	-0.170471
