data_functionalizedCrystal
_audit_creation_method	'MofGen! by Chris Wilmer'
_symmetry_space_group_name_H-M	'P1'
_symmetry_Int_Tables_number	1
_symmetry_cell_setting	triclinic
loop_
_symmetry_equiv_pos_as_xyz
  x,y,z
_cell_length_a	27.732048
_cell_length_b	10.654562
_cell_length_c	9.730223
_cell_angle_alpha	89.996961
_cell_angle_beta	89.993758
_cell_angle_gamma	83.566379
loop_
_atom_site_label
_atom_site_type_symbol
_atom_site_fract_x
_atom_site_fract_y
_atom_site_fract_z
O1	O	0.067913	1.664970	-0.114397
O2	O	0.074374	1.299222	-0.114381
O3	O	0.000818	1.493455	-0.114363
O4	O	0.141469	1.470736	-0.114415
O5	O	0.000820	1.493453	0.114217
O6	O	0.074376	1.299219	0.114199
O7	O	0.067915	1.664968	0.114183
Zn8	Zn	0.071146	1.482093	0.150483
Zn9	Zn	0.071143	1.482096	-0.150681
O10	O	0.141471	1.470734	0.114165
C11	C	0.073900	1.252443	-0.000089
C12	C	0.072476	1.113060	-0.000082
C13	C	0.071813	1.047556	0.124506
C14	C	0.070480	0.916590	0.124484
C15	C	0.070474	0.916643	-0.124726
C16	C	0.071804	1.047608	-0.124702
C17	C	0.072485	1.113009	0.249127
C18	C	0.071823	1.047504	0.373726
C19	C	0.070490	0.916538	0.373703
C20	C	0.069818	0.851076	0.249082
C21	C	-0.017191	1.492977	-0.000070
C22	C	-0.070855	1.491541	-0.000058
C23	C	-0.409010	1.597280	-0.000133
C24	C	-0.610703	1.591952	-0.000152
O25	O	-0.641354	1.688642	-0.000216
N26	N	-0.630546	1.476779	-0.000146
C27	C	-0.599962	1.362931	-0.000144
O28	O	-0.621468	1.264848	-0.000154
C29	C	-0.398270	1.368260	-0.000135
C30	C	-0.378430	1.483440	-0.000127
C31	C	-0.389169	1.712450	-0.000127
C32	C	-0.338749	1.713781	-0.000115
C33	C	-0.308169	1.599941	-0.000109
C34	C	-0.328010	1.484771	-0.000115
C35	C	-0.367687	1.254413	-0.000143
C36	C	-0.317262	1.255756	-0.000144
C37	C	-0.297422	1.370936	-0.000136
C38	C	-0.247010	1.372262	-0.000097
N39	N	-0.227167	1.487434	-0.000103
C40	C	-0.257746	1.601274	-0.000109
C41	C	-0.705853	1.360141	-0.000146
C42	C	-0.756276	1.358808	-0.000146
C43	C	-0.767013	1.587830	-0.000157
C44	C	-0.716590	1.589161	-0.000147
C45	C	-0.686010	1.475313	-0.000152
C46	C	-0.151860	1.604060	-0.000082
C47	C	-0.101435	1.605381	-0.000064
C48	C	-0.090702	1.376360	-0.000061
C49	C	-0.141123	1.375039	-0.000072
C50	C	-0.171701	1.488899	-0.000087
O51	O	-0.216329	1.275623	-0.000048
O52	O	-0.236231	1.699343	-0.000130
C53	C	-0.459430	1.595949	-0.000146
C54	C	-0.479271	1.480779	-0.000152
C55	C	-0.448691	1.366939	-0.000146
C56	C	-0.529693	1.479446	-0.000152
C57	C	-0.560273	1.593286	-0.000158
C58	C	-0.540430	1.708458	-0.000164
C59	C	-0.490010	1.709789	-0.000152
C60	C	-0.468534	1.251767	-0.000140
C61	C	-0.518955	1.250445	-0.000150
C62	C	-0.549534	1.364285	-0.000156
C63	C	0.159480	1.471212	-0.000132
C64	C	0.213144	1.472648	-0.000152
C65	C	0.068390	1.711746	-0.000112
C66	C	0.069813	1.851129	-0.000128
N67	N	0.071147	1.482100	0.356019
N68	N	0.071138	1.482099	-0.356217
C69	C	0.038588	1.568128	0.427953
C70	C	0.038582	1.568125	0.571836
C71	C	0.103699	1.396062	0.571838
C72	C	0.103702	1.396060	0.427958
C73	C	0.006032	1.654169	0.356014
C74	C	-0.026530	1.740204	0.427948
C75	C	-0.026536	1.740201	0.571831
C76	C	0.006020	1.654162	0.643780
H77	H	-0.176751	1.696776	-0.000100
C78	C	-0.672222	1.234900	-0.000133
H79	H	-0.691266	1.166127	-0.000115
H80	H	-0.652323	1.230641	-0.079840
H81	H	-0.652334	1.230659	0.079592
C82	C	0.072560	1.119507	0.510797
H83	H	0.073454	1.206884	0.492969
H84	H	0.044208	1.108150	0.562006
H85	H	0.100482	1.087914	0.561972
H86	H	-0.053052	1.810247	0.630399
C87	C	0.069742	0.844636	-0.261795
H88	H	0.068860	0.757254	-0.243965
H89	H	0.041825	0.876215	-0.312985
H90	H	0.098100	0.855998	-0.312993
C91	C	-0.389500	1.127713	-0.000163
H92	H	-0.364060	1.060117	-0.000178
H93	H	-0.408952	1.122409	0.079541
H94	H	-0.408940	1.122436	-0.079891
H95	H	0.072346	1.100942	-0.226153
C96	C	0.006014	1.654150	0.802048
H97	H	0.030064	1.590587	0.834591
H98	H	0.012915	1.734273	0.834600
H99	H	-0.024944	1.637559	0.834593
H100	H	0.130215	1.326007	0.369389
H101	H	0.130206	1.326013	0.630429
C102	C	-0.079614	1.732083	-0.000064
H103	H	-0.105050	1.799688	-0.000084
H104	H	-0.060172	1.737370	0.079649
H105	H	-0.060163	1.737363	-0.079782
H106	H	0.006035	1.654181	0.238858
C107	C	-0.062336	1.834844	0.348811
H108	H	-0.057667	1.822537	0.252818
H109	H	-0.094646	1.821851	0.372386
H110	H	-0.056779	1.918543	0.372396
C111	C	0.073950	1.257067	0.249157
H112	H	0.074251	1.286670	0.341217
H113	H	0.102384	1.276592	0.203123
H114	H	0.046109	1.296816	0.203164
C115	C	-0.316931	1.840480	-0.000132
H116	H	-0.342370	1.908078	-0.000154
H117	H	-0.297487	1.845780	0.079574
H118	H	-0.297484	1.845757	-0.079858
H119	H	-0.473861	1.803580	-0.000146
H120	H	-0.414063	1.805158	-0.000137
H121	H	-0.443640	1.159062	-0.000138
H122	H	-0.700440	1.682951	-0.000142
H123	H	-0.791920	1.680522	-0.000161
H124	H	0.069947	0.863209	0.475157
C125	C	-0.778095	1.232111	-0.000143
H126	H	-0.752657	1.164510	-0.000154
H127	H	-0.797546	1.226818	0.079563
H128	H	-0.797536	1.226832	-0.079868
H129	H	-0.292366	1.163045	-0.000151
H130	H	-0.157277	1.281250	-0.000040
C131	C	-0.540773	1.123739	-0.000163
H132	H	-0.515335	1.056137	-0.000172
H133	H	-0.560227	1.118439	0.079536
H134	H	-0.560211	1.118466	-0.079895
H135	H	0.068732	0.744435	0.249074
H136	H	-0.065795	1.283675	-0.000051
H137	H	-0.565337	1.801150	-0.000163
