data_functionalizedCrystal
_audit_creation_method	'MofGen! by Chris Wilmer'
_symmetry_space_group_name_H-M	'P1'
_symmetry_Int_Tables_number	1
_symmetry_cell_setting	triclinic
loop_
_symmetry_equiv_pos_as_xyz
  x,y,z
_cell_length_a	12.759401
_cell_length_b	12.594516
_cell_length_c	12.759393
_cell_angle_alpha	90.030800
_cell_angle_beta	90.021162
_cell_angle_gamma	90.013548
loop_
_atom_site_label
_atom_site_type_symbol
_atom_site_fract_x
_atom_site_fract_y
_atom_site_fract_z
Zn1	Zn	1.606276	-0.423630	0.594062
Zn2	Zn	1.606180	-0.601649	0.418384
Zn3	Zn	1.430578	-0.423691	0.418393
Zn4	Zn	1.430576	-0.601572	0.594017
O5	O	1.518403	-0.512636	0.506214
O6	O	1.753285	-0.447252	0.570773
O7	O	1.582846	-0.578100	0.271364
O8	O	1.453927	-0.274737	0.441718
O9	O	1.753214	-0.578042	0.441703
O10	O	1.583011	-0.274692	0.570781
O11	O	1.453833	-0.447355	0.271371
O12	O	1.283557	-0.447280	0.441675
O13	O	1.453922	-0.577910	0.741044
O14	O	1.283555	-0.577969	0.570706
O15	O	1.583009	-0.447177	0.741077
O16	O	1.582844	-0.750585	0.441660
O17	O	1.453829	-0.750528	0.570697
C18	C	1.245435	-0.512624	0.506187
C19	C	1.128659	-0.512644	0.506200
C20	C	1.518354	-0.789177	0.506196
C21	C	1.518429	-0.907482	0.506223
C22	C	0.964098	-0.580797	0.573317
C23	C	1.073822	-0.580795	0.573288
C24	C	1.073765	-0.444498	0.439130
C25	C	0.964043	-0.444506	0.439154
C26	C	0.964132	-0.659483	0.650775
C27	C	1.073856	-0.659481	0.650746
C28	C	1.588682	-0.976727	0.436115
C29	C	1.614358	-1.047418	0.532008
C30	C	1.492885	-1.047590	0.410391
C31	C	1.544154	-0.976614	0.602167
C32	C	1.422637	-0.976780	0.480484
C33	C	1.448276	-1.047439	0.576444
C34	C	1.792436	-0.512648	0.506242
C35	C	1.909213	-0.512654	0.506254
C36	C	1.518476	-0.512528	0.780248
C37	C	1.518508	-0.512482	0.897024
C38	C	1.518480	-0.235015	0.506255
C39	C	1.518513	-0.116709	0.506273
C40	C	1.518390	-0.512666	0.233247
C41	C	1.518562	-0.512412	0.116471
C42	C	1.585732	-0.444403	0.951905
C43	C	1.585757	-0.444365	1.061629
C44	C	1.451330	-0.580494	1.061582
C45	C	1.451301	-0.580526	0.951860
C46	C	1.663346	-0.365813	0.951933
C47	C	1.663371	-0.365774	1.061657
H48	H	0.919359	-0.389030	0.384533
C49	C	1.436598	-0.723732	0.828433
C50	C	1.377394	-0.655352	0.891537
H51	H	1.390965	-0.769922	0.791190
H52	H	1.482359	-0.764440	0.871230
H53	H	1.476611	-0.683206	0.780070
H54	H	1.337387	-0.695878	0.939905
H55	H	1.331615	-0.614640	0.848737
C56	C	1.229367	-0.759818	0.613188
C57	C	1.119767	-0.765146	0.611227
H58	H	1.257709	-0.825047	0.588784
H59	H	1.252392	-0.747194	0.682889
H60	H	1.252328	-0.703609	0.569205
H61	H	1.096805	-0.821351	0.655217
H62	H	1.096732	-0.777783	0.541515
C63	C	1.273418	-0.632313	1.095338
C64	C	1.377463	-0.655289	1.121864
H65	H	1.227817	-0.678487	1.132558
H66	H	1.263788	-0.642083	1.022146
H67	H	1.258082	-0.560788	1.113338
H68	H	1.392802	-0.726811	1.103856
H69	H	1.387098	-0.645527	1.195072
C70	C	1.534018	-0.227407	0.948323
C71	C	1.633943	-0.254546	0.911747
H72	H	1.515865	-0.158721	0.923507
H73	H	1.534045	-0.227383	1.022764
H74	H	1.484375	-0.277705	0.923486
H75	H	1.683588	-0.204252	0.936591
H76	H	1.633924	-0.254561	0.837291
C77	C	1.797168	-1.053636	0.487894
C78	C	1.723761	-1.089321	0.561436
H79	H	1.864708	-1.079509	0.506054
H80	H	1.798088	-0.978228	0.487468
H81	H	1.778498	-1.078987	0.420284
H82	H	1.742427	-1.063963	0.629045
H83	H	1.722844	-1.164745	0.561872
H84	H	0.930150	-0.630048	0.728125
C85	C	0.814146	-0.770723	0.621218
C86	C	0.923888	-0.770731	0.621181
H87	H	0.789303	-0.839403	0.602954
H88	H	0.789319	-0.720391	0.571674
H89	H	0.789392	-0.752385	0.689058
H90	H	0.948642	-0.789061	0.553337
H91	H	0.948725	-0.821079	0.670726
C92	C	1.535248	-0.278690	1.169359
C93	C	1.624064	-0.260047	1.107619
H94	H	1.510973	-0.213419	1.197726
H95	H	1.552783	-0.325765	1.224788
H96	H	1.481745	-0.309514	1.127425
H97	H	1.677570	-0.229229	1.149555
H98	H	1.606532	-0.212954	1.052183
H99	H	1.740619	-0.395361	0.917901
C100	C	1.175123	-0.537577	0.754208
C101	C	1.114138	-0.629788	0.760625
H102	H	1.199994	-0.519249	0.822039
H103	H	1.133755	-0.481142	0.727278
H104	H	1.232990	-0.549811	0.708967
H105	H	1.056266	-0.617551	0.805861
H106	H	1.155507	-0.686235	0.787569
C107	C	1.799942	-0.496849	1.065296
C108	C	1.773208	-0.395581	1.101884
H109	H	1.867745	-0.515250	1.090140
H110	H	1.799933	-0.496872	0.990855
H111	H	1.750286	-0.547107	1.090098
H112	H	1.822861	-0.345322	1.077076
H113	H	1.773226	-0.395550	1.176340
C114	C	1.241937	-0.383969	0.379521
C115	C	1.134039	-0.369587	0.365383
H116	H	1.279143	-0.337714	0.333996
H117	H	1.259889	-0.455456	0.364018
H118	H	1.259955	-0.368472	0.450137
H119	H	1.116020	-0.385091	0.294769
H120	H	1.116079	-0.298083	0.380879
H121	H	1.648102	-0.945678	0.376880
H122	H	1.565714	-0.945571	0.683302
C123	C	1.314172	-0.823679	0.452262
C124	C	1.313260	-0.934847	0.451028
H125	H	1.246644	-0.797792	0.434075
H126	H	1.364212	-0.798421	0.403136
H127	H	1.332264	-0.799431	0.520421
H128	H	1.295176	-0.959095	0.382866
H129	H	1.263204	-0.960115	0.500156
C130	C	1.395167	-1.053074	0.756863
C131	C	1.368123	-1.089102	0.656596
H132	H	1.345690	-1.078803	0.806346
H133	H	1.395107	-0.977663	0.757674
H134	H	1.463041	-1.078339	0.774575
H135	H	1.300252	-1.063831	0.638882
H136	H	1.368173	-1.164530	0.655783
C137	C	1.537298	-1.053969	0.227655
C138	C	1.463661	-1.089670	0.300958
H139	H	1.519257	-1.079941	0.160095
H140	H	1.604886	-1.079199	0.246438
H141	H	1.537678	-0.978551	0.226708
H142	H	1.463287	-1.165089	0.301910
H143	H	1.396056	-1.064446	0.282170
