data_functionalizedCrystal
_audit_creation_method	'MofGen! by Chris Wilmer'
_symmetry_space_group_name_H-M	'P1'
_symmetry_Int_Tables_number	1
_symmetry_cell_setting	triclinic
loop_
_symmetry_equiv_pos_as_xyz
  x,y,z
_cell_length_a	12.594517
_cell_length_b	29.839131
_cell_length_c	29.839126
_cell_angle_alpha	89.975848
_cell_angle_beta	89.979777
_cell_angle_gamma	90.041220
loop_
_atom_site_label
_atom_site_type_symbol
_atom_site_fract_x
_atom_site_fract_y
_atom_site_fract_z
Zn1	Zn	1.627068	-0.178890	-0.254012
Zn2	Zn	2.127068	0.321110	0.245988
Zn3	Zn	1.626883	-0.254011	-0.178882
Zn4	Zn	2.126883	0.245989	0.321118
Zn5	Zn	1.449075	-0.178895	-0.178894
Zn6	Zn	1.949075	0.321105	0.321106
Zn7	Zn	1.448975	-0.253994	-0.253983
Zn8	Zn	1.948975	0.246006	0.246017
O9	O	1.538000	-0.216447	-0.216443
O10	O	2.038000	0.283553	0.283557
O11	O	1.775989	-0.188860	-0.244053
O12	O	2.275989	0.311140	0.255947
O13	O	1.603261	-0.244056	-0.116017
O14	O	2.103261	0.255944	0.383983
O15	O	1.472805	-0.116027	-0.188876
O16	O	1.972805	0.383973	0.311124
O17	O	1.775853	-0.244051	-0.188856
O18	O	2.275853	0.255949	0.311144
O19	O	1.603576	-0.116024	-0.244065
O20	O	2.103576	0.383976	0.255935
O21	O	1.472626	-0.188869	-0.116025
O22	O	1.972626	0.311131	0.383975
O23	O	1.300116	-0.188852	-0.188848
O24	O	1.800116	0.311148	0.311152
O25	O	1.472635	-0.244022	-0.316854
O26	O	1.972635	0.255978	0.183146
O27	O	1.300042	-0.244027	-0.244015
O28	O	1.800042	0.255973	0.255985
O29	O	1.603479	-0.188844	-0.316875
O30	O	2.103479	0.311156	0.183125
O31	O	1.603164	-0.316876	-0.188827
O32	O	2.103164	0.183124	0.311173
O33	O	1.472456	-0.316863	-0.244003
O34	O	1.972456	0.183137	0.255997
C35	C	1.261459	-0.216438	-0.216430
C36	C	1.761459	0.283562	0.283570
C37	C	1.143154	-0.216445	-0.216435
C38	C	1.643154	0.283555	0.283565
C39	C	1.537808	-0.333170	-0.216421
C40	C	2.037808	0.166830	0.283579
C41	C	1.537823	-0.383104	-0.216426
C42	C	2.037823	0.116896	0.283574
C43	C	1.073910	-0.186395	-0.186486
C44	C	1.573910	0.313605	0.313514
C45	C	1.003056	-0.227372	-0.175431
C46	C	1.503056	0.272628	0.324569
C47	C	1.003208	-0.175488	-0.227497
C48	C	1.503208	0.324512	0.272503
C49	C	1.073858	-0.257444	-0.205358
C50	C	1.573858	0.242556	0.294642
C51	C	1.074017	-0.205532	-0.257443
C52	C	1.574017	0.294468	0.242557
C53	C	1.003195	-0.246538	-0.246404
C54	C	1.503195	0.253462	0.253596
C55	C	1.606184	-0.692742	-0.187755
C56	C	2.106184	-0.192742	0.312245
C57	C	1.606315	-0.880415	-0.187772
C58	C	2.106315	-0.380415	0.312228
O59	O	1.664285	-0.904674	-0.163377
O60	O	2.164285	-0.404674	0.336623
N61	N	1.538221	-0.903889	-0.216477
N62	N	2.038221	-0.403889	0.283523
C63	C	1.470094	-0.880443	-0.245181
C64	C	1.970094	-0.380443	0.254819
O65	O	1.412186	-0.904716	-0.269600
O66	O	1.912186	-0.404716	0.230400
C67	C	1.469969	-0.692771	-0.245166
C68	C	1.969969	-0.192771	0.254834
C69	C	1.538060	-0.669299	-0.216456
C70	C	2.038060	-0.169299	0.283544
C71	C	1.674270	-0.669269	-0.159047
C72	C	2.174270	-0.169269	0.340953
C73	C	1.674233	-0.622354	-0.159042
C74	C	2.174233	-0.122354	0.340958
C75	C	1.606109	-0.598911	-0.187743
C76	C	2.106109	-0.098911	0.312257
C77	C	1.538022	-0.622383	-0.216450
C78	C	2.038022	-0.122383	0.283550
C79	C	1.401848	-0.669325	-0.273872
C80	C	1.901848	-0.169325	0.226128
C81	C	1.401824	-0.622404	-0.273867
C82	C	1.901824	-0.122404	0.226133
C83	C	1.469915	-0.598932	-0.245157
C84	C	1.969915	-0.098932	0.254843
C85	C	1.469860	-0.552025	-0.245146
C86	C	1.969860	-0.052025	0.254854
N87	N	1.537955	-0.528550	-0.216441
N88	N	2.037955	-0.028550	0.283559
C89	C	1.606079	-0.551993	-0.187740
C90	C	2.106079	-0.051993	0.312260
C91	C	1.470163	-0.978974	-0.245187
C92	C	1.970163	-0.478974	0.254813
C93	C	1.470193	-1.025891	-0.245190
C94	C	1.970193	-0.525891	0.254810
C95	C	1.606416	-1.025860	-0.187781
C96	C	2.106416	-0.525860	0.312219
C97	C	1.606380	-0.978941	-0.187776
C98	C	2.106380	-0.478941	0.312224
C99	C	1.538257	-0.955499	-0.216482
C100	C	2.038257	-0.455499	0.283518
C101	C	1.605994	-0.453467	-0.187729
C102	C	2.105994	0.046533	0.312271
C103	C	1.605947	-0.406547	-0.187725
C104	C	2.105947	0.093453	0.312275
C105	C	1.469729	-0.406583	-0.245135
C106	C	1.969729	0.093417	0.254865
C107	C	1.469771	-0.453499	-0.245138
C108	C	1.969771	0.046501	0.254862
C109	C	1.537912	-0.476939	-0.216434
C110	C	2.037912	0.023061	0.283566
O111	O	1.411929	-0.527736	-0.269531
O112	O	1.911929	-0.027736	0.230469
O113	O	1.663994	-0.527712	-0.163331
O114	O	2.163994	-0.027712	0.336669
C115	C	1.606221	-0.739657	-0.187760
C116	C	2.106221	-0.239657	0.312240
C117	C	1.538135	-0.763129	-0.216467
C118	C	2.038135	-0.263129	0.283533
C119	C	1.470011	-0.739686	-0.245169
C120	C	1.970011	-0.239686	0.254831
C121	C	1.538165	-0.810047	-0.216471
C122	C	2.038165	-0.310047	0.283529
C123	C	1.606289	-0.833490	-0.187770
C124	C	2.106289	-0.333490	0.312230
C125	C	1.674383	-0.810016	-0.159065
C126	C	2.174383	-0.310016	0.340935
C127	C	1.674345	-0.763100	-0.159059
C128	C	2.174345	-0.263100	0.340941
C129	C	1.401917	-0.763161	-0.273874
C130	C	1.901917	-0.263161	0.226126
C131	C	1.401959	-0.810077	-0.273877
C132	C	1.901959	-0.310077	0.226123
C133	C	1.470083	-0.833520	-0.245175
C134	C	1.970083	-0.333520	0.254825
C135	C	1.815621	-0.216457	-0.216456
C136	C	2.315621	0.283543	0.283544
C137	C	1.933926	-0.216461	-0.216462
C138	C	2.433926	0.283539	0.283538
C139	C	1.538066	-0.216430	-0.333621
C140	C	2.038066	0.283570	0.166379
C141	C	1.538094	-0.216423	-0.383556
C142	C	2.038094	0.283577	0.116444
C143	C	1.538222	-0.099269	-0.216475
C144	C	2.038222	0.400731	0.283525
C145	C	1.538317	-0.049335	-0.216489
C146	C	2.038317	0.450665	0.283511
C147	C	1.470094	-0.187642	-0.693207
C148	C	1.970094	0.312358	-0.193207
C149	C	1.470124	-0.187611	-0.880880
C150	C	1.970124	0.312389	-0.380880
O151	O	1.412254	-0.163185	-0.905151
O152	O	1.912254	0.336815	-0.405151
N153	N	1.538145	-0.216339	-0.904341
N154	N	2.038145	0.283661	-0.404341
C155	C	1.606158	-0.245078	-0.880881
C156	C	2.106158	0.254922	-0.380881
O157	O	1.664006	-0.269515	-0.905142
O158	O	2.164006	0.230485	-0.405142
C159	C	1.606121	-0.245111	-0.693209
C160	C	2.106121	0.254889	-0.193209
C161	C	1.538104	-0.216378	-0.669750
C162	C	2.038104	0.283622	-0.169750
C163	C	1.402081	-0.158912	-0.669748
C164	C	1.902081	0.341088	-0.169748
C165	C	1.402078	-0.158918	-0.622832
C166	C	1.902078	0.341082	-0.122832
C167	C	1.470088	-0.187655	-0.599376
C168	C	1.970088	0.312345	-0.099376
C169	C	1.538101	-0.216385	-0.622834
C170	C	2.038101	0.283615	-0.122834
C171	C	1.674128	-0.273853	-0.669750
C172	C	2.174128	0.226147	-0.169750
C173	C	1.674111	-0.273859	-0.622829
C174	C	2.174111	0.226141	-0.122829
C175	C	1.606094	-0.245127	-0.599370
C176	C	2.106094	0.254873	-0.099370
C177	C	1.606108	-0.245128	-0.552462
C178	C	2.106108	0.254872	-0.052462
N179	N	1.538088	-0.216400	-0.529001
N180	N	2.038088	0.283600	-0.029001
C181	C	1.470078	-0.187664	-0.552458
C182	C	1.970078	0.312336	-0.052458
C183	C	1.606173	-0.245058	-0.979412
C184	C	2.106173	0.254942	-0.479412
C185	C	1.606184	-0.245049	-1.026330
C186	C	2.106184	0.254951	-0.526330
C187	C	1.470149	-0.187583	-1.026325
C188	C	1.970149	0.312417	-0.526325
C189	C	1.470144	-0.187589	-0.979406
C190	C	1.970144	0.312411	-0.479406
C191	C	1.538153	-0.216330	-0.955950
C192	C	2.038153	0.283670	-0.455950
C193	C	1.470078	-0.187679	-0.453932
C194	C	1.970078	0.312321	0.046068
C195	C	1.470084	-0.187686	-0.407012
C196	C	1.970084	0.312314	0.092988
C197	C	1.606115	-0.245155	-0.407021
C198	C	2.106115	0.254845	0.092979
C199	C	1.606113	-0.245146	-0.453936
C200	C	2.106113	0.254854	0.046064
C201	C	1.538086	-0.216406	-0.477391
C202	C	2.038086	0.283594	0.022609
O203	O	1.663939	-0.269544	-0.528162
O204	O	2.163939	0.230456	-0.028162
O205	O	1.412221	-0.163237	-0.528188
O206	O	1.912221	0.336763	-0.028188
C207	C	1.470097	-0.187636	-0.740122
C208	C	1.970097	0.312364	-0.240122
C209	C	1.538109	-0.216366	-0.763581
C210	C	2.038109	0.283634	-0.263581
C211	C	1.606119	-0.245102	-0.740124
C212	C	2.106119	0.254898	-0.240124
C213	C	1.538120	-0.216357	-0.810499
C214	C	2.038120	0.283643	-0.310499
C215	C	1.470110	-0.187621	-0.833955
C216	C	1.970110	0.312379	-0.333955
C217	C	1.402089	-0.158893	-0.810494
C218	C	1.902089	0.341107	-0.310494
C219	C	1.402087	-0.158899	-0.763579
C220	C	1.902087	0.341101	-0.263579
C221	C	1.674140	-0.273830	-0.763585
C222	C	2.174140	0.226170	-0.263585
C223	C	1.674138	-0.273821	-0.810501
C224	C	2.174138	0.226179	-0.310501
C225	C	1.606128	-0.245084	-0.833958
C226	C	2.106128	0.254916	-0.333958
C227	C	1.537996	-0.216432	-0.099720
C228	C	2.037996	0.283568	0.400280
C229	C	1.538174	-0.216313	-0.049786
C230	C	2.038174	0.283687	0.450214
H231	H	1.104958	-0.161007	-0.161129
H232	H	1.604958	0.338993	0.338871
H233	H	1.729792	-0.743992	-0.135681
H234	H	2.229792	-0.243992	0.364319
H235	H	0.971889	-0.236612	-0.140763
H236	H	1.471889	0.263388	0.359237
H237	H	1.104764	-0.292098	-0.195975
H238	H	1.604764	0.207902	0.304025
H239	H	1.729500	-0.297262	-0.603733
H240	H	2.229500	0.202738	-0.103733
H241	H	1.346700	-0.135502	-0.744483
H242	H	1.846700	0.364498	-0.244483
H243	H	0.972117	-0.140849	-0.236827
H244	H	1.472117	0.359151	0.263173
H245	H	1.414759	-0.164192	-0.960309
H246	H	1.914759	0.335808	-0.460309
H247	H	1.414259	-0.387489	-0.268502
H248	H	1.914259	0.112511	0.231498
H249	H	0.972342	-0.271986	-0.271742
H250	H	1.472342	0.228014	0.228258
H251	H	1.346395	-0.688428	-0.297249
H252	H	1.846395	-0.188428	0.202751
H253	H	1.414329	-0.472611	-0.268517
H254	H	1.914329	0.027389	0.231483
H255	H	1.729849	-0.829111	-0.135694
H256	H	2.229849	-0.329111	0.364306
H257	H	1.105209	-0.196280	-0.292101
H258	H	1.605209	0.303720	0.207899
H259	H	1.661395	-0.387438	-0.164344
H260	H	2.161395	0.112562	0.335656
H261	H	1.346352	-0.603320	-0.297244
H262	H	1.846352	-0.103320	0.202756
H263	H	1.661885	-1.044955	-0.164412
H264	H	2.161885	-0.544955	0.335588
H265	H	1.661826	-0.959833	-0.164398
H266	H	2.161826	-0.459833	0.335602
H267	H	1.346717	-0.135493	-0.829601
H268	H	1.846717	0.364507	-0.329601
H269	H	1.661483	-0.472547	-0.164357
H270	H	2.161483	0.027453	0.335643
H271	H	1.729681	-0.603245	-0.135665
H272	H	2.229681	-0.103245	0.364335
H273	H	1.414736	-1.044999	-0.268564
H274	H	1.914736	-0.544999	0.231436
H275	H	1.729751	-0.688352	-0.135675
H276	H	2.229751	-0.188352	0.364325
H277	H	1.414687	-0.959890	-0.268563
H278	H	1.914687	-0.459890	0.231437
H279	H	1.346687	-0.135523	-0.603736
H280	H	1.846687	0.364477	-0.103736
H281	H	1.346502	-0.829184	-0.297255
H282	H	1.846502	-0.329184	0.202745
H283	H	1.414696	-0.164287	-0.387914
H284	H	1.914696	0.335713	0.112086
H285	H	1.346443	-0.744077	-0.297246
H286	H	1.846443	-0.244077	0.202754
H287	H	1.414684	-0.164276	-0.473023
H288	H	1.914684	0.335724	0.026977
H289	H	1.729536	-0.297218	-0.829597
H290	H	2.229536	0.202782	-0.329597
H291	H	1.346694	-0.135511	-0.688841
H292	H	1.846694	0.364489	-0.188841
H293	H	1.414775	-0.164183	-1.045431
H294	H	1.914775	0.335817	-0.545431
H295	H	1.661583	-0.268442	-1.045426
H296	H	2.161583	0.231558	-0.545426
H297	H	1.729519	-0.297233	-0.744492
H298	H	2.229519	0.202767	-0.244492
H299	H	1.661555	-0.268465	-0.960318
H300	H	2.161555	0.231535	-0.460318
H301	H	1.729515	-0.297251	-0.688842
H302	H	2.229515	0.202749	-0.188842
H303	H	1.661510	-0.268537	-0.473038
H304	H	2.161510	0.231463	0.026962
H305	H	1.661490	-0.268550	-0.387914
H306	H	2.161490	0.231450	0.112086
