data_functionalizedCrystal
_audit_creation_method	'MofGen! by Chris Wilmer'
_symmetry_space_group_name_H-M	'P1'
_symmetry_Int_Tables_number	1
_symmetry_cell_setting	triclinic
loop_
_symmetry_equiv_pos_as_xyz
  x,y,z
_cell_length_a	19.805407
_cell_length_b	13.897448
_cell_length_c	19.805399
_cell_angle_alpha	90.025019
_cell_angle_beta	90.019573
_cell_angle_gamma	90.017692
loop_
_atom_site_label
_atom_site_type_symbol
_atom_site_fract_x
_atom_site_fract_y
_atom_site_fract_z
Zn1	Zn	1.034777	-0.384037	0.382732
Zn2	Zn	1.534777	0.115963	0.882732
Zn3	Zn	1.034709	-0.545343	0.269549
Zn4	Zn	1.534709	-0.045343	0.769549
Zn5	Zn	0.921591	-0.384064	0.269556
Zn6	Zn	1.421591	0.115936	0.769556
Zn7	Zn	0.921572	-0.545292	0.382695
Zn8	Zn	1.421572	-0.045292	0.882695
O9	O	0.978162	-0.464684	0.326133
O10	O	1.478162	0.035316	0.826133
O11	O	1.129484	-0.405445	0.367730
O12	O	1.629484	0.094555	0.867730
O13	O	1.019683	-0.523982	0.174833
O14	O	1.519683	-0.023982	0.674833
O15	O	0.936642	-0.249079	0.284588
O16	O	1.436642	0.250921	0.784588
O17	O	1.129434	-0.523956	0.284575
O18	O	1.629434	-0.023956	0.784575
O19	O	1.019799	-0.249059	0.367737
O20	O	1.519799	0.250941	0.867737
O21	O	0.936576	-0.405490	0.174839
O22	O	1.436576	0.094510	0.674839
O23	O	0.826872	-0.405441	0.284552
O24	O	1.326872	0.094559	0.784552
O25	O	0.936609	-0.523869	0.477417
O26	O	1.436609	-0.023869	0.977417
O27	O	0.826858	-0.523894	0.367675
O28	O	1.326858	-0.023894	0.867675
O29	O	1.019780	-0.405395	0.477443
O30	O	1.519780	0.094605	0.977443
O31	O	1.019664	-0.680318	0.284539
O32	O	1.519664	-0.180318	0.784539
O33	O	0.936543	-0.680280	0.367668
O34	O	1.436543	-0.180280	0.867668
C35	C	0.802306	-0.464666	0.326111
C36	C	1.302306	0.035334	0.826111
C37	C	0.727074	-0.464681	0.326118
C38	C	1.227074	0.035319	0.826118
C39	C	0.691740	-0.526453	0.369330
C40	C	1.191740	-0.026453	0.869330
C41	C	0.621052	-0.526454	0.369339
C42	C	1.121052	-0.026454	0.869339
C43	C	0.585699	-0.464688	0.326133
C44	C	1.085699	0.035312	0.826133
C45	C	0.621037	-0.402910	0.282919
C46	C	1.121037	0.097090	0.782919
C47	C	0.691725	-0.402904	0.282913
C48	C	1.191725	0.097096	0.782913
C49	C	0.335964	-0.402931	0.282941
C50	C	0.835964	0.097069	0.782941
C51	C	0.265272	-0.402944	0.282949
C52	C	0.765272	0.097056	0.782949
C53	C	0.265292	-0.526481	0.369367
C54	C	0.765292	-0.026481	0.869367
C55	C	0.335979	-0.526476	0.369362
C56	C	0.835979	-0.026476	0.869362
C57	C	0.371311	-0.464694	0.326151
C58	C	0.871311	0.035306	0.826151
C59	C	0.447960	-0.464692	0.326142
C60	C	0.947960	0.035308	0.826142
C61	C	0.509051	-0.464695	0.326138
C62	C	1.009051	0.035305	0.826138
C63	C	0.978113	-0.715298	0.326113
C64	C	1.478113	-0.215298	0.826113
C65	C	0.978154	-0.822512	0.326128
C66	C	1.478154	-0.322512	0.826128
C67	C	0.978225	-1.018807	0.326170
C68	C	1.478225	-0.518807	0.826170
C69	C	0.978183	-0.909575	0.326149
C70	C	1.478183	-0.409575	0.826149
C71	C	1.154705	-0.464703	0.326155
C72	C	1.654705	0.035297	0.826155
C73	C	1.229937	-0.464711	0.326165
C74	C	1.729937	0.035289	0.826165
C75	C	0.978200	-0.464623	0.502676
C76	C	1.478200	0.035377	1.002676
C77	C	0.978216	-0.464597	0.577908
C78	C	1.478216	0.035403	1.077908
C79	C	0.978230	-0.213091	0.326167
C80	C	1.478230	0.286909	0.826167
C81	C	0.978259	-0.105877	0.326182
C82	C	1.478259	0.394123	0.826182
C83	C	0.978163	-0.464675	0.150277
C84	C	1.478163	0.035325	0.650277
C85	C	0.978278	-0.464429	0.075045
C86	C	1.478278	0.035571	0.575045
C87	C	1.021524	-0.402905	0.613267
C88	C	1.521524	0.097095	1.113267
C89	C	1.021531	-0.402877	0.683955
C90	C	1.521531	0.097123	1.183955
C91	C	0.978233	-0.464547	0.719283
C92	C	1.478233	0.035453	1.219283
C93	C	0.934920	-0.526242	0.683919
C94	C	1.434920	-0.026242	1.183919
C95	C	0.934910	-0.526264	0.613232
C96	C	1.434910	-0.026264	1.113232
C97	C	0.934958	-0.526152	0.968993
C98	C	1.434958	-0.026152	1.468993
C99	C	0.934973	-0.526127	1.039685
C100	C	1.434973	-0.026127	1.539685
C101	C	1.021579	-0.402765	1.039716
C102	C	1.521579	0.097235	1.539716
C103	C	1.021570	-0.402787	0.969029
C104	C	1.521570	0.097213	1.469029
C105	C	0.978255	-0.464478	0.933671
C106	C	1.478255	0.035522	1.433671
C107	C	0.978247	-0.464507	0.857022
C108	C	1.478247	0.035493	1.357022
C109	C	0.978244	-0.464524	0.795931
C110	C	1.478244	0.035476	1.295931
H111	H	0.592286	-0.576756	0.404526
H112	H	1.092286	-0.076756	0.904526
H113	H	1.056785	-0.352690	0.584508
H114	H	1.556785	0.147310	1.084508
C115	C	0.887343	-0.593963	1.078548
C116	C	1.387343	-0.093963	1.578548
H117	H	0.893561	-0.585121	1.125710
H118	H	1.393561	-0.085121	1.625710
H119	H	0.841867	-0.579845	1.066962
H120	H	1.341867	-0.079845	1.566962
H121	H	0.897232	-0.658782	1.066955
H122	H	1.397232	-0.158782	1.566955
C123	C	0.374864	-0.594414	0.416890
C124	C	0.874864	-0.094414	0.916890
H125	H	0.343696	-0.631198	0.442633
H126	H	0.843696	-0.131198	0.942633
H127	H	0.402423	-0.636392	0.390948
H128	H	0.902423	-0.136392	0.890948
H129	H	0.402455	-0.557558	0.446426
H130	H	0.902455	-0.057558	0.946426
C131	C	0.887292	-0.594079	0.722775
C132	C	1.387292	-0.094079	1.222775
H133	H	0.861493	-0.630818	0.691590
H134	H	1.361493	-0.130818	1.191590
H135	H	0.913176	-0.636102	0.750348
H136	H	1.413176	-0.136102	1.250348
H137	H	0.857812	-0.557163	0.750350
H138	H	1.357812	-0.057163	1.250350
H139	H	0.899699	-0.576398	0.940213
H140	H	1.399699	-0.076398	1.440213
H141	H	1.056799	-0.352644	0.712742
H142	H	1.556799	0.147356	1.212742
C143	C	0.226424	-0.594431	0.416906
C144	C	0.726424	-0.094431	0.916906
H145	H	0.179262	-0.585584	0.410730
H146	H	0.679262	-0.085584	0.910730
H147	H	0.237992	-0.659221	0.406920
H148	H	0.737992	-0.159221	0.906920
H149	H	0.238034	-0.580393	0.462401
H150	H	0.738034	-0.080393	0.962401
H151	H	1.056830	-0.352573	0.940268
H152	H	1.556830	0.147427	1.440268
C153	C	0.226381	-0.334990	0.235429
C154	C	0.726381	0.165010	0.735429
H155	H	0.179222	-0.343850	0.241618
H156	H	0.679222	0.156150	0.741618
H157	H	0.237979	-0.270199	0.245419
H158	H	0.737979	0.229801	0.745419
H159	H	0.237942	-0.349014	0.189928
H160	H	0.737942	0.150986	0.689928
C161	C	0.374821	-0.334991	0.235400
C162	C	0.874821	0.165009	0.735400
H163	H	0.343640	-0.298220	0.209662
H164	H	0.843640	0.201780	0.709662
H165	H	0.402418	-0.293003	0.261331
H166	H	0.902418	0.206997	0.761331
H167	H	0.402373	-0.371846	0.205860
H168	H	0.902373	0.128154	0.705860
C169	C	0.887288	-0.594149	0.574337
C170	C	1.387288	-0.094149	1.074337
H171	H	0.861511	-0.630887	0.605500
H172	H	1.361511	-0.130887	1.105500
H173	H	0.857799	-0.557276	0.546754
H174	H	1.357799	-0.057276	1.046754
H175	H	0.913183	-0.636186	0.546769
H176	H	1.413183	-0.136186	1.046769
C177	C	0.582151	-0.334972	0.235391
C178	C	1.082151	0.165028	0.735391
H179	H	0.534991	-0.343829	0.241577
H180	H	1.034991	0.156171	0.741577
H181	H	0.593748	-0.270178	0.245372
H182	H	1.093748	0.229822	0.745372
H183	H	0.593716	-0.349012	0.189894
H184	H	1.093716	0.150988	0.689894
C185	C	1.069221	-0.334899	1.078612
C186	C	1.569221	0.165101	1.578612
H187	H	1.063024	-0.343707	1.125770
H188	H	1.563024	0.156293	1.625770
H189	H	1.114692	-0.349028	1.067034
H190	H	1.614692	0.150972	1.567034
H191	H	1.059330	-0.270088	1.067032
H192	H	1.559330	0.229912	1.567032
C193	C	0.730595	-0.334958	0.235382
C194	C	1.230595	0.165042	0.735382
H195	H	0.777757	-0.343792	0.241571
H196	H	1.277757	0.156208	0.741571
H197	H	0.718991	-0.348985	0.189887
H198	H	1.218991	0.151015	0.689887
H199	H	0.719024	-0.270165	0.245375
H200	H	1.219024	0.229835	0.745375
C201	C	0.730623	-0.594395	0.416858
C202	C	1.230623	-0.094395	0.916858
H203	H	0.699453	-0.631176	0.442600
H204	H	1.199453	-0.131176	0.942600
H205	H	0.758181	-0.636374	0.390916
H206	H	1.258181	-0.136374	0.890916
H207	H	0.758215	-0.557541	0.446395
H208	H	1.258215	-0.057541	0.946395
