data_functionalizedCrystal
_audit_creation_method	'MofGen! by Chris Wilmer'
_symmetry_space_group_name_H-M	'P1'
_symmetry_Int_Tables_number	1
_symmetry_cell_setting	triclinic
loop_
_symmetry_equiv_pos_as_xyz
  x,y,z
_cell_length_a	11.792241
_cell_length_b	16.109301
_cell_length_c	15.186229
_cell_angle_alpha	89.998295
_cell_angle_beta	89.998567
_cell_angle_gamma	83.827448
loop_
_atom_site_label
_atom_site_type_symbol
_atom_site_fract_x
_atom_site_fract_y
_atom_site_fract_z
O1	O	-1.505912	-0.113949	0.073146
O2	O	-1.172579	0.219385	0.406479
O3	O	-0.839245	0.552718	0.739813
O4	O	-1.175468	-0.125693	0.073167
O5	O	-0.842135	0.207641	0.406500
O6	O	-0.508801	0.540974	0.739834
O7	O	-1.349768	0.001168	0.073147
O8	O	-1.016434	0.334501	0.406480
O9	O	-0.683101	0.667834	0.739814
O10	O	-1.331612	-0.240809	0.073166
O11	O	-0.998279	0.092524	0.406499
O12	O	-0.664946	0.425858	0.739833
O13	O	-1.349747	0.001160	-0.073310
O14	O	-1.016414	0.334494	0.260023
O15	O	-0.683080	0.667827	0.593356
O16	O	-1.175447	-0.125700	-0.073290
O17	O	-0.842114	0.207633	0.260043
O18	O	-0.508781	0.540967	0.593376
O19	O	-1.505892	-0.113956	-0.073311
O20	O	-1.172558	0.219378	0.260022
O21	O	-0.839225	0.552711	0.593356
Zn22	Zn	-1.340666	-0.119829	-0.096554
Zn23	Zn	-1.007333	0.213504	0.236779
Zn24	Zn	-0.674000	0.546838	0.570113
Zn25	Zn	-1.340693	-0.119820	0.096410
Zn26	Zn	-1.007360	0.213514	0.429743
Zn27	Zn	-0.674027	0.546847	0.763076
O28	O	-1.331592	-0.240816	-0.073291
O29	O	-0.998259	0.092517	0.260042
O30	O	-0.664925	0.425850	0.593375
C31	C	-1.133173	-0.124959	-0.000059
C32	C	-0.799840	0.208375	0.333274
C33	C	-0.466507	0.541708	0.666608
C34	C	-1.007179	-0.122751	-0.000051
C35	C	-0.673846	0.210583	0.333282
C36	C	-0.340512	0.543916	0.666615
C37	C	-1.548186	-0.114690	-0.000083
C38	C	-1.214853	0.218643	0.333250
C39	C	-0.881520	0.551977	0.666584
C40	C	-1.674181	-0.116898	-0.000085
C41	C	-1.340847	0.216435	0.333248
C42	C	-1.007514	0.549769	0.666582
C43	C	-1.349022	0.032142	-0.000082
C44	C	-1.015689	0.365476	0.333251
C45	C	-0.682355	0.698809	0.666585
C46	C	-1.346817	0.124448	-0.000083
C47	C	-1.013484	0.457781	0.333250
C48	C	-0.680150	0.791115	0.666584
C49	C	-0.776502	-0.118690	-0.000077
C50	C	-0.443169	0.214643	0.333256
C51	C	-0.109836	0.547976	0.666590
C52	C	-0.904868	-0.120946	-0.000063
C53	C	-0.571534	0.212387	0.333270
C54	C	-0.238201	0.545720	0.666604
C55	C	-1.332338	-0.271791	-0.000060
C56	C	-0.999004	0.061542	0.333273
C57	C	-0.665671	0.394876	0.666606
C58	C	-1.334542	-0.364097	-0.000053
C59	C	-1.001209	-0.030763	0.333280
C60	C	-0.667876	0.302570	0.666613
N61	N	-1.340656	-0.119835	-0.228247
N62	N	-1.007323	0.213498	0.105087
N63	N	-0.673989	0.546832	0.438420
C64	C	-1.445116	0.346258	-0.000075
C65	C	-1.111783	0.679591	0.333258
C66	C	-0.778450	1.012924	0.666591
C67	C	-1.443036	0.432988	-0.000068
C68	C	-1.109702	0.766321	0.333265
C69	C	-0.776369	1.099655	0.666599
C70	C	-1.236235	0.414087	-0.000058
C71	C	-0.902902	0.747420	0.333275
C72	C	-0.569569	1.080753	0.666608
C73	C	-1.238317	0.327358	-0.000060
C74	C	-0.904984	0.660692	0.333274
C75	C	-0.571650	0.994025	0.666607
C76	C	-1.342761	0.293446	-0.000072
C77	C	-1.009428	0.626780	0.333261
C78	C	-0.676094	0.960113	0.666594
C79	C	-1.338599	0.466905	-0.000064
C80	C	-1.005265	0.800238	0.333269
C81	C	-0.671932	1.133572	0.666603
C82	C	-1.336342	0.560942	-0.000056
C83	C	-1.003009	0.894275	0.333277
C84	C	-0.669675	1.227608	0.666611
C85	C	-1.345018	0.199404	-0.000079
C86	C	-1.011685	0.532737	0.333255
C87	C	-0.678351	0.866070	0.666588
C88	C	-1.409491	-0.170587	-0.453970
C89	C	-1.076157	0.162746	-0.120636
C90	C	-0.742824	0.496080	0.212697
C91	C	-1.409503	-0.170581	-0.546159
C92	C	-1.076170	0.162752	-0.212826
C93	C	-0.742837	0.496085	0.120507
C94	C	-1.271875	-0.069049	-0.546168
C95	C	-0.938542	0.264284	-0.212835
C96	C	-0.605208	0.597617	0.120499
C97	C	-1.271869	-0.069051	-0.453980
C98	C	-0.938536	0.264282	-0.120647
C99	C	-0.605203	0.597615	0.212687
C100	C	-1.340675	-0.119825	-0.407883
C101	C	-1.007342	0.213508	-0.074550
C102	C	-0.674009	0.546842	0.258783
C103	C	-1.340693	-0.119817	-0.592261
C104	C	-1.007360	0.213516	-0.258928
C105	C	-0.674027	0.546850	0.074406
C106	C	-1.340706	-0.119810	-0.692217
C107	C	-1.007373	0.213523	-0.358884
C108	C	-0.674039	0.546856	-0.025550
C109	C	-1.340664	-0.119831	-0.307921
C110	C	-1.007331	0.213502	0.025413
C111	C	-0.673998	0.546836	0.358746
N112	N	-1.340712	-0.119807	0.228102
N113	N	-1.007379	0.213526	0.561436
N114	N	-0.674046	0.546860	0.894769
H115	H	-1.526384	0.475984	-0.000069
H116	H	-1.193051	0.809317	0.333265
H117	H	-0.859718	1.142651	0.666598
N118	N	-1.123590	0.450664	-0.000048
N119	N	-0.790256	0.783997	0.333285
N120	N	-0.456923	1.117330	0.666618
H121	H	-1.137800	0.513620	-0.000051
H122	H	-0.804467	0.846953	0.333282
H123	H	-0.471134	1.180287	0.666615
H124	H	-1.078798	0.431377	-0.054340
H125	H	-0.745464	0.764710	0.278993
H126	H	-0.412131	1.098044	0.612326
H127	H	-1.154962	0.284357	-0.000054
H128	H	-0.821628	0.617690	0.333279
H129	H	-0.488295	0.951023	0.666612
N130	N	-1.197636	-0.014301	-0.404267
N131	N	-0.864303	0.319032	-0.070934
N132	N	-0.530970	0.652365	0.262399
H133	H	-1.208079	-0.022005	-0.338873
H134	H	-0.874745	0.311328	-0.005539
H135	H	-0.541412	0.644661	0.327794
H136	H	-1.220086	0.046057	-0.420381
H137	H	-0.886752	0.379390	-0.087047
H138	H	-0.553419	0.712724	0.246286
N139	N	-1.483754	-0.225311	-0.595868
N140	N	-1.150421	0.108023	-0.262535
N141	N	-0.817087	0.441356	0.070798
H142	H	-1.527347	-0.257467	-0.552674
H143	H	-1.194014	0.075867	-0.219341
H144	H	-0.860680	0.409200	0.113992
H145	H	-1.434282	-0.265715	-0.634133
H146	H	-1.100949	0.067618	-0.300800
H147	H	-0.767616	0.400952	0.032533
H148	H	-1.530161	0.318650	-0.000084
H149	H	-1.196828	0.651983	0.333249
H150	H	-0.863495	0.985316	0.666583
N151	N	-1.483716	-0.225340	-0.404257
N152	N	-1.150383	0.107993	-0.070924
N153	N	-0.817050	0.441326	0.262409
H154	H	-1.539275	-0.189413	-0.366006
H155	H	-1.205942	0.143920	-0.032673
H156	H	-0.872609	0.477253	0.300660
H157	H	-1.434213	-0.265789	-0.366061
H158	H	-1.100880	0.067544	-0.032728
H159	H	-0.767547	0.400877	0.300605
N160	N	-1.197665	-0.014289	-0.595886
N161	N	-0.864332	0.319044	-0.262553
N162	N	-0.530998	0.652378	0.070780
H163	H	-1.208107	-0.021991	-0.661281
H164	H	-0.874774	0.311343	-0.327948
H165	H	-0.541441	0.644676	0.005386
H166	H	-1.115117	-0.030310	-0.579776
H167	H	-0.781783	0.303023	-0.246442
H168	H	-0.448450	0.636357	0.086891
