data_functionalizedCrystal
_audit_creation_method	'MofGen! by Chris Wilmer'
_symmetry_space_group_name_H-M	'P1'
_symmetry_Int_Tables_number	1
_symmetry_cell_setting	triclinic
loop_
_symmetry_equiv_pos_as_xyz
  x,y,z
_cell_length_a	8.559649
_cell_length_b	16.992694
_cell_length_c	16.053934
_cell_angle_alpha	92.752194
_cell_angle_beta	87.810363
_cell_angle_gamma	80.223444
loop_
_atom_site_label
_atom_site_type_symbol
_atom_site_fract_x
_atom_site_fract_y
_atom_site_fract_z
O1	O	0.330011	1.023822	0.069319
O2	O	0.326320	0.795760	0.069343
O3	O	0.098129	0.929884	0.069328
O4	O	0.558201	0.889699	0.069334
O5	O	0.110568	0.922507	-0.069527
O6	O	0.338758	0.788384	-0.069512
O7	O	0.342449	1.016446	-0.069537
Zn8	Zn	0.342579	0.901244	-0.091571
Zn9	Zn	0.326190	0.910962	0.091377
O10	O	0.570640	0.882323	-0.069521
C11	C	0.327794	0.763145	-0.000081
C12	C	0.313635	0.676954	-0.000072
C13	C	0.045207	0.929241	-0.000098
C14	C	-0.131015	0.938306	-0.000095
C15	C	0.450242	0.618488	-0.000071
C16	C	0.436931	0.537502	-0.000082
C17	C	0.287010	0.514985	-0.000089
C18	C	0.150392	0.573459	-0.000093
C19	C	0.163706	0.654442	-0.000087
C20	C	0.231830	0.274709	-0.000112
C21	C	0.218526	0.193719	-0.000115
C22	C	0.505067	0.157768	-0.000106
C23	C	0.518367	0.238755	-0.000096
C24	C	0.381749	0.297221	-0.000104
N25	N	0.273399	0.432206	-0.000099
N26	N	0.395362	0.379998	-0.000100
C27	C	0.623562	0.882965	-0.000093
C28	C	0.799784	0.873901	-0.000091
C29	C	0.340975	1.049061	-0.000110
C30	C	0.355134	1.135252	-0.000114
N31	N	0.353763	0.894617	-0.216428
N32	N	0.314994	0.917596	0.216234
C33	C	0.411859	0.860442	0.259956
C34	C	0.403960	0.865080	0.347360
C35	C	0.299202	0.926876	0.391042
C36	C	0.202326	0.984033	0.347315
C37	C	0.210219	0.979391	0.259912
C38	C	0.264780	0.947132	0.652442
C39	C	0.256898	0.951771	0.739851
C40	C	0.458530	0.832817	0.739890
C41	C	0.466420	0.828183	0.652486
C42	C	0.369539	0.885338	0.608766
N43	N	0.291129	0.931619	0.480384
N44	N	0.377605	0.880591	0.519426
H45	H	0.572324	0.636813	-0.000064
H46	H	0.548171	0.489901	-0.000080
H47	H	0.537405	0.786283	0.775495
H48	H	0.131339	1.025931	0.224315
H49	H	-0.124646	0.811826	-0.000087
H50	H	0.028324	0.555119	-0.000110
H51	H	0.096437	0.175391	-0.000120
H52	H	-0.206593	1.000384	-0.000108
H53	H	0.640447	0.257081	-0.000080
C54	C	0.509320	0.802973	0.394678
C55	C	0.602787	0.747877	0.337716
C56	C	0.699881	0.690657	0.381274
H57	H	0.445076	0.775812	0.428762
H58	H	0.576051	0.828696	0.428772
H59	H	0.536064	0.722157	0.303636
H60	H	0.667063	0.775015	0.303629
H61	H	0.766612	0.716379	0.415368
H62	H	0.635625	0.663501	0.415357
H63	H	0.763321	0.653271	0.342632
H64	H	0.616292	0.110157	-0.000102
H65	H	0.120586	0.322304	-0.000119
C66	C	0.015195	0.717807	-0.000041
C67	C	-0.118953	0.680758	-0.000024
C68	C	-0.255793	0.739104	0.000027
H69	H	0.018545	0.747613	-0.048447
H70	H	0.010005	0.752706	0.048403
H71	H	-0.113765	0.645873	-0.048463
H72	H	-0.122355	0.650957	0.048379
H73	H	-0.260983	0.774003	0.048471
H74	H	-0.252427	0.768907	-0.048381
H75	H	-0.346829	0.713975	0.000046
C76	C	0.525348	0.793319	0.212425
C77	C	0.439085	0.748231	0.162213
C78	C	0.543576	0.686394	0.118410
H79	H	0.581948	0.759859	0.250888
H80	H	0.598136	0.815422	0.178295
H81	H	0.366325	0.726128	0.196340
H82	H	0.382490	0.781667	0.123735
H83	H	0.616363	0.708497	0.084280
H84	H	0.600170	0.652941	0.156879
H85	H	0.485063	0.655799	0.084330
H86	H	0.551722	0.777864	0.616922
H87	H	0.171587	1.002096	0.775413
H88	H	0.185898	0.993671	0.616852
H89	H	0.117022	1.034346	0.382886
