data_functionalizedCrystal
_audit_creation_method	'MofGen! by Chris Wilmer'
_symmetry_space_group_name_H-M	'P1'
_symmetry_Int_Tables_number	1
_symmetry_cell_setting	triclinic
loop_
_symmetry_equiv_pos_as_xyz
  x,y,z
_cell_length_a	19.902436
_cell_length_b	14.560438
_cell_length_c	14.560438
_cell_angle_alpha	60.000095
_cell_angle_beta	90.002252
_cell_angle_gamma	59.994124
loop_
_atom_site_label
_atom_site_type_symbol
_atom_site_fract_x
_atom_site_fract_y
_atom_site_fract_z
Zr1	Zr	0.647273	1.005223	-0.120473
O2	O	0.539970	1.196853	-0.267137
O3	O	0.680174	0.813607	-0.075510
O4	O	0.680162	1.005220	-0.267118
O5	O	0.539985	1.005237	0.075612
O6	O	0.790740	1.005202	-0.267105
O7	O	0.539982	1.005239	-0.075529
O8	O	0.790762	0.662441	0.075646
O9	O	0.539963	1.347998	-0.267140
O10	O	0.776722	0.892403	-0.056328
O11	O	0.694200	0.892414	0.056458
O12	O	0.694186	1.118014	-0.169136
O13	O	0.611664	1.118026	-0.056350
Zr14	Zr	0.823638	1.005190	0.120599
Zr15	Zr	0.823634	1.005194	-0.120453
Zr16	Zr	0.647278	1.005219	0.120579
Zr17	Zr	0.647263	1.246283	-0.120477
Zr18	Zr	0.823649	0.764131	0.120603
O19	O	0.790738	1.196807	0.075636
O20	O	0.790732	1.196813	-0.267109
O21	O	0.539976	1.196847	0.075608
O22	O	0.930942	0.813560	0.267263
O23	O	0.930935	0.813566	-0.075482
O24	O	0.680180	0.813601	0.267235
O25	O	0.930927	1.005176	-0.075486
O26	O	0.790750	1.005193	0.267244
O27	O	0.680172	1.005211	0.267232
O28	O	0.930930	1.005174	0.075655
O29	O	0.680146	1.347976	-0.267124
O30	O	0.790766	0.662437	0.267250
O31	O	0.930949	0.662415	0.267266
O32	O	0.930945	0.662418	0.075662
O33	O	0.539967	1.347995	-0.075535
O34	O	0.680150	1.347973	-0.075520
O35	O	0.776726	0.892399	0.169262
O36	O	0.859248	0.892388	0.056476
O37	O	0.776712	1.117999	-0.056332
O38	O	0.694190	1.118011	0.056454
C39	C	0.735469	0.703678	0.000069
C40	C	0.735474	0.601342	0.000071
C41	C	0.796372	0.373838	0.083334
C42	C	0.796392	0.469974	0.083340
C43	C	0.674537	0.636575	-0.083217
C44	C	0.674521	0.540440	-0.083226
C45	C	0.514856	1.005242	0.000039
C46	C	0.439986	1.005254	0.000030
C47	C	0.167984	1.005190	0.000074
C48	C	0.144410	1.147510	-0.070747
C49	C	0.222247	1.147600	-0.071140
C50	C	0.302927	1.005223	0.000052
C51	C	0.300518	0.934545	-0.051834
C52	C	0.222291	0.935455	-0.052358
C53	C	0.223281	0.932529	0.122813
C54	C	0.300202	0.935204	0.122624
C55	C	0.379194	1.005234	0.000041
C56	C	0.091719	1.005175	0.000081
C57	C	0.956056	1.005171	0.000088
C58	C	1.030926	1.005159	0.000096
C59	C	0.735450	1.005212	-0.301456
C60	C	0.735448	1.005213	-0.403789
C61	C	0.735443	1.306736	0.000057
C62	C	0.735438	1.409072	0.000056
C63	C	0.692366	1.122978	-0.510750
C64	C	0.692376	1.122972	-0.606899
C65	C	0.778551	0.887426	-0.489112
C66	C	0.778545	0.887433	-0.392966
C67	C	0.735462	1.005202	0.301583
C68	C	0.735463	1.005200	0.403915
C69	C	0.956069	0.703642	0.000093
C70	C	1.030944	0.601294	0.000103
C71	C	0.735475	0.703673	0.301588
C72	C	0.735481	0.601335	0.403923
C73	C	0.956075	0.703637	0.301613
C74	C	1.030951	0.601287	0.403956
C75	C	0.514837	1.306776	-0.301486
C76	C	0.439961	1.409126	-0.403830
C77	C	0.514842	1.306771	0.000033
C78	C	0.439968	1.409119	0.000023
C79	C	0.735437	1.306741	-0.301462
C80	C	0.735430	1.409078	-0.403797
C81	C	1.023028	0.553238	-0.058784
C82	C	1.093373	0.457084	-0.058797
C83	C	1.171634	0.408982	0.000085
C84	C	1.179548	0.457047	0.058974
C85	C	1.109203	0.553206	0.058980
C86	C	1.109197	0.553217	0.393144
C87	C	1.179557	0.457061	0.489297
C88	C	1.171671	0.408972	0.596261
C89	C	1.093417	0.457052	0.607070
C90	C	1.023058	0.553212	0.510918
C91	C	0.361715	1.457208	-0.393018
C92	C	0.291355	1.553393	-0.489171
C93	C	0.299241	1.601488	-0.596135
C94	C	0.377495	1.553402	-0.606944
C95	C	0.447854	1.457225	-0.510792
C96	C	0.447884	1.457185	0.058900
C97	C	0.377539	1.553365	0.058887
C98	C	0.299278	1.601471	0.000001
C99	C	0.291364	1.553402	-0.058884
C100	C	0.361708	1.457230	-0.058876
C101	C	0.778561	0.553246	0.510883
C102	C	0.778558	0.457098	0.607033
C103	C	0.692394	0.457131	0.489251
C104	C	0.692393	0.553284	0.393103
H105	H	0.845975	0.266876	0.151147
F106	F	0.824419	0.604384	0.522402
F107	F	0.353303	1.406037	-0.279189
H108	H	0.959350	0.592339	0.519737
H109	H	0.624939	0.743543	-0.151020
H110	H	0.227644	1.592529	-0.480348
H111	H	0.511563	1.418077	-0.519608
H112	H	1.115633	0.592357	0.306058
H113	H	1.243277	0.417868	0.106914
F114	F	1.262833	0.405904	0.477770
F115	F	0.646504	1.248330	-0.522273
H116	H	0.846011	0.441274	0.151153
H117	H	1.228906	0.330682	0.000072
F118	F	1.246561	0.306628	0.698586
H119	H	0.383999	1.592488	0.106842
F120	F	0.646540	0.405982	0.477747
F121	F	0.247583	0.798977	0.010693
H122	H	1.087008	0.417883	0.694172
F123	F	0.385875	1.604598	-0.720792
F124	F	0.609665	0.577945	-0.171871
F125	F	0.646534	0.604473	0.279258
H126	H	1.086913	0.417961	-0.106752
H127	H	0.657295	1.218868	-0.693988
H128	H	1.115660	0.592320	0.106940
F129	F	0.224351	1.703848	-0.698460
H130	H	0.511602	1.418025	0.106860
F131	F	0.224417	1.703826	0.000005
H132	H	0.220967	1.203335	-0.036607
F133	F	0.824410	0.762083	-0.477605
H134	H	0.227635	1.592584	-0.106826
H135	H	0.355252	1.418097	-0.106818
H136	H	0.813637	0.417950	0.694121
F137	F	0.092239	1.220168	-0.188378
F138	F	0.093211	1.220530	-0.025494
H139	H	0.185744	0.985683	-0.142676
F140	F	0.219919	1.220539	-0.189481
H141	H	0.302065	0.983633	-0.141293
F142	F	0.374783	0.797713	0.012344
H143	H	0.186968	0.978070	0.166156
H144	H	0.299824	0.986737	0.161386
H145	H	0.357668	0.831332	0.179832
H146	H	0.243204	0.827689	0.175830
H147	H	0.813632	0.791529	-0.305867
F148	F	0.939743	0.604418	-0.121463
