data_functionalizedCrystal
_audit_creation_method	'MofGen! by Chris Wilmer'
_symmetry_space_group_name_H-M	'P1'
_symmetry_Int_Tables_number	1
_symmetry_cell_setting	triclinic
loop_
_symmetry_equiv_pos_as_xyz
  x,y,z
_cell_length_a	6.394989
_cell_length_b	16.992694
_cell_length_c	15.455313
_cell_angle_alpha	92.857794
_cell_angle_beta	87.254133
_cell_angle_gamma	88.582967
loop_
_atom_site_label
_atom_site_type_symbol
_atom_site_fract_x
_atom_site_fract_y
_atom_site_fract_z
O1	O	-0.435072	-1.048122	-0.072012
O2	O	-0.430202	-0.819790	-0.072038
O3	O	-0.129113	-0.937197	-0.072026
O4	O	-0.736160	-0.930715	-0.072025
O5	O	-0.146255	-0.930482	0.072236
O6	O	-0.447343	-0.813075	0.072223
O7	O	-0.452214	-1.041407	0.072249
Cu8	Cu	-0.451344	-0.926628	0.085408
Cu9	Cu	-0.431071	-0.934569	-0.085198
O10	O	-0.753302	-0.924000	0.072236
C11	C	-0.432511	-0.787158	0.000089
C12	C	-0.413829	-0.699930	0.000079
C13	C	-0.449904	-1.074039	0.000120
C14	C	-0.468586	-1.161267	0.000124
N15	N	-0.465602	-0.921049	0.205403
C16	C	-0.059649	-0.932558	0.000102
C17	C	0.177240	-0.928641	0.000100
N18	N	-0.416798	-0.940154	-0.205192
C19	C	-0.594077	-0.651470	0.000080
C20	C	-0.576513	-0.569510	0.000092
C21	C	-0.378698	-0.536010	0.000097
C22	C	-0.198437	-0.584476	0.000099
C23	C	-0.216003	-0.666434	0.000093
C24	C	-0.305891	-0.291692	0.000120
C25	C	-0.288338	-0.209727	0.000123
C26	C	-0.666416	-0.194766	0.000118
C27	C	-0.683964	-0.276728	0.000107
C28	C	-0.503704	-0.325186	0.000113
N29	N	-0.360740	-0.452233	0.000106
N30	N	-0.521664	-0.408961	0.000110
C31	C	-0.337742	-0.970946	0.250803
C32	C	-0.348545	-0.966733	0.341610
C33	C	-0.487220	-0.912628	0.387016
C34	C	-0.615085	-0.862725	0.341611
C35	C	-0.604270	-0.866934	0.250805
C36	C	-0.533847	-0.894461	0.658596
C37	C	-0.544658	-0.890257	0.749408
C38	C	-0.278114	-0.994265	0.749401
C39	C	-0.267319	-0.998472	0.658594
C40	C	-0.395176	-0.948567	0.613196
N41	N	-0.498271	-0.908323	0.479836
N42	N	-0.384114	-0.952869	0.520378
H43	H	-0.755159	-0.678739	0.000075
C44	C	-0.137460	-1.049149	0.799336
H45	H	-0.053330	-1.081977	0.759288
H46	H	-0.049828	-1.018396	0.834767
H47	H	-0.222453	-1.080948	0.834751
C48	C	-0.744924	-0.812051	0.200865
H49	H	-0.829078	-0.779230	0.240912
H50	H	-0.659936	-0.780258	0.165449
H51	H	-0.832567	-0.842809	0.165435
C52	C	-0.017737	-0.719743	0.000091
H53	H	-0.056530	-0.773352	0.000096
H54	H	0.068801	-0.711722	-0.050213
H55	H	0.056822	-0.707049	0.050408
H56	H	-0.127245	-0.182455	0.000126
H57	H	-0.224828	-1.015007	0.213839
H58	H	-0.657592	-0.846196	0.786374
H59	H	-0.723290	-0.530057	0.000092
H60	H	-0.637958	-0.853827	0.621640
C61	C	-0.207920	-1.021628	0.391546
H62	H	-0.123806	-1.054462	0.351498
H63	H	-0.120273	-0.990884	0.426980
H64	H	-0.292940	-1.053420	0.426958
H65	H	-0.845045	-0.303997	0.000093
H66	H	-0.813173	-0.155303	0.000115
C67	C	0.019155	-0.547628	0.000102
H68	H	0.003806	-0.491876	0.000097
H69	H	0.087974	-0.561799	0.050408
H70	H	0.099920	-0.566471	-0.050212
C71	C	-0.767628	-0.803212	0.391555
H72	H	-0.755776	-0.807856	0.452138
H73	H	-0.734310	-0.751261	0.376684
H74	H	-0.906933	-0.813815	0.376662
C75	C	-0.107616	-0.344989	0.000114
H76	H	-0.146396	-0.398599	0.000118
H77	H	-0.021094	-0.336964	-0.050193
H78	H	-0.033045	-0.332295	0.050427
H79	H	-0.154399	-1.042529	0.621626
