data_functionalizedCrystal
_audit_creation_method	'MofGen! by Chris Wilmer'
_symmetry_space_group_name_H-M	'P1'
_symmetry_Int_Tables_number	1
_symmetry_cell_setting	triclinic
loop_
_symmetry_equiv_pos_as_xyz
  x,y,z
_cell_length_a	12.827893
_cell_length_b	12.594516
_cell_length_c	12.827885
_cell_angle_alpha	90.028054
_cell_angle_beta	90.019272
_cell_angle_gamma	90.016023
loop_
_atom_site_label
_atom_site_type_symbol
_atom_site_fract_x
_atom_site_fract_y
_atom_site_fract_z
Zn1	Zn	1.597665	-0.423691	0.590861
Zn2	Zn	1.597557	-0.601707	0.416127
Zn3	Zn	1.422906	-0.423743	0.416135
Zn4	Zn	1.422889	-0.601628	0.590827
O5	O	1.510254	-0.512693	0.503487
O6	O	1.743887	-0.447317	0.567693
O7	O	1.574351	-0.578155	0.269892
O8	O	1.446140	-0.274791	0.439330
O9	O	1.743807	-0.578105	0.439317
O10	O	1.574535	-0.274752	0.567701
O11	O	1.446036	-0.447405	0.269898
O12	O	1.276668	-0.447329	0.439297
O13	O	1.446112	-0.577970	0.737067
O14	O	1.276656	-0.578020	0.567642
O15	O	1.574519	-0.447240	0.737093
O16	O	1.574335	-0.750643	0.439283
O17	O	1.446007	-0.750584	0.567635
C18	C	1.238744	-0.512672	0.503468
C19	C	1.122591	-0.512689	0.503484
C20	C	1.070828	-0.577460	0.566895
C21	C	0.950778	-0.577479	0.566914
C22	C	1.510186	-0.789234	0.503477
C23	C	1.510252	-0.907539	0.503508
C24	C	1.440448	-0.976799	0.573269
C25	C	1.414986	-1.047668	0.477914
C26	C	1.535809	-1.047469	0.598879
C27	C	1.484740	-0.976849	0.408102
C28	C	1.605607	-0.976645	0.529132
C29	C	1.580182	-1.047481	0.433711
C30	C	1.782824	-0.512714	0.503508
C31	C	1.898978	-0.512723	0.503517
C32	C	1.510325	-0.512590	0.776058
C33	C	1.510356	-0.512547	0.892211
C34	C	1.510352	-0.235072	0.503521
C35	C	1.510393	-0.116766	0.503535
C36	C	1.510244	-0.512718	0.231978
C37	C	1.510416	-0.512461	0.115825
C38	C	1.573902	-0.447845	0.944008
C39	C	1.573935	-0.447799	1.064059
H40	H	1.078031	-0.457246	0.449213
C41	C	1.647373	-0.373056	0.883859
C42	C	1.602033	-0.289588	0.808801
C43	C	1.675506	-0.214798	0.748653
C44	C	1.794319	-0.223476	0.763564
C45	C	1.839665	-0.306947	0.838626
C46	C	1.766192	-0.381737	0.898773
H47	H	1.514075	-0.283161	0.797760
H48	H	1.641938	-0.153007	0.693088
H49	H	1.848709	-0.168111	0.719040
H50	H	1.927623	-0.313374	0.849667
H51	H	1.799760	-0.443529	0.954339
H52	H	1.463087	-0.945956	0.327436
C53	C	1.647437	-0.372960	1.124226
C54	C	1.766242	-0.381647	1.109327
C55	C	1.839747	-0.306806	1.169496
C56	C	1.794447	-0.223278	1.244564
C57	C	1.675636	-0.214588	1.259466
C58	C	1.602131	-0.289429	1.199297
H59	H	1.799781	-0.443482	1.053754
H60	H	1.927699	-0.313239	1.158464
H61	H	1.848860	-0.167876	1.289104
H62	H	1.642097	-0.152753	1.315039
H63	H	1.514179	-0.282996	1.210329
H64	H	1.115388	-0.632895	0.621174
C65	C	1.436911	-0.587302	1.055665
C66	C	1.445386	-0.708311	1.070557
C67	C	1.371881	-0.783152	1.010388
C68	C	1.289901	-0.736984	0.935326
C69	C	1.281422	-0.615969	0.920430
C70	C	1.354927	-0.541128	0.980599
H71	H	1.506075	-0.742493	1.126126
H72	H	1.378158	-0.872735	1.021415
H73	H	1.235488	-0.792386	0.890785
H74	H	1.220732	-0.581788	0.864861
H75	H	1.348650	-0.451545	0.969572
H76	H	0.906263	-0.632935	0.621199
H77	H	1.455969	-0.567899	0.936742
C78	C	1.714431	-0.934460	0.558440
C79	C	1.762344	-0.962221	0.665081
C80	C	1.871168	-0.920033	0.694403
C81	C	1.932079	-0.850084	0.617084
C82	C	1.884167	-0.822319	0.510436
C83	C	1.775343	-0.864507	0.481114
H84	H	1.717253	-1.014005	0.722323
H85	H	1.906635	-0.940587	0.773351
H86	H	2.012637	-0.818854	0.638790
H87	H	1.929258	-0.770535	0.453194
H88	H	1.739876	-0.843953	0.402166
H89	H	0.943486	-0.457271	0.449221
H90	H	1.639273	-1.078321	0.374660
H91	H	1.381312	-0.945763	0.632178
C92	C	1.306132	-1.089816	0.448641
C93	C	1.216887	-1.011491	0.425651
C94	C	1.108031	-1.053634	0.396387
C95	C	1.088419	-1.174101	0.390114
C96	C	1.177666	-1.252433	0.413104
C97	C	1.286523	-1.210290	0.442368
H98	H	1.231402	-0.922308	0.430294
H99	H	1.041964	-0.995646	0.379368
H100	H	1.007837	-1.205297	0.368451
H101	H	1.163151	-1.341616	0.408460
H102	H	1.352590	-1.268277	0.459387
H103	H	1.557369	-1.078491	0.679523
