data_functionalizedCrystal
_audit_creation_method	'MofGen! by Chris Wilmer'
_symmetry_space_group_name_H-M	'P1'
_symmetry_Int_Tables_number	1
_symmetry_cell_setting	triclinic
loop_
_symmetry_equiv_pos_as_xyz
  x,y,z
_cell_length_a	16.625546
_cell_length_b	13.032831
_cell_length_c	13.032268
_cell_angle_alpha	89.113023
_cell_angle_beta	97.144614
_cell_angle_gamma	97.173222
loop_
_atom_site_label
_atom_site_type_symbol
_atom_site_fract_x
_atom_site_fract_y
_atom_site_fract_z
Zn1	Zn	-0.544521	-1.498429	-0.780776
Zn2	Zn	-0.044521	-0.998429	-0.280776
Zn3	Zn	-0.664651	-1.520160	-0.608784
Zn4	Zn	-0.164651	-1.020160	-0.108784
Zn5	Zn	-0.510838	-1.348291	-0.587021
Zn6	Zn	-0.010838	-0.848291	-0.087021
Zn7	Zn	-0.660292	-1.326409	-0.758909
Zn8	Zn	-0.160292	-0.826409	-0.258909
O9	O	-0.595075	-1.423322	-0.683873
O10	O	-0.095075	-0.923322	-0.183873
O11	O	-0.576377	-1.645231	-0.776220
O12	O	-0.076377	-1.145231	-0.276220
O13	O	-0.631976	-1.515614	-0.461981
O14	O	-0.131976	-1.015614	0.038019
O15	O	-0.402484	-1.368270	-0.612767
O16	O	0.097516	-0.868270	-0.112767
O17	O	-0.664636	-1.661197	-0.649858
O18	O	-0.164636	-1.161197	-0.149858
O19	O	-0.427231	-1.478576	-0.755118
O20	O	0.072769	-0.978576	-0.255118
O21	O	-0.518970	-1.389342	-0.445992
O22	O	-0.018970	-0.889342	0.054008
O23	O	-0.514743	-1.201469	-0.591563
O24	O	-0.014743	-0.701469	-0.091563
O25	O	-0.657206	-1.330976	-0.905725
O26	O	-0.157206	-0.830976	-0.405725
O27	O	-0.624546	-1.185392	-0.717849
O28	O	-0.124546	-0.685392	-0.217849
O29	O	-0.572150	-1.457358	-0.921791
O30	O	-0.072150	-0.957358	-0.421791
O31	O	-0.776895	-1.494396	-0.628654
O32	O	-0.276895	-0.994396	-0.128654
O33	O	-0.773692	-1.352048	-0.738951
O34	O	-0.273692	-0.852048	-0.238951
C35	C	-0.565517	-1.156114	-0.649972
C36	C	-0.065517	-0.656114	-0.149972
C37	C	-0.552893	-1.041798	-0.635494
C38	C	-0.052893	-0.541798	-0.135494
C39	C	-0.804552	-1.423230	-0.683817
C40	C	-0.304552	-0.923230	-0.183817
C41	C	-0.894180	-1.423281	-0.683840
C42	C	-0.394180	-0.923281	-0.183840
C43	C	-0.617949	-1.389302	-0.952117
C44	C	-0.117949	-0.889302	-0.452117
C45	C	-0.627696	-1.374805	-1.066427
C46	C	-0.127696	-0.874805	-0.566427
C47	C	-1.222385	-1.423447	-0.683970
C48	C	-0.722385	-0.923447	-0.183970
C49	C	-1.131068	-1.423397	-0.683936
C50	C	-0.631068	-0.923397	-0.183936
C51	C	-1.058285	-1.423363	-0.683904
C52	C	-0.558285	-0.923363	-0.183904
C53	C	-0.966963	-1.423315	-0.683872
C54	C	-0.466963	-0.923315	-0.183872
C55	C	-0.384786	-1.423440	-0.683954
C56	C	0.115214	-0.923440	-0.183954
C57	C	-0.295173	-1.423490	-0.683989
C58	C	0.204827	-0.923490	-0.183989
C59	C	-0.624750	-1.691574	-0.717906
C60	C	-0.124750	-1.191574	-0.217906
C61	C	-0.637396	-1.805887	-0.732409
C62	C	-0.137396	-1.305887	-0.232409
C63	C	-0.601664	-0.982917	-0.691429
C64	C	-0.101664	-0.482917	-0.191429
C65	C	-0.588618	-0.864766	-0.676466
C66	C	-0.088618	-0.364766	-0.176466
C67	C	-0.589958	-1.430873	-1.125339
C68	C	-0.089958	-0.930873	-0.625339
C69	C	-0.600031	-1.415890	-1.243485
C70	C	-0.100031	-0.915890	-0.743485
C71	C	-0.572239	-1.457270	-0.416679
C72	C	-0.072239	-0.957270	0.083321
C73	C	-0.562287	-1.471966	-0.302395
C74	C	-0.062287	-0.971966	0.197605
H75	H	-0.537199	-0.827708	-0.617501
H76	H	-0.037199	-0.327708	-0.117501
H77	H	-0.667457	-1.315704	-1.103456
H78	H	-0.167457	-0.815704	-0.603456
H79	H	-0.688808	-0.842942	-0.791385
H80	H	-0.188808	-0.342942	-0.291385
C81	C	-0.509306	-1.550733	-1.252845
C82	C	-0.009306	-1.050733	-0.752845
C83	C	-0.509855	-1.549948	-1.145515
C84	C	-0.009855	-1.049948	-0.645515
C85	C	-0.461059	-1.622492	-1.099837
C86	C	0.038941	-1.122492	-0.599837
H87	H	-0.454925	-1.533562	-1.268406
H88	H	0.045075	-1.033562	-0.768406
H89	H	-0.530226	-1.617656	-1.279095
H90	H	-0.030226	-1.117656	-0.779095
H91	H	-0.488931	-1.483040	-1.119275
H92	H	0.011069	-0.983040	-0.619275
H93	H	-0.564223	-1.567130	-1.129925
H94	H	-0.064223	-1.067130	-0.629925
H95	H	-0.481980	-1.689415	-1.126087
H96	H	0.018020	-1.189415	-0.626087
H97	H	-0.406682	-1.605314	-1.115405
H98	H	0.093318	-1.105314	-0.615405
H99	H	-0.461432	-1.621976	-1.027010
H100	H	0.038568	-1.121976	-0.527010
C101	C	-0.653064	-1.336999	-1.292644
C102	C	-0.153064	-0.836999	-0.792644
C103	C	-0.685913	-1.288158	-1.215395
C104	C	-0.185913	-0.788158	-0.715395
C105	C	-0.734761	-1.215471	-1.260641
C106	C	-0.234761	-0.715471	-0.760641
H107	H	-0.696150	-1.370930	-1.339521
H108	H	-0.196150	-0.870930	-0.839521
H109	H	-0.620822	-1.286875	-1.328848
H110	H	-0.120822	-0.786875	-0.828848
H111	H	-0.718153	-1.338274	-1.179207
H112	H	-0.218153	-0.838274	-0.679207
H113	H	-0.642846	-1.254207	-1.168513
H114	H	-0.142846	-0.754207	-0.668513
H115	H	-0.702519	-1.165347	-1.296846
H116	H	-0.202519	-0.665347	-0.796846
H117	H	-0.777842	-1.249410	-1.307517
H118	H	-0.277842	-0.749410	-0.807517
H119	H	-0.757049	-1.182317	-1.208234
H120	H	-0.257049	-0.682317	-0.708234
C121	C	-0.670109	-1.032448	-0.770132
C122	C	-0.170109	-0.532448	-0.270132
C123	C	-0.636930	-1.085803	-0.843896
C124	C	-0.136930	-0.585803	-0.343896
C125	C	-0.699958	-1.131452	-0.916407
C126	C	-0.199958	-0.631452	-0.416407
H127	H	-0.699057	-0.980293	-0.803398
H128	H	-0.199057	-0.480293	-0.303398
H129	H	-0.706418	-1.079396	-0.736012
H130	H	-0.206418	-0.579396	-0.236012
H131	H	-0.600635	-1.038859	-0.878013
H132	H	-0.100635	-0.538859	-0.378013
H133	H	-0.607988	-1.137974	-0.810660
H134	H	-0.107988	-0.637974	-0.310660
H135	H	-0.736267	-1.178400	-0.882286
H136	H	-0.236267	-0.678400	-0.382286
H137	H	-0.728903	-1.079291	-0.949665
H138	H	-0.228903	-0.579291	-0.449665
H139	H	-0.677456	-1.167667	-0.966459
H140	H	-0.177456	-0.667667	-0.466459
C141	C	-0.484459	-0.992363	-0.556721
C142	C	0.015541	-0.492363	-0.056721
C143	C	-0.517649	-0.939058	-0.482929
C144	C	-0.017649	-0.439058	0.017071
C145	C	-0.454634	-0.893524	-0.410333
C146	C	0.045366	-0.393524	0.089667
H147	H	-0.448102	-0.945401	-0.590732
H148	H	0.051898	-0.445401	-0.090732
H149	H	-0.455564	-1.044606	-0.523504
H150	H	0.044436	-0.544606	-0.023504
H151	H	-0.546531	-0.886820	-0.516142
H152	H	-0.046531	-0.386820	-0.016142
H153	H	-0.553999	-0.985997	-0.448892
H154	H	-0.053999	-0.485997	0.051108
H155	H	-0.425739	-0.945767	-0.377116
H156	H	0.074261	-0.445767	0.122884
H157	H	-0.418281	-0.846567	-0.444354
H158	H	0.081719	-0.346567	0.055646
H159	H	-0.477145	-0.857359	-0.360252
H160	H	0.022855	-0.357359	0.139748
H161	H	-0.550187	-1.489963	-1.088309
H162	H	-0.050187	-0.989963	-0.588309
