data_functionalizedCrystal
_audit_creation_method	'MofGen! by Chris Wilmer'
_symmetry_space_group_name_H-M	'P1'
_symmetry_Int_Tables_number	1
_symmetry_cell_setting	triclinic
loop_
_symmetry_equiv_pos_as_xyz
  x,y,z
_cell_length_a	25.639243
_cell_length_b	10.686285
_cell_length_c	10.686551
_cell_angle_alpha	99.084519
_cell_angle_beta	94.399423
_cell_angle_gamma	85.634099
loop_
_atom_site_label
_atom_site_type_symbol
_atom_site_fract_x
_atom_site_fract_y
_atom_site_fract_z
Zn1	Zn	0.835287	-0.450060	0.679151
Zn2	Zn	1.335287	0.049940	1.179151
Zn3	Zn	0.835245	-0.678640	0.450649
Zn4	Zn	1.335245	-0.178640	0.950649
Zn5	Zn	0.741621	-0.466425	0.466897
Zn6	Zn	1.241621	0.033575	0.966897
Zn7	Zn	0.754083	-0.662267	0.662839
Zn8	Zn	1.254083	-0.162267	1.162839
O9	O	0.791559	-0.564348	0.564884
O10	O	1.291559	-0.064348	1.064884
O11	O	0.908448	-0.480384	0.648867
O12	O	1.408448	0.019616	1.148867
O13	O	0.817592	-0.664190	0.275173
O14	O	1.317592	-0.164190	0.775173
O15	O	0.748848	-0.286632	0.508680
O16	O	1.248848	0.213368	1.008680
O17	O	0.908417	-0.648321	0.480987
O18	O	1.408417	-0.148321	0.980987
O19	O	0.817664	-0.274609	0.664622
O20	O	1.317664	0.225391	1.164622
O21	O	0.748807	-0.508277	0.287110
O22	O	1.248807	-0.008277	0.787110
O23	O	0.670108	-0.492401	0.492862
O24	O	1.170108	0.007599	0.992862
O25	O	0.770089	-0.620416	0.842634
O26	O	1.270089	-0.120416	1.342634
O27	O	0.679264	-0.636285	0.636819
O28	O	1.179264	-0.136285	1.136819
O29	O	0.829749	-0.464508	0.854619
O30	O	1.329749	0.035492	1.354619
O31	O	0.829677	-0.854090	0.465170
O32	O	1.329677	-0.354090	0.965170
O33	O	0.770048	-0.842061	0.621064
O34	O	1.270048	-0.342061	1.121064
C35	C	0.801225	-0.894128	0.539611
C36	C	1.301225	-0.394128	1.039611
C37	C	0.805409	-1.035207	0.528842
C38	C	1.305409	-0.535207	1.028842
C39	C	0.655715	-0.564343	0.564834
C40	C	1.155715	-0.064343	1.064834
C41	C	0.597602	-0.564369	0.564841
C42	C	1.097602	-0.064369	1.064841
C43	C	0.237258	-0.477020	0.652425
C44	C	0.737258	0.022980	1.152425
C45	C	0.182654	-0.477019	0.652433
C46	C	0.682654	0.022981	1.152433
O47	O	0.154431	-0.402732	0.726838
O48	O	0.654431	0.097268	1.226838
N49	N	0.155321	-0.564341	0.564919
N50	N	0.655321	-0.064341	1.064919
C51	C	0.182595	-0.651663	0.477384
C52	C	0.682595	-0.151663	0.977384
O53	O	0.154332	-0.725937	0.402947
O54	O	0.654332	-0.225937	0.902947
C55	C	0.237197	-0.651658	0.477371
C56	C	0.737197	-0.151658	0.977371
C57	C	0.264528	-0.564338	0.564898
C58	C	0.764528	-0.064338	1.064898
C59	C	0.264588	-0.389706	0.739944
C60	C	0.764588	0.110294	1.239944
C61	C	0.319189	-0.389710	0.739937
C62	C	0.819189	0.110290	1.239937
C63	C	0.346459	-0.477027	0.652411
C64	C	0.846459	0.022973	1.152411
C65	C	0.319128	-0.564341	0.564892
C66	C	0.819128	-0.064341	1.064892
C67	C	0.264470	-0.738973	0.389831
C68	C	0.764470	-0.238973	0.889831
C69	C	0.319076	-0.738959	0.389825
C70	C	0.819076	-0.238959	0.889825
C71	C	0.346407	-0.651639	0.477352
C72	C	0.846407	-0.151639	0.977352
C73	C	0.400999	-0.651662	0.477359
C74	C	0.900999	-0.151662	0.977359
N75	N	0.428331	-0.564340	0.564872
N76	N	0.928331	-0.064340	1.064872
C77	C	0.401061	-0.477022	0.652398
C78	C	0.901061	0.022978	1.152398
C79	C	0.067925	-0.651666	0.477416
C80	C	0.567925	-0.151666	0.977416
C81	C	0.013324	-0.651678	0.477434
C82	C	0.513324	-0.151678	0.977434
C83	C	0.013386	-0.477032	0.652481
C84	C	0.513386	0.022968	1.152481
C85	C	0.067989	-0.477027	0.652468
C86	C	0.567989	0.022973	1.152468
C87	C	0.095258	-0.564343	0.564929
C88	C	0.595258	-0.064343	1.064929
C89	C	0.515726	-0.477037	0.652378
C90	C	1.015726	0.022963	1.152378
C91	C	0.570332	-0.477052	0.652367
C92	C	1.070332	0.022948	1.152367
C93	C	0.570264	-0.651693	0.477316
C94	C	1.070264	-0.151693	0.977316
C95	C	0.515664	-0.651683	0.477330
C96	C	1.015664	-0.151683	0.977330
C97	C	0.488396	-0.564345	0.564867
C98	C	0.988396	-0.064345	1.064867
O99	O	0.429256	-0.725907	0.402987
O100	O	0.929256	-0.225907	0.902987
O101	O	0.429330	-0.402750	0.726812
O102	O	0.929330	0.097250	1.226812
C103	C	0.927934	-0.564353	0.564935
C104	C	1.427934	-0.064353	1.064935
C105	C	0.986049	-0.564356	0.564956
C106	C	1.486049	-0.064356	1.064956
C107	C	0.801313	-0.538810	0.895972
C108	C	1.301313	-0.038810	1.395972
C109	C	0.805470	-0.527928	1.037062
C110	C	1.305470	-0.027928	1.537062
C111	C	0.781871	-0.233277	0.590283
C112	C	1.281871	0.266723	1.090283
C113	C	0.777742	-0.092195	0.601107
C114	C	1.277742	0.407805	1.101107
C115	C	0.781870	-0.589694	0.235091
C116	C	1.281870	-0.089694	0.735091
C117	C	0.777804	-0.600219	0.094029
C118	C	1.277804	-0.100219	0.594029
H119	H	0.750855	-1.033057	0.671216
H120	H	1.250855	-0.533057	1.171216
F121	F	0.840550	-1.112511	0.437184
F122	F	1.340550	-0.612511	0.937184
H123	H	0.832340	-0.457711	1.096233
H124	H	1.332340	0.042289	1.596233
H125	H	0.750940	-0.670440	1.034864
H126	H	1.250940	-0.170440	1.534864
H127	H	0.592582	-0.405944	0.723647
H128	H	1.092582	0.094056	1.223647
H129	H	0.341436	-0.318603	0.811209
H130	H	0.841436	0.181397	1.311209
F131	F	0.235573	-0.296762	0.833109
F132	F	0.735573	0.203238	1.333109
F133	F	0.486714	-0.384081	0.745544
F134	F	0.986714	0.115919	1.245544
H135	H	0.090238	-0.405920	0.723739
H136	H	0.590238	0.094080	1.223739
H137	H	-0.008827	-0.405930	0.723747
H138	H	0.491173	0.094070	1.223747
H139	H	-0.008923	-0.722796	0.406173
H140	H	0.491077	-0.222796	0.906173
H141	H	0.242227	-0.810077	0.318555
H142	H	0.742227	-0.310077	0.818555
F143	F	0.096942	-0.744613	0.384244
F144	F	0.596942	-0.244613	0.884244
H145	H	0.341275	-0.810063	0.318536
H146	H	0.841275	-0.310063	0.818536
H147	H	0.493411	-0.722800	0.406072
H148	H	0.993411	-0.222800	0.906072
H149	H	0.592477	-0.722787	0.406056
H150	H	1.092477	-0.222787	0.906056
