data_functionalizedCrystal
_audit_creation_method	'MofGen! by Chris Wilmer'
_symmetry_space_group_name_H-M	'P1'
_symmetry_Int_Tables_number	1
_symmetry_cell_setting	triclinic
loop_
_symmetry_equiv_pos_as_xyz
  x,y,z
_cell_length_a	14.446369
_cell_length_b	20.875641
_cell_length_c	20.875641
_cell_angle_alpha	60.089808
_cell_angle_beta	90.002056
_cell_angle_gamma	62.438463
loop_
_atom_site_label
_atom_site_type_symbol
_atom_site_fract_x
_atom_site_fract_y
_atom_site_fract_z
Zr1	Zr	0.934142	0.694313	-0.105746
O2	O	0.798485	0.820558	-0.209014
O3	O	0.970653	0.563057	-0.070814
O4	O	0.984286	0.687080	-0.204286
O5	O	0.779872	0.703989	0.026017
O6	O	1.136622	0.687074	-0.204282
O7	O	0.784852	0.696536	-0.075542
O8	O	1.112236	0.465220	0.034475
O9	O	0.804259	0.925843	-0.212740
O10	O	1.106044	0.618896	-0.059870
O11	O	0.988640	0.624463	0.015919
O12	O	1.004691	0.770484	-0.141226
O13	O	0.887287	0.776051	-0.065437
Zr14	Zr	1.169159	0.706192	0.056235
Zr15	Zr	1.177102	0.694305	-0.105740
Zr16	Zr	0.926200	0.706201	0.056229
Zr17	Zr	0.943351	0.862231	-0.111689
Zr18	Zr	1.159951	0.538275	0.062177
O19	O	1.132649	0.837449	0.021302
O20	O	1.143942	0.820546	-0.209005
O21	O	0.787192	0.837461	0.021293
O22	O	1.304817	0.579947	0.159503
O23	O	1.316110	0.563044	-0.070805
O24	O	0.959360	0.579959	0.159494
O25	O	1.323429	0.696516	-0.075528
O26	O	1.119016	0.713426	0.154774
O27	O	0.966680	0.713431	0.154770
O28	O	1.318450	0.703970	0.026031
O29	O	0.997379	0.925836	-0.212735
O30	O	1.105923	0.474669	0.163223
O31	O	1.299043	0.474662	0.163228
O32	O	1.305356	0.465213	0.034480
O33	O	0.797946	0.935292	-0.083991
O34	O	0.991066	0.935285	-0.083986
O35	O	1.098611	0.630021	0.091715
O36	O	1.216015	0.624455	0.015925
O37	O	1.114662	0.776042	-0.065431
O38	O	0.997258	0.781609	0.010358
C39	C	1.040133	0.490214	-0.017323
C40	C	1.036223	0.418928	-0.014800
C41	C	1.095667	0.382533	-0.053176
C42	C	1.091996	0.315548	-0.050799
C43	C	1.028875	0.284965	-0.010049
C44	C	0.969429	0.321364	0.028332
C45	C	0.973107	0.388343	0.025958
C46	C	1.011310	0.084955	0.001296
C47	C	1.007635	0.017973	0.003665
C48	C	1.130204	0.012161	-0.075465
C49	C	1.133871	0.079145	-0.077839
C50	C	1.074430	0.115534	-0.039454
N51	N	1.025119	0.216498	-0.007620
N52	N	1.078193	0.183996	-0.041880
C53	C	0.747746	0.700264	-0.024764
C54	C	0.644603	0.700267	-0.024766
C55	C	0.434001	0.795881	-0.075837
C56	C	0.541250	0.795928	-0.076106
C57	C	0.640290	0.648478	-0.057892
C58	C	0.532572	0.649081	-0.058263
C59	C	0.528052	0.655679	0.059517
C60	C	0.634130	0.657537	0.059321
C61	C	1.355556	0.700242	-0.024748
C62	C	1.458699	0.700238	-0.024745
C63	C	1.061585	0.685383	-0.227362
C64	C	1.064957	0.680336	-0.296124
C65	C	1.063169	0.910292	-0.032189
C66	C	1.067079	0.981577	-0.034711
C67	C	1.013638	0.757091	-0.370896
C68	C	1.016820	0.752344	-0.435503
C69	C	1.071316	0.670842	-0.425337
C70	C	1.122642	0.594082	-0.350557
C71	C	1.119465	0.598830	-0.285952
C72	C	1.086495	0.648157	-0.614002
C73	C	1.089664	0.643415	-0.678615
C74	C	0.983844	0.801677	-0.763557
C75	C	0.980667	0.806418	-0.698947
C76	C	1.031998	0.729658	-0.624173
N77	N	1.074567	0.665987	-0.491374
N78	N	1.028752	0.734513	-0.558137
C79	C	1.041716	0.715122	0.177850
C80	C	1.038345	0.720169	0.246613
C81	C	1.344038	0.490203	-0.017315
C82	C	1.443271	0.418914	-0.014790
C83	C	1.030198	0.505083	0.185283
C84	C	1.022917	0.438845	0.256568
C85	C	1.334103	0.505072	0.185291
C86	C	1.429965	0.438830	0.256579
C87	C	0.769199	0.895433	-0.234802
C88	C	0.673337	0.961675	-0.306090
C89	C	0.759264	0.910303	-0.032197
C90	C	0.660031	0.981592	-0.034722
C91	C	1.073104	0.895422	-0.234795
C92	C	1.080385	0.961661	-0.306080
C93	C	1.432469	0.382534	-0.053175
C94	C	1.525701	0.315558	-0.050818
C95	C	1.629734	0.284960	-0.010070
C96	C	1.640534	0.321347	0.028316
C97	C	1.547303	0.388325	0.025954
C98	C	1.076901	0.410640	0.329616
C99	C	1.070056	0.348412	0.396602
C100	C	1.009232	0.314384	0.390539
C101	C	0.955242	0.342595	0.317483
C102	C	0.962081	0.404827	0.250499
C103	C	1.536276	0.404816	0.250495
C104	C	1.626358	0.342583	0.317471
C105	C	1.610127	0.314361	0.390530
C106	C	1.503805	0.348381	0.396612
C107	C	1.413725	0.410617	0.329637
C108	C	0.567026	0.995697	-0.300007
C109	C	0.476945	1.057951	-0.366984
C110	C	0.493177	1.086177	-0.440043
C111	C	0.599499	1.052152	-0.446125
C112	C	0.689578	0.989905	-0.379149
C113	C	0.670834	1.017978	0.003656
C114	C	0.577604	1.084971	0.001281
C115	C	0.473571	1.115571	-0.039469
C116	C	0.462770	1.079182	-0.077852
C117	C	0.556000	1.012195	-0.075481
C118	C	1.141217	0.995669	-0.299992
C119	C	1.148080	1.057899	-0.366965
C120	C	1.094103	1.086124	-0.440026
C121	C	1.033268	1.052109	-0.446113
C122	C	1.026412	0.989876	-0.379140
H123	H	1.185269	0.104044	-0.111020
C124	C	1.485967	0.317320	0.476985
N125	N	1.472536	0.293917	0.537525
C126	C	1.754980	0.287672	0.073142
N127	N	1.841184	0.262301	0.106911
C128	C	0.589508	1.124981	0.043514
N129	N	0.598477	1.155112	0.075327
C130	C	1.200610	0.964628	-0.219631
N131	N	1.245354	0.941248	-0.159104
C132	C	0.785262	0.984335	0.048483
N133	N	0.871448	0.959003	0.082244
H134	H	1.549513	0.427785	0.191013
H135	H	0.956228	-0.006924	0.036848
C136	C	1.743303	0.305164	0.310764
N137	N	1.831383	0.276979	0.305710
C138	C	1.101653	1.154585	-0.513692
N139	N	1.107341	1.206151	-0.569174
H140	H	0.905720	0.314880	0.312558
C141	C	1.559204	0.428328	0.068193
N142	N	1.568175	0.458454	0.100010
H143	H	1.197616	1.085587	-0.361995
C144	C	0.959472	0.952486	-0.385850
N145	N	0.909046	0.924329	-0.390910
C146	C	0.561041	0.554036	-0.010993
N147	N	0.582487	0.482450	0.024607
C148	C	0.920726	0.896077	-0.710139
N149	N	0.875577	0.963609	-0.718569
C150	C	1.732280	0.211275	-0.007473
N151	N	1.809514	0.155772	-0.005516
C152	C	1.296783	0.448024	0.336342
N153	N	1.208704	0.476198	0.341398
C154	C	1.709229	0.245891	0.464199
N155	N	1.783877	0.194317	0.519683
C156	C	0.945961	0.124948	0.043549
N157	N	0.896752	0.155064	0.075387
H158	H	1.134040	0.577043	-0.670329
H159	H	0.553789	0.972719	-0.240524
C160	C	1.142950	0.563718	-0.531758
N161	N	1.185471	0.500115	-0.469807
H162	H	0.918040	0.296454	0.061516
H163	H	1.516886	0.285940	-0.082076
C164	C	1.182585	0.504428	-0.339375
N165	N	1.227730	0.436899	-0.330952
C166	C	0.460899	0.701427	0.097347
N167	N	0.410313	0.735895	0.125832
C168	C	1.129466	0.317384	0.476955
N169	N	1.174218	0.294012	0.537475
H170	H	0.634303	0.695345	0.084099
C171	C	0.348322	1.112841	-0.122662
N172	N	0.262116	1.138188	-0.156405
C173	C	1.001731	0.245919	0.464232
N174	N	0.996091	0.194347	0.519740
C175	C	0.902703	0.435835	0.170149
N176	N	0.857978	0.459185	0.109630
H177	H	0.390381	1.085644	-0.362017
H178	H	0.776139	0.962204	-0.384111
C179	C	0.617335	1.083202	-0.526498
N180	N	0.630766	1.106585	-0.587036
C181	C	0.394075	1.154645	-0.513711
N182	N	0.319426	1.206212	-0.569196
C183	C	0.371025	1.189256	-0.042067
N184	N	0.293791	1.244754	-0.044017
C185	C	0.544097	0.972167	-0.117693
N186	N	0.535123	0.942020	-0.149488
C187	C	0.540354	0.850469	-0.046400
N188	N	0.539662	0.891568	-0.024041
C189	C	0.973943	1.083134	-0.526486
N190	N	0.929272	1.106496	-0.587026
H191	H	0.969254	0.823459	-0.379184
C192	C	0.366607	0.842191	-0.159383
N193	N	0.315847	0.877068	-0.222310
C194	C	1.157361	0.275536	-0.093037
N195	N	1.206587	0.245405	-0.124860
C196	C	0.362462	0.850750	-0.046254
N197	N	0.308579	0.892076	-0.023967
C198	C	1.165107	0.416167	-0.098004
N199	N	1.217415	0.441496	-0.131767
H200	H	1.126430	0.438339	0.334567
H201	H	0.543918	0.830326	-0.138318
H202	H	1.178600	-0.017475	-0.106715
H203	H	0.487122	0.679613	-0.120189
H204	H	0.924698	0.417978	0.057206
H205	H	0.712941	0.577981	-0.022323
H206	H	0.647247	0.678260	-0.119214
H207	H	0.707436	0.588006	0.100318
H208	H	0.549740	0.585265	0.097723
H209	H	0.975033	0.814845	-0.496384
H210	H	1.161255	0.536328	-0.225069
H211	H	1.347769	0.407445	-0.086366
H212	H	0.942054	0.864171	-0.824443
