data_functionalizedCrystal
_audit_creation_method	'MofGen! by Chris Wilmer'
_symmetry_space_group_name_H-M	'P1'
_symmetry_Int_Tables_number	1
_symmetry_cell_setting	triclinic
loop_
_symmetry_equiv_pos_as_xyz
  x,y,z
_cell_length_a	13.262533
_cell_length_b	16.109301
_cell_length_c	15.186229
_cell_angle_alpha	90.005167
_cell_angle_beta	105.913449
_cell_angle_gamma	96.030687
loop_
_atom_site_label
_atom_site_type_symbol
_atom_site_fract_x
_atom_site_fract_y
_atom_site_fract_z
O1	O	1.392587	-0.112000	0.260296
O2	O	1.892587	0.388000	0.760296
O3	O	1.087009	-0.124173	0.187107
O4	O	1.587009	0.375827	0.687107
O5	O	1.248193	0.002913	0.225721
O6	O	1.748193	0.502913	0.725721
O7	O	1.231404	-0.239087	0.221682
O8	O	1.731404	0.260913	0.721682
O9	O	1.248182	0.002915	0.372176
O10	O	1.748182	0.502915	0.872176
O11	O	1.086998	-0.124171	0.333562
O12	O	1.586998	0.375829	0.833562
O13	O	1.392576	-0.111999	0.406751
O14	O	1.892576	0.388001	0.906751
Zn15	Zn	1.239786	-0.118085	0.393409
Zn16	Zn	1.739786	0.381915	0.893409
Zn17	Zn	1.239800	-0.118087	0.200449
Zn18	Zn	1.739800	0.381913	0.700449
O19	O	1.231393	-0.239085	0.368137
O20	O	1.731393	0.260915	0.868137
C21	C	1.047901	-0.123489	0.250969
C22	C	1.547901	0.376511	0.750969
C23	C	0.931388	-0.121445	0.223064
C24	C	1.431388	0.378555	0.723064
C25	C	0.602924	-0.115688	0.463733
C26	C	1.102924	0.384312	0.963733
C27	C	0.712394	-0.117613	0.489956
C28	C	1.212394	0.382387	0.989956
C29	C	0.767148	-0.118571	0.423235
C30	C	1.267148	0.381429	0.923235
C31	C	0.712422	-0.117604	0.330287
C32	C	1.212422	0.382396	0.830287
C33	C	0.602941	-0.115685	0.304061
C34	C	1.102941	0.384315	0.804061
C35	C	0.767164	-0.118568	0.263563
C36	C	1.267164	0.381432	0.763563
C37	C	0.712438	-0.117601	0.170615
C38	C	1.212438	0.382399	0.670615
C39	C	0.602968	-0.115682	0.144394
C40	C	1.102968	0.384318	0.644394
C41	C	0.548214	-0.114724	0.211115
C42	C	1.048214	0.385276	0.711115
C43	C	0.876645	-0.120487	0.289789
C44	C	1.376645	0.379513	0.789789
C45	C	0.876661	-0.120483	0.130117
C46	C	1.376661	0.379517	0.630117
C47	C	0.767192	-0.118558	0.103894
C48	C	1.267192	0.381442	0.603894
C49	C	1.247507	0.033892	0.298786
C50	C	1.747507	0.533892	0.798786
C51	C	1.245468	0.126194	0.298299
C52	C	1.745468	0.626194	0.798299
C53	C	1.431684	-0.112682	0.342887
C54	C	1.931684	0.387318	0.842887
C55	C	1.548197	-0.114727	0.370786
C56	C	2.048197	0.385273	0.870786
C57	C	1.232078	-0.270063	0.295070
C58	C	1.732078	0.229937	0.795070
C59	C	1.234117	-0.362366	0.295551
C60	C	1.734117	0.137634	0.795551
N61	N	1.239784	-0.118082	0.525101
N62	N	1.739784	0.381918	1.025101
C63	C	1.336370	0.348132	0.320057
C64	C	1.836370	0.848132	0.820057
C65	C	1.334446	0.434859	0.319589
C66	C	1.834446	0.934859	0.819589
C67	C	1.143208	0.415690	0.273789
C68	C	1.643208	0.915690	0.773789
C69	C	1.145133	0.328964	0.274251
C70	C	1.645133	0.828964	0.774251
C71	C	1.241717	0.295188	0.297390
C72	C	1.741717	0.795188	0.797390
C73	C	1.237868	0.468641	0.296460
C74	C	1.737868	0.968641	0.796460
C75	C	1.235781	0.562675	0.295952
C76	C	1.735781	1.062675	0.795952
C77	C	1.243805	0.201148	0.297896
C78	C	1.743805	0.701148	0.797896
N79	N	1.239810	-0.118083	0.068759
N80	N	1.739810	0.381917	0.568759
C81	C	1.311180	-0.061828	0.767928
C82	C	1.811180	0.438172	1.267928
C83	C	1.311183	-0.061826	0.860119
C84	C	1.811183	0.438174	1.360119
C85	C	1.168406	-0.174340	0.825923
C86	C	1.668406	0.325660	1.325923
C87	C	1.168399	-0.174337	0.733734
C88	C	1.668399	0.325663	1.233734
C89	C	1.239791	-0.118082	0.704740
C90	C	1.739791	0.381918	1.204740
C91	C	1.239802	-0.118083	0.889120
C92	C	1.739802	0.381917	1.389120
C93	C	1.239805	-0.118081	0.989077
C94	C	1.739805	0.381919	1.489077
C95	C	1.239787	-0.118083	0.604776
C96	C	1.739787	0.381917	1.104776
H97	H	0.921192	-0.121276	0.365468
H98	H	1.421192	0.378724	0.865468
O99	O	1.043032	0.271858	0.249807
O100	O	1.543032	0.771858	0.749807
H101	H	1.039331	0.231887	0.189223
H102	H	1.539331	0.731887	0.689223
H103	H	0.722618	-0.117772	0.028214
H104	H	1.222618	0.382228	0.528214
O105	O	1.091417	-0.235024	0.857197
O106	O	1.591417	0.264976	1.357197
H107	H	1.103423	-0.225583	0.931920
H108	H	1.603423	0.274417	1.431920
H109	H	1.369311	-0.016020	0.744324
H110	H	1.869311	0.483980	1.244324
O111	O	1.388193	-0.001162	0.928278
O112	O	1.888193	0.498838	1.428278
H113	H	1.437840	0.037946	0.892627
H114	H	1.937840	0.537946	1.392627
H115	H	0.756944	-0.118400	0.565634
H116	H	1.256944	0.381600	1.065634
H117	H	0.558333	-0.114915	0.518046
H118	H	1.058333	0.385085	1.018046
H119	H	1.415016	0.320634	0.338896
H120	H	1.915016	0.820634	0.838896
H121	H	0.856283	-0.120139	0.444591
H122	H	1.356283	0.379861	0.944591
O123	O	1.091401	-0.235017	0.665570
O124	O	1.591401	0.264983	1.165570
H125	H	1.041770	-0.274144	0.701220
H126	H	1.541770	0.225856	1.201220
H127	H	1.411523	0.477963	0.338045
H128	H	1.911523	0.977963	0.838045
H129	H	0.558411	-0.114903	0.068709
H130	H	1.058411	0.385097	0.568709
H131	H	0.921241	-0.121266	0.075787
H132	H	1.421241	0.378734	0.575787
H133	H	0.459076	-0.113149	0.189769
H134	H	0.959076	0.386851	0.689769
H135	H	1.064572	0.443202	0.254951
H136	H	1.564572	0.943202	0.754951
