data_functionalizedCrystal
_audit_creation_method	'MofGen! by Chris Wilmer'
_symmetry_space_group_name_H-M	'P1'
_symmetry_Int_Tables_number	1
_symmetry_cell_setting	triclinic
loop_
_symmetry_equiv_pos_as_xyz
  x,y,z
_cell_length_a	11.169417
_cell_length_b	19.120786
_cell_length_c	11.169409
_cell_angle_alpha	87.520717
_cell_angle_beta	89.980487
_cell_angle_gamma	92.466524
loop_
_atom_site_label
_atom_site_type_symbol
_atom_site_fract_x
_atom_site_fract_y
_atom_site_fract_z
Zn1	Zn	1.814457	-0.279552	-0.658094
Zn2	Zn	1.805729	-0.397034	-0.448821
Zn3	Zn	1.613739	-0.279596	-0.457426
Zn4	Zn	1.605137	-0.396977	-0.649471
O5	O	1.709765	-0.338290	-0.553453
O6	O	1.981248	-0.295142	-0.630341
O7	O	1.780208	-0.381497	-0.282010
O8	O	1.647618	-0.181299	-0.491255
O9	O	1.974836	-0.381455	-0.476589
O10	O	1.795084	-0.181267	-0.638684
O11	O	1.639155	-0.295216	-0.288332
O12	O	1.444649	-0.295161	-0.482894
O13	O	1.632956	-0.381359	-0.818568
O14	O	1.438329	-0.381401	-0.623989
O15	O	1.786742	-0.295087	-0.824903
O16	O	1.771867	-0.495317	-0.468228
O17	O	1.624493	-0.495276	-0.615645
C18	C	1.397941	-0.338280	-0.553440
C19	C	1.264540	-0.338293	-0.553462
C20	C	1.696332	-0.520782	-0.540093
C21	C	1.690695	-0.598854	-0.534418
C22	C	1.764767	-0.635455	-0.608573
C23	C	1.759465	-0.708811	-0.603242
C24	C	1.680097	-0.745565	-0.523750
C25	C	1.606016	-0.708958	-0.449592
C26	C	1.611313	-0.635604	-0.454930
C27	C	1.660261	-0.967052	-0.503797
C28	C	1.654973	-1.040412	-0.498463
C29	C	1.808421	-1.040259	-0.652115
C30	C	1.813715	-0.966903	-0.657440
C31	C	1.739631	-0.930304	-0.583287
C32	C	1.674678	-0.820546	-0.518297
C33	C	1.745044	-0.855323	-0.588747
C34	C	2.022807	-0.338300	-0.553467
C35	C	2.156207	-0.338304	-0.553473
C36	C	1.709863	-0.338212	-0.866501
C37	C	1.709905	-0.338179	-0.999904
C38	C	1.723284	-0.155084	-0.566891
C39	C	1.729045	-0.077013	-0.572618
C40	C	1.709741	-0.338317	-0.241626
C41	C	1.709946	-0.338152	-0.108239
H42	H	1.829402	-0.605534	-0.673298
H43	H	1.541388	-0.738889	-0.384873
H44	H	1.590336	-1.070335	-0.433730
N45	N	1.593644	-0.858112	-0.437089
N46	N	1.632990	-0.899061	-0.357693
H47	H	1.575765	-0.925599	-0.300340
N48	N	1.584563	-0.929684	-0.428063
N49	N	1.473221	-0.937948	-0.435344
H50	H	1.419749	-0.911558	-0.381854
H51	H	1.550994	-0.605804	-0.394546
N52	N	1.826122	-0.817774	-0.669924
N53	N	1.905568	-0.776821	-0.630722
H54	H	1.962836	-0.750296	-0.688048
H55	H	1.819792	-0.738608	-0.663618
N56	N	1.894842	-0.929390	-0.738622
N57	N	2.004990	-0.937566	-0.730116
H58	H	2.062307	-0.911082	-0.787446
N59	N	1.884085	-1.077656	-0.727846
N60	N	1.879352	-1.143151	-0.723073
H61	H	1.932790	-1.169564	-0.776563
