data_functionalizedCrystal
_audit_creation_method	'MofGen! by Chris Wilmer'
_symmetry_space_group_name_H-M	'P1'
_symmetry_Int_Tables_number	1
_symmetry_cell_setting	triclinic
loop_
_symmetry_equiv_pos_as_xyz
  x,y,z
_cell_length_a	10.654545
_cell_length_b	19.188930
_cell_length_c	9.730223
_cell_angle_alpha	89.990488
_cell_angle_beta	89.997167
_cell_angle_gamma	83.813930
loop_
_atom_site_label
_atom_site_type_symbol
_atom_site_fract_x
_atom_site_fract_y
_atom_site_fract_z
O1	O	1.665768	0.098047	-0.114293
O2	O	2.165768	0.598047	0.385707
O3	O	1.300091	0.107393	-0.114301
O4	O	1.800091	0.607393	0.385699
O5	O	1.493482	0.001133	-0.114270
O6	O	1.993482	0.501133	0.385730
O7	O	1.472377	0.204306	-0.114324
O8	O	1.972377	0.704306	0.385676
O9	O	1.493469	0.001130	0.114310
O10	O	1.993469	0.501130	0.614310
O11	O	1.300078	0.107390	0.114279
O12	O	1.800078	0.607390	0.614279
O13	O	1.665755	0.098044	0.114286
O14	O	2.165755	0.598044	0.614286
Zn15	Zn	1.482915	0.102716	0.150575
Zn16	Zn	1.982915	0.602716	0.650575
Zn17	Zn	1.482931	0.102720	-0.150589
Zn18	Zn	1.982931	0.602720	0.349411
O19	O	1.472364	0.204304	0.114256
O20	O	1.972364	0.704304	0.614256
C21	C	1.253301	0.106706	-0.000011
C22	C	1.753301	0.606706	0.499989
C23	C	1.113901	0.104655	-0.000013
C24	C	1.613901	0.604655	0.499987
C25	C	1.048410	0.103687	0.124587
C26	C	1.548410	0.603687	0.624587
C27	C	0.917432	0.101749	0.124587
C28	C	1.417432	0.601749	0.624587
C29	C	0.917446	0.101747	-0.124623
C30	C	1.417446	0.601747	0.375377
C31	C	1.048423	0.103681	-0.124622
C32	C	1.548423	0.603681	0.375378
C33	C	1.492792	-0.024884	0.000024
C34	C	1.992792	0.475116	0.500024
C35	C	1.490741	-0.102402	0.000036
C36	C	1.990741	0.397598	0.500036
C37	C	1.604216	-0.146585	0.000044
C38	C	2.104216	0.353415	0.500044
C39	C	1.602289	-0.219421	0.000022
C40	C	2.102289	0.280579	0.500022
C41	C	1.486879	-0.248071	0.000019
C42	C	1.986879	0.251929	0.500019
C43	C	1.373389	-0.203879	0.000002
C44	C	1.873389	0.296121	0.500002
C45	C	1.375319	-0.131044	0.000011
C46	C	1.875319	0.368956	0.500011
N47	N	1.398658	-0.356653	0.077807
N48	N	1.898658	0.143347	0.577807
N49	N	1.396832	-0.425844	0.077802
N50	N	1.896832	0.074156	0.577802
C51	C	1.481055	-0.467518	-0.000009
C52	C	1.981055	0.032482	0.499991
N53	N	1.567193	-0.437389	-0.077798
N54	N	2.067193	0.062611	0.422202
N55	N	1.569023	-0.368192	-0.077787
N56	N	2.069023	0.131808	0.422213
C57	C	1.484773	-0.327048	0.000009
C58	C	1.984773	0.172952	0.500009
C59	C	1.592448	-0.590679	-0.000026
C60	C	2.092448	-0.090679	0.499974
C61	C	1.590516	-0.663516	-0.000056
C62	C	2.090516	-0.163516	0.499944
C63	C	1.361613	-0.647972	-0.000063
C64	C	1.861613	-0.147972	0.499937
C65	C	1.363548	-0.575137	-0.000046
C66	C	1.863548	-0.075137	0.499954
C67	C	1.478970	-0.546494	-0.000021
C68	C	1.978970	-0.046494	0.499979
C69	C	1.712545	0.098731	-0.000006
C70	C	2.212545	0.598731	0.499994
C71	C	1.851945	0.100782	-0.000013
C72	C	2.351945	0.600782	0.499987
C73	C	1.473054	0.230320	-0.000041
C74	C	1.973054	0.730320	0.499959
C75	C	1.475105	0.307838	-0.000062
C76	C	1.975105	0.807838	0.499938
N77	N	1.482913	0.102713	0.356111
N78	N	1.982913	0.602713	0.856111
N79	N	1.482943	0.102718	-0.356126
N80	N	1.982943	0.602718	0.143874
C81	C	1.568575	0.055682	0.428051
C82	C	2.068575	0.555682	0.928051
C83	C	1.568588	0.055682	0.571934
C84	C	2.068588	0.555682	1.071934
C85	C	1.397272	0.149752	0.571925
C86	C	1.897272	0.649752	1.071925
C87	C	1.397254	0.149748	0.428044
C88	C	1.897254	0.649748	0.928044
H89	H	1.698201	-0.123269	0.000060
H90	H	2.198201	0.376731	0.500060
F91	F	1.306071	0.199805	0.351475
F92	F	1.806071	0.699805	0.851475
F93	F	1.118128	0.104706	-0.257246
F94	F	1.618128	0.604706	0.242754
F95	F	1.242770	-0.528112	-0.000050
F96	F	1.742770	-0.028112	0.499950
H97	H	1.694697	-0.255402	0.000024
H98	H	2.194697	0.244598	0.500024
F99	F	1.238784	-0.678459	-0.000073
F100	F	1.738784	-0.178459	0.499927
F101	F	1.254537	-0.084019	0.000001
F102	F	1.754537	0.415981	0.500001
F103	F	1.118093	0.104721	0.257207
F104	F	1.618093	0.604721	0.757207
F105	F	0.847737	0.100720	0.257204
F106	F	1.347737	0.600720	0.757204
F107	F	1.659738	0.005622	0.351499
F108	F	2.159738	0.505622	0.851499
H109	H	1.279421	-0.227211	-0.000003
H110	H	1.779421	0.272789	0.499997
F111	F	1.659758	0.005623	0.648492
F112	F	2.159758	0.505623	1.148492
F113	F	0.847752	0.100697	-0.257233
F114	F	1.347752	0.600697	0.242767
F115	F	1.715288	-0.560193	0.000007
F116	F	2.215288	-0.060193	0.500007
H117	H	1.327532	0.188047	0.630507
H118	H	1.827532	0.688047	1.130507
F119	F	1.711299	-0.710540	-0.000056
F120	F	2.211299	-0.210540	0.499944
