data_functionalizedCrystal
_audit_creation_method	'MofGen! by Chris Wilmer'
_symmetry_space_group_name_H-M	'P1'
_symmetry_Int_Tables_number	1
_symmetry_cell_setting	triclinic
loop_
_symmetry_equiv_pos_as_xyz
  x,y,z
_cell_length_a	12.759401
_cell_length_b	29.839131
_cell_length_c	29.839125
_cell_angle_alpha	89.988394
_cell_angle_beta	89.987900
_cell_angle_gamma	90.042945
loop_
_atom_site_label
_atom_site_type_symbol
_atom_site_fract_x
_atom_site_fract_y
_atom_site_fract_z
Zn1	Zn	1.605980	-0.178925	-0.253987
Zn2	Zn	1.605816	-0.254029	-0.178857
Zn3	Zn	1.430305	-0.178916	-0.178871
Zn4	Zn	1.430188	-0.254031	-0.253960
O5	O	1.518072	-0.216475	-0.216419
O6	O	1.752979	-0.188891	-0.244026
O7	O	1.582515	-0.244061	-0.115992
O8	O	1.453726	-0.116050	-0.188853
O9	O	1.752859	-0.244070	-0.188828
O10	O	1.582794	-0.116057	-0.244040
O11	O	1.453568	-0.188875	-0.116002
O12	O	1.283269	-0.188877	-0.188827
O13	O	1.453527	-0.244072	-0.316831
O14	O	1.283183	-0.244064	-0.243995
O15	O	1.582680	-0.188893	-0.316850
O16	O	1.582401	-0.316896	-0.188802
O17	O	1.453368	-0.316898	-0.243980
C18	C	1.245105	-0.216470	-0.216410
C19	C	1.128328	-0.216478	-0.216417
C20	C	1.073449	-0.245258	-0.245097
C21	C	0.963725	-0.245259	-0.245106
C22	C	0.963769	-0.187701	-0.187750
C23	C	1.073491	-0.187697	-0.187744
C24	C	0.813792	-0.261403	-0.298068
C25	C	0.758909	-0.290189	-0.326744
C26	C	0.794457	-0.334035	-0.333559
C27	C	0.884885	-0.349103	-0.311690
C28	C	0.939763	-0.320319	-0.283011
C29	C	0.904217	-0.276467	-0.276205
C30	C	1.223426	-0.171559	-0.134782
C31	C	1.278305	-0.142777	-0.106099
C32	C	1.242760	-0.098930	-0.099280
C33	C	1.152328	-0.083863	-0.121141
C34	C	1.097448	-0.112645	-0.149823
C35	C	1.133001	-0.156491	-0.156643
C36	C	1.517883	-0.333198	-0.216397
C37	C	1.517897	-0.383132	-0.216402
C38	C	1.585382	-0.692762	-0.187730
C39	C	1.585511	-0.880435	-0.187747
O40	O	1.642739	-0.904689	-0.163351
N41	N	1.518290	-0.903917	-0.216453
C42	C	1.451036	-0.880478	-0.245158
O43	O	1.393871	-0.904757	-0.269578
C44	C	1.450913	-0.692806	-0.245143
C45	C	1.518131	-0.669326	-0.216432
C46	C	1.652595	-0.669283	-0.159021
C47	C	1.652558	-0.622367	-0.159016
C48	C	1.585307	-0.598931	-0.187718
C49	C	1.518094	-0.622411	-0.216426
C50	C	1.383665	-0.669368	-0.273850
C51	C	1.383642	-0.622446	-0.273845
C52	C	1.450860	-0.598967	-0.245134
C53	C	1.450806	-0.552060	-0.245123
N54	N	1.518027	-0.528578	-0.216417
C55	C	1.585278	-0.552014	-0.187715
C56	C	1.451105	-0.979009	-0.245164
C57	C	1.451134	-1.025926	-0.245167
C58	C	1.585611	-1.025881	-0.187756
C59	C	1.585575	-0.978962	-0.187751
C60	C	1.518326	-0.955527	-0.216458
C61	C	1.585194	-0.453488	-0.187704
C62	C	1.585148	-0.406568	-0.187700
C63	C	1.450676	-0.406618	-0.245112
C64	C	1.450718	-0.453534	-0.245115
C65	C	1.517985	-0.476967	-0.216410
O66	O	1.393617	-0.527777	-0.269509
O67	O	1.642451	-0.527726	-0.163306
C68	C	1.585419	-0.739678	-0.187735
C69	C	1.518205	-0.763157	-0.216443
C70	C	1.450955	-0.739721	-0.245146
C71	C	1.518235	-0.810075	-0.216447
C72	C	1.585485	-0.833511	-0.187745
C73	C	1.652707	-0.810029	-0.159039
C74	C	1.652670	-0.763114	-0.159033
C75	C	1.383733	-0.763203	-0.273852
C76	C	1.383775	-0.810119	-0.273855
C77	C	1.451026	-0.833555	-0.245152
C78	C	1.792105	-0.216481	-0.216428
C79	C	1.908882	-0.216484	-0.216432
C80	C	1.518109	-0.216484	-0.333597
C81	C	1.518124	-0.216487	-0.383532
C82	C	1.518291	-0.099297	-0.216451
C83	C	1.518385	-0.049362	-0.216465
C84	C	1.450947	-0.245116	-0.740109
C85	C	1.450909	-0.245168	-0.552436
O86	O	1.393689	-0.269594	-0.528163
N87	N	1.518147	-0.216446	-0.528977
C88	C	1.585395	-0.187706	-0.552439
O89	O	1.642577	-0.163274	-0.528180
C90	C	1.585427	-0.187652	-0.740111
C91	C	1.518191	-0.216380	-0.763568
C92	C	1.383716	-0.273841	-0.763565
C93	C	1.383731	-0.273830	-0.810481
C94	C	1.450975	-0.245093	-0.833940
C95	C	1.518206	-0.216368	-0.810483
C96	C	1.652668	-0.158911	-0.763573
C97	C	1.652668	-0.158899	-0.810494
C98	C	1.585433	-0.187627	-0.833950
C99	C	1.585464	-0.187621	-0.880858
N100	N	1.518226	-0.216343	-0.904317
C101	C	1.450982	-0.245079	-0.880858
C102	C	1.585375	-0.187737	-0.453909
C103	C	1.585369	-0.187751	-0.406991
C104	C	1.450881	-0.245212	-0.406990
C105	C	1.450894	-0.245200	-0.453909
C106	C	1.518137	-0.216459	-0.477367
C107	C	1.451017	-0.245053	-0.979384
C108	C	1.451040	-0.245041	-1.026303
C109	C	1.585523	-0.187578	-1.026299
C110	C	1.585504	-0.187592	-0.979384
C111	C	1.518243	-0.216331	-0.955927
O112	O	1.642646	-0.163204	-0.905160
O113	O	1.393792	-0.269501	-0.905125
C114	C	1.450933	-0.245128	-0.693193
C115	C	1.518163	-0.216403	-0.669737
C116	C	1.585408	-0.187667	-0.693196
C117	C	1.518157	-0.216417	-0.622819
C118	C	1.450912	-0.245153	-0.599360
C119	C	1.383674	-0.273876	-0.622819
C120	C	1.383688	-0.273864	-0.669734
C121	C	1.652646	-0.158944	-0.669737
C122	C	1.652627	-0.158958	-0.622822
C123	C	1.585383	-0.187695	-0.599363
C124	C	1.518097	-0.216434	-0.099696
C125	C	1.518285	-0.216304	-0.049762
H126	H	0.685282	-0.277916	-0.344550
C127	C	1.659337	-0.156154	-0.381192
C128	C	1.650850	-0.105081	-0.387642
C129	C	1.724817	-0.073480	-0.361846
C130	C	1.807271	-0.092952	-0.329599
C131	C	1.815761	-0.144028	-0.323148
C132	C	1.741794	-0.175628	-0.348944
H133	H	1.589810	-0.090664	-0.411514
H134	H	1.718531	-0.035671	-0.366622
H135	H	1.862025	-0.069560	-0.310503
H136	H	1.876801	-0.158445	-0.299276
H137	H	1.748080	-0.213438	-0.344168
H138	H	1.013387	-0.332588	-0.265205
C139	C	0.923981	-0.397338	-0.319184
C140	C	0.863620	-0.428999	-0.350731
C141	C	0.902721	-0.477233	-0.358225
C142	C	1.002182	-0.493807	-0.334173
C143	C	1.062549	-0.462145	-0.302623
C144	C	1.023449	-0.413911	-0.295129
H145	H	0.789988	-0.416731	-0.368538
H146	H	0.858033	-0.500671	-0.381580
H147	H	1.031127	-0.529513	-0.339721
H148	H	1.136182	-0.474414	-0.284816
H149	H	1.068137	-0.390473	-0.271774
C150	C	1.659522	-0.953137	-0.156172
C151	C	1.651036	-0.959608	-0.105098
C152	C	1.724988	-0.933785	-0.073518
C153	C	1.807428	-0.901491	-0.093013
C154	C	1.815918	-0.895019	-0.144090
C155	C	1.741966	-0.920841	-0.175669
H156	H	1.590006	-0.983515	-0.090664
H157	H	1.718703	-0.938577	-0.035708
H158	H	1.862172	-0.882376	-0.069636
H159	H	1.876948	-0.871111	-0.158523
H160	H	1.748251	-0.916049	-0.213480
C161	C	1.376896	-0.276819	-0.381182
C162	C	1.294451	-0.257348	-0.348924
C163	C	1.220459	-0.288948	-0.323115
C164	C	1.228912	-0.340020	-0.329563
C165	C	1.311360	-0.359493	-0.361823
C166	C	1.385352	-0.327893	-0.387632
H167	H	1.288190	-0.219539	-0.344149
H168	H	1.159425	-0.274532	-0.299234
H169	H	1.174139	-0.363412	-0.310457
H170	H	1.317621	-0.397302	-0.366598
H171	H	1.446386	-0.342309	-0.411513
H172	H	1.707462	-0.829119	-0.135667
C173	C	1.726627	-0.127334	-0.695537
C174	C	1.809093	-0.146793	-0.727792
C175	C	1.883086	-0.115182	-0.753589
C176	C	1.874613	-0.064113	-0.747130
C177	C	1.792143	-0.044651	-0.714873
C178	C	1.718151	-0.076261	-0.689076
H179	H	1.815368	-0.184600	-0.732575
H180	H	1.944135	-0.129590	-0.777468
H181	H	1.929386	-0.040713	-0.766227
H182	H	1.785868	-0.006844	-0.710091
H183	H	1.657101	-0.061854	-0.665197
H184	H	1.707422	-0.135492	-0.829591
C185	C	0.734089	-0.365699	-0.365105
C186	C	0.618830	-0.377448	-0.355236
C187	C	0.558460	-0.409109	-0.386783
C188	C	0.613349	-0.429022	-0.428200
C189	C	0.728615	-0.417274	-0.438071
C190	C	0.788985	-0.385613	-0.406523
H191	H	0.578192	-0.362707	-0.324575
H192	H	0.473132	-0.417805	-0.379476
H193	H	0.568659	-0.452460	-0.451553
H194	H	0.769252	-0.432015	-0.468731
H195	H	0.874312	-0.376916	-0.413830
C196	C	1.659466	-0.155995	-0.953577
C197	C	1.650983	-0.104922	-0.960028
C198	C	1.724937	-0.073322	-0.934224
C199	C	1.807374	-0.092795	-0.901970
C200	C	1.815860	-0.143870	-0.895518
C201	C	1.741906	-0.175470	-0.921322
H202	H	1.589955	-0.090505	-0.983906
H203	H	1.718654	-0.035512	-0.939001
H204	H	1.862119	-0.069402	-0.882869
H205	H	1.876888	-0.158287	-0.871640
H206	H	1.748189	-0.213280	-0.916545
C207	C	1.726590	-0.127355	-0.597022
C208	C	1.809040	-0.146821	-0.564770
C209	C	1.882992	-0.115215	-0.538972
C210	C	1.874494	-0.064143	-0.545427
C211	C	1.792041	-0.044674	-0.577680
C212	C	1.718089	-0.076280	-0.603478
H213	H	1.815334	-0.184630	-0.559991
H214	H	1.944029	-0.129627	-0.515096
H215	H	1.929238	-0.040747	-0.526329
H216	H	1.785747	-0.006865	-0.582459
H217	H	1.657052	-0.061868	-0.627354
H218	H	1.640275	-0.164183	-1.045408
H219	H	1.118094	-0.268692	-0.268446
C220	C	0.774693	-0.213169	-0.290576
C221	C	0.675224	-0.196599	-0.314625
C222	C	0.636119	-0.148365	-0.307133
C223	C	0.696483	-0.116700	-0.275591
C224	C	0.795959	-0.133269	-0.251540
C225	C	0.835064	-0.181503	-0.259032
H226	H	0.630533	-0.220040	-0.337976
H227	H	0.562480	-0.136100	-0.324938
H228	H	0.667536	-0.080994	-0.270045
H229	H	0.840650	-0.109828	-0.228189
H230	H	0.908703	-0.193768	-0.241227
H231	H	1.395986	-0.472652	-0.268495
H232	H	0.919107	-0.164269	-0.164405
C233	C	1.113196	-0.035636	-0.113628
C234	C	1.173543	-0.003981	-0.082071
C235	C	1.134401	0.044244	-0.074549
C236	C	1.034912	0.060812	-0.098584
C237	C	0.974558	0.029156	-0.130143
C238	C	1.013701	-0.019069	-0.137665
H239	H	1.247197	-0.016245	-0.064277
H240	H	1.179079	0.067678	-0.051186
H241	H	1.005936	0.096510	-0.093015
H242	H	0.900905	0.041420	-0.147937
H243	H	0.969022	-0.042503	-0.161027
H244	H	1.252382	-0.207261	-0.140336
H245	H	1.707405	-0.744000	-0.135654
C246	C	1.309739	-0.305456	-0.737768
C247	C	1.190313	-0.301791	-0.744221
C248	C	1.116335	-0.333411	-0.718429
C249	C	1.161783	-0.368698	-0.686184
C250	C	1.281215	-0.372365	-0.679730
C251	C	1.355193	-0.340744	-0.705522
H252	H	1.156664	-0.275668	-0.768091
H253	H	1.027923	-0.330696	-0.723207
H254	H	1.107020	-0.392105	-0.667091
H255	H	1.314864	-0.398488	-0.655859
H256	H	1.443605	-0.343459	-0.700744
C257	C	1.309704	-0.305486	-0.597008
C258	C	1.227256	-0.286021	-0.564747
C259	C	1.153287	-0.317628	-0.538933
C260	C	1.161765	-0.368699	-0.545379
C261	C	1.244217	-0.388166	-0.577642
C262	C	1.318186	-0.356560	-0.603456
H263	H	1.220976	-0.248213	-0.559973
H264	H	1.092250	-0.303217	-0.515050
H265	H	1.107009	-0.392096	-0.526270
H266	H	1.250496	-0.425975	-0.582415
H267	H	1.379222	-0.370971	-0.627338
H268	H	1.023819	-0.100373	-0.167626
H269	H	1.287448	-0.075497	-0.075920
C270	C	1.659593	-1.051666	-0.156185
C271	C	1.659622	-1.103273	-0.156195
C272	C	1.733607	-1.129061	-0.124629
C273	C	1.807563	-1.103240	-0.093052
C274	C	1.807537	-1.051630	-0.093041
C275	C	1.733552	-1.025842	-0.124608
H276	H	1.604873	-1.122390	-0.179571
H277	H	1.733626	-1.167266	-0.124637
H278	H	1.862331	-1.122329	-0.069685
H279	H	1.862286	-1.032513	-0.069666
H280	H	1.733533	-0.987636	-0.124599
H281	H	1.351940	-0.155048	-0.088299
H282	H	1.639885	-0.387453	-0.164318
H283	H	1.639973	-0.472562	-0.164331
H284	H	1.707296	-0.603253	-0.135638
C285	C	1.726578	-0.695056	-0.127444
C286	C	1.718069	-0.688614	-0.076370
C287	C	1.792051	-0.714383	-0.044788
C288	C	1.874541	-0.746595	-0.064279
C289	C	1.883053	-0.753039	-0.115355
C290	C	1.809071	-0.727269	-0.146938
H291	H	1.657002	-0.664768	-0.061939
H292	H	1.785749	-0.709613	-0.006977
H293	H	1.929307	-0.765671	-0.040900
H294	H	1.944120	-0.776885	-0.129786
H295	H	1.815373	-0.732040	-0.184748
H296	H	1.328978	-0.297222	-0.829575
C297	C	1.309748	-0.737427	-0.305424
C298	C	1.355176	-0.705140	-0.340712
C299	C	1.281181	-0.679365	-0.372285
C300	C	1.161758	-0.685877	-0.368568
C301	C	1.116324	-0.718165	-0.333279
C302	C	1.190319	-0.743940	-0.301706
H303	H	1.443586	-0.700318	-0.343465
H304	H	1.314815	-0.655463	-0.398409
H305	H	1.106983	-0.666797	-0.391940
H306	H	1.027914	-0.722987	-0.330526
H307	H	1.156685	-0.767842	-0.275582
H308	H	1.396388	-1.045040	-0.268542
C309	C	1.309827	-0.835942	-0.305440
C310	C	1.190392	-0.829545	-0.301733
C311	C	1.116455	-0.855366	-0.333320
C312	C	1.161953	-0.887585	-0.368615
C313	C	1.281394	-0.893984	-0.372323
C314	C	1.355332	-0.868163	-0.340736
H315	H	1.156706	-0.805693	-0.275605
H316	H	1.028036	-0.850629	-0.330575
H317	H	1.107220	-0.906699	-0.391997
H318	H	1.315080	-0.917836	-0.398451
H319	H	1.443750	-0.872900	-0.343481
H320	H	1.396289	-0.268436	-1.045399
H321	H	1.396237	-0.268452	-0.960291
H322	H	1.640137	-0.164332	-0.473004
C323	C	1.309660	-0.596668	-0.305422
C324	C	1.190236	-0.603177	-0.301711
C325	C	1.116253	-0.577399	-0.333286
C326	C	1.161694	-0.545113	-0.368572
C327	C	1.281125	-0.538603	-0.372284
C328	C	1.355108	-0.564380	-0.340709
H329	H	1.156591	-0.627078	-0.275589
H330	H	1.027842	-0.582219	-0.330538
H331	H	1.106928	-0.526031	-0.391946
H332	H	1.314770	-0.514701	-0.398406
H333	H	1.443519	-0.559561	-0.343457
H334	H	1.396339	-0.959931	-0.268541
H335	H	1.328924	-0.688476	-0.297228
H336	H	1.395918	-0.387529	-0.268480
H337	H	1.396144	-0.268593	-0.473004
H338	H	1.707419	-0.135518	-0.744483
H339	H	1.328938	-0.297257	-0.688828
