data_functionalizedCrystal
_audit_creation_method	'MofGen! by Chris Wilmer'
_symmetry_space_group_name_H-M	'P1'
_symmetry_Int_Tables_number	1
_symmetry_cell_setting	triclinic
loop_
_symmetry_equiv_pos_as_xyz
  x,y,z
_cell_length_a	25.639242
_cell_length_b	25.639240
_cell_length_c	25.639233
_cell_angle_alpha	90.025929
_cell_angle_beta	90.022166
_cell_angle_gamma	90.028283
loop_
_atom_site_label
_atom_site_type_symbol
_atom_site_fract_x
_atom_site_fract_y
_atom_site_fract_z
Zn1	Zn	0.799247	-0.208277	0.295716
Zn2	Zn	1.299247	0.291723	0.795716
Zn3	Zn	0.799179	-0.295696	0.208270
Zn4	Zn	1.299179	0.204304	0.708270
Zn5	Zn	0.711823	-0.208269	0.208280
Zn6	Zn	1.211823	0.291731	0.708280
Zn7	Zn	0.711777	-0.295676	0.295659
Zn8	Zn	1.211777	0.204324	0.795659
O9	O	0.755506	-0.251979	0.251981
O10	O	1.255506	0.248021	0.751981
O11	O	0.872403	-0.219884	0.284135
O12	O	1.372403	0.280116	0.784135
O13	O	0.787582	-0.284103	0.135106
O14	O	1.287582	0.215897	0.635106
O15	O	0.723467	-0.135105	0.219907
O16	O	1.223467	0.364895	0.719907
O17	O	0.872353	-0.284111	0.219889
O18	O	1.372353	0.215889	0.719889
O19	O	0.787697	-0.135111	0.284146
O20	O	1.287697	0.364889	0.784146
O21	O	0.723402	-0.219871	0.135114
O22	O	1.223402	0.280129	0.635114
O23	O	0.638652	-0.219853	0.219852
O24	O	1.138652	0.280147	0.719852
O25	O	0.723389	-0.284078	0.368832
O26	O	1.223389	0.215922	0.868832
O27	O	0.638618	-0.284070	0.284049
O28	O	1.138618	0.215930	0.784049
O29	O	0.787653	-0.219866	0.368874
O30	O	1.287653	0.280134	0.868874
O31	O	0.787538	-0.368858	0.219834
O32	O	1.287538	0.131142	0.719834
O33	O	0.723324	-0.368844	0.284039
O34	O	1.223324	0.131156	0.784039
C35	C	0.619664	-0.251959	0.251946
C36	C	1.119664	0.248041	0.751946
C37	C	0.561550	-0.251963	0.251943
C38	C	1.061550	0.248037	0.751943
C39	C	0.755433	-0.387822	0.251940
C40	C	1.255433	0.112178	0.751940
C41	C	0.755449	-0.445936	0.251940
C42	C	1.255449	0.054064	0.751940
C43	C	0.201178	-0.285473	0.285377
C44	C	0.701178	0.214527	0.785377
C45	C	0.146574	-0.285477	0.285385
C46	C	0.646574	0.214523	0.785385
O47	O	0.118330	-0.313943	0.313782
O48	O	0.618330	0.186057	0.813782
N49	N	0.119267	-0.251994	0.252015
N50	N	0.619267	0.248006	0.752015
C51	C	0.146568	-0.218502	0.218639
C52	C	0.646568	0.281498	0.718639
O53	O	0.118328	-0.190022	0.190256
O54	O	0.618328	0.309978	0.690256
C55	C	0.201171	-0.218496	0.218634
C56	C	0.701171	0.281504	0.718634
C57	C	0.228475	-0.251985	0.252002
C58	C	0.728475	0.248015	0.752002
C59	C	0.228482	-0.318959	0.318743
C60	C	0.728482	0.181041	0.818743
C61	C	0.283082	-0.318956	0.318734
C62	C	0.783082	0.181044	0.818734
C63	C	0.310379	-0.285468	0.285359
C64	C	0.810379	0.214532	0.785359
C65	C	0.283076	-0.251983	0.251993
C66	C	0.783076	0.248017	0.751993
C67	C	0.228471	-0.185002	0.185260
C68	C	0.728471	0.314998	0.685260
C69	C	0.283078	-0.184999	0.185258
C70	C	0.783078	0.315001	0.685258
C71	C	0.310382	-0.218488	0.218626
C72	C	0.810382	0.281512	0.718626
C73	C	0.364973	-0.218492	0.218609
C74	C	0.864973	0.281508	0.718609
N75	N	0.392279	-0.251974	0.251979
N76	N	0.892279	0.248026	0.751979
C77	C	0.364983	-0.285463	0.285354
C78	C	0.864983	0.214537	0.785354
C79	C	0.031897	-0.218515	0.218653
C80	C	0.531897	0.281485	0.718653
C81	C	-0.022705	-0.218523	0.218655
C82	C	0.477295	0.281477	0.718655
C83	C	-0.022695	-0.285497	0.285402
C84	C	0.477305	0.214503	0.785402
C85	C	0.031908	-0.285492	0.285397
C86	C	0.531908	0.214508	0.785397
C87	C	0.059204	-0.251998	0.252023
C88	C	0.559204	0.248002	0.752023
C89	C	0.479648	-0.285455	0.285332
C90	C	0.979648	0.214545	0.785332
C91	C	0.534253	-0.285451	0.285318
C92	C	1.034253	0.214549	0.785318
C93	C	0.534239	-0.218475	0.218573
C94	C	1.034239	0.281525	0.718573
C95	C	0.479638	-0.218481	0.218585
C96	C	0.979638	0.281519	0.718585
C97	C	0.452344	-0.251972	0.251968
C98	C	0.952344	0.248028	0.751968
O99	O	0.393252	-0.190038	0.190228
O100	O	0.893252	0.309962	0.690228
O101	O	0.393229	-0.313933	0.313736
O102	O	0.893229	0.186067	0.813736
C103	C	0.788967	-0.806264	0.285491
C104	C	1.288967	-0.306264	0.785491
C105	C	0.788983	-0.860868	0.285501
C106	C	1.288983	-0.360868	0.785501
O107	O	0.817394	-0.889074	0.313985
O108	O	1.317394	-0.389074	0.813985
N109	N	0.755579	-0.888218	0.252032
N110	N	1.255579	-0.388218	0.752032
C111	C	0.722154	-0.860962	0.218553
C112	C	1.222154	-0.360962	0.718553
O113	O	0.693742	-0.889240	0.190086
O114	O	1.193742	-0.389240	0.690086
C115	C	0.722136	-0.806359	0.218546
C116	C	1.222136	-0.306359	0.718546
C117	C	0.755546	-0.779011	0.252014
C118	C	1.255546	-0.279011	0.752014
C119	C	0.822374	-0.778916	0.318956
C120	C	1.322374	-0.278916	0.818956
C121	C	0.822359	-0.724315	0.318945
C122	C	1.322359	-0.224315	0.818945
C123	C	0.788938	-0.697062	0.285468
C124	C	1.288938	-0.197062	0.785468
C125	C	0.755531	-0.724410	0.252002
C126	C	1.255531	-0.224410	0.752002
C127	C	0.688708	-0.779103	0.185070
C128	C	1.188708	-0.279103	0.685070
C129	C	0.688693	-0.724496	0.185066
C130	C	1.188693	-0.224496	0.685066
C131	C	0.722103	-0.697148	0.218534
C132	C	1.222103	-0.197148	0.718534
C133	C	0.722095	-0.642557	0.218514
C134	C	1.222095	-0.142557	0.718514
N135	N	0.755498	-0.615206	0.251983
N136	N	1.255498	-0.115206	0.751983
C137	C	0.788920	-0.642459	0.285460
C138	C	1.288920	-0.142459	0.785460
C139	C	0.722193	-0.975633	0.218572
C140	C	1.222193	-0.475633	0.718572
C141	C	0.722213	-1.030235	0.218577
C142	C	1.222213	-0.530235	0.718577
C143	C	0.789041	-1.030137	0.285526
C144	C	1.289041	-0.530137	0.785526
C145	C	0.789024	-0.975534	0.285518
C146	C	1.289024	-0.475534	0.785518
C147	C	0.755597	-0.948282	0.252042
C148	C	1.255597	-0.448282	0.752042
C149	C	0.788887	-0.527794	0.285433
C150	C	1.288887	-0.027794	0.785433
C151	C	0.788870	-0.473189	0.285417
C152	C	1.288870	0.026811	0.785417
C153	C	0.722040	-0.473291	0.218471
C154	C	1.222040	0.026709	0.718471
C155	C	0.722058	-0.527892	0.218484
C156	C	1.222058	-0.027892	0.718484
C157	C	0.755483	-0.555142	0.251970
C158	C	1.255483	-0.055142	0.751970
O159	O	0.693697	-0.614316	0.190046
O160	O	1.193697	-0.114316	0.690046
O161	O	0.817322	-0.614175	0.313927
O162	O	1.317322	-0.114175	0.813927
C163	C	0.891879	-0.252000	0.252017
C164	C	1.391879	0.248000	0.752017
C165	C	0.949993	-0.252009	0.252032
C166	C	1.449993	0.247991	0.752032
C167	C	0.755523	-0.251970	0.388354
C168	C	1.255523	0.248030	0.888354
C169	C	0.755530	-0.251966	0.446468
C170	C	1.255530	0.248034	0.946468
C171	C	0.755595	-0.115606	0.252034
C172	C	1.255595	0.384394	0.752034
C173	C	0.755632	-0.057492	0.252056
C174	C	1.255632	0.442508	0.752056
C175	C	0.755520	-0.251951	0.116139
C176	C	1.255520	0.248049	0.616139
C177	C	0.755614	-0.251807	0.058025
C178	C	1.255614	0.248193	0.558025
C179	C	0.789035	-0.218432	0.806859
C180	C	1.289035	0.281568	1.306859
C181	C	0.789041	-0.218417	0.861463
C182	C	1.289041	0.281583	1.361463
O183	O	0.817486	-0.189967	0.889723
O184	O	1.317486	0.310033	1.389723
N185	N	0.755588	-0.251844	0.888751
N186	N	1.255588	0.248156	1.388751
C187	C	0.722122	-0.285283	0.861432
C188	C	1.222122	0.214717	1.361432
O189	O	0.693668	-0.313713	0.889656
O190	O	1.193668	0.186287	1.389656
C191	C	0.722114	-0.285294	0.806828
C192	C	1.222114	0.214706	1.306828
C193	C	0.755573	-0.251870	0.779543
C194	C	1.255573	0.248130	1.279543
C195	C	0.822491	-0.185009	0.779574
C196	C	1.322491	0.314991	1.279574
C197	C	0.822485	-0.185025	0.724973
C198	C	1.322485	0.314975	1.224973
C199	C	0.789023	-0.218462	0.697658
C200	C	1.289023	0.281538	1.197658
C201	C	0.755567	-0.251885	0.724943
C202	C	1.255567	0.248115	1.224943
C203	C	0.688646	-0.318731	0.779510
C204	C	1.188646	0.181269	1.279510
C205	C	0.688640	-0.318739	0.724903
C206	C	1.188640	0.181261	1.224903
C207	C	0.722099	-0.285314	0.697618
C208	C	1.222099	0.214686	1.197618
C209	C	0.722099	-0.285338	0.643027
C210	C	1.222099	0.214662	1.143027
N211	N	0.755552	-0.251912	0.615739
N212	N	1.255552	0.248088	1.115739
C213	C	0.789014	-0.218474	0.643055
C214	C	1.289014	0.281526	1.143055
C215	C	0.722143	-0.285256	0.976102
C216	C	1.222143	0.214744	1.476102
C217	C	0.722154	-0.285247	1.030705
C218	C	1.222154	0.214753	1.530705
C219	C	0.789072	-0.218381	1.030733
C220	C	1.289072	0.281619	1.530733
C221	C	0.789063	-0.218392	0.976129
C222	C	1.289063	0.281608	1.476129
C223	C	0.755596	-0.251829	0.948815
C224	C	1.255596	0.248171	1.448815
C225	C	0.789000	-0.218509	0.528389
C226	C	1.289000	0.281491	1.028389
C227	C	0.788992	-0.218529	0.473784
C228	C	1.288992	0.281471	0.973784
C229	C	0.722072	-0.285393	0.473761
C230	C	1.222072	0.214607	0.973761
C231	C	0.722081	-0.285375	0.528362
C232	C	1.222081	0.214625	1.028362
C233	C	0.755547	-0.251929	0.555674
C234	C	1.255547	0.248071	1.055674
O235	O	0.693668	-0.313773	0.614732
O236	O	1.193668	0.186227	1.114732
O237	O	0.817459	-0.190044	0.614823
O238	O	1.317459	0.309956	1.114823
H239	H	0.556481	-0.312723	0.312491
H240	H	1.056481	0.187277	0.812491
H241	H	0.849740	-0.157777	0.801809
H242	H	1.349740	0.342223	1.301809
Cl243	Cl	0.831138	-0.176343	1.065082
Cl244	Cl	1.331138	0.323657	1.565082
Cl245	Cl	0.830875	-0.438812	0.327494
Cl246	Cl	1.330875	0.061188	0.827494
Cl247	Cl	0.831059	-0.176506	0.439486
Cl248	Cl	1.331059	0.323494	0.939486
H249	H	0.054118	-0.191241	0.191472
H250	H	0.554118	0.308759	0.691472
H251	H	-0.044930	-0.312763	0.312580
H252	H	0.455070	0.187237	0.812580
H253	H	0.694841	-0.312597	0.550578
H254	H	1.194841	0.187403	1.050578
H255	H	0.457431	-0.312726	0.312517
H256	H	0.957431	0.187274	0.812517
Cl257	Cl	0.831069	-0.176459	0.562717
Cl258	Cl	1.331069	0.323541	1.062717
Cl259	Cl	0.445313	-0.176389	0.176627
Cl260	Cl	0.945313	0.323611	0.676627
H261	H	0.661380	-0.345963	0.702666
H262	H	1.161380	0.154037	1.202666
Cl263	Cl	0.680097	-0.327277	1.064999
Cl264	Cl	1.180097	0.172723	1.564999
H265	H	0.556474	-0.191211	0.191398
H266	H	1.056474	0.308789	0.691398
H267	H	0.694830	-0.312619	0.451511
H268	H	1.194830	0.187381	0.951511
Cl269	Cl	0.831126	-0.176370	0.941834
Cl270	Cl	1.331126	0.323630	1.441834
Cl271	Cl	0.831025	-0.941159	0.327595
Cl272	Cl	1.331025	-0.441159	0.827595
Cl273	Cl	0.864547	-0.142998	0.690680
Cl274	Cl	1.364547	0.357002	1.190680
Cl275	Cl	0.646582	-0.360755	0.813798
Cl276	Cl	1.146582	0.139245	1.313798
H277	H	0.305308	-0.346225	0.345907
H278	H	0.805308	0.153775	0.845907
Cl279	Cl	0.680069	-0.327300	0.941770
Cl280	Cl	1.180069	0.172700	1.441770
H281	H	0.206262	-0.346229	0.345924
H282	H	0.706262	0.153771	0.845924
H283	H	0.054135	-0.312760	0.312570
H284	H	0.554135	0.187240	0.812570
Cl285	Cl	-0.057023	-0.176428	0.176698
Cl286	Cl	0.442977	0.323572	0.676698
Cl287	Cl	0.830909	-0.562043	0.327529
Cl288	Cl	1.330909	-0.062043	0.827529
Cl289	Cl	0.317390	-0.142890	0.143299
Cl290	Cl	0.817390	0.357110	0.643299
Cl291	Cl	0.194160	-0.142896	0.143312
Cl292	Cl	0.694160	0.357104	0.643312
H293	H	0.849590	-0.801099	0.346221
H294	H	1.349590	-0.301099	0.846221
Cl295	Cl	0.864358	-0.689943	0.361026
Cl296	Cl	1.364358	-0.189943	0.861026
Cl297	Cl	0.831057	-1.064408	0.327613
Cl298	Cl	1.331057	-0.564408	0.827613
Cl299	Cl	0.680063	-0.562273	0.176403
Cl300	Cl	1.180063	-0.062273	0.676403
Cl301	Cl	0.680217	-1.064608	0.176494
Cl302	Cl	1.180217	-0.564608	0.676494
H303	H	0.694974	-0.953447	0.191308
H304	H	1.194974	-0.453447	0.691308
Cl305	Cl	0.646668	-0.690240	0.142978
Cl306	Cl	1.146668	-0.190240	0.642978
Cl307	Cl	0.646702	-0.813470	0.142995
Cl308	Cl	1.146702	-0.313470	0.642995
Cl309	Cl	0.680026	-0.439021	0.176387
Cl310	Cl	1.180026	0.060979	0.676387
