data_functionalizedCrystal
_audit_creation_method	'MofGen! by Chris Wilmer'
_symmetry_space_group_name_H-M	'P1'
_symmetry_Int_Tables_number	1
_symmetry_cell_setting	triclinic
loop_
_symmetry_equiv_pos_as_xyz
  x,y,z
_cell_length_a	18.101398
_cell_length_b	18.101395
_cell_length_c	18.101389
_cell_angle_alpha	89.983159
_cell_angle_beta	90.024327
_cell_angle_gamma	89.973629
loop_
_atom_site_label
_atom_site_type_symbol
_atom_site_fract_x
_atom_site_fract_y
_atom_site_fract_z
Zn1	Zn	1.132121	0.295001	0.418847
Zn2	Zn	1.132017	0.418826	0.295009
Zn3	Zn	1.008280	0.294993	0.295008
Zn4	Zn	1.008231	0.418795	0.418797
O5	O	1.070162	0.356904	0.356915
O6	O	1.235740	0.311443	0.402440
O7	O	1.115580	0.402410	0.191376
O8	O	1.024772	0.191361	0.311456
O9	O	1.235664	0.402417	0.311457
O10	O	1.115757	0.191367	0.402440
O11	O	1.024671	0.311430	0.191375
O12	O	0.904641	0.311399	0.311408
O13	O	1.024688	0.402363	0.522437
O14	O	0.904604	0.402356	0.402355
O15	O	1.115710	0.311412	0.522473
O16	O	1.115532	0.522455	0.311409
O17	O	1.024587	0.522432	0.402356
C18	C	0.877752	0.356874	0.356877
C19	C	0.795437	0.356879	0.356878
C20	C	1.070205	0.356885	0.550077
C21	C	1.070223	0.356877	0.632391
C22	C	1.070063	0.549314	0.356893
C23	C	1.070088	0.631628	0.356909
C24	C	0.496347	0.356925	0.356940
C25	C	0.527670	0.299412	0.299997
C26	C	0.613288	0.299566	0.299754
C27	C	0.644729	0.356901	0.356909
C28	C	0.613611	0.434909	0.335587
C29	C	0.527966	0.434590	0.335191
C30	C	0.527961	0.337109	0.435339
C31	C	0.613612	0.335371	0.434911
C32	C	0.728589	0.356893	0.356893
C33	C	0.412487	0.356939	0.356954
C34	C	1.263324	0.356934	0.356954
C35	C	1.345638	0.356948	0.356971
C36	C	1.070282	0.163742	0.356953
C37	C	1.070333	0.081428	0.356970
C38	C	1.070251	0.930719	0.356949
C39	C	1.013163	0.899410	0.414312
C40	C	1.012892	0.813792	0.414133
C41	C	1.070170	0.782337	0.356930
C42	C	1.049041	0.813472	0.278878
C43	C	1.048673	0.899117	0.279221
C44	C	1.148593	0.899073	0.376950
C45	C	1.148132	0.813422	0.378661
C46	C	1.070126	0.698477	0.356914
C47	C	1.070293	1.014579	0.356959
C48	C	1.070162	0.356869	0.164505
C49	C	1.070287	0.356668	0.082191
C50	C	1.070266	0.356738	0.931482
C51	C	1.012801	0.413780	0.900134
C52	C	1.012956	0.414045	0.814516
C53	C	1.070244	0.356807	0.783100
C54	C	1.148270	0.377998	0.814206
C55	C	1.147949	0.378372	0.899851
C56	C	1.050385	0.278379	0.899905
C57	C	1.048649	0.278832	0.814254
C58	C	1.070237	0.356845	0.699240
C59	C	1.070279	0.356702	1.015342
H60	H	0.634329	0.241719	0.313119
H61	H	1.164065	0.793071	0.436103
C62	C	0.934791	0.396127	0.786100
N63	N	0.875913	0.382634	0.764700
C64	C	0.500592	0.393698	0.492657
N65	N	0.479972	0.436322	0.535824
H66	H	1.026082	0.472127	0.794035
H67	H	1.165415	0.434671	0.792765
H68	H	1.026111	0.792740	0.472007
C69	C	1.103441	0.785942	0.219560
N70	N	1.144415	0.765203	0.174882
C71	C	0.640923	0.317266	0.221274
N72	N	0.661737	0.330602	0.162159
H73	H	0.507954	0.451397	0.277877
H74	H	1.088449	0.919830	0.235023
C75	C	1.207669	0.323638	0.786715
N76	N	1.252408	0.282695	0.766006
H77	H	0.994478	0.259074	0.921490
C78	C	0.971306	0.926186	0.256339
N79	N	0.913030	0.946570	0.239105
C80	C	1.206053	0.926429	0.320511
N81	N	1.249327	0.947038	0.278000
H82	H	0.991229	0.262852	0.793921
H83	H	1.026252	0.919970	0.472374
C84	C	1.208634	0.784494	0.326331
N85	N	1.254202	0.762706	0.286908
H86	H	0.955448	0.920990	0.401230
H87	H	0.507244	0.478892	0.374857
C88	C	0.641132	0.494355	0.389854
N89	N	0.661865	0.539129	0.430728
C90	C	0.642533	0.458007	0.258991
N91	N	0.664315	0.475400	0.201297
C92	C	1.170713	0.455759	0.926852
N93	N	1.187856	0.514049	0.947185
H94	H	1.087450	0.234076	0.792868
H95	H	1.092240	0.235880	0.920179
H96	H	0.506120	0.312363	0.242242
C97	C	1.030363	0.491771	0.929205
N98	N	1.043596	0.550514	0.951098
H99	H	0.992380	0.792080	0.261633
C100	C	0.499877	0.221023	0.317850
N101	N	0.478938	0.161978	0.331297
C102	C	0.934397	0.396045	0.927937
N103	N	0.875341	0.382686	0.948884
H104	H	0.506389	0.281216	0.454725
H105	H	0.633956	0.277966	0.450989
C106	C	0.642522	0.387845	0.495299
N107	N	0.664296	0.427375	0.540782
C108	C	0.934431	0.786189	0.396288
N109	N	0.875326	0.765398	0.382865
C110	C	1.207763	0.324695	0.927871
N111	N	1.252819	0.284271	0.948972
C112	C	1.174615	0.928194	0.452533
N113	N	1.194206	0.950128	0.509465
