data_functionalizedCrystal
_audit_creation_method	'MofGen! by Chris Wilmer'
_symmetry_space_group_name_H-M	'P1'
_symmetry_Int_Tables_number	1
_symmetry_cell_setting	triclinic
loop_
_symmetry_equiv_pos_as_xyz
  x,y,z
_cell_length_a	17.038272
_cell_length_b	15.455313
_cell_length_c	16.992695
_cell_angle_alpha	92.847427
_cell_angle_beta	90.889890
_cell_angle_gamma	87.131318
loop_
_atom_site_label
_atom_site_type_symbol
_atom_site_fract_x
_atom_site_fract_y
_atom_site_fract_z
O1	O	1.051316	-0.072023	0.167773
O2	O	1.551316	0.427977	0.667773
O3	O	0.823516	-0.072048	0.165057
O4	O	1.323516	0.427952	0.665057
O5	O	0.936503	-0.072029	0.052212
O6	O	1.436503	0.427971	0.552212
O7	O	0.938330	-0.072042	0.280618
O8	O	1.438330	0.427958	0.780618
O9	O	0.930040	0.072232	0.058636
O10	O	1.430040	0.572232	0.558636
O11	O	0.817053	0.072213	0.171481
O12	O	1.317053	0.572213	0.671481
O13	O	1.044853	0.072238	0.174197
O14	O	1.544853	0.572238	0.674197
Cu15	Cu	0.930363	0.085398	0.173426
Cu16	Cu	1.430363	0.585398	0.673426
Cu17	Cu	0.938006	-0.085208	0.165828
Cu18	Cu	1.438006	0.414792	0.665828
O19	O	0.931867	0.072219	0.287043
O20	O	1.431867	0.572219	0.787043
C21	C	0.791002	0.000079	0.165800
C22	C	1.291002	0.500079	0.665800
C23	C	0.703747	0.000069	0.158432
C24	C	1.203747	0.500069	0.658432
C25	C	0.930922	0.000101	0.026055
C26	C	1.430922	0.500101	0.526055
C27	C	0.923911	0.000100	-0.061457
C28	C	1.423911	0.500100	0.438543
N29	N	0.924993	0.205392	0.178770
N30	N	1.424993	0.705392	0.678770
C31	C	0.657877	0.000066	0.226072
C32	C	1.157877	0.500066	0.726072
C33	C	0.575891	0.000078	0.219145
C34	C	1.075891	0.500078	0.719145
C35	C	0.539777	0.000088	0.144578
C36	C	1.039777	0.500088	0.644578
C37	C	0.585653	0.000094	0.076933
C38	C	1.085653	0.500094	0.576933
C39	C	0.667637	0.000088	0.083861
C40	C	1.167637	0.500088	0.583861
C41	C	0.292483	0.000113	0.120105
C42	C	0.792483	0.500113	0.620105
C43	C	0.210493	0.000116	0.113182
C44	C	0.710493	0.500116	0.613182
C45	C	0.200736	0.000102	0.255395
C46	C	0.700736	0.500102	0.755395
C47	C	0.282722	0.000091	0.262316
C48	C	0.782722	0.500091	0.762316
C49	C	0.328591	0.000102	0.194671
C50	C	0.828591	0.500102	0.694671
C51	C	0.455975	0.000098	0.137496
C52	C	0.955975	0.500098	0.637496
C53	C	0.412391	0.000098	0.201754
C54	C	0.912391	0.500098	0.701754
C55	C	1.077368	0.000109	0.173455
C56	C	1.577368	0.500109	0.673455
C57	C	1.164623	0.000113	0.180822
C58	C	1.664623	0.500113	0.680822
N59	N	0.943382	-0.205202	0.160479
N60	N	1.443382	0.294798	0.660479
C61	C	0.973013	0.250795	0.130849
C62	C	1.473013	0.750795	0.630849
C63	C	0.968959	0.341602	0.134898
C64	C	1.468959	0.841602	0.634898
C65	C	0.916890	0.387005	0.186872
C66	C	1.416890	0.887005	0.686872
C67	C	0.868865	0.341596	0.234795
C68	C	1.368865	0.841596	0.734795
C69	C	0.872915	0.250791	0.230741
C70	C	1.372915	0.750791	0.730741
C71	C	0.899407	0.658583	0.204348
C72	C	1.399407	1.158583	0.704348
C73	C	0.895362	0.749395	0.208399
C74	C	1.395362	1.249395	0.708399
C75	C	0.995456	0.749395	0.108501
C76	C	1.495456	1.249395	0.608501
C77	C	0.999505	0.658587	0.104456
C78	C	1.499505	1.158587	0.604456
C79	C	0.951477	0.613187	0.152375
C80	C	1.451477	1.113187	0.652375
N81	N	0.912747	0.479824	0.191014
N82	N	1.412747	0.979824	0.691014
N83	N	0.955617	0.520369	0.148229
N84	N	1.455617	1.020369	0.648229
C85	C	0.991551	0.000109	-0.107185
C86	C	1.491551	0.500109	0.392815
C87	C	0.984960	0.000100	-0.189412
C88	C	1.484960	0.500100	0.310588
C89	C	0.910728	0.000089	-0.225909
C90	C	1.410728	0.500089	0.274091
C91	C	0.843083	0.000078	-0.180175
C92	C	1.343083	0.500078	0.319825
C93	C	0.849675	0.000080	-0.097950
C94	C	1.349675	0.500080	0.402050
C95	C	0.883406	0.000074	-0.471330
C96	C	1.383406	0.500074	0.028670
C97	C	0.876819	0.000073	-0.553561
C98	C	1.376819	0.500073	-0.053561
C99	C	1.018696	0.000094	-0.562792
C100	C	1.518696	0.500094	-0.062792
C101	C	1.025281	0.000102	-0.480565
C102	C	1.525281	0.500102	0.019435
C103	C	0.957637	0.000086	-0.434839
C104	C	1.457637	0.500086	0.065161
N105	N	0.903989	0.000082	-0.309958
N106	N	1.403989	0.500082	0.190042
N107	N	0.964377	0.000087	-0.350792
N108	N	1.464377	0.500087	0.149208
C109	C	0.937448	0.000087	0.313200
C110	C	1.437448	0.500087	0.813200
C111	C	0.944458	0.000082	0.400711
C112	C	1.444458	0.500082	0.900711
H113	H	0.687274	0.000058	0.286792
H114	H	1.187274	0.500058	0.786792
H115	H	0.852959	0.786358	0.250726
H116	H	1.352959	1.286358	0.750726
Br117	Br	1.110494	0.000115	-0.624854
Br118	Br	1.610494	0.500115	-0.124854
H119	H	1.041904	0.621622	0.062134
H120	H	1.541904	1.121622	0.562134
H121	H	0.441799	0.000095	0.262467
H122	H	0.941799	0.500095	0.762467
Br123	Br	1.034126	0.403222	0.069859
Br124	Br	1.534126	0.903222	0.569859
Br125	Br	0.406957	0.000110	0.036300
Br126	Br	0.906957	0.500110	0.536300
H127	H	0.312120	0.000073	0.323036
H128	H	0.812120	0.500073	0.823036
Br129	Br	1.076761	0.000111	-0.251469
Br130	Br	1.576761	0.500111	0.248531
Br131	Br	1.043688	0.189186	0.060315
Br132	Br	1.543688	0.689186	0.560315
Br133	Br	0.729891	0.000100	-0.007940
Br134	Br	1.229891	0.500100	0.492060
Br135	Br	1.060632	0.811013	0.043469
Br136	Br	1.560632	1.311013	0.543469
H137	H	1.085729	0.000111	-0.450856
H138	H	1.585729	0.500111	0.049144
H139	H	0.782642	0.000063	-0.209897
H140	H	1.282642	0.500063	0.290103
Br141	Br	0.834230	0.596973	0.269381
Br142	Br	1.334230	1.096973	0.769381
H143	H	0.329819	0.000122	0.065023
H144	H	0.829819	0.500122	0.565023
H145	H	0.556243	0.000114	0.016219
H146	H	1.056243	0.500114	0.516219
Br147	Br	1.092299	0.000137	-0.057662
Br148	Br	1.592299	0.500137	0.442338
Br149	Br	0.798191	0.403211	0.305327
Br150	Br	1.298191	0.903211	0.805327
H151	H	0.816366	0.000078	-0.583273
H152	H	1.316366	0.500078	-0.083273
H153	H	0.833811	0.213825	0.269762
H154	H	1.333811	0.713825	0.769762
H155	H	0.163381	0.000096	0.310467
H156	H	0.663381	0.500096	0.810467
H157	H	0.828325	0.000061	-0.434109
H158	H	1.328325	0.500061	0.065891
H159	H	0.538547	0.000075	0.274225
H160	H	1.038547	0.500075	0.774225
H161	H	0.794596	0.000073	-0.060719
H162	H	1.294596	0.500073	0.439281
H163	H	0.181092	0.000123	0.052458
H164	H	0.681092	0.500123	0.552458
