data_functionalizedCrystal
_audit_creation_method	'MofGen! by Chris Wilmer'
_symmetry_space_group_name_H-M	'P1'
_symmetry_Int_Tables_number	1
_symmetry_cell_setting	triclinic
loop_
_symmetry_equiv_pos_as_xyz
  x,y,z
_cell_length_a	9.616153
_cell_length_b	10.723024
_cell_length_c	10.723023
_cell_angle_alpha	84.467709
_cell_angle_beta	90.000902
_cell_angle_gamma	90.006580
loop_
_atom_site_label
_atom_site_type_symbol
_atom_site_fract_x
_atom_site_fract_y
_atom_site_fract_z
O1	O	-0.115632	-1.657193	-0.175022
O2	O	-0.115637	-1.294040	-0.191776
O3	O	-0.115630	-1.483994	-0.001823
O4	O	-0.115639	-1.467239	-0.364975
O5	O	0.115662	-1.483968	-0.001827
O6	O	0.115655	-1.294014	-0.191780
O7	O	0.115659	-1.657167	-0.175026
Zn8	Zn	0.152380	-1.475586	-0.183404
Zn9	Zn	-0.152357	-1.475621	-0.183398
O10	O	0.115652	-1.467213	-0.364979
C11	C	0.000009	-1.247528	-0.190558
C12	C	0.000007	-1.108973	-0.186911
N13	N	0.360354	-1.475572	-0.183406
N14	N	-0.360331	-1.475645	-0.183386
C15	C	0.580720	-1.373649	-0.284678
C16	C	0.419553	-1.373873	-0.285057
C17	C	0.418804	-1.606028	-0.212963
C18	C	0.580022	-1.605473	-0.213680
C19	C	0.580268	-1.448338	-0.052246
C20	C	0.419042	-1.445342	-0.053098
C21	C	0.000014	-1.482762	0.044675
C22	C	0.000009	-1.479114	0.183229
C23	C	0.000011	-1.703679	-0.176243
C24	C	0.000004	-1.842234	-0.179891
C25	C	0.000003	-1.033991	-0.293198
C26	C	0.000001	-0.890787	-0.289431
C27	C	0.000005	-1.468445	-0.411477
C28	C	0.000002	-1.472093	-0.550031
C29	C	0.119822	-1.477475	0.245005
C30	C	0.119819	-1.473705	0.388208
H31	H	0.380037	-1.276939	-0.267283
H32	H	0.222396	-1.472287	0.441333
H33	H	-0.000007	-0.826354	-0.380421
H34	H	-0.102580	-1.473492	0.396850
H35	H	-0.000026	-1.067152	-0.093125
Br36	Br	0.290804	-1.479799	0.156469
Br37	Br	0.000008	-1.103682	-0.449524
H38	H	-0.102570	-1.477733	0.236359
H39	H	0.621217	-1.390968	-0.381422
Br40	Br	0.645365	-1.211567	-0.255490
Br41	Br	-0.000008	-0.949611	-0.028219
H42	H	0.617608	-1.629365	-0.309353
Br43	Br	0.355234	-1.403059	-0.447239
H44	H	0.619013	-1.683799	-0.142872
Br45	Br	0.354900	-1.735622	-0.093349
H46	H	0.621005	-1.355223	-0.024100
Br47	Br	0.351484	-1.646750	-0.370621
H48	H	0.378750	-1.514712	0.025895
Br49	Br	0.643798	-1.572286	0.073412
Br50	Br	0.355378	-1.285384	-0.015750
