data_functionalizedCrystal
_audit_creation_method	'MofGen! by Chris Wilmer'
_symmetry_space_group_name_H-M	'P1'
_symmetry_Int_Tables_number	1
_symmetry_cell_setting	triclinic
loop_
_symmetry_equiv_pos_as_xyz
  x,y,z
_cell_length_a	10.489741
_cell_length_b	15.995350
_cell_length_c	15.072220
_cell_angle_alpha	89.998899
_cell_angle_beta	90.009840
_cell_angle_gamma	84.015774
loop_
_atom_site_label
_atom_site_type_symbol
_atom_site_fract_x
_atom_site_fract_y
_atom_site_fract_z
O1	O	-1.692416	-0.118125	-0.073723
O2	O	-1.321066	-0.129214	-0.073736
O3	O	-1.516892	-0.001843	-0.073728
O4	O	-1.496590	-0.245496	-0.073731
O5	O	-1.516844	-0.001850	0.073837
O6	O	-1.321017	-0.129221	0.073829
O7	O	-1.692368	-0.118132	0.073842
Zn8	Zn	-1.506685	-0.123678	0.097265
Zn9	Zn	-1.506749	-0.123669	-0.097159
O10	O	-1.496541	-0.245503	0.073834
C11	C	-1.273521	-0.128380	0.000045
C12	C	-1.131927	-0.125874	0.000039
C13	C	-1.516029	0.029353	0.000053
C14	C	-1.513512	0.122319	0.000047
C15	C	-1.739912	-0.118966	0.000060
C16	C	-1.881507	-0.121472	0.000059
C17	C	-1.064921	-0.044832	0.000048
C18	C	-0.972282	-0.083112	-0.072707
C19	C	-0.972268	-0.083138	0.072780
C20	C	-1.041153	-0.164188	-0.072777
C21	C	-1.041149	-0.164203	0.072776
C22	C	-0.948537	-0.202542	0.000003
C23	C	-1.497405	-0.276699	0.000052
C24	C	-1.499921	-0.369665	0.000051
N25	N	-1.506651	-0.123683	0.229954
C26	C	-1.504476	0.460121	0.000050
C27	C	-1.365012	0.413528	-0.000286
C28	C	-1.367528	0.316822	0.000047
C29	C	-1.508958	0.292533	0.000048
C30	C	-1.577719	0.333192	0.084316
C31	C	-1.574216	0.429849	0.084387
C32	C	-1.577152	0.430197	-0.083423
C33	C	-1.577119	0.333252	-0.084536
C34	C	-1.511499	0.197820	0.000050
C35	C	-1.501939	0.554834	0.000054
N36	N	-1.506793	-0.123656	-0.229847
C37	C	-1.506746	-0.123665	0.589155
C38	C	-1.401611	-0.191586	0.551544
C39	C	-1.401852	-0.191838	0.448718
C40	C	-1.506698	-0.123674	0.410951
C41	C	-1.639783	-0.143558	0.448247
C42	C	-1.639194	-0.144042	0.551105
C43	C	-1.479982	-0.035664	0.551255
C44	C	-1.476928	-0.036232	0.448391
C45	C	-1.506679	-0.123678	0.310238
C46	C	-1.506774	-0.123664	0.689868
H47	H	-0.941768	-0.048819	-0.134218
H48	H	-1.071522	-0.198449	-0.134355
H49	H	-0.898180	-0.269234	-0.000037
C50	C	-1.268210	-0.175683	0.414647
C51	C	-1.242250	-0.172753	0.314197
C52	C	-1.108601	-0.156600	0.280131
C53	C	-1.000911	-0.143379	0.346516
C54	C	-1.026867	-0.146309	0.446973
C55	C	-1.160517	-0.162461	0.481039
H56	H	-1.321972	-0.182540	0.265049
H57	H	-1.089387	-0.154431	0.205766
H58	H	-0.901975	-0.131422	0.321299
H59	H	-0.947146	-0.136522	0.496121
H60	H	-1.179731	-0.164630	0.555404
C61	C	-1.082436	-0.210494	0.155872
C62	C	-1.224814	-0.222002	0.170634
C63	C	-1.266107	-0.268285	0.253737
C64	C	-1.165022	-0.303061	0.322078
C65	C	-1.022635	-0.291554	0.307318
C66	C	-0.981342	-0.245270	0.224215
H67	H	-1.299651	-0.196258	0.120042
H68	H	-1.371512	-0.276804	0.264663
H69	H	-1.195590	-0.337323	0.383596
H70	H	-0.947798	-0.317298	0.357910
H71	H	-0.875937	-0.236752	0.213289
H72	H	-1.526846	0.306310	-0.146875
H73	H	-1.719886	-0.095438	0.423781
C74	C	-1.672412	-0.229312	0.413445
C75	C	-1.578538	-0.281361	0.351234
C76	C	-1.611158	-0.367118	0.316435
C77	C	-1.737653	-0.400825	0.343846
C78	C	-1.831536	-0.348776	0.406060
C79	C	-1.798915	-0.263019	0.440859
H80	H	-1.484892	-0.256409	0.330940
H81	H	-1.541660	-0.405648	0.270379
H82	H	-1.761800	-0.464307	0.318085
H83	H	-1.925182	-0.373728	0.426354
H84	H	-1.868414	-0.224489	0.486914
H85	H	-1.385044	-0.016743	0.577242
H86	H	-0.941750	-0.048836	0.134290
H87	H	-1.313476	0.288729	-0.060360
C88	C	-1.289728	0.439007	-0.081929
C89	C	-1.353960	0.502435	-0.149293
C90	C	-1.278680	0.527914	-0.230944
C91	C	-1.139168	0.489964	-0.245230
C92	C	-1.074928	0.426532	-0.177863
C93	C	-1.150209	0.401053	-0.096213
H94	H	-1.457242	0.530531	-0.138719
H95	H	-1.326235	0.574870	-0.280813
H96	H	-1.083441	0.508825	-0.305672
H97	H	-0.971646	0.398436	-0.188437
H98	H	-1.102654	0.354097	-0.046344
H99	H	-1.309497	0.433453	0.059804
H100	H	-1.379029	-0.021161	0.424016
C101	C	-1.424375	-0.279291	0.586441
C102	C	-1.333600	-0.356836	0.558900
C103	C	-1.356369	-0.444541	0.593798
C104	C	-1.469912	-0.454700	0.656238
C105	C	-1.560694	-0.377152	0.683783
C106	C	-1.537926	-0.289448	0.648885
H107	H	-1.249542	-0.349318	0.512675
H108	H	-1.289165	-0.501946	0.573407
H109	H	-1.486767	-0.519623	0.682072
H110	H	-1.644752	-0.384670	0.730008
H111	H	-1.605129	-0.232042	0.669276
H112	H	-1.313073	0.289283	0.060553
H113	H	-1.681623	0.318440	0.087451
C114	C	-1.506409	0.454984	0.169474
C115	C	-1.455820	0.387136	0.236886
C116	C	-1.388007	0.412266	0.321973
C117	C	-1.370782	0.505242	0.339649
C118	C	-1.421372	0.573096	0.272235
C119	C	-1.489185	0.547966	0.187148
H120	H	-1.468570	0.318304	0.223803
H121	H	-1.350557	0.362036	0.371878
H122	H	-1.320583	0.523845	0.402636
H123	H	-1.408622	0.641928	0.285318
H124	H	-1.526635	0.598196	0.137244
C125	C	-1.712531	0.472587	0.089576
C126	C	-1.825819	0.418735	0.093646
C127	C	-1.964131	0.461468	0.098846
C128	C	-1.989155	0.558053	0.099975
C129	C	-1.875864	0.611910	0.095904
C130	C	-1.737552	0.569177	0.090705
H131	H	-1.807297	0.347232	0.092811
H132	H	-2.047996	0.421598	0.101859
H133	H	-2.091542	0.589686	0.103823
H134	H	-1.894386	0.683413	0.096740
H135	H	-1.653687	0.609047	0.087691
C136	C	-1.573652	0.035338	0.413670
C137	C	-1.681848	0.015545	0.350431
C138	C	-1.778584	0.087112	0.315710
C139	C	-1.767124	0.178474	0.344228
C140	C	-1.658924	0.198271	0.407470
C141	C	-1.562188	0.126703	0.442191
H142	H	-1.690335	-0.052090	0.329317
H143	H	-1.858681	0.072457	0.268894
H144	H	-1.838734	0.231452	0.318525
H145	H	-1.650437	0.265906	0.428584
H146	H	-1.482091	0.141359	0.489007
C147	C	-1.513147	0.295247	0.169035
C148	C	-1.398121	0.227424	0.161929
C149	C	-1.333540	0.189481	0.246646
C150	C	-1.383985	0.219362	0.338469
C151	C	-1.499017	0.287189	0.345579
C152	C	-1.563599	0.325132	0.260862
H153	H	-1.360772	0.205301	0.093953
H154	H	-1.248385	0.139270	0.241382
H155	H	-1.336178	0.191274	0.401181
H156	H	-1.536366	0.309312	0.413555
H157	H	-1.648753	0.375342	0.266126
C158	C	-1.716453	0.311660	-0.091418
C159	C	-1.771025	0.256432	-0.020030
C160	C	-1.910363	0.234839	-0.026906
C161	C	-1.995130	0.268474	-0.105168
C162	C	-1.940560	0.323705	-0.176561
C163	C	-1.801221	0.345298	-0.169685
H164	H	-1.708274	0.231530	0.037909
H165	H	-1.950760	0.193952	0.025944
H166	H	-2.098277	0.252489	-0.110257
H167	H	-2.003310	0.348607	-0.234500
H168	H	-1.760825	0.386185	-0.222535
H169	H	-1.679978	0.461338	-0.083988
H170	H	-1.531575	0.451015	-0.147292
C171	C	-1.267515	-0.175628	0.584913
C172	C	-1.251831	-0.100734	0.646731
C173	C	-1.117723	-0.084747	0.680068
C174	C	-0.999299	-0.143654	0.651587
C175	C	-1.014979	-0.218553	0.589765
C176	C	-1.149087	-0.234540	0.556428
H177	H	-1.339499	-0.057123	0.667818
H178	H	-1.106116	-0.029302	0.725833
H179	H	-0.900024	-0.131820	0.676265
H180	H	-0.927311	-0.262164	0.568678
H181	H	-1.160694	-0.289985	0.510663
C182	C	-1.748060	-0.079818	0.584722
C183	C	-1.835259	-0.028256	0.517972
C184	C	-1.944130	0.035961	0.551584
C185	C	-1.965801	0.048618	0.651946
C186	C	-1.878599	-0.002945	0.718702
C187	C	-1.769729	-0.067163	0.685090
H188	H	-1.819219	-0.037624	0.443672
H189	H	-2.008682	0.074131	0.502167
H190	H	-2.046393	0.096155	0.676828
H191	H	-1.894640	0.006423	0.793002
H192	H	-1.705177	-0.105333	0.734508
C193	C	-1.583542	0.032637	0.584116
C194	C	-1.601749	0.048724	0.684273
C195	C	-1.705310	0.117018	0.717139
C196	C	-1.790665	0.169226	0.649850
C197	C	-1.772461	0.153141	0.549687
C198	C	-1.668900	0.084847	0.516820
H199	H	-1.538562	0.010075	0.734090
H200	H	-1.718785	0.128925	0.791287
H201	H	-1.867327	0.219781	0.674180
H202	H	-1.835648	0.191789	0.499869
H203	H	-1.655424	0.072940	0.442672
H204	H	-1.115543	0.021790	-0.000042
H205	H	-1.662779	-0.208245	0.575087
H206	H	-1.418943	-0.257125	0.424104
