data_functionalizedCrystal
_audit_creation_method	'MofGen! by Chris Wilmer'
_symmetry_space_group_name_H-M	'P1'
_symmetry_Int_Tables_number	1
_symmetry_cell_setting	triclinic
loop_
_symmetry_equiv_pos_as_xyz
  x,y,z
_cell_length_a	18.050591
_cell_length_b	18.050589
_cell_length_c	18.050582
_cell_angle_alpha	90.018205
_cell_angle_beta	90.020922
_cell_angle_gamma	90.024227
loop_
_atom_site_label
_atom_site_type_symbol
_atom_site_fract_x
_atom_site_fract_y
_atom_site_fract_z
Zn1	Zn	-1.135293	0.295786	-0.420054
Zn2	Zn	-0.635293	0.795786	0.079946
Zn3	Zn	-1.135203	0.419969	-0.295873
Zn4	Zn	-0.635203	0.919969	0.204127
Zn5	Zn	-1.011112	0.295789	-0.295865
Zn6	Zn	-0.511112	0.795789	0.204135
Zn7	Zn	-1.011060	0.419930	-0.420009
Zn8	Zn	-0.511060	0.919930	0.079991
O9	O	-1.073167	0.357868	-0.357950
O10	O	-0.573167	0.857868	0.142050
O11	O	-1.239205	0.312274	-0.403603
O12	O	-0.739205	0.812274	0.096397
O13	O	-1.118727	0.403514	-0.191948
O14	O	-0.618727	0.903514	0.308052
O15	O	-1.027644	0.191864	-0.312354
O16	O	-0.527644	0.691864	0.187646
O17	O	-1.239140	0.403511	-0.312369
O18	O	-0.739140	0.903511	0.187631
O19	O	-1.118879	0.191862	-0.403595
O20	O	-0.618879	0.691862	0.096405
O21	O	-1.027557	0.312279	-0.191942
O22	O	-0.527557	0.812279	0.308058
O23	O	-0.907180	0.312241	-0.312311
O24	O	-0.407180	0.812241	0.187689
O25	O	-1.027555	0.403444	-0.523940
O26	O	-0.527555	0.903444	-0.023940
O27	O	-0.907142	0.403447	-0.403519
O28	O	-0.407142	0.903447	0.096481
O29	O	-1.118828	0.312236	-0.523973
O30	O	-0.618828	0.812236	-0.023973
O31	O	-1.118676	0.523888	-0.312325
O32	O	-0.618676	1.023888	0.187675
O33	O	-1.027468	0.523860	-0.403527
O34	O	-0.527468	1.023860	0.096473
C35	C	-0.880215	0.357841	-0.357909
C36	C	-0.380215	0.857841	0.142091
C37	C	-0.797669	0.357847	-0.357909
C38	C	-0.297669	0.857847	0.142091
C39	C	-1.073077	0.550820	-0.357938
C40	C	-0.573077	1.050820	0.142062
C41	C	-1.073107	0.633366	-0.357958
C42	C	-0.573107	1.133366	0.142042
C43	C	-1.073196	0.357835	-0.551656
C44	C	-0.573196	0.857835	-0.051656
C45	C	-1.073208	0.357821	-0.634202
C46	C	-0.573208	0.857821	-0.134202
C47	C	-1.266872	0.357897	-0.357992
C48	C	-0.766872	0.857897	0.142008
C49	C	-1.349418	0.357909	-0.358010
C50	C	-0.849418	0.857909	0.141990
C51	C	-0.598217	0.308191	-0.308425
C52	C	-0.098217	0.808191	0.191575
C53	C	-0.548798	0.375927	-0.290154
C54	C	-0.048798	0.875927	0.209846
C55	C	-0.646539	0.357869	-0.357943
C56	C	-0.146539	0.857869	0.142057
C57	C	-0.548877	0.290157	-0.376212
C58	C	-0.048877	0.790157	0.123788
C59	C	-0.500553	0.357885	-0.357974
C60	C	-0.000553	0.857885	0.142026
C61	C	-0.598206	0.425641	-0.339637
C62	C	-0.098206	0.925641	0.160363
C63	C	-0.598289	0.339825	-0.425726
C64	C	-0.098289	0.839825	0.074274
C65	C	-0.548892	0.407607	-0.407481
C66	C	-0.048892	0.907607	0.092519
C67	C	-0.730637	0.357859	-0.357923
C68	C	-0.230637	0.857859	0.142077
C69	C	-0.416457	0.357903	-0.357994
C70	C	0.083543	0.857903	0.142006
C71	C	-1.073277	0.164163	-0.357979
C72	C	-0.573277	0.664163	0.142021
C73	C	-1.073324	0.081617	-0.357991
C74	C	-0.573324	0.581617	0.142009
C75	C	-1.023557	0.832828	-0.407536
C76	C	-0.523557	1.332828	0.092464
C77	C	-1.005459	0.882261	-0.339767
C78	C	-0.505459	1.382261	0.160233
C79	C	-1.073180	0.784497	-0.357967
C80	C	-0.573180	1.284497	0.142033
C81	C	-1.091314	0.882146	-0.425744
C82	C	-0.591314	1.382146	0.074256
C83	C	-1.073249	0.930482	-0.357983
C84	C	-0.573249	1.430482	0.142017
C85	C	-1.055046	0.832842	-0.290162
C86	C	-0.555046	1.332842	0.209838
C87	C	-1.140933	0.832722	-0.376186
C88	C	-0.640933	1.332722	0.123814
C89	C	-1.122861	0.882133	-0.308370
C90	C	-0.622861	1.382133	0.191630
C91	C	-1.073138	0.700398	-0.357959
C92	C	-0.573138	1.200398	0.142041
C93	C	-1.073291	1.014578	-0.357983
C94	C	-0.573291	1.514578	0.142017
C95	C	-1.023612	0.407353	-0.833635
C96	C	-0.523612	0.907353	-0.333635
C97	C	-1.091367	0.425511	-0.883034
C98	C	-0.591367	0.925511	-0.383034
C99	C	-1.073245	0.357765	-0.785332
C100	C	-0.573245	0.857765	-0.285332
C101	C	-1.005527	0.339586	-0.883014
C102	C	-0.505527	0.839586	-0.383014
C103	C	-1.073274	0.357711	-0.931317
C104	C	-0.573274	0.857711	-0.431317
C105	C	-1.141036	0.375958	-0.833645
C106	C	-0.641036	0.875958	-0.333645
C107	C	-1.055150	0.290002	-0.833620
C108	C	-0.555150	0.790002	-0.333620
C109	C	-1.122952	0.308134	-0.882998
C110	C	-0.622952	0.808134	-0.382998
C111	C	-1.073227	0.357797	-0.701234
C112	C	-0.573227	0.857797	-0.201234
C113	C	-1.073300	0.357679	-1.015414
C114	C	-0.573300	0.857679	-0.515414
C115	C	-1.073181	0.357848	-0.164998
C116	C	-0.573181	0.857848	0.335002
C117	C	-1.073312	0.357652	-0.082453
C118	C	-0.573312	0.857652	0.417547
H119	H	-0.619875	0.266226	-0.266503
H120	H	-0.119875	0.766226	0.233497
H121	H	-0.948195	0.904037	-0.324371
H122	H	-0.448195	1.404037	0.175629
C123	C	-0.670586	0.530862	-0.376740
C124	C	-0.170586	1.030862	0.123260
C125	C	-0.627330	0.502976	-0.318700
C126	C	-0.127330	1.002976	0.181300
H127	H	-0.688570	0.578601	-0.363810
H128	H	-0.188570	1.078601	0.136190
H129	H	-0.641313	0.534351	-0.420315
H130	H	-0.141313	1.034351	0.079685
H131	H	-0.711220	0.498547	-0.385447
H132	H	-0.211220	0.998547	0.114553
H133	H	-0.586692	0.535287	-0.309997
H134	H	-0.086692	1.035287	0.190003
H135	H	-0.656604	0.499491	-0.275112
H136	H	-0.156604	0.999491	0.224888
H137	H	-0.981531	0.811178	-0.449395
H138	H	-0.481531	1.311178	0.050605
H139	H	-1.106690	0.482794	-0.904739
H140	H	-0.606690	0.982794	-0.404739
H141	H	-0.620045	0.324530	-0.483019
H142	H	-0.120045	0.824530	0.016981
H143	H	-1.039669	0.811275	-0.232834
H144	H	-0.539669	1.311275	0.267166
H145	H	-0.527169	0.232894	-0.391625
H146	H	-0.027169	0.732894	0.108375
H147	H	-0.948246	0.324232	-0.904701
H148	H	-0.448246	0.824232	-0.404701
C149	C	-1.160420	0.886161	-0.180843
C150	C	-0.660420	1.386161	0.319157
C151	C	-1.179550	0.911184	-0.251729
C152	C	-0.679550	1.411184	0.248271
H153	H	-1.195413	0.904102	-0.145875
H154	H	-0.695413	1.404102	0.354125
H155	H	-1.160417	0.833545	-0.180251
H156	H	-0.660417	1.333545	0.319749
H157	H	-1.112458	0.903878	-0.168324
H158	H	-0.612458	1.403878	0.331676
H159	H	-1.227509	0.893463	-0.264250
H160	H	-0.727509	1.393463	0.235750
H161	H	-1.179561	0.963812	-0.252323
H162	H	-0.679561	1.463812	0.247677
C163	C	-1.237063	0.828160	-0.468038
C164	C	-0.737063	1.328160	0.031962
C165	C	-1.218218	0.803318	-0.397011
C166	C	-0.718218	1.303318	0.102989
H167	H	-1.284774	0.810001	-0.480901
H168	H	-0.784774	1.310001	0.019099
H169	H	-1.237542	0.880774	-0.468638
H170	H	-0.737542	1.380774	0.031362
H171	H	-1.201659	0.810540	-0.502746
H172	H	-0.701659	1.310540	-0.002746
H173	H	-1.253619	0.820943	-0.362303
H174	H	-0.753619	1.320943	0.137697
H175	H	-1.217745	0.750693	-0.396406
H176	H	-0.717745	1.250693	0.103594
C177	C	-1.178820	0.251479	-0.989645
C178	C	-0.678820	0.751479	-0.489645
C179	C	-1.179684	0.251484	-0.912077
C180	C	-0.679684	0.751484	-0.412077
H181	H	-1.213841	0.216502	-1.007595
H182	H	-0.713841	0.716502	-0.507595
H183	H	-1.191287	0.299442	-1.007312
H184	H	-0.691287	0.799442	-0.507312
H185	H	-1.130747	0.238479	-1.006632
H186	H	-0.630747	0.738479	-0.506632
H187	H	-1.227756	0.264490	-0.895089
H188	H	-0.727756	0.764490	-0.395089
H189	H	-1.167222	0.203510	-0.894402
H190	H	-0.667222	0.703510	-0.394402
H191	H	-0.981678	0.449342	-0.811961
H192	H	-0.481678	0.949342	-0.311961
C193	C	-1.217658	0.396657	-0.726929
C194	C	-0.717658	0.896657	-0.226929
C195	C	-1.218384	0.396784	-0.804499
C196	C	-0.718384	0.896784	-0.304499
H197	H	-1.265407	0.409520	-0.708937
H198	H	-0.765407	0.909520	-0.208937
H199	H	-1.204721	0.348694	-0.709604
H200	H	-0.704721	0.848694	-0.209604
H201	H	-1.182360	0.431680	-0.709641
H202	H	-0.682360	0.931680	-0.209641
H203	H	-1.253678	0.361756	-0.821787
H204	H	-0.753678	0.861756	-0.321787
H205	H	-1.231330	0.444754	-0.821831
H206	H	-0.731330	0.944754	-0.321831
H207	H	-1.039807	0.232736	-0.811899
H208	H	-0.539807	0.732736	-0.311899
H209	H	-1.106625	0.903802	-0.483056
H210	H	-0.606625	1.403802	0.016944
H211	H	-0.527370	0.449673	-0.449370
H212	H	-0.027370	0.949673	0.050630
C213	C	-0.544336	0.344447	-0.161004
C214	C	-0.044336	0.844447	0.338996
C215	C	-0.519444	0.396547	-0.212791
C216	C	-0.019444	0.896547	0.287209
H217	H	-0.526211	0.357172	-0.113245
H218	H	-0.026211	0.857172	0.386755
H219	H	-0.596951	0.344151	-0.160322
H220	H	-0.096951	0.844151	0.339678
H221	H	-0.526716	0.296683	-0.174320
H222	H	-0.026716	0.796683	0.325680
H223	H	-0.537069	0.444310	-0.199479
H224	H	-0.037069	0.944310	0.300521
H225	H	-0.466818	0.396850	-0.213472
H226	H	0.033182	0.896850	0.286528
