data_functionalizedCrystal
_audit_creation_method	'MofGen! by Chris Wilmer'
_symmetry_space_group_name_H-M	'P1'
_symmetry_Int_Tables_number	1
_symmetry_cell_setting	triclinic
loop_
_symmetry_equiv_pos_as_xyz
  x,y,z
_cell_length_a	11.792241
_cell_length_b	11.792241
_cell_length_c	10.268362
_cell_angle_alpha	90.005428
_cell_angle_beta	89.996292
_cell_angle_gamma	95.806584
loop_
_atom_site_label
_atom_site_type_symbol
_atom_site_fract_x
_atom_site_fract_y
_atom_site_fract_z
O1	O	1.506909	-0.155569	-0.108275
O2	O	1.840242	0.177765	0.225058
O3	O	2.173575	0.511098	0.558392
O4	O	1.176568	-0.171602	-0.108283
O5	O	1.509901	0.161732	0.225050
O6	O	1.843234	0.495065	0.558383
O7	O	1.349755	0.001585	-0.108270
O8	O	1.683088	0.334919	0.225063
O9	O	2.016421	0.668252	0.558397
O10	O	1.333722	-0.328756	-0.108289
O11	O	1.667055	0.004578	0.225045
O12	O	2.000388	0.337911	0.558378
O13	O	1.349740	0.001593	0.108331
O14	O	1.683073	0.334926	0.441664
O15	O	2.016406	0.668259	0.774997
O16	O	1.176553	-0.171594	0.108317
O17	O	1.509886	0.161739	0.441651
O18	O	1.843219	0.495072	0.774984
O19	O	1.506894	-0.155561	0.108326
O20	O	1.840227	0.177772	0.441659
O21	O	2.173560	0.511105	0.774992
Cu22	Cu	1.341722	-0.163577	0.128099
Cu23	Cu	1.675055	0.169756	0.461432
Cu24	Cu	2.008388	0.503089	0.794765
Cu25	Cu	1.341740	-0.163586	-0.128057
Cu26	Cu	1.675073	0.169748	0.205277
Cu27	Cu	2.008406	0.503081	0.538610
O28	O	1.333707	-0.328748	0.108312
O29	O	1.667040	0.004585	0.441645
O30	O	2.000373	0.337918	0.774979
C31	C	1.348740	0.043880	0.000030
C32	C	1.682073	0.377213	0.333363
C33	C	2.015407	0.710547	0.666697
C34	C	1.345726	0.169894	0.000029
C35	C	1.679059	0.503227	0.333362
C36	C	2.012392	0.836560	0.666695
C37	C	1.134269	-0.170591	0.000016
C38	C	1.467603	0.162742	0.333349
C39	C	1.800936	0.496076	0.666683
C40	C	1.008255	-0.167576	0.000013
C41	C	1.341589	0.165757	0.333346
C42	C	1.674922	0.499090	0.666680
C43	C	1.549192	-0.156572	0.000023
C44	C	1.882525	0.176761	0.333357
C45	C	2.215859	0.510095	0.666690
C46	C	1.675206	-0.159587	0.000018
C47	C	2.008539	0.173747	0.333351
C48	C	2.341873	0.507080	0.666684
C49	C	1.905918	-0.165130	0.000018
C50	C	2.239251	0.168204	0.333351
C51	C	2.572585	0.501537	0.666685
C52	C	1.777533	-0.162050	0.000018
C53	C	2.110866	0.171284	0.333352
C54	C	2.444200	0.504617	0.666685
C55	C	1.334721	-0.371043	0.000009
C56	C	1.668055	-0.037710	0.333343
C57	C	2.001388	0.295624	0.666676
C58	C	1.337736	-0.497057	0.000002
C59	C	1.671069	-0.163723	0.333336
C60	C	2.004402	0.169610	0.666669
N61	N	1.341717	-0.163571	0.308265
N62	N	1.675051	0.169763	0.641598
N63	N	2.008384	0.503096	0.974931
C64	C	1.340183	0.400606	0.000007
C65	C	1.673516	0.733939	0.333340
C66	C	2.006849	1.067272	0.666673
C67	C	1.343262	0.272221	0.000019
C68	C	1.676596	0.605554	0.333352
C69	C	2.009929	0.938887	0.666685
N70	N	1.341753	-0.163584	-0.308222
N71	N	1.675086	0.169750	0.025111
N72	N	2.008420	0.503083	0.358444
C73	C	1.341734	-0.163584	0.573935
C74	C	1.675067	0.169750	0.907269
C75	C	2.008401	0.503083	1.240602
C76	C	1.341721	-0.163580	0.426097
C77	C	1.675054	0.169754	0.759431
C78	C	2.008388	0.503087	1.092764
