data_functionalizedCrystal
_audit_creation_method	'MofGen! by Chris Wilmer'
_symmetry_space_group_name_H-M	'P1'
_symmetry_Int_Tables_number	1
_symmetry_cell_setting	triclinic
loop_
_symmetry_equiv_pos_as_xyz
  x,y,z
_cell_length_a	9.065218
_cell_length_b	10.654550
_cell_length_c	9.730223
_cell_angle_alpha	89.994659
_cell_angle_beta	90.002296
_cell_angle_gamma	95.249606
loop_
_atom_site_label
_atom_site_type_symbol
_atom_site_fract_x
_atom_site_fract_y
_atom_site_fract_z
O1	O	0.207234	-1.668657	0.114397
O2	O	0.226978	-1.303257	0.114374
O3	O	0.002422	-1.493510	0.114383
O4	O	0.431790	-1.478404	0.114388
O5	O	0.002417	-1.493503	-0.114197
O6	O	0.226972	-1.303250	-0.114206
O7	O	0.207228	-1.668650	-0.114183
Zn8	Zn	0.217099	-1.485949	-0.150486
Zn9	Zn	0.217107	-1.485958	0.150678
O10	O	0.431784	-1.478397	-0.114192
C11	C	-0.052559	-1.492055	0.000096
C12	C	-0.216378	-1.487714	0.000102
C13	C	0.225525	-1.256450	0.000082
C14	C	0.221188	-1.116989	0.000073
C15	C	0.208681	-1.715457	0.000113
C16	C	0.213018	-1.854918	0.000130
C17	C	0.486766	-1.479852	0.000099
C18	C	0.650585	-1.484193	0.000102
N19	N	0.217094	-1.485952	-0.356023
C20	C	0.353403	-1.038027	0.000095
C21	C	0.349319	-0.906990	0.000118
C22	C	0.080793	-0.933890	0.000105
C23	C	0.084879	-1.064925	0.000071
C24	C	0.508434	-1.022496	0.000108
C25	C	0.504350	-0.891459	0.000132
C26	C	0.126770	-1.408775	-0.427977
C27	C	0.126777	-1.408778	-0.571860
C28	C	0.307435	-1.563145	-0.571822
C29	C	0.307434	-1.563134	-0.427941
C30	C	0.022464	-1.319657	-0.428000
C31	C	0.022471	-1.319660	-0.571883
N32	N	0.217101	-1.485965	0.356214
H33	H	-0.022783	-1.129212	0.000034
H34	H	0.058727	-1.220744	-0.388971
H35	H	-0.030185	-0.891483	0.000124
F36	F	0.403612	-1.645239	-0.351367
F37	F	0.403579	-1.645281	-0.648375
H38	H	-0.093883	-1.350126	-0.610933
F39	F	-0.122739	-1.370747	-0.369659
F40	F	0.083074	-1.196272	-0.630237
H41	H	0.569064	-1.052064	-0.095557
H42	H	0.551200	-0.845970	-0.098552
F43	F	0.572958	-1.069366	0.129099
H44	H	0.562766	-0.849960	0.095800
