data_functionalizedCrystal
_audit_creation_method	'MofGen! by Chris Wilmer'
_symmetry_space_group_name_H-M	'P1'
_symmetry_Int_Tables_number	1
_symmetry_cell_setting	triclinic
loop_
_symmetry_equiv_pos_as_xyz
  x,y,z
_cell_length_a	12.759401
_cell_length_b	12.759400
_cell_length_c	12.759393
_cell_angle_alpha	89.969391
_cell_angle_beta	89.981636
_cell_angle_gamma	90.014845
loop_
_atom_site_label
_atom_site_type_symbol
_atom_site_fract_x
_atom_site_fract_y
_atom_site_fract_z
Zn1	Zn	1.606254	-0.418210	-0.593981
Zn2	Zn	1.606149	-0.593926	-0.418301
Zn3	Zn	1.430556	-0.418262	-0.418321
Zn4	Zn	1.430545	-0.593848	-0.593943
O5	O	1.518376	-0.506061	-0.506137
O6	O	1.753261	-0.441530	-0.570685
O7	O	1.582817	-0.570678	-0.271283
O8	O	1.453912	-0.271234	-0.441647
O9	O	1.753184	-0.570627	-0.441614
O10	O	1.582996	-0.271196	-0.570704
O11	O	1.453810	-0.441618	-0.271297
O12	O	1.283534	-0.441543	-0.441609
O13	O	1.453892	-0.570495	-0.740969
O14	O	1.283525	-0.570545	-0.570638
O15	O	1.582985	-0.441454	-0.740997
O16	O	1.582806	-0.740936	-0.441577
O17	O	1.453790	-0.740879	-0.570620
C18	C	1.245409	-0.506042	-0.506122
C19	C	1.128632	-0.506059	-0.506141
C20	C	1.073793	-0.573338	-0.573215
C21	C	0.964069	-0.573351	-0.573227
C22	C	0.964033	-0.438804	-0.439081
C23	C	1.073755	-0.438786	-0.439075
C24	C	1.073813	-0.651021	-0.650660
C25	C	0.964089	-0.651035	-0.650672
C26	C	1.518314	-0.779029	-0.506115
C27	C	1.518383	-0.895805	-0.506140
C28	C	1.585636	-0.950662	-0.439022
C29	C	1.585701	-1.060386	-0.439054
C30	C	1.451250	-1.060387	-0.573327
C31	C	1.451192	-0.950665	-0.573299
C32	C	1.663257	-0.950663	-0.361498
C33	C	1.663321	-1.060387	-0.361530
C34	C	1.792409	-0.506081	-0.506152
C35	C	1.909186	-0.506090	-0.506158
C36	C	1.518449	-0.505960	-0.780170
C37	C	1.518480	-0.505917	-0.896947
C38	C	1.518467	-0.232028	-0.506182
C39	C	1.518506	-0.115251	-0.506201
C40	C	1.585731	-0.438669	-1.061550
C41	C	1.585706	-0.438712	-0.951826
C42	C	1.451282	-0.573089	-0.951797
C43	C	1.451314	-0.573050	-1.061520
C44	C	1.663336	-0.361084	-1.061566
C45	C	1.663311	-0.361127	-0.951842
C46	C	1.518364	-0.506086	-0.233169
C47	C	1.518536	-0.505834	-0.116393
H48	H	1.107827	-0.728273	-0.621376
C49	C	1.134074	-0.364765	-0.365298
N50	N	1.179506	-0.309009	-0.309726
H51	H	1.396546	-1.105067	-0.628005
C52	C	1.623888	-0.904795	-0.257044
N53	N	1.594224	-0.870246	-0.178372
H54	H	1.396553	-0.627815	-0.907106
C55	C	1.633949	-1.100732	-0.251593
N56	N	1.611824	-1.131120	-0.168793
C57	C	1.773262	-0.390521	-1.101796
N58	N	1.856055	-0.412696	-1.132096
C59	C	1.377259	-0.890326	-0.647184
N60	N	1.321584	-0.844879	-0.702852
C61	C	1.773145	-0.910322	-0.391020
N62	N	1.855911	-0.879937	-0.413257
C63	C	0.918154	-0.611785	-0.755163
N64	N	0.883554	-0.582216	-0.833861
H65	H	0.919338	-0.384031	-0.384479
H66	H	1.634220	-0.283778	-1.095611
H67	H	1.740589	-0.390294	-0.917810
H68	H	1.740625	-1.094332	-0.390742
C69	C	1.114088	-0.621735	-0.760642
N70	N	1.144422	-0.599686	-0.843481
C71	C	1.377401	-0.646943	-1.121843
N72	N	1.321726	-0.702602	-1.167278
C73	C	1.633884	-0.251218	-0.911624
N74	N	1.611717	-0.168438	-0.881333
H75	H	0.934294	-0.732384	-0.628740
