data_functionalizedCrystal
_audit_creation_method	'MofGen! by Chris Wilmer'
_symmetry_space_group_name_H-M	'P1'
_symmetry_Int_Tables_number	1
_symmetry_cell_setting	triclinic
loop_
_symmetry_equiv_pos_as_xyz
  x,y,z
_cell_length_a	14.044191
_cell_length_b	12.503552
_cell_length_c	16.109301
_cell_angle_alpha	86.482779
_cell_angle_beta	88.326629
_cell_angle_gamma	93.842477
loop_
_atom_site_label
_atom_site_type_symbol
_atom_site_fract_x
_atom_site_fract_y
_atom_site_fract_z
O1	O	1.263117	0.089275	0.196067
O2	O	0.987151	0.089288	0.188827
O3	O	1.132714	0.089270	0.071981
O4	O	1.117554	0.089293	0.312913
O5	O	1.121755	-0.089371	0.080776
O6	O	0.976191	-0.089353	0.197622
O7	O	1.252157	-0.089366	0.204862
Cu8	Cu	1.113173	-0.105671	0.202045
Cu9	Cu	1.126135	0.105593	0.191644
O10	O	1.106594	-0.089348	0.321708
C11	C	0.946357	-0.000031	0.190058
C12	C	0.841135	-0.000026	0.180612
N13	N	1.104064	-0.254263	0.209361
C14	C	0.590832	-0.000032	0.230337
C15	C	0.648482	-0.000037	0.163356
C16	C	0.755684	-0.000031	0.172959
C17	C	0.483621	-0.000038	0.220734
C18	C	1.148647	-0.526701	0.173558
C19	C	1.090672	-0.473370	0.220123
C20	C	1.098125	-0.351447	0.214133
C21	C	1.141195	-0.648635	0.179546
C22	C	1.292951	-0.000045	0.203631
C23	C	1.398174	-0.000043	0.213077
C24	C	1.126620	-0.000051	0.045358
C25	C	1.124779	-0.000052	-0.047074
N26	N	1.135252	0.254185	0.184322
C27	C	1.206873	-0.000039	-0.263238
C28	C	1.205136	-0.000030	-0.350088
C29	C	1.032429	-0.000026	-0.343067
C30	C	1.034167	-0.000027	-0.256219
C31	C	1.121392	-0.000039	-0.216306
C32	C	1.117917	-0.000029	-0.390005
C33	C	1.116033	-0.000020	-0.484172
C34	C	1.123277	-0.000047	-0.122134
C35	C	1.112688	-0.000025	0.348331
C36	C	1.114530	-0.000016	0.440763
H37	H	0.617331	0.000033	0.098796
H38	H	0.621987	-0.000023	0.294888
H39	H	1.035441	-0.519279	0.264487
H40	H	0.961414	-0.000019	-0.375575
C41	C	1.223266	-0.464693	0.113633
C42	C	1.230707	-0.341007	0.107648
C43	C	1.305328	-0.278984	0.047728
C44	C	1.372508	-0.340648	-0.006208
C45	C	1.365069	-0.464342	-0.000225
C46	C	1.290448	-0.526364	0.059696
H47	H	1.180974	-0.295353	0.147577
H48	H	1.310834	-0.187418	0.043299
H49	H	1.427747	-0.294736	-0.050565
H50	H	1.414801	-0.509995	-0.040153
H51	H	1.284941	-0.617930	0.064124
H52	H	1.277897	-0.000047	-0.230744
C53	C	1.299168	-0.000034	-0.401712
C54	C	1.364954	-0.092804	-0.388107
C55	C	1.458990	-0.092805	-0.439730
C56	C	1.487241	-0.000038	-0.504958
C57	C	1.421454	0.092739	-0.518565
C58	C	1.327417	0.092741	-0.466942
H59	H	1.344042	-0.161482	-0.339819
H60	H	1.507690	-0.161485	-0.429657
H61	H	1.556852	-0.000039	-0.543172
H62	H	1.442365	0.161417	-0.566853
H63	H	1.278717	0.161420	-0.477015
C64	C	0.940132	-0.000031	-0.204587
C65	C	0.844187	-0.000033	-0.248485
C66	C	0.750156	-0.000033	-0.196853
C67	C	0.752070	-0.000031	-0.101324
C68	C	0.848019	-0.000029	-0.057421
C69	C	0.942049	-0.000029	-0.109053
H70	H	0.842766	-0.000035	-0.319206
H71	H	0.679129	-0.000034	-0.229353
H72	H	0.682463	-0.000031	-0.063103
H73	H	0.849439	-0.000027	0.013300
H74	H	1.013077	-0.000027	-0.076553
