data_functionalizedCrystal
_audit_creation_method	'MofGen! by Chris Wilmer'
_symmetry_space_group_name_H-M	'P1'
_symmetry_Int_Tables_number	1
_symmetry_cell_setting	triclinic
loop_
_symmetry_equiv_pos_as_xyz
  x,y,z
_cell_length_a	10.654541
_cell_length_b	14.044220
_cell_length_c	9.130307
_cell_angle_alpha	89.995545
_cell_angle_beta	89.999822
_cell_angle_gamma	88.836403
loop_
_atom_site_label
_atom_site_type_symbol
_atom_site_fract_x
_atom_site_fract_y
_atom_site_fract_z
O1	O	1.681226	0.133219	-0.121759
O2	O	1.317023	0.145915	-0.121772
O3	O	1.493658	0.001547	-0.121751
O4	O	1.504591	0.277588	-0.121780
O5	O	1.493651	0.001545	0.121848
O6	O	1.317016	0.145914	0.121827
O7	O	1.681220	0.133218	0.121840
Cu8	Cu	1.499117	0.139565	0.144076
Cu9	Cu	1.499125	0.139567	-0.144008
O10	O	1.504585	0.277586	0.121819
C11	C	1.270128	0.144983	0.000026
C12	C	1.130404	0.142195	0.000021
C13	C	1.119781	0.314827	-0.000015
C14	C	1.048829	0.399829	-0.000039
C15	C	0.917547	0.397204	-0.000040
C16	C	0.857215	0.309567	-0.000013
C17	C	0.928167	0.224565	0.000011
C18	C	1.059452	0.227199	0.000008
C19	C	0.938790	0.051935	0.000058
C20	C	1.070072	0.054558	0.000049
C21	C	0.878458	-0.035701	0.000085
C22	C	0.949411	-0.120706	0.000098
C23	C	1.080701	-0.118077	0.000098
C24	C	1.141025	-0.030444	0.000072
C25	C	1.488869	-0.033800	0.000049
C26	C	1.474593	-0.139120	0.000050
C27	C	1.448494	-0.331952	0.000028
C28	C	1.549742	-0.388921	0.000027
C29	C	1.535221	-0.496219	0.000015
C30	C	1.463014	-0.224644	0.000040
C31	C	1.728114	0.134150	0.000039
C32	C	1.867838	0.136938	0.000034
C33	C	1.509374	0.312933	0.000016
C34	C	1.523649	0.418252	0.000005
N35	N	1.499121	0.139564	0.346699
N36	N	1.499130	0.139561	-0.346631
C37	C	1.655605	0.011763	0.346707
C38	C	1.733855	-0.052134	0.423378
C39	C	1.733868	-0.052135	0.576712
C40	C	1.655619	0.011767	0.653378
C41	C	1.577368	0.075664	0.576707
C42	C	1.577367	0.075660	0.423370
C43	C	1.420880	0.203459	0.576698
C44	C	1.420872	0.203466	0.423365
C45	C	1.342631	0.267361	0.653364
C46	C	1.264385	0.331265	0.576693
C47	C	1.264377	0.331263	0.423351
C48	C	1.342621	0.267363	0.346694
H49	H	1.226677	0.316973	-0.000046
H50	H	1.350915	-0.363762	0.000021
N51	N	1.179999	0.400176	0.659391
H52	H	1.201999	0.467606	0.632707
H53	H	1.089613	0.388539	0.632679
H54	H	1.097966	0.471181	-0.000057
H55	H	1.647330	-0.357109	-0.000067
H56	H	1.342638	0.267354	0.778217
N57	N	1.818264	-0.121047	0.659423
H58	H	1.796267	-0.188478	0.632758
H59	H	1.908648	-0.109406	0.632698
H60	H	0.900278	-0.192053	0.000119
N61	N	1.655590	0.011778	0.181328
H62	H	1.742516	0.026188	0.144385
H63	H	1.630047	-0.052812	0.144510
N64	N	1.157225	-0.209759	0.000141
H65	H	1.099080	-0.265669	0.000161
H66	H	1.211927	-0.212442	-0.090164
H67	H	1.655622	0.011755	0.778230
H68	H	1.247921	-0.028295	0.000055
N69	N	1.818218	-0.121078	0.340692
H70	H	1.806333	-0.111390	0.231921
H71	H	1.908607	-0.109507	0.367469
N72	N	1.179964	0.400180	0.340670
H73	H	1.201962	0.467609	0.367348
H74	H	1.191861	0.390407	0.231925
N75	N	0.841011	0.488881	-0.000031
H76	H	0.899145	0.544797	-0.000036
H77	H	0.786302	0.491553	-0.090330
N78	N	0.715619	0.306745	0.000021
H79	H	0.681899	0.340000	-0.090281
H80	H	0.688259	0.238313	0.000099
N81	N	0.736863	-0.038538	0.000113
H82	H	0.701067	0.028606	0.000096
H83	H	0.707419	-0.073112	-0.090177
N84	N	1.342619	0.267367	0.181314
H85	H	1.404060	0.217191	0.144387
H86	H	1.255647	0.252989	0.144503
