data_functionalizedCrystal
_audit_creation_method	'MofGen! by Chris Wilmer'
_symmetry_space_group_name_H-M	'P1'
_symmetry_Int_Tables_number	1
_symmetry_cell_setting	triclinic
loop_
_symmetry_equiv_pos_as_xyz
  x,y,z
_cell_length_a	17.699077
_cell_length_b	16.176319
_cell_length_c	17.699083
_cell_angle_alpha	90.007696
_cell_angle_beta	83.281795
_cell_angle_gamma	90.006860
loop_
_atom_site_label
_atom_site_type_symbol
_atom_site_fract_x
_atom_site_fract_y
_atom_site_fract_z
O1	O	1.004082	0.068737	0.095692
O2	O	1.337415	0.402071	0.429025
O3	O	1.670748	0.735404	0.762358
O4	O	0.783703	0.068741	0.108149
O5	O	1.117036	0.402075	0.441482
O6	O	1.450369	0.735408	0.774815
O7	O	0.900118	0.068732	-0.008269
O8	O	1.233452	0.402065	0.325064
O9	O	1.566785	0.735399	0.658398
O10	O	0.887666	0.068747	0.212110
O11	O	1.220999	0.402080	0.545443
O12	O	1.554333	0.735413	0.878776
O13	O	0.900102	-0.068761	-0.008277
O14	O	1.233436	0.264572	0.325057
O15	O	1.566769	0.597905	0.658390
O16	O	0.783687	-0.068752	0.108141
O17	O	1.117020	0.264582	0.441475
O18	O	1.450353	0.597915	0.774808
O19	O	1.004066	-0.068756	0.095684
O20	O	1.337399	0.264577	0.429018
O21	O	1.670732	0.597911	0.762351
Cu22	Cu	0.893875	-0.081308	0.101912
Cu23	Cu	1.227208	0.252025	0.435245
Cu24	Cu	1.560541	0.585359	0.768579
Cu25	Cu	0.893894	0.081294	0.101921
Cu26	Cu	1.227227	0.414627	0.435254
Cu27	Cu	1.560560	0.747960	0.768588
O28	O	0.887650	-0.068746	0.212102
O29	O	1.220983	0.264587	0.545435
O30	O	1.554317	0.597920	0.878769
C31	C	0.755498	-0.000005	0.107700
C32	C	1.088831	0.333329	0.441033
C33	C	1.422164	0.666662	0.774366
C34	C	0.671479	-0.000003	0.106363
C35	C	1.004813	0.333330	0.439696
C36	C	1.338146	0.666663	0.773029
C37	C	0.632003	-0.074952	0.105729
C38	C	0.965336	0.258382	0.439062
C39	C	1.298670	0.591715	0.772395
C40	C	0.553061	-0.074953	0.104461
C41	C	0.886394	0.258381	0.437794
C42	C	1.219727	0.591714	0.771127
C43	C	0.513595	-0.000004	0.103832
C44	C	0.846928	0.333329	0.437165
C45	C	1.180262	0.666662	0.770498
C46	C	0.553077	0.074950	0.104464
C47	C	0.886410	0.408283	0.437797
C48	C	1.219743	0.741617	0.771130
C49	C	0.632019	0.074950	0.105726
C50	C	0.965352	0.408283	0.439060
C51	C	1.298685	0.741617	0.772393
C52	C	0.234714	0.074951	0.099370
C53	C	0.568047	0.408285	0.432704
C54	C	0.901380	0.741618	0.766037
C55	C	0.155766	0.074945	0.098110
C56	C	0.489099	0.408279	0.431443
C57	C	0.822433	0.741612	0.764776
C58	C	0.155755	-0.074952	0.098105
C59	C	0.489089	0.258382	0.431438
C60	C	0.822422	0.591715	0.764771
C61	C	0.234697	-0.074951	0.099367
C62	C	0.568031	0.258382	0.432701
C63	C	0.901364	0.591715	0.766034
C64	C	0.274173	0.000002	0.099995
C65	C	0.607506	0.333336	0.433328
C66	C	0.940840	0.666669	0.766662
C67	C	0.359772	0.000002	0.101369
C68	C	0.693105	0.333336	0.434702
C69	C	1.026438	0.666669	0.768035
C70	C	0.427997	-0.000004	0.102464
C71	C	0.761330	0.333330	0.435797
C72	C	1.094664	0.666663	0.769130
N73	N	0.893867	-0.195673	0.101906
N74	N	1.227200	0.137660	0.435239
N75	N	1.560534	0.470993	0.768572
C76	C	0.945431	-0.238942	0.050377
C77	C	1.278765	0.094392	0.383710
C78	C	1.612098	0.427725	0.717043
C79	C	0.945435	-0.325489	0.050376
C80	C	1.278768	0.007845	0.383709
C81	C	1.612102	0.341178	0.717043
C82	C	0.893878	-0.368766	0.101908
C83	C	1.227211	-0.035433	0.435241
C84	C	1.560544	0.297901	0.768575
C85	C	0.842308	-0.325491	0.153439
C86	C	1.175641	0.007842	0.486773
C87	C	1.508974	0.341175	0.820106
C88	C	0.842301	-0.238946	0.153436
C89	C	1.175634	0.094387	0.486769
C90	C	1.508968	0.427721	0.820103
C91	C	0.842334	-0.674520	0.153454
C92	C	1.175667	-0.341186	0.486787
C93	C	1.509000	-0.007853	0.820120
C94	C	0.842346	-0.761071	0.153455
C95	C	1.175679	-0.427738	0.486788
C96	C	1.509013	-0.094405	0.820121
C97	C	0.945468	-0.761063	0.050393
C98	C	1.278801	-0.427729	0.383727
C99	C	1.612135	-0.094396	0.717060
C100	C	0.945461	-0.674517	0.050390
C101	C	1.278794	-0.341184	0.383723
C102	C	1.612128	-0.007850	0.717057
C103	C	0.893889	-0.631250	0.101918
C104	C	1.227222	-0.297917	0.435252
C105	C	1.560556	0.035417	0.768585
C106	C	0.893884	-0.537406	0.101918
C107	C	1.227218	-0.204073	0.435251
C108	C	1.560551	0.129261	0.768584
C109	C	0.893885	-0.462608	0.101913
C110	C	1.227218	-0.129275	0.435246
C111	C	1.560552	0.204058	0.768580
C112	C	1.032271	-0.000008	0.096133
C113	C	1.365604	0.333325	0.429467
C114	C	1.698937	0.666659	0.762800
C115	C	1.116289	-0.000004	0.097470
C116	C	1.449622	0.333329	0.430804
C117	C	1.782956	0.666663	0.764137
C118	C	0.899664	-0.000015	-0.036470
C119	C	1.232998	0.333319	0.296864
C120	C	1.566331	0.666652	0.630197
C121	C	0.898326	-0.000015	-0.120488
C122	C	1.231659	0.333318	0.212845
C123	C	1.564992	0.666652	0.546179
N124	N	0.893907	0.195659	0.101921
N125	N	1.227241	0.528992	0.435255
N126	N	1.560574	0.862325	0.768588
C127	C	0.966659	-0.000018	-0.169110
C128	C	1.299993	0.333316	0.164223
C129	C	1.633326	0.666649	0.497556
C130	C	0.965397	-0.000010	-0.248054
C131	C	1.298730	0.333323	0.085280
C132	C	1.632064	0.666656	0.418613
C133	C	0.895800	-0.000006	-0.278373
C134	C	1.229134	0.333327	0.054960
C135	C	1.562467	0.666660	0.388294
C136	C	0.827461	-0.000001	-0.229744
C137	C	1.160795	0.333332	0.103589
C138	C	1.494128	0.666665	0.436922
C139	C	0.828724	-0.000003	-0.150803
C140	C	1.162058	0.333331	0.182531
C141	C	1.495391	0.666664	0.515864
C142	C	0.822366	0.000005	-0.548107
C143	C	1.155699	0.333339	-0.214774
C144	C	1.489033	0.666672	0.118559
C145	C	0.821108	0.000004	-0.627055
C146	C	1.154442	0.333338	-0.293722
C147	C	1.487775	0.666671	0.039612
C148	C	0.959039	-0.000002	-0.645358
C149	C	1.292372	0.333331	-0.312025
C150	C	1.625705	0.666665	0.021308
C151	C	0.960302	-0.000003	-0.566417
C152	C	1.293635	0.333330	-0.233083
C153	C	1.626968	0.666663	0.100250
C154	C	0.891963	0.000006	-0.517795
C155	C	1.225297	0.333339	-0.184461
C156	C	1.558630	0.666673	0.148872
C157	C	0.893333	-0.000000	-0.432196
C158	C	1.226666	0.333333	-0.098862
C159	C	1.559999	0.666666	0.234471
C160	C	0.894430	-0.000006	-0.363971
C161	C	1.227763	0.333327	-0.030637
C162	C	1.561097	0.666661	0.302696
C163	C	0.888104	0.000002	0.240303
C164	C	1.221437	0.333335	0.573636
C165	C	1.554771	0.666669	0.906969
C166	C	0.889443	0.000008	0.324321
C167	C	1.222776	0.333341	0.657654
C168	C	1.556109	0.666674	0.990988
H169	H	0.664159	0.135981	0.106244
H170	H	0.997492	0.469314	0.439577
H171	H	1.330826	0.802648	0.772911
H172	H	0.987418	-0.203711	0.008416
H173	H	1.320752	0.129622	0.341750
H174	H	1.654085	0.462955	0.675083
Br175	Br	0.772371	-0.819805	0.223397
Br176	Br	1.105704	-0.486471	0.556730
Br177	Br	1.439038	-0.153138	0.890063
H178	H	0.987422	-0.360718	0.008417
H179	H	1.320755	-0.027384	0.341750
H180	H	1.654089	0.305949	0.675083
Br181	Br	1.015460	-0.819786	-0.019541
Br182	Br	1.348793	-0.486452	0.313793
Br183	Br	1.682126	-0.153119	0.647126
H184	H	0.266845	0.135983	0.099879
H185	H	0.600179	0.469316	0.433212
H186	H	0.933512	0.802650	0.766546
H187	H	0.987446	-0.639284	0.008430
H188	H	1.320780	-0.305950	0.341764
H189	H	1.654113	0.027383	0.675097
H190	H	0.770794	0.000007	-0.254436
H191	H	1.104128	0.333340	0.078897
H192	H	1.437461	0.666674	0.412230
Br193	Br	0.772347	-0.615805	0.223384
Br194	Br	1.105680	-0.282472	0.556717
Br195	Br	1.439013	0.050862	0.890051
H196	H	0.800325	-0.360733	0.195395
H197	H	1.133658	-0.027399	0.528729
H198	H	1.466992	0.305934	0.862062
Br199	Br	1.054757	-0.000008	-0.525273
Br200	Br	1.388091	0.333325	-0.191940
Br201	Br	1.721424	0.666659	0.141394
H202	H	0.520938	0.135974	0.103946
H203	H	0.854272	0.469308	0.437280
H204	H	1.187605	0.802641	0.770613
Br205	Br	0.735982	0.000007	-0.084813
Br206	Br	1.069316	0.333341	0.248520
Br207	Br	1.402649	0.666674	0.581853
Br208	Br	1.051786	-0.000014	-0.711349
Br209	Br	1.385119	0.333319	-0.378016
Br210	Br	1.718452	0.666652	-0.044682
Br211	Br	1.058140	-0.000013	-0.314039
Br212	Br	1.391473	0.333320	0.019294
Br213	Br	1.724806	0.666653	0.352628
Br214	Br	0.685555	-0.176673	0.106590
Br215	Br	1.018888	0.156660	0.439923
Br216	Br	1.352222	0.489993	0.773256
Br217	Br	0.726649	0.000009	-0.668202
Br218	Br	1.059983	0.333342	-0.334869
Br219	Br	1.393316	0.666675	-0.001535
Br220	Br	0.772313	-0.180224	0.223366
Br221	Br	1.105646	0.153109	0.556700
Br222	Br	1.438979	0.486442	0.890033
H223	H	1.023333	-0.000026	-0.144431
H224	H	1.356666	0.333307	0.188902
H225	H	1.690000	0.666641	0.522236
H226	H	0.520924	-0.135983	0.103932
H227	H	0.854258	0.197350	0.437265
H228	H	1.187591	0.530683	0.770598
Br229	Br	0.288253	-0.176671	0.100228
Br230	Br	0.621587	0.156663	0.433561
Br231	Br	0.954920	0.489996	0.766894
H232	H	0.766721	0.000013	-0.508528
H233	H	1.100054	0.333346	-0.175195
H234	H	1.433387	0.666679	0.158138
Br235	Br	0.102205	0.176668	0.097257
Br236	Br	0.435538	0.510001	0.430591
Br237	Br	0.768872	0.843335	0.763924
Br238	Br	0.102178	-0.176677	0.097251
Br239	Br	0.435511	0.156656	0.430585
Br240	Br	0.768844	0.489990	0.763918
