data_functionalizedCrystal
_audit_creation_method	'MofGen! by Chris Wilmer'
_symmetry_space_group_name_H-M	'P1'
_symmetry_Int_Tables_number	1
_symmetry_cell_setting	triclinic
loop_
_symmetry_equiv_pos_as_xyz
  x,y,z
_cell_length_a	18.215407
_cell_length_b	16.120484
_cell_length_c	18.215407
_cell_angle_alpha	87.111731
_cell_angle_beta	90.009795
_cell_angle_gamma	92.926015
loop_
_atom_site_label
_atom_site_type_symbol
_atom_site_fract_x
_atom_site_fract_y
_atom_site_fract_z
Zn1	Zn	1.110130	-0.332069	0.430967
Zn2	Zn	1.610130	0.167931	0.930967
Zn3	Zn	1.103819	-0.471446	0.314134
Zn4	Zn	1.603819	0.028554	0.814134
Zn5	Zn	0.987085	-0.332050	0.307913
Zn6	Zn	1.487085	0.167950	0.807913
Zn7	Zn	0.980787	-0.471446	0.437159
Zn8	Zn	1.480787	0.028554	0.937159
O9	O	1.045455	-0.401753	0.372543
O10	O	1.545455	0.098247	0.872543
O11	O	1.212276	-0.350565	0.415481
O12	O	1.712276	0.149435	0.915481
O13	O	1.088328	-0.452947	0.210324
O14	O	1.588328	0.047053	0.710324
O15	O	1.008684	-0.215384	0.319042
O16	O	1.508684	0.284616	0.819042
O17	O	1.207640	-0.452965	0.329644
O18	O	1.707640	0.047035	0.829644
O19	O	1.099084	-0.215398	0.409449
O20	O	1.599084	0.284602	0.909449
O21	O	1.002564	-0.350533	0.205754
O22	O	1.502564	0.149467	0.705754
O23	O	0.883265	-0.350533	0.325046
O24	O	1.383265	0.149467	0.825046
O25	O	0.997950	-0.452965	0.539322
O26	O	1.497950	0.047035	1.039322
O27	O	0.878639	-0.452947	0.420002
O28	O	1.378639	0.047053	0.920002
O29	O	1.092978	-0.350565	0.534773
O30	O	1.592978	0.149435	1.034773
O31	O	1.082222	-0.588114	0.335648
O32	O	1.582222	-0.088114	0.835648
O33	O	0.991831	-0.588114	0.426034
O34	O	1.491831	-0.088114	0.926034
C35	C	0.854249	-0.401738	0.372522
C36	C	1.354249	0.098262	0.872522
C37	C	0.772450	-0.401752	0.372531
C38	C	1.272450	0.098248	0.872531
C39	C	0.581862	-0.455163	0.421919
C40	C	1.081862	0.044837	0.921919
C41	C	0.505003	-0.455166	0.421928
C42	C	1.005003	0.044834	0.921928
C43	C	0.509799	-0.348357	0.323184
C44	C	1.009799	0.151643	0.823184
C45	C	0.586657	-0.348351	0.323179
C46	C	1.086657	0.151649	0.823179
C47	C	0.622686	-0.401759	0.372546
C48	C	1.122686	0.098241	0.872546
C49	C	0.468970	-0.401767	0.372560
C50	C	0.968970	0.098233	0.872560
C51	C	0.385636	-0.401770	0.372570
C52	C	0.885636	0.098230	0.872570
C53	C	0.706025	-0.401755	0.372537
C54	C	1.206025	0.098245	0.872537
C55	C	1.035678	-0.618365	0.382204
C56	C	1.535678	-0.118365	0.882204
C57	C	1.031563	-0.711032	0.386362
C58	C	1.531563	-0.211032	0.886362
C59	C	1.024053	-0.880697	0.393968
C60	C	1.524053	-0.380697	0.893968
C61	C	1.066989	-0.921968	0.351131
C62	C	1.566989	-0.421968	0.851131
C63	C	1.062810	-1.016375	0.355363
C64	C	1.562810	-0.516375	0.855363
C65	C	1.028231	-0.786281	0.389737
C66	C	1.528231	-0.286281	0.889737
C67	C	1.237407	-0.401767	0.372566
C68	C	1.737407	0.098233	0.872566
C69	C	1.319206	-0.401774	0.372575
C70	C	1.819206	0.098226	0.872575
C71	C	1.045466	-0.401767	0.564497
C72	C	1.545466	0.098233	1.064497
C73	C	1.045470	-0.401773	0.646296
C74	C	1.545470	0.098227	1.146296
C75	C	1.055290	-0.184295	0.362861
C76	C	1.555290	0.315705	0.862861
C77	C	1.059482	-0.091627	0.358735
C78	C	1.559482	0.408373	0.858735
C79	C	1.090117	-0.455084	0.913737
C80	C	1.590117	0.044916	1.413737
C81	C	1.090119	-0.455088	0.836878
C82	C	1.590119	0.044912	1.336878
C83	C	1.000803	-0.348450	0.832103
C84	C	1.500803	0.151550	1.332103
C85	C	1.000798	-0.348451	0.908960
C86	C	1.500798	0.151549	1.408960
C87	C	1.045459	-0.401767	0.949775
C88	C	1.545459	0.098233	1.449775
C89	C	1.045466	-0.401770	0.796059
C90	C	1.545466	0.098230	1.296059
C91	C	1.045467	-0.401773	0.712726
C92	C	1.545467	0.098227	1.212726
C93	C	1.045457	-0.401764	1.033114
C94	C	1.545457	0.098236	1.533114
C95	C	1.045444	-0.401760	1.181337
C96	C	1.545444	0.098240	1.681337
C97	C	1.045455	-0.401763	1.099539
C98	C	1.545455	0.098237	1.599539
H99	H	0.471768	-0.498652	0.462134
H100	H	0.971768	0.001348	0.962134
H101	H	1.126482	-0.498498	0.946967
H102	H	1.626482	0.001502	1.446967
H103	H	0.480454	-0.304876	0.282991
H104	H	0.980454	0.195124	0.782991
O105	O	0.957395	-0.296576	0.943855
O106	O	1.457395	0.203424	1.443855
C107	C	0.917968	-0.249527	0.891352
C108	C	1.417968	0.250473	1.391352
H109	H	0.948244	-0.246635	0.836443
H110	H	1.448244	0.253365	1.336443
H111	H	0.913082	-0.183842	0.910633
H112	H	1.413082	0.316158	1.410633
H113	H	0.860697	-0.280059	0.884526
H114	H	1.360697	0.219941	1.384526
H115	H	1.106884	-0.886398	0.311279
H116	H	1.606884	-0.386398	0.811279
O117	O	0.976473	-0.923252	0.441440
O118	O	1.476473	-0.423252	0.941440
C119	C	0.982852	-1.009403	0.435152
C120	C	1.482852	-0.509403	0.935152
H121	H	1.006494	-1.021186	0.378900
H122	H	1.506494	-0.521186	0.878900
H123	H	0.926282	-1.042628	0.441542
H124	H	1.426282	-0.542628	0.941542
H125	H	1.020935	-1.034061	0.479927
H126	H	1.520935	-0.534061	0.979927
O127	O	0.616891	-0.507123	0.469775
O128	O	1.116891	-0.007123	0.969775
C129	C	0.658928	-0.560883	0.430201
C130	C	1.158928	-0.060883	0.930201
H131	H	0.635527	-0.565935	0.372458
H132	H	1.135527	-0.065935	0.872458
H133	H	0.656909	-0.625089	0.459595
H134	H	1.156909	-0.125089	0.959595
H135	H	0.718340	-0.535097	0.426548
H136	H	1.218340	-0.035097	0.926548
O137	O	0.626205	-0.296445	0.275144
O138	O	1.126205	0.203555	0.775144
C139	C	0.577926	-0.249298	0.231581
C140	C	1.077926	0.250702	0.731581
H141	H	0.521598	-0.283444	0.230507
H142	H	1.021598	0.216556	0.730507
H143	H	0.600529	-0.240298	0.173208
H144	H	1.100529	0.259702	0.673208
H145	H	0.572613	-0.186028	0.255799
H146	H	1.072613	0.313972	0.755799
H147	H	1.126483	-0.498504	0.807540
H148	H	1.626483	0.001496	1.307540
O149	O	0.957495	-0.296683	0.792341
O150	O	1.457495	0.203317	1.292341
C151	C	0.967062	-0.308126	0.716777
C152	C	1.467062	0.191874	1.216777
H153	H	1.022623	-0.335432	0.707511
H154	H	1.522623	0.164568	1.207511
H155	H	0.964895	-0.245676	0.684783
H156	H	1.464895	0.254324	1.184783
H157	H	0.921405	-0.352521	0.696933
H158	H	1.421405	0.147479	1.196933
