data_functionalizedCrystal
_audit_creation_method	'MofGen! by Chris Wilmer'
_symmetry_space_group_name_H-M	'P1'
_symmetry_Int_Tables_number	1
_symmetry_cell_setting	triclinic
loop_
_symmetry_equiv_pos_as_xyz
  x,y,z
_cell_length_a	16.992694
_cell_length_b	11.892095
_cell_length_c	16.992695
_cell_angle_alpha	85.845109
_cell_angle_beta	90.668223
_cell_angle_gamma	94.159293
loop_
_atom_site_label
_atom_site_type_symbol
_atom_site_fract_x
_atom_site_fract_y
_atom_site_fract_z
O1	O	1.055561	0.093862	0.162207
O2	O	1.555561	0.593862	0.662207
O3	O	0.827163	0.093895	0.160374
O4	O	1.327163	0.593895	0.660374
O5	O	0.940446	0.093870	0.047091
O6	O	1.440446	0.593870	0.547091
O7	O	0.942278	0.093887	0.275490
O8	O	1.442278	0.593887	0.775490
O9	O	0.931000	-0.094136	0.056520
O10	O	1.431000	0.405864	0.556520
O11	O	0.817717	-0.094110	0.169803
O12	O	1.317717	0.405890	0.669803
O13	O	1.046115	-0.094143	0.171636
O14	O	1.546115	0.405857	0.671636
Zn15	Zn	0.930416	-0.123977	0.172217
Zn16	Zn	1.430416	0.376023	0.672217
Zn17	Zn	0.942862	0.123729	0.159793
Zn18	Zn	1.442862	0.623729	0.659793
O19	O	0.932832	-0.094118	0.284920
O20	O	1.432832	0.405882	0.784920
C21	C	0.793080	-0.000103	0.162733
C22	C	1.293080	0.499897	0.662733
C23	C	0.705596	-0.000091	0.155703
C24	C	1.205596	0.499909	0.655703
N25	N	0.921928	-0.293029	0.180696
N26	N	1.421928	0.206971	0.680696
C27	C	0.659605	-0.000086	0.223521
C28	C	1.159605	0.499914	0.723521
C29	C	0.577404	-0.000102	0.216913
C30	C	1.077404	0.499898	0.716913
C31	C	0.541195	-0.000115	0.142486
C32	C	1.041195	0.499885	0.642486
C33	C	0.587191	-0.000123	0.074663
C34	C	1.087191	0.499877	0.574663
C35	C	0.669391	-0.000115	0.081272
C36	C	1.169391	0.499885	0.581272
C37	C	0.295879	-0.000147	0.115093
C38	C	0.795879	0.499853	0.615093
C39	C	0.213673	-0.000152	0.108489
C40	C	0.713673	0.499848	0.608489
C41	C	0.203891	-0.000134	0.250739
C42	C	0.703891	0.499866	0.750739
C43	C	0.286093	-0.000119	0.257341
C44	C	0.786093	0.499881	0.757341
C45	C	0.332082	-0.000133	0.189519
C46	C	0.832082	0.499867	0.689519
N47	N	0.457172	-0.000128	0.135729
N48	N	0.957172	0.499872	0.635729
N49	N	0.416103	-0.000128	0.196277
N50	N	0.916103	0.499872	0.696277
C51	C	1.010419	-0.529697	0.092262
C52	C	1.510419	-0.029697	0.592262
C53	C	1.004491	-0.648037	0.098195
C54	C	1.504491	-0.148037	0.598195
C55	C	0.904143	-0.648053	0.198490
C56	C	1.404143	-0.148053	0.698490
C57	C	0.910070	-0.529712	0.192557
C58	C	1.410070	-0.029712	0.692557
C59	C	0.963210	-0.470538	0.139442
C60	C	1.463210	0.029462	0.639442
C61	C	0.969141	-0.352195	0.133514
C62	C	1.469141	0.147805	0.633514
C63	C	0.868789	-0.352213	0.233805
C64	C	1.368789	0.147787	0.733805
C65	C	0.862862	-0.470554	0.239738
C66	C	1.362862	0.029446	0.739738
C67	C	1.080198	-0.000142	0.169277
C68	C	1.580198	0.499858	0.669277
C69	C	1.167683	-0.000147	0.176306
C70	C	1.667683	0.499853	0.676306
C71	C	0.933367	-0.000132	0.022445
C72	C	1.433367	0.499868	0.522445
C73	C	0.926339	-0.000131	-0.065039
C74	C	1.426339	0.499869	0.434961
N75	N	0.951356	0.292781	0.151308
N76	N	1.451356	0.792781	0.651308
C77	C	0.994156	-0.000142	-0.111030
C78	C	1.494156	0.499858	0.388970
C79	C	0.987548	-0.000130	-0.193231
C80	C	1.487548	0.499870	0.306769
C81	C	0.913121	-0.000116	-0.229440
C82	C	1.413121	0.499884	0.270560
C83	C	0.845298	-0.000101	-0.183444
C84	C	1.345298	0.499899	0.316556
C85	C	0.851908	-0.000105	-0.101244
C86	C	1.351908	0.499895	0.398756
C87	C	0.885727	-0.000096	-0.474755
C88	C	1.385727	0.499904	0.025245
C89	C	0.879123	-0.000096	-0.556961
C90	C	1.379123	0.499904	-0.056961
C91	C	1.021373	-0.000123	-0.566742
C92	C	1.521373	0.499877	-0.066742
C93	C	1.027975	-0.000133	-0.484541
C94	C	1.527975	0.499867	0.015459
C95	C	0.960153	-0.000113	-0.438552
C96	C	1.460153	0.499887	0.061448
N97	N	0.906364	-0.000107	-0.313463
N98	N	1.406364	0.499893	0.186537
N99	N	0.966911	-0.000113	-0.354531
N100	N	1.466911	0.499887	0.145469
C101	C	0.939911	-0.000113	0.309565
C102	C	1.439911	0.499887	0.809565
C103	C	0.946940	-0.000107	0.397049
C104	C	1.446940	0.499893	0.897049
H105	H	0.689080	-0.000075	0.284127
H106	H	1.189080	0.499925	0.784127
H107	H	1.088581	-0.000146	-0.455065
H108	H	1.588581	0.499854	0.044935
H109	H	0.184195	-0.000161	0.047878
H110	H	0.684195	0.499839	0.547878
H111	H	1.042932	-0.696201	0.059775
H112	H	1.542932	-0.196201	0.559775
O113	O	0.846830	-0.711883	0.255776
O114	O	1.346830	-0.211883	0.755776
H115	H	0.850645	-0.804111	0.251974
H116	H	1.350645	-0.304111	0.751974
O117	O	0.805553	-0.534377	0.297030
O118	O	1.305553	-0.034377	0.797030
H119	H	0.809365	-0.626606	0.293235
H120	H	1.309365	-0.126606	0.793235
O121	O	1.060692	-0.000161	-0.242837
O122	O	1.560692	0.499839	0.257163
H123	H	1.113554	-0.000192	-0.203848
H124	H	1.613554	0.499808	0.296152
H125	H	0.830351	-0.304033	0.272225
H126	H	1.330351	0.195967	0.772225
H127	H	1.012413	-0.304017	0.090267
H128	H	1.512413	0.195983	0.590267
O129	O	0.527803	-0.000096	0.290062
O130	O	1.027803	0.499904	0.790062
H131	H	0.464560	-0.000119	0.272967
H132	H	0.964560	0.499881	0.772967
H133	H	1.054762	-0.000161	-0.081554
H134	H	1.554762	0.499839	0.418446
O135	O	0.812579	-0.000103	-0.425156
O136	O	1.312579	0.499897	0.074844
H137	H	0.759716	-0.000113	-0.464146
H138	H	1.259716	0.499887	0.035854
O139	O	0.345474	-0.000164	0.041943
O140	O	0.845474	0.499836	0.541943
H141	H	0.335890	0.076462	0.002726
H142	H	0.835890	0.576462	0.502726
H143	H	1.076589	-0.000138	-0.604195
H144	H	1.576589	0.499862	-0.104195
H145	H	0.784699	-0.000082	-0.212932
H146	H	1.284699	0.499918	0.287068
O147	O	0.798845	-0.000067	-0.596020
O148	O	1.298845	0.499933	-0.096020
H149	H	0.752794	-0.000041	-0.550233
H150	H	1.252794	0.499959	-0.050233
H151	H	0.796684	-0.000096	-0.063800
H152	H	1.296684	0.499904	0.436200
O153	O	1.067731	-0.465861	0.034978
O154	O	1.567731	0.034139	0.534978
H155	H	1.099561	-0.526880	0.003164
H156	H	1.599561	-0.026880	0.503164
H157	H	0.315569	-0.000096	0.317947
H158	H	0.815569	0.499904	0.817947
H159	H	0.166438	-0.000125	0.305956
H160	H	0.666438	0.499875	0.805956
H161	H	0.706836	-0.000117	0.026048
H162	H	1.206836	0.499883	0.526048
O163	O	0.548143	-0.000140	-0.005615
O164	O	1.048143	0.499860	0.494385
H165	H	0.483259	-0.000134	0.001181
H166	H	0.983259	0.499866	0.501181
