data_functionalizedCrystal
_audit_creation_method	'MofGen! by Chris Wilmer'
_symmetry_space_group_name_H-M	'P1'
_symmetry_Int_Tables_number	1
_symmetry_cell_setting	triclinic
loop_
_symmetry_equiv_pos_as_xyz
  x,y,z
_cell_length_a	6.817900
_cell_length_b	10.992421
_cell_length_c	10.943624
_cell_angle_alpha	91.800796
_cell_angle_beta	108.838799
_cell_angle_gamma	108.764763
loop_
_atom_site_label
_atom_site_type_symbol
_atom_site_fract_x
_atom_site_fract_y
_atom_site_fract_z
V1	V	-4.115111	-0.177727	-0.402533
O2	O	-4.073223	0.008575	-0.394889
O3	O	-4.092684	-0.352436	-0.399762
O4	O	-4.093080	-0.174978	-0.578100
O5	O	-4.072824	-0.170111	-0.215317
V6	V	-4.591957	-0.155445	-0.380143
O7	O	-4.391017	-0.226605	-0.451648
O8	O	-4.766248	-0.106567	-0.331028
O9	O	-4.391177	0.019264	-0.382914
O10	O	-4.751242	-0.341747	-0.387787
O11	O	-4.751641	-0.163061	-0.567359
O12	O	-4.390782	-0.158194	-0.204576
C13	C	-3.943150	-0.395027	-0.393408
C14	C	-4.006276	-0.537854	-0.392312
C15	C	-3.943653	-0.168660	-0.620893
C16	C	-4.007095	-0.167568	-0.764420
C17	C	-3.873921	-0.733142	-0.383483
C18	C	-3.807840	-0.584497	-0.384111
C19	C	-4.076627	-0.576499	-0.271911
C20	C	-4.140860	-0.725043	-0.270636
C21	C	-4.272894	-0.763604	-0.517452
C22	C	-4.203846	-0.615090	-0.520065
C23	C	-3.851941	-0.160217	-0.841568
C24	C	-4.041064	-0.269328	-0.947547
C25	C	-3.931042	-0.056525	-0.914182
C26	C	-4.195429	-0.276781	-0.868522
C27	C	-4.085327	-0.063882	-0.835133
C28	C	-4.274586	-0.173023	-0.941083
C29	C	-4.204054	0.061848	-0.389265
C30	C	-4.120168	0.204674	-0.390368
C31	C	-4.203550	-0.164516	-0.161776
C32	C	-4.119345	-0.165601	-0.018248
H33	H	-3.750901	-0.558726	-0.470142
H34	H	-3.819895	0.036539	-0.934954
H35	H	-3.848281	-0.779555	-0.468981
H36	H	-4.023014	-0.356183	-0.996487
H37	H	-3.935835	-0.522269	-0.177332
C38	C	-4.345621	-0.402675	-0.840767
H39	H	-4.304048	-0.402639	-0.749120
H40	H	-4.495299	-0.407498	-0.875731
H41	H	-4.330128	-0.475560	-0.880310
C42	C	-3.609881	-0.153101	-0.782856
H43	H	-3.594038	-0.226219	-0.821716
H44	H	-3.515751	-0.075629	-0.799332
H45	H	-3.570540	-0.153095	-0.691288
H46	H	-3.757931	-0.753709	-0.291834
C47	C	-4.516801	-0.180371	-0.999518
H48	H	-4.610842	-0.258633	-0.984236
H49	H	-4.533292	-0.108123	-0.959519
H50	H	-4.555710	-0.178921	-1.090869
C51	C	-4.109585	0.053453	-0.768958
H52	H	-4.014957	0.131612	-0.784025
H53	H	-4.258636	0.049722	-0.804332
H54	H	-4.070064	0.051430	-0.677672
C55	C	-3.606729	-0.513647	-0.260200
H56	H	-3.565596	-0.422454	-0.260166
H57	H	-3.644082	-0.534757	-0.185147
H58	H	-3.486410	-0.540008	-0.258854
C59	C	-3.990896	-0.748722	-0.141503
H60	H	-3.891362	-0.667648	-0.090318
H61	H	-4.079428	-0.795013	-0.094806
H62	H	-3.909335	-0.798095	-0.159724
H63	H	-4.222261	-0.546263	-0.273299
C64	C	-4.264613	-0.830482	-0.640532
H65	H	-4.357892	-0.810086	-0.716115
H66	H	-4.116967	-0.800705	-0.639688
H67	H	-4.313902	-0.921925	-0.641728
H68	H	-4.317071	-0.765926	-0.270446
H69	H	-4.155037	-0.591186	-0.609143
H70	H	-4.452757	-0.804720	-0.523763
C71	C	-4.406243	-0.574299	-0.538228
H72	H	-4.372759	-0.509347	-0.467818
H73	H	-4.442373	-0.540703	-0.618186
H74	H	-4.528465	-0.647686	-0.539855
