data_functionalizedCrystal
_audit_creation_method	'MofGen! by Chris Wilmer'
_symmetry_space_group_name_H-M	'P1'
_symmetry_Int_Tables_number	1
_symmetry_cell_setting	triclinic
loop_
_symmetry_equiv_pos_as_xyz
  x,y,z
_cell_length_a	17.699083
_cell_length_b	13.339070
_cell_length_c	16.776229
_cell_angle_alpha	89.996888
_cell_angle_beta	89.998886
_cell_angle_gamma	99.456154
loop_
_atom_site_label
_atom_site_type_symbol
_atom_site_fract_x
_atom_site_fract_y
_atom_site_fract_z
O1	O	1.031106	0.127864	-0.066171
O2	O	1.531106	0.627864	0.433829
O3	O	0.814244	0.144499	-0.066196
O4	O	1.314244	0.644499	0.433804
O5	O	0.897786	-0.011021	-0.066184
O6	O	1.397786	0.488979	0.433816
O7	O	0.947563	0.283384	-0.066183
O8	O	1.447563	0.783384	0.433817
O9	O	0.897768	-0.011031	0.066392
O10	O	1.397768	0.488969	0.566392
O11	O	0.814226	0.144489	0.066380
O12	O	1.314226	0.644489	0.566380
O13	O	1.031088	0.127854	0.066406
O14	O	1.531088	0.627854	0.566406
Zn15	Zn	0.922654	0.136170	0.087442
Zn16	Zn	1.422654	0.636170	0.587442
Zn17	Zn	0.922677	0.136183	-0.087233
Zn18	Zn	1.422677	0.636183	0.412767
O19	O	0.947546	0.283374	0.066394
O20	O	1.447546	0.783374	0.566394
C21	C	0.785912	0.143898	0.000089
C22	C	1.285912	0.643898	0.500089
C23	C	0.701516	0.142110	0.000079
C24	C	1.201516	0.642110	0.500079
C25	C	0.889369	-0.048694	0.000102
C26	C	1.389369	0.451306	0.500102
C27	C	0.864305	-0.160935	0.000096
C28	C	1.364305	0.339065	0.500096
C29	C	0.672191	0.233397	0.000079
C30	C	1.172191	0.733397	0.500079
C31	C	0.592891	0.231710	0.000090
C32	C	1.092891	0.731710	0.500090
C33	C	0.542918	0.138736	0.000094
C34	C	1.042918	0.638736	0.500094
C35	C	0.572248	0.047442	0.000096
C36	C	1.072248	0.547442	0.500096
C37	C	0.651546	0.049129	0.000091
C38	C	1.151546	0.549129	0.500091
C39	C	0.252446	0.040635	0.000115
C40	C	0.752446	0.540635	0.500115
C41	C	0.173143	0.038955	0.000117
C42	C	0.673143	0.538955	0.500117
C43	C	0.193791	0.223216	0.000114
C44	C	0.693791	0.723216	0.500114
C45	C	0.273089	0.224904	0.000109
C46	C	0.773089	0.724904	0.500109
C47	C	0.302412	0.133610	0.000115
C48	C	0.802412	0.633610	0.500115
C49	C	0.388398	0.135440	0.000106
C50	C	0.888398	0.635440	0.500106
C51	C	0.456933	0.136906	0.000098
C52	C	0.956933	0.636906	0.500098
C53	C	1.059185	-0.526207	0.000119
C54	C	1.559185	-0.026207	0.500119
C55	C	1.082736	-0.420752	0.000129
C56	C	1.582736	0.079248	0.500129
C57	C	1.028130	-0.355792	0.000121
C58	C	1.528130	0.144208	0.500121
C59	C	0.949970	-0.396298	0.000102
C60	C	1.449970	0.103702	0.500102
C61	C	0.926417	-0.501763	0.000098
C62	C	1.426417	-0.001763	0.500098
C63	C	0.895362	-0.331349	0.000100
C64	C	1.395362	0.168651	0.500100
C65	C	0.817202	-0.371855	0.000082
C66	C	1.317202	0.128145	0.500082
C67	C	0.793652	-0.477310	0.000077
C68	C	1.293652	0.022690	0.500077
C69	C	0.848258	-0.542269	0.000086
C70	C	1.348258	-0.042269	0.500086
C71	C	0.918915	-0.225884	0.000104
C72	C	1.418915	0.274116	0.500104
C73	C	0.786147	-0.201441	0.000083
C74	C	1.286147	0.298559	0.500083
C75	C	0.762596	-0.306895	0.000073
C76	C	1.262596	0.193105	0.500073
C77	C	1.059420	0.128455	0.000119
C78	C	1.559420	0.628455	0.500119
C79	C	1.143816	0.130243	0.000124
C80	C	1.643816	0.630243	0.500124
C81	C	0.955963	0.321047	0.000106
C82	C	1.455963	0.821047	0.500106
C83	C	0.981027	0.433288	0.000107
C84	C	1.481027	0.933288	0.500107
N85	N	0.922644	0.136161	0.206654
N86	N	1.422644	0.636161	0.706654
N87	N	0.922692	0.136184	-0.206444
N88	N	1.422692	0.636184	0.293556
C89	C	0.959658	0.067325	0.248376
C90	C	1.459658	0.567325	0.748376
C91	C	0.959662	0.067324	0.331828
C92	C	1.459662	0.567324	0.831828
C93	C	0.922656	0.136165	0.373556
C94	C	1.422656	0.636165	0.873556
C95	C	0.885638	0.205004	0.331828
C96	C	1.385638	0.705004	0.831828
C97	C	0.885629	0.204999	0.248378
C98	C	1.385629	0.704999	0.748378
C99	C	0.885669	0.205024	0.668375
C100	C	1.385669	0.705024	1.168375
C101	C	0.885682	0.205026	0.751832
C102	C	1.385682	0.705026	1.251832
C103	C	0.959702	0.067349	0.751826
C104	C	1.459702	0.567349	1.251826
C105	C	0.959694	0.067344	0.668375
C106	C	1.459694	0.567344	1.168375
C107	C	0.922672	0.136179	0.626654
C108	C	1.422672	0.636179	1.126654
C109	C	0.922667	0.136178	0.536166
C110	C	1.422667	0.636178	1.036166
C111	C	0.922666	0.136172	0.464043
C112	C	1.422666	0.636172	0.964043
H113	H	0.712875	0.309107	0.000075
H114	H	1.212875	0.809107	0.500075
C115	C	1.119244	-0.597655	0.000131
C116	C	1.619244	-0.097655	0.500131
H117	H	1.169167	-0.558432	0.000145
H118	H	1.669167	-0.058432	0.500145
H119	H	1.112823	-0.639302	-0.046100
H120	H	1.612823	-0.139302	0.453900
H121	H	1.112805	-0.639303	0.046370
H122	H	1.612805	-0.139303	0.546370
H123	H	0.132455	-0.036760	0.000122
H124	H	0.632455	0.463240	0.500122
C125	C	0.560636	0.332126	0.000088
C126	C	1.060636	0.832126	0.500088
H127	H	0.601756	0.387739	0.000075
H128	H	1.101756	0.887739	0.500075
H129	H	0.530134	0.335301	0.046323
H130	H	1.030134	0.835301	0.546323
H131	H	0.530129	0.335298	-0.046148
H132	H	1.030129	0.835298	0.453852
H133	H	0.855502	0.261052	0.365808
H134	H	1.355502	0.761052	0.865808
C135	C	0.676623	-0.351455	0.000054
C136	C	1.176623	0.148545	0.500054
H137	H	0.647471	-0.297670	0.000043
H138	H	1.147471	0.202330	0.500043
H139	H	0.664666	-0.392096	0.046281
H140	H	1.164666	0.107904	0.546281
H141	H	0.664692	-0.392077	-0.046189
H142	H	1.164692	0.107923	0.453811
H143	H	0.741682	-0.148550	0.000080
H144	H	1.241682	0.351450	0.500080
C145	C	0.328056	0.327175	0.000108
C146	C	0.828056	0.827175	0.500108
H147	H	0.299233	0.381302	0.000118
H148	H	0.799233	0.881302	0.500118
H149	H	0.359421	0.331670	-0.046124
H150	H	0.859421	0.831670	0.453876
H151	H	0.359417	0.331654	0.046347
H152	H	0.859417	0.831654	0.546347
H153	H	0.989801	0.011272	0.365798
H154	H	1.489801	0.511272	0.865798
C155	C	0.161533	0.323639	0.000118
C156	C	0.661533	0.823639	0.500118
H157	H	0.107149	0.309324	0.000130
H158	H	0.607149	0.809324	0.500130
H159	H	0.178768	0.361773	-0.046116
H160	H	0.678768	0.861773	0.453884
H161	H	0.178775	0.361767	0.046354
H162	H	0.678775	0.861767	0.546354
C163	C	0.284696	-0.059780	0.000110
C164	C	0.784696	0.440220	0.500110
H165	H	0.339080	-0.045467	0.000114
H166	H	0.839080	0.454533	0.500114
H167	H	0.267456	-0.097905	-0.046123
H168	H	0.767456	0.402095	0.453877
H169	H	0.267458	-0.097916	0.046348
H170	H	0.767458	0.402084	0.546348
C171	C	1.168703	-0.376197	0.000153
C172	C	1.668703	0.123803	0.500153
H173	H	1.174910	-0.304086	0.000164
H174	H	1.674910	0.195914	0.500164
H175	H	1.192134	-0.398493	-0.046073
H176	H	1.692134	0.101507	0.453927
H177	H	1.192104	-0.398511	0.046397
H178	H	1.692104	0.101489	0.546397
H179	H	0.989797	0.011271	0.214406
H180	H	1.489797	0.511271	0.714406
H181	H	0.989845	0.011296	0.785804
H182	H	1.489845	0.511296	1.285804
H183	H	0.989831	0.011291	0.634403
H184	H	1.489831	0.511291	1.134403
C185	C	0.844955	0.280748	0.622493
C186	C	1.344955	0.780748	1.122493
H187	H	0.822926	0.321754	0.659299
H188	H	1.322926	0.821754	1.159299
H189	H	0.805820	0.244432	0.589945
H190	H	1.305820	0.744432	1.089945
H191	H	0.881009	0.322795	0.589933
H192	H	1.381009	0.822795	1.089933
C193	C	0.844918	0.280723	0.202483
C194	C	1.344918	0.780723	0.702483
H195	H	0.822886	0.321730	0.239285
H196	H	1.322886	0.821730	0.739285
H197	H	0.805785	0.244402	0.169935
H198	H	1.305785	0.744402	0.669935
H199	H	0.880973	0.322769	0.169923
H200	H	1.380973	0.822769	0.669923
C201	C	0.683804	-0.051286	0.000082
C202	C	1.183804	0.448714	0.500082
H203	H	0.642685	-0.106900	0.000077
H204	H	1.142685	0.393100	0.500077
H205	H	0.714311	-0.054465	0.046311
H206	H	1.214311	0.445535	0.546311
H207	H	0.714306	-0.054450	-0.046159
H208	H	1.214306	0.445550	0.453841
C209	C	0.517283	-0.054830	0.000099
C210	C	1.017283	0.445170	0.500099
H211	H	0.546107	-0.108956	0.000105
H212	H	1.046107	0.391044	0.500105
H213	H	0.485919	-0.059316	-0.046132
H214	H	0.985919	0.440684	0.453868
H215	H	0.485920	-0.059321	0.046338
H216	H	0.985920	0.440679	0.546338
C217	C	1.004883	-0.181334	0.000121
C218	C	1.504883	0.318666	0.500121
H219	H	1.011093	-0.109223	0.000129
H220	H	1.511093	0.390777	0.500129
H221	H	1.028308	-0.203636	-0.046106
H222	H	1.528308	0.296364	0.453894
H223	H	1.028286	-0.203647	0.046365
H224	H	1.528286	0.296353	0.546365
C225	C	0.822354	-0.658271	0.000079
C226	C	1.322354	-0.158271	0.500079
H227	H	0.866071	-0.691152	0.000089
H228	H	1.366071	-0.191152	0.500089
H229	H	0.792515	-0.677610	-0.046156
H230	H	1.292515	-0.177610	0.453844
H231	H	0.792506	-0.677619	0.046315
H232	H	1.292506	-0.177619	0.546315
C233	C	0.707679	-0.521864	0.000063
C234	C	1.207679	-0.021864	0.500063
H235	H	0.678530	-0.468076	0.000052
H236	H	1.178530	0.031924	0.500052
H237	H	0.695723	-0.562502	0.046293
H238	H	1.195723	-0.062502	0.546293
H239	H	0.695742	-0.562489	-0.046178
H240	H	1.195742	-0.062489	0.453822
C241	C	0.844956	0.280736	0.797732
C242	C	1.344956	0.780736	1.297732
H243	H	0.822896	0.321721	0.760933
H244	H	1.322896	0.821721	1.260933
H245	H	0.881002	0.322790	0.830284
H246	H	1.381002	0.822790	1.330284
H247	H	0.805831	0.244391	0.830288
H248	H	1.305831	0.744391	1.330288
H249	H	1.047310	-0.269927	0.000129
H250	H	1.547310	0.230073	0.500129
