data_functionalizedCrystal
_audit_creation_method	'MofGen! by Chris Wilmer'
_symmetry_space_group_name_H-M	'P1'
_symmetry_Int_Tables_number	1
_symmetry_cell_setting	triclinic
loop_
_symmetry_equiv_pos_as_xyz
  x,y,z
_cell_length_a	10.489741
_cell_length_b	14.044220
_cell_length_c	12.503572
_cell_angle_alpha	93.843168
_cell_angle_beta	86.448361
_cell_angle_gamma	88.864026
loop_
_atom_site_label
_atom_site_type_symbol
_atom_site_fract_x
_atom_site_fract_y
_atom_site_fract_z
O1	O	-1.714360	-0.128402	0.089257
O2	O	-1.344439	-0.140964	0.089274
O3	O	-1.523846	0.003339	0.089255
O4	O	-1.534953	-0.272705	0.089275
O5	O	-1.510356	-0.007531	-0.089386
O6	O	-1.330949	-0.151834	-0.089367
O7	O	-1.700869	-0.139273	-0.089384
Cu8	Cu	-1.514677	-0.146546	-0.105687
Cu9	Cu	-1.530631	-0.133690	0.105576
O10	O	-1.521462	-0.283575	-0.089365
C11	C	-1.290066	-0.145450	-0.000045
C12	C	-1.148150	-0.142611	-0.000038
C13	C	-1.512240	0.033251	-0.000066
C14	C	-1.497740	0.138576	-0.000066
C15	C	-1.755242	-0.134786	-0.000063
C16	C	-1.897160	-0.137625	-0.000062
C17	C	-1.070696	-0.050796	-0.000055
C18	C	-0.989620	-0.088809	0.088025
C19	C	-0.976355	-0.099548	-0.088101
C20	C	-1.068948	-0.180657	0.088114
C21	C	-1.055686	-0.191389	-0.088090
C22	C	-0.974646	-0.229468	0.000011
C23	C	-1.533069	-0.313487	-0.000042
C24	C	-1.547569	-0.418812	-0.000034
N25	N	-1.503465	-0.155587	-0.254278
C26	C	-1.471233	0.331419	-0.000050
C27	C	-1.574071	0.388351	-0.000051
C28	C	-1.559322	0.495655	-0.000042
C29	C	-1.485980	0.224105	-0.000059
C30	C	-1.486973	-0.168896	-0.473391
C31	C	-1.558341	-0.111336	-0.526726
C32	C	-1.549164	-0.118741	-0.648648
C33	C	-1.496148	-0.161492	-0.351458
N34	N	-1.541853	-0.124641	0.254168
H35	H	-1.112738	0.024690	0.000049
Cl36	Cl	-1.382008	-0.253563	-0.544260
Cl37	Cl	-0.913762	-0.046542	-0.203072
Cl38	Cl	-1.318209	0.380588	-0.000037
Cl39	Cl	-1.131307	-0.233587	0.203215
Cl40	Cl	-0.944336	-0.021837	0.202989
Cl41	Cl	-1.101022	-0.258317	-0.203058
Cl42	Cl	-0.910169	-0.346117	0.000091
Cl43	Cl	-1.727104	0.339184	-0.000070
H44	H	-1.626334	-0.056497	-0.480820
