data_functionalizedCrystal
_audit_creation_method	'MofGen! by Chris Wilmer'
_symmetry_space_group_name_H-M	'P1'
_symmetry_Int_Tables_number	1
_symmetry_cell_setting	triclinic
loop_
_symmetry_equiv_pos_as_xyz
  x,y,z
_cell_length_a	17.077404
_cell_length_b	29.839131
_cell_length_c	17.077396
_cell_angle_alpha	90.039567
_cell_angle_beta	90.018362
_cell_angle_gamma	90.033199
loop_
_atom_site_label
_atom_site_type_symbol
_atom_site_fract_x
_atom_site_fract_y
_atom_site_fract_z
Zn1	Zn	1.199987	-0.178878	0.443758
Zn2	Zn	1.199866	-0.254008	0.312467
Zn3	Zn	1.068719	-0.178890	0.312509
Zn4	Zn	1.068659	-0.253979	0.443693
O5	O	1.134308	-0.216439	0.378107
O6	O	1.309818	-0.188851	0.426352
O7	O	1.182444	-0.244062	0.202626
O8	O	1.086208	-0.116022	0.329964
O9	O	1.309729	-0.244049	0.329893
O10	O	1.182650	-0.116012	0.426393
O11	O	1.086091	-0.188873	0.202656
O12	O	0.958864	-0.188844	0.329901
O13	O	1.086105	-0.243999	0.553549
O14	O	0.958820	-0.244011	0.426282
O15	O	1.182592	-0.188822	0.553597
O16	O	1.182385	-0.316872	0.329830
O17	O	1.085988	-0.316850	0.426241
C18	C	0.930360	-0.216426	0.378089
C19	C	0.843110	-0.216431	0.378100
C20	C	0.802167	-0.187741	0.428403
C21	C	0.720187	-0.187744	0.428407
C22	C	0.679151	-0.216440	0.378111
C23	C	0.720100	-0.245132	0.327802
C24	C	0.802078	-0.245126	0.327795
C25	C	0.549229	-0.245142	0.327822
C26	C	0.467245	-0.245148	0.327830
C27	C	0.467338	-0.187759	0.428433
C28	C	0.549317	-0.187754	0.428426
C29	C	0.590260	-0.216447	0.378119
C30	C	1.134188	-0.333161	0.378041
C31	C	1.134209	-0.383096	0.378039
C32	C	1.184514	-0.692699	0.428389
C33	C	1.184599	-0.880372	0.428436
O34	O	1.227254	-0.904603	0.471196
N35	N	1.134441	-0.903881	0.378194
C36	C	1.084254	-0.880468	0.327940
O37	O	1.041588	-0.904770	0.285213
C38	C	1.084166	-0.692796	0.327898
C39	C	1.134333	-0.669290	0.378137
C40	C	1.234677	-0.669193	0.478625
C41	C	1.234658	-0.622278	0.478609
C42	C	1.184477	-0.598868	0.428358
C43	C	1.134314	-0.622375	0.378122
C44	C	1.033975	-0.669384	0.277649
C45	C	1.033956	-0.622463	0.277644
C46	C	1.084124	-0.598957	0.327883
C47	C	1.084114	-0.552050	0.327855
N48	N	1.134272	-0.528541	0.378097
C49	C	1.184454	-0.551951	0.428349
C50	C	1.084305	-0.978999	0.327965
C51	C	1.084328	-1.025917	0.327975
C52	C	1.184673	-1.025818	0.428471
C53	C	1.184653	-0.978899	0.428457
C54	C	1.134464	-0.955490	0.378207
C55	C	1.184411	-0.453425	0.428312
C56	C	1.184390	-0.406505	0.428290
C57	C	1.084043	-0.406608	0.327797
C58	C	1.084067	-0.453524	0.327815
C59	C	1.134253	-0.476931	0.378079
O60	O	1.041476	-0.527790	0.285124
O61	O	1.227102	-0.527641	0.471081
C62	C	1.184533	-0.739615	0.428404
C63	C	1.134370	-0.763121	0.378168
C64	C	1.084189	-0.739711	0.327916
C65	C	1.134393	-0.810039	0.378177
C66	C	1.184575	-0.833448	0.428429
C67	C	1.234733	-0.809940	0.478671
C68	C	1.234714	-0.763024	0.478655
C69	C	1.034031	-0.763220	0.277675
C70	C	1.034054	-0.810135	0.277693
C71	C	1.084236	-0.833545	0.327945
C72	C	1.339052	-0.216452	0.378125
C73	C	1.426302	-0.216458	0.378133
C74	C	1.134355	-0.216406	0.582851
C75	C	1.134376	-0.216392	0.670101
C76	C	1.134449	-0.099260	0.378190
C77	C	1.134510	-0.049326	0.378226
C78	C	1.134306	-0.216439	0.174159
C79	C	1.134438	-0.216327	0.086910
C80	C	1.184618	-0.187659	0.711117
C81	C	1.184627	-0.187644	0.793098
C82	C	1.134398	-0.216364	0.834061
C83	C	1.084150	-0.245098	0.793038
C84	C	1.084137	-0.245111	0.711059
C85	C	1.084182	-0.245071	0.963909
C86	C	1.084195	-0.245060	1.045893
C87	C	1.184672	-0.187605	1.045947
C88	C	1.184659	-0.187617	0.963968
C89	C	1.134412	-0.216352	0.922952
H90	H	0.433998	-0.164396	0.469394
Br91	Br	1.252523	-0.485184	0.496527
Br92	Br	0.605008	-0.148814	0.496695
Br93	Br	1.252853	-0.148669	0.848760
Br94	Br	1.015944	-0.374829	0.259600
H95	H	1.043434	-0.959943	0.287043
Br96	Br	1.302741	-0.590384	0.546801
H97	H	1.225583	-0.164207	1.079347
H98	H	0.993083	-0.603406	0.236725
Br99	Br	0.965915	-0.731457	0.209475
H100	H	1.043292	-0.268445	1.079243
Br101	Br	1.252835	-0.148643	0.908376
H102	H	1.043222	-0.472663	0.286900
H103	H	1.225533	-1.044886	0.469387
H104	H	1.225523	-0.164273	0.677772
Br105	Br	1.015986	-0.284067	0.908244
Br106	Br	0.857851	-0.148797	0.496672
Br107	Br	1.302802	-0.731131	0.546841
Br108	Br	1.302840	-0.841719	0.546865
H109	H	1.043486	-1.045051	0.287056
H110	H	0.433836	-0.268515	0.286875
H111	H	0.993203	-0.829270	0.236775
Br112	Br	1.015975	-0.284074	0.848630
Br113	Br	0.604795	-0.284085	0.259551
Br114	Br	0.857645	-0.284064	0.259523
Br115	Br	1.015944	-0.284104	0.655393
H116	H	0.686682	-0.268494	0.286847
H117	H	1.225245	-0.387368	0.469201
H118	H	0.686854	-0.164382	0.469370
H119	H	1.275540	-0.688248	0.519550
Br120	Br	1.252740	-0.947003	0.496642
H121	H	0.993124	-0.688515	0.236738
