data_functionalizedCrystal
_audit_creation_method	'MofGen! by Chris Wilmer'
_symmetry_space_group_name_H-M	'P1'
_symmetry_Int_Tables_number	1
_symmetry_cell_setting	triclinic
loop_
_symmetry_equiv_pos_as_xyz
  x,y,z
_cell_length_a	15.944551
_cell_length_b	23.532407
_cell_length_c	14.421503
_cell_angle_alpha	89.999621
_cell_angle_beta	89.996859
_cell_angle_gamma	83.173708
loop_
_atom_site_label
_atom_site_type_symbol
_atom_site_fract_x
_atom_site_fract_y
_atom_site_fract_z
O1	O	1.113910	0.073442	-0.077025
O2	O	0.869284	0.082498	-0.077049
O3	O	0.998974	-0.004933	-0.077019
O4	O	0.984221	0.160873	-0.077055
O5	O	0.998953	-0.004920	0.077204
O6	O	0.869263	0.082511	0.077174
O7	O	1.113889	0.073455	0.077199
Cu8	Cu	0.991574	0.077984	0.091268
Cu9	Cu	0.991599	0.077969	-0.091119
O10	O	0.984199	0.160886	0.077169
C11	C	0.837983	0.082128	0.000060
C12	C	0.744746	0.081001	0.000051
C13	C	0.530369	0.024113	0.000081
C14	C	0.469137	0.050524	-0.075964
C15	C	0.574038	0.078962	0.000063
C16	C	0.469138	0.050550	0.076088
C17	C	0.409142	0.076989	0.000078
C18	C	0.514034	0.105388	-0.076046
C19	C	0.514041	0.105406	0.076075
C20	C	0.452826	0.131856	0.000010
C21	C	0.669030	0.080097	0.000053
C22	C	0.314150	0.075858	0.000081
C23	C	0.998588	-0.026144	0.000095
C24	C	0.997458	-0.089366	0.000102
C25	C	1.067121	-0.488199	0.000058
C26	C	1.066072	-0.547603	0.000051
O27	O	1.130650	-0.584098	0.000023
N28	N	0.988971	-0.570528	0.000044
C29	C	0.912915	-0.534045	0.000035
O30	O	0.847239	-0.558999	0.000027
C31	C	0.913965	-0.474642	0.000035
C32	C	0.991071	-0.451721	0.000052
C33	C	1.144220	-0.465277	0.000073
C34	C	1.145269	-0.405877	0.000082
C35	C	1.069219	-0.369399	0.000076
C36	C	0.992120	-0.392320	0.000060
C37	C	0.837910	-0.438160	0.000019
C38	C	0.838967	-0.378754	0.000019
C39	C	0.916072	-0.355832	0.000035
C40	C	0.917118	-0.296442	0.000063
N41	N	0.994219	-0.273517	0.000070
C42	C	1.070269	-0.309995	0.000076
C43	C	0.910716	-0.658796	0.000032
C44	C	0.909664	-0.718198	0.000038
C45	C	1.062821	-0.731752	0.000053
C46	C	1.063872	-0.672349	0.000053
C47	C	0.987816	-0.635871	0.000039
C48	C	1.072466	-0.185250	0.000096
C49	C	1.073508	-0.125844	0.000108
C50	C	0.920352	-0.112295	0.000089
C51	C	0.919309	-0.171696	0.000081
C52	C	0.995373	-0.208173	0.000081
O53	O	0.852574	-0.259913	0.000087
O54	O	1.135935	-0.285033	0.000072
C55	C	1.145190	0.073824	0.000088
C56	C	1.238427	0.074951	0.000090
C57	C	0.984586	0.182097	0.000053
C58	C	0.985715	0.245318	0.000040
N59	N	0.991562	0.077994	0.219550
N60	N	0.991618	0.077954	-0.219400
C61	C	0.931583	0.118404	0.469190
C62	C	1.007390	0.129461	0.530997
C63	C	0.991583	0.077981	0.408711
C64	C	0.915795	0.066938	0.530998
C65	C	0.991596	0.077969	0.591433
C66	C	1.067428	0.089063	0.469158
C67	C	0.975783	0.026517	0.469153
C68	C	1.051645	0.037552	0.530932
C69	C	0.991574	0.077989	0.303450
C70	C	0.991613	0.077960	0.696691
H71	H	0.419284	0.177423	-0.000042
H72	H	0.880895	0.152617	0.442080
O73	O	0.846557	-0.076773	0.000040
C74	C	0.864027	-0.019430	0.000070
H75	H	0.929990	-0.017148	-0.029113
H76	H	0.860681	-0.002251	0.074059
C77	C	0.717507	0.014120	-0.024582
C78	C	0.798521	0.016923	-0.060432
H79	H	0.677098	0.036545	-0.061898
H80	H	0.705736	-0.024513	-0.024598
H81	H	0.714730	0.028435	0.037075
H82	H	0.801300	0.002602	-0.122083
H83	H	0.810291	0.055555	-0.060427
O84	O	1.143834	0.100319	0.436741
C85	C	1.142890	0.100219	0.338980
H86	H	1.074947	0.109131	0.313412
H87	H	1.171995	0.056647	0.312477
C88	C	1.277770	0.135987	0.333937
C89	C	1.194322	0.146937	0.302533
H90	H	1.309499	0.164803	0.311453
H91	H	1.278409	0.136052	0.399800
H92	H	1.302013	0.099675	0.311848
H93	H	1.170077	0.183245	0.324631
H94	H	1.193681	0.146879	0.236673
O95	O	1.146299	-0.220736	0.000224
C96	C	1.150277	-0.255495	0.080107
H97	H	1.083630	-0.258517	0.106723
H98	H	1.188454	-0.235942	0.136046
C99	C	1.274939	-0.312080	0.023156
C100	C	1.193081	-0.315796	0.055842
H101	H	1.301345	-0.349276	0.008191
H102	H	1.272261	-0.288661	-0.030661
H103	H	1.306742	-0.295784	0.069778
H104	H	1.161277	-0.332085	0.009216
H105	H	1.195754	-0.339220	0.109651
O106	O	0.537942	0.132988	0.152787
C107	C	0.595350	0.095534	0.204905
H108	H	0.626908	0.060406	0.157779
H109	H	0.560049	0.075473	0.262792
C110	C	0.624355	0.172321	0.305184
C111	C	0.663121	0.129177	0.247300
H112	H	0.666157	0.193073	0.331339
H113	H	0.585676	0.197554	0.270073
H114	H	0.594939	0.155596	0.353415
H115	H	0.692527	0.145903	0.199064
H116	H	0.701807	0.103948	0.282404
O117	O	0.445283	0.022951	0.152815
C118	C	0.389083	0.060695	0.205865
H119	H	0.357818	0.096272	0.159384
H120	H	0.425411	0.080122	0.263555
C121	C	0.359254	-0.016070	0.305761
C122	C	0.320848	0.027623	0.248670
H123	H	0.317165	-0.036471	0.332169
H124	H	0.397119	-0.041499	0.270023
H125	H	0.389526	0.000125	0.353828
H126	H	0.290586	0.011426	0.200598
H127	H	0.282976	0.053048	0.284401
O128	O	0.570537	-0.030206	-0.000161
C129	C	0.547792	-0.058923	-0.080471
H130	H	0.525524	-0.026235	-0.136232
H131	H	0.494632	-0.085542	-0.063115
C132	C	0.652189	-0.138640	-0.047830
C133	C	0.624846	-0.098491	-0.116320
H134	H	0.699717	-0.163049	-0.069942
H135	H	0.667511	-0.119294	0.006278
H136	H	0.607881	-0.160816	-0.033374
H137	H	0.669149	-0.076311	-0.130767
H138	H	0.609533	-0.117834	-0.170432
H139	H	0.533835	0.128563	-0.140407
O140	O	1.148434	-0.103607	-0.000044
C141	C	1.194780	-0.122256	-0.079904
H142	H	1.149690	-0.134615	-0.135737
H143	H	1.241913	-0.160967	-0.061847
C144	C	1.298026	-0.058462	-0.047536
C145	C	1.242645	-0.073637	-0.116114
H146	H	1.327554	-0.028473	-0.069870
H147	H	1.266804	-0.045899	0.006270
H148	H	1.337295	-0.090725	-0.032494
H149	H	1.203370	-0.041376	-0.131146
H150	H	1.273862	-0.086194	-0.169923
O151	O	1.218179	-0.500626	0.000124
C152	C	1.286443	-0.467644	0.000113
H153	H	1.264721	-0.423312	0.029302
H154	H	1.310115	-0.463410	-0.073871
C155	C	1.385055	-0.551667	0.024760
C156	C	1.358377	-0.497220	0.060619
H157	H	1.429430	-0.569912	0.062079
H158	H	1.339065	-0.573889	0.024764
H159	H	1.404776	-0.548131	-0.036893
H160	H	1.338647	-0.500757	0.122266
H161	H	1.404366	-0.475000	0.060626
H162	H	0.962384	-0.016985	0.441967
H163	H	0.846878	-0.736855	0.000041
H164	H	1.208056	-0.387220	0.000092
O165	O	1.138845	-0.650180	0.000019
C166	C	1.205737	-0.695122	0.000050
H167	H	1.182535	-0.735478	-0.029145
H168	H	1.229162	-0.703523	0.074041
C169	C	1.307004	-0.628785	-0.024570
C170	C	1.278508	-0.678351	-0.060435
H171	H	1.351894	-0.618440	-0.061876
H172	H	1.261938	-0.598507	-0.024588
H173	H	1.326518	-0.635793	0.037089
H174	H	1.258984	-0.671341	-0.122088
H175	H	1.323573	-0.708628	-0.060429
H176	H	1.124746	-0.761464	0.000054
H177	H	1.020766	0.172977	0.558161
O178	O	1.112179	-0.003231	0.563235
C179	C	1.111085	-0.003093	0.660994
H180	H	1.046281	0.016364	0.686451
H181	H	1.161355	0.023346	0.687988
C182	C	1.209114	-0.088836	0.665660
C183	C	1.129518	-0.064943	0.696927
H184	H	1.220488	-0.126987	0.687827
H185	H	1.209854	-0.088928	0.599798
H186	H	1.250997	-0.066798	0.688157
H187	H	1.087636	-0.086976	0.674420
H188	H	1.128771	-0.064856	0.762786
O189	O	0.836752	-0.623445	0.000072
C190	C	0.768485	-0.656423	0.000044
H191	H	0.790192	-0.700754	0.029240
H192	H	0.744836	-0.660658	-0.073947
C193	C	0.669873	-0.572395	0.024662
C194	C	0.696533	-0.626841	0.060529
H195	H	0.625488	-0.554147	0.061969
H196	H	0.715865	-0.550176	0.024678
H197	H	0.650171	-0.575931	-0.036996
H198	H	0.716244	-0.623304	0.122182
H199	H	0.650542	-0.649059	0.060525
H200	H	0.775123	-0.456812	0.000000
O201	O	0.839259	0.055864	0.563291
C202	C	0.776194	0.098603	0.531849
H203	H	0.799208	0.119469	0.466764
H204	H	0.762051	0.132382	0.588165
C205	C	0.667055	0.045845	0.589287
C206	C	0.695318	0.071470	0.509344
H207	H	0.617165	0.029109	0.575409
H208	H	0.709543	0.017052	0.610474
H209	H	0.655275	0.073999	0.636210
H210	H	0.707107	0.043315	0.462428
H211	H	0.652830	0.100258	0.488149
H212	H	0.777032	-0.349056	0.000006
H213	H	0.856524	-0.190359	0.000094
O214	O	0.445534	0.022804	-0.152679
C215	C	0.517584	0.003994	-0.206085
H216	H	0.575981	0.000042	-0.159857
H217	H	0.524907	0.036203	-0.263707
C218	C	0.435786	-0.049869	-0.305808
C219	C	0.507510	-0.054728	-0.249028
H220	H	0.429571	-0.086090	-0.332301
H221	H	0.387243	-0.037195	-0.269830
H222	H	0.441897	-0.023026	-0.353819
H223	H	0.501393	-0.081564	-0.201012
H224	H	0.556051	-0.067408	-0.284999
