data_functionalizedCrystal
_audit_creation_method	'MofGen! by Chris Wilmer'
_symmetry_space_group_name_H-M	'P1'
_symmetry_Int_Tables_number	1
_symmetry_cell_setting	triclinic
loop_
_symmetry_equiv_pos_as_xyz
  x,y,z
_cell_length_a	18.215407
_cell_length_b	19.805405
_cell_length_c	19.805399
_cell_angle_alpha	90.027486
_cell_angle_beta	89.983693
_cell_angle_gamma	89.974829
loop_
_atom_site_label
_atom_site_type_symbol
_atom_site_fract_x
_atom_site_fract_y
_atom_site_fract_z
Zn1	Zn	1.125050	0.269525	-0.382661
Zn2	Zn	1.124954	0.382713	-0.269473
Zn3	Zn	1.001985	0.269539	-0.269492
Zn4	Zn	1.001942	0.382672	-0.382626
O5	O	1.063483	0.326112	-0.326063
O6	O	1.228021	0.284551	-0.367653
O7	O	1.108620	0.367723	-0.174759
O8	O	1.018367	0.174820	-0.284527
O9	O	1.227951	0.367710	-0.284494
O10	O	1.108783	0.174810	-0.367672
O11	O	1.018275	0.284574	-0.174773
O12	O	0.898995	0.284535	-0.284493
O13	O	1.018295	0.367640	-0.477347
O14	O	0.898963	0.367654	-0.367612
O15	O	1.108741	0.284511	-0.477373
O16	O	1.108579	0.477425	-0.284460
O17	O	1.018202	0.477394	-0.367594
C18	C	0.872276	0.326092	-0.326051
C19	C	0.790477	0.326099	-0.326062
C20	C	0.602319	0.282887	-0.369431
C21	C	0.525460	0.282893	-0.369434
C22	C	0.525398	0.369357	-0.282707
C23	C	0.602256	0.369347	-0.282702
C24	C	0.640714	0.326113	-0.326068
C25	C	0.486998	0.326129	-0.326075
C26	C	0.403664	0.326135	-0.326077
C27	C	0.724053	0.326105	-0.326065
C28	C	1.063395	0.501968	-0.326036
C29	C	1.063425	0.577200	-0.326047
C30	C	1.110529	0.612538	-0.282806
C31	C	1.110559	0.683226	-0.282823
C32	C	1.063480	0.718576	-0.326078
C33	C	1.016374	0.683234	-0.369324
C34	C	1.016349	0.612547	-0.369310
C35	C	1.016476	0.968307	-0.369383
C36	C	1.016503	1.038999	-0.369393
C37	C	1.110685	1.038987	-0.282897
C38	C	1.110660	0.968299	-0.282882
C39	C	1.063557	0.932963	-0.326130
C40	C	1.063527	0.856315	-0.326112
C41	C	1.063506	0.795223	-0.326094
C42	C	1.255435	0.326134	-0.326075
C43	C	1.337234	0.326143	-0.326081
C44	C	1.063584	1.149570	-0.326113
C45	C	1.063611	1.074338	-0.326155
C46	C	1.063524	0.326070	-0.502606
C47	C	1.063541	0.326052	-0.577838
C48	C	1.110638	0.282764	-0.613197
C49	C	1.110646	0.282745	-0.683885
C50	C	1.063560	0.326016	-0.719214
C51	C	1.016458	0.369306	-0.683850
C52	C	1.016447	0.369321	-0.613163
C53	C	1.016499	0.369242	-0.968924
C54	C	1.016515	0.369225	-1.039616
C55	C	1.110698	0.282666	-1.039646
C56	C	1.110687	0.282682	-0.968958
C57	C	1.063583	0.325968	-0.933601
C58	C	1.063574	0.325988	-0.856953
C59	C	1.063572	0.326000	-0.795861
C60	C	1.063484	0.326106	-0.150207
C61	C	1.063609	0.325934	-0.074976
H62	H	0.494202	0.247693	-0.404744
H63	H	0.494076	0.404556	-0.247400
H64	H	0.978117	0.404536	-0.712620
C65	C	0.644624	0.235330	-0.417127
H66	H	0.695897	0.241518	-0.410919
H67	H	0.632040	0.189842	-0.407302
H68	H	0.632041	0.245300	-0.462590
C69	C	0.964720	1.077883	-0.416982
H70	H	0.936669	1.046714	-0.442742
H71	H	0.932679	1.105499	-0.391073
H72	H	0.992874	1.105417	-0.446498
C73	C	0.964663	0.929443	-0.416950
H74	H	0.971393	0.882281	-0.410755
H75	H	0.915227	0.941069	-0.407008
H76	H	0.975415	0.940993	-0.462439
C77	C	0.644493	0.416900	-0.235001
H78	H	0.610582	0.442657	-0.209182
H79	H	0.674473	0.390967	-0.205555
H80	H	0.674474	0.446421	-0.260846
C81	C	1.162369	0.722095	-0.235255
H82	H	1.190397	0.690918	-0.209485
H83	H	1.194431	0.749629	-0.261174
H84	H	1.134240	0.749709	-0.205746
H85	H	1.148863	0.583761	-0.247580
C86	C	1.162508	0.235046	-1.078540
H87	H	1.155768	0.241227	-1.125699
H88	H	1.211945	0.244963	-1.066959
H89	H	1.151761	0.189568	-1.066964
H90	H	1.148993	0.939520	-0.247658
C91	C	0.964713	0.416821	-1.078476
H92	H	0.936652	0.442598	-1.047295
H93	H	0.992848	0.446311	-1.106047
H94	H	0.932671	0.390910	-1.106053
H95	H	1.149032	0.247448	-0.940197
H96	H	0.978155	0.404499	-0.940144
C97	C	1.162504	1.077858	-0.235328
H98	H	1.155784	1.125020	-0.241534
H99	H	1.151756	1.066312	-0.189841
H100	H	1.211943	1.066230	-0.245274
H101	H	0.978045	0.712021	-0.404546
H102	H	0.978089	0.404563	-0.584375
H103	H	0.977993	0.583775	-0.404522
H104	H	1.148983	0.247529	-0.584437
H105	H	1.148998	0.247497	-0.712671
