data_functionalizedCrystal
_audit_creation_method	'MofGen! by Chris Wilmer'
_symmetry_space_group_name_H-M	'P1'
_symmetry_Int_Tables_number	1
_symmetry_cell_setting	triclinic
loop_
_symmetry_equiv_pos_as_xyz
  x,y,z
_cell_length_a	20.875641
_cell_length_b	20.875641
_cell_length_c	20.875641
_cell_angle_alpha	60.089808
_cell_angle_beta	90.154292
_cell_angle_gamma	60.088404
loop_
_atom_site_label
_atom_site_type_symbol
_atom_site_fract_x
_atom_site_fract_y
_atom_site_fract_z
Zr1	Zr	0.669192	0.647095	-0.080423
O2	O	0.572011	0.780198	-0.187368
O3	O	0.695347	0.513993	-0.044500
O4	O	0.705113	0.637327	-0.177603
O5	O	0.558678	0.664569	0.047158
O6	O	0.814243	0.629621	-0.173469
O7	O	0.562245	0.656864	-0.054266
O8	O	0.796773	0.409000	0.064627
O9	O	0.576147	0.885191	-0.190937
O10	O	0.792337	0.562989	-0.029886
O11	O	0.708233	0.574490	0.042721
O12	O	0.719731	0.719700	-0.113990
O13	O	0.635627	0.731201	-0.041383
Zr14	Zr	0.837552	0.647095	0.087930
Zr15	Zr	0.843241	0.634806	-0.073830
Zr16	Zr	0.663503	0.659384	0.081337
Zr17	Zr	0.675789	0.814547	-0.086115
Zr18	Zr	0.830955	0.479643	0.093622
O19	O	0.811396	0.780197	0.052007
O20	O	0.819486	0.762723	-0.177994
O21	O	0.563921	0.797671	0.042633
O22	O	0.934733	0.513993	0.194875
O23	O	0.942822	0.496519	-0.035126
O24	O	0.687257	0.531467	0.185501
O25	O	0.948066	0.629621	-0.039651
O26	O	0.801630	0.656863	0.185110
O27	O	0.692501	0.664569	0.180976
O28	O	0.944499	0.637326	0.061773
O29	O	0.714493	0.875422	-0.185697
O30	O	0.792251	0.418768	0.193204
O31	O	0.930596	0.408999	0.198444
O32	O	0.935119	0.399231	0.069867
O33	O	0.571625	0.894959	-0.062360
O34	O	0.709970	0.885190	-0.057120
O35	O	0.787013	0.574490	0.121497
O36	O	0.871117	0.562989	0.048890
O37	O	0.798511	0.719700	-0.035214
O38	O	0.714406	0.731201	0.037393
C39	C	0.745120	0.437638	0.010874
C40	C	0.742320	0.366551	0.013291
C41	C	0.784904	0.327150	-0.023474
C42	C	0.782274	0.260351	-0.021196
C43	C	0.737056	0.232959	0.017843
C44	C	0.694471	0.272362	0.054612
C45	C	0.697105	0.339155	0.052338
C46	C	0.724473	0.033836	0.028712
C47	C	0.721840	-0.032960	0.030981
C48	C	0.809645	-0.044968	-0.044826
C49	C	0.812272	0.021831	-0.047101
C50	C	0.769690	0.061225	-0.010328
N51	N	0.734365	0.164682	0.020170
N52	N	0.772386	0.129496	-0.012651
C53	C	0.535663	0.662467	-0.004493
C54	C	0.461775	0.667685	-0.007292
C55	C	0.464960	0.588336	0.035291
C56	C	0.395531	0.593244	0.032659
C57	C	0.322919	0.677500	-0.012560
C58	C	0.319736	0.756855	-0.055144
C59	C	0.389163	0.751947	-0.052507
C60	C	0.111213	0.700952	-0.025149
C61	C	0.041784	0.705854	-0.027784
C62	C	0.117584	0.542242	0.060021
C63	C	0.187010	0.537341	0.062649
C64	C	0.183821	0.616696	0.020069
N65	N	0.251951	0.682519	-0.015253
N66	N	0.254788	0.611677	0.022767
C67	C	0.971081	0.631723	0.012000
C68	C	1.044969	0.626505	0.014799
C69	C	0.760489	0.631723	-0.198583
C70	C	0.762904	0.626506	-0.267254
C71	C	0.761623	0.856552	-0.003367
C72	C	0.764424	0.927640	-0.005784
C73	C	0.726140	0.705854	-0.343417
C74	C	0.728420	0.700947	-0.407938
C75	C	0.767459	0.616690	-0.396294
C76	C	0.804228	0.537336	-0.320123
C77	C	0.801952	0.542244	-0.255604
C78	C	0.778333	0.593238	-0.584548
C79	C	0.780603	0.588336	-0.649076
C80	C	0.704797	0.751947	-0.736886
C81	C	0.702521	0.756848	-0.672362
C82	C	0.739293	0.677494	-0.596197
N83	N	0.769788	0.611671	-0.462244
N84	N	0.736968	0.682513	-0.530249
C85	C	0.746255	0.662467	0.206090
C86	C	0.743840	0.667684	0.274761
C87	C	0.962829	0.422266	0.019121
C88	C	1.033917	0.345961	0.024336
C89	C	0.738004	0.453010	0.213211
C90	C	0.732788	0.387139	0.284299
C91	C	0.955712	0.437638	0.221457
C92	C	1.024385	0.366550	0.295344
C93	C	0.551031	0.856552	-0.213950
C94	C	0.482359	0.927640	-0.287837
C95	C	0.543915	0.871924	-0.011614
C96	C	0.472827	0.948229	-0.016829
C97	C	0.768740	0.841180	-0.205704
C98	C	0.773956	0.907051	-0.276792
C99	C	1.026179	0.310127	-0.014342
C100	C	1.092967	0.238439	-0.009457
C101	C	1.167494	0.202582	0.034111
C102	C	1.175231	0.238423	0.072790
C103	C	1.108443	0.310114	0.067900
C104	C	0.771460	0.356206	0.358810
C105	C	0.766557	0.294324	0.425610
C106	C	0.722984	0.263371	0.417898
C107	C	0.684307	0.294310	0.343379
C108	C	0.689207	0.356196	0.276580
C109	C	1.100543	0.327162	0.292142
C110	C	1.165075	0.260376	0.361560
C111	C	1.153448	0.232974	0.434179
C112	C	1.077281	0.272368	0.437379
C113	C	1.012751	0.339158	0.367962
C114	C	0.406201	0.967036	-0.284635
C115	C	0.341669	1.033843	-0.354054
C116	C	0.353297	1.061249	-0.426674
C117	C	0.429463	1.021850	-0.429873
C118	C	0.493993	0.955049	-0.360455
C119	C	0.480566	0.984070	0.021842
C120	C	0.413778	1.055775	0.016939
C121	C	0.339252	1.091634	-0.026631
C122	C	0.331515	1.055790	-0.065307
C123	C	0.398302	0.984091	-0.060408
C124	C	0.817535	0.937984	-0.269054
C125	C	0.822451	0.999867	-0.335842
C126	C	0.783783	1.030820	-0.410366
C127	C	0.740203	0.999881	-0.418102
C128	C	0.735292	0.937994	-0.351315
H129	H	0.821721	0.349452	-0.055267
H130	H	0.787788	1.081213	-0.464742
C131	C	0.562539	0.944642	0.069771
N132	N	0.624279	0.914954	0.105868
C133	C	0.856488	-0.088313	-0.085267
N134	N	0.891776	-0.120965	-0.115725
C135	C	0.644730	0.242228	0.097555
N136	N	0.607261	0.219535	0.129897
H137	H	1.235919	0.209217	0.108262
H138	H	0.670734	0.825459	-0.681852
H139	H	0.270827	1.084998	-0.100782
H140	H	1.110026	0.349462	0.233019
H141	H	0.386565	0.816561	-0.087173
C142	C	0.389775	0.944664	-0.102943
N143	N	0.383347	0.914971	-0.134981
C144	C	1.224442	0.159495	0.510534
N145	N	1.277917	0.104147	0.568043
H146	H	1.067825	0.250048	0.496515
H147	H	0.396718	0.944727	-0.225512
C148	C	0.442241	1.051998	-0.509762
N149	N	0.451862	1.074702	-0.569937
H150	H	0.719001	0.212979	0.472296
H151	H	0.246131	0.468729	0.099457
H152	H	0.699802	0.912816	-0.357626
H153	H	0.279658	1.065911	-0.351434
C154	C	0.422306	1.095183	0.059495
N155	N	0.428732	1.124861	0.091551
H156	H	0.260609	0.825459	-0.091958
H157	H	0.284876	1.150016	-0.030614
H158	H	0.674860	0.816553	-0.798905
C159	C	0.944206	0.349561	-0.062277
N160	N	0.882466	0.379262	-0.098389
C161	C	0.107696	0.788244	-0.072003
N162	N	0.105047	0.853996	-0.107300
H163	H	0.300746	1.115643	-0.483192
H164	H	1.227088	0.228307	0.358941
H165	H	0.556003	0.922972	-0.363071
H166	H	1.221870	0.144206	0.038086
C167	C	0.697704	1.033905	-0.500084
N168	N	0.665703	1.059524	-0.561834
H169	H	0.836019	0.468732	-0.310647
C170	C	0.862018	0.051954	-0.090043
N171	N	0.899487	0.074644	-0.122389
C172	C	0.870389	1.033893	-0.327316
N173	N	0.906495	1.059521	-0.320891
H174	H	0.816950	0.228271	-0.051132
C175	C	0.677659	0.077133	0.069193
N176	N	0.642406	0.109736	0.099697
H177	H	0.685014	-0.055258	0.062770
H178	H	1.086652	0.209266	-0.040955
C179	C	0.650259	0.382496	0.092782
N180	N	0.614975	0.415138	0.123248
C181	C	0.399041	0.505953	0.079490
N182	N	0.401688	0.440201	0.114761
C183	C	0.928977	0.382476	0.371497
N184	N	0.865880	0.415102	0.374165
H185	H	1.114754	0.339281	0.099401
H186	H	0.524080	0.519726	0.072116
H187	H	0.698485	0.765560	-0.469952
H188	H	0.120171	0.477636	0.094688
H189	H	-0.017342	0.774469	-0.064610
C190	C	0.683194	0.798544	-0.356236
N191	N	0.650849	0.868361	-0.365894
C192	C	0.818775	0.505946	-0.500774
N193	N	0.849237	0.440193	-0.437670
C194	C	0.809116	0.260293	0.507574
N195	N	0.841175	0.234659	0.569307
C196	C	0.636384	0.260248	0.334909
N197	N	0.600293	0.234585	0.328533
H198	H	0.812393	0.519720	-0.639586
H199	H	0.831889	0.477630	-0.193588
H200	H	0.806941	0.381402	0.365104
H201	H	0.849023	0.912791	-0.208379
H202	H	0.657717	0.381374	0.215913
