data_functionalizedCrystal
_audit_creation_method	'MofGen! by Chris Wilmer'
_symmetry_space_group_name_H-M	'P1'
_symmetry_Int_Tables_number	1
_symmetry_cell_setting	triclinic
loop_
_symmetry_equiv_pos_as_xyz
  x,y,z
_cell_length_a	15.298068
_cell_length_b	17.637651
_cell_length_c	15.296720
_cell_angle_alpha	86.527926
_cell_angle_beta	88.354818
_cell_angle_gamma	108.513639
loop_
_atom_site_label
_atom_site_type_symbol
_atom_site_fract_x
_atom_site_fract_y
_atom_site_fract_z
Zn1	Zn	1.210368	-0.232445	-0.666218
Zn2	Zn	1.216213	-0.337385	-0.492144
Zn3	Zn	1.090653	-0.224852	-0.496382
Zn4	Zn	1.036337	-0.381189	-0.601644
O5	O	1.138393	-0.293968	-0.564097
O6	O	1.336524	-0.231210	-0.668377
O7	O	1.224735	-0.300948	-0.375803
O8	O	1.126819	-0.116514	-0.547709
O9	O	1.340818	-0.308310	-0.540486
O10	O	1.214773	-0.122092	-0.672487
O11	O	1.132486	-0.218270	-0.378916
O12	O	0.958068	-0.260745	-0.485095
O13	O	1.034245	-0.382967	-0.727113
O14	O	0.918162	-0.375605	-0.562430
O15	O	1.162105	-0.273685	-0.774556
O16	O	1.172066	-0.452541	-0.477871
O17	O	1.039912	-0.484724	-0.558321
C18	C	0.905605	-0.322105	-0.517216
C19	C	0.806010	-0.334165	-0.497174
C20	C	0.516196	-0.207970	-0.707285
C21	C	0.609770	-0.196642	-0.726118
C22	C	0.658834	-0.231022	-0.668884
C23	C	0.614316	-0.276731	-0.592813
C24	C	0.520732	-0.288066	-0.573980
C25	C	0.663370	-0.311117	-0.535580
C26	C	0.618852	-0.356827	-0.459508
C27	C	0.525277	-0.368159	-0.440679
C28	C	0.476212	-0.333779	-0.497914
C29	C	0.756954	-0.299783	-0.554412
C30	C	0.761490	-0.379879	-0.421108
C31	C	0.667917	-0.391207	-0.402274
C32	C	1.100750	-0.496985	-0.510652
C33	C	1.084722	-0.583832	-0.487832
C34	C	1.260680	-0.883765	-0.737835
C35	C	1.245594	-0.965372	-0.716372
C36	C	1.154106	-0.959642	-0.586353
C37	C	1.169188	-0.878033	-0.607803
C38	C	1.222475	-0.840101	-0.683545
C39	C	1.130983	-0.834368	-0.553513
C40	C	1.146060	-0.752767	-0.574964
C41	C	1.199342	-0.714830	-0.650704
C42	C	1.237552	-0.758499	-0.704996
C43	C	1.077691	-0.872303	-0.477774
C44	C	1.039486	-0.828639	-0.423484
C45	C	1.054568	-0.747035	-0.444931
C46	C	1.107850	-0.709097	-0.520672
C47	C	1.016358	-0.703365	-0.390639
C48	C	1.031435	-0.621763	-0.412090
C49	C	1.122927	-0.627496	-0.542122
C50	C	1.372089	-0.265721	-0.611162
C51	C	1.471677	-0.253684	-0.631218
C52	C	1.091464	-0.334059	-0.781994
C53	C	1.071466	-0.351144	-0.874848
C54	C	1.176203	-0.090158	-0.617774
C55	C	1.192316	-0.003307	-0.640648
C56	C	1.281381	-0.171719	-1.235392
C57	C	1.300176	-0.155668	-1.148152
C58	C	1.243000	-0.204535	-1.079822
C59	C	1.167026	-0.269457	-1.098741
C60	C	1.148234	-0.285514	-1.185990
C61	C	1.109853	-0.318330	-1.030419
C62	C	1.033879	-0.383252	-1.049338
C63	C	1.015090	-0.399306	-1.136579
C64	C	1.072266	-0.350438	-1.204909
C65	C	1.128645	-0.302273	-0.943170
C66	C	0.995498	-0.416068	-0.893768
C67	C	0.976703	-0.432120	-0.981008
C68	C	1.185201	-0.253969	-0.347073
C69	C	1.205413	-0.236643	-0.254312
H70	H	0.489031	-0.405386	-0.378741
H71	H	0.646008	-0.159428	-0.788058
O72	O	0.941339	-0.462462	-1.154841
C73	C	0.951079	-0.534049	-1.116965
H74	H	0.998869	-0.519842	-1.060133
H75	H	0.981682	-0.563839	-1.168410
C76	C	0.797127	-0.608643	-1.152668
C77	C	0.855817	-0.591195	-1.082862
H78	H	0.738365	-0.643896	-1.131635
H79	H	0.790565	-0.560415	-1.178189
H80	H	0.822641	-0.633465	-1.195533
H81	H	0.830308	-0.566365	-1.040004
H82	H	0.862372	-0.639421	-1.057333
O83	O	0.624584	-0.435723	-0.328473
C84	C	0.550862	-0.501535	-0.351755
H85	H	0.564001	-0.515147	-0.421923
H86	H	0.483790	-0.486502	-0.346768
C87	C	0.527052	-0.558626	-0.202958
C88	C	0.543193	-0.575349	-0.289137
H89	H	0.522317	-0.604157	-0.164330
H90	H	0.576717	-0.514286	-0.187271
H91	H	0.471159	-0.546097	-0.198814
H92	H	0.599090	-0.587867	-0.293282
H93	H	0.493536	-0.619693	-0.304823
H94	H	1.000323	-0.586212	-0.367882
O95	O	1.336801	-0.124318	-1.301870
C96	C	1.303939	-0.152429	-1.382927
H97	H	1.227478	-0.188564	-1.374175
H98	H	1.344025	-0.192181	-1.407420
C99	C	1.411087	-0.036244	-1.460959
C100	C	1.317175	-0.080620	-1.450210
H101	H	1.419255	0.008050	-1.502464
H102	H	1.433230	-0.017306	-1.406349
H103	H	1.444482	-0.069379	-1.481365
H104	H	1.283783	-0.047488	-1.429793
H105	H	1.295026	-0.099551	-1.504818
H106	H	1.190503	-0.249413	-0.927776
O107	O	1.261359	-0.188809	-0.995126
C108	C	1.340686	-0.121040	-0.993078
H109	H	1.350880	-0.083126	-1.057910
H110	H	1.403600	-0.141283	-0.982589
C111	C	1.316062	-0.117454	-0.837807
C112	C	1.328578	-0.070883	-0.917431
H113	H	1.308596	-0.086515	-0.791142
H114	H	1.262619	-0.163112	-0.839185
H115	H	1.368493	-0.134319	-0.829078
H116	H	1.276142	-0.054026	-0.926164
H117	H	1.382011	-0.025220	-0.916053
H118	H	1.362035	-0.102810	-1.132755
O119	O	1.053875	-0.365983	-1.289646
C120	C	0.965438	-0.361680	-1.306773
H121	H	0.945549	-0.322840	-1.258007
H122	H	0.913026	-0.424541	-1.299863
C123	C	0.990931	-0.372236	-1.460588
C124	C	0.966505	-0.324526	-1.400697
H125	H	0.991586	-0.349322	-1.518525
H126	H	1.050511	-0.375138	-1.449049
H127	H	0.947250	-0.424617	-1.454818
H128	H	1.010191	-0.272150	-1.406460
H129	H	0.906932	-0.321615	-1.412239
H130	H	1.276694	-1.000924	-0.760596
O131	O	0.902953	-0.495273	-0.999280
C132	C	0.912685	-0.566866	-0.961414
H133	H	0.960467	-0.552670	-0.904575
H134	H	0.943294	-0.596650	-1.012862
C135	C	0.758737	-0.641448	-0.997142
C136	C	0.817418	-0.624014	-0.927327
H137	H	0.699972	-0.676702	-0.976118
H138	H	0.752181	-0.593216	-1.022656
H139	H	0.784255	-0.666264	-1.040009
H140	H	0.791905	-0.599189	-0.884466
H141	H	0.823967	-0.672244	-0.901804
O142	O	1.289447	-0.721580	-0.778481
C143	C	1.366302	-0.658598	-0.755040
H144	H	1.381516	-0.670423	-0.683906
H145	H	1.350647	-0.599588	-0.762816
C146	C	1.432164	-0.639015	-0.902391
C147	C	1.450855	-0.653543	-0.815024
H148	H	1.484320	-0.635893	-0.939393
H149	H	1.380384	-0.681445	-0.918184
H150	H	1.419116	-0.589841	-0.908858
H151	H	1.463891	-0.702720	-0.808556
H152	H	1.502640	-0.611121	-0.799231
H153	H	0.793192	-0.262565	-0.616349
O154	O	1.102263	-0.996605	-0.512863
C155	C	1.025377	-1.059559	-0.536301
H156	H	1.041022	-1.079585	-0.602786
H157	H	0.962809	-1.037854	-0.540304
C158	C	0.985560	-1.105996	-0.385026
C159	C	1.004778	-1.130597	-0.466681
H160	H	0.972850	-1.149814	-0.342080
H161	H	1.037358	-1.063581	-0.369235
H162	H	0.933422	-1.087908	-0.388374
H163	H	1.056922	-1.148674	-0.463334
H164	H	0.952989	-1.173016	-0.482469
H165	H	1.304080	-0.852878	-0.799507
O166	O	0.940088	-0.463548	-0.827323
C167	C	0.992603	-0.498577	-0.773849
H168	H	1.068430	-0.460407	-0.781716
H169	H	0.984461	-0.561482	-0.794200
C170	C	0.865402	-0.550310	-0.667658
C171	C	0.958533	-0.503425	-0.677315
H172	H	0.844384	-0.553304	-0.608112
H173	H	0.830020	-0.526713	-0.703686
H174	H	0.858629	-0.602726	-0.684622
H175	H	0.965302	-0.451008	-0.660362
H176	H	0.993915	-0.527013	-0.641282
H177	H	1.065407	-0.938751	-0.460318
H178	H	0.972964	-0.734263	-0.328975
O179	O	0.749738	-0.219907	-0.687286
C180	C	0.778505	-0.172206	-0.766710
H181	H	0.730494	-0.135273	-0.779655
H182	H	0.776262	-0.212466	-0.822732
C183	C	0.936779	-0.160968	-0.744406
C184	C	0.877816	-0.115601	-0.760302
H185	H	0.998040	-0.126053	-0.740456
H186	H	0.917399	-0.193107	-0.690898
H187	H	0.934899	-0.194516	-0.791094
H188	H	0.879687	-0.082062	-0.713610
H189	H	0.897199	-0.083455	-0.813802
H190	H	0.400015	-0.343006	-0.482587
O191	O	0.809076	-0.413230	-0.365378
C192	C	0.807322	-0.383475	-0.282074
H193	H	0.745303	-0.361357	-0.274627
H194	H	0.873477	-0.331719	-0.275190
C195	C	0.875992	-0.477932	-0.219580
C196	C	0.799815	-0.450772	-0.210431
H197	H	0.871366	-0.519442	-0.175387
H198	H	0.877177	-0.497976	-0.275704
H199	H	0.931114	-0.434795	-0.213845
H200	H	0.744696	-0.493906	-0.216176
H201	H	0.798620	-0.430736	-0.154306
H202	H	1.211617	-0.648384	-0.668167
O203	O	0.987784	-0.865604	-0.349922
C204	C	0.982647	-0.946996	-0.342641
H205	H	1.043809	-0.954781	-0.381065
H206	H	0.915604	-0.984779	-0.370278
C207	C	0.909858	-0.964790	-0.198258
C208	C	0.984984	-0.974350	-0.245445
H209	H	0.911295	-0.981665	-0.138303
H210	H	0.913316	-0.909955	-0.203164
H211	H	0.853997	-0.996276	-0.221299
H212	H	1.040843	-0.942856	-0.222411
H213	H	0.981535	-1.029180	-0.240533
H214	H	0.476238	-0.179988	-0.753880
H215	H	1.166327	-0.596609	-0.603795
