data_functionalizedCrystal
_audit_creation_method	'MofGen! by Chris Wilmer'
_symmetry_space_group_name_H-M	'P1'
_symmetry_Int_Tables_number	1
_symmetry_cell_setting	triclinic
loop_
_symmetry_equiv_pos_as_xyz
  x,y,z
_cell_length_a	11.026607
_cell_length_b	9.798715
_cell_length_c	10.723024
_cell_angle_alpha	89.998022
_cell_angle_beta	96.526943
_cell_angle_gamma	89.996711
loop_
_atom_site_label
_atom_site_type_symbol
_atom_site_fract_x
_atom_site_fract_y
_atom_site_fract_z
O1	O	1.614520	-0.113489	0.523503
O2	O	1.260718	-0.113491	0.463891
O3	O	1.445780	-0.113485	0.313882
O4	O	1.429458	-0.113495	0.673512
O5	O	1.445766	0.113498	0.313879
O6	O	1.260704	0.113492	0.463888
O7	O	1.614506	0.113494	0.523499
Zn8	Zn	1.437603	0.149531	0.493693
Zn9	Zn	1.437621	-0.149528	0.493698
O10	O	1.429444	0.113487	0.673508
C11	C	1.215408	0.000000	0.452892
C12	C	1.080422	-0.000001	0.420109
N13	N	1.437599	0.353631	0.493691
N14	N	1.437634	-0.353628	0.493692
C15	C	1.007369	-0.000004	0.510629
C16	C	0.867853	-0.000005	0.476748
C17	C	1.659816	-0.000000	0.534498
C18	C	1.794803	-0.000008	0.567282
C19	C	1.444585	0.000005	0.267125
C20	C	1.441032	0.000000	0.127803
C21	C	1.515302	0.421410	0.430355
C22	C	1.515321	0.578573	0.430355
C23	C	1.544583	-0.000001	0.075171
C24	C	1.540912	-0.000006	-0.068824
C25	C	1.430639	-0.000005	0.720266
C26	C	1.434193	-0.000009	0.859587
H27	H	0.827113	-0.000037	0.374161
N28	N	0.848754	-0.000035	0.703172
H29	H	0.780833	-0.000042	0.758923
H30	H	0.900799	0.084107	0.720715
H31	H	1.629560	-0.000001	-0.114123
H32	H	1.048115	0.000001	0.613209
H33	H	1.635954	0.000008	0.136715
H34	H	1.345540	0.000001	-0.095122
H35	H	1.349660	-0.000009	0.066260
N36	N	1.026453	0.000002	0.284229
H37	H	1.054391	-0.084139	0.241178
H38	H	1.054396	0.084201	0.241279
H39	H	1.581808	0.363090	0.376124
N40	N	1.603450	0.655770	0.358530
H41	H	1.689933	0.630951	0.392114
H42	H	1.590867	0.757073	0.368740
H43	H	1.371111	0.588094	0.547925
N44	N	1.349489	0.430875	0.565511
H45	H	1.396621	0.490152	0.631173
H46	H	1.297650	0.363965	0.607697
