data_functionalizedCrystal
_audit_creation_method	'MofGen! by Chris Wilmer'
_symmetry_space_group_name_H-M	'P1'
_symmetry_Int_Tables_number	1
_symmetry_cell_setting	triclinic
loop_
_symmetry_equiv_pos_as_xyz
  x,y,z
_cell_length_a	14.519709
_cell_length_b	12.377034
_cell_length_c	13.339070
_cell_angle_alpha	75.605339
_cell_angle_beta	80.345280
_cell_angle_gamma	78.685580
loop_
_atom_site_label
_atom_site_type_symbol
_atom_site_fract_x
_atom_site_fract_y
_atom_site_fract_z
O1	O	1.244900	0.093845	-0.151994
O2	O	0.980393	0.093878	-0.167624
O3	O	1.082290	0.093862	-0.012491
O4	O	1.143003	0.093861	-0.307127
O5	O	1.107751	-0.094138	0.026224
O6	O	1.005854	-0.094122	-0.128910
O7	O	1.270361	-0.094155	-0.113279
Zn8	Zn	1.142150	-0.123987	-0.114948
Zn9	Zn	1.108604	0.123711	-0.165956
O10	O	1.168464	-0.094139	-0.268413
C11	C	0.958578	-0.000117	-0.147540
C12	C	0.855640	-0.000104	-0.145361
N13	N	1.165050	-0.293035	-0.080135
C14	C	1.218204	-0.352193	0.000726
C15	C	1.234222	-0.470525	0.025121
C16	C	1.197096	-0.529710	-0.031348
C17	C	1.143947	-0.470552	-0.112215
C18	C	1.127920	-0.352208	-0.136607
C19	C	1.106812	-0.529725	-0.168680
C20	C	1.053663	-0.470566	-0.249548
C21	C	1.037640	-0.352234	-0.273936
C22	C	1.074766	-0.293049	-0.217468
C23	C	1.122839	-0.648069	-0.144288
C24	C	1.032555	-0.648084	-0.281621
C25	C	1.016536	-0.529751	-0.306016
C26	C	0.478707	-0.000155	-0.137317
C27	C	0.583581	-0.000141	-0.139551
C28	C	0.667170	-0.000129	-0.141339
C29	C	0.772050	-0.000116	-0.143573
C30	C	1.292176	-0.000157	-0.133364
C31	C	1.395113	-0.000163	-0.135545
C32	C	1.084764	-0.000135	0.044574
C33	C	1.054194	-0.000127	0.156929
N34	N	1.085709	0.292758	-0.200760
C35	C	1.165989	-0.000139	-0.325478
C36	C	1.196558	-0.000140	-0.437835
C37	C	1.291889	-0.000157	0.521299
C38	C	1.320616	-0.000172	0.415737
C39	C	1.254013	-0.000160	0.351030
C40	C	1.158679	-0.000135	0.391895
C41	C	1.129951	-0.000129	0.497469
C42	C	1.092074	-0.000132	0.327200
C43	C	0.996740	-0.000107	0.368065
C44	C	0.968016	-0.000101	0.473629
C45	C	1.034619	-0.000112	0.538336
C46	C	1.120802	-0.000137	0.221626
C47	C	0.958863	-0.000109	0.197796
C48	C	0.930136	-0.000095	0.303358
H49	H	1.210141	-0.626062	-0.011481
C50	C	0.979173	-0.287162	-0.362883
H51	H	0.959363	-0.339355	-0.393027
H52	H	0.925195	-0.240985	-0.335899
H53	H	1.016904	-0.241015	-0.414611
C54	C	1.425472	-0.000187	0.370789
H55	H	1.461022	-0.000180	0.424440
H56	H	1.448924	-0.065747	0.343603
H57	H	1.431161	0.065380	0.316600
C58	C	0.825274	-0.000069	0.348313
H59	H	0.789716	-0.000053	0.294661
H60	H	0.819575	-0.065622	0.402506
H61	H	0.801833	0.065506	0.375490
C62	C	0.958072	-0.464674	-0.394963
H63	H	0.938259	-0.516863	-0.425109
H64	H	0.904096	-0.418495	-0.367978
H65	H	0.995805	-0.418529	-0.446689
H66	H	0.904629	-0.000106	0.145112
H67	H	1.166113	-0.696225	-0.078446
H68	H	1.198423	-0.000158	0.188365
H69	H	1.277408	-0.000172	0.265077
C70	C	1.292691	-0.535592	0.114057
H71	H	1.312517	-0.483398	0.144187
H72	H	1.254975	-0.581745	0.165786
H73	H	1.346673	-0.581763	0.087058
C74	C	1.259027	-0.287090	0.062837
H75	H	1.241871	-0.208141	0.036726
H76	H	1.234348	-0.306470	0.134403
H77	H	1.326057	-0.306482	0.055690
C78	C	0.991717	-0.713174	-0.343743
H79	H	1.008882	-0.792124	-0.317642
H80	H	0.924693	-0.693776	-0.336598
H81	H	1.016400	-0.693797	-0.415313
H82	H	1.061728	-0.196694	-0.237333
C83	C	1.365141	-0.000174	0.592475
H84	H	1.334375	-0.000163	0.661198
H85	H	1.411993	-0.065740	0.593574
H86	H	1.394238	0.065387	0.566572
C87	C	1.003023	-0.000103	0.654456
H88	H	1.056346	-0.000117	0.687136
H89	H	0.957743	0.065460	0.660437
H90	H	0.975505	-0.065668	0.687442
H91	H	0.890390	-0.000089	0.506899
