data_functionalizedCrystal
_audit_creation_method	'MofGen! by Chris Wilmer'
_symmetry_space_group_name_H-M	'P1'
_symmetry_Int_Tables_number	1
_symmetry_cell_setting	triclinic
loop_
_symmetry_equiv_pos_as_xyz
  x,y,z
_cell_length_a	14.853567
_cell_length_b	19.188930
_cell_length_c	13.930277
_cell_angle_alpha	89.990320
_cell_angle_beta	89.995755
_cell_angle_gamma	83.389856
loop_
_atom_site_label
_atom_site_type_symbol
_atom_site_fract_x
_atom_site_fract_y
_atom_site_fract_z
O1	O	1.195862	0.091155	-0.079776
O2	O	0.933342	0.102014	-0.079794
O3	O	1.072177	-0.005046	-0.079766
O4	O	1.057026	0.198215	-0.079804
O5	O	1.072158	-0.005048	0.079896
O6	O	0.933322	0.102012	0.079868
O7	O	1.195842	0.091153	0.079886
Zn8	Zn	1.064579	0.096582	0.105227
Zn9	Zn	1.064605	0.096585	-0.105135
O10	O	1.057007	0.198213	0.079858
C11	C	0.899746	0.101521	0.000035
C12	C	0.799671	0.100046	0.000029
C13	C	0.387525	0.030218	0.000064
C14	C	0.365537	0.157407	0.000039
C15	C	0.459563	0.158794	0.000036
C16	C	0.517574	0.095891	0.000045
C17	C	0.481560	0.031602	0.000058
C18	C	0.495585	0.223081	0.000013
C19	C	0.589616	0.224470	0.000009
C20	C	0.647629	0.161567	0.000025
C21	C	0.611610	0.097276	0.000039
C22	C	0.669621	0.034373	0.000048
C23	C	0.633603	-0.029919	0.000069
C24	C	0.539574	-0.031301	0.000074
C25	C	0.741659	0.162949	0.000020
C26	C	0.763656	0.035757	0.000042
C27	C	1.071677	-0.031060	0.000068
C28	C	1.070204	-0.108569	0.000076
C29	C	1.151668	-0.153221	0.000086
C30	C	1.150285	-0.226050	0.000071
C31	C	1.067432	-0.254223	0.000065
C32	C	0.985957	-0.209561	0.000049
C33	C	0.987343	-0.136734	0.000055
N34	N	1.004095	-0.362440	0.054396
N35	N	1.002783	-0.431623	0.054393
C36	C	1.063251	-0.473645	0.000045
N37	N	1.125093	-0.443873	-0.054287
N38	N	1.126407	-0.374684	-0.054279
C39	C	1.065920	-0.333190	0.000058
C40	C	1.143220	-0.597267	0.000037
C41	C	1.141833	-0.670096	0.000015
C42	C	0.977503	-0.653606	0.000003
C43	C	0.978893	-0.580778	0.000015
C44	C	1.061754	-0.552613	0.000036
C45	C	1.229438	0.091646	0.000055
C46	C	1.329513	0.093120	0.000055
C47	C	1.057507	0.224226	0.000022
C48	C	1.058980	0.301736	0.000008
N49	N	1.064569	0.096579	0.248793
N50	N	1.064623	0.096582	-0.248701
C51	C	1.003126	0.143972	0.701050
C52	C	1.126108	0.049192	0.701044
C53	C	1.126098	0.049190	0.600548
C54	C	1.064601	0.096580	0.550299
C55	C	1.003115	0.143973	0.600545
C56	C	1.187588	0.001803	0.550295
C57	C	1.187581	0.001799	0.449793
C58	C	1.126079	0.049187	0.399541
C59	C	1.064590	0.096581	0.449794
C60	C	1.003094	0.143971	0.399544
C61	C	0.941600	0.191363	0.449794
C62	C	0.941614	0.191361	0.550293
C63	C	1.126065	0.049189	0.299043
C64	C	1.003083	0.143972	0.299039
H65	H	0.448345	0.274293	-0.000004
O66	O	0.896593	-0.239942	0.000042
H67	H	0.857450	-0.222013	0.065111
H68	H	1.176181	0.010611	0.741960
H69	H	0.680849	-0.081134	0.000070
H70	H	0.921003	-0.100377	0.000047
O71	O	0.826219	-0.032092	0.000060
H72	H	0.897656	-0.020331	0.000058
H73	H	0.318299	0.208620	0.000023
O74	O	0.500729	-0.100641	0.000091
H75	H	0.425598	-0.091034	0.000083
H76	H	0.910043	-0.676543	-0.000007
O77	O	1.253916	-0.049308	0.604487
H78	H	1.243584	-0.041351	0.682812
H79	H	1.219140	-0.130295	0.000100
H80	H	0.618933	0.276821	-0.000008
O81	O	1.253892	-0.049320	0.395595
H82	H	1.296650	-0.082277	0.447422
H83	H	0.891532	0.229951	0.408870
O84	O	0.780512	0.232282	0.000004
H85	H	0.724376	0.275789	0.000002
H86	H	1.216625	-0.262413	0.000075
O87	O	1.232585	-0.566880	0.000041
H88	H	1.289003	-0.610169	0.000027
H89	H	0.953001	0.182561	0.258132
O90	O	0.348687	-0.039125	0.000087
H91	H	0.273556	-0.029525	0.000088
H92	H	1.208174	-0.706452	0.000018
O93	O	0.891028	-0.532610	0.000028
H94	H	0.833181	-0.564433	0.000033
O95	O	0.875301	0.242480	0.604488
H96	H	0.885651	0.234524	0.682813
H97	H	0.953056	0.182556	0.741966
H98	H	1.176137	0.010607	0.258133
