data_functionalizedCrystal
_audit_creation_method	'MofGen! by Chris Wilmer'
_symmetry_space_group_name_H-M	'P1'
_symmetry_Int_Tables_number	1
_symmetry_cell_setting	triclinic
loop_
_symmetry_equiv_pos_as_xyz
  x,y,z
_cell_length_a	14.519709
_cell_length_b	19.288865
_cell_length_c	17.766277
_cell_angle_alpha	89.992086
_cell_angle_beta	89.992699
_cell_angle_gamma	83.408196
loop_
_atom_site_label
_atom_site_type_symbol
_atom_site_fract_x
_atom_site_fract_y
_atom_site_fract_z
O1	O	0.115045	0.921767	-0.062570
O2	O	0.615045	1.421767	0.437430
O3	O	0.130564	0.719562	-0.062577
O4	O	0.630564	1.219562	0.437423
O5	O	-0.011468	0.826026	-0.062567
O6	O	0.488532	1.326026	0.437433
O7	O	0.257077	0.815303	-0.062581
O8	O	0.757077	1.315303	0.437419
O9	O	-0.011475	0.826007	0.062622
O10	O	0.488525	1.326007	0.562622
O11	O	0.130557	0.719543	0.062611
O12	O	0.630557	1.219543	0.562611
O13	O	0.115038	0.921748	0.062618
O14	O	0.615038	1.421748	0.562618
Cu15	Cu	0.122797	0.820644	0.074045
Cu16	Cu	0.622797	1.320644	0.574045
Cu17	Cu	0.122805	0.820666	-0.074005
Cu18	Cu	0.622805	1.320666	0.425995
O19	O	0.257070	0.815285	0.062608
O20	O	0.757070	1.315285	0.562608
C21	C	-0.045828	0.825517	0.000028
C22	C	0.454172	1.325517	0.500028
C23	C	-0.148200	0.824019	0.000028
C24	C	0.351800	1.324019	0.500028
C25	C	0.115541	0.947636	0.000023
C26	C	0.615541	1.447636	0.500023
C27	C	0.117040	1.024745	0.000021
C28	C	0.617040	1.524745	0.500021
C29	C	0.130061	0.693675	0.000016
C30	C	0.630061	1.193675	0.500016
C31	C	0.128562	0.616566	0.000013
C32	C	0.628562	1.116566	0.500013
C33	C	-0.523061	0.818507	0.000008
C34	C	-0.023061	1.318507	0.500008
C35	C	-0.418762	0.820037	0.000014
C36	C	0.081238	1.320037	0.500014
C37	C	-0.335633	0.821263	0.000019
C38	C	0.164367	1.321263	0.500019
C39	C	-0.231329	0.822794	0.000023
C40	C	0.268671	1.322794	0.500023
C41	C	0.291430	0.815794	0.000012
C42	C	0.791430	1.315794	0.500012
C43	C	0.393802	0.817291	0.000006
C44	C	0.893802	1.317291	0.500006
N45	N	0.122790	0.820634	0.178176
N46	N	0.622790	1.320634	0.678176
C47	C	0.033702	1.069141	0.000019
C48	C	0.533702	1.569141	0.500019
C49	C	0.035110	1.141593	0.000023
C50	C	0.535110	1.641593	0.500023
C51	C	0.119861	1.169646	0.000015
C52	C	0.619861	1.669646	0.500015
C53	C	0.203210	1.125240	0.000021
C54	C	0.703210	1.625240	0.500021
C55	C	0.201799	1.052789	0.000024
C56	C	0.701799	1.552789	0.500024
C57	C	0.186488	1.278169	-0.043852
C58	C	0.686488	1.778169	0.456148
C59	C	0.187895	1.350619	-0.043860
C60	C	0.687895	1.850619	0.456140
C61	C	0.124216	1.393107	0.000008
C62	C	0.624216	1.893107	0.500008
C63	C	0.059113	1.363139	0.043874
C64	C	0.559113	1.863139	0.543874
C65	C	0.057703	1.290688	0.043878
C66	C	0.557703	1.790688	0.543878
C67	C	0.121400	1.248205	0.000012
C68	C	0.621400	1.748205	0.500012
C69	C	0.042399	1.516065	0.000012
C70	C	0.542399	2.016065	0.500012
C71	C	0.043811	1.588518	0.000021
C72	C	0.543811	2.088518	0.500021
C73	C	0.211913	1.572163	0.000011
C74	C	0.711913	2.072163	0.500011
C75	C	0.210499	1.499711	0.000010
C76	C	0.710499	1.999711	0.500010
C77	C	0.125739	1.471667	0.000006
C78	C	0.625739	1.971667	0.500006
N79	N	0.122805	0.820682	-0.178135
N80	N	0.622805	1.320682	0.321865
C81	C	0.059929	0.867791	0.217567
C82	C	0.559929	1.367791	0.717567
C83	C	0.059925	0.867795	0.296369
C84	C	0.559925	1.367795	0.796369
C85	C	0.122798	0.820648	0.335776
C86	C	0.622798	1.320648	0.835776
C87	C	0.185664	0.773482	0.296375
C88	C	0.685664	1.273482	0.796375
C89	C	0.185660	0.773475	0.217575
C90	C	0.685660	1.273475	0.717575
C91	C	0.206826	0.811652	0.460610
C92	C	0.706826	1.311652	0.960610
C93	C	0.206831	0.811664	0.539409
C94	C	0.706831	1.311664	1.039409
C95	C	0.122809	0.820667	0.578823
C96	C	0.622809	1.320667	1.078823
C97	C	0.038778	0.829672	0.539428
C98	C	0.538778	1.329672	1.039428
C99	C	0.038775	0.829665	0.460628
C100	C	0.538775	1.329665	0.960628
C101	C	0.122808	0.820651	0.421222
C102	C	0.622808	1.320651	0.921222
C103	C	0.059938	0.867831	0.703660
C104	C	0.559938	1.367831	1.203660
C105	C	0.059932	0.867830	0.782463
C106	C	0.559932	1.367830	1.282463
C107	C	0.185679	0.773521	0.782468
C108	C	0.685679	1.273521	1.282468
C109	C	0.185676	0.773518	0.703666
C110	C	0.685676	1.273518	1.203666
C111	C	0.122807	0.820677	0.664267
C112	C	0.622807	1.320677	1.164267
H113	H	-0.035316	1.046313	0.000019
H114	H	0.464684	1.546313	0.500019
H115	H	0.269665	1.016641	0.000027
H116	H	0.769665	1.516641	0.500027
Cl117	Cl	-0.020955	1.416546	0.099019
Cl118	Cl	0.479045	1.916546	0.599019
Cl119	Cl	-0.066857	0.840996	0.588968
Cl120	Cl	0.433143	1.340996	1.088968
Cl121	Cl	-0.066858	0.840977	0.411106
Cl122	Cl	0.433142	1.340977	0.911106
Cl123	Cl	0.312466	0.800398	0.411069
Cl124	Cl	0.812466	1.300398	0.911069
Cl125	Cl	0.315273	1.443896	0.000004
Cl126	Cl	0.815273	1.943896	0.500004
Cl127	Cl	-0.019103	0.927113	0.654129
Cl128	Cl	0.480897	1.427113	1.154129
H129	H	-0.024056	1.624666	0.000024
H130	H	0.475944	2.124666	0.500024
Cl131	Cl	-0.019105	0.927115	0.831987
Cl132	Cl	0.480895	1.427115	1.331987
Cl133	Cl	0.264710	0.714235	0.654140
Cl134	Cl	0.764710	1.214235	1.154140
Cl135	Cl	0.309754	1.160505	0.000013
Cl136	Cl	0.809754	1.660505	0.500013
Cl137	Cl	0.264712	0.714245	0.832003
Cl138	Cl	0.764712	1.214245	1.332003
Cl139	Cl	0.269729	1.388287	-0.099012
Cl140	Cl	0.769729	1.888287	0.400988
H141	H	0.275253	0.804336	0.571477
H142	H	0.775253	1.304336	1.071477
Cl143	Cl	0.264700	0.714209	0.345914
Cl144	Cl	0.764700	1.214209	0.845914
Cl145	Cl	0.264693	0.714187	0.168051
Cl146	Cl	0.764693	1.214187	0.668051
H147	H	0.008735	0.906189	0.185491
H148	H	0.508735	1.406189	0.685491
H149	H	-0.032756	1.177748	0.000019
H150	H	0.467244	1.677748	0.500019
H151	H	0.238350	1.243579	-0.079574
H152	H	0.738350	1.743579	0.420426
H153	H	-0.026618	1.493230	0.000012
H154	H	0.473382	1.993230	0.500012
H155	H	0.008734	0.906197	0.328448
H156	H	0.508734	1.406197	0.828448
H157	H	0.280919	1.595002	0.000009
H158	H	0.780919	2.095002	0.500009
Cl159	Cl	-0.024118	1.253014	0.099038
Cl160	Cl	0.475882	1.753014	0.599038
