data_functionalizedCrystal
_audit_creation_method	'MofGen! by Chris Wilmer'
_symmetry_space_group_name_H-M	'P1'
_symmetry_Int_Tables_number	1
_symmetry_cell_setting	triclinic
loop_
_symmetry_equiv_pos_as_xyz
  x,y,z
_cell_length_a	11.026660
_cell_length_b	11.792254
_cell_length_c	10.065875
_cell_angle_alpha	98.849918
_cell_angle_beta	79.302288
_cell_angle_gamma	96.391716
loop_
_atom_site_label
_atom_site_type_symbol
_atom_site_fract_x
_atom_site_fract_y
_atom_site_fract_z
O1	O	1.630979	0.462821	-0.113508
O2	O	2.130979	0.962821	0.386492
O3	O	1.277316	0.408633	-0.113508
O4	O	1.777316	0.908633	0.386492
O5	O	1.462720	0.272261	-0.113499
O6	O	1.962720	0.772261	0.386501
O7	O	1.445574	0.599193	-0.113518
O8	O	1.945574	1.099193	0.386482
O9	O	1.427367	0.298399	0.113488
O10	O	1.927367	0.798399	0.613488
O11	O	1.241962	0.434770	0.113479
O12	O	1.741962	0.934770	0.613479
O13	O	1.595626	0.488959	0.113478
O14	O	2.095626	0.988959	0.613478
Zn15	Zn	1.413181	0.466015	0.149518
Zn16	Zn	1.913181	0.966015	0.649518
Zn17	Zn	1.459760	0.431577	-0.149547
Zn18	Zn	1.959760	0.931577	0.350453
O19	O	1.410221	0.625331	0.113469
O20	O	1.910221	1.125331	0.613469
C21	C	1.214362	0.411705	-0.000015
C22	C	1.714362	0.911705	0.499985
C23	C	1.079451	0.381903	-0.000014
C24	C	1.579451	0.881903	0.499986
C25	C	1.443963	0.242825	-0.000006
C26	C	1.943963	0.742825	0.499994
C27	C	1.440730	0.116169	-0.000007
C28	C	1.940730	0.616169	0.499993
C29	C	0.866754	0.433399	-0.000021
C30	C	1.366754	0.933399	0.499979
C31	C	1.006191	0.464203	-0.000020
C32	C	1.506191	0.964203	0.499980
C33	C	1.438104	0.013311	-0.000012
C34	C	1.938104	0.513311	0.499988
C35	C	1.434821	-0.115730	-0.000024
C36	C	1.934821	0.384270	0.499976
C37	C	1.658580	0.485887	-0.000018
C38	C	2.158580	0.985887	0.499982
C39	C	1.793492	0.515687	-0.000027
C40	C	2.293492	1.015687	0.499973
C41	C	1.428978	0.654767	-0.000027
C42	C	1.928978	1.154767	0.499973
C43	C	1.432213	0.781421	-0.000035
C44	C	1.932213	1.281421	0.499965
N45	N	1.381400	0.489519	0.353622
N46	N	1.881400	0.989519	0.853622
N47	N	1.491550	0.408066	-0.353651
N48	N	1.991550	0.908066	0.146349
C49	C	1.448695	0.439746	0.421404
C50	C	1.948695	0.939746	0.921404
C51	C	1.424246	0.457846	0.578570
C52	C	1.924246	0.957846	1.078570
H53	H	0.826244	0.340147	0.000004
H54	H	1.326244	0.840147	0.500004
Cl55	Cl	1.565320	0.352955	0.331369
Cl56	Cl	2.065320	0.852955	0.831369
H57	H	1.046691	0.557464	-0.000017
H58	H	1.546691	1.057464	0.499983
H59	H	1.038966	0.288632	-0.000099
H60	H	1.538966	0.788632	0.499901
Cl61	Cl	1.307334	0.544323	0.668600
Cl62	Cl	1.807334	1.044323	1.168600
Cl63	Cl	0.856018	0.659671	-0.000024
Cl64	Cl	1.356018	1.159671	0.499976
Cl65	Cl	1.608718	0.321876	0.556322
Cl66	Cl	2.108718	0.821876	1.056322
Cl67	Cl	1.264493	0.575992	0.443657
Cl68	Cl	1.764493	1.075992	0.943657
