data_functionalizedCrystal
_audit_creation_method	'MofGen! by Chris Wilmer'
_symmetry_space_group_name_H-M	'P1'
_symmetry_Int_Tables_number	1
_symmetry_cell_setting	triclinic
loop_
_symmetry_equiv_pos_as_xyz
  x,y,z
_cell_length_a	16.109296
_cell_length_b	16.109301
_cell_length_c	14.586319
_cell_angle_alpha	89.998857
_cell_angle_beta	90.004442
_cell_angle_gamma	96.539564
loop_
_atom_site_label
_atom_site_type_symbol
_atom_site_fract_x
_atom_site_fract_y
_atom_site_fract_z
O1	O	-0.106867	1.103129	-0.076191
O2	O	0.226466	1.436462	0.257142
O3	O	0.559799	1.769795	0.590475
O4	O	-0.120166	0.861066	-0.076204
O5	O	0.213167	1.194400	0.257129
O6	O	0.546500	1.527733	0.590462
O7	O	0.007514	0.988749	-0.076190
O8	O	0.340848	1.322083	0.257143
O9	O	0.674181	1.655416	0.590477
O10	O	-0.234548	0.975446	-0.076206
O11	O	0.098785	1.308779	0.257128
O12	O	0.432118	1.642112	0.590461
O13	O	0.007516	0.988741	0.076291
O14	O	0.340850	1.322074	0.409624
O15	O	0.674183	1.655407	0.742958
O16	O	-0.120165	0.861058	0.076276
O17	O	0.213169	1.194391	0.409610
O18	O	0.546502	1.527724	0.742943
O19	O	-0.106865	1.103120	0.076290
O20	O	0.226468	1.436453	0.409623
O21	O	0.559801	1.769786	0.742956
Cu22	Cu	-0.113515	0.982088	0.090206
Cu23	Cu	0.219818	1.315421	0.423539
Cu24	Cu	0.553152	1.648754	0.756872
Cu25	Cu	-0.113517	0.982098	-0.090121
Cu26	Cu	0.219816	1.315432	0.243213
Cu27	Cu	0.553150	1.648765	0.576546
O28	O	-0.234546	0.975437	0.076275
O29	O	0.098787	1.308770	0.409608
O30	O	0.432120	1.642103	0.742942
C31	C	0.038490	0.988207	0.000050
C32	C	0.371824	1.321540	0.333384
C33	C	0.705157	1.654874	0.666717
C34	C	0.130786	0.986594	0.000050
C35	C	0.464119	1.319927	0.333384
C36	C	0.797452	1.653260	0.666717
C37	C	-0.119627	0.830087	0.000034
C38	C	0.213707	1.163420	0.333368
C39	C	0.547040	1.496754	0.666701
C40	C	-0.118012	0.737792	0.000030
C41	C	0.215322	1.071125	0.333363
C42	C	0.548655	1.404459	0.666696
C43	C	0.439785	1.057083	0.000042
C44	C	0.773118	1.390416	0.333375
C45	C	1.106451	1.723750	0.666709
C46	C	0.353064	1.058607	0.000046
C47	C	0.686398	1.391940	0.333380
C48	C	1.019731	1.725273	0.666713
C49	C	0.333191	0.907117	0.000050
C50	C	0.666524	1.240451	0.333384
C51	C	0.999858	1.573784	0.666717
C52	C	0.419910	0.905595	0.000052
C53	C	0.753243	1.238928	0.333386
C54	C	1.086577	1.572261	0.666719
C55	C	0.473205	0.980580	0.000044
C56	C	0.806538	1.313913	0.333377
C57	C	1.139872	1.647247	0.666710
C58	C	0.299766	0.983626	0.000046
C59	C	0.633099	1.316960	0.333379
C60	C	0.966432	1.650293	0.666712
C61	C	0.205739	0.985278	0.000050
C62	C	0.539073	1.318611	0.333384
C63	C	0.872406	1.651944	0.666717
C64	C	0.567237	0.978929	0.000041
C65	C	0.900571	1.312262	0.333374
C66	C	1.233904	1.645595	0.666707
C67	C	0.734478	0.975984	0.000036
C68	C	1.067812	1.309318	0.333369
C69	C	1.401145	1.642651	0.666702
C70	C	0.642185	0.977613	0.000039
C71	C	0.975518	1.310946	0.333372
C72	C	1.308852	1.644279	0.666706
C73	C	-0.188495	0.428792	0.000041
C74	C	0.144838	0.762126	0.333374
C75	C	0.478172	1.095459	0.666708
C76	C	-0.190020	0.515512	0.000036
C77	C	0.143313	0.848846	0.333369
C78	C	0.476646	1.182179	0.666702
C79	C	-0.038531	0.535389	0.000033
C80	C	0.294802	0.868722	0.333367
C81	C	0.628136	1.202055	0.666700
C82	C	-0.037007	0.448670	0.000032
C83	C	0.296327	0.782003	0.333365
C84	C	0.629660	1.115337	0.666699
C85	C	-0.111991	0.395374	0.000041
C86	C	0.221342	0.728707	0.333374
C87	C	0.554676	1.062040	0.666707
C88	C	-0.115041	0.568813	0.000036
C89	C	0.218292	0.902146	0.333370
C90	C	0.551626	1.235479	0.666703
C91	C	-0.116694	0.662839	0.000031
C92	C	0.216639	0.996172	0.333364
C93	C	0.549972	1.329505	0.666697
C94	C	-0.110338	0.301342	0.000045
C95	C	0.222995	0.634675	0.333378
C96	C	0.556329	0.968008	0.666711
C97	C	-0.107405	1.134099	0.000049
C98	C	0.225928	1.467432	0.333382
C99	C	0.559262	1.800766	0.666715
C100	C	-0.109020	1.226394	0.000047
C101	C	0.224313	1.559728	0.333381
C102	C	0.557646	1.893061	0.666714
N103	N	-0.113513	0.982087	0.217037
N104	N	0.219821	1.315420	0.550371
N105	N	0.553154	1.648753	0.883704
N106	N	-0.113513	0.982106	-0.216952
N107	N	0.219821	1.315440	0.116381
N108	N	0.553154	1.648773	0.449714
C109	C	-0.056995	1.038643	0.452050
C110	C	0.276339	1.371977	0.785384
C111	C	0.609672	1.705310	1.118717
C112	C	-0.056993	1.038646	0.548032
C113	C	0.276341	1.371979	0.881365
C114	C	0.609674	1.705312	1.214698
C115	C	-0.170033	0.925543	0.548028
C116	C	0.163300	1.258877	0.881362
C117	C	0.496633	1.592210	1.214695
C118	C	-0.170031	0.925538	0.452049
C119	C	0.163303	1.258871	0.785382
C120	C	0.496636	1.592204	1.118715
C121	C	-0.113512	0.982092	0.404062
C122	C	0.219821	1.315426	0.737396
C123	C	0.553154	1.648759	1.070729
C124	C	-0.113513	0.982100	0.596023
C125	C	0.219820	1.315434	0.929356
C126	C	0.553154	1.648767	1.262690
C127	C	-0.113511	0.982103	0.700090
C128	C	0.219822	1.315436	1.033423
C129	C	0.553155	1.648769	1.366757
C130	C	-0.113513	0.982089	0.299988
C131	C	0.219820	1.315423	0.633322
C132	C	0.553154	1.648756	0.966655
H133	H	0.483176	1.118141	0.000035
H134	H	0.816509	1.451474	0.333368
H135	H	1.149842	1.784808	0.666702
H136	H	-0.249552	0.385400	0.000047
H137	H	0.083781	0.718734	0.333381
H138	H	0.417115	1.052067	0.666714
F139	F	-0.230184	0.865342	0.400972
F140	F	0.103149	1.198676	0.734306
F141	F	0.436482	1.532009	1.067639
F142	F	0.003159	1.098832	0.400983
F143	F	0.336493	1.432165	0.734317
F144	F	0.669826	1.765498	1.067650
F145	F	0.455480	0.824165	0.000059
F146	F	0.788813	1.157499	0.333392
F147	F	1.122147	1.490832	0.666726
H148	H	0.289788	0.846067	0.000055
H149	H	0.623122	1.179401	0.333388
H150	H	0.956455	1.512734	0.666722
H151	H	0.022518	0.578793	0.000028
H152	H	0.355852	0.912126	0.333362
H153	H	0.689185	1.245459	0.666695
F154	F	0.317500	1.140031	0.000042
F155	F	0.650834	1.473365	0.333376
F156	F	0.984167	1.806698	0.666709
F157	F	-0.271446	0.551075	0.000033
F158	F	0.061887	0.884408	0.333366
F159	F	0.395221	1.217741	0.666699
H160	H	0.025296	0.421461	0.000029
H161	H	0.358629	0.754795	0.333362
H162	H	0.691962	1.088128	0.666696
H163	H	-0.010970	1.084694	0.587101
H164	H	0.322363	1.418027	0.920434
H165	H	0.655697	1.751360	1.253767
F166	F	-0.230184	0.865359	0.599105
F167	F	0.103150	1.198692	0.932438
F168	F	0.436483	1.532025	1.265772
