data_functionalizedCrystal
_audit_creation_method	'MofGen! by Chris Wilmer'
_symmetry_space_group_name_H-M	'P1'
_symmetry_Int_Tables_number	1
_symmetry_cell_setting	triclinic
loop_
_symmetry_equiv_pos_as_xyz
  x,y,z
_cell_length_a	9.065218
_cell_length_b	9.198806
_cell_length_c	9.065218
_cell_angle_alpha	90.001336
_cell_angle_beta	85.015885
_cell_angle_gamma	90.004029
loop_
_atom_site_label
_atom_site_type_symbol
_atom_site_fract_x
_atom_site_fract_y
_atom_site_fract_z
O1	O	1.960401	0.120890	0.216354
O2	O	2.460401	0.620890	0.716354
O3	O	1.531116	0.120891	0.234100
O4	O	2.031116	0.620891	0.734100
O5	O	1.754631	0.120887	0.010584
O6	O	2.254631	0.620887	0.510584
O7	O	1.736885	0.120893	0.439869
O8	O	2.236885	0.620893	0.939869
O9	O	1.754614	-0.120898	0.010584
O10	O	2.254614	0.379102	0.510584
O11	O	1.531098	-0.120894	0.234099
O12	O	2.031098	0.379106	0.734099
O13	O	1.960383	-0.120895	0.216353
O14	O	2.460383	0.379105	0.716353
Cu15	Cu	1.745739	-0.142971	0.225226
Cu16	Cu	2.245739	0.357029	0.725226
Cu17	Cu	1.745760	0.142967	0.225227
Cu18	Cu	2.245760	0.642967	0.725227
O19	O	1.736867	-0.120892	0.439868
O20	O	2.236867	0.379108	0.939868
C21	C	1.476120	-0.000001	0.232394
C22	C	1.976120	0.499999	0.732394
C23	C	1.312277	-0.000000	0.227294
C24	C	1.812277	0.500000	0.727294
N25	N	1.745735	-0.344085	0.225225
N26	N	2.245735	0.155915	0.725225
C27	C	1.839580	-0.416284	0.130961
C28	C	2.339580	0.083716	0.630961
C29	C	1.839603	-0.583696	0.130956
C30	C	2.339603	-0.083696	0.630956
C31	C	2.015378	0.000000	0.218059
C32	C	2.515378	0.500000	0.718059
C33	C	2.179221	0.000009	0.223158
C34	C	2.679221	0.500009	0.723158
N35	N	1.745776	0.344081	0.225217
N36	N	2.245776	0.844081	0.725217
C37	C	1.752917	-0.000003	-0.044403
C38	C	2.252917	0.499997	0.455597
C39	C	1.747817	0.000004	-0.208245
C40	C	2.247817	0.500004	0.291755
C41	C	1.738582	0.000002	0.494855
C42	C	2.238582	0.500002	0.994855
C43	C	1.743681	0.000004	0.658698
C44	C	2.243681	0.500004	1.158698
H45	H	1.919954	-0.645784	0.050258
H46	H	2.419954	-0.145784	0.550258
O47	O	1.650120	-0.581710	0.321570
O48	O	2.150120	-0.081710	0.821570
C49	C	1.730702	-0.493681	0.413403
C50	C	2.230702	0.006319	0.913403
H51	H	1.845264	-0.471005	0.355915
H52	H	2.345264	0.028995	0.855915
H53	H	1.669565	-0.386600	0.435957
H54	H	2.169565	0.113400	0.935957
H55	H	1.742438	-0.552253	0.522592
H56	H	2.242438	-0.052253	1.022592
O57	O	1.649691	-0.418126	0.321353
O58	O	2.149691	0.081874	0.821353
C59	C	1.503164	-0.381038	0.295805
C60	C	2.003164	0.118962	0.795805
H61	H	1.500496	-0.339099	0.177734
H62	H	2.000496	0.160901	0.677734
H63	H	1.429476	-0.481216	0.311844
H64	H	1.929476	0.018784	0.811844
H65	H	1.461036	-0.292813	0.377177
H66	H	1.961036	0.207187	0.877177
O67	O	1.935243	-0.341988	0.034676
O68	O	2.435243	0.158012	0.534676
C69	C	1.854692	-0.253945	-0.057157
C70	C	2.354692	0.246055	0.442843
H71	H	1.740094	-0.231345	0.000277
H72	H	2.240094	0.268655	0.500277
H73	H	1.915804	-0.146826	-0.079610
H74	H	2.415804	0.353174	0.420390
H75	H	1.843044	-0.312465	-0.166395
H76	H	2.343044	0.187535	0.333605
