data_functionalizedCrystal
_audit_creation_method	'MofGen! by Chris Wilmer'
_symmetry_space_group_name_H-M	'P1'
_symmetry_Int_Tables_number	1
_symmetry_cell_setting	triclinic
loop_
_symmetry_equiv_pos_as_xyz
  x,y,z
_cell_length_a	6.817900
_cell_length_b	14.125465
_cell_length_c	11.168129
_cell_angle_alpha	94.659518
_cell_angle_beta	108.508637
_cell_angle_gamma	100.398878
loop_
_atom_site_label
_atom_site_type_symbol
_atom_site_fract_x
_atom_site_fract_y
_atom_site_fract_z
V1	V	-4.016763	-0.299985	-0.173620
O2	O	-3.978122	-0.294266	0.009459
O3	O	-3.993686	-0.297941	-0.345333
O4	O	-3.952442	-0.430815	-0.170460
O5	O	-4.019651	-0.160472	-0.166624
V6	V	-4.499173	-0.283297	-0.151779
O7	O	-4.280464	-0.336591	-0.221529
O8	O	-4.685669	-0.246691	-0.103870
O9	O	-4.299043	-0.285340	0.019933
O10	O	-4.655211	-0.289016	-0.334859
O11	O	-4.613681	-0.422809	-0.158775
O12	O	-4.340287	-0.152467	-0.154940
C13	C	-3.845362	-0.293211	-0.387208
C14	C	-3.907675	-0.292412	-0.527582
C15	C	-3.904634	-0.208324	-0.573332
C16	C	-3.969036	-0.207497	-0.718416
C17	C	-3.792750	-0.462703	-0.164138
C18	C	-3.821612	-0.569657	-0.162690
C19	C	-3.874513	-0.765480	-0.160035
C20	C	-4.060791	-0.817802	-0.165361
C21	C	-4.090228	-0.926764	-0.163884
C22	C	-3.845068	-0.656507	-0.161513
C23	C	-4.110710	-0.290068	0.061802
C24	C	-4.027635	-0.290873	0.202175
C25	C	-4.163322	-0.120574	-0.161265
C26	C	-4.113698	-0.013619	-0.162707
H27	H	-4.030127	-0.362869	-0.758425
H28	H	-3.966526	-0.135504	-0.757824
H29	H	-3.957963	-0.363791	-0.595824
H30	H	-4.198167	-0.780763	-0.171043
H31	H	-3.737155	-0.802518	-0.154368
H32	H	-3.854363	-0.136946	-0.505091
