data_functionalizedCrystal
_audit_creation_method	'MofGen! by Chris Wilmer'
_symmetry_space_group_name_H-M	'P1'
_symmetry_Int_Tables_number	1
_symmetry_cell_setting	triclinic
loop_
_symmetry_equiv_pos_as_xyz
  x,y,z
_cell_length_a	29.839134
_cell_length_b	14.908520
_cell_length_c	29.839111
_cell_angle_alpha	86.816258
_cell_angle_beta	89.928905
_cell_angle_gamma	86.683852
loop_
_atom_site_label
_atom_site_type_symbol
_atom_site_fract_x
_atom_site_fract_y
_atom_site_fract_z
Zn1	Zn	0.676703	0.358473	-0.264431
Zn2	Zn	0.672257	0.509560	-0.193644
Zn3	Zn	0.601514	0.358720	-0.189308
Zn4	Zn	0.597229	0.509263	-0.268724
O5	O	0.636926	0.434004	-0.229027
O6	O	0.738980	0.378536	-0.255059
O7	O	0.662806	0.489779	-0.130208
O8	O	0.615143	0.232454	-0.195661
O9	O	0.735714	0.489539	-0.203052
O10	O	0.670384	0.232273	-0.250854
O11	O	0.610832	0.378957	-0.127022
O12	O	0.538079	0.378669	-0.199824
O13	O	0.607838	0.489033	-0.331016
O14	O	0.534931	0.489273	-0.258171
O15	O	0.666228	0.378248	-0.327861
O16	O	0.658650	0.635754	-0.207215
O17	O	0.603527	0.635536	-0.262376
C18	C	0.630153	0.668376	-0.235742
C19	C	0.627297	0.768641	-0.238630
C20	C	0.520204	0.433966	-0.228993
C21	C	0.470270	0.433972	-0.228990
C22	C	0.637051	0.433580	-0.346193
C23	C	0.637104	0.433399	-0.396123
C24	C	0.158993	0.491681	-0.259375
C25	C	-0.028681	0.491706	-0.259396
O26	O	-0.054333	0.540731	-0.285210
N27	N	-0.050517	0.434037	-0.229062
C28	C	-0.025432	0.376354	-0.198722
O29	O	-0.048311	0.327297	-0.172924
C30	C	0.162241	0.376325	-0.198703
C31	C	0.184075	0.434004	-0.229037
C32	C	0.180827	0.549355	-0.289707
C33	C	0.227742	0.549351	-0.289700
C34	C	0.252824	0.491674	-0.259361
C35	C	0.230990	0.434000	-0.229030
C36	C	0.187326	0.318637	-0.168366
C37	C	0.234247	0.318633	-0.168365
C38	C	0.256080	0.376313	-0.198698
C39	C	0.302988	0.376320	-0.198684
N40	N	0.324824	0.433989	-0.229019
C41	C	0.299742	0.491666	-0.259357
C42	C	-0.123963	0.376375	-0.198733
C43	C	-0.170881	0.376383	-0.198737
C44	C	-0.174127	0.491734	-0.259412
C45	C	-0.127208	0.491730	-0.259405
C46	C	-0.102127	0.434043	-0.229067
C47	C	0.398268	0.491655	-0.259340
C48	C	0.445188	0.491649	-0.259329
C49	C	0.448430	0.376294	-0.198655
C50	C	0.401514	0.376303	-0.198665
C51	C	0.376434	0.433986	-0.229011
O52	O	0.328669	0.327314	-0.172887
O53	O	0.322630	0.540701	-0.285158
C54	C	0.112077	0.491684	-0.259383
C55	C	0.090244	0.434011	-0.229051
C56	C	0.115325	0.376333	-0.198713
C57	C	0.043326	0.434019	-0.229055
C58	C	0.018244	0.491696	-0.259394
C59	C	0.040080	0.549365	-0.289728
C60	C	0.086996	0.549362	-0.289721
C61	C	0.093489	0.318665	-0.168378
C62	C	0.046573	0.318673	-0.168387
C63	C	0.021492	0.376351	-0.198726
C64	C	0.754103	0.434043	-0.229061
C65	C	0.804037	0.434060	-0.229075
C66	C	0.643737	0.198718	-0.222295
C67	C	0.646640	0.098453	-0.219426
C68	C	0.679389	0.957216	-0.186664
C69	C	0.676707	1.051424	-0.189376
C70	C	0.619253	1.051267	-0.246768
C71	C	0.621935	0.957059	-0.244056
C72	C	0.652004	0.910037	-0.214002
C73	C	0.654683	0.815827	-0.211289
C74	C	0.597232	0.815672	-0.268683
C75	C	0.594550	0.909880	-0.271395
C76	C	0.636829	0.434362	-0.112314
C77	C	0.636870	0.434289	-0.062378
C78	C	0.667197	0.375698	0.295760
C79	C	0.667131	0.375955	0.108080
O80	O	0.692796	0.326556	0.085123
N81	N	0.636920	0.434084	0.083073
C82	C	0.606721	0.492149	0.104989
O83	O	0.581020	0.541591	0.079412
C84	C	0.606785	0.491887	0.292668
C85	C	0.637001	0.433761	0.317673
C86	C	0.697410	0.317576	0.320765
C87	C	0.697428	0.317515	0.367682
C88	C	0.667232	0.375578	0.389595
C89	C	0.637019	0.433700	0.364590
C90	C	0.576585	0.549947	0.314583
C91	C	0.576602	0.549875	0.361506
C92	C	0.606819	0.491748	0.386511
C93	C	0.606841	0.491703	0.433420
N94	N	0.637052	0.433573	0.458427
C95	C	0.667248	0.375511	0.436514
C96	C	0.606690	0.492284	0.006454
C97	C	0.606675	0.492351	-0.040465
C98	C	0.667084	0.376156	-0.037371
C99	C	0.667102	0.376094	0.009550
C100	C	0.636901	0.434155	0.031462
C101	C	0.667283	0.375389	0.535044
C102	C	0.667299	0.375337	0.581965
C103	C	0.606889	0.491529	0.578866
C104	C	0.606874	0.491585	0.531949
C105	C	0.637073	0.433508	0.510039
O106	O	0.581186	0.541069	0.456407
O107	O	0.692938	0.326062	0.462099
C108	C	0.667179	0.375758	0.248843
C109	C	0.636966	0.433881	0.223839
C110	C	0.606770	0.491943	0.245751
C111	C	0.636950	0.433948	0.176919
C112	C	0.667146	0.375886	0.155007
C113	C	0.697357	0.317756	0.180014
C114	C	0.697375	0.317696	0.226931
C115	C	0.576559	0.550073	0.220744
C116	C	0.576544	0.550129	0.173827
C117	C	0.606740	0.492066	0.151914
H118	H	0.462963	0.538622	-0.284030
H119	H	0.245515	0.596318	-0.314401
O120	O	0.547253	0.606700	0.149519
C121	C	0.538090	0.728619	0.093205
C122	C	0.571312	0.664629	0.120708
H123	H	0.557529	0.775458	0.069898
H124	H	0.516521	0.770167	0.116911
H125	H	0.515621	0.687552	0.072422
H126	H	0.593811	0.705626	0.141493
H127	H	0.592850	0.623078	0.096978
O128	O	0.373860	0.547735	-0.288756
C129	C	0.317415	0.669582	-0.298202
C130	C	0.345018	0.606110	-0.264842
H131	H	0.294096	0.716807	-0.278881
H132	H	0.296644	0.628217	-0.320541
H133	H	0.341097	0.710755	-0.319884
H134	H	0.321369	0.564924	-0.243130
H135	H	0.365794	0.647527	-0.242533
O136	O	0.577372	0.548798	-0.064821
C137	C	0.550554	0.600379	-0.138469
C138	C	0.583772	0.536422	-0.110944
H139	H	0.555710	0.590382	-0.175763
H140	H	0.556609	0.673007	-0.131274
H141	H	0.514724	0.585053	-0.128741
H142	H	0.619615	0.551667	-0.120655
H143	H	0.577678	0.463813	-0.118142
O144	O	0.570563	0.769880	-0.295194
C145	C	0.494964	0.741127	-0.316097
C146	C	0.525115	0.793027	-0.286044
H147	H	0.458214	0.759836	-0.308717
H148	H	0.502005	0.665706	-0.308993
H149	H	0.502355	0.759463	-0.352858
H150	H	0.517741	0.774765	-0.249273
H151	H	0.518068	0.868435	-0.293186
H152	H	0.691907	0.328002	0.602322
O153	O	0.726762	0.261294	0.299430
C154	C	0.787756	0.248367	0.246748
C155	C	0.754529	0.312206	0.270868
H156	H	0.810220	0.289504	0.223658
H157	H	0.768338	0.201531	0.226066
H158	H	0.809329	0.206797	0.272694
H159	H	0.732947	0.353834	0.244953
H160	H	0.773973	0.358982	0.291559
H161	H	0.679165	0.777542	-0.186816
O162	O	0.117781	0.262607	-0.138862
C163	C	0.116039	0.148162	-0.078698
C164	C	0.088476	0.211617	-0.112098
H165	H	0.092357	0.106906	-0.057057
H166	H	0.136765	0.189542	-0.056324
H167	H	0.139406	0.101014	-0.098011
H168	H	0.065084	0.258777	-0.092821
H169	H	0.067780	0.170180	-0.134472
H170	H	0.721979	0.270363	0.247286
O171	O	0.703326	1.097115	-0.162772
C172	C	0.760615	1.087325	-0.105580
C173	C	0.730485	1.035468	-0.135676
H174	H	0.782587	1.037506	-0.083672
H175	H	0.738750	1.131540	-0.083308
H176	H	0.782835	1.131329	-0.127507
H177	H	0.708260	0.991415	-0.113784
H178	H	0.752376	0.991310	-0.157951
H179	H	0.254666	0.271652	-0.143662
O180	O	0.547183	0.606351	0.242050
C181	C	0.486233	0.619301	0.294780
C182	C	0.519468	0.555455	0.270675
H183	H	0.463823	0.578178	0.317935
H184	H	0.464606	0.660839	0.268865
H185	H	0.505689	0.666166	0.315408
H186	H	0.500049	0.508535	0.250048
H187	H	0.541095	0.513980	0.296613
O188	O	0.156533	0.605475	-0.319196
C189	C	0.158282	0.719859	-0.379388
C190	C	0.185844	0.656353	-0.346010
H191	H	0.181969	0.760997	-0.401082
H192	H	0.134942	0.767107	-0.360101
H193	H	0.137528	0.678434	-0.401713
H194	H	0.206625	0.697705	-0.323677
H195	H	0.209156	0.609103	-0.365324
O196	O	0.696388	0.319578	0.033887
C197	C	0.705538	0.197574	0.090157
C198	C	0.672322	0.261543	0.062636
H199	H	0.686094	0.150624	0.113399
H200	H	0.727993	0.238563	0.110997
H201	H	0.727124	0.156134	0.066420
H202	H	0.650707	0.302997	0.086340
H203	H	0.649899	0.220502	0.041790
O204	O	0.472778	0.320369	-0.169124
C205	C	0.488285	0.276581	-0.091488
C206	C	0.460687	0.339988	-0.124881
H207	H	0.478513	0.292407	-0.055711
H208	H	0.525573	0.286497	-0.096661
H209	H	0.481178	0.203843	-0.097377
H210	H	0.467756	0.412750	-0.119013
H211	H	0.423408	0.329994	-0.119701
O212	O	0.708530	0.911492	-0.157421
C213	C	0.717583	0.805334	-0.093737
C214	C	0.684532	0.857076	-0.126819
H215	H	0.698195	0.761312	-0.068993
H216	H	0.736688	0.855196	-0.074626
H217	H	0.742344	0.761141	-0.113126
H218	H	0.659744	0.901270	-0.107465
H219	H	0.665460	0.807166	-0.145930
O220	O	0.565403	0.955661	-0.300611
C221	C	0.556343	1.061730	-0.364330
C222	C	0.589403	1.009957	-0.331267
H223	H	0.575735	1.105626	-0.389129
H224	H	0.531598	1.106024	-0.344975
H225	H	0.537220	1.011808	-0.383382
H226	H	0.608557	1.059813	-0.312206
H227	H	0.614118	0.965649	-0.350647
O228	O	0.590058	1.097092	-0.275922
C229	C	0.560490	1.242161	-0.305553
C230	C	0.593565	1.190377	-0.272510
H231	H	0.563320	1.317590	-0.302813
H232	H	0.524775	1.223804	-0.297093
H233	H	0.568909	1.223414	-0.341243
H234	H	0.585187	1.209095	-0.236809
H235	H	0.629270	1.208737	-0.281009
O236	O	0.696662	0.318948	0.513835
C237	C	0.756568	0.203664	0.521870
C238	C	0.723325	0.267546	0.545945
H239	H	0.778127	0.162076	0.547820
H240	H	0.779042	0.244729	0.498756
H241	H	0.737118	0.156850	0.501206
H242	H	0.742738	0.314373	0.566633
H243	H	0.700851	0.226425	0.569033
O244	O	0.015644	0.605308	-0.319183
C245	C	-0.058082	0.656454	-0.346058
C246	C	-0.030460	0.593049	-0.312684
H247	H	-0.095362	0.646578	-0.340809
H248	H	-0.048386	0.640590	-0.381851
H249	H	-0.050943	0.729189	-0.340201
H250	H	-0.037585	0.520293	-0.318500
H251	H	-0.040160	0.608990	-0.276903
O252	O	0.726793	0.260958	0.391902
C253	C	0.786723	0.145747	0.390001
C254	C	0.753483	0.209743	0.362523
H255	H	0.808317	0.104336	0.366259
H256	H	0.767316	0.098778	0.413270
H257	H	0.809165	0.186802	0.410820
H258	H	0.731033	0.168761	0.341678
H259	H	0.772918	0.256714	0.339281
O260	O	0.696476	0.319844	-0.058644
C261	C	0.774023	0.274931	-0.071884
C262	C	0.740793	0.338775	-0.047770
H263	H	0.809860	0.290201	-0.063093
H264	H	0.768855	0.284974	-0.109718
H265	H	0.767949	0.202301	-0.060666
H266	H	0.746847	0.411429	-0.058950
H267	H	0.745968	0.328654	-0.009940
H268	H	0.551979	0.597280	0.294232
O269	O	0.547315	0.606413	0.382769
C270	C	0.521606	0.760147	0.392925
C271	C	0.554801	0.696217	0.368822
H272	H	0.527640	0.832766	0.381651
H273	H	0.526809	0.750200	0.430758
H274	H	0.485767	0.744792	0.384187
H275	H	0.590653	0.711532	0.377524
H276	H	0.549558	0.706176	0.330995
H277	H	0.582098	0.539571	0.024290
H278	H	0.582273	0.538925	0.511589
O279	O	0.025348	0.262778	-0.138866
C280	C	-0.027360	0.250678	-0.077884
C281	C	-0.003351	0.314081	-0.111285
H282	H	-0.050576	0.292130	-0.055582
H283	H	-0.001385	0.209485	-0.056170
H284	H	-0.047918	0.203470	-0.097198
H285	H	0.017206	0.361344	-0.092007
H286	H	-0.029349	0.355211	-0.132998
H287	H	0.582306	0.538804	0.596715
H288	H	0.721945	0.270483	0.162164
H289	H	-0.109434	0.538696	-0.284106
H290	H	-0.194556	0.538697	-0.284115
H291	H	-0.103546	0.329398	-0.174026
O292	O	0.380274	0.320401	-0.169160
C293	C	0.327532	0.308256	-0.108209
C294	C	0.351561	0.371682	-0.141582
H295	H	0.304306	0.349690	-0.085910
H296	H	0.353495	0.267040	-0.086490
H297	H	0.306984	0.261070	-0.127547
H298	H	0.372109	0.418923	-0.122281
H299	H	0.325576	0.412835	-0.163301
H300	H	-0.188654	0.329424	-0.174032
H301	H	0.169557	0.271671	-0.143664
H302	H	0.104768	0.596330	-0.314422
