data_functionalizedCrystal
_audit_creation_method	'MofGen! by Chris Wilmer'
_symmetry_space_group_name_H-M	'P1'
_symmetry_Int_Tables_number	1
_symmetry_cell_setting	triclinic
loop_
_symmetry_equiv_pos_as_xyz
  x,y,z
_cell_length_a	12.827893
_cell_length_b	16.120444
_cell_length_c	12.827885
_cell_angle_alpha	92.864681
_cell_angle_beta	89.980538
_cell_angle_gamma	92.926466
loop_
_atom_site_label
_atom_site_type_symbol
_atom_site_fract_x
_atom_site_fract_y
_atom_site_fract_z
Zn1	Zn	1.576498	-0.331868	-0.611901
Zn2	Zn	1.826498	-0.081868	-0.361901
Zn3	Zn	2.076498	0.168132	-0.111901
Zn4	Zn	2.326498	0.418132	0.138099
Zn5	Zn	1.567496	-0.471303	-0.446006
Zn6	Zn	1.817496	-0.221303	-0.196006
Zn7	Zn	2.067496	0.028697	0.053994
Zn8	Zn	2.317496	0.278697	0.303994
Zn9	Zn	1.401736	-0.331908	-0.437177
Zn10	Zn	1.651736	-0.081908	-0.187177
Zn11	Zn	1.901736	0.168092	0.062823
Zn12	Zn	2.151736	0.418092	0.312823
Zn13	Zn	1.392833	-0.471241	-0.620702
Zn14	Zn	1.642833	-0.221241	-0.370702
Zn15	Zn	1.892833	0.028759	-0.120702
Zn16	Zn	2.142833	0.278759	0.129298
O17	O	1.484641	-0.401580	-0.528946
O18	O	1.734641	-0.151580	-0.278946
O19	O	1.984641	0.098420	-0.028946
O20	O	2.234641	0.348420	0.221054
O21	O	1.721539	-0.350373	-0.589906
O22	O	1.971539	-0.100373	-0.339906
O23	O	2.221539	0.149627	-0.089906
O24	O	2.471539	0.399627	0.160094
O25	O	1.545466	-0.452855	-0.298601
O26	O	1.795466	-0.202855	-0.048601
O27	O	2.045466	0.047145	0.201399
O28	O	2.295466	0.297145	0.451399
O29	O	1.432413	-0.215237	-0.452976
O30	O	1.682413	0.034763	-0.202976
O31	O	1.932413	0.284763	0.047024
O32	O	2.182413	0.534763	0.297024
O33	O	1.714925	-0.452816	-0.468024
O34	O	1.964925	-0.202816	-0.218024
O35	O	2.214925	0.047184	0.031976
O36	O	2.464925	0.297184	0.281976
O37	O	1.560809	-0.215207	-0.581345
O38	O	1.810809	0.034793	-0.331345
O39	O	2.060809	0.284793	-0.081345
O40	O	2.310809	0.534793	0.168655
O41	O	1.423683	-0.350442	-0.292115
O42	O	1.673683	-0.100442	-0.042115
O43	O	1.923683	0.149558	0.207885
O44	O	2.173683	0.399558	0.457885
O45	O	1.254320	-0.350382	-0.461510
O46	O	1.504320	-0.100382	-0.211510
O47	O	1.754320	0.149618	0.038490
O48	O	2.004320	0.399618	0.288490
O49	O	1.417238	-0.452710	-0.765768
O50	O	1.667238	-0.202710	-0.515768
O51	O	1.917238	0.047290	-0.265768
O52	O	2.167238	0.297290	-0.015768
O53	O	1.247778	-0.452750	-0.596346
O54	O	1.497778	-0.202750	-0.346346
O55	O	1.747778	0.047250	-0.096346
O56	O	1.997778	0.297250	0.153654
O57	O	1.552176	-0.350313	-0.759302
O58	O	1.802176	-0.100313	-0.509302
O59	O	2.052176	0.149687	-0.259302
O60	O	2.302176	0.399687	-0.009302
O61	O	1.536832	-0.587961	-0.476558
O62	O	1.786832	-0.337961	-0.226558
O63	O	2.036832	-0.087961	0.023442
O64	O	2.286832	0.162039	0.273442
O65	O	1.408508	-0.587915	-0.604907
O66	O	1.658508	-0.337915	-0.354907
O67	O	1.908508	-0.087915	-0.104907
O68	O	2.158508	0.162085	0.145093
C69	C	1.213132	-0.401564	-0.528926
C70	C	1.463132	-0.151564	-0.278926
C71	C	1.713132	0.098436	-0.028926
C72	C	1.963132	0.348436	0.221074
C73	C	1.096978	-0.401577	-0.528943
C74	C	1.346978	-0.151577	-0.278943
C75	C	1.596978	0.098423	-0.028943
C76	C	1.846978	0.348423	0.221057
C77	C	1.470756	-0.618188	-0.542669
C78	C	1.720756	-0.368188	-0.292669
C79	C	1.970756	-0.118188	-0.042669
C80	C	2.220756	0.131812	0.207331
C81	C	1.464911	-0.710854	-0.548574
C82	C	1.714911	-0.460854	-0.298574
C83	C	1.964911	-0.210854	-0.048574
C84	C	2.214911	0.039146	0.201426
C85	C	1.041979	-0.452311	-0.595570
C86	C	1.291979	-0.202311	-0.345570
C87	C	1.541979	0.047689	-0.095570
C88	C	1.791979	0.297689	0.154430
C89	C	0.921927	-0.452326	-0.595590
C90	C	1.171927	-0.202326	-0.345590
C91	C	1.421927	0.047674	-0.095590
C92	C	1.671927	0.297674	0.154410
C93	C	1.515215	-0.921799	-0.498537
C94	C	1.765215	-0.671799	-0.248537
C95	C	2.015215	-0.421799	0.001463
C96	C	2.265215	-0.171799	0.251463
C97	C	1.454260	-0.880510	-0.559367
C98	C	1.704260	-0.630510	-0.309367
C99	C	1.954260	-0.380510	-0.059367
C100	C	2.204260	-0.130510	0.190633
C101	C	1.460188	-0.786105	-0.553360
C102	C	1.710188	-0.536105	-0.303360
C103	C	1.960188	-0.286105	-0.053360
C104	C	2.210188	-0.036105	0.196640
C105	C	1.509288	-1.016213	-0.504543
C106	C	1.759288	-0.766213	-0.254543
C107	C	2.009288	-0.516213	-0.004543
C108	C	2.259288	-0.266213	0.245457
C109	C	1.757210	-0.401597	-0.528968
C110	C	2.007210	-0.151597	-0.278968
C111	C	2.257210	0.098403	-0.028968
C112	C	2.507210	0.348403	0.221032
C113	C	1.873362	-0.401604	-0.528977
C114	C	2.123362	-0.151604	-0.278977
C115	C	2.373362	0.098396	-0.028977
C116	C	2.623362	0.348396	0.221023
C117	C	1.484718	-0.401500	-0.801512
C118	C	1.734718	-0.151500	-0.551512
C119	C	1.984718	0.098500	-0.301512
C120	C	2.234718	0.348500	-0.051512
C121	C	1.484751	-0.401466	-0.917663
C122	C	1.734751	-0.151466	-0.667663
C123	C	1.984751	0.098534	-0.417663
C124	C	2.234751	0.348534	-0.167663
C125	C	1.498608	-0.184126	-0.515194
C126	C	1.748608	0.065874	-0.265194
C127	C	1.998608	0.315874	-0.015194
C128	C	2.248608	0.565874	0.234806
C129	C	1.504561	-0.091460	-0.509333
C130	C	1.754561	0.158540	-0.259333
C131	C	2.004561	0.408540	-0.009333
C132	C	2.254561	0.658540	0.240667
C133	C	1.424510	-0.350779	-0.966237
C134	C	1.674510	-0.100779	-0.716237
C135	C	1.924510	0.149221	-0.466237
C136	C	2.174510	0.399221	-0.216237
C137	C	1.424542	-0.350742	-1.086285
C138	C	1.674542	-0.100742	-0.836285
C139	C	1.924542	0.149258	-0.586285
C140	C	2.174542	0.399258	-0.336285
C141	C	1.484628	-0.401600	-0.257438
C142	C	1.734628	-0.151600	-0.007438
C143	C	1.984628	0.098400	0.242562
C144	C	2.234628	0.348400	0.492562
C145	C	1.484812	-0.401399	-0.141272
C146	C	1.734812	-0.151399	0.108728
C147	C	1.984812	0.098601	0.358728
C148	C	2.234812	0.348601	0.608728
H149	H	1.083770	-0.495732	-0.652602
H150	H	1.333770	-0.245732	-0.402602
H151	H	1.583770	0.004268	-0.152602
H152	H	1.833770	0.254268	0.097398
C153	C	1.567854	-0.894869	-0.319943
C154	C	1.817854	-0.644869	-0.069943
C155	C	2.067854	-0.394869	0.180057
C156	C	2.317854	-0.144869	0.430057
C157	C	1.591661	-0.873811	-0.422137
C158	C	1.841661	-0.623811	-0.172137
C159	C	2.091661	-0.373811	0.077863
C160	C	2.341661	-0.123811	0.327863
H161	H	1.615050	-0.865238	-0.272777
H162	H	1.865050	-0.615238	-0.022777
H163	H	2.115050	-0.365238	0.227223
H164	H	2.365050	-0.115238	0.477223
H165	H	1.498524	-0.880714	-0.303723
H166	H	1.748524	-0.630714	-0.053723
H167	H	1.998524	-0.380714	0.196277
H168	H	2.248524	-0.130714	0.446277
H169	H	1.573860	-0.952935	-0.314019
H170	H	1.823860	-0.702935	-0.064019
H171	H	2.073860	-0.452935	0.185981
H172	H	2.323860	-0.202935	0.435981
H173	H	1.585647	-0.815745	-0.428062
H174	H	1.835647	-0.565745	-0.178062
H175	H	2.085647	-0.315745	0.071938
H176	H	2.335647	-0.065745	0.321938
H177	H	1.661008	-0.887960	-0.438361
H178	H	1.911008	-0.637960	-0.188361
H179	H	2.161008	-0.387960	0.061639
H180	H	2.411008	-0.137960	0.311639
H181	H	1.372907	-0.307414	-0.918948
H182	H	1.622907	-0.057414	-0.668948
H183	H	1.872907	0.192586	-0.418948
H184	H	2.122907	0.442586	-0.168948
H185	H	1.397622	-0.916063	-0.615955
H186	H	1.647622	-0.666063	-0.365955
H187	H	1.897622	-0.416063	-0.115955
H188	H	2.147622	-0.166063	0.134045
H189	H	1.536394	-0.444793	-1.099494
H190	H	1.786394	-0.194793	-0.849494
H191	H	2.036394	0.055207	-0.599494
H192	H	2.286394	0.305207	-0.349494
C193	C	1.284852	-0.339208	-1.208404
C194	C	1.534852	-0.089208	-0.958404
C195	C	1.784852	0.160792	-0.708404
C196	C	2.034852	0.410792	-0.458404
C197	C	1.354907	-0.292159	-1.142680
C198	C	1.604907	-0.042159	-0.892680
C199	C	1.854907	0.207841	-0.642680
C200	C	2.104907	0.457841	-0.392680
H201	H	1.241856	-0.303038	-1.243214
H202	H	1.491856	-0.053038	-0.993214
H203	H	1.741856	0.196962	-0.743214
H204	H	1.991856	0.446962	-0.493214
H205	H	1.322670	-0.370972	-1.258461
H206	H	1.572670	-0.120972	-1.008461
H207	H	1.822670	0.129028	-0.758461
H208	H	2.072670	0.379028	-0.508461
H209	H	1.242506	-0.375511	-1.168105
H210	H	1.492506	-0.125511	-0.918105
H211	H	1.742506	0.124489	-0.668105
H212	H	1.992506	0.374489	-0.418105
H213	H	1.397258	-0.255860	-1.182980
H214	H	1.647258	-0.005860	-0.932980
H215	H	1.897258	0.244140	-0.682980
H216	H	2.147258	0.494140	-0.432980
H217	H	1.317085	-0.260380	-1.092617
H218	H	1.567085	-0.010380	-0.842617
H219	H	1.817085	0.239620	-0.592617
H220	H	2.067085	0.489620	-0.342617
H221	H	1.536348	-0.444835	-0.964952
H222	H	1.786348	-0.194835	-0.714952
H223	H	2.036348	0.055165	-0.464952
H224	H	2.286348	0.305165	-0.214952
H225	H	0.874642	-0.495763	-0.652629
H226	H	1.124642	-0.245763	-0.402629
H227	H	1.374642	0.004237	-0.152629
H228	H	1.624642	0.254237	0.097371
H229	H	0.920641	-0.358170	-0.471928
H230	H	1.170641	-0.108170	-0.221928
H231	H	1.420641	0.141830	0.028072
H232	H	1.670641	0.391830	0.278072
H233	H	1.055187	-0.358150	-0.471918
H234	H	1.305187	-0.108150	-0.221918
H235	H	1.555187	0.141850	0.028082
H236	H	1.805187	0.391850	0.278082
