data_functionalizedCrystal
_audit_creation_method	'MofGen! by Chris Wilmer'
_symmetry_space_group_name_H-M	'P1'
_symmetry_Int_Tables_number	1
_symmetry_cell_setting	triclinic
loop_
_symmetry_equiv_pos_as_xyz
  x,y,z
_cell_length_a	10.723024
_cell_length_b	14.519709
_cell_length_c	9.198806
_cell_angle_alpha	89.995869
_cell_angle_beta	89.996352
_cell_angle_gamma	84.074007
loop_
_atom_site_label
_atom_site_type_symbol
_atom_site_fract_x
_atom_site_fract_y
_atom_site_fract_z
O1	O	1.655978	0.129347	-0.120886
O2	O	2.155978	0.629347	0.379114
O3	O	1.292710	0.141728	-0.120892
O4	O	1.792710	0.641728	0.379108
O5	O	1.483976	0.001349	-0.120876
O6	O	1.983976	0.501349	0.379124
O7	O	1.464713	0.269727	-0.120902
O8	O	1.964713	0.769727	0.379098
O9	O	1.483960	0.001348	0.120909
O10	O	1.983960	0.501348	0.620909
O11	O	1.292695	0.141728	0.120893
O12	O	1.792695	0.641728	0.620893
O13	O	1.655963	0.129347	0.120899
O14	O	2.155963	0.629347	0.620899
Cu15	Cu	1.474328	0.135538	0.142973
Cu16	Cu	1.974328	0.635538	0.642973
Cu17	Cu	1.474345	0.135538	-0.142966
Cu18	Cu	1.974345	0.635538	0.357034
O19	O	1.464697	0.269727	0.120883
O20	O	1.964697	0.769727	0.620883
C21	C	1.246211	0.140827	0.000000
C22	C	1.746211	0.640827	0.500000
C23	C	1.107682	0.138132	-0.000001
C24	C	1.607682	0.638132	0.499999
C25	C	1.031965	0.216681	-0.000010
C26	C	1.531965	0.716681	0.499990
C27	C	0.888788	0.213896	-0.000012
C28	C	1.388788	0.713896	0.499988
C29	C	1.483070	-0.033016	0.000017
C30	C	1.983070	0.466984	0.500017
C31	C	1.480380	-0.135411	0.000018
C32	C	1.980380	0.364589	0.500018
C33	C	1.470476	-0.510357	-0.000020
C34	C	1.970476	-0.010357	0.499980
C35	C	1.473227	-0.406035	-0.000009
C36	C	1.973227	0.093965	0.499991
C37	C	1.475428	-0.322887	0.000000
C38	C	1.975428	0.177113	0.500000
C39	C	1.478179	-0.218559	0.000008
C40	C	1.978179	0.281441	0.500008
C41	C	1.702462	0.130248	0.000003
C42	C	2.202462	0.630248	0.500003
C43	C	1.840991	0.132944	-0.000005
C44	C	2.340991	0.632944	0.499995
C45	C	1.465603	0.304091	-0.000013
C46	C	1.965603	0.804091	0.499987
C47	C	1.468293	0.406486	-0.000024
C48	C	1.968293	0.906486	0.499976
N49	N	1.474324	0.135537	0.344087
N50	N	1.974324	0.635537	0.844087
N51	N	1.474359	0.135532	-0.344080
N52	N	1.974359	0.635532	0.155920
C53	C	1.554633	0.076335	0.416290
C54	C	2.054633	0.576335	0.916290
C55	C	1.554653	0.076332	0.583703
C56	C	2.054653	0.576332	1.083703
H57	H	1.073139	0.285991	-0.000009
H58	H	1.573139	0.785991	0.499991
O59	O	1.392450	0.196133	0.581931
O60	O	1.892450	0.696133	1.081931
C61	C	1.413236	0.287517	0.619037
C62	C	1.913236	0.787517	1.119037
H63	H	1.513141	0.288460	0.660952
H64	H	2.013141	0.788460	1.160952
H65	H	1.344152	0.314322	0.707287
H66	H	1.844152	0.814322	1.207287
C67	C	1.271605	0.348697	0.432258
C68	C	1.771605	0.848697	0.932258
C69	C	1.394313	0.349857	0.483727
C70	C	1.894313	0.849857	0.983727
H71	H	1.259927	0.387154	0.348796
H72	H	1.759927	0.887154	0.848796
H73	H	1.257596	0.287130	0.407262
H74	H	1.757596	0.787130	0.907262
H75	H	1.214049	0.371033	0.505812
H76	H	1.714049	0.871033	1.005812
H77	H	1.451866	0.327510	0.410180
H78	H	1.951866	0.827510	0.910180
H79	H	1.408330	0.411422	0.508708
H80	H	1.908330	0.911422	1.008708
H81	H	1.066508	0.068822	-0.000032
H82	H	1.566508	0.568822	0.499968
O83	O	0.811002	0.294037	0.000040
O84	O	1.311002	0.794037	0.500040
C85	C	0.685364	0.273416	-0.000001
C86	C	1.185364	0.773416	0.499999
H87	H	0.680330	0.200933	0.045782
H88	H	1.180330	0.700933	0.545782
H89	H	0.647742	0.276639	-0.116000
H90	H	1.147742	0.776639	0.384000
C91	C	0.611931	0.433474	0.038574
C92	C	1.111931	0.933474	0.538574
C93	C	0.605746	0.344452	0.094818
C94	C	1.105746	0.844452	0.594818
H95	H	0.562817	0.477295	0.097056
H96	H	1.062817	0.977295	0.597056
H97	H	0.696575	0.447368	0.038597
H98	H	1.196575	0.947368	0.538597
H99	H	0.580582	0.436147	-0.058091
H100	H	1.080582	0.936147	0.441909
H101	H	0.637110	0.341777	0.191473
H102	H	1.137110	0.841777	0.691473
H103	H	0.521105	0.330559	0.094814
H104	H	1.021105	0.830559	0.594814
H105	H	1.623371	0.025649	0.354170
H106	H	2.123371	0.525649	0.854170
H107	H	1.623414	0.025651	0.645795
H108	H	2.123414	0.525651	1.145795
H109	H	0.906045	0.065696	-0.000006
H110	H	1.406045	0.565696	0.499994
O111	O	1.392258	0.195876	0.418347
O112	O	1.892258	0.695876	0.918347
C113	C	1.315023	0.146082	0.506383
C114	C	1.815023	0.646082	1.006383
H115	H	1.364326	0.074155	0.529028
H116	H	1.864326	0.574155	1.029028
H117	H	1.222683	0.139424	0.447832
H118	H	1.722683	0.639424	0.947832
C119	C	1.228235	0.286189	0.623236
C120	C	1.728235	0.786189	1.123236
C121	C	1.288795	0.197849	0.651060
C122	C	1.788795	0.697849	1.151060
H123	H	1.212051	0.318122	0.712478
H124	H	1.712051	0.818122	1.212478
H125	H	1.280266	0.319737	0.563922
H126	H	1.780266	0.819737	1.063922
H127	H	1.151292	0.280627	0.574441
H128	H	1.651292	0.780627	1.074441
H129	H	1.365743	0.203411	0.699838
H130	H	1.865743	0.703411	1.199838
H131	H	1.236776	0.164302	0.710387
H132	H	1.736776	0.664302	1.210387
