data_functionalizedCrystal
_audit_creation_method	'MofGen! by Chris Wilmer'
_symmetry_space_group_name_H-M	'P1'
_symmetry_Int_Tables_number	1
_symmetry_cell_setting	triclinic
loop_
_symmetry_equiv_pos_as_xyz
  x,y,z
_cell_length_a	10.654550
_cell_length_b	13.596369
_cell_length_c	10.654551
_cell_angle_alpha	90.003147
_cell_angle_beta	84.485132
_cell_angle_gamma	90.008835
loop_
_atom_site_label
_atom_site_type_symbol
_atom_site_fract_x
_atom_site_fract_y
_atom_site_fract_z
O1	O	1.667843	0.081866	0.176401
O2	O	2.167843	0.581866	0.676401
O3	O	1.302365	0.081849	0.193207
O4	O	1.802365	0.581849	0.693207
O5	O	1.493506	0.081858	0.002065
O6	O	1.993506	0.581858	0.502065
O7	O	1.476702	0.081857	0.367543
O8	O	1.976702	0.581857	0.867543
O9	O	1.493487	-0.081725	0.002054
O10	O	1.993487	0.418275	0.502054
O11	O	1.302346	-0.081734	0.193196
O12	O	1.802346	0.418266	0.693196
O13	O	1.667824	-0.081717	0.176390
O14	O	2.167824	0.418283	0.676390
Zn15	Zn	1.485082	-0.107698	0.184792
Zn16	Zn	1.985082	0.392302	0.684792
Zn17	Zn	1.485107	0.107830	0.184805
Zn18	Zn	1.985107	0.607830	0.684805
O19	O	1.476682	-0.081726	0.367533
O20	O	1.976682	0.418274	0.867533
C21	C	1.255557	0.000056	0.191968
C22	C	1.755557	0.500056	0.691968
C23	C	1.116114	0.000050	0.188276
C24	C	1.616114	0.500050	0.688276
N25	N	1.485074	-0.254790	0.184782
N26	N	1.985074	0.245210	0.684782
C27	C	1.036629	0.000064	0.300817
C28	C	1.536629	0.500064	0.800817
C29	C	0.905608	0.000081	0.297341
C30	C	1.405608	0.500081	0.797341
C31	C	0.933570	0.000074	0.068771
C32	C	1.433570	0.500074	0.568771
C33	C	1.064589	0.000050	0.072249
C34	C	1.564589	0.500050	0.572249
C35	C	1.020484	0.000072	0.432780
C36	C	1.520484	0.500072	0.932780
C37	C	0.889463	0.000089	0.429304
C38	C	1.389463	0.500089	0.929304
C39	C	1.485105	-0.656081	0.184807
C40	C	1.985105	-0.156081	0.684807
C41	C	1.485093	-0.544429	0.184804
C42	C	1.985093	-0.044429	0.684804
C43	C	1.485090	-0.455439	0.184795
C44	C	1.985090	0.044561	0.684795
C45	C	1.485076	-0.343780	0.184791
C46	C	1.985076	0.156220	0.684791
C47	C	1.714632	0.000078	0.177629
C48	C	2.214632	0.500078	0.677629
C49	C	1.854075	0.000091	0.181321
C50	C	2.354075	0.500091	0.681321
C51	C	1.492263	0.000069	-0.044739
C52	C	1.992263	0.500069	0.455261
C53	C	1.488570	0.000075	-0.184182
C54	C	1.988570	0.500075	0.315818
N55	N	1.485125	0.254922	0.184806
N56	N	1.985125	0.754922	0.684806
C57	C	1.486848	0.089243	-0.249688
C58	C	1.986848	0.589243	0.250312
C59	C	1.483368	0.089238	-0.380708
C60	C	1.983368	0.589238	0.119292
C61	C	1.483337	-0.089109	-0.380705
C62	C	1.983337	0.410891	0.119295
C63	C	1.486808	-0.089103	-0.249686
C64	C	1.986808	0.410897	0.250314
C65	C	1.486872	0.192210	-0.249692
C66	C	1.986872	0.692210	0.250308
C67	C	1.483392	0.192205	-0.380712
C68	C	1.983392	0.692205	0.119288
C69	C	1.477926	0.000065	0.414336
C70	C	1.977926	0.500065	0.914336
C71	C	1.481619	0.000065	0.553779
C72	C	1.981619	0.500065	1.053779
H73	H	0.891602	0.000089	-0.025694
H74	H	1.391602	0.500089	0.474306
H75	H	1.049807	-0.068392	0.484386
H76	H	1.549807	0.431608	0.984386
H77	H	0.847738	0.068553	0.479029
H78	H	1.347738	0.568553	0.979029
C79	C	1.488677	-0.187184	-0.177624
C80	C	1.988677	0.312816	0.322376
H81	H	1.490982	-0.174411	-0.090210
H82	H	1.990982	0.325589	0.409790
H83	H	1.561202	-0.223836	-0.208030
H84	H	2.061202	0.276164	0.291970
H85	H	1.414975	-0.223811	-0.190159
H86	H	1.914975	0.276189	0.309841
C87	C	1.068674	0.095459	0.489588
C88	C	1.568674	0.595459	0.989588
H89	H	1.157696	0.092189	0.490060
H90	H	1.657696	0.592189	0.990060
H91	H	1.030866	0.102992	0.573473
H92	H	1.530866	0.602992	1.073473
H93	H	1.047207	0.150044	0.440263
H94	H	1.547207	0.650044	0.940263
C95	C	0.827743	-0.095311	0.483172
C96	C	1.327743	0.404689	0.983172
H97	H	0.890920	-0.137805	0.509574
H98	H	1.390920	0.362195	1.009574
H99	H	0.785258	-0.127009	0.419985
H100	H	1.285258	0.372991	0.919985
H101	H	0.768985	-0.079970	0.553209
H102	H	1.268985	0.420030	1.053209
C103	C	1.610628	0.235342	-0.209732
C104	C	2.110628	0.735342	0.290268
H105	H	1.608821	0.233857	-0.120430
H106	H	2.108821	0.733857	0.379570
H107	H	1.619620	0.301364	-0.238358
H108	H	2.119620	0.801364	0.261642
H109	H	1.679804	0.197385	-0.245743
H110	H	2.179804	0.697385	0.254257
H111	H	1.481900	-0.161715	-0.434055
H112	H	1.981900	0.338285	0.065945
C113	C	1.369635	0.245609	-0.187157
C114	C	1.869635	0.745609	0.312843
H115	H	1.319056	0.267558	-0.250348
H116	H	1.819056	0.767558	0.249652
H117	H	1.395319	0.300505	-0.140749
H118	H	1.895319	0.800505	0.359251
H119	H	1.322189	0.201693	-0.131807
H120	H	1.822189	0.701693	0.368193
H121	H	1.391799	0.224160	-0.410277
H122	H	1.891799	0.724160	0.089723
C123	C	1.600645	0.245602	-0.443260
C124	C	2.100645	0.745602	0.056740
H125	H	1.598270	0.245605	-0.532168
H126	H	2.098270	0.745605	-0.032168
H127	H	1.674542	0.212674	-0.422582
H128	H	2.174542	0.712674	0.077418
H129	H	1.601440	0.311481	-0.413631
H130	H	2.101440	0.811481	0.086369
C131	C	1.152019	0.000024	-0.051546
C132	C	1.652019	0.500024	0.448454
H133	H	1.102564	0.000036	-0.121141
H134	H	1.602564	0.500036	0.378859
H135	H	1.203681	-0.057031	-0.054935
H136	H	1.703681	0.442969	0.445065
H137	H	1.203738	0.057066	-0.054946
H138	H	1.703738	0.557066	0.445054
