data_functionalizedCrystal
_audit_creation_method	'MofGen! by Chris Wilmer'
_symmetry_space_group_name_H-M	'P1'
_symmetry_Int_Tables_number	1
_symmetry_cell_setting	triclinic
loop_
_symmetry_equiv_pos_as_xyz
  x,y,z
_cell_length_a	14.853567
_cell_length_b	10.654550
_cell_length_c	9.130313
_cell_angle_alpha	89.993688
_cell_angle_beta	89.998392
_cell_angle_gamma	84.059931
loop_
_atom_site_label
_atom_site_type_symbol
_atom_site_fract_x
_atom_site_fract_y
_atom_site_fract_z
O1	O	-1.197242	-0.163964	0.121698
O2	O	-0.934887	-0.183496	0.121723
O3	O	-1.072097	0.009072	0.121701
O4	O	-1.060033	-0.356532	0.121720
O5	O	-1.072085	0.009084	-0.121898
O6	O	-0.934876	-0.183483	-0.121876
O7	O	-1.197231	-0.163952	-0.121901
Cu8	Cu	-1.066052	-0.173716	-0.144131
Cu9	Cu	-1.066066	-0.173731	0.143953
O10	O	-1.060021	-0.356520	-0.121879
C11	C	-0.901288	-0.182605	-0.000073
C12	C	-0.801190	-0.179953	-0.000064
C13	C	-1.071205	0.055867	-0.000098
C14	C	-1.068555	0.195283	-0.000095
C15	C	-1.230830	-0.164843	-0.000101
C16	C	-1.330928	-0.167495	-0.000101
C17	C	-0.387984	-0.054353	-0.000103
C18	C	-0.367928	-0.283127	-0.000090
C19	C	-0.461975	-0.285621	-0.000085
C20	C	-0.519031	-0.172479	-0.000087
C21	C	-0.482040	-0.056843	-0.000094
C22	C	-0.498973	-0.401255	-0.000063
C23	C	-0.593026	-0.403753	-0.000057
C24	C	-0.650083	-0.290609	-0.000069
C25	C	-0.613087	-0.174969	-0.000078
C26	C	-0.670143	-0.061826	-0.000080
C27	C	-0.633149	0.053816	-0.000099
C28	C	-0.539098	0.056301	-0.000107
C29	C	-0.744134	-0.293095	-0.000062
C30	C	-0.764199	-0.064317	-0.000071
C31	C	-1.060913	-0.403314	-0.000077
C32	C	-1.063563	-0.542730	-0.000070
N33	N	-1.066049	-0.173705	-0.346754
C34	C	-1.149342	0.275608	-0.000103
C35	C	-1.146846	0.406602	-0.000085
C36	C	-0.982770	0.376935	-0.000058
C37	C	-0.985267	0.245942	-0.000066
C38	C	-1.010920	-0.097418	-0.576799
C39	C	-1.010908	-0.097401	-0.423462
C40	C	-1.121211	-0.250023	-0.423390
C41	C	-1.121227	-0.250032	-0.576724
N42	N	-1.066076	-0.173732	0.346576
H43	H	-0.679616	0.145936	-0.000091
N44	N	-1.233979	0.493243	-0.000110
H45	H	-1.236612	0.548240	0.090196
H46	H	-1.287067	0.441183	-0.000188
N47	N	-0.306393	-0.405153	-0.000078
H48	H	-0.318377	-0.455594	0.090231
H49	H	-0.241226	-0.385921	-0.000133
N50	N	-0.499194	0.181017	-0.000098
H51	H	-0.549608	0.252317	-0.000099
H52	H	-0.460606	0.187041	-0.090401
N53	N	-0.437438	-0.523280	-0.000045
H54	H	-0.372245	-0.504153	-0.000061
H55	H	-0.449500	-0.573668	-0.090341
H56	H	-1.217161	0.234365	-0.000124
N57	N	-0.348091	0.070371	-0.000144
H58	H	-0.279853	0.054788	-0.000158
H59	H	-0.368905	0.119890	0.090157
N60	N	-0.951419	-0.015084	-0.340824
H61	H	-0.885984	-0.039694	-0.367520
H62	H	-0.959853	-0.026679	-0.232074
N63	N	-0.632924	-0.528473	-0.000026
H64	H	-0.582507	-0.599768	-0.000021
H65	H	-0.671511	-0.534492	-0.090327
H66	H	-0.966013	-0.035289	-0.639244
H67	H	-0.774251	-0.387249	-0.000049
N68	N	-0.892941	0.431575	-0.000033
H69	H	-0.903617	0.526748	-0.000034
H70	H	-0.857549	0.402209	-0.090334
H71	H	-1.166112	-0.312145	-0.360922
N72	N	-0.898128	0.159294	-0.000048
H73	H	-0.844987	0.211261	-0.000038
H74	H	-0.895585	0.104306	-0.090353
N75	N	-1.180744	-0.332312	-0.659384
H76	H	-1.215681	-0.380644	-0.587530
H77	H	-1.141844	-0.393614	-0.723023
H78	H	-0.810649	0.027819	-0.000079
