data_functionalizedCrystal
_audit_creation_method	'MofGen! by Chris Wilmer'
_symmetry_space_group_name_H-M	'P1'
_symmetry_Int_Tables_number	1
_symmetry_cell_setting	triclinic
loop_
_symmetry_equiv_pos_as_xyz
  x,y,z
_cell_length_a	18.050589
_cell_length_b	17.640112
_cell_length_c	17.640968
_cell_angle_alpha	87.860920
_cell_angle_beta	78.773118
_cell_angle_gamma	78.747693
loop_
_atom_site_label
_atom_site_type_symbol
_atom_site_fract_x
_atom_site_fract_y
_atom_site_fract_z
Zn1	Zn	-0.021338	-1.247776	-0.195082
Zn2	Zn	0.478662	-0.747776	0.304918
Zn3	Zn	-0.174558	-1.221993	-0.068112
Zn4	Zn	0.325442	-0.721993	0.431888
Zn5	Zn	-0.069647	-1.095104	-0.093732
Zn6	Zn	0.430353	-0.595104	0.406268
Zn7	Zn	-0.164782	-1.120735	-0.220693
Zn8	Zn	0.335218	-0.620735	0.279307
O9	O	-0.107581	-1.171402	-0.144405
O10	O	0.392419	-0.671402	0.355595
O11	O	-0.025537	-1.350627	-0.156798
O12	O	0.474463	-0.850627	0.343202
O13	O	-0.184950	-1.183644	0.034761
O14	O	0.315050	-0.683644	0.534761
O15	O	0.040699	-1.115420	-0.107180
O16	O	0.540699	-0.615420	0.392820
O17	O	-0.138107	-1.331684	-0.063514
O18	O	0.361893	-0.831684	0.436486
O19	O	0.076191	-1.227588	-0.181641
O20	O	0.576191	-0.727588	0.318359
O21	O	-0.107872	-1.090420	0.015938
O22	O	0.392128	-0.590420	0.515938
O23	O	-0.098393	-0.992234	-0.132014
O24	O	0.401607	-0.492234	0.367986
O25	O	-0.121445	-1.159104	-0.323567
O26	O	0.378555	-0.659104	0.176433
O27	O	-0.168289	-1.011064	-0.225292
O28	O	0.331711	-0.511064	0.274708
O29	O	-0.016058	-1.252441	-0.304750
O30	O	0.483942	-0.752441	0.195250
O31	O	-0.277199	-1.208498	-0.088349
O32	O	0.222801	-0.708498	0.411651
O33	O	-0.270016	-1.134104	-0.200449
O34	O	0.229984	-0.634104	0.299551
C35	C	-0.137523	-0.974094	-0.184213
C36	C	0.362477	-0.474094	0.315787
C37	C	-0.150346	-0.889689	-0.201261
C38	C	0.349654	-0.389689	0.298739
C39	C	-0.300550	-1.171308	-0.144411
C40	C	0.199450	-0.671308	0.355589
C41	C	-0.383087	-1.171342	-0.144424
C42	C	0.116913	-0.671342	0.355576
C43	C	-0.062272	-1.211508	-0.342484
C44	C	0.437728	-0.711508	0.157516
C45	C	-0.042964	-1.228598	-0.426893
C46	C	0.457036	-0.728598	0.073107
C47	C	-0.578655	-1.130933	-0.205357
C48	C	-0.078655	-0.630933	0.294643
C49	C	-0.646737	-1.098407	-0.139793
C50	C	-0.146737	-0.598407	0.360207
C51	C	-0.534204	-1.171419	-0.144419
C52	C	-0.034204	-0.671419	0.355581
C53	C	-0.613197	-1.203984	-0.209983
C54	C	-0.113197	-0.703984	0.290017
C55	C	-0.680174	-1.171493	-0.144421
C56	C	-0.180174	-0.671493	0.355579
C57	C	-0.601212	-1.138849	-0.078826
C58	C	-0.101212	-0.638849	0.421174
C59	C	-0.567652	-1.244468	-0.149057
C60	C	-0.067652	-0.744468	0.350943
C61	C	-0.635718	-1.211958	-0.083440
C62	C	-0.135718	-0.711958	0.416560
C63	C	-0.450114	-1.171375	-0.144420
C64	C	0.049886	-0.671375	0.355580
C65	C	-0.764264	-1.171536	-0.144412
C66	C	-0.264264	-0.671536	0.355588
C67	C	0.086148	-1.171521	-0.144411
C68	C	0.586148	-0.671521	0.355589
C69	C	0.168704	-1.171572	-0.144414
C70	C	0.668704	-0.671572	0.355586
C71	C	-0.077524	-1.369481	-0.104442
C72	C	0.422476	-0.869481	0.395558
C73	C	-0.064715	-1.453890	-0.087412
C74	C	0.435285	-0.953890	0.412588
C75	C	-0.010153	-0.563038	-0.014899
C76	C	0.489847	-0.063038	0.485101
C77	C	-0.022215	-0.483728	-0.030928
C78	C	0.477785	0.016272	0.469072
C79	C	-0.095166	-0.503357	-0.127891
C80	C	0.404834	-0.003357	0.372109
C81	C	-0.083107	-0.582671	-0.111873
C82	C	0.416893	-0.082671	0.388127
C83	C	-0.040601	-0.612505	-0.055375
C84	C	0.459399	-0.112505	0.444625
C85	C	-0.113555	-0.632138	-0.152349
C86	C	0.386445	-0.132138	0.347651
C87	C	-0.101501	-0.711444	-0.136328
C88	C	0.398499	-0.211444	0.363672
C89	C	-0.058998	-0.741283	-0.079832
C90	C	0.441002	-0.241283	0.420168
C91	C	-0.028547	-0.691811	-0.039354
C92	C	0.471453	-0.191811	0.460646
C93	C	-0.156066	-0.602302	-0.208842
C94	C	0.343934	-0.102302	0.291158
C95	C	-0.186514	-0.651768	-0.249318
C96	C	0.313486	-0.151768	0.250682
C97	C	-0.174455	-0.731077	-0.233302
C98	C	0.325545	-0.231077	0.266698
C99	C	-0.131952	-0.760916	-0.176805
C100	C	0.368048	-0.260916	0.323195
C101	C	-0.204906	-0.780549	-0.273779
C102	C	0.295094	-0.280549	0.226221
C103	C	-0.192852	-0.859855	-0.257758
C104	C	0.307148	-0.359855	0.242242
C105	C	-0.119898	-0.840222	-0.160785
C106	C	0.380102	-0.340222	0.339215
C107	C	-0.253814	-1.041859	-0.753484
C108	C	0.246186	-0.541859	-0.253484
C109	C	-0.235659	-1.057934	-0.832796
C110	C	0.264341	-0.557934	-0.332796
C111	C	-0.125928	-1.155117	-0.813194
C112	C	0.374072	-0.655117	-0.313194
C113	C	-0.144071	-1.139048	-0.733879
C114	C	0.355929	-0.639048	-0.233879
C115	C	-0.208016	-1.082418	-0.704030
C116	C	0.291984	-0.582418	-0.204030
C117	C	-0.098273	-1.179607	-0.684425
C118	C	0.401727	-0.679607	-0.184425
C119	C	-0.116418	-1.163541	-0.605116
C120	C	0.383582	-0.663541	-0.105116
C121	C	-0.180360	-1.106916	-0.575261
C122	C	0.319640	-0.606916	-0.075261
C123	C	-0.226160	-1.066352	-0.624721
C124	C	0.273840	-0.566352	-0.124721
C125	C	-0.034333	-1.236240	-0.714274
C126	C	0.465667	-0.736240	-0.214274
C127	C	0.011465	-1.276799	-0.664820
C128	C	0.511465	-0.776799	-0.164820
C129	C	-0.006676	-1.260730	-0.585511
C130	C	0.493324	-0.760730	-0.085511
C131	C	-0.070618	-1.204105	-0.555656
C132	C	0.429382	-0.704105	-0.055656
C133	C	0.039124	-1.301293	-0.536051
C134	C	0.539124	-0.801293	-0.036051
C135	C	0.020980	-1.285228	-0.456742
C136	C	0.520980	-0.785228	0.043258
C137	C	-0.088763	-1.188039	-0.476347
C138	C	0.411237	-0.688039	0.023653
C139	C	-0.152654	-1.131497	0.052913
C140	C	0.347346	-0.631497	0.552913
C141	C	-0.171730	-1.114553	0.137352
C142	C	0.328270	-0.614553	0.637352
H143	H	-0.553748	-1.096620	-0.256842
H144	H	-0.053748	-0.596620	0.243158
H145	H	-0.305868	-0.995727	-0.729184
H146	H	0.194132	-0.495727	-0.229184
H147	H	-0.195135	-1.093839	-0.510682
H148	H	0.304865	-0.593839	-0.010682
H149	H	0.024473	-0.587332	0.031096
H150	H	0.524473	-0.087332	0.531096
Br151	Br	-0.039153	-1.231972	-0.853709
Br152	Br	0.460847	-0.731972	-0.353709
H153	H	-0.681002	-1.036667	-0.135877
H154	H	-0.181002	-0.536667	0.364123
Br155	Br	-0.312935	-0.989488	-0.584207
Br156	Br	0.187065	-0.489488	-0.084207
Br157	Br	-0.591581	-1.092877	0.013594
Br158	Br	-0.091581	-0.592877	0.513594
Br159	Br	-0.677050	-1.269064	0.002529
Br160	Br	-0.177050	-0.769064	0.502529
Br161	Br	0.083130	-1.340277	-0.389620
Br162	Br	0.583130	-0.840277	0.110380
Br163	Br	-0.623013	-1.249839	-0.302394
Br164	Br	-0.123013	-0.749839	0.197606
H165	H	-0.239521	-0.756245	-0.319773
H166	H	0.260479	-0.256245	0.180227
Br167	Br	0.098241	-1.353654	-0.705336
Br168	Br	0.598241	-0.853654	-0.205336
Br169	Br	0.125893	-1.378155	-0.576567
Br170	Br	0.625893	-0.878155	-0.076567
H171	H	-0.533383	-1.306201	-0.153009
H172	H	-0.033383	-0.806201	0.346991
H173	H	-0.165879	-0.537725	-0.221884
H174	H	0.334121	-0.037725	0.278116
H175	H	-0.085271	-0.864516	-0.114790
H176	H	0.414729	-0.364516	0.385210
Br177	Br	-0.042644	-0.848913	-0.058081
Br178	Br	0.457356	-0.348913	0.441919
H179	H	0.006080	-0.716105	0.006640
H180	H	0.506080	-0.216105	0.506640
H181	H	0.002589	-0.443455	0.002031
H182	H	0.502589	0.056545	0.502031
H183	H	-0.129777	-0.479055	-0.173889
H184	H	0.370223	0.020945	0.326111
H185	H	-0.221125	-0.627466	-0.295316
H186	H	0.278875	-0.127466	0.204684
Br187	Br	-0.297821	-1.002882	-0.899912
Br188	Br	0.202179	-0.502882	-0.399912
Br189	Br	-0.234179	-0.926993	-0.312686
Br190	Br	0.265821	-0.426993	0.187314
Br191	Br	-0.175538	-1.111175	-0.435833
Br192	Br	0.324462	-0.611175	0.064167
H193	H	-0.019563	-1.249320	-0.778853
H194	H	0.480437	-0.749320	-0.278853
