data_functionalizedCrystal
_audit_creation_method	'MofGen! by Chris Wilmer'
_symmetry_space_group_name_H-M	'P1'
_symmetry_Int_Tables_number	1
_symmetry_cell_setting	triclinic
loop_
_symmetry_equiv_pos_as_xyz
  x,y,z
_cell_length_a	19.077105
_cell_length_b	14.908520
_cell_length_c	19.077314
_cell_angle_alpha	90.840876
_cell_angle_beta	89.892247
_cell_angle_gamma	91.150228
loop_
_atom_site_label
_atom_site_type_symbol
_atom_site_fract_x
_atom_site_fract_y
_atom_site_fract_z
Zn1	Zn	1.040090	-0.389295	-0.457212
Zn2	Zn	1.373423	-0.055962	-0.123878
Zn3	Zn	1.706756	0.277371	0.209455
Zn4	Zn	1.037418	-0.545725	-0.346448
Zn5	Zn	1.370751	-0.212392	-0.013115
Zn6	Zn	1.704084	0.120942	0.320219
Zn7	Zn	0.927282	-0.389791	-0.335024
Zn8	Zn	1.260615	-0.056458	-0.001691
Zn9	Zn	1.593948	0.276876	0.331642
Zn10	Zn	0.915807	-0.533627	-0.458681
Zn11	Zn	1.249141	-0.200294	-0.125348
Zn12	Zn	1.582474	0.133040	0.207986
O13	O	0.980149	-0.464610	-0.399341
O14	O	1.313482	-0.131276	-0.066008
O15	O	1.646816	0.202057	0.267325
O16	O	1.137840	-0.414902	-0.446685
O17	O	1.471174	-0.081568	-0.113351
O18	O	1.804507	0.251765	0.219982
O19	O	1.026492	-0.530310	-0.246827
O20	O	1.359825	-0.196977	0.086506
O21	O	1.693159	0.136356	0.419840
O22	O	0.948166	-0.264063	-0.345837
O23	O	1.281500	0.069270	-0.012504
O24	O	1.614833	0.402603	0.320830
O25	O	1.135877	-0.529830	-0.365307
O26	O	1.469211	-0.196496	-0.031974
O27	O	1.802544	0.136837	0.301360
O28	O	1.031046	-0.263699	-0.435607
O29	O	1.364379	0.069634	-0.102274
O30	O	1.697712	0.402967	0.231059
O31	O	0.945575	-0.415747	-0.238434
O32	O	1.278909	-0.082413	0.094899
O33	O	1.612242	0.250920	0.428233
O34	O	0.827655	-0.404016	-0.347262
O35	O	1.160988	-0.070682	-0.013928
O36	O	1.494321	0.262651	0.319405
O37	O	0.928610	-0.509211	-0.556592
O38	O	1.261943	-0.175877	-0.223258
O39	O	1.595276	0.157456	0.110075
O40	O	0.819224	-0.509691	-0.438112
O41	O	1.152558	-0.176358	-0.104778
O42	O	1.485891	0.156975	0.228555
O43	O	1.019919	-0.403171	-0.555512
O44	O	1.353253	-0.069838	-0.222179
O45	O	1.686586	0.263496	0.111155
O46	O	1.015366	-0.669782	-0.366732
O47	O	1.348699	-0.336449	-0.033399
O48	O	1.682032	-0.003115	0.299935
O49	O	0.926019	-0.660894	-0.449189
O50	O	1.259352	-0.327561	-0.115856
O51	O	1.592686	0.005773	0.217478
C52	C	0.798002	-0.455595	-0.391607
C53	C	1.131335	-0.122262	-0.058274
C54	C	1.464669	0.211072	0.275060
C55	C	0.720077	-0.451759	-0.388316
C56	C	1.053410	-0.118426	-0.054982
C57	C	1.386744	0.214907	0.278351
C58	C	0.679095	-0.505067	-0.434003
C59	C	1.012429	-0.171734	-0.100670
C60	C	1.345762	0.161599	0.232663
C61	C	0.605877	-0.501451	-0.430914
C62	C	0.939210	-0.168118	-0.097580
C63	C	1.272544	0.165215	0.235753
C64	C	0.573641	-0.444531	-0.382133
C65	C	0.906975	-0.111198	-0.048799
C66	C	1.240308	0.222135	0.284534
C67	C	0.614628	-0.391217	-0.336443
C68	C	0.947962	-0.057884	-0.003109
C69	C	1.281295	0.275449	0.330224
C70	C	0.687846	-0.394829	-0.339536
C71	C	1.021179	-0.061496	-0.006203
C72	C	1.354512	0.271837	0.327130
C73	C	0.355135	-0.427815	-0.367819
C74	C	0.688468	-0.094481	-0.034486
C75	C	1.021802	0.238852	0.298848
C76	C	0.281912	-0.424209	-0.364727
C77	C	0.615246	-0.090875	-0.031394
C78	C	0.948579	0.242458	0.301939
C79	C	0.273166	-0.534442	-0.459200
C80	C	0.606499	-0.201108	-0.125866
C81	C	0.939833	0.132225	0.207467
C82	C	0.346385	-0.538053	-0.462286
C83	C	0.679718	-0.204719	-0.128953
C84	C	1.013052	0.128614	0.204381
C85	C	0.387365	-0.484735	-0.416599
C86	C	0.720699	-0.151402	-0.083265
C87	C	1.054032	0.181931	0.250068
N88	N	0.498801	-0.440836	-0.378972
N89	N	0.832134	-0.107503	-0.045639
N90	N	1.165467	0.225831	0.287695
N91	N	0.462205	-0.488427	-0.419763
N92	N	0.795538	-0.155093	-0.086430
N93	N	1.128872	0.178240	0.246903
C94	C	0.969176	-0.697921	-0.409376
C95	C	1.302509	-0.364588	-0.076042
C96	C	1.635842	-0.031254	0.257291
C97	C	0.964544	-0.797734	-0.413694
C98	C	1.297878	-0.464401	-0.080361
C99	C	1.631211	-0.131068	0.252972
C100	C	1.048968	-0.994489	-0.336024
C101	C	1.382301	-0.661156	-0.002691
C102	C	1.715635	-0.327823	0.330643
C103	C	1.044619	-1.088273	-0.340080
C104	C	1.377952	-0.754940	-0.006746
C105	C	1.711286	-0.421607	0.326587
C106	C	0.951501	-1.079088	-0.425865
C107	C	1.284834	-0.745754	-0.092532
C108	C	1.618168	-0.412421	0.240802
C109	C	0.955850	-0.985304	-0.421809
C110	C	1.289183	-0.651971	-0.088476
C111	C	1.622517	-0.318637	0.244857
C112	C	1.004584	-0.943008	-0.376886
C113	C	1.337918	-0.609675	-0.043553
C114	C	1.671251	-0.276341	0.289780
C115	C	1.008930	-0.849223	-0.372827
C116	C	1.342263	-0.515889	-0.039494
C117	C	1.675596	-0.182556	0.293839
C118	C	0.915816	-0.840039	-0.458616
C119	C	1.249149	-0.506705	-0.125283
C120	C	1.582482	-0.173372	0.208051
C121	C	0.911467	-0.933823	-0.462672
C122	C	1.244800	-0.600489	-0.129339
C123	C	1.578133	-0.267156	0.203995
C124	C	1.163008	-0.473660	-0.407106
C125	C	1.496341	-0.140327	-0.073773
C126	C	1.829674	0.193007	0.259560
C127	C	1.240931	-0.477517	-0.410415
C128	C	1.574264	-0.144183	-0.077082
C129	C	1.907598	0.189150	0.256251
C130	C	0.973283	-0.454786	-0.582201
C131	C	1.306616	-0.121453	-0.248867
C132	C	1.639949	0.211881	0.084466
C133	C	0.970357	-0.450600	-0.660125
C134	C	1.303690	-0.117266	-0.326791
C135	C	1.637023	0.216067	0.006542
C136	C	0.991184	-0.230387	-0.389284
C137	C	1.324517	0.102946	-0.055951
C138	C	1.657851	0.436279	0.277383
C139	C	0.995886	-0.130576	-0.384998
C140	C	1.329220	0.202757	-0.051665
C141	C	1.662553	0.536091	0.281669
C142	C	1.011107	-0.508277	-0.701106
C143	C	1.344441	-0.174944	-0.367772
C144	C	1.677774	0.158389	-0.034439
C145	C	1.008359	-0.504333	-0.774323
C146	C	1.341692	-0.170999	-0.440990
C147	C	1.675025	0.162334	-0.107656
C148	C	0.964855	-0.442715	-0.806558
C149	C	1.298188	-0.109381	-0.473225
C150	C	1.631521	0.223952	-0.139891
C151	C	0.924102	-0.385031	-0.765571
C152	C	1.257436	-0.051698	-0.432238
C153	C	1.590769	0.281635	-0.098905
C154	C	0.926855	-0.388972	-0.692355
C155	C	1.260189	-0.055639	-0.359022
C156	C	1.593522	0.277695	-0.025689
C157	C	0.952107	-0.424529	-1.025061
C158	C	1.285440	-0.091196	-0.691728
C159	C	1.618773	0.242137	-0.358394
C160	C	0.949355	-0.420595	-1.098282
C161	C	1.282688	-0.087261	-0.764949
C162	C	1.616022	0.246072	-0.431616
C163	C	1.033613	-0.539896	-1.107029
C164	C	1.366946	-0.206562	-0.773696
C165	C	1.700280	0.126771	-0.440362
C166	C	1.036359	-0.543834	-1.033811
C167	C	1.369692	-0.210501	-0.700478
C168	C	1.703026	0.122832	-0.367145
C169	C	0.995609	-0.486148	-0.992831
C170	C	1.328943	-0.152815	-0.659498
C171	C	1.662276	0.180519	-0.326164
N172	N	0.962042	-0.438684	-0.881398
N173	N	1.295375	-0.105350	-0.548064
N174	N	1.628709	0.227983	-0.214731
N175	N	0.998426	-0.490175	-0.917993
N176	N	1.331759	-0.156842	-0.584659
N177	N	1.665093	0.176491	-0.251326
C178	C	0.987032	-0.474332	-0.217192
C179	C	1.320366	-0.140999	0.116141
C180	C	1.653699	0.192334	0.449475
C181	C	0.990106	-0.478272	-0.139263
C182	C	1.323439	-0.144939	0.194070
C183	C	1.656773	0.188395	0.527403
H184	H	0.721212	-0.351415	-0.302336
H185	H	1.054546	-0.018082	0.030997
H186	H	1.387879	0.315251	0.364331
Cl187	Cl	0.860007	-0.775314	-0.509979
Cl188	Cl	1.193340	-0.441980	-0.176646
Cl189	Cl	1.526674	-0.108647	0.156687
Cl190	Cl	0.554360	-0.568470	-0.488353
Cl191	Cl	0.887693	-0.235137	-0.155019
Cl192	Cl	1.221027	0.098196	0.178314
Cl193	Cl	1.065797	-0.585749	-0.660590
Cl194	Cl	1.399131	-0.252415	-0.327256
Cl195	Cl	1.732464	0.080918	0.006077
H196	H	1.048610	-0.814786	-0.336247
H197	H	1.381943	-0.481453	-0.002914
H198	H	1.715276	-0.148120	0.330420
Cl199	Cl	1.091054	-0.621298	-0.993293
Cl200	Cl	1.424387	-0.287965	-0.659960
Cl201	Cl	1.757721	0.045369	-0.326626
H202	H	0.911829	-1.113541	-0.462444
H203	H	1.245162	-0.780208	-0.129111
H204	H	1.578495	-0.446875	0.204223
H205	H	0.255669	-0.377847	-0.325008
H206	H	0.589002	-0.044514	0.008326
H207	H	0.922336	0.288820	0.341659
H208	H	0.913931	-0.370411	-1.124525
H209	H	1.247264	-0.037078	-0.791192
H210	H	1.580598	0.296256	-0.457858
H211	H	1.066790	-0.586859	-1.140403
H212	H	1.400124	-0.253526	-0.807069
H213	H	1.733457	0.079808	-0.473736
Cl214	Cl	0.719613	-0.576632	-0.495329
Cl215	Cl	1.052946	-0.243299	-0.161995
Cl216	Cl	1.386279	0.090034	0.171338
Cl217	Cl	0.850206	-0.987003	-0.519145
Cl218	Cl	1.183540	-0.653670	-0.185812
Cl219	Cl	1.516873	-0.320337	0.147521
Cl220	Cl	1.059586	-0.576851	-0.825840
Cl221	Cl	1.392919	-0.243518	-0.492506
Cl222	Cl	1.726253	0.089816	-0.159173
Cl223	Cl	1.110222	-0.941314	-0.279540
Cl224	Cl	1.443555	-0.607981	0.053793
Cl225	Cl	1.776888	-0.274648	0.387126
H226	H	0.588377	-0.344868	-0.296727
H227	H	0.921710	-0.011535	0.036606
H228	H	1.255043	0.321799	0.369940
H229	H	1.080762	-1.130186	-0.306807
H230	H	1.414095	-0.796853	0.026527
H231	H	1.747429	-0.463520	0.359860
Cl232	Cl	0.900876	-0.352011	-0.973552
Cl233	Cl	1.234209	-0.018678	-0.640219
Cl234	Cl	1.567542	0.314656	-0.306886
H235	H	0.888683	-0.334857	-0.791823
H236	H	1.222017	-0.001524	-0.458489
H237	H	1.555350	0.331810	-0.125156
Cl238	Cl	0.875626	-0.316457	-0.640836
Cl239	Cl	1.208959	0.016876	-0.307502
Cl240	Cl	1.542293	0.350210	0.025831
H241	H	0.239792	-0.577848	-0.496397
H242	H	0.573125	-0.244515	-0.163063
H243	H	0.906459	0.088818	0.170270
Cl244	Cl	0.406644	-0.360784	-0.310385
Cl245	Cl	0.739977	-0.027451	0.022949
Cl246	Cl	1.073311	0.305883	0.356282
Cl247	Cl	0.386904	-0.609615	-0.523612
Cl248	Cl	0.720237	-0.276281	-0.190279
Cl249	Cl	1.053571	0.057052	0.143055
