data_functionalizedCrystal
_audit_creation_method	'MofGen! by Chris Wilmer'
_symmetry_space_group_name_H-M	'P1'
_symmetry_Int_Tables_number	1
_symmetry_cell_setting	triclinic
loop_
_symmetry_equiv_pos_as_xyz
  x,y,z
_cell_length_a	15.995350
_cell_length_b	15.995350
_cell_length_c	14.472310
_cell_angle_alpha	90.001162
_cell_angle_beta	89.990621
_cell_angle_gamma	83.492375
loop_
_atom_site_label
_atom_site_type_symbol
_atom_site_fract_x
_atom_site_fract_y
_atom_site_fract_z
O1	O	1.110997	0.107921	-0.076758
O2	O	0.867221	0.121248	-0.076776
O3	O	0.995773	-0.007303	-0.076766
O4	O	0.982445	0.236472	-0.076769
O5	O	0.995740	-0.007296	0.076916
O6	O	0.867188	0.121256	0.076906
O7	O	1.110963	0.107928	0.076924
Cu8	Cu	0.989073	0.114593	0.090947
Cu9	Cu	0.989112	0.114584	-0.090800
O10	O	0.982412	0.236480	0.076913
C11	C	0.836010	0.120701	0.000062
C12	C	0.743060	0.119049	0.000055
C13	C	0.995205	-0.038494	0.000073
C14	C	0.993553	-0.131444	0.000068
C15	C	0.405312	0.113117	0.000074
C16	C	0.452746	0.021565	0.000418
C17	C	0.549436	0.023217	0.000065
C18	C	0.572873	0.116060	0.000065
C19	C	0.531804	0.161212	-0.087692
C20	C	0.435169	0.158912	-0.087759
C21	C	0.434792	0.160812	0.087007
C22	C	0.531737	0.160790	0.088160
C23	C	0.667570	0.117727	0.000057
C24	C	0.310614	0.111452	0.000076
C25	C	0.987621	-0.469192	0.000071
C26	C	0.896069	-0.421758	-0.000281
C27	C	0.897721	-0.325068	0.000066
C28	C	0.990564	-0.301631	0.000069
C29	C	1.035701	-0.342705	0.087831
C30	C	1.033401	-0.439340	0.087904
C31	C	1.035330	-0.439707	-0.086861
C32	C	1.035309	-0.342762	-0.088021
C33	C	0.992231	-0.206934	0.000071
C34	C	0.985956	-0.563890	0.000075
C35	C	1.142175	0.108476	0.000083
C36	C	1.235125	0.110127	0.000084
C37	C	0.982980	0.267671	0.000072
C38	C	0.984631	0.360621	0.000071
N39	N	0.989051	0.114598	0.218778
N40	N	0.989140	0.114572	-0.218631
C41	C	0.989111	0.114581	0.592869
C42	C	0.920095	0.183135	0.553698
C43	C	0.920254	0.183385	0.446610
C44	C	0.989081	0.114590	0.407278
C45	C	1.076445	0.133671	0.446122
C46	C	1.076057	0.134159	0.553243
C47	C	0.971542	0.026741	0.553398
C48	C	0.969538	0.027327	0.446270
C49	C	0.989069	0.114593	0.302390
C50	C	0.989128	0.114579	0.697757
H51	H	0.577852	-0.012275	0.062973
N52	N	0.426789	-0.026693	-0.082471
H53	H	0.441302	0.003000	-0.140927
H54	H	0.457547	-0.085427	-0.081648
H55	H	1.129029	0.085068	0.420643
N56	N	0.569401	0.119670	-0.174208
H57	H	0.613026	0.071611	-0.156757
H58	H	0.523535	0.097445	-0.211811
N59	N	0.550521	0.251559	-0.092032
H60	H	0.585886	0.264119	-0.037021
H61	H	0.582181	0.260835	-0.150852
N62	N	0.847796	-0.447700	0.082616
H63	H	0.829526	-0.396632	0.121803
H64	H	0.796585	-0.473821	0.061117
H65	H	0.434210	-0.015027	0.063352
H66	H	0.577308	-0.012521	-0.062951
N67	N	1.124995	-0.322420	-0.095037
H68	H	1.164549	-0.376321	-0.094254
H69	H	1.132501	-0.291198	-0.154582
H70	H	0.861973	-0.297200	0.063079
N71	N	0.989767	-0.463588	0.174796
H72	H	0.972203	-0.411525	0.212691
H73	H	0.938380	-0.491541	0.157714
H74	H	1.016541	-0.026079	0.419500
H75	H	0.416874	0.125979	-0.153359
H76	H	1.102831	-0.471468	-0.087449
H77	H	1.092297	0.197002	0.419285
H78	H	0.402921	0.226128	-0.091741
H79	H	0.909219	0.008392	0.580461
N80	N	0.392727	0.250225	0.087799
H81	H	0.354755	0.259827	0.032151
H82	H	0.358278	0.260228	0.146059
N83	N	1.122430	-0.482065	0.093188
H84	H	1.162994	-0.438098	0.095464
H85	H	1.129118	-0.517947	0.150710
N86	N	1.126061	-0.324028	0.092147
H87	H	1.138634	-0.288672	0.037125
H88	H	1.135369	-0.292376	0.150958
N89	N	0.994142	-0.305097	0.174333
H90	H	0.933084	-0.315677	0.175202
H91	H	1.023691	-0.331942	0.230388
H92	H	0.559040	0.127830	0.153082
H93	H	0.855314	0.172016	0.420349
N94	N	0.995708	-0.466918	-0.174976
H95	H	0.946425	-0.498639	-0.159431
H96	H	0.975547	-0.415664	-0.213059
H97	H	1.002307	-0.315516	-0.152945
N98	N	0.833792	0.168334	0.587848
H99	H	0.838591	0.117048	0.629046
H100	H	0.808541	0.219054	0.623955
H101	H	0.862239	-0.296649	-0.062846
H102	H	0.931159	0.247952	0.580608
N103	N	1.096565	0.219011	0.586337
H104	H	1.105770	0.255747	0.531339
H105	H	1.048312	0.246533	0.624664
N106	N	0.407578	0.121174	0.175121
H107	H	0.375858	0.071893	0.159576
H108	H	0.458830	0.101007	0.213198
H109	H	0.547101	0.228494	0.093461
H110	H	0.859490	-0.440293	-0.063217
H111	H	0.931473	0.248569	0.420976
H112	H	1.129018	0.086196	0.579154
N113	N	0.884382	0.008168	0.412709
H114	H	0.858567	0.055805	0.372406
H115	H	0.891055	-0.045771	0.375811
N116	N	1.038205	-0.040840	0.586946
H117	H	1.079591	-0.014733	0.627514
H118	H	1.010797	-0.084073	0.623572
