data_functionalizedCrystal
_audit_creation_method	'MofGen! by Chris Wilmer'
_symmetry_space_group_name_H-M	'P1'
_symmetry_Int_Tables_number	1
_symmetry_cell_setting	triclinic
loop_
_symmetry_equiv_pos_as_xyz
  x,y,z
_cell_length_a	15.944551
_cell_length_b	15.944480
_cell_length_c	14.421503
_cell_angle_alpha	89.993290
_cell_angle_beta	89.996660
_cell_angle_gamma	96.515707
loop_
_atom_site_label
_atom_site_type_symbol
_atom_site_fract_x
_atom_site_fract_y
_atom_site_fract_z
O1	O	0.108038	-1.114566	0.077094
O2	O	0.608038	-0.614566	0.577094
O3	O	0.121456	-0.870009	0.077100
O4	O	0.621456	-0.370009	0.577100
O5	O	-0.007530	-0.998966	0.077088
O6	O	0.492470	-0.498966	0.577088
O7	O	0.237023	-0.985609	0.077105
O8	O	0.737023	-0.485609	0.577105
O9	O	-0.007511	-0.998944	-0.077135
O10	O	0.492489	-0.498944	0.422865
O11	O	0.121475	-0.869987	-0.077123
O12	O	0.621475	-0.369987	0.422877
O13	O	0.108057	-1.114545	-0.077130
O14	O	0.608057	-0.614545	0.422870
Cu15	Cu	0.114768	-0.992264	-0.091208
Cu16	Cu	0.614768	-0.492264	0.408792
Cu17	Cu	0.114745	-0.992289	0.091179
Cu18	Cu	0.614745	-0.492289	0.591179
O19	O	0.237042	-0.985588	-0.077118
O20	O	0.737042	-0.485588	0.422882
C21	C	0.120919	-0.838703	-0.000011
C22	C	0.620919	-0.338703	0.499989
C23	C	0.119280	-0.745454	-0.000009
C24	C	0.619280	-0.245454	0.499991
C25	C	0.195212	-0.509692	-0.000001
C26	C	0.695212	-0.009692	0.499999
C27	C	0.154282	-0.459123	-0.076048
C28	C	0.654282	0.040877	0.423952
C29	C	0.116244	-0.574732	-0.000009
C30	C	0.616244	-0.074732	0.499991
C31	C	0.154245	-0.459149	0.076004
C32	C	0.654245	0.040851	0.576004
C33	C	0.113317	-0.409821	-0.000006
C34	C	0.613317	0.090179	0.499994
C35	C	0.075336	-0.525391	-0.076119
C36	C	0.575336	-0.025391	0.423881
C37	C	0.075310	-0.525420	0.076002
C38	C	0.575310	-0.025420	0.576002
C39	C	0.034323	-0.474883	-0.000064
C40	C	0.534323	0.025117	0.499936
C41	C	0.117933	-0.669732	-0.000012
C42	C	0.617933	-0.169732	0.499988
C43	C	0.111622	-0.314823	-0.000010
C44	C	0.611622	0.185177	0.499990
C45	C	-0.038814	-0.998401	-0.000023
C46	C	0.461186	-0.498401	0.499977
C47	C	-0.132060	-0.996738	-0.000024
C48	C	0.367940	-0.496738	0.499976
C49	C	-0.346895	-0.912831	-0.000009
C50	C	0.153105	-0.412831	0.499991
C51	C	-0.407913	-0.951784	-0.076051
C52	C	0.092087	-0.451784	0.423949
C53	C	-0.302785	-0.993731	-0.000017
C54	C	0.197215	-0.493731	0.499983
C55	C	-0.407915	-0.951824	0.076001
C56	C	0.092085	-0.451824	0.576001
C57	C	-0.467697	-0.990820	-0.000006
C58	C	0.032303	-0.490820	0.499994
C59	C	-0.362574	-1.032706	-0.076122
C60	C	0.137426	-0.532706	0.423878
C61	C	-0.362570	-1.032735	0.075999
C62	C	0.137430	-0.532735	0.575999
C63	C	-0.423570	-1.071747	-0.000063
C64	C	0.076430	-0.571747	0.499937
C65	C	-0.207783	-0.995405	-0.000024
C66	C	0.292217	-0.495405	0.499976
C67	C	-0.562697	-0.989152	-0.000005
C68	C	-0.062697	-0.489152	0.499995
C69	C	0.268327	-0.986153	-0.000004
C70	C	0.768327	-0.486153	0.499996
C71	C	0.361572	-0.987815	0.000003
C72	C	0.861572	-0.487815	0.500003
C73	C	0.108605	-0.145849	-0.000015
C74	C	0.608605	0.354151	0.499985
C75	C	0.110278	-0.239094	-0.000006
C76	C	0.610278	0.260906	0.499994
N77	N	0.114783	-0.992252	-0.219490
N78	N	0.614783	-0.492252	0.280510
C79	C	0.174399	-0.932612	-0.469138
C80	C	0.674399	-0.432612	0.030862
C81	C	0.190687	-1.008515	-0.530941
C82	C	0.690687	-0.508515	-0.030941
C83	C	0.114763	-0.992273	-0.408651
C84	C	0.614763	-0.492273	0.091349
C85	C	0.098495	-0.916390	-0.530941
C86	C	0.598495	-0.416390	-0.030941
C87	C	0.114746	-0.992286	-0.591372
C88	C	0.614746	-0.492286	-0.091372
C89	C	0.131089	-1.068214	-0.469094
C90	C	0.631089	-0.568214	0.030906
C91	C	0.038863	-0.976039	-0.469088
C92	C	0.538863	-0.476039	0.030912
C93	C	0.055119	-1.051996	-0.530864
C94	C	0.555119	-0.551996	-0.030864
C95	C	0.114775	-0.992264	-0.303390
C96	C	0.614775	-0.492264	0.196610
C97	C	0.114733	-0.992303	-0.696631
C98	C	0.614733	-0.492303	-0.196631
N99	N	0.114723	-0.992308	0.219460
N100	N	0.614723	-0.492308	0.719460
H101	H	0.187602	-0.430219	0.140287
H102	H	0.687602	0.069781	0.640287
H103	H	0.187640	-0.430177	-0.140334
H104	H	0.687640	0.069823	0.359666
Br105	Br	-0.028956	-1.136185	-0.575760
Br106	Br	0.471044	-0.636185	-0.075760
H107	H	0.263230	-0.525316	-0.000068
H108	H	0.763230	-0.025316	0.499932
Br109	Br	-0.291353	-0.800910	-0.000123
Br110	Br	0.208647	-0.300910	0.499877
Br111	Br	0.019798	-0.573418	-0.183385
Br112	Br	0.519798	-0.073418	0.316615
Br113	Br	-0.068074	-0.953095	-0.423767
Br114	Br	0.431926	-0.453095	0.076233
Br115	Br	-0.329264	-1.089680	-0.183389
Br116	Br	0.170736	-0.589680	0.316611
Br117	Br	0.297655	-1.031424	-0.576223
Br118	Br	0.797655	-0.531424	-0.076223
H119	H	-0.342456	-1.066932	0.140288
H120	H	0.157544	-0.566932	0.640288
Br121	Br	0.075572	-0.809424	-0.576228
Br122	Br	0.575572	-0.309424	-0.076228
H123	H	-0.427991	-0.917605	0.140293
H124	H	0.072009	-0.417605	0.640293
Br125	Br	0.019762	-0.573696	0.183155
Br126	Br	0.519762	-0.073696	0.683155
Br127	Br	-0.079128	-0.449096	-0.000142
Br128	Br	0.420872	0.050904	0.499858
H129	H	-0.428004	-0.917558	-0.140337
H130	H	0.071996	-0.417558	0.359663
Br131	Br	-0.478868	-1.183766	-0.000130
Br132	Br	0.021132	-0.683766	0.499870
Br133	Br	0.258519	-0.848605	-0.423959
Br134	Br	0.758519	-0.348605	0.076041
H135	H	0.144918	-1.132406	-0.442041
H136	H	0.644918	-0.632406	0.057959
