data_functionalizedCrystal
_audit_creation_method	'MofGen! by Chris Wilmer'
_symmetry_space_group_name_H-M	'P1'
_symmetry_Int_Tables_number	1
_symmetry_cell_setting	triclinic
loop_
_symmetry_equiv_pos_as_xyz
  x,y,z
_cell_length_a	15.995350
_cell_length_b	10.654550
_cell_length_c	9.730223
_cell_angle_alpha	90.003749
_cell_angle_beta	90.000899
_cell_angle_gamma	96.011361
loop_
_atom_site_label
_atom_site_type_symbol
_atom_site_fract_x
_atom_site_fract_y
_atom_site_fract_z
O1	O	0.117599	-1.666298	-0.114395
O2	O	0.128803	-1.300673	-0.114373
O3	O	0.001371	-1.493480	-0.114383
O4	O	0.245031	-1.473491	-0.114385
O5	O	0.001375	-1.493478	0.114197
O6	O	0.128806	-1.300671	0.114207
O7	O	0.117602	-1.666295	0.114185
Zn8	Zn	0.123205	-1.483483	0.150488
Zn9	Zn	0.123200	-1.483486	-0.150676
O10	O	0.245034	-1.473488	0.114195
C11	C	0.127982	-1.253885	-0.000080
C12	C	0.125521	-1.114473	-0.000071
C13	C	-0.029827	-1.492652	-0.000096
C14	C	-0.122791	-1.490175	-0.000104
N15	N	0.123207	-1.483490	0.356024
C16	C	-0.460591	-1.481278	-0.000098
C17	C	-0.413954	-1.343964	-0.000603
C18	C	-0.317249	-1.346442	-0.000087
C19	C	-0.293004	-1.485691	-0.000102
C20	C	-0.333687	-1.553417	0.130422
C21	C	-0.430342	-1.549968	0.130531
C22	C	-0.430688	-1.552807	-0.129407
C23	C	-0.333743	-1.552775	-0.131132
C24	C	-0.198292	-1.488192	-0.000099
C25	C	-0.555303	-1.478780	-0.000092
C26	C	0.276232	-1.474316	-0.000095
C27	C	0.369197	-1.476793	-0.000097
C28	C	0.118423	-1.713084	-0.000111
C29	C	0.120884	-1.852495	-0.000129
C30	C	0.200551	-1.034008	-0.000092
C31	C	0.198233	-0.903017	-0.000116
C32	C	0.045849	-0.932971	-0.000104
C33	C	0.048168	-1.063959	-0.000071
C34	C	0.288528	-1.016713	-0.000104
C35	C	0.286211	-0.885722	-0.000128
N36	N	0.123191	-1.483488	-0.356212
C37	C	0.066800	-1.568886	0.427946
C38	C	0.066789	-1.568883	0.571829
C39	C	0.179602	-1.398083	0.571856
C40	C	0.179607	-1.398081	0.427976
C41	C	0.001671	-1.667501	0.427931
C42	C	0.001661	-1.667497	0.571814
H43	H	-0.289138	-1.293204	-0.093652
H44	H	-0.305577	-1.506376	0.227563
H45	H	0.319358	-0.843557	-0.095796
H46	H	0.312800	-0.839703	0.098556
H47	H	0.316540	-1.052003	-0.098792
N48	N	0.331681	-1.052980	0.119903
N49	N	0.340886	-1.166552	0.140241
H50	H	0.371360	-1.192169	0.224995
N51	N	-0.299820	-1.490773	-0.252261
N52	N	-0.261788	-1.550543	-0.338598
H53	H	-0.237814	-1.506757	-0.424140
H54	H	-0.017130	-0.891826	-0.000125
H55	H	0.225520	-1.328544	0.630455
H56	H	0.225531	-1.328534	0.369419
H57	H	-0.432806	-1.289082	-0.094203
N58	N	-0.079056	-1.641613	0.378950
N59	N	-0.135936	-1.623366	0.462432
H60	H	-0.192945	-1.605064	0.427840
H61	H	-0.318967	-1.655720	0.135266
N62	N	0.027283	-1.781539	0.371949
N63	N	0.046456	-1.866943	0.450344
H64	H	0.064557	-1.947477	0.410808
N65	N	-0.453650	-1.487986	0.252932
N66	N	-0.424573	-1.376496	0.276104
H67	H	-0.441029	-1.332715	0.362552
H68	H	-0.451490	-1.507914	-0.228337
H69	H	-0.059156	-1.637779	0.616432
H70	H	0.016006	-1.763822	0.610858
H71	H	-0.289694	-1.292844	0.093643
N72	N	-0.438900	-1.275443	0.116211
N73	N	-0.385217	-1.232756	0.202205
H74	H	-0.402833	-1.184374	0.284717
N75	N	-0.470056	-1.676438	0.137967
N76	N	-0.426362	-1.766966	0.143068
H77	H	-0.454406	-1.856285	0.148329
H78	H	-0.461861	-1.654048	-0.130294
N79	N	-0.313713	-1.680154	-0.141038
N80	N	-0.268891	-1.723764	-0.051281
H81	H	-0.254741	-1.813729	-0.058271
H82	H	-0.012929	-1.129471	-0.000034
