data_functionalizedCrystal
_audit_creation_method	'MofGen! by Chris Wilmer'
_symmetry_space_group_name_H-M	'P1'
_symmetry_Int_Tables_number	1
_symmetry_cell_setting	triclinic
loop_
_symmetry_equiv_pos_as_xyz
  x,y,z
_cell_length_a	12.594517
_cell_length_b	25.639240
_cell_length_c	12.594509
_cell_angle_alpha	90.041310
_cell_angle_beta	90.011478
_cell_angle_gamma	90.028646
loop_
_atom_site_label
_atom_site_type_symbol
_atom_site_fract_x
_atom_site_fract_y
_atom_site_fract_z
Zn1	Zn	1.627143	-0.208192	0.601484
Zn2	Zn	1.626982	-0.295635	0.423464
Zn3	Zn	1.449147	-0.208209	0.423543
Zn4	Zn	1.449077	-0.295592	0.601425
O5	O	1.538088	-0.251907	0.512479
O6	O	1.776068	-0.219803	0.577860
O7	O	1.603354	-0.284062	0.274529
O8	O	1.472855	-0.135041	0.447205
O9	O	1.775949	-0.284046	0.447071
O10	O	1.603628	-0.135029	0.577937
O11	O	1.472699	-0.219831	0.274587
O12	O	1.300192	-0.219790	0.447148
O13	O	1.472737	-0.283974	0.750379
O14	O	1.300141	-0.283990	0.577837
O15	O	1.603561	-0.219762	0.750422
O16	O	1.603286	-0.368794	0.447014
O17	O	1.472580	-0.368763	0.577761
C18	C	1.261547	-0.251887	0.512495
C19	C	1.143241	-0.251892	0.512527
C20	C	1.073991	-0.286878	0.583472
C21	C	1.003211	-0.239208	0.609672
C22	C	1.003222	-0.299602	0.486303
C23	C	1.074019	-0.204195	0.538778
C24	C	1.074037	-0.264622	0.415365
C25	C	1.003289	-0.216918	0.441528
C26	C	1.537937	-0.387750	0.512396
C27	C	1.537970	-0.445864	0.512395
C28	C	1.606215	-0.806182	0.580674
C29	C	1.606246	-0.860786	0.580696
O30	O	1.664091	-0.888985	0.638663
N31	N	1.538235	-0.888146	0.512582
C32	C	1.470181	-0.860899	0.444449
O33	O	1.412334	-0.889185	0.386516
C34	C	1.470145	-0.806296	0.444434
C35	C	1.538168	-0.778939	0.512545
C36	C	1.674232	-0.778825	0.648780
C37	C	1.674201	-0.724224	0.648757
C38	C	1.606154	-0.696981	0.580627
C39	C	1.538138	-0.724338	0.512521
C40	C	1.402086	-0.779049	0.376308
C41	C	1.402055	-0.724442	0.376299
C42	C	1.470078	-0.697085	0.444410
C43	C	1.470060	-0.642494	0.444369
N44	N	1.538071	-0.615134	0.512483
C45	C	1.606118	-0.642378	0.580612
C46	C	1.470260	-0.975569	0.444489
C47	C	1.470301	-1.030172	0.444498
C48	C	1.606365	-1.030055	0.580746
C49	C	1.606329	-0.975452	0.580730
C50	C	1.538271	-0.948210	0.512602
C51	C	1.606050	-0.527713	0.580557
C52	C	1.606017	-0.473107	0.580525
C53	C	1.469949	-0.473228	0.444281
C54	C	1.469986	-0.527829	0.444309
C55	C	1.538040	-0.555070	0.512456
O56	O	1.412242	-0.614261	0.386434
O57	O	1.663945	-0.614085	0.638545
C58	C	1.815708	-0.251927	0.512463
C59	C	1.934014	-0.251936	0.512457
C60	C	1.538159	-0.251861	0.790100
C61	C	1.538189	-0.251842	0.908406
C62	C	1.538268	-0.115534	0.512586
C63	C	1.538344	-0.057420	0.512632
C64	C	1.538078	-0.251915	0.235938
C65	C	1.538254	-0.251787	0.117633
C66	C	1.467056	-0.286747	0.977635
C67	C	1.564169	-0.299525	1.048403
C68	C	1.441152	-0.239032	1.048437
C69	C	1.635353	-0.264645	0.977615
C70	C	1.512270	-0.204130	0.977643
C71	C	1.609450	-0.216890	1.048378
H72	H	0.972100	-0.228456	0.691810
C73	C	1.593836	-0.354000	1.090403
C74	C	1.693121	-0.361018	1.160318
C75	C	1.722780	-0.415494	1.202313
C76	C	1.653154	-0.462952	1.174392
C77	C	1.553862	-0.455935	1.104473
C78	C	1.524203	-0.401460	1.062478
H79	H	1.744669	-0.325886	1.180990
H80	H	1.796283	-0.420688	1.254071
H81	H	1.675109	-0.503278	1.205478
H82	H	1.502314	-0.491068	1.083801
H83	H	1.450700	-0.396266	1.010719
H84	H	1.490284	-0.163816	0.946537
H85	H	1.717467	-0.275503	0.946637
H86	H	0.972440	-0.187315	0.381503
H87	H	1.105039	-0.316409	0.643544
H88	H	1.406949	-0.316311	0.946574
C89	C	1.749015	-0.694134	0.723691
C90	C	1.702818	-0.656581	0.807210
C91	C	1.777630	-0.626493	0.882151
C92	C	1.898640	-0.633960	0.873574
C93	C	1.944843	-0.671515	0.790052
C94	C	1.870031	-0.701602	0.715110
H95	H	1.613234	-0.651052	0.813562
H96	H	1.743427	-0.598693	0.943980
H97	H	1.954021	-0.611687	0.929051
H98	H	2.034427	-0.677043	0.783699
H99	H	1.904234	-0.729403	0.653281
C100	C	0.961208	-0.354082	0.456369
C101	C	0.990726	-0.378438	0.348549
C102	C	0.948714	-0.432919	0.318626
C103	C	0.877184	-0.463044	0.396522
C104	C	0.847662	-0.438688	0.504348
C105	C	0.889674	-0.384207	0.534272
H106	H	1.043681	-0.356138	0.290880
H107	H	0.970569	-0.450949	0.238805
H108	H	0.846084	-0.503374	0.374370
H109	H	0.794708	-0.460988	0.562018
H110	H	0.867819	-0.366177	0.614093
H111	H	1.104987	-0.163854	0.561022
H112	H	1.669702	-0.187348	1.079244
H113	H	1.105171	-0.275388	0.333250
H114	H	1.414549	-0.451038	0.388808
H115	H	1.359062	-0.228220	1.079546
H116	H	1.661771	-1.052247	0.636222
C117	C	1.680842	-0.443015	0.655456
C118	C	1.755684	-0.472987	0.730402
C119	C	1.830503	-0.442897	0.805332
C120	C	1.830480	-0.382836	0.805317
C121	C	1.755635	-0.352861	0.730369
C122	C	1.680816	-0.382950	0.655438
H123	H	1.755703	-0.517451	0.730415
H124	H	1.885909	-0.465087	0.860814
H125	H	1.885866	-0.360562	0.860786
H126	H	1.755616	-0.308397	0.730355
H127	H	1.625411	-0.360760	0.599956
C128	C	1.749099	-0.808786	0.723724
C129	C	1.832723	-0.846304	0.677676
C130	C	1.907605	-0.876260	0.752618
C131	C	1.898861	-0.868697	0.873608
C132	C	1.815233	-0.831177	0.919663
C133	C	1.740352	-0.801222	0.844721
H134	H	1.839198	-0.851904	0.588106
H135	H	1.969511	-0.904035	0.718525
H136	H	1.954293	-0.890873	0.929085
H137	H	1.808758	-0.825577	1.009233
H138	H	1.678445	-0.773447	0.878814
C139	C	1.395481	-1.060260	0.369567
C140	C	1.404227	-1.052798	0.248572
C141	C	1.329399	-1.082884	0.173644
C142	C	1.245824	-1.120432	0.219711
C143	C	1.237073	-1.127896	0.340713
C144	C	1.311902	-1.097810	0.415640
H145	H	1.466098	-1.025002	0.214465
H146	H	1.335877	-1.077359	0.084071
H147	H	1.190431	-1.142703	0.164245
H148	H	1.175203	-1.155692	0.374820
H149	H	1.305424	-1.103335	0.505214
C150	C	1.395403	-0.945605	0.369528
C151	C	1.404173	-0.953168	0.248540
C152	C	1.329316	-0.923207	0.173581
C153	C	1.245690	-0.885685	0.219610
C154	C	1.236916	-0.878120	0.340605
C155	C	1.311773	-0.908081	0.415564
H156	H	1.466081	-0.980946	0.214460
H157	H	1.335811	-0.928807	0.084012
H158	H	1.190276	-0.863506	0.164121
H159	H	1.175008	-0.850342	0.374684
H160	H	1.305278	-0.902481	0.505132
H161	H	1.661459	-0.549886	0.636056
C162	C	1.327191	-0.694476	0.301352
C163	C	1.335945	-0.702036	0.180362
C164	C	1.261085	-0.672070	0.105415
C165	C	1.177471	-0.634545	0.151458
C166	C	1.168714	-0.626983	0.272455
C167	C	1.243574	-0.656948	0.347402
H168	H	1.397844	-0.729816	0.146273
H169	H	1.267568	-0.677668	0.015846
H170	H	1.122055	-0.612362	0.095978
H171	H	1.106815	-0.599202	0.306544
H172	H	1.237091	-0.651350	0.436971
H173	H	1.661719	-0.953181	0.636192
H174	H	1.346694	-0.801314	0.320844
H175	H	1.414604	-0.550104	0.388840
