data_functionalizedCrystal
_audit_creation_method	'MofGen! by Chris Wilmer'
_symmetry_space_group_name_H-M	'P1'
_symmetry_Int_Tables_number	1
_symmetry_cell_setting	triclinic
loop_
_symmetry_equiv_pos_as_xyz
  x,y,z
_cell_length_a	16.625546
_cell_length_b	13.897449
_cell_length_c	13.897433
_cell_angle_alpha	90.048509
_cell_angle_beta	89.925636
_cell_angle_gamma	89.976252
loop_
_atom_site_label
_atom_site_type_symbol
_atom_site_fract_x
_atom_site_fract_y
_atom_site_fract_z
Zn1	Zn	-0.320623	-1.474935	-0.545363
Zn2	Zn	0.179377	-0.974935	-0.045363
Zn3	Zn	-0.455569	-1.474737	-0.384056
Zn4	Zn	0.044431	-0.974737	0.115944
Zn5	Zn	-0.320757	-1.313546	-0.384081
Zn6	Zn	0.179243	-0.813546	0.115919
Zn7	Zn	-0.455420	-1.313593	-0.545309
Zn8	Zn	0.044580	-0.813593	-0.045309
O9	O	-0.388092	-1.394203	-0.464702
O10	O	0.111908	-0.894203	0.035298
O11	O	-0.338530	-1.609891	-0.523977
O12	O	0.161470	-1.109891	-0.023977
O13	O	-0.437805	-1.453253	-0.249077
O14	O	0.062195	-0.953253	0.250923
O15	O	-0.207907	-1.335018	-0.405509
O16	O	0.292093	-0.835018	0.094491
O17	O	-0.437675	-1.609745	-0.405466
O18	O	0.062325	-1.109745	0.094534
O19	O	-0.207808	-1.453590	-0.524002
O20	O	0.292192	-0.953590	-0.024002
O21	O	-0.338759	-1.334826	-0.249096
O22	O	0.161241	-0.834826	0.250904
O23	O	-0.338615	-1.178571	-0.405456
O24	O	0.161385	-0.678571	0.094544
O25	O	-0.437420	-1.335097	-0.680298
O26	O	0.062580	-0.835097	-0.180298
O27	O	-0.437551	-1.178605	-0.523910
O28	O	0.062449	-0.678605	-0.023910
O29	O	-0.338385	-1.453635	-0.680338
O30	O	0.161615	-0.953635	-0.180338
O31	O	-0.568382	-1.453298	-0.405414
O32	O	-0.068382	-0.953298	0.094586
O33	O	-0.568272	-1.334905	-0.523885
O34	O	-0.068272	-0.834905	-0.023885
C35	C	-0.388082	-1.143588	-0.464680
C36	C	0.111918	-0.643588	0.035320
C37	C	-0.388096	-1.036375	-0.464694
C38	C	0.111904	-0.536375	0.035306
C39	C	-0.597583	-1.394111	-0.464662
C40	C	-0.097583	-0.894111	0.035338
C41	C	-0.687204	-1.394161	-0.464677
C42	C	-0.187204	-0.894161	0.035323
C43	C	-0.387871	-1.394393	-0.716296
C44	C	0.112129	-0.894393	-0.216296
C45	C	-0.387777	-1.394474	-0.823510
C46	C	0.112223	-0.894474	-0.323510
C47	C	-1.015380	-1.394329	-0.464777
C48	C	-0.515380	-0.894329	0.035223
C49	C	-0.924071	-1.394279	-0.464752
C50	C	-0.424071	-0.894279	0.035248
C51	C	-0.851295	-1.394244	-0.464727
C52	C	-0.351295	-0.894244	0.035273
C53	C	-0.759981	-1.394196	-0.464702
C54	C	-0.259981	-0.894196	0.035298
C55	C	-0.177783	-1.394321	-0.464764
C56	C	0.322217	-0.894321	0.035236
C57	C	-0.088162	-1.394371	-0.464790
C58	C	0.411838	-0.894371	0.035210
C59	C	-0.388104	-1.645796	-0.464725
C60	C	0.111896	-1.145796	0.035275
C61	C	-0.388109	-1.753010	-0.464735
C62	C	0.111891	-1.253010	0.035265
C63	C	-0.388099	-0.840079	-0.464719
C64	C	0.111901	-0.340079	0.035281
C65	C	-0.388095	-0.949312	-0.464702
C66	C	0.111905	-0.449312	0.035298
C67	C	-0.388255	-1.394069	-0.214088
C68	C	0.111745	-0.894069	0.285912
C69	C	-0.388122	-1.394174	-0.106874
C70	C	0.111878	-0.894174	0.393126
C71	C	-0.387885	-1.394389	0.089421
C72	C	0.112115	-0.894389	0.589421
C73	C	-0.388019	-1.394272	-0.019812
C74	C	0.111981	-0.894272	0.480188
