data_functionalizedCrystal
_audit_creation_method	'MofGen! by Chris Wilmer'
_symmetry_space_group_name_H-M	'P1'
_symmetry_Int_Tables_number	1
_symmetry_cell_setting	triclinic
loop_
_symmetry_equiv_pos_as_xyz
  x,y,z
_cell_length_a	18.101398
_cell_length_b	18.101397
_cell_length_c	18.101390
_cell_angle_alpha	90.035542
_cell_angle_beta	90.010099
_cell_angle_gamma	90.016023
loop_
_atom_site_label
_atom_site_type_symbol
_atom_site_fract_x
_atom_site_fract_y
_atom_site_fract_z
Zn1	Zn	1.132178	-0.294889	0.418537
Zn2	Zn	1.465512	0.038444	0.751870
Zn3	Zn	1.798845	0.371777	1.085204
Zn4	Zn	1.132096	-0.418746	0.294690
Zn5	Zn	1.465430	-0.085413	0.628023
Zn6	Zn	1.798763	0.247920	0.961357
Zn7	Zn	1.008336	-0.294913	0.294730
Zn8	Zn	1.341670	0.038420	0.628063
Zn9	Zn	1.675003	0.371753	0.961396
Zn10	Zn	1.008311	-0.418684	0.418510
Zn11	Zn	1.341644	-0.085350	0.751843
Zn12	Zn	1.674978	0.247983	1.085177
O13	O	1.070231	-0.356808	0.356617
O14	O	1.403564	-0.023475	0.689950
O15	O	1.736897	0.309858	1.023283
O16	O	1.235800	-0.311335	0.402103
O17	O	1.569134	0.021998	0.735436
O18	O	1.902467	0.355332	1.068770
O19	O	1.115656	-0.402356	0.191062
O20	O	1.448989	-0.069022	0.524396
O21	O	1.782322	0.264311	0.857729
O22	O	1.024809	-0.191277	0.311181
O23	O	1.358143	0.142056	0.644514
O24	O	1.691476	0.475389	0.977848
O25	O	1.235740	-0.402332	0.311113
O26	O	1.569073	-0.068999	0.644446
O27	O	1.902407	0.264334	0.977780
O28	O	1.115795	-0.191260	0.402142
O29	O	1.449129	0.142074	0.735475
O30	O	1.782462	0.475407	1.068808
O31	O	1.024730	-0.311376	0.191092
O32	O	1.358063	0.021957	0.524425
O33	O	1.691397	0.355290	0.857758
O34	O	0.904700	-0.311316	0.311155
O35	O	1.238034	0.022017	0.644488
O36	O	1.571367	0.355351	0.977821
O37	O	1.024766	-0.402226	0.522147
O38	O	1.358099	-0.068893	0.855480
O39	O	1.691432	0.264441	1.188813
O40	O	0.904681	-0.402249	0.402096
O41	O	1.238015	-0.068916	0.735429
O42	O	1.571348	0.264417	1.068762
O43	O	1.115771	-0.311275	0.522166
O44	O	1.449104	0.022059	0.855500
O45	O	1.782437	0.355392	1.188833
O46	O	1.115631	-0.522371	0.311087
O47	O	1.448964	-0.189037	0.644420
O48	O	1.782298	0.144296	0.977754
O49	O	1.024686	-0.522325	0.402057
O50	O	1.358020	-0.188992	0.735390
O51	O	1.691353	0.144342	1.068724
C52	C	0.877820	-0.356779	0.356627
C53	C	1.211153	-0.023446	0.689960
C54	C	1.544487	0.309888	1.023294
C55	C	0.795506	-0.356784	0.356649
C56	C	1.128839	-0.023451	0.689982
C57	C	1.462173	0.309882	1.023316
C58	C	0.496415	-0.356828	0.356618
C59	C	0.829748	-0.023495	0.689951
C60	C	1.163082	0.309839	1.023285
C61	C	0.527753	-0.414318	0.413553
C62	C	0.861086	-0.080984	0.746886
C63	C	1.194420	0.252349	1.080220
C64	C	0.613371	-0.414138	0.413787
C65	C	0.946705	-0.080804	0.747120
C66	C	1.280038	0.252529	1.080454
C67	C	0.644797	-0.356807	0.356633
C68	C	0.978131	-0.023474	0.689967
C69	C	1.311464	0.309860	1.023300
C70	C	0.613729	-0.278803	0.377965
C71	C	0.947062	0.054530	0.711298
C72	C	1.280395	0.387864	1.044631
C73	C	0.528084	-0.279148	0.378370
C74	C	0.861417	0.054185	0.711703
C75	C	1.194750	0.387518	1.045036
C76	C	0.527966	-0.376655	0.278214
C77	C	0.861299	-0.043321	0.611548
C78	C	1.194632	0.290012	0.944881
C79	C	0.613616	-0.378366	0.278633
C80	C	0.946949	-0.045033	0.611967
C81	C	1.280282	0.288300	0.945300
C82	C	0.728657	-0.356790	0.356641
C83	C	1.061990	-0.023457	0.689974
C84	C	1.395324	0.309876	1.023308
C85	C	0.412555	-0.356839	0.356612
C86	C	0.745889	-0.023506	0.689946
C87	C	1.079222	0.309827	1.023279
C88	C	1.070167	-0.549219	0.356581
C89	C	1.403500	-0.215885	0.689914
C90	C	1.736834	0.117448	1.023247
C91	C	1.070208	-0.631533	0.356590
C92	C	1.403541	-0.298199	0.689924
C93	C	1.736874	0.035134	1.023257
C94	C	1.070302	-0.930624	0.356658
C95	C	1.403636	-0.597290	0.689991
C96	C	1.736969	-0.263957	1.023324
C97	C	1.127363	-0.899297	0.299269
C98	C	1.460696	-0.565963	0.632602
C99	C	1.794029	-0.232630	0.965935
C100	C	1.127560	-0.813678	0.299417
C101	C	1.460894	-0.480345	0.632751
C102	C	1.794227	-0.147011	0.966084
C103	C	1.070255	-0.782241	0.356624
C104	C	1.403589	-0.448908	0.689957
C105	C	1.736922	-0.115575	1.023290
C106	C	1.091412	-0.813243	0.434681
C107	C	1.424745	-0.479910	0.768014
C108	C	1.758078	-0.146577	1.101348
C109	C	1.091853	-0.898888	0.434368
C110	C	1.425187	-0.565555	0.767702
C111	C	1.758520	-0.232222	1.101035
C112	C	0.991933	-0.899128	0.336665
C113	C	1.325267	-0.565795	0.669999
C114	C	1.658600	-0.232462	1.003332
C115	C	0.992320	-0.813479	0.334923
C116	C	1.325654	-0.480146	0.668256
C117	C	1.658987	-0.146812	1.001589
C118	C	1.070228	-0.698382	0.356609
C119	C	1.403561	-0.365048	0.689942
C120	C	1.736894	-0.031715	1.023276
C121	C	1.070332	-1.014483	0.356677
C122	C	1.403665	-0.681150	0.690011
C123	C	1.736999	-0.347817	1.023344
C124	C	1.263392	-0.356838	0.356607
C125	C	1.596726	-0.023505	0.689940
C126	C	1.930059	0.309829	1.023273
C127	C	1.345706	-0.356851	0.356602
C128	C	1.679040	-0.023517	0.689936
C129	C	2.012373	0.309816	1.023269
C130	C	1.070275	-0.356741	0.549779
C131	C	1.403608	-0.023407	0.883112
C132	C	1.736941	0.309926	1.216445
C133	C	1.070293	-0.356712	0.632093
C134	C	1.403627	-0.023378	0.965426
C135	C	1.736960	0.309955	1.298759
C136	C	1.070314	-0.163646	0.356669
C137	C	1.403648	0.169687	0.690002
C138	C	1.736981	0.503020	1.023336
C139	C	1.070350	-0.081332	0.356691
C140	C	1.403683	0.252001	0.690024
C141	C	1.737017	0.585335	1.023358
C142	C	1.070229	-0.356822	0.164206
C143	C	1.403563	-0.023489	0.497539
C144	C	1.736896	0.309845	0.830873
C145	C	1.070354	-0.356642	0.081892
C146	C	1.403687	-0.023309	0.415226
C147	C	1.737021	0.310024	0.748559
C148	C	1.070333	-0.356666	0.931184
C149	C	1.403667	-0.023332	1.264517
C150	C	1.737000	0.310001	1.597851
C151	C	1.127779	-0.299643	0.899871
C152	C	1.461113	0.033690	1.233205
C153	C	1.794446	0.367024	1.566538
C154	C	1.127600	-0.299431	0.814253
C155	C	1.460934	0.033902	1.147586
C156	C	1.794267	0.367235	1.480920
C157	C	1.070314	-0.356688	0.782801
C158	C	1.403647	-0.023355	1.116135
C159	C	1.736981	0.309978	1.449468
C160	C	0.992293	-0.335479	0.813889
C161	C	1.325627	-0.002146	1.147222
C162	C	1.658960	0.331187	1.480555
C163	C	0.992637	-0.335052	0.899534
C164	C	1.325971	-0.001718	1.232867
C165	C	1.659304	0.331615	1.566201
C166	C	1.090220	-0.435044	0.899589
C167	C	1.423554	-0.101711	1.232923
C168	C	1.756887	0.231622	1.566256
C169	C	1.091933	-0.434645	0.813939
C170	C	1.425266	-0.101311	1.147272
C171	C	1.758599	0.232022	1.480606
C172	C	1.070298	-0.356703	0.698942
C173	C	1.403632	-0.023369	1.032275
C174	C	1.736965	0.309964	1.365608
C175	C	1.070344	-0.356650	1.015043
C176	C	1.403677	-0.023316	1.348377
C177	C	1.737010	0.310017	1.681710
H178	H	0.507353	-0.234779	0.338802
H179	H	0.840687	0.098554	0.672136
H180	H	1.174020	0.431888	1.005469
H181	H	1.051123	-0.792877	0.478590
H182	H	1.384456	-0.459544	0.811923
H183	H	1.717789	-0.126210	1.145256
H184	H	1.114435	-0.241367	0.793785
H185	H	1.447769	0.091966	1.127118
H186	H	1.781102	0.425300	1.460452
H187	H	0.948379	-0.374777	0.920247
H188	H	1.281712	-0.041444	1.253580
H189	H	1.615045	0.291889	1.586914
H190	H	1.052114	-0.919608	0.478601
H191	H	1.385447	-0.586275	0.811934
H192	H	1.718780	-0.252941	1.145267
H193	H	0.975129	-0.278821	0.792456
H194	H	1.308463	0.054512	1.125789
H195	H	1.641796	0.387845	1.459122
H196	H	1.149349	-0.450638	0.793619
H197	H	1.482682	-0.117304	1.126952
H198	H	1.816015	0.216029	1.460285
Cl199	Cl	0.923148	-0.780454	0.394734
Cl200	Cl	1.256481	-0.447121	0.728067
Cl201	Cl	1.589814	-0.113787	1.061400
H202	H	1.146116	-0.454356	0.921223
H203	H	1.479449	-0.121022	1.254557
H204	H	1.812783	0.212311	1.587890
Cl205	Cl	1.216925	-0.319926	0.781799
Cl206	Cl	1.550258	0.013407	1.115132
Cl207	Cl	1.883591	0.346741	1.448466
H208	H	1.185822	-0.312761	0.920463
H209	H	1.519156	0.020572	1.253796
H210	H	1.852489	0.353905	1.587130
H211	H	0.507148	-0.472351	0.400333
H212	H	0.840482	-0.139017	0.733666
H213	H	1.173815	0.194316	1.066999
Cl214	Cl	0.645158	-0.210873	0.315943
Cl215	Cl	0.978491	0.122460	0.649276
Cl216	Cl	1.311825	0.455794	0.982610
H217	H	1.053135	-0.479414	0.792526
H218	H	1.386469	-0.146081	1.125859
H219	H	1.719802	0.187252	1.459193
H220	H	0.976368	-0.793224	0.277479
H221	H	1.309701	-0.459891	0.610812
H222	H	1.643035	-0.126558	0.944146
H223	H	0.635008	-0.339534	0.233934
H224	H	0.968342	-0.006201	0.567267
H225	H	1.301675	0.327132	0.900600
H226	H	0.975780	-0.277757	0.919530
H227	H	1.309113	0.055576	1.252864
H228	H	1.642446	0.388909	1.586197
Cl229	Cl	0.924414	-0.397631	0.782443
Cl230	Cl	1.257747	-0.064297	1.115777
Cl231	Cl	1.591080	0.269036	1.449110
Cl232	Cl	1.107077	-0.781318	0.210068
Cl233	Cl	1.440411	-0.447984	0.543401
Cl234	Cl	1.773744	-0.114651	0.876734
Cl235	Cl	0.646860	-0.252370	0.465496
Cl236	Cl	0.980193	0.080963	0.798830
Cl237	Cl	1.313526	0.414297	1.132163
Cl238	Cl	0.496674	-0.312006	0.212717
Cl239	Cl	0.830007	0.021327	0.546051
Cl240	Cl	1.163340	0.354660	0.879384
Cl241	Cl	1.216502	-0.932442	0.319454
Cl242	Cl	1.549835	-0.599108	0.652787
Cl243	Cl	1.883169	-0.265775	0.986120
H244	H	0.508120	-0.262333	0.435686
H245	H	0.841453	0.071001	0.769020
H246	H	1.174786	0.404334	1.102353
H247	H	1.148055	-0.791739	0.451904
H248	H	1.481388	-0.458405	0.785237
H249	H	1.814721	-0.125072	1.118571
H250	H	1.185612	-0.793138	0.312644
H251	H	1.518945	-0.459805	0.645977
H252	H	1.852278	-0.126471	0.979311
Cl253	Cl	1.107181	-0.931178	0.209638
Cl254	Cl	1.440514	-0.597845	0.542971
Cl255	Cl	1.773848	-0.264512	0.876304
H256	H	1.149138	-0.918810	0.451305
H257	H	1.482471	-0.585477	0.784638
H258	H	1.815804	-0.252144	1.117972
Cl259	Cl	0.645806	-0.503452	0.393177
Cl260	Cl	0.979139	-0.170118	0.726511
Cl261	Cl	1.312473	0.163215	1.059844
Cl262	Cl	0.962217	-0.932575	0.250311
Cl263	Cl	1.295550	-0.599242	0.583644
Cl264	Cl	1.628884	-0.265908	0.916978
Cl265	Cl	0.494524	-0.394337	0.502722
Cl266	Cl	0.827858	-0.061004	0.836056
Cl267	Cl	1.161191	0.272330	1.169389
Cl268	Cl	1.025620	-0.500641	0.930849
Cl269	Cl	1.358954	-0.167307	1.264183
Cl270	Cl	1.692287	0.166026	1.597516
Cl271	Cl	0.926294	-0.930408	0.401197
Cl272	Cl	1.259627	-0.597075	0.734530
Cl273	Cl	1.592960	-0.263741	1.067863
H274	H	0.633872	-0.401018	0.471879
H275	H	0.967205	-0.067685	0.805212
H276	H	1.300538	0.265648	1.138546
Cl277	Cl	0.494601	-0.462966	0.248279
Cl278	Cl	0.827934	-0.129632	0.581612
Cl279	Cl	1.161268	0.203701	0.914945
H280	H	0.633930	-0.435766	0.262545
H281	H	0.967264	-0.102432	0.595879
H282	H	1.300597	0.230901	0.929212
H283	H	1.114781	-0.241902	0.921414
H284	H	1.448115	0.091431	1.254747
H285	H	1.781448	0.424764	1.588080
