data_functionalizedCrystal
_audit_creation_method	'MofGen! by Chris Wilmer'
_symmetry_space_group_name_H-M	'P1'
_symmetry_Int_Tables_number	1
_symmetry_cell_setting	triclinic
loop_
_symmetry_equiv_pos_as_xyz
  x,y,z
_cell_length_a	19.121449
_cell_length_b	12.827893
_cell_length_c	12.827885
_cell_angle_alpha	89.980728
_cell_angle_beta	92.473889
_cell_angle_gamma	92.414809
loop_
_atom_site_label
_atom_site_type_symbol
_atom_site_fract_x
_atom_site_fract_y
_atom_site_fract_z
Zn1	Zn	-0.279577	-1.615334	0.573083
Zn2	Zn	0.053756	-1.282001	0.906416
Zn3	Zn	0.387090	-0.948667	1.239749
Zn4	Zn	-0.397043	-1.622650	0.390878
Zn5	Zn	-0.063709	-1.289317	0.724212
Zn6	Zn	0.269624	-0.955983	1.057545
Zn7	Zn	-0.279611	-1.440578	0.398354
Zn8	Zn	0.053722	-1.107244	0.731687
Zn9	Zn	0.387055	-0.773911	1.065021
Zn10	Zn	-0.396990	-1.447979	0.565582
Zn11	Zn	-0.063657	-1.114646	0.898915
Zn12	Zn	0.269676	-0.781313	1.232248
O13	O	-0.338305	-1.531635	0.481974
O14	O	-0.004972	-1.198302	0.815307
O15	O	0.328361	-0.864969	1.148641
O16	O	-0.295167	-1.762541	0.548923
O17	O	0.038167	-1.429208	0.882257
O18	O	0.371500	-1.095874	1.215590
O19	O	-0.381501	-1.598462	0.245632
O20	O	-0.048168	-1.265129	0.578965
O21	O	0.285165	-0.931795	0.912298
O22	O	-0.181323	-1.457600	0.427800
O23	O	0.152010	-1.124267	0.761133
O24	O	0.485343	-0.790933	1.094467
O25	O	-0.381468	-1.767916	0.415059
O26	O	-0.048135	-1.434583	0.748392
O27	O	0.285198	-1.101249	1.081725
O28	O	-0.181298	-1.585993	0.556172
O29	O	0.152035	-1.252660	0.889506
O30	O	0.485368	-0.919326	1.222839
O31	O	-0.295225	-1.464694	0.251124
O32	O	0.038108	-1.131361	0.584457
O33	O	0.371442	-0.798027	0.917791
O34	O	-0.295174	-1.295323	0.420527
O35	O	0.038159	-0.961990	0.753860
O36	O	0.371492	-0.628656	1.087193
O37	O	-0.381379	-1.470215	0.712815
O38	O	-0.048046	-1.136882	1.046148
O39	O	0.285288	-0.803548	1.379482
O40	O	-0.381412	-1.300761	0.543388
O41	O	-0.048079	-0.967428	0.876721
O42	O	0.285254	-0.634094	1.210055
O43	O	-0.295116	-1.593170	0.718326
O44	O	0.038217	-1.259837	1.051659
O45	O	0.371551	-0.926503	1.384993
O46	O	-0.495319	-1.605639	0.407785
O47	O	-0.161986	-1.272306	0.741119
O48	O	0.171348	-0.938972	1.074452
O49	O	-0.495281	-1.477309	0.536139
O50	O	-0.161947	-1.143976	0.869472
O51	O	0.171386	-0.810642	1.202806
C52	C	-0.338292	-1.260125	0.481955
C53	C	-0.004958	-0.926791	0.815288
C54	C	0.328375	-0.593458	1.148622
C55	C	-0.338303	-1.143972	0.481971
C56	C	-0.004970	-0.810639	0.815304
C57	C	0.328364	-0.477305	1.148637
C58	C	-0.520784	-1.543099	0.470360
C59	C	-0.187450	-1.209766	0.803693
C60	C	0.145883	-0.876433	1.137027
C61	C	-0.598849	-1.548099	0.465426
C62	C	-0.265515	-1.214766	0.798760
C63	C	0.067818	-0.881433	1.132093
C64	C	-0.635529	-1.483588	0.529880
C65	C	-0.302196	-1.150255	0.863213
C66	C	0.031137	-0.816922	1.196547
C67	C	-0.708880	-1.488291	0.525240
C68	C	-0.375546	-1.154958	0.858573
C69	C	-0.042213	-0.821624	1.191907
C70	C	-0.745548	-1.557511	0.456151
C71	C	-0.412215	-1.224177	0.789484
C72	C	-0.078881	-0.890844	1.122817
C73	C	-0.708862	-1.622024	0.391690
C74	C	-0.375529	-1.288691	0.725023
C75	C	-0.042196	-0.955358	1.058357
C76	C	-0.635513	-1.617316	0.396325
C77	C	-0.302180	-1.283982	0.729659
C78	C	0.031153	-0.950649	1.062992
C79	C	-0.967015	-1.575068	0.438810
C80	C	-0.633681	-1.241734	0.772143
C81	C	-0.300348	-0.908401	1.105476
C82	C	-1.040369	-1.579774	0.434181
C83	C	-0.707035	-1.246440	0.767515
C84	C	-0.373702	-0.913107	1.100848
C85	C	-1.040381	-1.446038	0.567730
C86	C	-0.707048	-1.112705	0.901064
C87	C	-0.373714	-0.779372	1.234397
C88	C	-0.967031	-1.441340	0.572364
C89	C	-0.633697	-1.108007	0.905698
C90	C	-0.300364	-0.774674	1.239031
C91	C	-0.930351	-1.505850	0.507900
C92	C	-0.597018	-1.172517	0.841233
C93	C	-0.263685	-0.839183	1.174566
C94	C	-0.820524	-1.562321	0.451409
C95	C	-0.487191	-1.228988	0.784742
C96	C	-0.153857	-0.895655	1.118075
C97	C	-0.855377	-1.501033	0.512637
C98	C	-0.522043	-1.167700	0.845970
C99	C	-0.188710	-0.834367	1.179304
C100	C	-0.338238	-1.531702	0.754549
C101	C	-0.004905	-1.198369	1.087882
C102	C	0.328429	-0.865035	1.421215
C103	C	-0.338209	-1.531731	0.870704
C104	C	-0.004876	-1.198397	1.204037
C105	C	0.328457	-0.865064	1.537370
C106	C	-0.155114	-1.520155	0.493657
C107	C	0.178219	-1.186821	0.826990
C108	C	0.511552	-0.853488	1.160323
C109	C	-0.077049	-1.515263	0.498635
C110	C	0.256284	-1.181929	0.831968
C111	C	0.589617	-0.848596	1.165302
C112	C	-0.338319	-1.804206	0.481994
C113	C	-0.004986	-1.470873	0.815327
C114	C	0.328347	-1.137540	1.148661
C115	C	-0.338325	-1.920360	0.482002
C116	C	-0.004992	-1.587026	0.815336
C117	C	0.328341	-1.253693	1.148669
C118	C	-0.381043	-1.094910	0.542664
C119	C	-0.047710	-0.761577	0.875998
C120	C	0.285624	-0.428243	1.209331
C121	C	-0.381055	-0.974861	0.542682
C122	C	-0.047722	-0.641527	0.876015
C123	C	0.285611	-0.308194	1.209348
C124	C	-0.338322	-1.531626	0.210463
C125	C	-0.004989	-1.198292	0.543797
C126	C	0.328345	-0.864959	0.877130
C127	C	-0.338153	-1.531787	0.094321
C128	C	-0.004819	-1.198454	0.427655
C129	C	0.328514	-0.865120	0.760988
C130	C	-0.295515	-1.592579	0.925216
C131	C	0.037818	-1.259246	1.258549
C132	C	0.371152	-0.925912	1.591883
C133	C	-0.295484	-1.592610	1.045268
C134	C	0.037849	-1.259276	1.378602
C135	C	0.371182	-0.925943	1.711935
H136	H	-0.605679	-1.427227	0.586144
H137	H	-0.272346	-1.093894	0.919478
H138	H	0.060988	-0.760560	1.252811
H139	H	-0.374709	-1.479694	1.047459
H140	H	-0.041376	-1.146361	1.380792
H141	H	0.291957	-0.813027	1.714126
H142	H	-0.301718	-1.097100	0.430026
H143	H	0.031615	-0.763766	0.763359
H144	H	0.364949	-0.430433	1.096693
Br145	Br	-0.399092	-1.444926	0.941043
Br146	Br	-0.065758	-1.111593	1.274376
Br147	Br	0.267575	-0.778260	1.607709
H148	H	-0.738742	-1.435750	0.577716
H149	H	-0.405409	-1.102416	0.911049
H150	H	-0.072075	-0.769083	1.244382
H151	H	-0.937177	-1.384976	0.628622
H152	H	-0.603843	-1.051643	0.961955
H153	H	-0.270510	-0.718309	1.295289
H154	H	-0.258935	-1.644708	1.092137
H155	H	0.074399	-1.311375	1.425470
H156	H	0.407732	-0.978041	1.758804
Br157	Br	-0.277338	-0.990686	0.395378
Br158	Br	0.055996	-0.657353	0.728711
Br159	Br	0.389329	-0.324019	1.062044
Br160	Br	-0.442021	-1.173023	0.629252
Br161	Br	-0.108688	-0.839690	0.962585
Br162	Br	0.224645	-0.506356	1.295919
Br163	Br	-0.585731	-1.704860	0.308839
Br164	Br	-0.252398	-1.371527	0.642172
Br165	Br	0.080935	-1.038194	0.975506
Br166	Br	-0.442053	-0.904528	0.629285
Br167	Br	-0.108720	-0.571195	0.962618
Br168	Br	0.224614	-0.237861	1.295952
Br169	Br	-0.234606	-1.679341	0.854879
Br170	Br	0.098728	-1.346008	1.188212
Br171	Br	0.432061	-1.012675	1.521545
H172	H	-1.070253	-1.393517	0.620213
H173	H	-0.736920	-1.060184	0.953546
H174	H	-0.403587	-0.726850	1.286879
Br175	Br	-1.090133	-1.673723	0.340414
Br176	Br	-0.756800	-1.340390	0.673747
Br177	Br	-0.423466	-1.007057	1.007080
Br178	Br	-0.917244	-1.662635	0.351339
Br179	Br	-0.583911	-1.329301	0.684672
Br180	Br	-0.250578	-0.995968	1.018005
H181	H	-0.738724	-1.678380	0.335431
H182	H	-0.405390	-1.345046	0.668765
H183	H	-0.072057	-1.011713	1.002098
H184	H	-0.825519	-1.444671	0.568886
H185	H	-0.492186	-1.111337	0.902219
H186	H	-0.158853	-0.778004	1.235552
H187	H	-0.850388	-1.618681	0.395157
H188	H	-0.517054	-1.285348	0.728490
H189	H	-0.183721	-0.952014	1.061824
