data_functionalizedCrystal
_audit_creation_method	'MofGen! by Chris Wilmer'
_symmetry_space_group_name_H-M	'P1'
_symmetry_Int_Tables_number	1
_symmetry_cell_setting	triclinic
loop_
_symmetry_equiv_pos_as_xyz
  x,y,z
_cell_length_a	14.044191
_cell_length_b	8.140239
_cell_length_c	9.065218
_cell_angle_alpha	89.998314
_cell_angle_beta	89.103831
_cell_angle_gamma	89.999659
loop_
_atom_site_label
_atom_site_type_symbol
_atom_site_fract_x
_atom_site_fract_y
_atom_site_fract_z
O1	O	1.260764	-0.136521	0.356124
O2	O	0.984684	-0.136542	0.343264
O3	O	1.128430	-0.136528	0.135684
O4	O	1.117017	-0.136536	0.563704
O5	O	1.128422	0.136699	0.135680
O6	O	0.984676	0.136685	0.343260
O7	O	1.260756	0.136706	0.356120
Zn8	Zn	1.122714	0.180076	0.349690
Zn9	Zn	1.122725	-0.179912	0.349694
O10	O	1.117009	0.136692	0.563700
C11	C	0.949317	0.000068	0.337636
C12	C	0.843947	0.000060	0.320855
C13	C	0.594419	0.000075	0.409191
C14	C	0.651026	0.000074	0.290199
C15	C	0.758377	0.000066	0.307260
C16	C	0.487058	0.000083	0.392132
C17	C	1.127329	0.000083	0.080574
C18	C	1.124050	0.000075	-0.083633
C19	C	1.296122	0.000092	0.361748
C20	C	1.401492	0.000089	0.378529
N21	N	1.122714	0.425759	0.349686
N22	N	1.122733	-0.425595	0.349687
C23	C	1.118110	0.000077	0.618810
C24	C	1.121390	0.000074	0.783016
H25	H	0.618866	-0.000039	0.175514
H26	H	0.626577	0.000068	0.523867
