data_functionalizedCrystal
_audit_creation_method	'MofGen! by Chris Wilmer'
_symmetry_space_group_name_H-M	'P1'
_symmetry_Int_Tables_number	1
_symmetry_cell_setting	triclinic
loop_
_symmetry_equiv_pos_as_xyz
  x,y,z
_cell_length_a	17.699083
_cell_length_b	10.723023
_cell_length_c	9.798715
_cell_angle_alpha	90.002139
_cell_angle_beta	89.997653
_cell_angle_gamma	83.875281
loop_
_atom_site_label
_atom_site_type_symbol
_atom_site_fract_x
_atom_site_fract_y
_atom_site_fract_z
O1	O	1.005070	0.157791	0.113297
O2	O	1.505070	0.657791	0.613297
O3	O	0.784821	0.178321	0.113341
O4	O	1.284821	0.678321	0.613341
O5	O	0.900026	-0.013607	0.113312
O6	O	1.400026	0.486393	0.613312
O7	O	0.889865	0.349720	0.113325
O8	O	1.389865	0.849720	0.613325
O9	O	0.900018	-0.013607	-0.113670
O10	O	1.400018	0.486393	0.386330
O11	O	0.784813	0.178321	-0.113641
O12	O	1.284813	0.678321	0.386359
O13	O	1.005061	0.157791	-0.113686
O14	O	1.505061	0.657791	0.386314
Zn15	Zn	0.894936	0.168056	-0.149702
Zn16	Zn	1.394936	0.668056	0.350298
Zn17	Zn	0.894947	0.168056	0.149357
Zn18	Zn	1.394947	0.668056	0.649357
O19	O	0.889856	0.349719	-0.113657
O20	O	1.389856	0.849719	0.386343
C21	C	0.756615	0.177585	-0.000145
C22	C	1.256615	0.677585	0.499855
C23	C	0.672583	0.175379	-0.000128
C24	C	1.172583	0.675379	0.499872
C25	C	0.624673	0.288036	-0.000124
C26	C	1.124673	0.788036	0.499876
C27	C	0.545716	0.285955	-0.000142
C28	C	1.045716	0.785955	0.499858
C29	C	0.514672	0.171215	-0.000153
C30	C	1.014672	0.671215	0.499847
C31	C	0.562589	0.058549	-0.000161
C32	C	1.062589	0.558549	0.499839
C33	C	0.641544	0.060631	-0.000153
C34	C	1.141544	0.560631	0.499847
C35	C	0.244173	0.050148	-0.000195
C36	C	0.744173	0.550148	0.499805
C37	C	0.165212	0.048075	-0.000199
C38	C	0.665212	0.548075	0.499801
C39	C	0.148345	0.275473	-0.000184
C40	C	0.648345	0.775473	0.499816
C41	C	0.227300	0.277555	-0.000176
C42	C	0.727300	0.777555	0.499824
C43	C	0.275210	0.164889	-0.000191
C44	C	0.775210	0.664889	0.499809
C45	C	0.360823	0.167147	-0.000174
C46	C	0.860823	0.667147	0.499826
C47	C	0.429060	0.168956	-0.000160
C48	C	0.929060	0.668956	0.499840
C49	C	0.899283	-0.060094	-0.000177
C50	C	1.399283	0.439906	0.499823
C51	C	0.897071	-0.198611	-0.000173
C52	C	1.397071	0.301389	0.499827
C53	C	0.896089	-0.260359	0.117413
C54	C	1.396089	0.239641	0.617413
C55	C	0.893803	-0.403523	0.117421
C56	C	1.393803	0.096477	0.617421
C57	C	1.033267	0.158527	-0.000197
C58	C	1.533267	0.658527	0.499803
C59	C	1.117299	0.160734	-0.000205
C60	C	1.617299	0.660734	0.499795
C61	C	0.890600	0.396206	-0.000164
C62	C	1.390600	0.896206	0.499836
C63	C	0.892812	0.534723	-0.000160
C64	C	1.392812	1.034723	0.499840
N65	N	0.894933	0.168055	-0.353801
N66	N	1.394933	0.668055	0.146199
C67	C	0.943305	0.087118	-0.421590
C68	C	1.443305	0.587118	0.078410
C69	C	0.943317	0.087113	-0.578753
C70	C	1.443317	0.587113	-0.078753
N71	N	0.894955	0.168048	0.353457
N72	N	1.394955	0.668048	0.853457
H73	H	0.252572	0.370988	-0.000160
H74	H	0.752572	0.870988	0.499840
O75	O	0.998132	-0.004708	-0.344365
O76	O	1.498132	0.495292	0.155635
H77	H	0.989510	0.009692	-0.233042
H78	H	1.489510	0.509692	0.266958
O79	O	0.897216	-0.190001	0.250760
O80	O	1.397216	0.309999	0.750760
H81	H	0.845322	-0.203624	0.310130
H82	H	1.345322	0.296376	0.810130
H83	H	0.283172	-0.041591	-0.000209
H84	H	0.783172	0.458409	0.499791
H85	H	0.892962	-0.456626	0.218090
H86	H	1.392962	0.043374	0.718090
H87	H	0.853543	0.237349	-0.588256
H88	H	1.353543	0.737349	-0.088256
H89	H	0.893660	-0.412184	-0.100835
H90	H	1.393660	0.087816	0.399165
O91	O	0.840090	0.259862	-0.431017
O92	O	1.340090	0.759862	0.068983
H93	H	0.802972	0.207557	-0.496139
H94	H	1.302972	0.707557	0.003861
H95	H	0.896214	-0.251733	-0.100836
H96	H	1.396214	0.248267	0.399164
H97	H	0.984733	0.017824	-0.637049
H98	H	1.484733	0.517824	-0.137049
H99	H	0.649942	0.381471	-0.000113
H100	H	1.149942	0.881471	0.499887
H101	H	0.109327	0.367211	-0.000179
H102	H	0.609327	0.867211	0.499821
O103	O	0.494038	0.407463	-0.000138
O104	O	0.994038	0.907463	0.499862
H105	H	0.528890	0.487598	-0.000113
H106	H	1.028890	0.987598	0.499887
H107	H	0.139939	-0.045366	-0.000210
H108	H	0.639939	0.454634	0.499790
O109	O	0.529111	-0.065212	-0.000179
O110	O	1.029111	0.434788	0.499821
H111	H	0.466160	-0.047736	-0.000171
H112	H	0.966160	0.452264	0.499829
O113	O	0.693225	-0.060877	-0.000153
O114	O	1.193225	0.439123	0.499847
H115	H	0.658375	-0.141014	-0.000150
H116	H	1.158375	0.358986	0.499850
