data_functionalizedCrystal
_audit_creation_method	'MofGen! by Chris Wilmer'
_symmetry_space_group_name_H-M	'P1'
_symmetry_Int_Tables_number	1
_symmetry_cell_setting	triclinic
loop_
_symmetry_equiv_pos_as_xyz
  x,y,z
_cell_length_a	19.121063
_cell_length_b	19.121102
_cell_length_c	21.395356
_cell_angle_alpha	87.537776
_cell_angle_beta	92.411537
_cell_angle_gamma	90.126902
loop_
_atom_site_label
_atom_site_type_symbol
_atom_site_fract_x
_atom_site_fract_y
_atom_site_fract_z
Zn1	Zn	-0.324921	1.059882	-0.406899
Zn2	Zn	0.175079	1.559882	0.093101
Zn3	Zn	-0.442155	1.054780	-0.306385
Zn4	Zn	0.057845	1.554780	0.193615
Zn5	Zn	-0.319930	0.942636	-0.297490
Zn6	Zn	0.180070	1.442636	0.202510
Zn7	Zn	-0.437111	0.937607	-0.406480
Zn8	Zn	0.062889	1.437607	0.093520
O9	O	-0.381029	0.998726	-0.354313
O10	O	0.118971	1.498726	0.145687
O11	O	-0.344672	1.157311	-0.397464
O12	O	0.155328	1.657311	0.102536
O13	O	-0.425964	1.039873	-0.217527
O14	O	0.074036	1.539873	0.282473
O15	O	-0.222489	0.962429	-0.308456
O16	O	0.277511	1.462429	0.191544
O17	O	-0.430803	1.153562	-0.323617
O18	O	0.069197	1.653562	0.176383
O19	O	-0.226155	1.048569	-0.388839
O20	O	0.273845	1.548569	0.111161
O21	O	-0.336166	0.957481	-0.210992
O22	O	0.163834	1.457481	0.289008
O23	O	-0.331275	0.843863	-0.308049
O24	O	0.168725	1.343863	0.191951
O25	O	-0.422207	0.953858	-0.494214
O26	O	0.077793	1.453858	0.005786
O27	O	-0.417367	0.840169	-0.388124
O28	O	0.082633	1.340169	0.111876
O29	O	-0.339781	1.043693	-0.494522
O30	O	0.160219	1.543693	0.005478
O31	O	-0.539590	1.034997	-0.323210
O32	O	-0.039590	1.534997	0.176790
O33	O	-0.535884	0.948911	-0.396749
O34	O	-0.035884	1.448911	0.103251
C35	C	-0.373233	0.816578	-0.347076
C36	C	0.126767	1.316578	0.152924
C37	C	-0.369914	0.738654	-0.343996
C38	C	0.130086	1.238654	0.156004
C39	C	-0.413247	0.700137	-0.384178
C40	C	0.086753	1.200137	0.115822
C41	C	-0.410119	0.626919	-0.381287
C42	C	0.089881	1.126919	0.118713
C43	C	-0.363663	0.592220	-0.338208
C44	C	0.136337	1.092220	0.161792
C45	C	-0.320325	0.630742	-0.298024
C46	C	0.179675	1.130742	0.201976
C47	C	-0.323450	0.703959	-0.300919
C48	C	0.176550	1.203959	0.199081
C49	C	-0.351980	0.371248	-0.327386
C50	C	0.148020	0.871248	0.172614
C51	C	-0.348860	0.298026	-0.324493
C52	C	0.151140	0.798026	0.175507
C53	C	-0.438654	0.294208	-0.407756
C54	C	0.061346	0.794208	0.092244
C55	C	-0.441777	0.367426	-0.410645
C56	C	0.058223	0.867426	0.089355
C57	C	-0.398437	0.405943	-0.370463
C58	C	0.101563	0.905943	0.129537
C59	C	-0.360466	0.517379	-0.335250
C60	C	0.139534	1.017379	0.164750
C61	C	-0.401630	0.480782	-0.373425
C62	C	0.098370	0.980782	0.126575
C63	C	-0.563175	0.990874	-0.360914
C64	C	-0.063175	1.490874	0.139086
C65	C	-0.641100	0.987578	-0.363761
C66	C	-0.141100	1.487578	0.136239
C67	C	-0.679617	1.030886	-0.326845
C68	C	-0.179617	1.530886	0.173155
C69	C	-0.752836	1.027791	-0.329527
C70	C	-0.252836	1.527791	0.170473
C71	C	-0.787537	0.981384	-0.369121
C72	C	-0.287537	1.481384	0.130879
C73	C	-0.749015	0.938075	-0.406041
C74	C	-0.249015	1.438075	0.093959
C75	C	-0.675797	0.941174	-0.403362
C76	C	-0.175797	1.441174	0.096638
C77	C	-1.008512	0.969786	-0.379126
C78	C	-0.508512	1.469786	0.120874
C79	C	-1.081734	0.966689	-0.381800
C80	C	-0.581734	1.466689	0.118200
C81	C	-1.085551	1.056406	-0.305286
C82	C	-0.585551	1.556406	0.194714
C83	C	-1.012332	1.059498	-0.302608
C84	C	-0.512332	1.559498	0.197392
C85	C	-0.973816	1.016191	-0.339531
C86	C	-0.473816	1.516191	0.160469
C87	C	-0.862379	0.978218	-0.371862
C88	C	-0.362379	1.478218	0.128138
C89	C	-0.898976	1.019362	-0.336793
C90	C	-0.398976	1.519362	0.163207
C91	C	-0.198174	1.006629	-0.347702
C92	C	0.301826	1.506629	0.152298
C93	C	-0.120251	1.009996	-0.344884
C94	C	0.379749	1.509996	0.155116
C95	C	-0.380988	0.998783	-0.517737
C96	C	0.119012	1.498783	-0.017737
C97	C	-0.380971	0.998808	-0.587379
C98	C	0.119029	1.498808	-0.087379
C99	C	-0.388857	1.181585	-0.361579
C100	C	0.111143	1.681585	0.138421
C101	C	-0.392193	1.259509	-0.364675
C102	C	0.107807	1.759509	0.135325
C103	C	-0.334208	0.955918	-0.616680
C104	C	0.165792	1.455918	-0.116680
C105	C	-0.334195	0.955916	-0.682114
C106	C	0.165805	1.455916	-0.182114
C107	C	-0.380938	0.998817	-0.718246
C108	C	0.119062	1.498817	-0.218246
C109	C	-0.427709	1.041709	-0.688938
C110	C	0.072291	1.541709	-0.188938
C111	C	-0.427726	1.041704	-0.623505
C112	C	0.072274	1.541704	-0.123505
C113	C	-0.389149	1.061748	-0.824637
C114	C	0.110851	1.561748	-0.324637
C115	C	-0.389127	1.061754	-0.890069
C116	C	0.110873	1.561754	-0.390069
C117	C	-0.380891	0.998830	-0.920066
C118	C	0.119109	1.498830	-0.420066
C119	C	-0.372661	0.935899	-0.884622
C120	C	0.127339	1.435899	-0.384622
C121	C	-0.372678	0.935895	-0.819188
C122	C	0.127322	1.435895	-0.319188
C123	C	-0.380925	0.998826	-0.789199
C124	C	0.119075	1.498826	-0.289199
C125	C	-0.334112	0.955935	-1.020318
C126	C	0.165888	1.455935	-0.520318
C127	C	-0.334104	0.955932	-1.085755
C128	C	0.165896	1.455932	-0.585755
C129	C	-0.427614	1.041731	-1.092577
C130	C	0.072386	1.541731	-0.592577
C131	C	-0.427626	1.041728	-1.027142
C132	C	0.072374	1.541728	-0.527142
C133	C	-0.380871	0.998831	-0.991017
C134	C	0.119129	1.498831	-0.491017
C135	C	-0.381022	0.998712	-0.191525
C136	C	0.118978	1.498712	0.308475
C137	C	-0.380847	0.998832	-0.121882
C138	C	0.119153	1.498832	0.378118
H139	H	-0.473937	0.262841	-0.440471
H140	H	0.026063	0.762841	0.059529
H141	H	-0.282496	0.602484	-0.262951
H142	H	0.217504	1.102484	0.237049
H143	H	-0.296139	0.920986	-0.587270
H144	H	0.203861	1.420986	-0.087270
C145	C	-1.119904	0.915640	-0.425363
C146	C	-0.619904	1.415640	0.074637
N147	N	-1.148653	0.877193	-0.458174
N148	N	-0.648653	1.377193	0.041826
C149	C	-0.398214	1.130973	-0.791647
C150	C	0.101786	1.630973	-0.291647
N151	N	-0.405043	1.183111	-0.766801
N152	N	0.094957	1.683111	-0.266801
H153	H	-0.870721	1.057149	-0.304558
H154	H	-0.370721	1.557149	0.195442
C155	C	-0.304309	0.413606	-0.283181
C156	C	0.195691	0.913606	0.216819
N157	N	-0.268402	0.445513	-0.249881
N158	N	0.231598	0.945513	0.250119
H159	H	-0.311022	0.269777	-0.289417
H160	H	0.188978	0.769777	0.210583
H161	H	-0.465671	1.076663	-1.121995
H162	H	0.034329	1.576663	-0.621995
C163	C	-0.492886	0.405590	-0.458032
C164	C	0.007114	0.905590	0.041968
N165	N	-0.531385	0.434335	-0.493721
N166	N	-0.031385	0.934335	0.006279
C167	C	-0.363632	0.866672	-0.780202
C168	C	0.136368	1.366672	-0.280202
N169	N	-0.356823	0.814531	-0.750838
N170	N	0.143177	1.314531	-0.250838
C171	C	-0.479045	1.088935	-0.994911
C172	C	0.020955	1.588935	-0.494911
N173	N	-0.517772	1.124501	-0.970634
N174	N	-0.017772	1.624501	-0.470634
C175	C	-0.479156	1.088903	-0.591273
C176	C	0.020844	1.588903	-0.091273
N177	N	-0.517889	1.124460	-0.566996
N178	N	-0.017889	1.624460	-0.066996
H179	H	-0.890640	0.940432	-0.404098
H180	H	-0.390640	1.440432	0.095902
C181	C	-0.633429	0.893533	-0.443973
C182	C	-0.133429	1.393533	0.056027
N183	N	-0.601518	0.857649	-0.474564
N184	N	-0.101518	1.357649	0.025436
C185	C	-0.457802	0.584553	-0.425479
C186	C	0.042198	1.084553	0.074521
N187	N	-0.493723	0.552642	-0.458764
N188	N	0.006277	1.052642	0.041236
C189	C	-0.275782	0.746327	-0.256714
C190	C	0.224218	1.246327	0.243286
N191	N	-0.239876	0.778238	-0.223418
N192	N	0.260124	1.278238	0.276582
H193	H	-0.651369	1.068672	-0.294600
H194	H	-0.151369	1.568672	0.205400
C195	C	-0.363607	0.866677	-0.917613
C196	C	0.136393	1.366677	-0.417613
N197	N	-0.356789	0.814540	-0.942465
N198	N	0.143211	1.314540	-0.442465
H199	H	-0.439452	0.509037	-0.408502
H200	H	0.060548	1.009037	0.091498
C201	C	-0.282656	0.908750	-1.117985
C202	C	0.217344	1.408750	-0.617985
N203	N	-0.243903	0.873214	-1.142261
N204	N	0.256097	1.373214	-0.642261
C205	C	-0.795202	1.075428	-0.288912
C206	C	-0.295202	1.575428	0.211088
N207	N	-0.827111	1.111310	-0.258318
N208	N	-0.327111	1.611310	0.241682
C209	C	-0.282748	0.908736	-0.714352
C210	C	0.217252	1.408736	-0.214352
N211	N	-0.243996	0.873202	-0.738632
N212	N	0.256004	1.373202	-0.238632
H213	H	-0.296042	0.921006	-0.990903
H214	H	0.203958	1.421006	-0.490903
C215	C	-0.464353	0.738299	-0.431568
C216	C	0.035647	1.238299	0.068432
N217	N	-0.502846	0.767041	-0.467265
N218	N	-0.002846	1.267041	0.032735
C219	C	-0.787188	0.887025	-0.449593
C220	C	-0.287188	1.387025	0.050407
N221	N	-0.815939	0.848570	-0.482395
N222	N	-0.315939	1.348570	0.017605
H223	H	-0.395825	1.112996	-0.918923
H224	H	0.104175	1.612996	-0.418923
C225	C	-0.974166	1.110531	-0.259035
C226	C	-0.474166	1.610531	0.240965
N227	N	-0.945419	1.148961	-0.226206
N228	N	-0.445419	1.648961	0.273794
H229	H	-0.465767	1.076638	-0.718361
H230	H	0.034233	1.576638	-0.218361
H231	H	-0.977158	0.934523	-0.409188
H232	H	-0.477158	1.434523	0.090812
C233	C	-1.127924	1.104042	-0.264677
C234	C	-0.627924	1.604042	0.235323
N235	N	-1.159840	1.139925	-0.234089
N236	N	-0.659840	1.639925	0.265911
H237	H	-0.322643	0.489119	-0.300175
H238	H	0.177357	0.989119	0.199825
