data_functionalizedCrystal
_audit_creation_method	'MofGen! by Chris Wilmer'
_symmetry_space_group_name_H-M	'P1'
_symmetry_Int_Tables_number	1
_symmetry_cell_setting	triclinic
loop_
_symmetry_equiv_pos_as_xyz
  x,y,z
_cell_length_a	15.944551
_cell_length_b	16.053833
_cell_length_c	16.974813
_cell_angle_alpha	90.768716
_cell_angle_beta	83.447177
_cell_angle_gamma	87.111190
loop_
_atom_site_label
_atom_site_type_symbol
_atom_site_fract_x
_atom_site_fract_y
_atom_site_fract_z
O1	O	1.110939	0.076011	0.098723
O2	O	0.866334	0.076879	0.111258
O3	O	0.995808	0.068686	-0.009780
O4	O	0.981466	0.084204	0.219761
O5	O	1.002102	-0.069772	-0.003854
O6	O	0.872629	-0.061580	0.117185
O7	O	1.117233	-0.062447	0.104649
Zn8	Zn	0.995930	-0.083997	0.111858
Zn9	Zn	0.987637	0.098428	0.104050
O10	O	0.987760	-0.054254	0.225688
C11	C	0.838190	0.007617	0.113701
C12	C	0.744950	0.007519	0.112140
C13	C	0.998527	-0.002527	-0.036191
C14	C	0.997240	-0.008438	-0.123715
N15	N	1.001596	-0.208496	0.117186
C16	C	0.530432	0.002179	0.033386
C17	C	0.466152	0.072918	0.067035
C18	C	0.574237	0.007319	0.109318
C19	C	0.472380	-0.063589	0.072896
C20	C	0.409336	0.007121	0.106586
C21	C	0.511182	0.078116	0.142986
C22	C	0.517419	-0.058454	0.148838
C23	C	0.453155	0.012306	0.182542
C24	C	0.669232	0.007433	0.110889
C25	C	0.314342	0.007013	0.105021
C26	C	1.145378	0.006816	0.102206
C27	C	1.238617	0.006919	0.103767
C28	C	1.030734	-0.730268	0.144698
C29	C	1.026775	-0.643114	0.140965
C30	C	0.974064	-0.602766	0.091245
C31	C	0.925303	-0.649577	0.045260
C32	C	0.929258	-0.736729	0.048998
C33	C	0.956790	-0.342459	0.074939
C34	C	0.952841	-0.255301	0.071203
C35	C	1.054312	-0.248844	0.166910
C36	C	1.058266	-0.335998	0.170639
C37	C	1.009502	-0.382801	0.124658
N38	N	0.970017	-0.513681	0.087426
N39	N	1.013544	-0.471885	0.128481
N40	N	0.981978	0.222927	0.098715
C41	C	0.993206	0.064258	-0.168059
C42	C	0.991992	0.058701	-0.250296
C43	C	0.994818	-0.019552	-0.288188
C44	C	0.998849	-0.092254	-0.243837
C45	C	1.000057	-0.086696	-0.161601
C46	C	0.991567	-0.044267	-0.533791
C47	C	0.990361	-0.049819	-0.616034
C48	C	0.983503	0.101136	-0.622487
C49	C	0.984716	0.106687	-0.540250
C50	C	0.988743	0.033986	-0.495905
N51	N	0.993579	-0.025234	-0.372248
N52	N	0.989975	0.039668	-0.411846
C53	C	0.985041	0.016960	0.252098
C54	C	0.986327	0.022877	0.339621
H55	H	0.564032	-0.001997	-0.029636
C56	C	0.867989	-0.605926	-0.008742
C57	C	0.826120	-0.665571	-0.048196
C58	C	0.773308	-0.625393	-0.097944
H59	H	0.900934	-0.574390	-0.046529
H60	H	0.827607	-0.569754	0.022069
H61	H	0.866496	-0.701728	-0.079005
H62	H	0.793159	-0.697110	-0.010429
H63	H	0.732926	-0.589221	-0.067133
H64	H	0.806260	-0.593858	-0.135726
H65	H	0.744888	-0.665855	-0.124714
C66	C	0.876467	-0.787658	-0.000977
C67	C	0.929892	-0.841329	-0.052177
C68	C	0.881286	-0.888263	-0.098216
H69	H	0.844499	-0.751248	-0.031195
H70	H	0.839231	-0.819513	0.032746
H71	H	0.967114	-0.809477	-0.085897
H72	H	0.961861	-0.877757	-0.021980
H73	H	0.844050	-0.920118	-0.064493
H74	H	0.849320	-0.851847	-0.128429
H75	H	0.917527	-0.924690	-0.132956
C76	C	0.547452	-0.132483	0.195042
C77	C	0.506783	-0.127765	0.272680
C78	C	0.534423	-0.195960	0.315255
H79	H	0.606825	-0.131638	0.196194
H80	H	0.534398	-0.182793	0.170111
H81	H	0.519842	-0.077469	0.297605
H82	H	0.447410	-0.128621	0.271552
H83	H	0.521370	-0.246270	0.290324
H84	H	0.593796	-0.195110	0.316401
H85	H	0.506828	-0.192773	0.367934
C86	C	0.987697	0.137725	-0.298314
C87	C	0.985528	0.207444	-0.247535
C88	C	0.981599	0.280258	-0.291744
H89	H	0.938124	0.139253	-0.324545
H90	H	1.036091	0.138303	-0.336513
H91	H	0.937139	0.206867	-0.209350
H92	H	1.035096	0.205944	-0.221303
H93	H	1.029993	0.280836	-0.329942
H94	H	0.932026	0.281777	-0.317972
H95	H	0.980135	0.327571	-0.257297
C96	C	0.993387	-0.134862	-0.657024
C97	C	0.997149	-0.197342	-0.600586
C98	C	0.999928	-0.275688	-0.638315
H99	H	1.042029	-0.140698	-0.694973
H100	H	0.944065	-0.139794	-0.682943
H101	H	1.046466	-0.192412	-0.574679
H102	H	0.948512	-0.191534	-0.562634
H103	H	0.950606	-0.280621	-0.664234
H104	H	1.048570	-0.281515	-0.676264
H105	H	1.002472	-0.318090	-0.600027
H106	H	1.066478	-0.605009	0.178408
H107	H	1.003330	-0.145893	-0.125494
H108	H	0.982416	0.170409	-0.509404
H109	H	0.443556	0.128462	0.032449
C110	C	0.534313	0.158019	0.182416
C111	C	0.622041	0.157217	0.183367
C112	C	0.643384	0.230813	0.219671
H113	H	0.507229	0.161862	0.235258
H114	H	0.516377	0.204648	0.153544
H115	H	0.639968	0.110600	0.212240
H116	H	0.649146	0.153387	0.130536
H117	H	0.625448	0.277442	0.190799
H118	H	0.616294	0.234650	0.272510
H119	H	0.702909	0.230282	0.220314
H120	H	0.990910	0.127980	-0.137215
C121	C	1.088100	-0.773967	0.198624
C122	C	1.171867	-0.754229	0.176035
C123	C	1.224734	-0.794458	0.225703
H124	H	1.083588	-0.832586	0.194310
H125	H	1.071658	-0.756012	0.251956
H126	H	1.188304	-0.772189	0.122716
H127	H	1.176405	-0.695618	0.180353
H128	H	1.208292	-0.776503	0.279035
H129	H	1.220215	-0.853075	0.221385
H130	H	1.281574	-0.781066	0.210388
H131	H	0.419723	0.016609	0.245623
H132	H	0.980223	0.160326	-0.658601
H133	H	0.455055	-0.123474	0.043236
C134	C	0.995779	-0.123174	-0.485601
C135	C	0.924407	-0.123818	-0.429348
C136	C	0.928257	-0.196505	-0.384949
H137	H	1.045318	-0.124633	-0.459322
H138	H	0.997249	-0.170589	-0.519925
H139	H	0.922945	-0.076416	-0.395029
H140	H	0.874857	-0.122372	-0.455606
H141	H	0.929727	-0.243920	-0.419273
H142	H	0.977799	-0.197958	-0.358675
H143	H	0.879829	-0.196956	-0.346782
H144	H	1.101190	-0.368843	0.211126
H145	H	1.094012	-0.210728	0.204346
C146	C	0.903967	-0.393237	0.024874
C147	C	0.926539	-0.377437	-0.055470
C148	C	0.877904	-0.424213	-0.101616
H149	H	0.845765	-0.377999	0.038768
H150	H	0.913881	-0.450932	0.034169
H151	H	0.916619	-0.319755	-0.064761
H152	H	0.984733	-0.392679	-0.069389
H153	H	0.887817	-0.481907	-0.092321
H154	H	0.819704	-0.408971	-0.087715
H155	H	0.893217	-0.413505	-0.156134
H156	H	0.909912	-0.222452	0.030715
H157	H	1.001144	-0.155969	-0.274694
