data_functionalizedCrystal
_audit_creation_method	'MofGen! by Chris Wilmer'
_symmetry_space_group_name_H-M	'P1'
_symmetry_Int_Tables_number	1
_symmetry_cell_setting	triclinic
loop_
_symmetry_equiv_pos_as_xyz
  x,y,z
_cell_length_a	14.519709
_cell_length_b	14.519709
_cell_length_c	12.996460
_cell_angle_alpha	90.007090
_cell_angle_beta	89.999966
_cell_angle_gamma	83.680145
loop_
_atom_site_label
_atom_site_type_symbol
_atom_site_fract_x
_atom_site_fract_y
_atom_site_fract_z
O1	O	-1.223869	-0.120893	-0.085435
O2	O	-0.890535	0.212440	0.247898
O3	O	-0.557202	0.545774	0.581232
O4	O	-0.955392	-0.135129	-0.085467
O5	O	-0.622059	0.198204	0.247866
O6	O	-0.288725	0.531537	0.581200
O7	O	-1.096749	0.006227	-0.085441
O8	O	-0.763415	0.339561	0.247892
O9	O	-0.430082	0.672894	0.581226
O10	O	-1.082512	-0.262250	-0.085461
O11	O	-0.749179	0.071084	0.247872
O12	O	-0.415845	0.404417	0.581206
O13	O	-1.096734	0.006235	0.085693
O14	O	-0.763400	0.339568	0.419026
O15	O	-0.430067	0.672902	0.752360
O16	O	-0.955377	-0.135122	0.085667
O17	O	-0.622044	0.198212	0.419000
O18	O	-0.288710	0.531545	0.752334
O19	O	-1.223854	-0.120885	0.085699
O20	O	-0.890521	0.212448	0.419032
O21	O	-0.557187	0.545782	0.752365
Cu22	Cu	-1.089614	-0.128003	0.101309
Cu23	Cu	-0.756281	0.205331	0.434642
Cu24	Cu	-0.422948	0.538664	0.767975
Cu25	Cu	-1.089632	-0.128012	-0.101077
Cu26	Cu	-0.756298	0.205321	0.232256
Cu27	Cu	-0.422965	0.538655	0.565590
O28	O	-1.082497	-0.262242	0.085673
O29	O	-0.749164	0.071092	0.419006
O30	O	-0.415831	0.404425	0.752339
C31	C	-0.921025	-0.134462	0.000096
C32	C	-0.587691	0.198871	0.333429
C33	C	-0.254358	0.532205	0.666763
C34	C	-0.818643	-0.132474	0.000084
C35	C	-0.485310	0.200859	0.333418
C36	C	-0.151977	0.534193	0.666751
C37	C	-1.096078	0.040591	0.000126
C38	C	-0.762744	0.373924	0.333459
C39	C	-0.429411	0.707258	0.666793
C40	C	-1.094090	0.142972	0.000126
C41	C	-0.760756	0.476306	0.333460
C42	C	-0.427423	0.809639	0.666793
C43	C	-1.258221	-0.121553	0.000134
C44	C	-0.924888	0.211781	0.333467
C45	C	-0.591554	0.545114	0.666800
C46	C	-1.360602	-0.123541	0.000139
C47	C	-1.027269	0.209793	0.333472
C48	C	-0.693936	0.543126	0.666805
C49	C	-1.083168	-0.296605	0.000103
C50	C	-0.749835	0.036728	0.333437
C51	C	-0.416501	0.370061	0.666770
C52	C	-1.085156	-0.398987	0.000096
C53	C	-0.751823	-0.065653	0.333430
C54	C	-0.418490	0.267680	0.666763
C55	C	-0.443748	-0.125154	0.000132
C56	C	-0.110414	0.208179	0.333465
C57	C	0.222919	0.541512	0.666798
C58	C	-0.548056	-0.127187	0.000118
C59	C	-0.214722	0.206146	0.333451
C60	C	0.118611	0.539480	0.666785
C61	C	-0.631192	-0.128814	0.000107
C62	C	-0.297859	0.204519	0.333440
C63	C	0.035474	0.537853	0.666774
C64	C	-0.735507	-0.130847	0.000095
C65	C	-0.402173	0.202486	0.333429
C66	C	-0.068840	0.535820	0.666762
N67	N	-1.089609	-0.127996	0.243656
N68	N	-0.756275	0.205338	0.576989
N69	N	-0.422942	0.538671	0.910322
C70	C	-1.086770	0.517868	0.000099
C71	C	-0.753437	0.851201	0.333432
C72	C	-0.420103	1.184535	0.666766
C73	C	-1.088803	0.413560	0.000107
C74	C	-0.755469	0.746893	0.333440
C75	C	-0.422136	1.080227	0.666774
C76	C	-1.090430	0.330423	0.000114
C77	C	-0.757096	0.663757	0.333447
C78	C	-0.423763	0.997090	0.666780
C79	C	-1.092463	0.226109	0.000120
C80	C	-0.759129	0.559442	0.333453
C81	C	-0.425796	0.892776	0.666786
N82	N	-1.089644	-0.128012	-0.243424
N83	N	-0.756311	0.205322	0.089909
N84	N	-0.422978	0.538655	0.423243
C85	C	-1.089630	-0.128013	0.663470
C86	C	-0.756297	0.205320	0.996803
C87	C	-0.422964	0.538654	1.330137
C88	C	-1.089622	-0.128011	0.546665
C89	C	-0.756288	0.205322	0.879998
C90	C	-0.422955	0.538656	1.213332
C91	C	-1.089620	-0.128005	0.453567
C92	C	-0.756287	0.205328	0.786900
C93	C	-0.422953	0.538662	1.120233
C94	C	-1.089610	-0.128002	0.336754
C95	C	-0.756277	0.205332	0.670087
C96	C	-0.422944	0.538665	1.003421
