data_functionalizedCrystal
_audit_creation_method	'MofGen! by Chris Wilmer'
_symmetry_space_group_name_H-M	'P1'
_symmetry_Int_Tables_number	1
_symmetry_cell_setting	triclinic
loop_
_symmetry_equiv_pos_as_xyz
  x,y,z
_cell_length_a	21.295419
_cell_length_b	29.839131
_cell_length_c	21.295411
_cell_angle_alpha	89.971982
_cell_angle_beta	89.975461
_cell_angle_gamma	90.050029
loop_
_atom_site_label
_atom_site_type_symbol
_atom_site_fract_x
_atom_site_fract_y
_atom_site_fract_z
Zn1	Zn	0.962335	-0.178727	-0.355883
Zn2	Zn	1.212335	0.071273	-0.105883
Zn3	Zn	1.462335	0.321273	0.144117
Zn4	Zn	1.712335	0.571273	0.394117
Zn5	Zn	0.962229	-0.253843	-0.250597
Zn6	Zn	1.212229	-0.003843	-0.000597
Zn7	Zn	1.462229	0.246157	0.249403
Zn8	Zn	1.712229	0.496157	0.499403
Zn9	Zn	0.857058	-0.178747	-0.250628
Zn10	Zn	1.107058	0.071253	-0.000628
Zn11	Zn	1.357058	0.321253	0.249372
Zn12	Zn	1.607058	0.571253	0.499372
Zn13	Zn	0.857019	-0.253850	-0.355829
Zn14	Zn	1.107019	-0.003850	-0.105829
Zn15	Zn	1.357019	0.246150	0.144171
Zn16	Zn	1.607019	0.496150	0.394171
O17	O	0.909660	-0.216292	-0.303234
O18	O	1.159660	0.033708	-0.053234
O19	O	1.409660	0.283708	0.196766
O20	O	1.659660	0.533708	0.446766
O21	O	1.050410	-0.188680	-0.341927
O22	O	1.300410	0.061320	-0.091927
O23	O	1.550410	0.311320	0.158073
O24	O	1.800410	0.561320	0.408073
O25	O	0.948249	-0.243886	-0.162512
O26	O	1.198249	0.006114	0.087488
O27	O	1.448249	0.256114	0.337488
O28	O	1.698249	0.506114	0.587488
O29	O	0.871084	-0.115877	-0.264627
O30	O	1.121084	0.134123	-0.014627
O31	O	1.371084	0.384123	0.235373
O32	O	1.621084	0.634123	0.485373
O33	O	1.050332	-0.243867	-0.264573
O34	O	1.300332	0.006133	-0.014573
O35	O	1.550332	0.256133	0.235427
O36	O	1.800332	0.506133	0.485427
O37	O	0.948431	-0.115863	-0.341957
O38	O	1.198431	0.134137	-0.091957
O39	O	1.448431	0.384137	0.158043
O40	O	1.698431	0.634137	0.408043
O41	O	0.870981	-0.188714	-0.162535
O42	O	1.120981	0.061286	0.087465
O43	O	1.370981	0.311286	0.337465
O44	O	1.620981	0.561286	0.587465
O45	O	0.768963	-0.188721	-0.264574
O46	O	1.018963	0.061279	-0.014574
O47	O	1.268963	0.311279	0.235426
O48	O	1.518963	0.561279	0.485426
O49	O	0.871017	-0.243880	-0.443925
O50	O	1.121017	0.006120	-0.193925
O51	O	1.371017	0.256120	0.056075
O52	O	1.621017	0.506120	0.306075
O53	O	0.768935	-0.243899	-0.341864
O54	O	1.018935	0.006101	-0.091864
O55	O	1.268935	0.256101	0.158136
O56	O	1.518935	0.506101	0.408136
O57	O	0.948392	-0.188687	-0.443965
O58	O	1.198392	0.061313	-0.193965
O59	O	1.448392	0.311313	0.056035
O60	O	1.698392	0.561313	0.306035
O61	O	0.948211	-0.316711	-0.264520
O62	O	1.198211	-0.066711	-0.014520
O63	O	1.448211	0.183289	0.235480
O64	O	1.698211	0.433289	0.485480
O65	O	0.870914	-0.316716	-0.341834
O66	O	1.120914	-0.066716	-0.091834
O67	O	1.370914	0.183284	0.158166
O68	O	1.620914	0.433284	0.408166
C69	C	0.746108	-0.216313	-0.303217
C70	C	0.996108	0.033687	-0.053217
C71	C	1.246108	0.283687	0.196783
C72	C	1.496108	0.533687	0.446783
C73	C	0.676140	-0.216333	-0.303224
C74	C	0.926140	0.033667	-0.053224
C75	C	1.176140	0.283667	0.196776
C76	C	1.426140	0.533667	0.446776
C77	C	0.643337	-0.187644	-0.343564
C78	C	0.893337	0.062356	-0.093564
C79	C	1.143337	0.312356	0.156436
C80	C	1.393337	0.562356	0.406436
C81	C	0.577594	-0.187632	-0.343567
C82	C	0.827594	0.062368	-0.093567
C83	C	1.077594	0.312368	0.156433
C84	C	1.327594	0.562368	0.406433
C85	C	0.544658	-0.216317	-0.303235
C86	C	0.794658	0.033683	-0.053235
C87	C	1.044658	0.283683	0.196765
C88	C	1.294658	0.533683	0.446765
C89	C	0.577469	-0.245008	-0.262888
C90	C	0.827469	0.004992	-0.012888
C91	C	1.077469	0.254992	0.237112
C92	C	1.327469	0.504992	0.487112
C93	C	0.643211	-0.245016	-0.262882
C94	C	0.893211	0.004984	-0.012882
C95	C	1.143211	0.254984	0.237118
C96	C	1.393211	0.504984	0.487118
N97	N	0.441378	-0.255624	-0.298310
N98	N	0.691378	-0.005624	-0.048310
N99	N	0.941378	0.244376	0.201690
N100	N	1.191378	0.494376	0.451690
N101	N	0.378926	-0.255615	-0.298319
N102	N	0.628926	-0.005615	-0.048319
N103	N	0.878926	0.244385	0.201681
N104	N	1.128926	0.494385	0.451681
C105	C	0.346583	-0.216294	-0.303249
C106	C	0.596583	0.033706	-0.053249
C107	C	0.846583	0.283706	0.196751
C108	C	1.096583	0.533706	0.446751
N109	N	0.379051	-0.176981	-0.308183
N110	N	0.629051	0.073019	-0.058183
N111	N	0.879051	0.323019	0.191817
N112	N	1.129051	0.573019	0.441817
N113	N	0.441508	-0.176990	-0.308177
N114	N	0.691508	0.073010	-0.058177
N115	N	0.941508	0.323010	0.191823
N116	N	1.191508	0.573010	0.441823
C117	C	0.473372	-0.216311	-0.303237
C118	C	0.723372	0.033689	-0.053237
C119	C	0.973372	0.283689	0.196763
C120	C	1.223372	0.533689	0.446763
C121	C	0.242494	-0.187590	-0.343594
C122	C	0.492494	0.062410	-0.093594
C123	C	0.742494	0.312410	0.156406
C124	C	0.992494	0.562410	0.406406
C125	C	0.176750	-0.187577	-0.343592
C126	C	0.426750	0.062423	-0.093592
C127	C	0.676750	0.312423	0.156408
C128	C	0.926750	0.562423	0.406408
C129	C	0.176627	-0.244956	-0.262917
C130	C	0.426627	0.005044	-0.012917
C131	C	0.676627	0.255044	0.237083
C132	C	0.926627	0.505044	0.487083
C133	C	0.242369	-0.244965	-0.262915
C134	C	0.492369	0.005035	-0.012915
C135	C	0.742369	0.255035	0.237085
C136	C	0.992369	0.505035	0.487085
C137	C	0.275299	-0.216282	-0.303257
C138	C	0.525299	0.033718	-0.053257
C139	C	0.775299	0.283718	0.196743
C140	C	1.025299	0.533718	0.446743
C141	C	0.909564	-0.333014	-0.303181
C142	C	1.159564	-0.083014	-0.053181
C143	C	1.409564	0.166986	0.196819
C144	C	1.659564	0.416986	0.446819
C145	C	0.909581	-0.382949	-0.303180
C146	C	1.159581	-0.132949	-0.053180
C147	C	1.409581	0.117051	0.196820
C148	C	1.659581	0.367051	0.446820
C149	C	0.949926	-0.692550	-0.343558
C150	C	1.199926	-0.442550	-0.093558
C151	C	1.449926	-0.192550	0.156442
C152	C	1.699926	0.057450	0.406442
C153	C	0.949994	-0.880223	-0.343595
C154	C	1.199994	-0.630223	-0.093595
C155	C	1.449994	-0.380223	0.156405
C156	C	1.699994	-0.130223	0.406405
O157	O	0.984203	-0.904451	-0.377887
O158	O	1.234203	-0.654451	-0.127887
O159	O	1.484203	-0.404451	0.122113
O160	O	1.734203	-0.154451	0.372113
N161	N	0.909767	-0.903734	-0.303304
N162	N	1.159767	-0.653734	-0.053304
N163	N	1.409767	-0.403734	0.196696
N164	N	1.659767	-0.153734	0.446696
C165	C	0.869517	-0.880324	-0.263003
C166	C	1.119517	-0.630324	-0.013003
C167	C	1.369517	-0.380324	0.236997
C168	C	1.619517	-0.130324	0.486997
O169	O	0.835299	-0.904628	-0.228739
O170	O	1.085299	-0.654628	0.021261
O171	O	1.335299	-0.404628	0.271261
O172	O	1.585299	-0.154628	0.521261
C173	C	0.869446	-0.692651	-0.262969
C174	C	1.119446	-0.442651	-0.012969
C175	C	1.369446	-0.192651	0.237031
C176	C	1.619446	0.057349	0.487031
C177	C	0.909680	-0.669143	-0.303259
C178	C	1.159680	-0.419143	-0.053259
C179	C	1.409680	-0.169143	0.196741
C180	C	1.659680	0.080857	0.446741
C181	C	0.990156	-0.669041	-0.383844
C182	C	1.240156	-0.419041	-0.133844
C183	C	1.490156	-0.169041	0.116156
C184	C	1.740156	0.080959	0.366156
C185	C	0.990141	-0.622126	-0.383832
C186	C	1.240141	-0.372126	-0.133832
C187	C	1.490141	-0.122126	0.116168
C188	C	1.740141	0.127874	0.366168
C189	C	0.949895	-0.598719	-0.343533
C190	C	1.199895	-0.348719	-0.093533
C191	C	1.449895	-0.098719	0.156467
C192	C	1.699895	0.151281	0.406467
C193	C	0.909665	-0.622227	-0.303246
C194	C	1.159665	-0.372227	-0.053246
C195	C	1.409665	-0.122227	0.196754
C196	C	1.659665	0.127773	0.446754
C197	C	0.829194	-0.669242	-0.222672
C198	C	1.079194	-0.419242	0.027328
C199	C	1.329194	-0.169242	0.277328
C200	C	1.579194	0.080758	0.527328
C201	C	0.829178	-0.622321	-0.222668
C202	C	1.079178	-0.372321	0.027332
C203	C	1.329178	-0.122321	0.277332
C204	C	1.579178	0.127679	0.527332
C205	C	0.869412	-0.598813	-0.262958
C206	C	1.119412	-0.348813	-0.012958
C207	C	1.369412	-0.098813	0.237042
C208	C	1.619412	0.151187	0.487042
C209	C	0.869405	-0.551905	-0.262935
C210	C	1.119405	-0.301905	-0.012935
C211	C	1.369405	-0.051905	0.237065
C212	C	1.619405	0.198095	0.487065
N213	N	0.909632	-0.528394	-0.303227
N214	N	1.159632	-0.278394	-0.053227
N215	N	1.409632	-0.028394	0.196773
N216	N	1.659632	0.221606	0.446773
C217	C	0.949877	-0.551801	-0.343525
C218	C	1.199877	-0.301801	-0.093525
C219	C	1.449877	-0.051801	0.156475
C220	C	1.699877	0.198199	0.406475
C221	C	0.869558	-0.978854	-0.263023
C222	C	1.119558	-0.728854	-0.013023
C223	C	1.369558	-0.478854	0.236977
C224	C	1.619558	-0.228854	0.486977
C225	C	0.869577	-1.025772	-0.263031
C226	C	1.119577	-0.775772	-0.013031
C227	C	1.369577	-0.525772	0.236969
C228	C	1.619577	-0.275772	0.486969
C229	C	0.950053	-1.025668	-0.343624
C230	C	1.200053	-0.775668	-0.093624
C231	C	1.450053	-0.525668	0.156376
C232	C	1.700053	-0.275668	0.406376
C233	C	0.950037	-0.978749	-0.343613
C234	C	1.200037	-0.728749	-0.093613
C235	C	1.450037	-0.478749	0.156387
C236	C	1.700037	-0.228749	0.406387
C237	C	0.909785	-0.955343	-0.303315
C238	C	1.159785	-0.705343	-0.053315
C239	C	1.409785	-0.455343	0.196685
C240	C	1.659785	-0.205343	0.446685
C241	C	0.949843	-0.453275	-0.343496
C242	C	1.199843	-0.203275	-0.093496
C243	C	1.449843	0.046725	0.156504
C244	C	1.699843	0.296725	0.406504
C245	C	0.949826	-0.406356	-0.343478
C246	C	1.199826	-0.156356	-0.093478
C247	C	1.449826	0.093644	0.156522
C248	C	1.699826	0.343644	0.406522
C249	C	0.869348	-0.406464	-0.262888
C250	C	1.119348	-0.156464	-0.012888
C251	C	1.369348	0.093536	0.237112
C252	C	1.619348	0.343536	0.487112
C253	C	0.869367	-0.453379	-0.262903
C254	C	1.119367	-0.203379	-0.012903
C255	C	1.369367	0.046621	0.237097
C256	C	1.619367	0.296621	0.487097
C257	C	0.909616	-0.476784	-0.303212
C258	C	1.159616	-0.226784	-0.053212
C259	C	1.409616	0.023216	0.196788
C260	C	1.659616	0.273216	0.446788
O261	O	0.835209	-0.527648	-0.228667
O262	O	1.085209	-0.277648	0.021333
O263	O	1.335209	-0.027648	0.271333
O264	O	1.585209	0.222352	0.521333
O265	O	0.984081	-0.527489	-0.377795
O266	O	1.234081	-0.277489	-0.127795
O267	O	1.484081	-0.027489	0.122205
O268	O	1.734081	0.222511	0.372205
C269	C	0.949941	-0.739465	-0.343570
C270	C	1.199941	-0.489465	-0.093570
C271	C	1.449941	-0.239465	0.156430
C272	C	1.699941	0.010535	0.406430
C273	C	0.909710	-0.762974	-0.303283
C274	C	1.159710	-0.512974	-0.053283
C275	C	1.409710	-0.262974	0.196717
C276	C	1.659710	-0.012974	0.446717
C277	C	0.869465	-0.739567	-0.262984
C278	C	1.119465	-0.489567	-0.012984
C279	C	1.369465	-0.239567	0.237016
C280	C	1.619465	0.010433	0.487016
C281	C	0.909729	-0.809892	-0.303291
C282	C	1.159729	-0.559892	-0.053291
C283	C	1.409729	-0.309892	0.196709
C284	C	1.659729	-0.059892	0.446709
C285	C	0.949974	-0.833298	-0.343590
C286	C	1.199974	-0.583298	-0.093590
C287	C	1.449974	-0.333298	0.156410
C288	C	1.699974	-0.083298	0.406410
C289	C	0.990201	-0.809787	-0.383881
C290	C	1.240201	-0.559787	-0.133881
C291	C	1.490201	-0.309787	0.116119
C292	C	1.740201	-0.059787	0.366119
C293	C	0.990186	-0.762872	-0.383869
C294	C	1.240186	-0.512872	-0.133869
C295	C	1.490186	-0.262872	0.116131
C296	C	1.740186	-0.012872	0.366131
C297	C	0.829238	-0.763078	-0.222693
C298	C	1.079238	-0.513078	0.027307
C299	C	1.329238	-0.263078	0.277307
C300	C	1.579238	-0.013078	0.527307
C301	C	0.829257	-0.809994	-0.222708
C302	C	1.079257	-0.559994	0.027292
C303	C	1.329257	-0.309994	0.277292
C304	C	1.579257	-0.059994	0.527292
C305	C	0.869502	-0.833400	-0.263007
C306	C	1.119502	-0.583400	-0.013007
C307	C	1.369502	-0.333400	0.236993
C308	C	1.619502	-0.083400	0.486993
C309	C	1.073850	-0.216270	-0.303252
C310	C	1.323850	0.033730	-0.053252
C311	C	1.573850	0.283730	0.196748
C312	C	1.823850	0.533730	0.446748
C313	C	1.143818	-0.216261	-0.303260
C314	C	1.393818	0.033739	-0.053260
C315	C	1.643818	0.283739	0.196740
C316	C	1.893818	0.533739	0.446740
C317	C	0.909712	-0.216282	-0.467425
C318	C	1.159712	0.033718	-0.217425
C319	C	1.409712	0.283718	0.032575
C320	C	1.659712	0.533718	0.282575
C321	C	0.909735	-0.216278	-0.537393
C322	C	1.159735	0.033722	-0.287393
C323	C	1.409735	0.283722	-0.037393
C324	C	1.659735	0.533722	0.212607
C325	C	0.909774	-0.099113	-0.303301
C326	C	1.159774	0.150887	-0.053301
C327	C	1.409774	0.400887	0.196699
C328	C	1.659774	0.650887	0.446699
C329	C	0.909822	-0.049179	-0.303330
C330	C	1.159822	0.200821	-0.053330
C331	C	1.409822	0.450821	0.196670
C332	C	1.659822	0.700821	0.446670
C333	C	0.950022	-0.187538	-0.570281
C334	C	1.200022	0.062462	-0.320281
C335	C	1.450022	0.312462	-0.070281
C336	C	1.700022	0.562462	0.179719
C337	C	0.950021	-0.187519	-0.636024
C338	C	1.200021	0.062481	-0.386024
C339	C	1.450021	0.312481	-0.136024
C340	C	1.700021	0.562481	0.113976
C341	C	0.909739	-0.216247	-0.668875
C342	C	1.159739	0.033753	-0.418875
C343	C	1.409739	0.283753	-0.168875
C344	C	1.659739	0.533753	0.081125
C345	C	0.869444	-0.244989	-0.635979
C346	C	1.119444	0.005011	-0.385979
C347	C	1.369444	0.255011	-0.135979
C348	C	1.619444	0.505011	0.114021
C349	C	0.869442	-0.245005	-0.570238
C350	C	1.119442	0.004995	-0.320238
C351	C	1.369442	0.254995	-0.070238
C352	C	1.619442	0.504995	0.179762
N353	N	0.904878	-0.255549	-0.772085
N354	N	1.154878	-0.005549	-0.522085
N355	N	1.404878	0.244451	-0.272085
N356	N	1.654878	0.494451	-0.022085
N357	N	0.904884	-0.255533	-0.834536
N358	N	1.154884	-0.005533	-0.584536
N359	N	1.404884	0.244467	-0.334536
N360	N	1.654884	0.494467	-0.084536
C361	C	0.909743	-0.216202	-0.866950
C362	C	1.159743	0.033798	-0.616950
C363	C	1.409743	0.283798	-0.366950
C364	C	1.659743	0.533798	-0.116950
N365	N	0.914609	-0.176886	-0.834554
N366	N	1.164609	0.073114	-0.584554
N367	N	1.414609	0.323114	-0.334554
N368	N	1.664609	0.573114	-0.084554
N369	N	0.914606	-0.176903	-0.772096
N370	N	1.164606	0.073097	-0.522096
N371	N	1.414606	0.323097	-0.272096
N372	N	1.664606	0.573097	-0.022096
C373	C	0.909737	-0.216233	-0.740161
C374	C	1.159737	0.033767	-0.490161
C375	C	1.409737	0.283767	-0.240161
C376	C	1.659737	0.533767	0.009839
C377	C	0.950032	-0.187438	-0.971124
C378	C	1.200032	0.062562	-0.721124
C379	C	1.450032	0.312562	-0.471124
C380	C	1.700032	0.562562	-0.221124
C381	C	0.950027	-0.187418	-1.036868
C382	C	1.200027	0.062582	-0.786868
C383	C	1.450027	0.312582	-0.536868
C384	C	1.700027	0.562582	-0.286868
C385	C	0.869453	-0.244893	-1.036822
C386	C	1.119453	0.005107	-0.786822
C387	C	1.369453	0.255107	-0.536822
C388	C	1.619453	0.505107	-0.286822
C389	C	0.869455	-0.244909	-0.971079
C390	C	1.119455	0.005091	-0.721079
C391	C	1.369455	0.255091	-0.471079
C392	C	1.619455	0.505091	-0.221079
C393	C	0.909748	-0.216182	-0.938235
C394	C	1.159748	0.033818	-0.688235
C395	C	1.409748	0.283818	-0.438235
C396	C	1.659748	0.533818	-0.188235
C397	C	0.909644	-0.216269	-0.139683
C398	C	1.159644	0.033731	0.110317
C399	C	1.409644	0.283731	0.360317
C400	C	1.659644	0.533731	0.610317
C401	C	0.909744	-0.216146	-0.069715
C402	C	1.159744	0.033854	0.180285
C403	C	1.409744	0.283854	0.430285
C404	C	1.659744	0.533854	0.680285
H405	H	0.550648	-0.268363	-0.230049
H406	H	0.800648	-0.018363	0.019951
H407	H	1.050648	0.231637	0.269951
H408	H	1.300648	0.481637	0.519951
H409	H	0.669919	-0.268379	-0.230031
H410	H	0.919919	-0.018379	0.019969
H411	H	1.169919	0.231621	0.269969
H412	H	1.419919	0.481621	0.519969
H413	H	0.550880	-0.164268	-0.376415
H414	H	0.800880	0.085732	-0.126415
H415	H	1.050880	0.335732	0.123585
H416	H	1.300880	0.585732	0.373585
F417	F	0.141839	-0.157038	-0.386528
F418	F	0.391839	0.092962	-0.136528
F419	F	0.641839	0.342962	0.113472
F420	F	0.891839	0.592962	0.363472
H421	H	0.982827	-0.164113	-0.662807
H422	H	1.232827	0.085887	-0.412807
H423	H	1.482827	0.335887	-0.162807
H424	H	1.732827	0.585887	0.087193
F425	F	0.277543	-0.157061	-0.386526
F426	F	0.527543	0.092939	-0.136526
F427	F	0.777543	0.342939	0.113474
F428	F	1.027543	0.592939	0.363474
H429	H	0.149810	-0.268312	-0.230078
H430	H	0.399810	-0.018312	0.019922
H431	H	0.649810	0.231688	0.269922
H432	H	0.899810	0.481688	0.519922
H433	H	0.836648	-0.268279	-1.063569
H434	H	1.086648	-0.018279	-0.813569
H435	H	1.336648	0.231721	-0.563569
H436	H	1.586648	0.481721	-0.313569
H437	H	0.982823	-1.044734	-0.376436
H438	H	1.232823	-0.794734	-0.126436
H439	H	1.482823	-0.544734	0.123564
H440	H	1.732823	-0.294734	0.373564
F441	F	0.826762	-1.050787	-0.220142
F442	F	1.076762	-0.800787	0.029858
F443	F	1.326762	-0.550787	0.279858
F444	F	1.576762	-0.300787	0.529858
H445	H	0.269078	-0.268329	-0.230068
H446	H	0.519078	-0.018329	0.019932
H447	H	0.769078	0.231671	0.269932
H448	H	1.019078	0.481671	0.519932
H449	H	0.982831	-0.164146	-0.543543
H450	H	1.232831	0.085854	-0.293543
H451	H	1.482831	0.335854	-0.043543
H452	H	1.732831	0.585854	0.206457
H453	H	0.836644	-0.268379	-0.662731
H454	H	1.086644	-0.018379	-0.412731
H455	H	1.336644	0.231621	-0.162731
H456	H	1.586644	0.481621	0.087269
F457	F	0.826553	-0.478400	-0.220015
F458	F	1.076553	-0.228400	0.029985
F459	F	1.326553	0.021600	0.279985
F460	F	1.576553	0.271600	0.529985
H461	H	0.836652	-0.268315	-0.944301
H462	H	1.086652	-0.018315	-0.694301
H463	H	1.336652	0.231685	-0.444301
H464	H	1.586652	0.481685	-0.194301
H465	H	0.982613	-0.472325	-0.376324
H466	H	1.232613	-0.222325	-0.126324
H467	H	1.482613	0.027675	0.123676
H468	H	1.732613	0.277675	0.373676
F469	F	0.678379	-0.157117	-0.386499
F470	F	0.928379	0.092883	-0.136499
F471	F	1.178379	0.342883	0.113501
F472	F	1.428379	0.592883	0.363501
H473	H	1.022928	-0.688094	-0.416664
H474	H	1.272928	-0.438094	-0.166664
H475	H	1.522928	-0.188094	0.083336
H476	H	1.772928	0.061906	0.333336
H477	H	0.982799	-0.959611	-0.376420
H478	H	1.232799	-0.709611	-0.126420
H479	H	1.482799	-0.459611	0.123580
H480	H	1.732799	-0.209611	0.373580
F481	F	0.786335	-0.597414	-0.179777
F482	F	1.036335	-0.347414	0.070223
F483	F	1.286335	-0.097414	0.320223
F484	F	1.536335	0.152586	0.570223
F485	F	0.826560	-0.275595	-0.535234
F486	F	1.076560	-0.025595	-0.285234
F487	F	1.326560	0.224405	-0.035234
F488	F	1.576560	0.474405	0.214766
H489	H	0.982592	-0.387216	-0.376287
H490	H	1.232592	-0.137216	-0.126287
H491	H	1.482592	0.112784	0.123713
H492	H	1.732592	0.362784	0.373713
H493	H	0.796494	-0.829130	-0.189894
H494	H	1.046494	-0.579130	0.060106
H495	H	1.296494	-0.329130	0.310106
H496	H	1.546494	-0.079130	0.560106
F497	F	1.032960	-0.597112	-0.426718
F498	F	1.282960	-0.347112	-0.176718
F499	F	1.532960	-0.097112	0.073282
F500	F	1.782960	0.152888	0.323282
F501	F	0.786398	-0.738173	-0.179802
F502	F	1.036398	-0.488173	0.070198
F503	F	1.286398	-0.238173	0.320198
F504	F	1.536398	0.011827	0.570198
H505	H	0.982838	-0.164045	-0.944381
H506	H	1.232838	0.085955	-0.694381
H507	H	1.482838	0.335955	-0.444381
H508	H	1.732838	0.585955	-0.194381
H509	H	0.836779	-0.959800	-0.230206
H510	H	1.086779	-0.709800	0.019794
H511	H	1.336779	-0.459800	0.269794
H512	H	1.586779	-0.209800	0.519794
H513	H	0.796431	-0.688375	-0.189864
H514	H	1.046431	-0.438375	0.060136
H515	H	1.296431	-0.188375	0.310136
H516	H	1.546431	0.061625	0.560136
F517	F	0.992916	-0.156832	-1.071870
F518	F	1.242916	0.093168	-0.821870
F519	F	1.492916	0.343168	-0.571870
F520	F	1.742916	0.593168	-0.321870
F521	F	1.033035	-0.834707	-0.426768
F522	F	1.283035	-0.584707	-0.176768
F523	F	1.533035	-0.334707	0.073232
F524	F	1.783035	-0.084707	0.323232
F525	F	0.826519	-0.381544	-0.220001
F526	F	1.076519	-0.131544	0.029999
F527	F	1.326519	0.118456	0.279999
F528	F	1.576519	0.368456	0.529999
F529	F	1.033008	-0.737858	-0.426751
F530	F	1.283008	-0.487858	-0.176751
F531	F	1.533008	-0.237858	0.073249
F532	F	1.783008	0.012142	0.323249
