data_functionalizedCrystal
_audit_creation_method	'MofGen! by Chris Wilmer'
_symmetry_space_group_name_H-M	'P1'
_symmetry_Int_Tables_number	1
_symmetry_cell_setting	triclinic
loop_
_symmetry_equiv_pos_as_xyz
  x,y,z
_cell_length_a	25.639239
_cell_length_b	19.805407
_cell_length_c	19.805399
_cell_angle_alpha	90.021064
_cell_angle_beta	89.971274
_cell_angle_gamma	89.962329
loop_
_atom_site_label
_atom_site_type_symbol
_atom_site_fract_x
_atom_site_fract_y
_atom_site_fract_z
Zn1	Zn	-0.208177	-1.034678	-0.382741
Zn2	Zn	0.291823	-0.534678	0.117259
Zn3	Zn	-0.295611	-1.034569	-0.269551
Zn4	Zn	0.204389	-0.534569	0.230449
Zn5	Zn	-0.208190	-0.921493	-0.269563
Zn6	Zn	0.291810	-0.421493	0.230437
Zn7	Zn	-0.295582	-0.921432	-0.382694
Zn8	Zn	0.204418	-0.421432	0.117306
O9	O	-0.251890	-0.978043	-0.326137
O10	O	0.248110	-0.478043	0.173863
O11	O	-0.219782	-1.129380	-0.367741
O12	O	0.280218	-0.629380	0.132259
O13	O	-0.284032	-1.019548	-0.174836
O14	O	0.215968	-0.519548	0.325164
O15	O	-0.135023	-0.936578	-0.284601
O16	O	0.364977	-0.436578	0.215399
O17	O	-0.284020	-1.129300	-0.284580
O18	O	0.215980	-0.629300	0.215420
O19	O	-0.135014	-1.019735	-0.367752
O20	O	0.364986	-0.519735	0.132248
O21	O	-0.219804	-0.936472	-0.174845
O22	O	0.280196	-0.436472	0.325155
O23	O	-0.219776	-0.826768	-0.284555
O24	O	0.280224	-0.326768	0.215445
O25	O	-0.283970	-0.936475	-0.477417
O26	O	0.216030	-0.436475	0.022583
O27	O	-0.283982	-0.826723	-0.367673
O28	O	0.216018	-0.326723	0.132327
O29	O	-0.219754	-1.019676	-0.477452
O30	O	0.280246	-0.519676	0.022548
O31	O	-0.368772	-1.019489	-0.284535
O32	O	0.131228	-0.519489	0.215465
O33	O	-0.368751	-0.936368	-0.367661
O34	O	0.131249	-0.436368	0.132339
C35	C	-0.251878	-0.802187	-0.326111
C36	C	0.248122	-0.302187	0.173889
C37	C	-0.251885	-0.726955	-0.326116
C38	C	0.248115	-0.226955	0.173884
C39	C	-0.285367	-0.691605	-0.369324
C40	C	0.214633	-0.191605	0.130676
C41	C	-0.285367	-0.620917	-0.369331
C42	C	0.214633	-0.120917	0.130669
C43	C	-0.251887	-0.585579	-0.326127
C44	C	0.248113	-0.085579	0.173873
C45	C	-0.218401	-0.620934	-0.282917
C46	C	0.281599	-0.120934	0.217083
C47	C	-0.218399	-0.691621	-0.282913
C48	C	0.281601	-0.191621	0.217087
C49	C	-0.218409	-0.335860	-0.282932
C50	C	0.281591	0.164140	0.217068
C51	C	-0.218415	-0.265168	-0.282938
C52	C	0.281585	0.234832	0.217062
C53	C	-0.285377	-0.265156	-0.369350
C54	C	0.214623	0.234844	0.130650
C55	C	-0.285375	-0.335843	-0.369346
C56	C	0.214625	0.164157	0.130654
C57	C	-0.251887	-0.371192	-0.326139
C58	C	0.248113	0.128808	0.173861
C59	C	-0.251887	-0.447840	-0.326132
C60	C	0.248113	0.052160	0.173868
C61	C	-0.251889	-0.508932	-0.326130
C62	C	0.248111	-0.008932	0.173870
C63	C	-0.387733	-0.977929	-0.326106
C64	C	0.112267	-0.477929	0.173894
C65	C	-0.445847	-0.977942	-0.326116
C66	C	0.054153	-0.477942	0.173884
C67	C	-0.806208	-1.021437	-0.282927
C68	C	-0.306208	-0.521437	0.217073
C69	C	-0.860813	-1.021463	-0.282936
C70	C	-0.360813	-0.521463	0.217064
O71	O	-0.889048	-1.058326	-0.246182
O72	O	-0.389048	-0.558326	0.253818
N73	N	-0.888129	-0.978162	-0.326182
N74	N	-0.388129	-0.478162	0.173818
C75	C	-0.860838	-0.934836	-0.369427
C76	C	-0.360838	-0.434836	0.130573
O77	O	-0.889087	-0.898008	-0.406212
O78	O	-0.389087	-0.398008	0.093788
C79	C	-0.806235	-0.934814	-0.369420
C80	C	-0.306235	-0.434814	0.130580
C81	C	-0.778921	-0.978113	-0.326167
C82	C	-0.278921	-0.478113	0.173833
C83	C	-0.778895	-1.064733	-0.239678
C84	C	-0.278895	-0.564733	0.260322
C85	C	-0.724294	-1.064706	-0.239668
C86	C	-0.224294	-0.564706	0.260332
C87	C	-0.697007	-1.021382	-0.282908
C88	C	-0.197007	-0.521382	0.217092
C89	C	-0.724321	-0.978086	-0.326157
C90	C	-0.224321	-0.478086	0.173843
C91	C	-0.778945	-0.891492	-0.412668
C92	C	-0.278945	-0.391492	0.087332
C93	C	-0.724338	-0.891474	-0.412658
C94	C	-0.224338	-0.391474	0.087342
C95	C	-0.697025	-0.934773	-0.369405
C96	C	-0.197025	-0.434773	0.130595
C97	C	-0.642433	-0.934735	-0.369387
C98	C	-0.142433	-0.434735	0.130613
N99	N	-0.615117	-0.978036	-0.326141
N100	N	-0.115117	-0.478036	0.173859
C101	C	-0.642404	-1.021360	-0.282901
C102	C	-0.142404	-0.521360	0.217099
C103	C	-0.975509	-0.934887	-0.369437
C104	C	-0.475509	-0.434887	0.130563
C105	C	-1.030111	-0.934906	-0.369440
C106	C	-0.530111	-0.434906	0.130560
C107	C	-1.030082	-1.021533	-0.282951
C108	C	-0.530082	-0.521533	0.217049
C109	C	-0.975478	-1.021511	-0.282944
C110	C	-0.475478	-0.521511	0.217056
C111	C	-0.948192	-0.978188	-0.326191
C112	C	-0.448192	-0.478188	0.173809
C113	C	-0.527739	-1.021299	-0.282884
C114	C	-0.027739	-0.521299	0.217116
C115	C	-0.473133	-1.021266	-0.282876
C116	C	0.026867	-0.521266	0.217124
C117	C	-0.473168	-0.934641	-0.369368
C118	C	0.026832	-0.434641	0.130632
C119	C	-0.527768	-0.934671	-0.369373
C120	C	-0.027768	-0.434671	0.130627
C121	C	-0.555053	-0.978006	-0.326129
C122	C	-0.055053	-0.478006	0.173871
O123	O	-0.614163	-0.897893	-0.406125
O124	O	-0.114163	-0.397893	0.093875
O125	O	-0.614148	-1.058188	-0.246129
O126	O	-0.114148	-0.558188	0.253871
C127	C	-0.115517	-0.978175	-0.326183
C128	C	0.384483	-0.478175	0.173817
C129	C	-0.057403	-0.978232	-0.326203
C130	C	0.442597	-0.478232	0.173797
C131	C	-0.251857	-0.978081	-0.502680
C132	C	0.248143	-0.478081	-0.002680
C133	C	-0.251843	-0.978097	-0.577912
C134	C	0.248157	-0.478097	-0.077912
C135	C	-0.251899	-0.154585	-0.326158
C136	C	0.248101	0.345415	0.173842
C137	C	-0.251895	-0.229817	-0.326150
C138	C	0.248105	0.270183	0.173850
C139	C	-0.218404	-1.021421	-0.613275
C140	C	0.281596	-0.521421	-0.113275
C141	C	-0.218389	-1.021428	-0.683964
C142	C	0.281611	-0.521428	-0.183964
C143	C	-0.251816	-0.978114	-0.719288
C144	C	0.248184	-0.478114	-0.219288
C145	C	-0.285256	-0.934785	-0.683920
C146	C	0.214744	-0.434785	-0.183920
C147	C	-0.285268	-0.934775	-0.613232
C148	C	0.214732	-0.434775	-0.113232
C149	C	-0.285207	-0.934823	-0.968993
C150	C	0.214793	-0.434823	-0.468993
C151	C	-0.285194	-0.934838	-1.039685
C152	C	0.214806	-0.434838	-0.539685
C153	C	-0.218328	-1.021476	-1.039724
C154	C	0.281672	-0.521476	-0.539724
C155	C	-0.218340	-1.021466	-0.969037
C156	C	0.281660	-0.521466	-0.469037
C157	C	-0.251778	-0.978135	-0.933675
C158	C	0.248222	-0.478135	-0.433675
C159	C	-0.251794	-0.978127	-0.857027
C160	C	0.248206	-0.478127	-0.357027
C161	C	-0.251803	-0.978125	-0.795935
C162	C	0.248197	-0.478125	-0.295935
C163	C	-0.251885	-0.978044	-0.150281
C164	C	0.248115	-0.478044	0.349719
C165	C	-0.251752	-0.978159	-0.075050
C166	C	0.248248	-0.478159	0.424950
H167	H	-0.312642	-0.236367	-0.404534
H168	H	0.187358	0.263633	0.095466
N169	N	-0.319403	-0.890537	-0.719993
N170	N	0.180597	-0.390537	-0.219993
N171	N	-0.367650	-0.894966	-0.712081
N172	N	0.132350	-0.394966	-0.212081
H173	H	-0.391767	-0.863711	-0.737554
H174	H	0.108233	-0.363711	-0.237554
H175	H	-0.550008	-0.899415	-0.404596
H176	H	-0.050008	-0.399415	0.095404
N177	N	-0.184188	-1.065709	-0.932967
N178	N	0.315812	-0.565709	-0.432967
N179	N	-0.135941	-1.061265	-0.940881
N180	N	0.364059	-0.561265	-0.440881
H181	H	-0.111818	-1.092512	-0.915408
H182	H	0.388182	-0.592512	-0.415408
N183	N	-0.555596	-1.065566	-0.238706
N184	N	-0.055596	-0.565566	0.261294
N185	N	-0.531193	-1.104215	-0.200095
N186	N	-0.031193	-0.604215	0.299905
H187	H	-0.550866	-1.135476	-0.168890
H188	H	-0.050866	-0.635476	0.331110
H189	H	-0.312492	-0.899489	-0.584441
H190	H	0.187508	-0.399489	-0.084441
N191	N	-0.184202	-0.229071	-0.238817
N192	N	0.315798	0.270929	0.261183
N193	N	-0.150914	-0.189664	-0.262721
N194	N	0.349086	0.310336	0.237279
H195	H	-0.126752	-0.164170	-0.231563
H196	H	0.373248	0.335830	0.268437
N197	N	-0.184251	-1.065656	-0.577196
N198	N	0.315749	-0.565656	-0.077196
N199	N	-0.150938	-1.041865	-0.537761
N200	N	0.349062	-0.541865	-0.037761
H201	H	-0.126814	-1.073105	-0.512281
H202	H	0.373186	-0.573105	-0.012281
H203	H	-0.702058	-1.099966	-0.204449
H204	H	-0.202058	-0.599966	0.295551
N205	N	-0.184232	-1.065676	-0.720094
N206	N	0.315768	-0.565676	-0.220094
N207	N	-0.150904	-1.041902	-0.759542
N208	N	0.349096	-0.541902	-0.259542
H209	H	-0.126778	-1.073153	-0.785060
H210	H	0.373222	-0.573153	-0.285060
N211	N	-0.184174	-1.065734	-1.075857
N212	N	0.315826	-0.565734	-0.575857
N213	N	-0.184165	-1.065740	-1.138970
N214	N	0.315835	-0.565740	-0.638970
H215	H	-0.160045	-1.096999	-1.164489
H216	H	0.339955	-0.596999	-0.664489
H217	H	-0.312415	-0.899563	-1.068444
H218	H	0.187585	-0.399563	-0.568444
N219	N	-0.319574	-0.727688	-0.413455
N220	N	0.180426	-0.227688	0.086545
N221	N	-0.349467	-0.696113	-0.452031
N222	N	0.150533	-0.196113	0.047969
H223	H	-0.373627	-0.721595	-0.483201
H224	H	0.126373	-0.221595	0.016799
H225	H	-0.312639	-0.364612	-0.404526
H226	H	0.187361	0.135388	0.095474
H227	H	-0.191145	-0.364633	-0.247745
H228	H	0.308855	0.135367	0.252255
H229	H	-0.702125	-0.856196	-0.447877
H230	H	-0.202125	-0.356196	0.052123
N231	N	-0.445297	-0.890392	-0.413546
N232	N	0.054703	-0.390392	0.086454
N233	N	-0.469686	-0.851738	-0.452167
N234	N	0.030314	-0.351738	0.047833
H235	H	-0.450002	-0.820490	-0.483373
H236	H	0.049998	-0.320490	0.016627
N237	N	-0.319568	-0.584819	-0.413476
N238	N	0.180432	-0.084819	0.086524
N239	N	-0.349459	-0.616378	-0.452047
N240	N	0.150541	-0.116378	0.047953
H241	H	-0.373615	-0.590884	-0.483228
H242	H	0.126385	-0.090884	0.016772
N243	N	-0.184201	-0.584829	-0.238793
N244	N	0.315799	-0.084829	0.261207
N245	N	-0.184207	-0.521717	-0.238802
N246	N	0.315793	-0.021717	0.261198
H247	H	-0.160053	-0.496218	-0.207638
H248	H	0.339947	0.003782	0.292362
N249	N	-0.184189	-0.727722	-0.238779
N250	N	0.315811	-0.227722	0.261221
N251	N	-0.154296	-0.696164	-0.200209
N252	N	0.345704	-0.196164	0.299791
H253	H	-0.130132	-0.721659	-0.169041
H254	H	0.369868	-0.221659	0.330959
N255	N	-0.319366	-0.890560	-0.932888
N256	N	0.180634	-0.390560	-0.432888
N257	N	-0.349209	-0.851893	-0.964438
N258	N	0.150791	-0.351893	-0.464438
H259	H	-0.373335	-0.820629	-0.938938
H260	H	0.126665	-0.320629	-0.438938
N261	N	-0.445237	-1.065488	-0.238680
N262	N	0.054763	-0.565488	0.261320
N263	N	-0.451376	-1.061034	-0.176222
N264	N	0.048624	-0.561034	0.323778
H265	H	-0.431676	-1.092265	-0.145007
H266	H	0.068324	-0.592265	0.354993
N267	N	-0.806754	-1.108999	-0.195504
N268	N	-0.306754	-0.608999	0.304496
N269	N	-0.782350	-1.147651	-0.156898
N270	N	-0.282350	-0.647651	0.343102
H271	H	-0.802021	-1.178914	-0.125695
H272	H	-0.302021	-0.678914	0.374305
H273	H	-1.052309	-1.056812	-0.247745
H274	H	-0.552309	-0.556812	0.252255
H275	H	-0.953243	-1.056769	-0.247724
H276	H	-0.453243	-0.556769	0.252276
N277	N	-1.058000	-0.890661	-0.413616
N278	N	-0.558000	-0.390661	0.086384
N279	N	-1.033623	-0.851982	-0.452215
N280	N	-0.533623	-0.351982	0.047785
H281	H	-1.053318	-0.820734	-0.483418
H282	H	-0.553318	-0.320734	0.016582
H283	H	-0.953295	-0.899603	-0.404652
H284	H	-0.453295	-0.399603	0.095348
N285	N	-0.806838	-0.847275	-0.456863
N286	N	-0.306838	-0.347275	0.043137
N287	N	-0.837263	-0.871079	-0.500025
N288	N	-0.337263	-0.371079	-0.000025
H289	H	-0.856963	-0.839850	-0.531241
H290	H	-0.356963	-0.339850	-0.031241
