data_functionalizedCrystal
_audit_creation_method	'MofGen! by Chris Wilmer'
_symmetry_space_group_name_H-M	'P1'
_symmetry_Int_Tables_number	1
_symmetry_cell_setting	triclinic
loop_
_symmetry_equiv_pos_as_xyz
  x,y,z
_cell_length_a	19.288859
_cell_length_b	19.288857
_cell_length_c	18.366186
_cell_angle_alpha	89.991598
_cell_angle_beta	89.990083
_cell_angle_gamma	83.133417
loop_
_atom_site_label
_atom_site_type_symbol
_atom_site_fract_x
_atom_site_fract_y
_atom_site_fract_z
O1	O	0.921353	0.086629	-0.060567
O2	O	1.254686	0.419962	0.272766
O3	O	1.588020	0.753295	0.606099
O4	O	0.719091	0.098322	-0.060566
O5	O	1.052425	0.431655	0.272767
O6	O	1.385758	0.764988	0.606101
O7	O	0.826069	-0.008656	-0.060558
O8	O	1.159403	0.324678	0.272775
O9	O	1.492736	0.658011	0.606109
O10	O	0.814375	0.193606	-0.060575
O11	O	1.147708	0.526939	0.272758
O12	O	1.481042	0.860273	0.606091
O13	O	0.826051	-0.008661	0.060541
O14	O	1.159385	0.324672	0.393875
O15	O	1.492718	0.658006	0.727208
O16	O	0.719073	0.098317	0.060533
O17	O	1.052407	0.431650	0.393867
O18	O	1.385740	0.764983	0.727200
O19	O	0.921335	0.086623	0.060532
O20	O	1.254668	0.419957	0.393865
O21	O	1.588002	0.753290	0.727199
Zn22	Zn	0.820201	0.092469	0.079760
Zn23	Zn	1.153535	0.425802	0.413093
Zn24	Zn	1.486868	0.759136	0.746426
Zn25	Zn	0.820225	0.092476	-0.079794
Zn26	Zn	1.153558	0.425809	0.253539
Zn27	Zn	1.486892	0.759143	0.586873
O28	O	0.814357	0.193601	0.060524
O29	O	1.147690	0.526934	0.393857
O30	O	1.481024	0.860267	0.727191
C31	C	0.693206	0.097944	-0.000016
C32	C	1.026539	0.431277	0.333317
C33	C	1.359873	0.764610	0.666650
C34	C	0.616102	0.096816	-0.000015
C35	C	0.949435	0.430150	0.333318
C36	C	1.282769	0.763483	0.666651
C37	C	0.052060	0.151960	-0.000021
C38	C	0.385393	0.485293	0.333312
C39	C	0.718727	0.818627	0.666645
C40	C	0.124506	0.153025	-0.000025
C41	C	0.457840	0.486359	0.333308
C42	C	0.791173	0.819692	0.666642
C43	C	0.169215	0.090256	-0.000018
C44	C	0.502548	0.423589	0.333315
C45	C	0.835882	0.756922	0.666648
C46	C	0.141472	0.026416	-0.000026
C47	C	0.474805	0.359749	0.333307
C48	C	0.808138	0.693083	0.666640
C49	C	0.069026	0.025353	-0.000030
C50	C	0.402360	0.358686	0.333304
C51	C	0.735693	0.692019	0.666637
C52	C	0.290480	0.043441	0.042415
C53	C	0.623813	0.376774	0.375748
C54	C	0.957147	0.710107	0.709082
C55	C	0.362924	0.044507	0.042423
C56	C	0.696257	0.377840	0.375756
C57	C	1.029590	0.711173	0.709089
C58	C	0.392661	0.093533	-0.000011
C59	C	0.725994	0.426867	0.333322
C60	C	1.059327	0.760200	0.666655
C61	C	0.349943	0.141505	-0.042444
C62	C	0.683277	0.474839	0.290890
C63	C	1.016610	0.808172	0.624223
C64	C	0.277498	0.140442	-0.042447
C65	C	0.610832	0.473775	0.290886
C66	C	0.944165	0.807108	0.624220
C67	C	0.247771	0.091402	-0.000015
C68	C	0.581104	0.424735	0.333318
C69	C	0.914437	0.758068	0.666652
C70	C	0.498950	0.158524	-0.000013
C71	C	0.832284	0.491857	0.333321
C72	C	1.165617	0.825191	0.666654
C73	C	0.571399	0.159587	-0.000021
C74	C	0.904732	0.492920	0.333312
C75	C	1.238065	0.826253	0.666646
C76	C	0.588363	0.032976	-0.000015
C77	C	0.921696	0.366309	0.333318
C78	C	1.255029	0.699642	0.666652
C79	C	0.515916	0.031915	-0.000014
C80	C	0.849249	0.365248	0.333320
C81	C	1.182582	0.698581	0.666653
C82	C	0.471214	0.094691	-0.000009
C83	C	0.804547	0.428024	0.333324
C84	C	1.137880	0.761358	0.666658
C85	C	0.825685	-0.034535	-0.000008
C86	C	1.159018	0.298799	0.333326
C87	C	1.492352	0.632132	0.666659
C88	C	0.824558	-0.111639	-0.000006
C89	C	1.157891	0.221695	0.333328
C90	C	1.491225	0.555028	0.666661
C91	C	0.824042	-0.147846	-0.066017
C92	C	1.157375	0.185487	0.267316
C93	C	1.490709	0.518820	0.600650
C94	C	0.822973	-0.220292	-0.066022
C95	C	1.156307	0.113041	0.267311
C96	C	1.489640	0.446374	0.600644
C97	C	0.822435	-0.256530	-0.000013
C98	C	1.155768	0.076804	0.333321
C99	C	1.489101	0.410137	0.666654
C100	C	0.822947	-0.220313	0.066007
C101	C	1.156280	0.113021	0.399341
C102	C	1.489614	0.446354	0.732674
C103	C	0.824009	-0.147867	0.066011
C104	C	1.157342	0.185466	0.399344
C105	C	1.490675	0.518800	0.732678
C106	C	0.861429	-0.376764	0.050555
C107	C	1.194762	-0.043431	0.383888
C108	C	1.528096	0.289902	0.717221
C109	C	0.860371	-0.449209	0.050548
C110	C	1.193705	-0.115876	0.383882
C111	C	1.527038	0.217458	0.717215
C112	C	0.819157	-0.479975	-0.000021
C113	C	1.152490	-0.146642	0.333312
C114	C	1.485824	0.186691	0.666646
C115	C	0.779009	-0.438289	-0.050596
C116	C	1.112342	-0.104956	0.282737
C117	C	1.445676	0.228377	0.616071
C118	C	0.780071	-0.365844	-0.050592
C119	C	1.113404	-0.032511	0.282741
C120	C	1.446737	0.300823	0.616074
C121	C	0.821283	-0.335085	-0.000009
C122	C	1.154616	-0.001751	0.333324
C123	C	1.487950	0.331582	0.666658
C124	C	0.817481	-0.594737	-0.066043
C125	C	1.150814	-0.261404	0.267291
C126	C	1.484148	0.071929	0.600624
C127	C	0.816408	-0.667184	-0.066045
C128	C	1.149741	-0.333851	0.267288
C129	C	1.483075	-0.000517	0.600621
C130	C	0.816389	-0.667204	0.065986
C131	C	1.149722	-0.333871	0.399320
C132	C	1.483055	-0.000537	0.732653
C133	C	0.817455	-0.594758	0.065987
C134	C	1.150788	-0.261424	0.399320
C135	C	1.484121	0.071909	0.732654
C136	C	0.818004	-0.558529	-0.000029
C137	C	1.151337	-0.225196	0.333304
C138	C	1.484671	0.108138	0.666637
C139	C	0.947220	0.087001	-0.000020
C140	C	1.280554	0.420335	0.333314
C141	C	1.613887	0.753668	0.666647
C142	C	1.024324	0.088129	-0.000025
C143	C	1.357658	0.421462	0.333308
C144	C	1.690991	0.754795	0.666642
C145	C	0.814741	0.219480	-0.000028
C146	C	1.148075	0.552813	0.333305
C147	C	1.481408	0.886147	0.666639
C148	C	0.815868	0.296584	-0.000035
C149	C	1.149202	0.629917	0.333298
C150	C	1.482535	0.963250	0.666632
N151	N	0.820190	0.092464	0.188651
N152	N	1.153523	0.425797	0.521984
N153	N	1.486857	0.759131	0.855318
N154	N	0.820242	0.092476	-0.188685
N155	N	1.153575	0.425809	0.144648
N156	N	1.486909	0.759142	0.477982
C157	C	0.867575	0.045118	0.226755
C158	C	1.200909	0.378451	0.560088
C159	C	1.534242	0.711784	0.893422
C160	C	0.867580	0.045114	0.302983
C161	C	1.200913	0.378448	0.636316
C162	C	1.534246	0.711781	0.969649
C163	C	0.820205	0.092470	0.341104
C164	C	1.153539	0.425803	0.674437
C165	C	1.486872	0.759136	1.007770
C166	C	0.772811	0.139820	0.302990
C167	C	1.106145	0.473153	0.636324
C168	C	1.439478	0.806486	0.969657
C169	C	0.772804	0.139817	0.226764
C170	C	1.106137	0.473150	0.560097
C171	C	1.439470	0.806484	0.893431
C172	C	0.810905	0.155758	0.461859
C173	C	1.144239	0.489091	0.795192
C174	C	1.477572	0.822425	1.128525
C175	C	0.810918	0.155762	0.538083
C176	C	1.144251	0.489095	0.871417
C177	C	1.477585	0.822428	1.204750
C178	C	0.820225	0.092478	0.576211
C179	C	1.153559	0.425812	0.909544
C180	C	1.486892	0.759145	1.242878
C181	C	0.829535	0.029188	0.538104
C182	C	1.162868	0.362522	0.871438
C183	C	1.496201	0.695855	1.204771
C184	C	0.829527	0.029186	0.461878
C185	C	1.162860	0.362519	0.795211
C186	C	1.496194	0.695852	1.128545
C187	C	0.820208	0.092478	0.423758
C188	C	1.153542	0.425811	0.757092
C189	C	1.486875	0.759144	1.090425
C190	C	0.867618	0.045125	0.696970
C191	C	1.200951	0.378458	1.030303
C192	C	1.534285	0.711791	1.363637
C193	C	0.867617	0.045121	0.773199
C194	C	1.200951	0.378454	1.106533
C195	C	1.534284	0.711787	1.439866
C196	C	0.772852	0.139832	0.773206
C197	C	1.106186	0.473165	1.106539
C198	C	1.439519	0.806499	1.439872
C199	C	0.772849	0.139830	0.696978
C200	C	1.106183	0.473163	1.030311
C201	C	1.439516	0.806497	1.363644
C202	C	0.820236	0.092477	0.658865
C203	C	1.153569	0.425810	0.992198
C204	C	1.486903	0.759144	1.325531
H205	H	0.397698	0.005448	0.076978
H206	H	0.731032	0.338782	0.410311
H207	H	1.064365	0.672115	0.743644
H208	H	0.837113	-0.022343	0.569146
H209	H	1.170446	0.310990	0.902480
H210	H	1.503780	0.644324	1.235813
C211	C	0.822409	-0.260133	-0.138636
C212	C	1.155743	0.073200	0.194698
C213	C	1.489076	0.406534	0.528031
H214	H	0.821694	-0.308467	-0.129181
H215	H	1.155028	0.024866	0.204152
H216	H	1.488361	0.358200	0.537486
H217	H	0.863086	-0.253682	-0.165756
H218	H	1.196419	0.079651	0.167578
H219	H	1.529752	0.412984	0.500911
H220	H	0.782088	-0.242833	-0.165763
H221	H	1.115421	0.090500	0.167571
H222	H	1.448755	0.423834	0.500904
H223	H	0.374153	0.181429	-0.076995
H224	H	0.707486	0.514762	0.256338
H225	H	1.040820	0.848095	0.589671
C226	C	0.919714	-0.006950	0.184831
C227	C	1.253047	0.326384	0.518164
C228	C	1.586381	0.659717	0.851498
H229	H	0.912934	-0.000162	0.133975
H230	H	1.246268	0.333171	0.467308
H231	H	1.579601	0.666504	0.800642
H232	H	0.912346	-0.053297	0.197324
H233	H	1.245680	0.280036	0.530657
H234	H	1.579013	0.613369	0.863991
H235	H	0.966038	0.000505	0.197321
H236	H	1.299371	0.333838	0.530654
H237	H	1.632704	0.667172	0.863987
C238	C	0.800679	0.225374	0.579997
C239	C	1.134012	0.558708	0.913331
C240	C	1.467346	0.892041	1.246664
H241	H	0.802025	0.216314	0.630855
H242	H	1.135359	0.549647	0.964188
H243	H	1.468692	0.882981	1.297522
H244	H	0.756791	0.250252	0.567514
H245	H	1.090125	0.583585	0.900848
H246	H	1.423458	0.916918	1.234181
H247	H	0.836916	0.252501	0.567487
H248	H	1.170250	0.585834	0.900820
H249	H	1.503583	0.919168	1.234153
H250	H	0.906201	0.006565	0.665937
H251	H	1.239534	0.339898	0.999270
H252	H	1.572867	0.673232	1.332604
C253	C	0.818027	-0.554924	0.138599
C254	C	1.151360	-0.221591	0.471932
C255	C	1.484694	0.111742	0.805265
H256	H	0.818730	-0.506588	0.129147
H257	H	1.152064	-0.173255	0.462480
H258	H	1.485397	0.160078	0.795814
H259	H	0.858343	-0.572225	0.165726
H260	H	1.191676	-0.238892	0.499059
H261	H	1.525010	0.094441	0.832392
H262	H	0.777346	-0.561376	0.165717
H263	H	1.110679	-0.228043	0.499051
H264	H	1.444012	0.105290	0.832384
H265	H	0.906202	0.006562	0.804224
H266	H	1.239535	0.339895	1.137557
H267	H	1.572869	0.673228	1.470891
H268	H	0.462552	0.209640	-0.000010
H269	H	0.795885	0.542973	0.333323
H270	H	1.129219	0.876307	0.666657
C271	C	0.601908	0.229805	-0.000015
C272	C	0.935241	0.563138	0.333318
C273	C	1.268574	0.896471	0.666652
H274	H	0.564907	0.267036	-0.000005
H275	H	0.898240	0.600369	0.333328
H276	H	1.231573	0.933703	0.666661
H277	H	0.629823	0.232861	-0.042244
H278	H	0.963156	0.566194	0.291090
H279	H	1.296489	0.899528	0.624423
H280	H	0.629808	0.232841	0.042222
H281	H	0.963142	0.566174	0.375555
H282	H	1.296475	0.899508	0.708888
H283	H	0.624764	-0.018133	-0.000015
H284	H	0.958097	0.315201	0.333318
H285	H	1.291430	0.648534	0.666652
H286	H	0.177878	-0.024691	-0.000023
H287	H	0.511211	0.308642	0.333310
H288	H	0.844545	0.641976	0.666644
H289	H	0.147093	0.205006	-0.000015
H290	H	0.480427	0.538339	0.333318
H291	H	0.813760	0.871672	0.666652
C292	C	0.230513	0.193198	-0.089127
C293	C	0.563847	0.526532	0.244206
C294	C	0.897180	0.859865	0.577539
H295	H	0.258594	0.222548	-0.114405
H296	H	0.591928	0.555881	0.218928
H297	H	0.925261	0.889214	0.552261
H298	H	0.198485	0.220827	-0.058547
H299	H	0.531818	0.554160	0.274787
H300	H	0.865151	0.887494	0.608120
H301	H	0.205482	0.168762	-0.123243
H302	H	0.538816	0.502095	0.210090
H303	H	0.872149	0.835429	0.543423
H304	H	0.747379	-0.331906	-0.091771
H305	H	1.080713	0.001428	0.241562
H306	H	1.414046	0.334761	0.574896
C307	C	0.839756	-0.040426	0.419961
C308	C	1.173089	0.292908	0.753294
C309	C	1.506422	0.626241	1.086628
H310	H	0.845395	-0.078116	0.453579
H311	H	1.178728	0.255217	0.786912
H312	H	1.512062	0.588551	1.120245
H313	H	0.880141	-0.041894	0.390131
H314	H	1.213475	0.291439	0.723464
H315	H	1.546808	0.624772	1.056798
H316	H	0.800027	-0.044216	0.390320
H317	H	1.133360	0.289117	0.723654
H318	H	1.466694	0.622450	1.056987
C319	C	0.733665	-0.472118	-0.106223
C320	C	1.066999	-0.138785	0.227110
C321	C	1.400332	0.194549	0.560444
H322	H	0.709911	-0.436917	-0.136343
H323	H	1.043245	-0.103584	0.196991
H324	H	1.376578	0.229750	0.530324
H325	H	0.700532	-0.495997	-0.081180
H326	H	1.033865	-0.162663	0.252153
H327	H	1.367199	0.170670	0.585486
H328	H	0.762587	-0.504307	-0.135474
H329	H	1.095921	-0.170973	0.197859
H330	H	1.429254	0.162360	0.531193
C331	C	0.815839	-0.707016	-0.138660
C332	C	1.149172	-0.373683	0.194674
C333	C	1.482505	-0.040349	0.528007
H334	H	0.815119	-0.755350	-0.129209
H335	H	1.148452	-0.422017	0.204125
H336	H	1.481786	-0.088683	0.537458
H337	H	0.856515	-0.700567	-0.165780
H338	H	1.189849	-0.367234	0.167553
H339	H	1.523182	-0.033901	0.500886
H340	H	0.775518	-0.689710	-0.165785
H341	H	1.108851	-0.356377	0.167548
H342	H	1.442185	-0.023043	0.500882
C343	C	0.822353	-0.260167	0.138618
C344	C	1.155687	0.073166	0.471951
C345	C	1.489020	0.406499	0.805285
H346	H	0.822807	-0.228223	0.177934
H347	H	1.156141	0.105110	0.511268
H348	H	1.489474	0.438443	0.844601
H349	H	0.862435	-0.293854	0.141364
H350	H	1.195768	0.039479	0.474698
H351	H	1.529101	0.372812	0.808031
H352	H	0.781437	-0.283001	0.141357
H353	H	1.114770	0.050332	0.474691
H354	H	1.448104	0.383665	0.808024
H355	H	0.734277	0.178387	0.804243
H356	H	1.067610	0.511720	1.137576
H357	H	1.400943	0.845054	1.470910
H358	H	0.046446	-0.026628	-0.000033
H359	H	0.379779	0.306705	0.333300
H360	H	0.713112	0.640039	0.666634
H361	H	0.803314	0.207294	0.430821
H362	H	1.136648	0.540628	0.764155
H363	H	1.469981	0.873961	1.097488
C364	C	0.485405	-0.038300	-0.000006
C365	C	0.818738	0.295033	0.333328
C366	C	1.152071	0.628366	0.666661
H367	H	0.522405	-0.075532	0.000004
H368	H	0.855739	0.257801	0.333337
H369	H	1.189072	0.591134	0.666671
H370	H	0.457503	-0.041346	-0.042235
H371	H	0.790836	0.291987	0.291098
H372	H	1.124169	0.625321	0.624432
H373	H	0.457490	-0.041347	0.042230
H374	H	0.790824	0.291986	0.375564
H375	H	1.124157	0.625320	0.708897
H376	H	0.734267	0.178387	0.665951
H377	H	1.067600	0.511720	0.999285
H378	H	1.400933	0.845053	1.332618
C379	C	0.919707	-0.006964	0.344909
C380	C	1.253040	0.326369	0.678243
C381	C	1.586373	0.659702	1.011576
H382	H	0.912921	-0.000182	0.395766
H383	H	1.246254	0.333151	0.729099
H384	H	1.579588	0.666485	1.062432
H385	H	0.966034	0.000464	0.332402
H386	H	1.299368	0.333797	0.665735
H387	H	1.632701	0.667130	0.999069
H388	H	0.912313	-0.053308	0.332432
H389	H	1.245646	0.280025	0.665766
H390	H	1.578979	0.613358	0.999099
H391	H	0.734237	0.178376	0.334032
H392	H	1.067571	0.511709	0.667366
H393	H	1.400904	0.845043	1.000699
C394	C	0.257777	-0.010491	0.089096
C395	C	0.591110	0.322842	0.422430
C396	C	0.924443	0.656176	0.755763
H397	H	0.293590	-0.038900	0.114375
H398	H	0.626923	0.294433	0.447708
H399	H	0.960257	0.627766	0.781042
H400	H	0.233279	-0.038950	0.058512
H401	H	0.566612	0.294383	0.391845
H402	H	0.899945	0.627716	0.725179
H403	H	0.226292	0.013112	0.123211
H404	H	0.559625	0.346445	0.456545
H405	H	0.892959	0.679778	0.789878
C406	C	0.720682	0.191905	0.184848
C407	C	1.054016	0.525238	0.518181
C408	C	1.387349	0.858572	0.851515
H409	H	0.692470	0.220111	0.218466
H410	H	1.025803	0.553445	0.551799
H411	H	1.359136	0.886778	0.885133
H412	H	0.691849	0.166994	0.155121
H413	H	1.025183	0.500327	0.488455
H414	H	1.358516	0.833660	0.821788
H415	H	0.745579	0.220757	0.155104
H416	H	1.078912	0.554091	0.488437
H417	H	1.412246	0.887424	0.821770
H418	H	0.015667	0.203077	-0.000021
H419	H	0.349001	0.536411	0.333312
H420	H	0.682334	0.869744	0.666646
C421	C	0.824634	-0.107997	-0.138632
C422	C	1.157968	0.225336	0.194701
C423	C	1.491301	0.558670	0.528035
H424	H	0.824167	-0.139940	-0.177947
H425	H	1.157500	0.193393	0.155386
H426	H	1.490833	0.526726	0.488719
H427	H	0.865542	-0.085157	-0.141379
H428	H	1.198876	0.248176	0.191954
H429	H	1.532209	0.581509	0.525288
H430	H	0.784545	-0.074313	-0.141373
H431	H	1.117878	0.259020	0.191960
H432	H	1.451211	0.592353	0.525294
C433	C	0.818077	-0.554879	-0.138654
C434	C	1.151410	-0.221545	0.194679
C435	C	1.484743	0.111788	0.528013
H436	H	0.818793	-0.506548	-0.129198
H437	H	1.152126	-0.173214	0.204135
H438	H	1.485459	0.160119	0.537468
H439	H	0.777410	-0.561318	-0.165778
H440	H	1.110743	-0.227985	0.167555
H441	H	1.444077	0.105348	0.500888
H442	H	0.858407	-0.572176	-0.165778
H443	H	1.191741	-0.238842	0.167556
H444	H	1.525074	0.094491	0.500889
H445	H	0.815945	-0.696707	0.119733
H446	H	1.149278	-0.363374	0.453066
H447	H	1.482611	-0.030040	0.786399
H448	H	0.894990	-0.351721	0.091740
H449	H	1.228323	-0.018387	0.425073
H450	H	1.561657	0.314946	0.758406
C451	C	0.904509	-0.495057	0.106194
C452	C	1.237843	-0.161724	0.439527
C453	C	1.571176	0.171610	0.772861
H454	H	0.897975	-0.542609	0.098950
H455	H	1.231309	-0.209276	0.432283
H456	H	1.564642	0.124058	0.765617
H457	H	0.890350	-0.481264	0.154108
H458	H	1.223683	-0.147931	0.487441
H459	H	1.557017	0.185403	0.820774
H460	H	0.952434	-0.489589	0.099850
H461	H	1.285767	-0.156256	0.433183
H462	H	1.619101	0.177077	0.766516
C463	C	0.824583	-0.108038	0.138627
C464	C	1.157916	0.225295	0.471960
C465	C	1.491249	0.558629	0.805293
H466	H	0.824112	-0.139993	0.177941
H467	H	1.157446	0.193340	0.511274
H468	H	1.490779	0.526674	0.844607
H469	H	0.784503	-0.074348	0.141373
H470	H	1.117837	0.258985	0.474706
H471	H	1.451170	0.592319	0.808039
H472	H	0.865501	-0.085208	0.141370
H473	H	1.198834	0.248125	0.474703
H474	H	1.532167	0.581458	0.808037
