data_functionalizedCrystal
_audit_creation_method	'MofGen! by Chris Wilmer'
_symmetry_space_group_name_H-M	'P1'
_symmetry_Int_Tables_number	1
_symmetry_cell_setting	triclinic
loop_
_symmetry_equiv_pos_as_xyz
  x,y,z
_cell_length_a	21.295417
_cell_length_b	16.625547
_cell_length_c	21.295411
_cell_angle_alpha	90.031012
_cell_angle_beta	89.978356
_cell_angle_gamma	89.970308
loop_
_atom_site_label
_atom_site_type_symbol
_atom_site_fract_x
_atom_site_fract_y
_atom_site_fract_z
Zn1	Zn	-0.250695	-1.232667	-0.356020
Zn2	Zn	-0.355946	-1.232542	-0.250745
Zn3	Zn	-0.250694	-1.097819	-0.250753
Zn4	Zn	-0.355928	-1.097780	-0.355965
O5	O	-0.303316	-1.165202	-0.303371
O6	O	-0.264664	-1.345483	-0.342075
O7	O	-0.341992	-1.214635	-0.162657
O8	O	-0.162604	-1.115776	-0.264743
O9	O	-0.341993	-1.345391	-0.264730
O10	O	-0.162605	-1.214848	-0.342082
O11	O	-0.264663	-1.115655	-0.162662
O12	O	-0.264645	-0.984982	-0.264690
O13	O	-0.341962	-1.115709	-0.444062
O14	O	-0.341961	-0.984953	-0.341989
O15	O	-0.264647	-1.214810	-0.444102
O16	O	-0.444033	-1.214597	-0.264677
O17	O	-0.444020	-1.115588	-0.341981
C18	C	-0.303301	-0.955711	-0.303335
C19	C	-0.303310	-0.866090	-0.303334
C20	C	-0.303311	-0.793308	-0.303340
C21	C	-0.303313	-0.701999	-0.303353
C22	C	-0.303318	-0.629223	-0.303366
C23	C	-0.303322	-0.537909	-0.303379
C24	C	-0.466867	-1.165096	-0.303336
C25	C	-0.536835	-1.165125	-0.303342
C26	C	-0.569688	-1.216725	-0.263131
C27	C	-0.635431	-1.216762	-0.263145
C28	C	-0.668318	-1.165186	-0.303364
C29	C	-0.635457	-1.113583	-0.343583
C30	C	-0.569716	-1.113552	-0.343572
N31	N	-0.771584	-1.094652	-0.308150
N32	N	-0.834035	-1.094683	-0.308157
C33	C	-0.866393	-1.165276	-0.303400
N34	N	-0.833939	-1.235839	-0.298623
N35	N	-0.771482	-1.235807	-0.298613
C36	C	-0.739603	-1.165214	-0.303380
C37	C	-0.970531	-1.216921	-0.263202
C38	C	-1.036275	-1.216961	-0.263220
C39	C	-1.036300	-1.113774	-0.343655
C40	C	-0.970558	-1.113742	-0.343640
C41	C	-0.937677	-1.165315	-0.303410
C42	C	-0.139125	-1.165330	-0.303419
C43	C	-0.069157	-1.165385	-0.303440
C44	C	-0.303302	-1.165269	-0.467561
C45	C	-0.303297	-1.165298	-0.537529
C46	C	-0.303328	-0.375511	-0.303400
C47	C	-0.303327	-0.465132	-0.303392
C48	C	-0.263037	-1.216897	-0.570418
C49	C	-0.263010	-1.216896	-0.636160
C50	C	-0.303253	-1.165304	-0.669012
C51	C	-0.343516	-1.113694	-0.636115
C52	C	-0.343538	-1.113691	-0.570374
N53	N	-0.358321	-1.159083	-0.772227
N54	N	-0.358299	-1.159091	-0.834678
C55	C	-0.303190	-1.165309	-0.867087
N56	N	-0.248102	-1.171535	-0.834684
N57	N	-0.248126	-1.171531	-0.772227
C58	C	-0.303234	-1.165301	-0.740297
C59	C	-0.262897	-1.216910	-0.971261
C60	C	-0.262869	-1.216903	-1.037005
C61	C	-0.343380	-1.113706	-1.036958
C62	C	-0.343403	-1.113708	-0.971216
C63	C	-0.303162	-1.165315	-0.938371
C64	C	-0.303284	-1.165182	-0.139819
C65	C	-0.303112	-1.165310	-0.069851
H66	H	-0.542919	-1.258720	-0.230375
H67	H	-0.542967	-1.071533	-0.376317
H68	H	-0.230127	-1.258926	-0.944517
F69	F	-0.670402	-1.271683	-0.220344
F70	F	-0.386206	-1.058791	-1.071917
F71	F	-0.220024	-1.271835	-1.072007
F72	F	-0.935535	-1.271808	-0.220386
H73	H	-1.063022	-1.258984	-0.230477
F74	F	-1.071297	-1.058887	-0.386463
F75	F	-0.386256	-1.058791	-0.936212
H76	H	-0.230269	-1.258918	-0.543680
F77	F	-0.935592	-1.058818	-0.386436
H78	H	-0.230222	-1.258913	-0.662943
H79	H	-0.376280	-1.071685	-0.662867
H80	H	-0.376321	-1.071669	-0.543596
H81	H	-0.662238	-1.071590	-0.376330
