data_functionalizedCrystal
_audit_creation_method	'MofGen! by Chris Wilmer'
_symmetry_space_group_name_H-M	'P1'
_symmetry_Int_Tables_number	1
_symmetry_cell_setting	triclinic
loop_
_symmetry_equiv_pos_as_xyz
  x,y,z
_cell_length_a	18.050590
_cell_length_b	18.050591
_cell_length_c	17.077396
_cell_angle_alpha	89.974392
_cell_angle_beta	90.019447
_cell_angle_gamma	89.995953
loop_
_atom_site_label
_atom_site_type_symbol
_atom_site_fract_x
_atom_site_fract_y
_atom_site_fract_z
Zn1	Zn	0.295738	1.135431	-0.444020
Zn2	Zn	0.419936	1.135375	-0.312775
Zn3	Zn	0.295755	1.011240	-0.312754
Zn4	Zn	0.419882	1.011242	-0.443984
O5	O	0.357828	1.073322	-0.378383
O6	O	0.312229	1.239348	-0.426634
O7	O	0.403492	1.118884	-0.202925
O8	O	0.191829	1.027737	-0.330173
O9	O	0.403476	1.239307	-0.330208
O10	O	0.191816	1.118979	-0.426613
O11	O	0.312258	1.027683	-0.202910
O12	O	0.312206	0.907316	-0.330138
O13	O	0.403385	1.027740	-0.553836
O14	O	0.403402	0.907317	-0.426553
O15	O	0.312177	1.118981	-0.553862
O16	O	0.523853	1.118886	-0.330174
O17	O	0.523814	1.027686	-0.426573
C18	C	0.357800	0.880370	-0.378340
C19	C	0.357806	0.797824	-0.378340
C20	C	0.164122	1.073364	-0.378395
C21	C	0.081577	1.073382	-0.378400
C22	C	-0.117881	1.122997	-0.430861
C23	C	-0.167252	1.141146	-0.359251
C24	C	-0.069554	1.073375	-0.378404
C25	C	-0.167264	1.055253	-0.450016
C26	C	-0.215539	1.073369	-0.378414
C27	C	-0.117838	1.091558	-0.306757
C28	C	-0.117845	1.005634	-0.397569
C29	C	-0.167194	1.023757	-0.325911
C30	C	0.014545	1.073380	-0.378399
C31	C	-0.299635	1.073363	-0.378411
C32	C	0.308157	0.598351	-0.326030
C33	C	0.375895	0.548954	-0.306725
C34	C	0.357829	0.646694	-0.378375
C35	C	0.290115	0.549010	-0.397679
C36	C	0.357845	0.500709	-0.378408
C37	C	0.425602	0.598384	-0.359032
C38	C	0.339777	0.598444	-0.450020
C39	C	0.407561	0.549069	-0.430741
C40	C	0.357819	0.730792	-0.378354
C41	C	0.357862	0.416612	-0.378429
C42	C	0.550780	1.073300	-0.378389
C43	C	0.633326	1.073359	-0.378417
C44	C	0.357773	1.073367	-0.583128
C45	C	0.357750	1.073386	-0.670377
C46	C	0.357856	1.267028	-0.378427
C47	C	0.357868	1.349573	-0.378446
C48	C	0.310254	1.120897	-0.711382
C49	C	0.310229	1.120906	-0.793363
C50	C	0.357705	1.073407	-0.834337
C51	C	0.405203	1.025891	-0.793326
C52	C	0.405223	1.025879	-0.711347
C53	C	0.405158	1.025921	-0.964196
C54	C	0.405139	1.025934	-1.046181
C55	C	0.310164	1.120948	-1.046212
C56	C	0.310185	1.120936	-0.964233
C57	C	0.357684	1.073421	-0.923228
C58	C	0.357829	1.073320	-0.174435
C59	C	0.357643	1.073445	-0.087186
H60	H	-0.096228	1.164995	-0.475162
H61	H	0.271596	1.159579	-0.678027
H62	H	-0.188954	1.198430	-0.343040
N63	N	0.460325	0.522072	-0.486280
N64	N	0.468550	0.453894	-0.495671
H65	H	0.505817	0.434825	-0.534891
N66	N	0.395055	0.521666	-0.230741
N67	N	0.398660	0.453443	-0.218753
H68	H	0.412186	0.434172	-0.165087
N69	N	-0.090711	1.110862	-0.230769
N70	N	-0.022510	1.114003	-0.218508
H71	H	-0.003350	1.127637	-0.164843
H72	H	0.271555	1.159596	-0.826746
N73	N	0.497468	0.625483	-0.338482
N74	N	0.509052	0.693679	-0.335125
H75	H	0.559805	0.712820	-0.320609
N76	N	0.320577	0.625728	-0.525988
N77	N	0.259123	0.609947	-0.555326
H78	H	0.245555	0.629218	-0.608980
H79	H	0.271487	1.159636	-1.079602
H80	H	-0.188711	0.981791	-0.281503
H81	H	0.443826	0.987217	-0.930812
H82	H	0.443856	0.987214	-0.826694
N83	N	-0.090605	0.933792	-0.417938
N84	N	-0.106416	0.906152	-0.482928
H85	H	-0.087177	0.855412	-0.497322
H86	H	0.232850	0.527283	-0.413965
H87	H	-0.188976	1.039929	-0.510572
N88	N	0.453603	0.977399	-1.088053
N89	N	0.427421	0.930107	-1.133786
H90	H	0.461642	0.895826	-1.163366
H91	H	0.271530	1.159618	-0.930874
H92	H	0.266196	0.619991	-0.281716
H93	H	0.443892	0.987183	-0.677962
