data_functionalizedCrystal
_audit_creation_method	'MofGen! by Chris Wilmer'
_symmetry_space_group_name_H-M	'P1'
_symmetry_Int_Tables_number	1
_symmetry_cell_setting	triclinic
loop_
_symmetry_equiv_pos_as_xyz
  x,y,z
_cell_length_a	17.699077
_cell_length_b	16.176319
_cell_length_c	17.699083
_cell_angle_alpha	89.992304
_cell_angle_beta	83.281795
_cell_angle_gamma	89.993140
loop_
_atom_site_label
_atom_site_type_symbol
_atom_site_fract_x
_atom_site_fract_y
_atom_site_fract_z
O1	O	1.004082	-0.068737	0.095692
O2	O	0.783703	-0.068741	0.108149
O3	O	0.900118	-0.068732	-0.008269
O4	O	0.887666	-0.068747	0.212110
O5	O	0.900102	0.068761	-0.008277
O6	O	0.783687	0.068752	0.108141
O7	O	1.004066	0.068756	0.095684
Cu8	Cu	0.893875	0.081308	0.101912
Cu9	Cu	0.893894	-0.081294	0.101921
O10	O	0.887650	0.068746	0.212102
C11	C	0.755498	0.000005	0.107700
C12	C	0.671479	0.000003	0.106363
C13	C	0.632003	0.074952	0.105729
C14	C	0.553061	0.074953	0.104461
C15	C	0.513595	0.000004	0.103832
C16	C	0.553077	-0.074950	0.104464
C17	C	0.632019	-0.074950	0.105726
C18	C	0.234714	-0.074951	0.099370
C19	C	0.155766	-0.074945	0.098110
C20	C	0.155755	0.074952	0.098105
C21	C	0.234697	0.074951	0.099367
C22	C	0.274173	-0.000002	0.099995
C23	C	0.359772	-0.000002	0.101369
C24	C	0.427997	0.000004	0.102464
C25	C	0.899664	0.000015	-0.036470
C26	C	0.898326	0.000015	-0.120488
C27	C	1.032271	0.000008	0.096133
C28	C	1.116289	0.000004	0.097470
N29	N	0.893867	0.195673	0.101906
N30	N	0.893907	-0.195659	0.101921
C31	C	0.945431	0.238942	0.050377
C32	C	0.945435	0.325489	0.050376
C33	C	0.893878	0.368766	0.101908
C34	C	0.842308	0.325491	0.153439
C35	C	0.842301	0.238946	0.153436
C36	C	0.842334	0.674520	0.153454
C37	C	0.842346	0.761071	0.153455
C38	C	0.945468	0.761063	0.050393
C39	C	0.945461	0.674517	0.050390
C40	C	0.893889	0.631250	0.101918
C41	C	0.893884	0.537406	0.101918
C42	C	0.893885	0.462608	0.101913
C43	C	0.966659	0.000018	-0.169110
C44	C	0.965397	0.000010	-0.248054
C45	C	0.895800	0.000006	-0.278373
C46	C	0.827461	0.000001	-0.229744
C47	C	0.828724	0.000003	-0.150803
C48	C	0.822366	-0.000005	-0.548107
C49	C	0.821108	-0.000004	-0.627055
C50	C	0.959039	0.000002	-0.645358
C51	C	0.960302	0.000003	-0.566417
C52	C	0.891963	-0.000006	-0.517795
C53	C	0.893333	0.000000	-0.432196
C54	C	0.894430	0.000006	-0.363971
C55	C	0.888104	-0.000002	0.240303
C56	C	0.889443	-0.000008	0.324321
H57	H	0.520924	0.135983	0.103932
O58	O	1.027974	-0.000030	-0.537091
C59	C	1.088018	-0.000010	-0.596936
H60	H	1.066904	-0.026040	-0.650523
H61	H	1.109084	0.065952	-0.608153
C62	C	1.179607	-0.021960	-0.508951
C63	C	1.153675	-0.053937	-0.574766
H64	H	1.220109	-0.055221	-0.495276
H65	H	1.139155	-0.021970	-0.468632
H66	H	1.197156	0.033008	-0.518308
H67	H	1.136118	-0.108900	-0.565406
H68	H	1.194126	-0.053937	-0.615083
O69	O	0.792297	0.367656	0.203470
C70	C	0.803348	0.453322	0.192414
H71	H	0.863573	0.465134	0.164050
H72	H	0.760585	0.477902	0.154508
C73	C	0.717860	0.483233	0.304694
C74	C	0.791833	0.497741	0.269862
H75	H	0.710754	0.510634	0.352467
H76	H	0.710413	0.425518	0.312141
H77	H	0.682233	0.503716	0.273098
H78	H	0.827458	0.477249	0.301453
H79	H	0.799286	0.555454	0.262422
H80	H	0.766721	-0.000013	-0.508528
O81	O	0.273173	-0.147684	0.099959
C82	C	0.351310	-0.131621	0.101226
H83	H	0.365271	-0.067210	0.077438
H84	H	0.365655	-0.135174	0.162282
C85	C	0.381281	-0.275397	0.081486
C86	C	0.398428	-0.196288	0.052262
H87	H	0.410347	-0.315288	0.051286
H88	H	0.328638	-0.286220	0.080635
H89	H	0.393235	-0.278346	0.132365
H90	H	0.386465	-0.193337	0.001388
H91	H	0.451070	-0.185466	0.053104
H92	H	0.520938	-0.135974	0.103946
O93	O	0.995508	0.632374	0.000379
C94	C	1.042118	0.582178	0.040746
H95	H	1.043469	0.608246	0.100411
H96	H	1.018301	0.516643	0.044809
C97	C	1.121720	0.548644	-0.074524
C98	C	1.123384	0.580665	-0.001246
H99	H	1.171848	0.547707	-0.100428
H100	H	1.090317	0.582459	-0.101722
H101	H	1.101870	0.494034	-0.071128
H102	H	1.143225	0.635277	-0.004643
H103	H	1.154793	0.546859	0.025950
O104	O	0.670418	-0.147735	0.106212
C105	C	0.724791	-0.152207	0.041427
H106	H	0.707076	-0.109671	-0.004753
H107	H	0.782652	-0.132074	0.057197
C108	C	0.751712	-0.293993	0.068459
C109	C	0.729951	-0.241754	0.011738
H110	H	0.754898	-0.349230	0.050146
H111	H	0.715082	-0.290979	0.112107
H112	H	0.799928	-0.277205	0.081595
H113	H	0.681732	-0.258536	-0.001391
H114	H	0.766573	-0.244773	-0.031914
O115	O	1.034333	-0.000017	-0.139787
C116	C	1.094374	0.000001	-0.199635
H117	H	1.073256	-0.026028	-0.253220
H118	H	1.115441	0.065963	-0.210853
C119	C	1.185968	-0.021952	-0.111657
C120	C	1.160031	-0.053928	-0.177469
H121	H	1.226470	-0.055214	-0.097983
H122	H	1.145518	-0.021961	-0.071335
H123	H	1.203518	0.033016	-0.121014
H124	H	1.142473	-0.108890	-0.168108
H125	H	1.200480	-0.053929	-0.217789
O126	O	0.792185	0.197040	0.203566
C127	C	0.746667	0.253794	0.249040
H128	H	0.777700	0.315479	0.249859
H129	H	0.690494	0.263017	0.224534
C130	C	0.692794	0.144240	0.329701
C131	C	0.730911	0.220000	0.330713
H132	H	0.683071	0.123394	0.380080
H133	H	0.723457	0.106003	0.299063
H134	H	0.645986	0.151936	0.309276
H135	H	0.777722	0.212301	0.351128
H136	H	0.700255	0.258235	0.361356
O137	O	0.995440	0.196962	0.000198
C138	C	0.983272	0.218171	-0.074697
H139	H	0.922674	0.241963	-0.074967
H140	H	1.025252	0.268420	-0.096970
C141	C	1.069558	0.112100	-0.125726
C142	C	0.995128	0.141315	-0.126059
H143	H	1.076874	0.064693	-0.157410
H144	H	1.077759	0.097812	-0.075268
H145	H	1.104533	0.153981	-0.144285
H146	H	0.960155	0.099438	-0.107492
H147	H	0.986922	0.155594	-0.176515
O148	O	0.995631	0.802965	0.000299
C149	C	1.041121	0.746208	-0.045196
H150	H	1.041915	0.684512	-0.014162
H151	H	1.016650	0.737013	-0.101388
C152	C	1.121822	0.855746	-0.099022
C153	C	1.122802	0.779972	-0.060903
H154	H	1.172206	0.876573	-0.108714
H155	H	1.091173	0.893985	-0.068373
H156	H	1.101426	0.848073	-0.145845
H157	H	1.143189	0.787647	-0.014077
H158	H	1.153457	0.741734	-0.091544
O159	O	1.025355	-0.000035	-0.692699
C160	C	1.009323	-0.000020	-0.768877
H161	H	0.949884	-0.026055	-0.771791
H162	H	1.012224	0.065941	-0.791724
C163	C	1.141186	-0.021962	-0.813714
C164	C	1.068184	-0.053945	-0.817294
H165	H	1.177496	-0.055221	-0.843581
H166	H	1.151988	-0.021968	-0.762392
H167	H	1.143593	0.033006	-0.832752
H168	H	1.065776	-0.108907	-0.798248
H169	H	1.057383	-0.053949	-0.868615
H170	H	0.266826	0.135982	0.099883
H171	H	0.123605	0.135983	0.097590
O172	O	0.753432	-0.000052	-0.656382
C173	C	0.693384	-0.000042	-0.596541
H174	H	0.714504	-0.026070	-0.542947
H175	H	0.672297	0.065917	-0.585338
C176	C	0.601809	-0.022004	-0.684527
C177	C	0.627747	-0.053978	-0.618704
H178	H	0.561318	-0.055271	-0.698198
H179	H	0.642263	-0.022008	-0.724844
H180	H	0.584241	0.032961	-0.675182
H181	H	0.645322	-0.108938	-0.628052
H182	H	0.587294	-0.053985	-0.578389
H183	H	0.987422	0.360718	0.008417
H184	H	0.800359	0.796306	0.195420
H185	H	0.123635	-0.135981	0.097597
O186	O	0.759921	0.000034	-0.259320
C187	C	0.773457	0.000015	-0.339422
H188	H	0.832552	0.026047	-0.358074
H189	H	0.769837	-0.065947	-0.361385
C190	C	0.640723	0.021962	-0.349150
C191	C	0.713302	0.053941	-0.372059
H192	H	0.603615	0.055222	-0.369284
H193	H	0.631602	0.021971	-0.295184
H194	H	0.637717	-0.033006	-0.367454
H195	H	0.716310	0.108904	-0.353748
H196	H	0.722422	0.053942	-0.426024
H197	H	1.021041	0.000014	-0.287639
H198	H	0.773080	0.000001	-0.111214
H199	H	0.664130	0.135984	0.106247
H200	H	0.800343	0.639299	0.195411
