data_functionalizedCrystal
_audit_creation_method	'MofGen! by Chris Wilmer'
_symmetry_space_group_name_H-M	'P1'
_symmetry_Int_Tables_number	1
_symmetry_cell_setting	triclinic
loop_
_symmetry_equiv_pos_as_xyz
  x,y,z
_cell_length_a	17.699083
_cell_length_b	14.519731
_cell_length_c	16.776229
_cell_angle_alpha	89.992369
_cell_angle_beta	89.998886
_cell_angle_gamma	83.485934
loop_
_atom_site_label
_atom_site_type_symbol
_atom_site_fract_x
_atom_site_fract_y
_atom_site_fract_z
O1	O	1.004420	0.116623	-0.066178
O2	O	1.337753	0.449956	0.267155
O3	O	1.671086	0.783290	0.600488
O4	O	0.784086	0.131796	-0.066205
O5	O	1.117419	0.465129	0.267129
O6	O	1.450752	0.798463	0.600462
O7	O	0.900086	-0.010052	-0.066183
O8	O	1.233419	0.323281	0.267150
O9	O	1.566753	0.656614	0.600483
O10	O	0.888419	0.258471	-0.066199
O11	O	1.221753	0.591805	0.267134
O12	O	1.555086	0.925138	0.600467
O13	O	0.900071	-0.010061	0.066393
O14	O	1.233404	0.323272	0.399726
O15	O	1.566737	0.656606	0.733060
O16	O	0.784070	0.131787	0.066372
O17	O	1.117404	0.465121	0.399705
O18	O	1.450737	0.798454	0.733039
O19	O	1.004404	0.116614	0.066398
O20	O	1.337738	0.449948	0.399732
O21	O	1.671071	0.783281	0.733065
Zn22	Zn	0.894235	0.124200	0.087435
Zn23	Zn	1.227568	0.457533	0.420768
Zn24	Zn	1.560901	0.790866	0.754101
Zn25	Zn	0.894255	0.124211	-0.087241
Zn26	Zn	1.227588	0.457544	0.246093
Zn27	Zn	1.560922	0.790878	0.579426
O28	O	0.888404	0.258463	0.066377
O29	O	1.221737	0.591796	0.399711
O30	O	1.555070	0.925129	0.733044
C31	C	0.755879	0.131248	0.000080
C32	C	1.089213	0.464581	0.333414
C33	C	1.422546	0.797915	0.666747
C34	C	0.671857	0.129617	0.000071
C35	C	1.005190	0.462950	0.333404
C36	C	1.338523	0.796284	0.666737
C37	C	0.623479	0.212879	0.000066
C38	C	0.956812	0.546212	0.333399
C39	C	1.290146	0.879546	0.666733
C40	C	0.544531	0.211341	0.000076
C41	C	0.877865	0.544674	0.333410
C42	C	1.211198	0.878008	0.666743
C43	C	0.513962	0.126540	0.000086
C44	C	0.847296	0.459873	0.333419
C45	C	1.180629	0.793207	0.666752
C46	C	0.562346	0.043272	0.000093
C47	C	0.895679	0.376605	0.333426
C48	C	1.229013	0.709938	0.666759
C49	C	0.641292	0.044811	0.000088
C50	C	0.974626	0.378144	0.333421
C51	C	1.307959	0.711477	0.666755
C52	C	0.243965	0.037063	0.000113
C53	C	0.577298	0.370396	0.333446
C54	C	0.910631	0.703730	0.666780
C55	C	0.165012	0.035531	0.000115
C56	C	0.498346	0.368864	0.333449
C57	C	0.831679	0.702197	0.666782
C58	C	0.147204	0.203594	0.000101
C59	C	0.480537	0.536927	0.333434
C60	C	0.813871	0.870260	0.666768
C61	C	0.226150	0.205133	0.000096
C62	C	0.559483	0.538466	0.333430
C63	C	0.892817	0.871799	0.666763
C64	C	0.274527	0.121865	0.000108
C65	C	0.607860	0.455198	0.333441
C66	C	0.941193	0.788531	0.666774
C67	C	0.360131	0.123533	0.000098
C68	C	0.693464	0.456867	0.333431
C69	C	1.026797	0.790200	0.666765
C70	C	0.428360	0.124870	0.000090
C71	C	0.761693	0.458204	0.333423
C72	C	1.095027	0.791537	0.666756
C73	C	0.899532	-0.044414	0.000105
C74	C	1.232865	0.288920	0.333438
C75	C	1.566198	0.622253	0.666772
C76	C	0.897894	-0.146787	0.000105
C77	C	1.231227	0.186546	0.333439
C78	C	1.564560	0.519880	0.666772
C79	C	0.896563	-0.229926	0.000103
C80	C	1.229896	0.103408	0.333437
C81	C	1.563229	0.436741	0.666770
C82	C	0.894899	-0.334227	0.000097
C83	C	1.228233	-0.000894	0.333430
C84	C	1.561566	0.332439	0.666764
C85	C	0.893579	-0.417361	0.000092
C86	C	1.226913	-0.084027	0.333425
C87	C	1.560246	0.249306	0.666758
C88	C	0.891916	-0.521669	0.000087
C89	C	1.225250	-0.188336	0.333420
C90	C	1.558583	0.144998	0.666754
C91	C	1.032611	0.117162	0.000112
C92	C	1.365944	0.450496	0.333445
C93	C	1.699277	0.783829	0.666778
C94	C	1.116633	0.118793	0.000116
C95	C	1.449967	0.452127	0.333450
C96	C	1.783300	0.785460	0.666783
C97	C	0.888958	0.292824	0.000087
C98	C	1.222292	0.626158	0.333420
C99	C	1.555625	0.959491	0.666754
C100	C	0.890596	0.395198	0.000082
C101	C	1.223930	0.728531	0.333415
C102	C	1.557263	1.061864	0.666748
N103	N	0.894226	0.124191	0.206646
N104	N	1.227560	0.457524	0.539979
N105	N	1.560893	0.790858	0.873312
N106	N	0.894269	0.124212	-0.206452
N107	N	1.227603	0.457545	0.126881
N108	N	1.560936	0.790879	0.460215
C109	C	0.945607	0.061406	0.248372
C110	C	1.278940	0.394740	0.581706
C111	C	1.612274	0.728073	0.915039
C112	C	0.945611	0.061406	0.331824
C113	C	1.278945	0.394739	0.665158
C114	C	1.612278	0.728072	0.998491
C115	C	0.894238	0.124195	0.373549
C116	C	1.227571	0.457528	0.706882
C117	C	1.560905	0.790861	1.040215
C118	C	0.842852	0.186982	0.331816
C119	C	1.176185	0.520316	0.665150
C120	C	1.509518	0.853649	0.998483
C121	C	0.842844	0.186978	0.248366
C122	C	1.176178	0.520311	0.581699
C123	C	1.509511	0.853645	0.915032
C124	C	0.842879	0.187001	0.668364
C125	C	1.176212	0.520334	1.001697
C126	C	1.509546	0.853667	1.335030
C127	C	0.842892	0.187002	0.751820
C128	C	1.176225	0.520335	1.085153
C129	C	1.509558	0.853669	1.418487
C130	C	0.945646	0.061428	0.751822
C131	C	1.278979	0.394761	1.085156
C132	C	1.612313	0.728095	1.418489
C133	C	0.945639	0.061424	0.668372
C134	C	1.278972	0.394757	1.001705
C135	C	1.612305	0.728090	1.335038
C136	C	0.894250	0.124208	0.626647
C137	C	1.227584	0.457541	0.959980
C138	C	1.560917	0.790874	1.293313
C139	C	0.894245	0.124207	0.536158
C140	C	1.227579	0.457540	0.869492
C141	C	1.560912	0.790873	1.202825
C142	C	0.894246	0.124201	0.464035
C143	C	1.227579	0.457534	0.797369
C144	C	1.560912	0.790868	1.130702
H145	H	0.505145	0.279141	0.000072
H146	H	0.838478	0.612475	0.333405
H147	H	1.171812	0.945808	0.666738
C148	C	1.002169	-0.007644	0.797727
C149	C	1.335502	0.325689	1.131060
C150	C	1.668835	0.659022	1.464394
N151	N	1.044740	-0.059668	0.832301
N152	N	1.378074	0.273665	1.165635
N153	N	1.711407	0.606999	1.498968
H154	H	0.987449	0.010281	0.365798
H155	H	1.320782	0.343614	0.699131
H156	H	1.654116	0.676948	1.032464
C157	C	0.093982	0.295191	0.000099
C158	C	0.427316	0.628524	0.333433
C159	C	0.760649	0.961858	0.666766
N160	N	0.053897	0.364180	0.000097
N161	N	0.387230	0.697513	0.333431
N162	N	0.720564	1.030847	0.666764
H163	H	0.987444	0.010280	0.214406
H164	H	1.320778	0.343613	0.547739
H165	H	1.654111	0.676947	0.881072
H166	H	0.251035	0.274186	0.000085
H167	H	0.584368	0.607519	0.333418
H168	H	0.917701	0.940853	0.666752
H169	H	0.140127	-0.033529	0.000124
H170	H	0.473460	0.299805	0.333457
H171	H	0.806793	0.633138	0.666791
C172	C	0.657097	0.306168	0.000057
C173	C	0.990430	0.639502	0.333390
C174	C	1.323763	0.972835	0.666723
N175	N	0.682415	0.376437	0.000054
N176	N	1.015748	0.709770	0.333387
N177	N	1.349082	1.043103	0.666721
C178	C	0.297169	-0.054534	0.000120
C179	C	0.630502	0.278799	0.333453
C180	C	0.963836	0.612132	0.666787
N181	N	0.337246	-0.123530	0.000124
N182	N	0.670579	0.209803	0.333458
N183	N	1.003912	0.543136	0.666791
C184	C	0.786333	0.256043	0.377716
C185	C	1.119666	0.589376	0.711049
C186	C	1.453000	0.922709	1.044383
N187	N	0.743762	0.308060	0.412287
N188	N	1.077095	0.641393	0.745620
N189	N	1.410428	0.974727	1.078954
H190	H	0.537451	-0.025775	0.000112
H191	H	0.870784	0.307558	0.333445
H192	H	1.204117	0.640892	0.666779
C193	C	1.002152	-0.007651	0.622480
C194	C	1.335485	0.325682	0.955813
C195	C	1.668818	0.659016	1.289146
N196	N	1.044716	-0.059683	0.587915
N197	N	1.378049	0.273650	0.921248
N198	N	1.711383	0.606983	1.254582
C199	C	0.786369	0.256072	0.797715
C200	C	1.119703	0.589406	1.131048
C201	C	1.453036	0.922739	1.464382
N202	N	0.743798	0.308093	0.832283
N203	N	1.077132	0.641426	1.165617
N204	N	1.410465	0.974759	1.498950
C205	C	0.694508	-0.046784	0.000091
C206	C	1.027841	0.286549	0.333424
C207	C	1.361174	0.619882	0.666758
N208	N	0.734589	-0.115777	0.000095
N209	N	1.067922	0.217557	0.333428
N210	N	1.401256	0.550890	0.666762
C211	C	0.786449	0.256184	0.622477
C212	C	1.119782	0.589518	0.955810
C213	C	1.453115	0.922851	1.289144
N214	N	0.743977	0.308340	0.587912
N215	N	1.077311	0.641673	0.921246
N216	N	1.410644	0.975006	1.254579
C217	C	0.786328	0.256054	0.202467
C218	C	1.119661	0.589387	0.535800
C219	C	1.452994	0.922720	0.869134
N220	N	0.743758	0.308084	0.167897
N221	N	1.077091	0.641417	0.501231
N222	N	1.410424	0.974751	0.834564
