data_functionalizedCrystal
_audit_creation_method	'MofGen! by Chris Wilmer'
_symmetry_space_group_name_H-M	'P1'
_symmetry_Int_Tables_number	1
_symmetry_cell_setting	triclinic
loop_
_symmetry_equiv_pos_as_xyz
  x,y,z
_cell_length_a	8.559649
_cell_length_b	14.044220
_cell_length_c	7.088929
_cell_angle_alpha	83.206932
_cell_angle_beta	95.325015
_cell_angle_gamma	81.483771
loop_
_atom_site_label
_atom_site_type_symbol
_atom_site_fract_x
_atom_site_fract_y
_atom_site_fract_z
O1	O	2.100735	-0.021003	-0.158955
O2	O	1.642435	0.027448	-0.158968
O3	O	1.864708	-0.134262	-0.158943
O4	O	1.878463	0.140708	-0.158981
O5	O	1.894406	-0.155917	0.159035
O6	O	1.672134	0.005793	0.159010
O7	O	2.130433	-0.042657	0.159023
Cu8	Cu	1.903995	-0.020409	0.188051
Cu9	Cu	1.868874	0.005200	-0.187996
O10	O	1.908161	0.119053	0.158998
C11	C	1.598278	0.020292	0.000019
C12	C	1.422455	0.031222	0.000015
C13	C	1.873535	-0.179966	0.000047
C14	C	1.855571	-0.283884	0.000048
C15	C	1.822727	-0.474153	0.000020
C16	C	1.950133	-0.541060	0.000018
C17	C	1.931858	-0.646933	0.000002
C18	C	1.841000	-0.368270	0.000036
C19	C	2.174590	-0.035501	0.000031
C20	C	2.350412	-0.046430	0.000023
C21	C	1.899334	0.164757	0.000004
C22	C	1.917296	0.268676	-0.000011
N23	N	1.928709	-0.038422	0.452541
N24	N	1.844171	0.023205	-0.452487
H25	H	1.423242	-0.121272	0.000024
H26	H	2.016343	-0.102285	0.534207
O27	O	1.335765	0.120551	0.000252
C28	C	1.387313	0.159682	0.164955
H29	H	1.514326	0.123883	0.219873
H30	H	1.306055	0.145501	0.280267
C31	C	1.225814	0.313914	0.047461
C32	C	1.381819	0.269950	0.114904
H33	H	1.222419	0.381933	0.016593
H34	H	1.191080	0.287550	-0.063499
H35	H	1.158116	0.302086	0.143566
H36	H	1.449509	0.281768	0.018791
H37	H	1.416564	0.296319	0.225848
O38	O	2.096531	-0.514388	0.000126
C39	C	2.082428	-0.413081	0.000093
H40	H	1.967849	-0.385333	0.060278
H41	H	2.079666	-0.375984	-0.152451
C42	C	2.366258	-0.424095	0.050902
C43	C	2.225537	-0.390016	0.124837
H44	H	2.454537	-0.409865	0.127841
H45	H	2.375762	-0.492347	0.050917
H46	H	2.363934	-0.393177	-0.076217
H47	H	2.227855	-0.420942	0.251943
H48	H	2.216038	-0.321768	0.124846
O49	O	1.739820	0.099506	0.450197
C50	C	1.783477	0.187166	0.498992
H51	H	1.915279	0.174619	0.554121
H52	H	1.710579	0.213291	0.615046
C53	C	1.589713	0.279988	0.253342
C54	C	1.751599	0.264580	0.321037
H55	H	1.570044	0.327743	0.143575
H56	H	1.560296	0.220931	0.220472
H57	H	1.528984	0.301755	0.350070
H58	H	1.812323	0.242802	0.224318
H59	H	1.781026	0.323635	0.353887
H60	H	1.699936	-0.496383	0.000012
