data_functionalizedCrystal
_audit_creation_method	'MofGen! by Chris Wilmer'
_symmetry_space_group_name_H-M	'P1'
_symmetry_Int_Tables_number	1
_symmetry_cell_setting	triclinic
loop_
_symmetry_equiv_pos_as_xyz
  x,y,z
_cell_length_a	6.817900
_cell_length_b	10.992723
_cell_length_c	19.453114
_cell_angle_alpha	94.462512
_cell_angle_beta	101.709288
_cell_angle_gamma	108.770285
loop_
_atom_site_label
_atom_site_type_symbol
_atom_site_fract_x
_atom_site_fract_y
_atom_site_fract_z
V1	V	-4.034025	-0.179100	-0.218993
O2	O	-3.993644	0.007230	-0.214830
O3	O	-4.012187	-0.353802	-0.217489
O4	O	-3.976613	-0.176949	-0.314506
O5	O	-4.029464	-0.170847	-0.117142
V6	V	-4.515379	-0.156742	-0.206811
O7	O	-4.300042	-0.228146	-0.245714
O8	O	-4.699559	-0.107696	-0.180090
O9	O	-4.314010	0.017960	-0.208315
O10	O	-4.673157	-0.343072	-0.210974
O11	O	-4.637336	-0.164995	-0.308662
O12	O	-4.349584	-0.158893	-0.111298
C13	C	-3.863942	-0.396372	-0.214033
C14	C	-3.927314	-0.539196	-0.213440
C15	C	-4.238101	-0.750156	-0.216562
C16	C	-4.172498	-0.601682	-0.217450
C17	C	-3.880545	-0.608806	-0.278496
C18	C	-3.947906	-0.757476	-0.277960
C19	C	-3.865739	-0.718381	-0.143683
C20	C	-3.803455	-0.569659	-0.143491
C21	C	-3.818562	-0.170777	-0.337786
C22	C	-3.853081	-0.170174	-0.415869
C23	C	-4.052060	-0.176340	-0.456126
C24	C	-4.084494	-0.175774	-0.529493
C25	C	-3.917950	-0.169068	-0.562602
C26	C	-3.718939	-0.162894	-0.522335
C27	C	-3.686504	-0.163447	-0.448968
N28	N	-3.868524	-0.236919	-0.681389
N29	N	-3.899349	-0.236397	-0.751084
C30	C	-4.015663	-0.167398	-0.783650
N31	N	-4.100025	-0.098958	-0.743890
N32	N	-4.069205	-0.099487	-0.674188
C33	C	-3.953100	-0.168466	-0.642155
C34	C	-4.249823	-0.172948	-0.903460
C35	C	-4.282246	-0.172374	-0.976827
C36	C	-3.916692	-0.159506	-0.969669
C37	C	-3.884268	-0.160068	-0.896302
C38	C	-4.050844	-0.166795	-0.863202
C39	C	-4.125599	0.060523	-0.211770
C40	C	-4.041465	0.203346	-0.212367
C41	C	-4.170978	-0.165069	-0.088014
C42	C	-4.115697	-0.165665	-0.009931
H43	H	-4.070408	-0.809613	-0.329680
H44	H	-3.803567	-0.788506	-0.277780
H45	H	-3.583338	-0.157429	-0.549297
Cl46	Cl	-3.525462	-0.501617	-0.132689
Cl47	Cl	-3.638158	-0.763420	-0.137938
H48	H	-3.703838	-0.568365	-0.278033
Cl49	Cl	-4.532414	-0.180124	-1.027437
H50	H	-4.271351	-0.583343	-0.267647
Cl51	Cl	-3.954902	-0.757207	-0.066680
Cl52	Cl	-4.017512	-0.578132	-0.358414
H53	H	-3.838949	-0.522770	-0.095322
H54	H	-3.524464	-0.158416	-0.416190
H55	H	-4.312793	-0.775037	-0.169786
Cl56	Cl	-4.261467	-0.184789	-0.414518
H57	H	-4.246536	-0.180802	-0.562277
Cl58	Cl	-4.459220	-0.181394	-0.861844
Cl59	Cl	-3.707304	-0.151051	-1.011283
H60	H	-4.214441	-0.554248	-0.170952
Cl61	Cl	-4.439841	-0.834210	-0.293064
H62	H	-3.722245	-0.155061	-0.863525
