data_functionalizedCrystal
_audit_creation_method	'MofGen! by Chris Wilmer'
_symmetry_space_group_name_H-M	'P1'
_symmetry_Int_Tables_number	1
_symmetry_cell_setting	triclinic
loop_
_symmetry_equiv_pos_as_xyz
  x,y,z
_cell_length_a	13.897449
_cell_length_b	12.827892
_cell_length_c	12.827885
_cell_angle_alpha	89.970214
_cell_angle_beta	89.979901
_cell_angle_gamma	90.016672
loop_
_atom_site_label
_atom_site_type_symbol
_atom_site_fract_x
_atom_site_fract_y
_atom_site_fract_z
Zn1	Zn	1.474712	-0.415947	-0.590872
Zn2	Zn	1.724712	-0.165947	-0.340872
Zn3	Zn	1.974712	0.084053	-0.090872
Zn4	Zn	2.224712	0.334053	0.159128
Zn5	Zn	1.474614	-0.590724	-0.416132
Zn6	Zn	1.724614	-0.340724	-0.166132
Zn7	Zn	1.974614	-0.090724	0.083868
Zn8	Zn	2.224614	0.159276	0.333868
Zn9	Zn	1.313403	-0.416002	-0.416143
Zn10	Zn	1.563403	-0.166002	-0.166143
Zn11	Zn	1.813403	0.083998	0.083857
Zn12	Zn	2.063403	0.333998	0.333857
Zn13	Zn	1.313389	-0.590650	-0.590830
Zn14	Zn	1.563389	-0.340650	-0.340830
Zn15	Zn	1.813389	-0.090650	-0.090830
Zn16	Zn	2.063389	0.159350	0.159170
O17	O	1.394030	-0.503331	-0.503494
O18	O	1.644030	-0.253331	-0.253494
O19	O	1.894030	-0.003331	-0.003494
O20	O	2.144030	0.246669	0.246506
O21	O	1.609681	-0.439139	-0.567705
O22	O	1.859681	-0.189139	-0.317705
O23	O	2.109681	0.060861	-0.067705
O24	O	2.359681	0.310861	0.182295
O25	O	1.453194	-0.567601	-0.269897
O26	O	1.703194	-0.317601	-0.019897
O27	O	1.953194	-0.067601	0.230103
O28	O	2.203194	0.182399	0.480103
O29	O	1.334848	-0.269758	-0.439343
O30	O	1.584848	-0.019758	-0.189343
O31	O	1.834848	0.230242	0.060657
O32	O	2.084848	0.480242	0.310657
O33	O	1.609609	-0.567547	-0.439325
O34	O	1.859609	-0.317547	-0.189325
O35	O	2.109609	-0.067547	0.060675
O36	O	2.359609	0.182453	0.310675
O37	O	1.453361	-0.269718	-0.567716
O38	O	1.703361	-0.019718	-0.317716
O39	O	1.953361	0.230282	-0.067716
O40	O	2.203361	0.480282	0.182284
O41	O	1.334753	-0.439233	-0.269905
O42	O	1.584753	-0.189233	-0.019905
O43	O	1.834753	0.060767	0.230095
O44	O	2.084753	0.310767	0.480095
O45	O	1.178420	-0.439161	-0.439302
O46	O	1.428420	-0.189161	-0.189302
O47	O	1.678420	0.060839	0.060698
O48	O	1.928420	0.310839	0.310698
O49	O	1.334824	-0.567422	-0.737071
O50	O	1.584824	-0.317422	-0.487071
O51	O	1.834824	-0.067422	-0.237071
O52	O	2.084824	0.182578	0.012929
O53	O	1.178410	-0.567475	-0.567644
O54	O	1.428410	-0.317475	-0.317644
O55	O	1.678410	-0.067475	-0.067644
O56	O	1.928410	0.182525	0.182356
O57	O	1.453347	-0.439068	-0.737102
O58	O	1.703347	-0.189068	-0.487102
O59	O	1.953347	0.060932	-0.237102
O60	O	2.203347	0.310932	0.012898
O61	O	1.453181	-0.736950	-0.439284
O62	O	1.703181	-0.486950	-0.189284
O63	O	1.953181	-0.236950	0.060716
O64	O	2.203181	0.013050	0.310716
O65	O	1.334730	-0.736896	-0.567633
O66	O	1.584730	-0.486896	-0.317633
O67	O	1.834730	-0.236896	-0.067633
O68	O	2.084730	0.013104	0.182367
C69	C	1.393969	-0.774841	-0.503476
C70	C	1.643969	-0.524841	-0.253476
C71	C	1.893969	-0.274841	-0.003476
C72	C	2.143969	-0.024841	0.246524
C73	C	1.394032	-0.890994	-0.503503
C74	C	1.644032	-0.640994	-0.253503
C75	C	1.894032	-0.390994	-0.003503
C76	C	2.144032	-0.140994	0.246497
C77	C	1.143415	-0.503317	-0.503470
C78	C	1.393415	-0.253317	-0.253470
C79	C	1.643415	-0.003317	-0.003470
C80	C	1.893415	0.246683	0.246530
C81	C	1.036201	-0.503336	-0.503485
C82	C	1.286201	-0.253336	-0.253485
C83	C	1.536201	-0.003336	-0.003485
C84	C	1.786201	0.246664	0.246515
C85	C	1.452715	-0.942771	-0.440062
C86	C	1.702715	-0.692771	-0.190062
C87	C	1.952715	-0.442771	0.059938
C88	C	2.202715	-0.192771	0.309938
C89	C	1.452781	-1.062821	-0.440088
C90	C	1.702781	-0.812821	-0.190088
C91	C	1.952781	-0.562821	0.059912
C92	C	2.202781	-0.312821	0.309912
C93	C	0.839906	-0.503340	-0.503512
C94	C	1.089906	-0.253340	-0.253512
C95	C	1.339906	-0.003340	-0.003512
C96	C	1.589906	0.246660	0.246488
C97	C	0.949139	-0.503334	-0.503494
C98	C	1.199139	-0.253334	-0.253494
C99	C	1.449139	-0.003334	-0.003494
C100	C	1.699139	0.246666	0.246506
C101	C	1.645623	-0.503345	-0.503519
C102	C	1.895623	-0.253345	-0.253519
C103	C	2.145623	-0.003345	-0.003519
C104	C	2.395623	0.246655	0.246481
C105	C	1.752836	-0.503352	-0.503529
C106	C	2.002836	-0.253352	-0.253529
C107	C	2.252836	-0.003352	-0.003529
C108	C	2.502836	0.246648	0.246471
C109	C	1.394095	-0.503230	-0.776064
C110	C	1.644095	-0.253230	-0.526064
C111	C	1.894095	-0.003230	-0.276064
C112	C	2.144095	0.246770	-0.026064
C113	C	1.394123	-0.503188	-0.892218
C114	C	1.644123	-0.253188	-0.642218
C115	C	1.894123	-0.003188	-0.392218
C116	C	2.144123	0.246812	-0.142218
C117	C	1.394116	-0.230761	-0.503535
C118	C	1.644116	0.019239	-0.253535
C119	C	1.894116	0.269239	-0.003535
C120	C	2.144116	0.519239	0.246465
C121	C	1.394153	-0.114607	-0.503553
C122	C	1.644153	0.135393	-0.253553
C123	C	1.894153	0.385393	-0.003553
C124	C	2.144153	0.635393	0.246447
C125	C	1.452779	-0.439662	-0.944018
C126	C	1.702779	-0.189662	-0.694018
C127	C	1.952779	0.060338	-0.444018
C128	C	2.202779	0.310338	-0.194018
C129	C	1.452809	-0.439616	-1.064068
C130	C	1.702809	-0.189616	-0.814068
C131	C	1.952809	0.060384	-0.564068
C132	C	2.202809	0.310384	-0.314068
C133	C	1.394020	-0.503355	-0.231984
C134	C	1.644020	-0.253355	0.018016
C135	C	1.894020	-0.003355	0.268016
C136	C	2.144020	0.246645	0.518016
C137	C	1.394179	-0.503104	-0.115832
C138	C	1.644179	-0.253104	0.134168
C139	C	1.894179	-0.003104	0.384168
C140	C	2.144179	0.246896	0.634168
H141	H	1.502911	-0.898225	-0.385731
H142	H	1.752911	-0.648225	-0.135731
H143	H	2.002911	-0.398225	0.114269
H144	H	2.252911	-0.148225	0.364269
H145	H	1.503019	-1.107348	-0.385771
H146	H	1.753019	-0.857348	-0.135771
H147	H	2.003019	-0.607348	0.114229
H148	H	2.253019	-0.357348	0.364229
Br149	Br	1.310480	-0.593770	-1.041598
Br150	Br	1.560480	-0.343770	-0.791598
Br151	Br	1.810480	-0.093770	-0.541598
Br152	Br	2.060480	0.156230	-0.291598
Br153	Br	1.310378	-0.965233	-0.594077
Br154	Br	1.560378	-0.715233	-0.344077
Br155	Br	1.810378	-0.465233	-0.094077
Br156	Br	2.060378	-0.215233	0.155923
H157	H	1.343906	-1.070088	-0.557866
H158	H	1.593906	-0.820088	-0.307866
H159	H	1.843906	-0.570088	-0.057866
H160	H	2.093906	-0.320088	0.192134
H161	H	1.502970	-0.385305	-0.899489
H162	H	1.752970	-0.135305	-0.649489
H163	H	2.002970	0.114695	-0.399489
H164	H	2.252970	0.364695	-0.149489
Br165	Br	1.536521	-0.348970	-1.138308
Br166	Br	1.786521	-0.098970	-0.888308
Br167	Br	2.036521	0.151030	-0.638308
Br168	Br	2.286521	0.401030	-0.388308
H169	H	1.343922	-0.557534	-0.936746
H170	H	1.593922	-0.307534	-0.686746
H171	H	1.843922	-0.057534	-0.436746
H172	H	2.093922	0.192466	-0.186746
