data_functionalizedCrystal
_audit_creation_method	'MofGen! by Chris Wilmer'
_symmetry_space_group_name_H-M	'P1'
_symmetry_Int_Tables_number	1
_symmetry_cell_setting	triclinic
loop_
_symmetry_equiv_pos_as_xyz
  x,y,z
_cell_length_a	27.440280
_cell_length_b	27.440280
_cell_length_c	27.440280
_cell_angle_alpha	59.996946
_cell_angle_beta	60.004534
_cell_angle_gamma	90.007927
loop_
_atom_site_label
_atom_site_type_symbol
_atom_site_fract_x
_atom_site_fract_y
_atom_site_fract_z
Zr1	Zr	0.469562	-0.063892	0.533342
O2	O	0.391746	-0.141720	0.635022
O3	O	0.493408	-0.040034	0.431675
O4	O	0.493407	-0.141708	0.533349
O5	O	0.391756	0.040157	0.533339
O6	O	0.573610	-0.141698	0.533339
O7	O	0.391746	-0.040046	0.533349
O8	O	0.573610	0.040177	0.351464
O9	O	0.391756	-0.141719	0.715214
O10	O	0.563443	-0.029851	0.473480
O11	O	0.503596	0.029996	0.473480
O12	O	0.503596	-0.089712	0.593188
O13	O	0.443749	-0.029865	0.593188
Zr14	Zr	0.597493	0.064038	0.533312
Zr15	Zr	0.597476	-0.063876	0.533327
Zr16	Zr	0.469579	0.064022	0.533327
Zr17	Zr	0.469578	-0.063890	0.661240
Zr18	Zr	0.597476	0.064037	0.405415
O19	O	0.573647	0.040181	0.634979
O20	O	0.573623	-0.141697	0.635001
O21	O	0.391770	0.040158	0.635001
O22	O	0.675309	0.141866	0.431632
O23	O	0.675285	-0.040012	0.431654
O24	O	0.493431	0.141843	0.431654
O25	O	0.675298	-0.040011	0.533315
O26	O	0.573647	0.141854	0.533306
O27	O	0.493444	0.141844	0.533315
O28	O	0.675309	0.040192	0.533306
O29	O	0.493431	-0.141706	0.715203
O30	O	0.573624	0.141852	0.351452
O31	O	0.675298	0.141865	0.351440
O32	O	0.675285	0.040190	0.351452
O33	O	0.391769	-0.040044	0.715203
O34	O	0.493444	-0.040031	0.715191
O35	O	0.563458	0.089858	0.473466
O36	O	0.623305	0.030011	0.473466
O37	O	0.563458	-0.029850	0.593174
O38	O	0.503612	0.029997	0.593174
C39	C	0.373526	0.000053	0.533346
C40	C	0.319223	0.000046	0.533352
C41	C	0.533507	0.000071	0.373347
C42	C	0.533500	0.000071	0.319051
C43	C	0.533548	0.160074	0.533308
C44	C	0.533555	0.214377	0.533302
C45	C	0.013765	0.031336	0.470830
C46	C	-0.037254	0.031341	0.470826
O47	O	-0.037074	0.057934	0.417684
N48	N	-0.094010	0.000094	0.533311
C49	C	-0.099747	-0.031155	0.595805
O50	O	-0.152707	-0.057732	0.648953
C51	C	-0.048729	-0.031157	0.595808
C52	C	0.008027	0.000088	0.533318
C53	C	0.070518	0.062578	0.408345
C54	C	0.121533	0.062572	0.408349
C55	C	0.115795	0.031323	0.470838
C56	C	0.059042	0.000081	0.533322
C57	C	-0.054466	-0.062402	0.658300
C58	C	-0.003442	-0.062401	0.658298
C59	C	0.053313	-0.031157	0.595808
C60	C	0.104318	-0.031174	0.595815
N61	N	0.161074	0.000073	0.533329
C62	C	0.166812	0.031322	0.470841
C63	C	-0.206885	-0.031149	0.595793
C64	C	-0.257903	-0.031151	0.595791
C65	C	-0.195406	0.031346	0.470812
C66	C	-0.144388	0.031345	0.470815
C67	C	-0.150129	0.000098	0.533308
C68	C	0.273945	0.031306	0.470854
C69	C	0.324961	0.031295	0.470864
C70	C	0.262460	-0.031200	0.595842
C71	C	0.211448	-0.031192	0.595833
C72	C	0.217194	0.000066	0.533334
O73	O	0.104184	-0.057750	0.648930
O74	O	0.219774	0.057901	0.417702
C75	C	0.693528	0.000093	0.533308
C76	C	0.747831	0.000100	0.533302
C77	C	0.533506	-0.159928	0.533346
C78	C	0.533499	-0.214231	0.533352
C79	C	0.502271	0.519828	0.595825
C80	C	0.502266	0.570847	0.595828
O81	O	0.475680	0.570661	0.648970
N82	N	0.533506	0.627610	0.533343
C83	C	0.564748	0.633354	0.470850
O84	O	0.591319	0.686321	0.417701
C85	C	0.564750	0.582336	0.470847
C86	C	0.533513	0.525574	0.533336
C87	C	0.471036	0.463068	0.658309
C88	C	0.471043	0.412053	0.658305
C89	C	0.502284	0.417799	0.595816
C90	C	0.533519	0.474559	0.533332
C91	C	0.595988	0.588081	0.408354
C92	C	0.595987	0.537057	0.408356
C93	C	0.564750	0.480294	0.470846
C94	C	0.564767	0.429289	0.470840
N95	N	0.533527	0.372526	0.533325
C96	C	0.502286	0.366781	0.595813
C97	C	0.564741	0.740493	0.470861
C98	C	0.564744	0.791510	0.470863
C99	C	0.502260	0.728999	0.595842
C100	C	0.502262	0.677981	0.595839
C101	C	0.533502	0.683730	0.533346
C102	C	0.502302	0.259648	0.595800
C103	C	0.502314	0.208632	0.595791
C104	C	0.564794	0.271147	0.470812
C105	C	0.564786	0.322159	0.470821
C106	C	0.533535	0.316406	0.533321
O107	O	0.591338	0.429430	0.417725
O108	O	0.475713	0.313813	0.648953
C109	C	0.564783	-0.031161	-0.017691
C110	C	0.564789	-0.031160	-0.068715
O111	O	0.591375	-0.057709	-0.095121
N112	N	0.533549	0.000079	-0.094231
C113	C	0.502306	0.031322	-0.068726
O114	O	0.475735	0.057894	-0.095115
C115	C	0.502305	0.031324	-0.017706
C116	C	0.533542	0.000079	0.007812
C117	C	0.596018	-0.062403	0.007827
C118	C	0.596012	-0.062406	0.058848
C119	C	0.564770	-0.031166	0.084351
C120	C	0.533535	0.000076	0.058833
C121	C	0.471066	0.062571	0.007795
C122	C	0.471068	0.062570	0.058817
C123	C	0.502305	0.031325	0.084336
C124	C	0.502287	0.031314	0.135358
N125	N	0.533527	0.000075	0.160874
C126	C	0.564769	-0.031164	0.135371
C127	C	0.502313	0.031318	-0.175871
C128	C	0.502311	0.031313	-0.226886
C129	C	0.564794	-0.031168	-0.226873
C130	C	0.564792	-0.031167	-0.175853
C131	C	0.533553	0.000079	-0.150355
C132	C	0.564752	-0.031168	0.242520
C133	C	0.564741	-0.031169	0.293547
C134	C	0.502261	0.031314	0.293527
C135	C	0.502269	0.031314	0.242506
C136	C	0.533519	0.000072	0.217002
O137	O	0.475717	0.057852	0.161795
O138	O	0.591342	-0.057725	0.161760
C139	C	0.533548	0.000075	0.693308
C140	C	0.533555	0.000076	0.747604
C141	C	0.693508	0.000091	0.373328
C142	C	0.747804	0.000097	0.319026
C143	C	0.533528	0.160072	0.373328
C144	C	0.533528	0.214375	0.319026
C145	C	0.693529	0.160092	0.373309
C146	C	0.747832	0.214402	0.319001
C147	C	0.373526	-0.159946	0.693345
C148	C	0.319223	-0.214255	0.747654
C149	C	0.373547	0.000055	0.693326
C150	C	0.319251	0.000049	0.747629
C151	C	0.533527	-0.159926	0.693326
C152	C	0.533527	-0.214228	0.747629
C153	C	0.742054	-0.031152	0.293532
C154	C	0.793066	-0.031158	0.242516
C155	C	0.849827	0.000089	0.216992
C156	C	0.855575	0.031340	0.242490
C157	C	0.804564	0.031342	0.293509
C158	C	0.564775	0.271128	0.293517
C159	C	0.564773	0.322156	0.242502
C160	C	0.533526	0.316429	0.216992
C161	C	0.502275	0.259669	0.242505
C162	C	0.502274	0.208643	0.293523
C163	C	0.804578	0.208666	0.293497
C164	C	0.855606	0.259690	0.242475
C165	C	0.849887	0.316449	0.216955
C166	C	0.793135	0.322184	0.242464
C167	C	0.742108	0.271160	0.293488
C168	C	0.262477	-0.208520	0.773164
C169	C	0.211449	-0.259544	0.824201
C170	C	0.217168	-0.316303	0.849724
C171	C	0.273920	-0.322037	0.824212
C172	C	0.324947	-0.271014	0.773179
C173	C	0.325000	0.031293	0.773128
C174	C	0.273989	0.031285	0.824157
C175	C	0.217228	0.000036	0.849684
C176	C	0.211479	-0.031212	0.824183
C177	C	0.262491	-0.031207	0.773157
C178	C	0.564780	-0.208482	0.773122
C179	C	0.564791	-0.259500	0.824138
C180	C	0.533546	-0.316264	0.849663
C181	C	0.502293	-0.322009	0.824164
C182	C	0.502285	-0.270992	0.773146
H183	H	0.278632	0.056759	0.419961
H184	H	0.788374	-0.056606	0.221762
O185	O	0.468574	0.065011	0.214987
H186	H	0.434040	0.033467	0.224777
O187	O	0.386155	-0.277194	0.745671
H188	H	0.410901	-0.255441	0.689388
O189	O	0.904926	0.371481	0.161914
H190	H	0.945343	0.357951	0.148464
H191	H	0.445631	0.088015	-0.012974
H192	H	0.533557	-0.357800	0.891206
O193	O	0.904845	0.000090	0.161959
H194	H	0.891305	-0.026886	0.148519
H195	H	-0.008124	-0.087838	0.709188
H196	H	0.590187	0.837725	0.419978
H197	H	0.901811	0.255011	0.221711
H198	H	0.476854	0.254955	0.646693
O199	O	0.786970	0.383404	0.214926
H200	H	0.831989	0.417915	0.175154
H201	H	-0.100671	-0.087844	0.709186
O202	O	0.256281	-0.064907	0.745657
H203	H	0.301284	-0.059662	0.705890
O204	O	0.598487	-0.064862	-0.148335
H205	H	0.620212	-0.086581	-0.174647
H206	H	0.590220	0.275803	0.314282
H207	H	-0.304112	-0.056601	0.646676
O208	O	0.810773	0.065062	0.320989
H209	H	0.789034	0.033530	0.377272
O210	O	0.437369	0.096267	0.086325
H211	H	0.415647	0.117987	0.060009
O212	O	0.468615	-0.383236	0.851681
H213	H	0.446889	-0.378669	0.825376
H214	H	0.621425	0.634292	0.357468
H215	H	0.695905	0.275838	0.314247
O216	O	0.437338	0.456865	0.725713
H217	H	0.415625	0.408821	0.769154
O218	O	0.150230	-0.064891	0.663229
H219	H	0.154813	-0.086619	0.706682
O220	O	0.256302	-0.147304	0.745645
H221	H	0.208266	-0.151898	0.771971
O222	O	0.150242	-0.253353	0.851701
H223	H	0.154843	-0.205312	0.825364
H224	H	0.695841	-0.056605	0.314314
H225	H	0.590241	-0.254810	0.844894
H226	H	0.175613	-0.357845	0.891279
H227	H	0.590186	0.745182	0.419969
H228	H	0.901797	0.056780	0.221701
H229	H	0.590233	-0.056604	-0.247648
H230	H	0.809245	0.162455	0.314268
H231	H	0.278569	-0.368257	0.845000
O232	O	0.468572	-0.277189	0.745652
H233	H	0.420556	-0.301969	0.788494
H234	H	0.533532	0.357982	0.175450
H235	H	0.590224	0.368367	0.221735
O236	O	-0.213063	-0.064870	0.663190
H237	H	-0.237833	-0.046833	0.693172
H238	H	0.278681	0.056734	0.844912
O239	O	0.386179	0.064996	0.403463
H240	H	0.381593	0.086730	0.360012
H241	H	0.476835	0.255015	0.221727
O242	O	0.598487	-0.147264	0.745598
H243	H	0.593233	-0.112746	0.705840
H244	H	0.371213	0.056744	0.752348
H245	H	0.621425	0.541744	0.357466
O246	O	0.162209	0.000052	0.904699
H247	H	0.175749	0.027041	0.918127
O248	O	0.150256	-0.064917	0.851721
H249	H	0.125524	-0.033371	0.841927
O250	O	0.182745	0.096275	0.340950
H251	H	0.178154	0.118006	0.297504
H252	H	0.476831	0.162433	0.314285
O253	O	0.468600	0.065031	0.321024
H254	H	0.434071	0.033503	0.377311
O255	O	0.076713	0.096277	0.340942
H256	H	0.124752	0.117993	0.297500
H257	H	-0.098178	0.056792	0.419931
O258	O	0.256276	-0.064975	0.663240
H259	H	0.301289	-0.059748	0.652738
H260	H	-0.190741	0.056789	0.419930
H261	H	0.445605	0.365838	0.709190
O262	O	0.468618	0.147407	0.663192
H263	H	0.446888	0.151987	0.706643
O264	O	0.598477	0.383386	0.403425
H265	H	0.620200	0.378807	0.359973
H266	H	0.476825	0.631766	0.646724
O267	O	0.468554	0.722804	0.663245
H268	H	0.473797	0.767818	0.652743
H269	H	0.590233	0.275815	0.419936
O270	O	0.598435	-0.064869	0.321071
H271	H	0.620164	-0.086586	0.294756
H272	H	0.590200	-0.056607	0.221759
H273	H	0.621449	-0.087846	0.079620
H274	H	0.476867	0.056748	-0.247651
O275	O	0.629710	-0.096109	-0.019667
H276	H	0.677727	-0.078056	-0.042901
O277	O	0.468606	0.065010	-0.148359
H278	H	0.446881	0.086724	-0.174672
