data_functionalizedCrystal
_audit_creation_method	'MofGen! by Chris Wilmer'
_symmetry_space_group_name_H-M	'P1'
_symmetry_Int_Tables_number	1
_symmetry_cell_setting	triclinic
loop_
_symmetry_equiv_pos_as_xyz
  x,y,z
_cell_length_a	11.026607
_cell_length_b	10.489741
_cell_length_c	10.065875
_cell_angle_alpha	98.879541
_cell_angle_beta	79.302338
_cell_angle_gamma	96.562595
loop_
_atom_site_label
_atom_site_type_symbol
_atom_site_fract_x
_atom_site_fract_y
_atom_site_fract_z
O1	O	1.632468	0.520484	-0.113500
O2	O	1.278630	0.459543	-0.113501
O3	O	1.463599	0.306188	-0.113492
O4	O	1.447499	0.673839	-0.113509
O5	O	1.428329	0.335581	0.113495
O6	O	1.243360	0.488935	0.113486
O7	O	1.597198	0.549877	0.113487
Zn8	Zn	1.414679	0.524073	0.149526
Zn9	Zn	1.461149	0.485347	-0.149540
O10	O	1.412229	0.703232	0.113478
C11	C	1.215686	0.462996	-0.000008
C12	C	1.080679	0.429482	-0.000008
C13	C	1.007682	0.522021	-0.000013
C14	C	0.868146	0.487384	-0.000013
C15	C	1.444748	0.273085	0.000000
C16	C	1.441110	0.130655	-0.000002
C17	C	1.323420	0.036624	-0.000012
C18	C	1.361626	-0.028776	0.111904
C19	C	1.396427	-0.057724	-0.111887
C20	C	1.479350	0.067142	0.112007
C21	C	1.514151	0.038187	-0.111885
C22	C	1.552438	-0.027164	0.000059
C23	C	1.660143	0.546423	-0.000009
C24	C	1.795151	0.579937	-0.000018
C25	C	1.431080	0.736334	-0.000017
C26	C	1.434720	0.878763	-0.000024
N27	N	1.382974	0.550504	0.353630
N28	N	1.492864	0.458908	-0.353644
C29	C	1.450110	0.494533	0.421412
C30	C	1.425718	0.514887	0.578578
H31	H	0.827348	0.382504	-0.000043
O32	O	0.844029	0.704979	-0.000107
C33	C	1.027653	0.853524	-0.000080
C34	C	0.972464	0.711864	0.000004
H35	H	1.131496	0.859140	0.000038
H36	H	1.010979	0.890867	-0.095110
H37	H	0.981311	0.915457	0.094877
H38	H	1.018771	0.649829	-0.094889
H39	H	0.989124	0.674625	0.095097
O40	O	1.590893	0.073582	-0.224903
C41	C	1.633994	0.049480	-0.470646
C42	C	1.546977	0.009307	-0.342755
H43	H	1.598535	-0.002489	-0.565962
H44	H	1.636695	0.158661	-0.469105
H45	H	1.731236	0.021940	-0.471545
H46	H	1.449693	0.036760	-0.341773
H47	H	1.544383	-0.099870	-0.344345
O48	O	1.582748	0.383559	0.576586
C49	C	1.688605	0.294062	0.356326
C50	C	1.586944	0.379634	0.435169
H51	H	1.692014	0.290838	0.241977
H52	H	1.782093	0.336117	0.384013
H53	H	1.666909	0.191795	0.384636
H54	H	1.608523	0.481919	0.406901
H55	H	1.493487	0.337473	0.407476
H56	H	1.307434	0.613486	0.411952
H57	H	1.649281	-0.055275	0.000121
H58	H	1.361318	-0.111898	-0.206513
H59	H	1.226637	0.065005	0.000100
O60	O	1.031987	0.304358	-0.000246
C61	C	0.922428	0.122474	-0.117796
C62	C	0.977536	0.264173	-0.117711
H63	H	0.878368	0.089950	-0.212741
H64	H	0.999055	0.058111	-0.117882
H65	H	0.848982	0.114488	-0.022758
H66	H	1.050966	0.272283	-0.212732
H67	H	0.900839	0.328470	-0.117554
O68	O	1.284506	-0.064204	0.224680
C69	C	1.076627	-0.072225	0.352243
C70	C	1.163830	-0.032073	0.224459
H71	H	0.979049	-0.046238	0.352121
H72	H	1.075198	-0.181150	0.351671
H73	H	1.111109	-0.018927	0.447597
H74	H	1.129412	-0.085280	0.129037
H75	H	1.165252	0.076867	0.225151
O76	O	1.335436	0.589862	0.648079
C77	C	1.118018	0.622420	0.692049
C78	C	1.220133	0.537386	0.613277
H79	H	1.024775	0.580041	0.663919
H80	H	1.114293	0.625424	0.806425
H81	H	1.139414	0.724815	0.664047
H82	H	1.198810	0.434951	0.641165
H83	H	1.223835	0.534491	0.498921
H84	H	1.048490	0.626890	-0.000010
H85	H	1.514387	0.121184	0.206730
H86	H	1.525641	0.431539	0.363091
