data_functionalizedCrystal
_audit_creation_method	'MofGen! by Chris Wilmer'
_symmetry_space_group_name_H-M	'P1'
_symmetry_Int_Tables_number	1
_symmetry_cell_setting	triclinic
loop_
_symmetry_equiv_pos_as_xyz
  x,y,z
_cell_length_a	25.639239
_cell_length_b	25.639242
_cell_length_c	12.759393
_cell_angle_alpha	89.968428
_cell_angle_beta	90.037052
_cell_angle_gamma	89.966656
loop_
_atom_site_label
_atom_site_type_symbol
_atom_site_fract_x
_atom_site_fract_y
_atom_site_fract_z
Zn1	Zn	-0.208194	-0.799268	0.594308
Zn2	Zn	-0.295641	-0.799179	0.418611
Zn3	Zn	-0.208213	-0.711832	0.418607
Zn4	Zn	-0.295592	-0.711789	0.594212
O5	O	-0.251910	-0.755517	0.506434
O6	O	-0.219807	-0.872421	0.571043
O7	O	-0.284072	-0.787572	0.271589
O8	O	-0.135046	-0.723485	0.441952
O9	O	-0.284054	-0.872356	0.441959
O10	O	-0.135032	-0.787724	0.571039
O11	O	-0.219839	-0.723399	0.271586
O12	O	-0.219792	-0.638661	0.441860
O13	O	-0.283971	-0.723413	0.741246
O14	O	-0.283989	-0.638630	0.570876
O15	O	-0.219760	-0.787683	0.741316
O16	O	-0.368800	-0.787531	0.441867
O17	O	-0.368764	-0.723327	0.570880
C18	C	-0.251888	-0.619674	0.506358
C19	C	-0.251891	-0.561560	0.506350
C20	C	-0.218425	-0.310374	0.439345
C21	C	-0.218421	-0.364979	0.439335
O22	O	-0.189937	-0.393221	0.382320
N23	N	-0.251896	-0.392286	0.506393
C24	C	-0.285375	-0.364987	0.573473
O25	O	-0.313848	-0.393229	0.630510
C26	C	-0.285377	-0.310384	0.573487
C27	C	-0.251902	-0.283079	0.506418
C28	C	-0.184953	-0.283069	0.372282
C29	C	-0.184959	-0.228469	0.372291
C30	C	-0.218436	-0.201173	0.439363
C31	C	-0.251908	-0.228478	0.506427
C32	C	-0.318852	-0.283085	0.640572
C33	C	-0.318851	-0.228478	0.640581
C34	C	-0.285377	-0.201173	0.573511
C35	C	-0.285391	-0.146582	0.573508
N36	N	-0.251915	-0.119274	0.506450
C37	C	-0.218438	-0.146570	0.439378
C38	C	-0.285369	-0.479658	0.573438
C39	C	-0.285370	-0.534260	0.573419
C40	C	-0.218415	-0.534248	0.439283
C41	C	-0.218416	-0.479644	0.439297
C42	C	-0.251893	-0.452350	0.506380
C43	C	-0.218452	-0.031905	0.439401
C44	C	-0.218462	0.022701	0.439413
C45	C	-0.285415	0.022684	0.573553
C46	C	-0.285407	-0.031917	0.573538
C47	C	-0.251921	-0.059210	0.506458
O48	O	-0.313858	-0.118305	0.630497
O49	O	-0.189965	-0.118322	0.382359
C50	C	-0.387753	-0.755429	0.506386
C51	C	-0.445867	-0.755439	0.506401
C52	C	-0.806236	-0.789035	0.439372
C53	C	-0.860840	-0.789056	0.439386
O54	O	-0.889082	-0.817529	0.382342
N55	N	-0.888149	-0.755609	0.506504
C56	C	-0.860851	-0.722143	0.573620
O57	O	-0.889094	-0.693696	0.630712
C58	C	-0.806248	-0.722126	0.573611
C59	C	-0.778942	-0.755571	0.506481
C60	C	-0.778930	-0.822479	0.372248
C61	C	-0.724329	-0.822457	0.372232
C62	C	-0.697035	-0.788993	0.439341
C63	C	-0.724341	-0.755550	0.506465
C64	C	-0.778951	-0.688663	0.640732
C65	C	-0.724344	-0.688649	0.640717
C66	C	-0.697038	-0.722095	0.573587
C67	C	-0.642446	-0.722065	0.573559
N68	N	-0.615137	-0.755512	0.506441
C69	C	-0.642432	-0.788976	0.439332
C70	C	-0.975522	-0.722182	0.573637
C71	C	-1.030124	-0.722197	0.573642
C72	C	-1.030109	-0.789110	0.439408
C73	C	-0.975506	-0.789093	0.439398
C74	C	-0.948213	-0.755629	0.506518
C75	C	-0.527767	-0.788929	0.439304
C76	C	-0.473161	-0.788903	0.439292
C77	C	-0.473181	-0.721992	0.573529
C78	C	-0.527781	-0.722015	0.573538
C79	C	-0.555073	-0.755488	0.506422
O80	O	-0.614170	-0.693607	0.630576
O81	O	-0.614182	-0.817423	0.382260
C82	C	-0.115537	-0.755619	0.506506
C83	C	-0.057423	-0.755663	0.506536
C84	C	-0.251858	-0.755553	0.780468
C85	C	-0.251835	-0.755569	0.897245
C86	C	-0.251932	0.108110	0.506497
C87	C	-0.251939	0.049996	0.506485
C88	C	-0.251925	-0.755510	0.233467
C89	C	-0.251800	-0.755596	0.116691
C90	C	-0.218397	-0.789039	0.952145
C91	C	-0.218378	-0.789052	1.061869
C92	C	-0.285240	-0.722122	1.061783
C93	C	-0.285256	-0.722108	0.952061
C94	C	-0.179797	-0.827682	0.952195
C95	C	-0.179778	-0.827694	1.061920
H96	H	-0.312673	0.044917	0.628158
H97	H	-0.194316	-0.866130	0.918174
N98	N	-0.319609	-0.059814	0.642022
N99	N	-0.367851	-0.053694	0.634874
H100	H	-0.392005	-0.073394	0.683247
N101	N	-0.696440	-0.856612	0.303642
N102	N	-0.666022	-0.838220	0.236634
H103	H	-0.646330	-0.862342	0.188181
H104	H	-0.157689	-0.305287	0.317663
N105	N	-0.353050	-0.310960	0.709088
N106	N	-0.382932	-0.286572	0.768969
H107	H	-0.407086	-0.306257	0.817365
H108	H	-0.312634	-0.556487	0.628023
N109	N	-0.193385	-0.878482	1.099332
N110	N	-0.162182	-0.903369	1.155691
H111	H	-0.171791	-0.939236	1.182118
N112	N	-0.184227	-0.451747	0.370795
N113	N	-0.202581	-0.421244	0.303786
H114	H	-0.178434	-0.401542	0.255404
H115	H	-0.141304	-0.813222	1.095968
N116	N	-0.319582	-0.451780	0.641938
N117	N	-0.352882	-0.421286	0.604854
H118	H	-0.377046	-0.401600	0.653231
N119	N	-0.445285	-0.687819	0.642076
N120	N	-0.414771	-0.706194	0.709045
H121	H	-0.395067	-0.682061	0.757461
N122	N	-0.184266	0.050583	0.370888
N123	N	-0.154379	0.026202	0.311009
H124	H	-0.130228	0.045891	0.262614
N125	N	-0.129008	-0.814105	0.914842
N126	N	-0.120425	-0.811795	0.818528
H127	H	-0.084557	-0.802206	0.792145
N128	N	-1.058004	-0.823290	0.370860
N129	N	-1.106756	-0.823298	0.370888
H130	H	-1.126459	-0.847434	0.322478
H131	H	-0.157701	-0.206242	0.317676
H132	H	-0.702124	-0.661400	0.695377
N133	N	-0.184242	-0.059780	0.370897
N134	N	-0.136002	-0.053703	0.378044
H135	H	-0.111842	-0.073390	0.329661
N136	N	-0.184221	-0.562143	0.370773
N137	N	-0.184227	-0.610896	0.370781
H138	H	-0.160079	-0.630599	0.322399
N139	N	-1.058005	-0.688021	0.642203
N140	N	-1.033622	-0.658145	0.702109
H141	H	-1.053311	-0.634008	0.750537
N142	N	-0.353057	-0.200599	0.709089
N143	N	-0.386359	-0.170105	0.672009
H144	H	-0.410518	-0.150416	0.720389
N145	N	-0.445277	-0.823069	0.370704
N146	N	-0.469658	-0.852945	0.310793
H147	H	-0.449967	-0.877074	0.262354
H148	H	-0.549981	-0.816187	0.384654
H149	H	-0.801147	-0.849732	0.317599
N150	N	-0.947624	-0.823258	0.370818
N151	N	-0.972007	-0.853130	0.310903
H152	H	-0.952318	-0.877262	0.262465
H153	H	-0.953302	-0.694928	0.628290
H154	H	-0.801174	-0.661426	0.695392
N155	N	-0.555669	-0.687841	0.642097
N156	N	-0.531290	-0.657960	0.702002
H157	H	-0.550982	-0.633825	0.750428
N158	N	-0.319407	-0.687908	0.895997
N159	N	-0.349242	-0.658036	0.944956
H160	H	-0.373362	-0.633880	0.905362
H161	H	-0.312448	-0.694878	1.106428
