data_functionalizedCrystal
_audit_creation_method	'MofGen! by Chris Wilmer'
_symmetry_space_group_name_H-M	'P1'
_symmetry_Int_Tables_number	1
_symmetry_cell_setting	triclinic
loop_
_symmetry_equiv_pos_as_xyz
  x,y,z
_cell_length_a	18.760492
_cell_length_b	20.875641
_cell_length_c	20.875641
_cell_angle_alpha	90.154099
_cell_angle_beta	62.438072
_cell_angle_gamma	57.589356
loop_
_atom_site_label
_atom_site_type_symbol
_atom_site_fract_x
_atom_site_fract_y
_atom_site_fract_z
Zr1	Zr	0.837516	-0.109977	0.592144
O2	O	0.986229	-0.212403	0.489716
O3	O	0.688804	-0.078575	0.623547
O4	O	0.848430	-0.217310	0.618629
O5	O	0.817993	0.035766	0.498509
O6	O	0.857040	-0.221185	0.720314
O7	O	0.826602	-0.073667	0.494633
O8	O	0.571497	0.026987	0.729112
O9	O	1.103536	-0.212407	0.489712
O10	O	0.756397	-0.068078	0.712823
O11	O	0.743547	0.016482	0.639828
O12	O	0.931486	-0.146861	0.634038
O13	O	0.918636	-0.062300	0.561044
Zr14	Zr	0.837517	0.058376	0.760501
Zr15	Zr	0.851247	-0.116157	0.754320
Zr16	Zr	0.823786	0.064556	0.598325
Zr17	Zr	1.024608	-0.109983	0.592138
Zr18	Zr	0.650426	0.058382	0.760507
O19	O	0.986229	0.026973	0.729098
O20	O	1.005752	-0.221190	0.720310
O21	O	0.966706	0.035761	0.498504
O22	O	0.688804	0.160801	0.862929
O23	O	0.708327	-0.087362	0.854141
O24	O	0.669281	0.169589	0.632335
O25	O	0.857040	-0.087367	0.854136
O26	O	0.826603	0.165709	0.734016
O27	O	0.817994	0.169584	0.632331
O28	O	0.848431	0.022066	0.858012
O29	O	1.114450	-0.217319	0.618620
O30	O	0.560583	0.165718	0.734025
O31	O	0.571497	0.160805	0.862933
O32	O	0.582411	0.022075	0.858020
O33	O	1.092622	-0.073676	0.494625
O34	O	1.103536	-0.078589	0.623533
O35	O	0.743547	0.095259	0.718607
O36	O	0.756397	0.010699	0.791602
O37	O	0.931487	-0.068084	0.712817
O38	O	0.918637	0.016477	0.639822
C39	C	0.603494	-0.025793	0.676330
C40	C	0.524069	-0.025790	0.676333
C41	C	0.820341	-0.018070	0.473464
C42	C	0.814512	-0.015446	0.404616
C43	C	0.820342	0.192514	0.684054
C44	C	0.814513	0.266607	0.686678
C45	C	0.181567	0.018332	0.638210
C46	C	0.194987	-0.069951	0.714418
C47	C	0.269602	-0.069946	0.714423
C48	C	0.300204	-0.025803	0.676321
C49	C	0.256191	0.018336	0.638213
C50	C	0.313628	-0.114091	0.752524
C51	C	0.388250	-0.114089	0.752531
C52	C	0.418848	-0.069940	0.714433
C53	C	0.374829	-0.025799	0.676324
C54	C	0.405431	0.018345	0.638222
C55	C	0.361408	0.062491	0.600117
C56	C	0.286789	0.062485	0.600115
C57	C	0.493467	-0.069934	0.714435
C58	C	0.480055	0.018349	0.638224
C59	C	1.071539	-0.025809	0.676315
C60	C	1.150964	-0.025811	0.676312
C61	C	0.854691	-0.244115	0.668591
C62	C	0.860520	-0.318209	0.665967
C63	C	0.903167	0.260295	0.646787
C64	C	0.897684	0.329917	0.649250
C65	C	0.803546	0.405850	0.691607
C66	C	0.714884	0.412161	0.731499
C67	C	0.720368	0.342540	0.729032
C68	C	0.777343	0.618481	0.703392
C69	C	0.771866	0.688103	0.705858
C70	C	0.954666	0.605855	0.623607
C71	C	0.960142	0.536236	0.621147
C72	C	0.871481	0.542552	0.661036
N73	N	0.797938	0.477016	0.694127
N74	N	0.877088	0.471388	0.658511
C75	C	0.903166	-0.055336	0.331147
C76	C	0.897684	-0.052873	0.266459
C77	C	0.803546	-0.010517	0.275243
C78	C	0.714885	0.029373	0.348720
C79	C	0.720369	0.026906	0.413406
C80	C	0.777344	0.001268	0.086192
C81	C	0.771867	0.003734	0.021499
C82	C	0.954666	-0.078514	-0.060758
C83	C	0.960142	-0.080974	0.003933
C84	C	0.871481	-0.041087	0.077404
N85	N	0.797939	-0.007997	0.209123
N86	N	0.877089	-0.043612	0.143522
C87	C	0.854692	-0.033531	0.879181
C88	C	0.860521	-0.036155	0.948029
C89	C	0.620669	-0.033524	0.879188
C90	C	0.547073	-0.036145	0.948039
C91	C	0.586319	0.192521	0.684061
C92	C	0.501065	0.266618	0.686688
C93	C	0.603495	0.184791	0.886920
C94	C	0.524070	0.256264	0.958394
C95	C	1.071539	-0.236392	0.465725
C96	C	1.150964	-0.307865	0.394251
C97	C	1.054364	-0.018078	0.473457
C98	C	1.127960	-0.015457	0.404606
C99	C	1.088714	-0.244123	0.668584
C100	C	1.173968	-0.318219	0.665957
C101	C	0.512512	-0.078503	0.939250
C102	C	0.443372	-0.080982	1.003936
C103	C	0.408789	-0.041097	1.077410
C104	C	0.443357	0.001263	1.086198
C105	C	0.512501	0.003737	1.021512
C106	C	0.461029	0.342542	0.729043
C107	C	0.380933	0.412171	0.731509
C108	C	0.340871	0.405873	0.691622
C109	C	0.380915	0.329940	0.649262
C110	C	0.461014	0.260314	0.646793
C111	C	0.493479	0.245688	1.030069
C112	C	0.418862	0.312837	1.097233
C113	C	0.374832	0.390562	1.092721
C114	C	0.405430	0.401136	1.021039
C115	C	0.480050	0.333987	0.953876
C116	C	1.181563	-0.297289	0.322576
C117	C	1.256203	-0.364439	0.255412
C118	C	1.300237	-0.442163	0.259924
C119	C	1.269635	-0.452737	0.331606
C120	C	1.195001	-0.385589	0.398769
C121	C	1.162529	0.026895	0.413395
C122	C	1.231692	0.029354	0.348708
C123	C	1.266278	-0.010533	0.275234
C124	C	1.231706	-0.052890	0.266447
C125	C	1.162550	-0.055354	0.331132
C126	C	1.214005	-0.311895	0.705852
C127	C	1.294101	-0.381511	0.703399
C128	C	1.334163	-0.457449	0.661046
C129	C	1.294119	-0.463772	0.621150
C130	C	1.214019	-0.394157	0.623608
H131	H	0.386339	0.098429	0.569090
H132	H	1.026849	0.600721	0.591131
O133	O	0.624744	0.349353	0.772074
H134	H	0.576306	0.384039	0.750392
H135	H	0.493638	0.347686	0.761524
H136	H	1.134405	-0.089839	0.323966
H137	H	1.399386	-0.514127	0.659051
O138	O	0.254468	0.480979	0.694303
H139	H	0.278109	0.483200	0.635320
H140	H	0.969875	-0.085356	0.206639
H141	H	0.540631	0.038235	1.028679
O142	O	0.337748	0.494058	0.777212
H143	H	0.346043	0.529346	0.738424
H144	H	1.181430	-0.399317	0.591117
O145	O	0.406051	0.044285	1.165446
H146	H	0.322678	0.090207	1.198473
H147	H	0.705152	0.033735	0.146007
H148	H	0.348285	0.324824	0.616788
H149	H	1.036800	-0.115481	-0.003229
O150	O	1.170793	-0.229995	0.751544
H151	H	1.212090	-0.237307	0.778879
H152	H	1.145714	-0.234008	0.318888
O153	O	0.357933	0.484969	1.016177
H154	H	0.320713	0.493249	0.985021
H155	H	1.322589	-0.008521	0.222569
O156	O	1.317134	-0.536572	0.336466
H157	H	1.257711	-0.544855	0.367624
H158	H	0.493602	0.198495	0.612304
H159	H	1.259877	-0.085365	0.206615
H160	H	1.259828	0.063849	0.355878
H161	H	1.326697	-0.376347	0.735887
O162	O	1.289190	-0.353018	0.178107
H163	H	1.348495	-0.412763	0.132157
O164	O	1.337342	-0.545678	0.575462
H165	H	1.399774	-0.593015	0.580452
H166	H	0.170073	-0.105896	0.745435
H167	H	0.648177	0.059396	0.473229
H168	H	0.529318	0.182407	1.033757
O169	O	0.513066	0.065964	0.597139
H170	H	0.543864	0.043651	0.535378
O171	O	1.050291	-0.121549	-0.140000
H172	H	1.030668	-0.112727	-0.183507
H173	H	1.170088	-0.394209	0.457127
H174	H	1.361007	-0.496833	0.205230
O175	O	0.239322	0.110087	0.559008
H176	H	0.182305	0.102657	0.565398
H177	H	0.145717	0.054278	0.607189
H178	H	0.638235	0.473992	0.765984
H179	H	0.393958	0.304213	1.155593
O180	O	0.670327	0.770009	0.751539
H181	H	0.609595	0.762706	0.778855
H182	H	0.314072	0.445232	1.147415
O183	O	0.549809	-0.121534	0.860008
H184	H	0.633184	-0.167452	0.826973
O185	O	0.513022	0.345398	0.876570
H186	H	0.469852	0.410727	0.884724
O187	O	0.670329	0.049414	0.030970
H188	H	0.609599	0.076729	0.092926
O189	O	1.125248	0.069906	0.492638
H190	H	1.160929	0.099753	0.487869
H191	H	0.424088	-0.150034	0.783559
O192	O	0.280642	-0.161715	0.793604
H193	H	0.221355	-0.154297	0.787203
O194	O	0.613347	0.075058	0.358201
H195	H	0.624424	0.070080	0.300878
O196	O	0.406087	-0.126665	0.994450
H197	H	0.441740	-0.153968	0.932491
O198	O	0.540950	-0.117541	0.755528
H199	H	0.507132	-0.148236	0.782024
H200	H	0.979823	-0.089815	0.323986
H201	H	0.979825	0.198470	0.612298
H202	H	0.969876	0.324771	0.616768
H203	H	1.036800	0.474411	0.586656
H204	H	0.352486	-0.043117	1.130075
O205	O	0.681725	0.625292	0.746460
H206	H	0.615349	0.689789	0.776349
