data_functionalizedCrystal
_audit_creation_method	'MofGen! by Chris Wilmer'
_symmetry_space_group_name_H-M	'P1'
_symmetry_Int_Tables_number	1
_symmetry_cell_setting	triclinic
loop_
_symmetry_equiv_pos_as_xyz
  x,y,z
_cell_length_a	19.288867
_cell_length_b	19.288857
_cell_length_c	17.766277
_cell_angle_alpha	89.991559
_cell_angle_beta	89.991798
_cell_angle_gamma	83.135089
loop_
_atom_site_label
_atom_site_type_symbol
_atom_site_fract_x
_atom_site_fract_y
_atom_site_fract_z
O1	O	0.921350	0.086656	-0.062571
O2	O	0.719089	0.098343	-0.062579
O3	O	0.826067	-0.008631	-0.062566
O4	O	0.814373	0.193630	-0.062585
O5	O	0.826047	-0.008637	0.062623
O6	O	0.719070	0.098338	0.062609
O7	O	0.921331	0.086650	0.062617
Cu8	Cu	0.820198	0.092494	0.074044
Cu9	Cu	0.820221	0.092500	-0.074006
O10	O	0.814353	0.193625	0.062604
C11	C	0.693203	0.097964	0.000014
C12	C	0.616100	0.096834	0.000012
C13	C	0.825682	-0.034511	0.000029
C14	C	0.824555	-0.111614	0.000031
C15	C	0.060545	0.088701	-0.068219
C16	C	0.132993	0.089758	-0.068222
C17	C	0.169211	0.090287	0.000018
C18	C	0.132978	0.089741	0.068266
C19	C	0.060532	0.088677	0.068267
C20	C	0.278529	0.132653	0.052295
C21	C	0.350972	0.133721	0.052291
C22	C	0.392656	0.093566	0.000018
C23	C	0.361887	0.052352	-0.052264
C24	C	0.289442	0.051288	-0.052263
C25	C	0.247765	0.091441	0.000024
C26	C	0.507437	0.095254	-0.068229
C27	C	0.579887	0.096307	-0.068229
C28	C	0.579869	0.096297	0.068261
C29	C	0.507422	0.095237	0.068259
C30	C	0.471210	0.094719	0.000012
C31	C	0.824040	-0.147822	-0.068209
C32	C	0.822971	-0.220268	-0.068215
C33	C	0.822431	-0.256506	0.000024
C34	C	0.822943	-0.220288	0.068273
C35	C	0.824005	-0.147843	0.068277
C36	C	0.861425	-0.376739	0.052300
C37	C	0.860368	-0.449184	0.052294
C38	C	0.819154	-0.479951	0.000015
C39	C	0.779006	-0.438267	-0.052270
C40	C	0.780068	-0.365821	-0.052266
C41	C	0.821280	-0.335061	0.000027
C42	C	0.817479	-0.594713	-0.068236
C43	C	0.816406	-0.667160	-0.068239
C44	C	0.816385	-0.667180	0.068251
C45	C	0.817451	-0.594734	0.068252
C46	C	0.818001	-0.558505	0.000006
C47	C	0.947217	0.087029	0.000022
C48	C	1.024320	0.088159	0.000020
C49	C	0.814738	0.219504	0.000007
C50	C	0.815865	0.296608	0.000000
N51	N	0.820187	0.092489	0.178174
C52	C	0.867572	0.045144	0.217567
C53	C	0.867576	0.045141	0.296369
C54	C	0.820201	0.092495	0.335775
C55	C	0.772808	0.139843	0.296373
C56	C	0.772801	0.139840	0.217572
C57	C	0.810900	0.155783	0.460607
C58	C	0.810912	0.155787	0.539406
C59	C	0.820218	0.092504	0.578821
C60	C	0.829528	0.029214	0.539428
C61	C	0.829521	0.029211	0.460628
C62	C	0.820203	0.092503	0.421221
C63	C	0.867610	0.045151	0.703660
C64	C	0.867608	0.045147	0.782463
C65	C	0.772844	0.139856	0.782465
C66	C	0.772841	0.139854	0.703664
C67	C	0.820228	0.092502	0.664266
N68	N	0.820233	0.092501	0.821864
H69	H	0.162492	0.090203	-0.123792
H70	H	0.609357	0.096725	0.123823
H71	H	0.162471	0.090171	0.123827
H72	H	0.817923	-0.565214	-0.123806
N73	N	0.916003	-0.003237	0.822693
N74	N	0.915251	-0.067435	0.813888
H75	H	0.949430	-0.101612	0.842297
H76	H	0.609380	0.096743	-0.123800
H77	H	0.376016	0.167298	0.094846
N78	N	0.258002	0.009182	-0.105646
N79	N	0.193319	0.008236	-0.105630
H80	H	0.171113	-0.021505	-0.143328
H81	H	0.906155	0.006586	0.185491
H82	H	0.477927	0.094798	0.123827
N83	N	0.903541	-0.345320	0.105695
N84	N	0.950717	-0.311134	0.083440
H85	H	0.980461	-0.288945	0.121149
H86	H	0.734268	0.178410	0.814549
H87	H	0.822502	-0.249797	0.123833
N88	N	0.404467	0.011334	-0.105659
N89	N	0.469150	0.012282	-0.105650
H90	H	0.499225	-0.016686	-0.143358
N91	N	0.235964	0.173673	0.105704
N92	N	0.263441	0.210472	0.152373
H93	H	0.233381	0.239441	0.190093
H94	H	0.477952	0.094830	-0.123800
N95	N	0.724434	0.188221	0.663432
N96	N	0.682135	0.230497	0.698622
H97	H	0.647943	0.264657	0.670209
N98	N	0.023537	0.088120	0.137981
N99	N	0.055879	0.088586	0.198907
H100	H	0.029751	0.088194	0.248145
H101	H	0.824485	-0.118329	-0.123780
H102	H	0.734233	0.178399	0.328461
N103	N	0.822442	-0.257253	-0.137931
N104	N	0.822930	-0.224897	-0.198857
H105	H	0.822557	-0.251015	-0.248094
N106	N	0.739058	-0.323252	-0.105674
N107	N	0.702263	-0.350724	-0.152351
H108	H	0.673298	-0.320659	-0.190071
H109	H	0.031066	0.088276	-0.123791
N110	N	0.736898	-0.469694	-0.105662
N111	N	0.735942	-0.534376	-0.105650
H112	H	0.706201	-0.556575	-0.143353
H113	H	0.815982	-0.696639	-0.123811
H114	H	0.906193	0.006593	0.671581
N115	N	0.839025	-0.035428	0.579690
N116	N	0.839017	-0.035420	0.650047
H117	H	0.845721	-0.081072	0.678487
N118	N	0.801412	0.220438	0.579629
N119	N	0.793095	0.276936	0.544431
H120	H	0.786387	0.322599	0.572836
N121	N	0.724410	0.188210	0.177318
N122	N	0.724416	0.188205	0.106961
H123	H	0.690242	0.222367	0.078529
H124	H	0.815940	-0.696683	0.123812
N125	N	0.801400	0.220436	0.420361
N126	N	0.793104	0.276937	0.455539
H127	H	0.786399	0.322598	0.427116
N128	N	0.824521	-0.110852	0.137986
N129	N	0.775441	-0.112389	0.183673
H130	H	0.775805	-0.086263	0.232907
N131	N	0.817979	-0.557755	0.137966
N132	N	0.817494	-0.590114	0.198889
H133	H	0.817865	-0.563999	0.248129
N134	N	0.901388	-0.491751	0.105695
N135	N	0.938178	-0.464273	0.152373
H136	H	0.967151	-0.494334	0.190089
N137	N	0.915982	-0.003230	0.336607
N138	N	0.958284	-0.045505	0.301421
H139	H	0.992472	-0.079668	0.329837
H140	H	0.837100	-0.022322	0.428557
