data_functionalizedCrystal
_audit_creation_method	'MofGen! by Chris Wilmer'
_symmetry_space_group_name_H-M	'P1'
_symmetry_Int_Tables_number	1
_symmetry_cell_setting	triclinic
loop_
_symmetry_equiv_pos_as_xyz
  x,y,z
_cell_length_a	13.033293
_cell_length_b	18.101397
_cell_length_c	13.033109
_cell_angle_alpha	97.149218
_cell_angle_beta	74.800007
_cell_angle_gamma	97.189579
loop_
_atom_site_label
_atom_site_type_symbol
_atom_site_fract_x
_atom_site_fract_y
_atom_site_fract_z
Zn1	Zn	1.700266	-0.214578	-0.807151
Zn2	Zn	1.677586	-0.324484	-0.629510
Zn3	Zn	1.500070	-0.214592	-0.606954
Zn4	Zn	1.522583	-0.352318	-0.784480
O5	O	1.600126	-0.276493	-0.707024
O6	O	1.845909	-0.217503	-0.802515
O7	O	1.635125	-0.298263	-0.477879
O8	O	1.526696	-0.110955	-0.633559
O9	O	1.829247	-0.298250	-0.672002
O10	O	1.673779	-0.110945	-0.780643
O11	O	1.504704	-0.217526	-0.461307
O12	O	1.354404	-0.244516	-0.611575
O13	O	1.565066	-0.345689	-0.936126
O14	O	1.370945	-0.345702	-0.742003
O15	O	1.695609	-0.244492	-0.952783
O16	O	1.656955	-0.431811	-0.650019
O17	O	1.543075	-0.452260	-0.763874
C18	C	1.324131	-0.298131	-0.671882
C19	C	1.206062	-0.307408	-0.656873
C20	C	1.161680	-0.271670	-0.714857
C21	C	1.039650	-0.281257	-0.699346
C22	C	1.600029	-0.468906	-0.706961
C23	C	1.600089	-0.551217	-0.706982
C24	C	1.600237	-0.850305	-0.707096
C25	C	1.671630	-0.806083	-0.635212
C26	C	1.671941	-0.720459	-0.635461
C27	C	1.600163	-0.701924	-0.707038
C28	C	1.644731	-0.739342	-0.822857
C29	C	1.645307	-0.824902	-0.822489
C30	C	1.484181	-0.825381	-0.664102
C31	C	1.484418	-0.739491	-0.661674
C32	C	1.600121	-0.618066	-0.707012
C33	C	1.600283	-0.934163	-0.707130
C34	C	1.877199	-0.254770	-0.742304
C35	C	1.995271	-0.245513	-0.757338
C36	C	1.635379	-0.298194	-0.984073
C37	C	1.650402	-0.307442	-1.102134
C38	C	1.600256	-0.083327	-0.707114
C39	C	1.600311	-0.001012	-0.707152
C40	C	1.592570	-0.271617	-1.146570
C41	C	1.608095	-0.281175	-1.268593
C42	C	1.565072	-0.254818	-0.431061
C43	C	1.550255	-0.245345	-0.313026
H44	H	1.214025	-0.233972	-0.775978
C45	C	1.577454	-0.724671	-0.897988
H46	H	1.605776	-0.747795	-0.967572
H47	H	1.579371	-0.672318	-0.900824
H48	H	1.505696	-0.744871	-0.871920
H49	H	1.669104	-0.318924	-1.320883
H50	H	0.987308	-0.318953	-0.638215
C51	C	1.065965	-0.194584	-0.839918
H52	H	1.022293	-0.173402	-0.874278
H53	H	1.115126	-0.223203	-0.891587
H54	H	1.104077	-0.155716	-0.804824
C55	C	1.467836	-0.194349	-1.242398
H56	H	1.468216	-0.194610	-1.169650
H57	H	1.398745	-0.212191	-1.251433
H58	H	1.485716	-0.144778	-1.262528
C59	C	1.632122	-0.827216	-0.519545
H60	H	1.571725	-0.863192	-0.514049
H61	H	1.612813	-0.783843	-0.472674
H62	H	1.687482	-0.847695	-0.500570
C63	C	1.135358	-0.358335	-0.574301
H64	H	1.062616	-0.358103	-0.574715
H65	H	1.144395	-0.340423	-0.505247
H66	H	1.155438	-0.407907	-0.592015
C67	C	1.632062	-0.685342	-0.520054
H68	H	1.615529	-0.723398	-0.472595
H69	H	1.569868	-0.661187	-0.514267
H70	H	1.686207	-0.649784	-0.502093
C71	C	1.732819	-0.358432	-1.172769
H72	H	1.732447	-0.358162	-1.245516
H73	H	1.714955	-0.408001	-1.152640
H74	H	1.801913	-0.340581	-1.163736
C75	C	1.786727	-0.828286	-0.674798
H76	H	1.791462	-0.864387	-0.734945
H77	H	1.805395	-0.848888	-0.619356
H78	H	1.834333	-0.785277	-0.694538
C79	C	1.787682	-0.685890	-0.675423
H80	H	1.834694	-0.724184	-0.691579
H81	H	1.805898	-0.650277	-0.621493
H82	H	1.793866	-0.661892	-0.737874
H83	H	1.730562	-0.840283	-0.857247
H84	H	1.596362	-0.855083	-0.878668
H85	H	1.729118	-0.713401	-0.857908
H86	H	1.446383	-0.842907	-0.580366
H87	H	1.451071	-0.714558	-0.576371
C88	C	1.407133	-0.723309	-0.725670
H89	H	1.444613	-0.693301	-0.781145
H90	H	1.350847	-0.697518	-0.679517
H91	H	1.378275	-0.769133	-0.755853
C92	C	1.510156	-0.220624	-1.075937
H93	H	1.510539	-0.220885	-1.003190
H94	H	1.441065	-0.238464	-1.084970
H95	H	1.528037	-0.171052	-1.096067
C96	C	1.412129	-0.865479	-0.734702
H97	H	1.452515	-0.897273	-0.790092
H98	H	1.385173	-0.829392	-0.765128
H99	H	1.354277	-0.894496	-0.692475
