data_functionalizedCrystal
_audit_creation_method	'MofGen! by Chris Wilmer'
_symmetry_space_group_name_H-M	'P1'
_symmetry_Int_Tables_number	1
_symmetry_cell_setting	triclinic
loop_
_symmetry_equiv_pos_as_xyz
  x,y,z
_cell_length_a	10.908878
_cell_length_b	10.967829
_cell_length_c	15.455313
_cell_angle_alpha	80.579194
_cell_angle_beta	87.981760
_cell_angle_gamma	72.684712
loop_
_atom_site_label
_atom_site_type_symbol
_atom_site_fract_x
_atom_site_fract_y
_atom_site_fract_z
O1	O	1.705460	-0.196302	-0.042774
O2	O	1.333562	-0.100350	-0.057120
O3	O	1.526023	-0.329281	-0.022896
O4	O	1.512999	0.032629	-0.076999
O5	O	1.515016	-0.316234	0.119416
O6	O	1.322555	-0.087304	0.085191
O7	O	1.694453	-0.183255	0.099538
Cu8	Cu	1.507499	-0.134088	0.105359
Cu9	Cu	1.520516	-0.149517	-0.062941
O10	O	1.501992	0.045676	0.065313
C11	C	1.280401	-0.084860	0.012694
C12	C	1.138395	-0.058156	0.008701
C13	C	1.518740	-0.368362	0.055076
C14	C	1.513423	-0.504247	0.075384
C15	C	1.087390	-0.155595	0.023267
C16	C	0.940620	-0.127997	0.019140
C17	C	1.516755	-0.571582	0.010716
C18	C	1.511260	-0.712026	0.031703
C19	C	1.747614	-0.198745	0.029721
C20	C	1.889620	-0.225450	0.033708
C21	C	1.509275	0.084757	-0.012660
C22	C	1.514592	0.220642	-0.032974
N23	N	1.498353	-0.123238	0.223732
N24	N	1.529672	-0.160379	-0.181313
C25	C	1.580147	-0.220473	0.283663
C26	C	1.573242	-0.212259	0.373243
C27	C	1.484549	-0.106805	0.402889
C28	C	1.402747	-0.009565	0.342952
C29	C	1.409646	-0.017785	0.253374
C30	C	1.454768	-0.071359	0.669172
C31	C	1.447878	-0.063144	0.758756
C32	C	1.618373	-0.265840	0.789041
C33	C	1.625270	-0.274046	0.699460
C34	C	1.543462	-0.176810	0.639531
N35	N	1.477492	-0.098404	0.494454
N36	N	1.550514	-0.185217	0.547969
H37	H	0.875634	-0.024137	0.003610
H38	H	1.375649	0.022735	0.782888
C39	C	1.742494	-0.413410	0.394176
C40	C	1.663173	-0.319127	0.439116
H41	H	1.798024	-0.479381	0.434844
H42	H	1.691065	-0.449939	0.364236
H43	H	1.792205	-0.374851	0.352977
H44	H	1.613456	-0.357684	0.480311
H45	H	1.714608	-0.282595	0.469070
H46	H	1.506495	-0.550572	0.146287
H47	H	1.521498	-0.733033	-0.103883
C48	C	1.793091	-0.473587	0.738398
C49	C	1.722757	-0.389971	0.666876
H50	H	1.853271	-0.545156	0.718280
H51	H	1.837441	-0.428649	0.767084
H52	H	1.736256	-0.503682	0.778329
H53	H	1.779591	-0.359868	0.626948
H54	H	1.678404	-0.434917	0.638177
H55	H	1.388160	0.007817	0.620384
H56	H	1.652376	-0.306340	0.259531
C57	C	1.638109	-0.580519	-0.121966
C58	C	1.526104	-0.509073	-0.085008
H59	H	1.643876	-0.541938	-0.181066
H60	H	1.710773	-0.581375	-0.089505
H61	H	1.635626	-0.666696	-0.120404
H62	H	1.528592	-0.422897	-0.086564
H63	H	1.453422	-0.508202	-0.117478
H64	H	1.684975	-0.345006	0.837843
C65	C	1.316476	0.093044	0.466818
C66	C	1.305255	0.106355	0.375537
H67	H	1.256295	0.164617	0.486930
H68	H	1.299778	0.015239	0.493337
H69	H	1.400965	0.090271	0.482089
H70	H	1.220769	0.109119	0.360266
H71	H	1.321944	0.184181	0.349008
C72	C	0.958677	-0.436032	-0.008972
C73	C	0.977336	-0.365663	0.054668
H74	H	1.012835	-0.522589	0.003966
H75	H	0.871563	-0.435874	-0.008989
H76	H	0.979003	-0.397365	-0.065054
H77	H	0.957001	-0.404324	0.110750
H78	H	1.064470	-0.365827	0.054693
C79	C	1.389096	-0.811174	0.137631
C80	C	1.501906	-0.774541	0.127429
H81	H	1.383325	-0.849773	0.196726
H82	H	1.316979	-0.736991	0.123318
H83	H	1.390490	-0.871621	0.099777
H84	H	1.500508	-0.714087	0.165279
H85	H	1.574041	-0.848734	0.141752
H86	H	1.073405	0.045697	-0.006828
C87	C	1.303529	-0.296000	0.044263
C88	C	1.175113	-0.295799	0.044230
H89	H	1.357679	-0.382558	0.057211
H90	H	1.323841	-0.257355	-0.011819
H91	H	1.316157	-0.248238	0.087433
H92	H	1.162481	-0.343552	0.001056
H93	H	1.154793	-0.334462	0.100321
H94	H	1.343039	0.061392	0.204579
