data_functionalizedCrystal
_audit_creation_method	'MofGen! by Chris Wilmer'
_symmetry_space_group_name_H-M	'P1'
_symmetry_Int_Tables_number	1
_symmetry_cell_setting	triclinic
loop_
_symmetry_equiv_pos_as_xyz
  x,y,z
_cell_length_a	12.759401
_cell_length_b	18.050583
_cell_length_c	12.759399
_cell_angle_alpha	90.033268
_cell_angle_beta	89.983359
_cell_angle_gamma	89.985797
loop_
_atom_site_label
_atom_site_type_symbol
_atom_site_fract_x
_atom_site_fract_y
_atom_site_fract_z
Zn1	Zn	1.606194	-0.419892	0.418148
Zn2	Zn	1.606104	-0.295709	0.593871
Zn3	Zn	1.430513	-0.295720	0.418211
Zn4	Zn	1.430483	-0.419861	0.593790
O5	O	1.518323	-0.357796	0.506005
O6	O	1.753203	-0.403427	0.441466
O7	O	1.582787	-0.191786	0.570630
O8	O	1.453867	-0.312210	0.271182
O9	O	1.753137	-0.312190	0.570568
O10	O	1.582939	-0.403438	0.271136
O11	O	1.453781	-0.191794	0.441573
O12	O	1.283488	-0.312180	0.441495
O13	O	1.453816	-0.523790	0.570431
O14	O	1.283466	-0.403385	0.570492
O15	O	1.582910	-0.523813	0.441387
O16	O	1.582757	-0.312160	0.740881
O17	O	1.453729	-0.403374	0.740822
C18	C	1.245356	-0.357781	0.505992
C19	C	1.128579	-0.357792	0.506012
C20	C	1.073733	-0.405208	0.573283
C21	C	0.964009	-0.405223	0.573287
C22	C	0.963987	-0.310399	0.438746
C23	C	1.073709	-0.310389	0.438738
C24	C	1.518370	-0.551501	0.505893
C25	C	1.518389	-0.634047	0.505845
C26	C	1.588661	-0.833510	0.435638
C27	C	1.492833	-0.882906	0.409927
C28	C	1.518432	-0.785177	0.505827
C29	C	1.614298	-0.882863	0.531472
C30	C	1.518481	-0.931163	0.505808
C31	C	1.422553	-0.833486	0.480067
C32	C	1.544082	-0.833439	0.601657
C33	C	1.448188	-0.882813	0.575982
C34	C	1.518405	-0.701079	0.505836
C35	C	1.518497	-1.015259	0.505800
C36	C	1.792357	-0.357811	0.506019
C37	C	1.909133	-0.357817	0.506025
C38	C	1.518259	-0.357779	0.778973
C39	C	1.518327	-0.357796	0.895749
C40	C	1.518338	-0.164843	0.506041
C41	C	1.518521	-0.082298	0.505793
C42	C	1.518417	-0.357829	0.231972
C43	C	1.518456	-0.357843	0.115195
C44	C	1.585589	-0.310355	0.950607
C45	C	1.585657	-0.310380	1.060331
C46	C	1.451192	-0.405289	1.060330
C47	C	1.451130	-0.405268	0.950608
H48	H	1.118366	-0.271777	0.383951
N49	N	0.907989	-0.453643	0.642026
N50	N	0.846738	-0.427433	0.708936
H51	H	0.807174	-0.461631	0.757488
H52	H	1.640307	-0.271702	0.905944
N53	N	1.465657	-0.910169	0.308249
N54	N	1.528220	-0.950690	0.259221
H55	H	1.509036	-0.969943	0.187408
N56	N	0.907920	-0.261985	0.370037
N57	N	0.809955	-0.261999	0.370053
H58	H	0.770357	-0.227805	0.321527
H59	H	1.341477	-0.811888	0.458274
H60	H	1.565792	-0.811696	0.682683
H61	H	1.640429	-0.271749	1.104992
N62	N	1.129799	-0.453633	0.641978
N63	N	1.227764	-0.453621	0.641963
H64	H	1.267360	-0.487824	0.690477
H65	H	1.396481	-0.443938	1.105009
H66	H	1.647954	-0.811860	0.376243
N67	N	1.382421	-0.453741	0.894581
N68	N	1.322426	-0.496119	0.943571
H69	H	1.273905	-0.530354	0.904002
H70	H	1.388750	-0.904324	0.635331
H71	H	1.695350	-0.904555	0.553168
