data_functionalizedCrystal
_audit_creation_method	'MofGen! by Chris Wilmer'
_symmetry_space_group_name_H-M	'P1'
_symmetry_Int_Tables_number	1
_symmetry_cell_setting	triclinic
loop_
_symmetry_equiv_pos_as_xyz
  x,y,z
_cell_length_a	15.995300
_cell_length_b	15.995350
_cell_length_c	15.072220
_cell_angle_alpha	90.001101
_cell_angle_beta	89.985917
_cell_angle_gamma	83.482091
loop_
_atom_site_label
_atom_site_type_symbol
_atom_site_fract_x
_atom_site_fract_y
_atom_site_fract_z
O1	O	1.111022	0.107720	-0.073811
O2	O	0.867241	0.121092	-0.073805
O3	O	0.995796	-0.007483	-0.073807
O4	O	0.982468	0.236295	-0.073808
O5	O	0.995764	-0.007476	0.073758
O6	O	0.867209	0.121099	0.073760
O7	O	1.110990	0.107727	0.073755
Zn8	Zn	0.989095	0.114414	0.097187
Zn9	Zn	0.989137	0.114405	-0.097237
O10	O	0.982436	0.236302	0.073757
C11	C	0.836030	0.120550	-0.000021
C12	C	0.743077	0.118915	-0.000019
C13	C	0.572894	0.115896	-0.000026
C14	C	0.525428	0.207443	-0.000025
C15	C	0.428741	0.205773	-0.000362
C16	C	0.405337	0.112924	-0.000032
C17	C	0.446488	0.067500	-0.084132
C18	C	0.543122	0.069816	-0.084201
C19	C	0.543365	0.068469	0.083614
C20	C	0.446420	0.068477	0.084717
C21	C	0.310642	0.111239	-0.000038
C22	C	0.667590	0.117577	-0.000026
C23	C	0.995229	-0.038674	-0.000026
C24	C	0.993577	-0.131624	-0.000031
C25	C	0.987644	-0.469370	-0.000028
C26	C	0.896090	-0.421920	-0.000357
C27	C	0.897743	-0.325230	-0.000024
C28	C	0.990587	-0.301810	-0.000030
C29	C	1.035727	-0.342892	0.084234
C30	C	1.033427	-0.439527	0.084305
C31	C	1.035354	-0.439894	-0.083504
C32	C	1.035333	-0.342948	-0.084618
C33	C	0.992255	-0.207113	-0.000028
C34	C	0.985979	-0.564068	-0.000024
C35	C	1.142202	0.108269	-0.000031
C36	C	1.235154	0.109904	-0.000039
C37	C	0.983003	0.267493	-0.000026
C38	C	0.984655	0.360443	-0.000027
N39	N	0.989072	0.114420	0.229875
N40	N	0.989166	0.114392	-0.229926
C41	C	0.989135	0.114402	0.589077
C42	C	0.920117	0.182969	0.551471
C43	C	0.920275	0.183219	0.448645
C44	C	0.989103	0.114411	0.410873
C45	C	1.076470	0.133477	0.448162
C46	C	1.076083	0.133964	0.551020
C47	C	0.971565	0.026565	0.551178
C48	C	0.969560	0.027152	0.448315
C49	C	0.989091	0.114415	0.310160
C50	C	0.989153	0.114400	0.689790
H51	H	0.545050	0.243683	-0.060243
C52	C	1.147515	0.067811	0.415104
C53	C	1.145754	-0.025933	0.437366
C54	C	1.216797	-0.091600	0.404306
C55	C	1.289602	-0.063523	0.348983
C56	C	1.291366	0.030226	0.326717
C57	C	1.220323	0.095892	0.359777
H58	H	1.091857	-0.046721	0.478322
H59	H	1.215491	-0.160999	0.420789
H60	H	1.342192	-0.112133	0.324509
H61	H	1.345263	0.051014	0.285761
H62	H	1.221629	0.165291	0.343295
H63	H	0.575145	0.000972	0.084424
H64	H	1.002330	-0.315697	-0.146954
C65	C	0.988915	-0.464244	0.169397
C66	C	1.035985	-0.525580	0.236052
C67	C	0.991470	-0.550291	0.321145
C68	C	0.899885	-0.513666	0.339584
C69	C	0.852810	-0.452327	0.272927
C70	C	0.897325	-0.427616	0.187834
H71	H	1.103786	-0.552695	0.222405
H72	H	1.026319	-0.595698	0.370489
H73	H	0.866933	-0.531959	0.402575
H74	H	0.785009	-0.425212	0.286574
H75	H	0.862476	-0.382209	0.138490
C76	C	1.126801	-0.322213	-0.091507
C77	C	1.162626	-0.267320	-0.020122
C78	C	1.254098	-0.246584	-0.027005
C79	C	1.309745	-0.280740	-0.105271
C80	C	1.273921	-0.335636	-0.176661
C81	C	1.182449	-0.356373	-0.169779
H82	H	1.121432	-0.242033	0.037820
H83	H	1.280617	-0.205946	0.025843
H84	H	1.377458	-0.265390	-0.110366
H85	H	1.315115	-0.360923	-0.234604
H86	H	1.155930	-0.397010	-0.222627
C87	C	0.408202	0.109589	-0.169008
C88	C	0.339653	0.185113	-0.162180
C89	C	0.301367	0.227209	-0.247053
C90	C	0.331631	0.193780	-0.338753
C91	C	0.400183	0.118251	-0.345584
C92	C	0.438469	0.076156	-0.260712
H93	H	0.317247	0.209863	-0.094295
H94	H	0.250620	0.283120	-0.241996
H95	H	0.303290	0.224941	-0.401581
H96	H	0.422589	0.093501	-0.413470
H97	H	0.489216	0.020245	-0.265769
H98	H	1.021897	-0.024460	0.575496
H99	H	1.100644	-0.471787	0.088124
C100	C	1.126547	-0.482811	-0.084284
C101	C	1.186005	-0.469117	-0.006596
C102	C	1.277194	-0.512035	-0.007367
C103	C	1.308926	-0.568647	-0.085828
C104	C	1.249468	-0.582343	-0.163523
C105	C	1.158278	-0.539425	-0.162751
H106	H	1.162515	-0.427208	0.051491
H107	H	1.321209	-0.501896	0.050148
H108	H	1.376430	-0.600417	-0.086399
H109	H	1.272957	-0.624252	-0.221609
H110	H	1.114263	-0.549564	-0.220266
H111	H	1.016564	-0.026262	0.422606
H112	H	1.129046	0.085991	0.575894
C113	C	0.832544	0.167889	0.414577
C114	C	0.781790	0.234307	0.356015
C115	C	0.694054	0.218981	0.321950
C116	C	0.657072	0.137237	0.346446
C117	C	0.707826	0.070813	0.405011
C118	C	0.795562	0.086139	0.439077
H119	H	0.809166	0.294825	0.337879
H120	H	0.656482	0.268153	0.278596
H121	H	0.592124	0.125891	0.321229
H122	H	0.680450	0.010295	0.423148
H123	H	0.833134	0.036967	0.482430
H124	H	0.561454	0.102547	-0.147305
H125	H	0.543906	0.244237	0.060275
C126	C	1.127866	-0.323803	0.088474
C127	C	1.158736	-0.275720	0.168356
C128	C	1.250871	-0.256619	0.172594
C129	C	1.312137	-0.285601	0.096951
C130	C	1.281269	-0.333686	0.017063
C131	C	1.189133	-0.352787	0.012825
H132	H	1.113382	-0.254264	0.224356
H133	H	1.273722	-0.221023	0.231732
H134	H	1.380342	-0.271461	0.100088
H135	H	1.326623	-0.355142	-0.038938
H136	H	1.166283	-0.388384	-0.046314
C137	C	0.832087	0.167835	0.584847
C138	C	0.821790	0.093037	0.646666
C139	C	0.733752	0.077875	0.680010
C140	C	0.656011	0.137510	0.651535
C141	C	0.666304	0.212313	0.589712
C142	C	0.754342	0.227475	0.556368
H143	H	0.879342	0.048887	0.667749
H144	H	0.726133	0.022501	0.725776
H145	H	0.590839	0.126286	0.676218
H146	H	0.608753	0.256463	0.568630
H147	H	0.761962	0.282849	0.510603
H148	H	0.563851	0.098612	0.147378
H149	H	0.931182	0.247784	0.577309
H150	H	0.419067	0.101649	0.146936
H151	H	0.859510	-0.440448	-0.060784
H152	H	1.004349	-0.314502	0.146945
C153	C	0.849790	-0.286819	-0.081613
C154	C	0.809723	-0.344119	-0.147527
C155	C	0.761759	-0.305712	-0.229113
C156	C	0.753862	-0.210005	-0.244784
C157	C	0.793930	-0.152700	-0.178867
C158	C	0.841894	-0.191107	-0.097281
H159	H	0.815568	-0.414971	-0.135929
H160	H	0.732098	-0.348133	-0.277909
H161	H	0.718356	-0.181574	-0.305179
H162	H	0.788085	-0.081848	-0.190466
H163	H	0.871555	-0.148686	-0.048486
H164	H	1.092323	0.196805	0.422392
C165	C	0.390258	0.253992	0.081058
C166	C	0.447452	0.294630	0.146622
C167	C	0.408971	0.342855	0.228041
C168	C	0.313298	0.350442	0.243896
C169	C	0.256099	0.309802	0.178330
C170	C	0.294579	0.261577	0.096911
H171	H	0.518280	0.289015	0.134887
H172	H	0.451314	0.372939	0.276577
H173	H	0.284813	0.386141	0.304167
H174	H	0.185271	0.315417	0.190065
H175	H	0.252236	0.231493	0.048375
H176	H	0.931495	0.248401	0.424031
C177	C	0.846854	-0.448364	0.080828
C178	C	0.755060	-0.410372	0.095516
C179	C	0.705827	-0.436816	0.176703
C180	C	0.748388	-0.501251	0.243202
C181	C	0.840187	-0.539246	0.228516
C182	C	0.889420	-0.512803	0.147329
H183	H	0.723549	-0.362670	0.046288
H184	H	0.637871	-0.408689	0.187574
H185	H	0.711942	-0.520826	0.303302
H186	H	0.871697	-0.586948	0.277745
H187	H	0.957376	-0.540930	0.136458
H188	H	1.005434	-0.460431	-0.147372
H189	H	1.091566	0.198022	0.575000
H190	H	0.909241	0.008228	0.577170
C191	C	0.849484	-0.287652	0.081777
C192	C	0.878859	-0.315435	0.175611
C193	C	0.830614	-0.277900	0.257444
C194	C	0.752993	-0.212582	0.245444
C195	C	0.723614	-0.184796	0.151606
C196	C	0.771860	-0.222331	0.069773
H197	H	0.936322	-0.363791	0.184498
H198	H	0.852363	-0.298470	0.326909
H199	H	0.717279	-0.184796	0.306022
H200	H	0.666151	-0.136441	0.142719
H201	H	0.750111	-0.201762	0.000308
H202	H	0.575396	0.002592	-0.087794
C203	C	0.882740	0.007596	0.415394
C204	C	0.829813	0.070540	0.354799
C205	C	0.742993	0.050986	0.321871
C206	C	0.709099	-0.031510	0.349539
C207	C	0.762027	-0.094459	0.410138
C208	C	0.848847	-0.074906	0.443065
H209	H	0.854903	0.131613	0.334314
H210	H	0.703813	0.097586	0.277012
H211	H	0.644829	-0.045985	0.325164
H212	H	0.736937	-0.155533	0.430623
H213	H	0.888027	-0.121505	0.487925
H214	H	0.432389	-0.000724	-0.087023
H215	H	0.431081	0.000784	0.090045
H216	H	0.400906	0.241306	-0.061000
