data_functionalizedCrystal
_audit_creation_method	'MofGen! by Chris Wilmer'
_symmetry_space_group_name_H-M	'P1'
_symmetry_Int_Tables_number	1
_symmetry_cell_setting	triclinic
loop_
_symmetry_equiv_pos_as_xyz
  x,y,z
_cell_length_a	17.038272
_cell_length_b	15.995292
_cell_length_c	15.072220
_cell_angle_alpha	89.986330
_cell_angle_beta	89.999202
_cell_angle_gamma	87.290086
loop_
_atom_site_label
_atom_site_type_symbol
_atom_site_fract_x
_atom_site_fract_y
_atom_site_fract_z
O1	O	0.100556	1.118189	-0.073808
O2	O	0.600556	1.618189	0.426192
O3	O	0.113048	0.875297	-0.073804
O4	O	0.613048	1.375297	0.426196
O5	O	-0.007013	0.995300	-0.073799
O6	O	0.492987	1.495300	0.426201
O7	O	0.220618	0.998187	-0.073813
O8	O	0.720618	1.498187	0.426187
O9	O	-0.007006	0.995268	0.073766
O10	O	0.492994	1.495268	0.573766
O11	O	0.113055	0.875266	0.073761
O12	O	0.613055	1.375266	0.573761
O13	O	0.100563	1.118158	0.073757
O14	O	0.600563	1.618158	0.573757
Zn15	Zn	0.106810	0.996707	0.097188
Zn16	Zn	0.606810	1.496707	0.597188
Zn17	Zn	0.106801	0.996748	-0.097235
Zn18	Zn	0.606801	1.496748	0.402765
O19	O	0.220624	0.998155	0.073752
O20	O	0.720624	1.498155	0.573752
C21	C	0.112543	0.844050	-0.000021
C22	C	0.612543	1.344050	0.499979
C23	C	0.111019	0.750988	-0.000020
C24	C	0.611019	1.250988	0.499980
C25	C	0.105415	0.412851	-0.000029
C26	C	0.605415	0.912851	0.499971
C27	C	0.192073	0.442336	-0.000364
C28	C	0.692073	0.942336	0.499636
C29	C	0.193720	0.539129	-0.000028
C30	C	0.693720	1.039129	0.499972
C31	C	0.108196	0.580605	-0.000025
C32	C	0.608196	1.080605	0.499975
C33	C	0.064875	0.548399	0.084241
C34	C	0.564875	1.048399	0.584241
C35	C	0.063832	0.451534	0.084308
C36	C	0.563832	0.951534	0.584308
C37	C	0.062055	0.451588	-0.083501
C38	C	0.562055	0.951588	0.416499
C39	C	0.065266	0.548309	-0.084611
C40	C	0.565266	1.048309	0.415389
C41	C	0.109763	0.675412	-0.000020
C42	C	0.609763	1.175412	0.499980
C43	C	0.103846	0.318043	-0.000029
C44	C	0.603846	0.818043	0.499971
C45	C	-0.036138	0.992658	-0.000016
C46	C	0.463862	1.492658	0.499984
C47	C	-0.122932	0.984824	-0.000017
C48	C	0.377068	1.484824	0.499983
C49	C	-0.173042	1.056753	-0.000017
C50	C	0.326958	1.556753	0.499983
C51	C	-0.254593	1.049387	-0.000025
C52	C	0.245407	1.549387	0.499975
C53	C	-0.286032	0.970090	-0.000027
C54	C	0.213968	1.470090	0.499973
C55	C	-0.235915	0.898155	-0.000029
C56	C	0.264085	1.398155	0.499971
C57	C	-0.154365	0.905522	-0.000028
C58	C	0.345635	1.405522	0.499972
C59	C	-0.531791	0.944064	-0.000039
C60	C	-0.031791	1.444064	0.499961
C61	C	-0.613347	0.936702	-0.000038
C62	C	-0.113347	1.436702	0.499962
C63	C	-0.632019	1.087934	-0.000035
C64	C	-0.132019	1.587934	0.499965
C65	C	-0.550468	1.095294	-0.000028
C66	C	-0.050468	1.595294	0.499972
C67	C	-0.500358	1.023359	-0.000035
C68	C	-0.000358	1.523359	0.499965
C69	C	-0.369390	0.962559	-0.000033
C70	C	0.130610	1.462559	0.499967
C71	C	-0.417001	1.030892	-0.000036
C72	C	0.082999	1.530892	0.499964
C73	C	0.249749	1.000797	-0.000032
C74	C	0.749749	1.500797	0.499968
C75	C	0.336543	1.008632	-0.000038
C76	C	0.836543	1.508632	0.499962
N77	N	0.106816	0.996685	0.229877
N78	N	0.606816	1.496685	0.729877
C79	C	0.101068	1.149405	-0.000028
C80	C	0.601068	1.649405	0.499972
C81	C	0.102592	1.242467	-0.000035
C82	C	0.602592	1.742467	0.499965
N83	N	0.106789	0.996776	-0.229924
N84	N	0.606789	1.496776	0.270076
C85	C	0.106798	0.996746	0.589079
C86	C	0.606798	1.496746	1.089079
C87	C	0.170825	0.932289	0.551469
C88	C	0.670825	1.432289	1.051469
C89	C	0.171059	0.932464	0.448643
C90	C	0.671059	1.432464	0.948643
C91	C	0.106807	0.996715	0.410875
C92	C	0.606807	1.496715	0.910875
C93	C	0.124608	1.085350	0.448163
C94	C	0.624608	1.585350	0.948163
C95	C	0.125063	1.084996	0.551021
C96	C	0.625063	1.584996	1.051021
C97	C	0.024780	0.973334	0.551184
C98	C	0.524780	1.473334	1.051184
C99	C	0.025328	0.971368	0.448321
C100	C	0.525328	1.471368	0.948321
C101	C	0.106810	0.996703	0.310161
C102	C	0.606810	1.496703	0.810161
C103	C	0.106797	0.996764	0.689792
C104	C	0.606797	1.496764	1.189792
H105	H	0.225292	0.415671	0.059724
H106	H	0.725292	0.915671	0.559724
N107	N	-0.040743	1.028928	0.414286
N108	N	0.459257	1.528928	0.914286
H109	H	-0.042542	1.025976	0.347385
H110	H	0.457458	1.525976	0.847385
H111	H	-0.031607	1.088226	0.433294
H112	H	0.468393	1.588226	0.933294
H113	H	0.227857	0.559951	0.060477
H114	H	0.727857	1.059951	0.560477
H115	H	0.160397	0.866394	0.576232
H116	H	0.660397	1.366394	1.076232
N117	N	0.104747	0.577775	0.167302
N118	N	0.604747	1.077775	0.667302
H119	H	0.123946	0.527704	0.203436
H120	H	0.623946	1.027704	0.703436
H121	H	0.066123	0.613378	0.203517
H122	H	0.566123	1.113378	0.703517
H123	H	-0.672827	1.146499	-0.000031
H124	H	-0.172827	1.646499	0.499969
N125	N	0.098001	0.416739	-0.168108
N126	N	0.598001	0.916739	0.331892
H127	H	0.142762	0.375482	-0.153183
H128	H	0.642762	0.875482	0.346817
H129	H	0.118434	0.463957	-0.204674
H130	H	0.618434	0.963957	0.295326
H131	H	0.079213	1.134702	0.423696
H132	H	0.579213	1.634702	0.923696
N133	N	-0.647258	0.851171	-0.000041
N134	N	-0.147258	1.351171	0.499959
H135	H	-0.603140	0.806718	-0.000048
H136	H	-0.103140	1.306718	0.499952
H137	H	-0.680689	0.844841	-0.054745
H138	H	-0.180689	1.344841	0.445255
H139	H	-0.491001	0.885489	-0.000044
H140	H	0.008999	1.385489	0.499956
N141	N	0.238652	0.567558	-0.080042
N142	N	0.738652	1.067558	0.419958
H143	H	0.257567	0.517181	-0.115850
H144	H	0.757567	1.017181	0.384150
H145	H	0.285271	0.599330	-0.059853
H146	H	0.785271	1.099330	0.440147
N147	N	-0.100305	0.827949	-0.000024
N148	N	0.399695	1.327949	0.499976
H149	H	-0.110410	0.793619	-0.054725
H150	H	0.389590	1.293619	0.445275
H151	H	-0.110436	0.793660	0.054716
H152	H	0.389564	1.293660	0.554716
N153	N	0.103580	0.418822	0.167742
N154	N	0.603580	0.918822	0.667742
H155	H	0.159614	0.436754	0.169165
H156	H	0.659614	0.936754	0.669165
H157	H	0.103246	0.355704	0.168572
H158	H	0.603246	0.855704	0.668572
H159	H	0.183740	1.105415	0.422390
H160	H	0.683740	1.605415	0.922390
H161	H	-0.261519	0.833590	-0.000037
H162	H	0.238481	1.333590	0.499963
H163	H	-0.391400	1.095455	-0.000054
H164	H	0.108600	1.595455	0.499946
N165	N	-0.516560	1.180821	-0.000021
N166	N	-0.016560	1.680821	0.499979
H167	H	-0.560680	1.225272	-0.000022
H168	H	-0.060680	1.725272	0.499978
H169	H	-0.483128	1.187186	-0.054722
H170	H	0.016872	1.687186	0.445278
N171	N	-0.403296	0.877031	-0.000027
N172	N	0.096704	1.377031	0.499973
H173	H	-0.436714	0.870617	-0.054730
H174	H	0.063286	1.370617	0.445270
H175	H	-0.436678	0.870653	0.054711
H176	H	0.063322	1.370653	0.554711
N177	N	0.002108	0.889150	0.585584
N178	N	0.502108	1.389150	1.085584
H179	H	0.044779	0.865336	0.626088
H180	H	0.544779	1.365336	1.126088
H181	H	-0.004807	0.849875	0.534011
H182	H	0.495193	1.349875	1.034011
N183	N	0.007455	0.884936	0.416104
N184	N	0.507455	1.384936	0.916104
H185	H	0.051942	0.862290	0.377405
H186	H	0.551942	1.362290	0.877405
H187	H	-0.042913	0.888022	0.380677
H188	H	0.457087	1.388022	0.880677
H189	H	0.160456	0.866767	0.423434
H190	H	0.660456	1.366767	0.923434
H191	H	-0.022866	1.020272	0.575505
H192	H	0.477134	1.520272	1.075505
N193	N	-0.018484	0.584678	0.088412
N194	N	0.481516	1.084678	0.588412
H195	H	-0.056183	0.537818	0.087583
H196	H	0.443817	1.037818	0.587583
H197	H	-0.028922	0.622437	0.035584
H198	H	0.471078	1.122437	0.535584
N199	N	0.236322	0.408424	-0.080410
N200	N	0.736322	0.908424	0.419590
H201	H	0.200628	0.373615	-0.117234
H202	H	0.700628	0.873615	0.382766
H203	H	0.283315	0.372508	-0.060234
H204	H	0.783315	0.872508	0.439766
N205	N	0.204294	1.111131	0.582798
N206	N	0.704294	1.611131	1.082798
H207	H	0.197308	1.163398	0.620105
H208	H	0.697308	1.663398	1.120105
H209	H	0.238559	1.122731	0.529945
H210	H	0.738559	1.622731	1.029945
H211	H	0.000295	0.432457	0.088138
H212	H	0.500295	0.932457	0.588138
H213	H	0.231347	0.947665	0.577303
H214	H	0.731347	1.447665	1.077303
H215	H	0.231923	0.948019	0.424025
H216	H	0.731923	1.448019	0.924025
N217	N	0.107030	0.575913	-0.167193
N218	N	0.607030	1.075913	0.332807
H219	H	0.153565	0.609199	-0.149896
H220	H	0.653565	1.109199	0.350104
H221	H	0.069615	0.611893	-0.204563
H222	H	0.569615	1.111893	0.295437
H223	H	0.002842	0.576834	-0.089698
H224	H	0.502842	1.076834	0.410302
H225	H	0.080266	1.134767	0.575898
H226	H	0.580266	1.634767	1.075898
H227	H	-0.001731	0.433051	-0.084068
H228	H	0.498269	0.933051	0.415932
H229	H	-0.147452	1.121325	-0.000010
H230	H	0.352548	1.621325	0.499990
H231	H	-0.295390	1.107960	-0.000023
H232	H	0.204610	1.607960	0.499977
