data_functionalizedCrystal
_audit_creation_method	'MofGen! by Chris Wilmer'
_symmetry_space_group_name_H-M	'P1'
_symmetry_Int_Tables_number	1
_symmetry_cell_setting	triclinic
loop_
_symmetry_equiv_pos_as_xyz
  x,y,z
_cell_length_a	15.995292
_cell_length_b	15.995292
_cell_length_c	15.072220
_cell_angle_alpha	90.002061
_cell_angle_beta	89.986330
_cell_angle_gamma	83.468616
loop_
_atom_site_label
_atom_site_type_symbol
_atom_site_fract_x
_atom_site_fract_y
_atom_site_fract_z
O1	O	1.111004	0.107692	-0.073800
O2	O	0.867219	0.121071	-0.073796
O3	O	0.995801	-0.007511	-0.073799
O4	O	0.982422	0.236274	-0.073797
O5	O	0.995769	-0.007504	0.073766
O6	O	0.867187	0.121078	0.073769
O7	O	1.110972	0.107699	0.073765
Zn8	Zn	0.989075	0.114390	0.097196
Zn9	Zn	0.989116	0.114380	-0.097227
O10	O	0.982390	0.236281	0.073769
C11	C	0.836008	0.120530	-0.000013
C12	C	0.743055	0.118898	-0.000012
C13	C	0.405318	0.112896	-0.000022
C14	C	0.428611	0.205703	-0.000350
C15	C	0.525286	0.207467	-0.000014
C16	C	0.572873	0.115874	-0.000017
C17	C	0.543763	0.069479	0.084246
C18	C	0.446973	0.068362	0.084313
C19	C	0.447154	0.066459	-0.083496
C20	C	0.543646	0.069898	-0.084606
C21	C	0.667569	0.117552	-0.000012
C22	C	0.310622	0.111215	-0.000021
C23	C	0.995240	-0.038703	-0.000019
C24	C	0.993608	-0.131655	-0.000026
C25	C	0.987607	-0.469393	-0.000018
C26	C	1.080413	-0.446100	0.000310
C27	C	1.082177	-0.349424	-0.000025
C28	C	0.990584	-0.301837	-0.000021
C29	C	0.944204	-0.330933	-0.084284
C30	C	0.943086	-0.427723	-0.084352
C31	C	0.941155	-0.427572	0.083457
C32	C	0.944594	-0.331080	0.084568
C33	C	0.992263	-0.207141	-0.000026
C34	C	0.985926	-0.564088	-0.000019
C35	C	1.142183	0.108240	-0.000020
C36	C	1.235136	0.109873	-0.000027
C37	C	0.982951	0.267473	-0.000014
C38	C	0.984583	0.360426	-0.000013
N39	N	0.989052	0.114396	0.229885
N40	N	0.989146	0.114368	-0.229916
C41	C	0.989115	0.114377	0.589087
C42	C	0.920082	0.182948	0.551482
C43	C	0.920240	0.183198	0.448656
C44	C	0.989083	0.114386	0.410883
C45	C	1.076446	0.133450	0.448173
C46	C	1.076059	0.133938	0.551030
C47	C	0.971563	0.026539	0.551186
C48	C	0.969558	0.027125	0.448323
C49	C	0.989070	0.114390	0.310169
C50	C	0.989133	0.114375	0.689800
H51	H	0.433175	-0.001854	-0.084068
C52	C	1.013254	-0.398425	-0.219784
C53	C	0.986491	-0.463945	-0.169381
H54	H	1.040057	-0.420786	-0.272275
H55	H	0.966046	-0.359654	-0.235174
H56	H	1.051824	-0.370408	-0.186087
H57	H	0.947917	-0.491958	-0.203076
H58	H	1.033707	-0.502730	-0.153993
H59	H	1.118503	-0.330404	0.060376
H60	H	0.976438	-0.310882	-0.146996
C61	C	0.476247	0.138509	0.219744
C62	C	0.410735	0.111754	0.169342
H63	H	0.453876	0.165304	0.272234
H64	H	0.515014	0.091298	0.235136
H65	H	0.504270	0.177083	0.186047
H66	H	0.382716	0.073175	0.203037
H67	H	0.371953	0.158971	0.153952
C68	C	0.871191	0.330741	0.446695
C69	C	0.935375	0.271192	0.415425
H70	H	0.880542	0.385067	0.426184
H71	H	0.818464	0.317282	0.425392
H72	H	0.871048	0.330269	0.509719
H73	H	0.935513	0.271660	0.352400
H74	H	0.988115	0.284656	0.436723
C75	C	1.109670	0.271300	0.510158
C76	C	1.096933	0.220416	0.583412
H77	H	1.122551	0.324692	0.530149
H78	H	1.155057	0.245365	0.475572
H79	H	1.060034	0.278364	0.475083
H80	H	1.146572	0.213348	0.618485
H81	H	1.051543	0.246357	0.618014
H82	H	0.905293	0.012657	0.423952
H83	H	0.544318	0.243797	-0.060419
C84	C	1.075644	-0.528621	0.132895
C85	C	1.128696	-0.483903	0.081883
H86	H	1.105455	-0.551966	0.183254
H87	H	1.028321	-0.491654	0.151837
H88	H	1.057188	-0.572579	0.098192
H89	H	1.147147	-0.439940	0.116584
H90	H	1.176034	-0.520873	0.062942
H91	H	1.016573	-0.026291	0.422613
H92	H	0.562222	0.103678	-0.146943
H93	H	1.129032	0.085962	0.575904
C94	C	0.336377	0.323785	-0.054016
C95	C	0.390859	0.254009	-0.081934
H96	H	0.313083	0.353611	-0.104390
H97	H	0.292391	0.305329	-0.019356
H98	H	0.366715	0.359744	-0.019382
H99	H	0.360520	0.218047	-0.116563
H100	H	0.434852	0.272464	-0.116609
H101	H	0.978366	-0.312518	0.146905
C102	C	1.156139	-0.421380	-0.132941
C103	C	1.128457	-0.485274	-0.080814
H104	H	1.185801	-0.445567	-0.183022
H105	H	1.109032	-0.384365	-0.152312
H106	H	1.192371	-0.390884	-0.098841
H107	H	1.092220	-0.515766	-0.114912
H108	H	1.175571	-0.522303	-0.061443
C109	C	1.113494	0.009288	0.360712
C110	C	1.147455	0.067829	0.415136
H111	H	1.157333	-0.031220	0.340312
H112	H	1.073861	-0.018109	0.393564
H113	H	1.086267	0.037492	0.311341
H114	H	1.174677	0.039626	0.464511
H115	H	1.187102	0.095229	0.382283
C116	C	0.850216	0.065192	0.642379
C117	C	0.887413	0.001801	0.586235
H118	H	0.798260	0.049928	0.664011
H119	H	0.886723	0.072127	0.690859
H120	H	0.840425	0.116511	0.610336
H121	H	0.897209	-0.049517	0.618279
H122	H	0.850897	-0.005144	0.537747
H123	H	0.872842	-0.441548	0.084028
C124	C	1.081942	-0.081321	0.511087
C125	C	1.039516	-0.042352	0.584016
H126	H	1.123897	-0.123842	0.531361
H127	H	1.043038	-0.105894	0.474468
H128	H	1.107677	-0.040654	0.477981
H129	H	1.013775	-0.083018	0.617119
H130	H	1.078427	-0.017779	0.620650
H131	H	1.092286	0.196779	0.422404
C132	C	0.814281	-0.413076	-0.167583
C133	C	0.851234	-0.447361	-0.089532
H134	H	0.757580	-0.425204	-0.170788
H135	H	0.815586	-0.353857	-0.167495
H136	H	0.844611	-0.436928	-0.217400
H137	H	0.820908	-0.423504	-0.039714
H138	H	0.849924	-0.506591	-0.089612
C139	C	0.453312	0.281414	0.132893
C140	C	0.389425	0.253740	0.080771
H141	H	0.429119	0.311074	0.182971
H142	H	0.490321	0.234304	0.152270
H143	H	0.483816	0.317647	0.098789
H144	H	0.358924	0.217502	0.114874
H145	H	0.352401	0.300857	0.061396
H146	H	0.876804	-0.299051	-0.087414
C147	C	0.502740	-0.077277	0.092511
C148	C	0.427341	-0.023494	0.089484
H149	H	0.490620	-0.133982	0.095712
H150	H	0.534668	-0.069776	0.040557
H151	H	0.534060	-0.064555	0.143329
H152	H	0.396023	-0.036212	0.038663
H153	H	0.395400	-0.030999	0.141444
H154	H	1.118743	-0.331030	-0.060535
H155	H	0.855301	0.171843	0.423446
H156	H	0.970368	-0.455663	0.147329
H157	H	0.543669	0.244027	0.060494
H158	H	0.575645	0.002079	0.087377
H159	H	0.563802	0.101703	0.146957
H160	H	0.576631	0.003044	-0.089698
H161	H	0.418834	0.095464	-0.147363
C162	C	0.838296	-0.231752	0.019458
C163	C	0.854341	-0.286555	0.091449
H164	H	0.782574	-0.204267	0.023703
H165	H	0.877094	-0.191000	0.020169
H166	H	0.844325	-0.262826	-0.034320
H167	H	0.848318	-0.255479	0.145228
H168	H	0.815531	-0.327312	0.090747
H169	H	0.931134	0.247765	0.577320
H170	H	0.854933	0.171779	0.576244
