data_functionalizedCrystal
_audit_creation_method	'MofGen! by Chris Wilmer'
_symmetry_space_group_name_H-M	'P1'
_symmetry_Int_Tables_number	1
_symmetry_cell_setting	triclinic
loop_
_symmetry_equiv_pos_as_xyz
  x,y,z
_cell_length_a	15.995350
_cell_length_b	15.072220
_cell_length_c	15.995350
_cell_angle_alpha	89.992853
_cell_angle_beta	96.507625
_cell_angle_gamma	90.000308
loop_
_atom_site_label
_atom_site_type_symbol
_atom_site_fract_x
_atom_site_fract_y
_atom_site_fract_z
O1	O	1.110984	0.073703	-0.107932
O2	O	0.867209	0.073721	-0.121260
O3	O	0.995760	0.073710	0.007292
O4	O	0.982433	0.073713	-0.236484
O5	O	0.995752	-0.073855	0.007307
O6	O	0.867200	-0.073844	-0.121244
O7	O	1.110976	-0.073862	-0.107917
Zn8	Zn	0.989087	-0.097283	-0.114578
Zn9	Zn	0.989098	0.097141	-0.114599
O10	O	0.982424	-0.073852	-0.236468
C11	C	0.836010	-0.000060	-0.120701
C12	C	0.743060	-0.000053	-0.119049
N13	N	0.989085	-0.229971	-0.114564
C14	C	0.405312	-0.000071	-0.113117
C15	C	0.452746	-0.000401	-0.021565
C16	C	0.549436	-0.000063	-0.023217
C17	C	0.572873	-0.000063	-0.116060
C18	C	0.531790	0.084201	-0.161225
C19	C	0.435155	0.084266	-0.158925
C20	C	0.434806	-0.083543	-0.160799
C21	C	0.531751	-0.084651	-0.160777
C22	C	0.667570	-0.000055	-0.117727
C23	C	0.310614	-0.000073	-0.111452
C24	C	0.989099	-0.589173	-0.114592
C25	C	1.058107	-0.551544	-0.046036
C26	C	1.057927	-0.448718	-0.045783
C27	C	0.989093	-0.410969	-0.114578
C28	C	0.901736	-0.448305	-0.095497
C29	C	0.902144	-0.551163	-0.095013
C30	C	1.006660	-0.551250	-0.202431
C31	C	1.008643	-0.448386	-0.201842
C32	C	0.989084	-0.310255	-0.114572
C33	C	0.989102	-0.689886	-0.114597
C34	C	1.142175	-0.000080	-0.108476
C35	C	1.235125	-0.000081	-0.110127
C36	C	0.995205	-0.000070	0.038494
C37	C	0.993553	-0.000065	0.131444
N38	N	0.989106	0.229830	-0.114606
C39	C	0.982980	-0.000069	-0.267671
C40	C	0.984631	-0.000069	-0.360621
C41	C	0.987621	-0.000068	0.469192
C42	C	0.896069	0.000270	0.421758
C43	C	0.897721	-0.000063	0.325068
C44	C	0.990564	-0.000066	0.301631
C45	C	1.035715	-0.084335	0.342718
C46	C	1.033416	-0.084405	0.439353
C47	C	1.035316	0.083404	0.439694
C48	C	1.035295	0.084518	0.342748
C49	C	0.992231	-0.000068	0.206934
C50	C	0.985956	-0.000072	0.563890
H51	H	0.577862	-0.060467	0.012284
C52	C	0.552284	-0.091258	-0.251049
C53	C	0.602609	-0.019176	-0.268773
C54	C	0.621527	-0.025217	-0.351931
H55	H	0.581674	-0.144988	-0.258233
H56	H	0.501583	-0.090507	-0.288257
H57	H	0.653302	-0.019935	-0.231577
H58	H	0.573235	0.034564	-0.261609
H59	H	0.570826	-0.024466	-0.389138
H60	H	0.650915	-0.078950	-0.359107
H61	H	0.655668	0.023693	-0.363970
H62	H	1.123261	-0.576278	-0.057215
C63	C	0.410914	0.168280	-0.114960
C64	C	0.483244	0.218507	-0.090720
C65	C	0.460953	0.295902	-0.050206
H66	H	0.372972	0.202071	-0.152306
H67	H	0.384681	0.152914	-0.066561
H68	H	0.509464	0.233875	-0.139113
H69	H	0.521195	0.184743	-0.053366
H70	H	0.434720	0.280536	-0.001807
H71	H	0.423010	0.329685	-0.087556
H72	H	0.510026	0.329986	-0.033747
C73	C	0.407469	-0.168809	-0.121024
C74	C	0.434706	-0.241699	-0.164965
C75	C	0.409530	-0.320254	-0.128346
H76	H	0.431517	-0.171520	-0.063992
H77	H	0.347859	-0.169948	-0.123424
H78	H	0.494304	-0.240561	-0.162557
H79	H	0.410661	-0.239017	-0.221996
H80	H	0.349919	-0.321392	-0.130746
H81	H	0.433579	-0.322955	-0.071314
H82	H	0.427999	-0.369718	-0.158159
H83	H	1.100631	-0.088231	0.471602
H84	H	1.046706	-0.424120	0.019403
C85	C	0.568177	-0.167857	-0.116976
C86	C	0.606966	-0.219537	-0.174262
C87	C	0.640525	-0.296197	-0.133946
H88	H	0.608514	-0.151675	-0.071322
H89	H	0.524283	-0.200995	-0.096434
H90	H	0.650855	-0.186405	-0.194791
H91	H	0.566645	-0.235742	-0.219917
H92	H	0.596631	-0.329335	-0.113405
H93	H	0.680859	-0.280006	-0.088294
H94	H	0.666840	-0.331275	-0.172810
C95	C	0.881536	-0.582996	-0.009532
C96	C	0.868829	-0.509617	0.041191
C97	C	0.849853	-0.538902	0.119947
H98	H	0.831900	-0.618077	-0.016481
H99	H	0.926932	-0.617545	0.016443
H100	H	0.823437	-0.475083	0.015223
H101	H	0.918455	-0.474528	0.048165
H102	H	0.895250	-0.573451	0.145921
H103	H	0.800219	-0.573984	0.112989
H104	H	0.841237	-0.489120	0.154375
C105	C	1.126629	-0.088393	0.323756
C106	C	1.143769	-0.015077	0.274706
C107	C	1.227505	-0.018791	0.257212
H108	H	1.163022	-0.087574	0.374983
H109	H	1.135408	-0.141464	0.293919
H110	H	1.134998	0.037979	0.304544
H111	H	1.107397	-0.015882	0.223470
H112	H	1.236284	-0.071862	0.227374
H113	H	1.263891	-0.017974	0.308442
H114	H	1.239143	0.030947	0.223923
H115	H	1.002283	0.146857	0.315493
H116	H	0.403045	-0.084113	-0.228300
C117	C	1.125260	0.084218	0.482201
C118	C	1.124549	0.087432	0.569598
C119	C	1.207385	0.088188	0.608786
H120	H	1.153415	0.031960	0.467525
H121	H	1.153777	0.134823	0.464183
H122	H	1.096045	0.036832	0.587608
H123	H	1.096412	0.139687	0.584298
H124	H	1.235902	0.138793	0.590768
H125	H	1.235533	0.035930	0.594104
H126	H	1.206914	0.090378	0.668088
H127	H	0.849251	-0.576056	-0.143047
H128	H	1.072906	-0.423984	-0.216320
H129	H	1.004348	-0.147042	0.314343
H130	H	1.103000	0.089603	0.327386
H131	H	0.434221	-0.060830	0.015037
H132	H	0.961638	-0.422688	-0.255247
C133	C	0.995271	0.168546	0.466938
C134	C	0.911238	0.172150	0.431344
C135	C	0.874316	0.250569	0.456413
H136	H	0.997554	0.169717	0.526529
H137	H	1.024941	0.218130	0.448482
H138	H	0.881576	0.122578	0.449806
H139	H	0.908931	0.170993	0.371755
H140	H	0.903985	0.300154	0.437956
H141	H	0.876604	0.251733	0.516003
H142	H	0.817298	0.253029	0.432260
C143	C	0.426797	0.079759	0.027061
C144	C	0.497751	0.131723	0.052263
C145	C	0.473879	0.205569	0.097065
H146	H	0.386996	0.113949	-0.007867
H147	H	0.402286	0.060410	0.075299
H148	H	0.522250	0.151073	0.004033
H149	H	0.537560	0.097560	0.087202
H150	H	0.449367	0.186219	0.145302
H151	H	0.434077	0.239751	0.062131
H152	H	0.522018	0.240831	0.114177
H153	H	0.577298	0.060446	0.012512
H154	H	0.956338	-0.575589	-0.253448
C155	C	0.850478	0.080460	0.287000
C156	C	0.852017	0.080129	0.199656
C157	C	0.808517	0.154305	0.164566
H158	H	0.793819	0.078469	0.299396
H159	H	0.876598	0.132997	0.310044
H160	H	0.825895	0.027606	0.176620
H161	H	0.908665	0.082133	0.187236
H162	H	0.834637	0.206842	0.187609
H163	H	0.751861	0.152307	0.176968
H164	H	0.809562	0.154095	0.105301
C165	C	1.144580	-0.415225	-0.060895
C166	C	1.197569	-0.487601	-0.070345
C167	C	1.277408	-0.456787	-0.084251
H168	H	1.140094	-0.380102	-0.110514
H169	H	1.167287	-0.380358	-0.014287
H170	H	1.174868	-0.522453	-0.116949
H171	H	1.202080	-0.522731	-0.020734
H172	H	1.300115	-0.421920	-0.037643
H173	H	1.272914	-0.421664	-0.133870
H174	H	1.313373	-0.505889	-0.090657
C175	C	0.989437	-0.168419	0.463598
C176	C	0.965188	-0.218640	0.391270
C177	C	0.924660	-0.296033	0.413565
H178	H	1.026776	-0.202214	0.501542
H179	H	0.941040	-0.153051	0.489830
H180	H	1.013578	-0.234009	0.365051
H181	H	0.927840	-0.184871	0.353318
H182	H	0.876264	-0.280666	0.439797
H183	H	0.962005	-0.329821	0.451510
H184	H	0.908196	-0.330114	0.364494
H185	H	0.885877	-0.422553	-0.032167
H186	H	0.402906	0.088090	-0.226141
H187	H	0.545915	0.087335	-0.229434
H188	H	0.849147	-0.423854	-0.144100
C189	C	1.043382	-0.585831	0.040460
C190	C	1.030279	-0.514042	0.092973
C191	C	1.016718	-0.545592	0.172661
H192	H	0.995270	-0.623220	0.035541
H193	H	1.091195	-0.618530	0.063821
H194	H	0.982471	-0.481358	0.069618
H195	H	1.078383	-0.476646	0.097917
H196	H	1.064531	-0.578291	0.196021
H197	H	0.968606	-0.582982	0.167733
H198	H	1.007834	-0.496889	0.208303
C199	C	1.089830	-0.585647	-0.226933
C200	C	1.143450	-0.513993	-0.237141
C201	C	1.220073	-0.545644	-0.259714
H202	H	1.115179	-0.623714	-0.183985
H203	H	1.080084	-0.617647	-0.278282
H204	H	1.153199	-0.482008	-0.185799
H205	H	1.118128	-0.475919	-0.280093
H206	H	1.210326	-0.577643	-0.311063
H207	H	1.245414	-0.583711	-0.216762
H208	H	1.256460	-0.497031	-0.266650
C209	C	0.847546	-0.079820	0.448057
C210	C	0.843149	-0.076699	0.534933
C211	C	0.798470	-0.150470	0.559193
H212	H	0.792273	-0.079194	0.419200
H213	H	0.875506	-0.132612	0.434451
H214	H	0.815187	-0.023921	0.548531
H215	H	0.898409	-0.077337	0.563810
H216	H	0.826430	-0.203262	0.545587
H217	H	0.743200	-0.149837	0.530331
H218	H	0.795487	-0.148366	0.618141
H219	H	0.861983	-0.060568	0.297209
H220	H	0.560168	0.146912	-0.129868
H221	H	0.859480	0.060701	0.440283
