data_functionalizedCrystal
_audit_creation_method	'MofGen! by Chris Wilmer'
_symmetry_space_group_name_H-M	'P1'
_symmetry_Int_Tables_number	1
_symmetry_cell_setting	triclinic
loop_
_symmetry_equiv_pos_as_xyz
  x,y,z
_cell_length_a	17.699083
_cell_length_b	10.654541
_cell_length_c	16.776229
_cell_angle_alpha	89.993604
_cell_angle_beta	89.998886
_cell_angle_gamma	83.883472
loop_
_atom_site_label
_atom_site_type_symbol
_atom_site_fract_x
_atom_site_fract_y
_atom_site_fract_z
O1	O	1.005087	0.158809	-0.066176
O2	O	0.784840	0.179470	-0.066202
O3	O	0.900029	-0.013689	-0.066184
O4	O	0.889899	0.351968	-0.066194
O5	O	0.900013	-0.013700	0.066393
O6	O	0.784825	0.179458	0.066374
O7	O	1.005072	0.158797	0.066400
Zn8	Zn	0.894946	0.169126	0.087437
Zn9	Zn	0.894966	0.169142	-0.087238
O10	O	0.889883	0.351956	0.066382
C11	C	0.756631	0.178724	0.000083
C12	C	0.672599	0.176503	0.000073
C13	C	0.624698	0.289883	0.000070
C14	C	0.545741	0.287789	0.000080
C15	C	0.514687	0.172313	0.000088
C16	C	0.562594	0.058924	0.000094
C17	C	0.641549	0.061020	0.000089
C18	C	0.244177	0.050470	0.000114
C19	C	0.165216	0.048383	0.000116
C20	C	0.148369	0.277239	0.000105
C21	C	0.227324	0.279335	0.000100
C22	C	0.275224	0.165946	0.000110
C23	C	0.360838	0.168219	0.000100
C24	C	0.429075	0.170039	0.000092
C25	C	0.899277	-0.060480	0.000104
C26	C	0.897053	-0.199884	0.000103
C27	C	1.034792	-0.230266	0.000129
C28	C	1.102614	-0.310947	0.000144
C29	C	1.100519	-0.441929	0.000141
C30	C	1.030596	-0.492230	0.000121
C31	C	0.962775	-0.411549	0.000106
C32	C	0.964876	-0.280566	0.000111
C33	C	0.825037	-0.381167	0.000074
C34	C	0.827130	-0.250185	0.000083
C35	C	0.755114	-0.431468	0.000054
C36	C	0.687291	-0.350786	0.000045
C37	C	0.689388	-0.219798	0.000049
C38	C	0.759308	-0.169504	0.000068
C39	C	1.033281	0.159543	0.000114
C40	C	1.117313	0.161764	0.000118
C41	C	0.890634	0.398747	0.000093
C42	C	0.892859	0.538151	0.000089
N43	N	0.894937	0.169115	0.206648
N44	N	0.894981	0.169143	-0.206450
C45	C	0.945959	0.083619	0.248373
C46	C	0.945963	0.083618	0.331826
C47	C	0.894949	0.169119	0.373551
C48	C	0.843922	0.254619	0.331820
C49	C	0.843915	0.254613	0.248369
C50	C	0.843950	0.254644	0.668367
C51	C	0.843962	0.254646	0.751824
C52	C	0.945998	0.083648	0.751823
C53	C	0.945990	0.083642	0.668373
C54	C	0.894961	0.169137	0.626649
C55	C	0.894956	0.169136	0.536161
C56	C	0.894957	0.169128	0.464038
H57	H	0.283168	-0.041858	0.000122
C58	C	0.761622	-0.025423	0.000071
N59	N	0.763368	0.083100	0.000070
C60	C	1.028296	-0.636314	0.000115
N61	N	1.026563	-0.744840	0.000113
C62	C	1.037103	-0.086184	0.000139
N63	N	1.038845	0.022339	0.000145
C64	C	1.002072	-0.010465	0.377720
N65	N	1.044329	-0.081343	0.412286
C66	C	0.528431	-0.068101	0.000104
N67	N	0.502701	-0.163779	0.000108
H68	H	0.252604	0.373367	0.000090
H69	H	0.680549	-0.031306	0.000091
C70	C	0.787835	0.348701	0.797720
N71	N	0.745562	0.419538	0.832289
H72	H	0.753413	-0.538121	0.000047
H73	H	1.159544	-0.269977	0.000167
C74	C	0.131059	-0.078656	0.000134
N75	N	0.105331	-0.174336	0.000150
C76	C	0.610383	-0.406127	0.000028
N77	N	0.552455	-0.447815	0.000019
C78	C	0.787915	0.348853	0.622482
N79	N	0.745743	0.419875	0.587918
C80	C	1.002079	-0.010442	0.202483
N81	N	1.044348	-0.081296	0.167921
H82	H	1.155746	-0.507621	0.000147
C83	C	0.787799	0.348660	0.377721
N84	N	0.745525	0.419494	0.412293
C85	C	1.002108	-0.010419	0.622479
N86	N	1.044374	-0.081272	0.587914
H87	H	0.634159	-0.154113	0.000034
C88	C	0.787793	0.348675	0.202472
N89	N	0.745521	0.419527	0.167903
C90	C	0.493053	0.412516	0.000091
N91	N	0.453369	0.506467	0.000105
H92	H	0.649976	0.383917	0.000063
C93	C	1.002125	-0.010410	0.797727
N94	N	1.044399	-0.081251	0.832300
H95	H	0.109359	0.369565	0.000101
