data_functionalizedCrystal
_audit_creation_method	'MofGen! by Chris Wilmer'
_symmetry_space_group_name_H-M	'P1'
_symmetry_Int_Tables_number	1
_symmetry_cell_setting	triclinic
loop_
_symmetry_equiv_pos_as_xyz
  x,y,z
_cell_length_a	23.532407
_cell_length_b	22.610064
_cell_length_c	16.109301
_cell_angle_alpha	90.002647
_cell_angle_beta	96.844921
_cell_angle_gamma	90.002839
loop_
_atom_site_label
_atom_site_type_symbol
_atom_site_fract_x
_atom_site_fract_y
_atom_site_fract_z
O1	O	0.755636	0.049113	-0.100914
O2	O	1.255636	0.549113	0.399086
O3	O	0.589826	0.049130	-0.115517
O4	O	1.089826	0.549130	0.384483
O5	O	0.677286	0.049115	0.012851
O6	O	1.177286	0.549115	0.512851
O7	O	0.668176	0.049128	-0.229283
O8	O	1.168176	0.549128	0.270717
O9	O	0.677271	-0.049254	0.012832
O10	O	1.177271	0.450746	0.512832
O11	O	0.589811	-0.049239	-0.115536
O12	O	1.089811	0.450761	0.384464
O13	O	0.755620	-0.049257	-0.100933
O14	O	1.255620	0.450743	0.399067
Zn15	Zn	0.672713	-0.064866	-0.108238
Zn16	Zn	1.172713	0.435134	0.391762
Zn17	Zn	0.672734	0.064740	-0.108213
Zn18	Zn	1.172734	0.564740	0.391787
O19	O	0.668161	-0.049241	-0.229301
O20	O	1.168161	0.450759	0.270699
C21	C	0.568601	-0.000052	-0.115155
C22	C	1.068601	0.499948	0.384845
C23	C	0.505380	-0.000046	-0.114037
C24	C	1.005380	0.499954	0.385963
C25	C	0.106531	-0.000069	-0.182990
C26	C	0.606531	0.499931	0.317010
C27	C	0.047127	-0.000072	-0.181951
C28	C	0.547127	0.499928	0.318049
O29	O	0.010619	-0.000090	-0.245872
O30	O	0.510619	0.499910	0.254128
N31	N	0.024220	-0.000076	-0.105636
N32	N	0.524220	0.499924	0.394364
C33	C	0.060719	-0.000081	-0.030355
C34	C	0.560719	0.499919	0.469645
O35	O	0.035780	-0.000085	0.034652
O36	O	0.535780	0.499915	0.534652
C37	C	0.120122	-0.000082	-0.031395
C38	C	0.620122	0.499918	0.468605
C39	C	0.143027	-0.000072	-0.107715
C40	C	0.643027	0.499928	0.392285
C41	C	0.129436	-0.000060	-0.259304
C42	C	0.629436	0.499940	0.240696
C43	C	0.188836	-0.000055	-0.260342
C44	C	0.688836	0.499945	0.239658
C45	C	0.225331	-0.000059	-0.185066
C46	C	0.725331	0.499941	0.314934
C47	C	0.202426	-0.000068	-0.108753
C48	C	0.702426	0.499932	0.391247
C49	C	0.156621	-0.000091	0.043886
C50	C	0.656621	0.499909	0.543886
C51	C	0.216027	-0.000092	0.042840
C52	C	0.716027	0.499908	0.542840
C53	C	0.238932	-0.000083	-0.033480
C54	C	0.738932	0.499917	0.466520
C55	C	0.298322	-0.000067	-0.034516
C56	C	0.798322	0.499933	0.465484
N57	N	0.321229	-0.000063	-0.110831
N58	N	0.821229	0.499937	0.389169
C59	C	0.284734	-0.000060	-0.186106
C60	C	0.784734	0.499940	0.313894
C61	C	-0.064031	-0.000081	-0.028178
C62	C	0.435969	0.499919	0.471822
C63	C	-0.123433	-0.000076	-0.027138
C64	C	0.376567	0.499924	0.472862
C65	C	-0.137021	-0.000069	-0.178734
C66	C	0.362979	0.499931	0.321266
C67	C	-0.077618	-0.000069	-0.179774
C68	C	0.422382	0.499931	0.320226
C69	C	-0.041123	-0.000078	-0.104493
C70	C	0.458877	0.499922	0.395507
C71	C	0.409479	-0.000049	-0.188281
C72	C	0.909479	0.499951	0.311719
C73	C	0.468885	-0.000042	-0.189312
C74	C	0.968885	0.499958	0.310688
C75	C	0.482468	-0.000053	-0.037716
C76	C	0.982468	0.499947	0.462284
C77	C	0.423067	-0.000057	-0.036684
C78	C	0.923067	0.499943	0.463316
C79	C	0.386574	-0.000057	-0.111973
C80	C	0.886574	0.499943	0.388027
O81	O	0.334865	-0.000051	0.029371
O82	O	0.834865	0.499949	0.529371
O83	O	0.309682	-0.000064	-0.251102
O84	O	0.809682	0.499936	0.248898
N85	N	0.672703	-0.153318	-0.108254
N86	N	1.172703	0.346682	0.391746
C87	C	0.711462	-0.561967	-0.051380
C88	C	1.211462	-0.061967	0.448620
C89	C	0.711465	-0.623887	-0.051374
C90	C	1.211465	-0.123887	0.448626
O91	O	0.744395	-0.655911	-0.003030
O92	O	1.244395	-0.155911	0.496970
N93	N	0.672733	-0.654856	-0.108196
N94	N	1.172733	-0.154856	0.391804
C95	C	0.633991	-0.623902	-0.165021
C96	C	1.133991	-0.123902	0.334979
O97	O	0.601047	-0.655929	-0.213352
O98	O	1.101047	-0.155929	0.286648
C99	C	0.633986	-0.561983	-0.165023
C100	C	1.133986	-0.061983	0.334977
C101	C	0.672725	-0.531017	-0.108203
C102	C	1.172725	-0.031017	0.391797
C103	C	0.750197	-0.531001	0.005436
C104	C	1.250197	-0.031001	0.505436
C105	C	0.750195	-0.469085	0.005428
C106	C	1.250195	0.030915	0.505428
C107	C	0.711458	-0.438135	-0.051395
C108	C	1.211458	0.061865	0.448605
C109	C	0.672723	-0.469101	-0.108210
C110	C	1.172723	0.030899	0.391790
C111	C	0.595242	-0.531030	-0.221844
C112	C	1.095242	-0.031030	0.278156
C113	C	0.595240	-0.469107	-0.221840
C114	C	1.095240	0.030893	0.278160
C115	C	0.633979	-0.438141	-0.165020
C116	C	1.133979	0.061859	0.334980
C117	C	0.633983	-0.376236	-0.165041
C118	C	1.133983	0.123764	0.334959
N119	N	0.672715	-0.345267	-0.108219
N120	N	1.172715	0.154733	0.391781
C121	C	0.711453	-0.376217	-0.051396
C122	C	1.211453	0.123783	0.448604
C123	C	0.634005	-0.753935	-0.165013
C124	C	1.134005	-0.253935	0.334987
C125	C	0.634012	-0.815853	-0.165016
C126	C	1.134012	-0.315853	0.334984
C127	C	0.711485	-0.815834	-0.051368
C128	C	1.211485	-0.315834	0.448632
C129	C	0.711480	-0.753915	-0.051369
C130	C	1.211480	-0.253915	0.448631
C131	C	0.672737	-0.722966	-0.108191
C132	C	1.172737	-0.222966	0.391809
C133	C	0.711445	-0.246189	-0.051416
C134	C	1.211445	0.253811	0.448584
C135	C	0.711441	-0.184268	-0.051431
C136	C	1.211441	0.315732	0.448569
C137	C	0.633966	-0.184293	-0.165076
C138	C	1.133966	0.315707	0.334924
C139	C	0.633972	-0.246208	-0.165065
C140	C	1.133972	0.253792	0.334935
C141	C	0.672714	-0.277155	-0.108228
C142	C	1.172714	0.222845	0.391772
O143	O	0.601068	-0.344172	-0.213357
O144	O	1.101068	0.155828	0.286643
O145	O	0.744387	-0.344182	-0.003067
O146	O	1.244387	0.155818	0.496933
C147	C	0.776845	-0.000073	-0.101295
C148	C	1.276845	0.499927	0.398705
C149	C	0.840067	-0.000075	-0.102414
C150	C	1.340067	0.499925	0.397586
C151	C	0.676909	-0.000070	0.043814
C152	C	1.176909	0.499930	0.543814
C153	C	0.675803	-0.000071	0.136100
C154	C	1.175803	0.499929	0.636100
N155	N	0.672748	0.153192	-0.108190
N156	N	1.172748	0.653192	0.391810
C157	C	0.668537	-0.000055	-0.260264
C158	C	1.168537	0.499945	0.239736
C159	C	0.669644	-0.000050	-0.352551
C160	C	1.169644	0.499950	0.147449
C161	C	0.725127	-0.000067	0.358760
C162	C	1.225127	0.499933	0.858760
C163	C	0.724083	-0.000062	0.445473
C164	C	1.224083	0.499938	0.945473
C165	C	0.620315	-0.000053	0.424782
C166	C	1.120315	0.499947	0.924782
C167	C	0.621360	-0.000054	0.338072
C168	C	1.121360	0.499946	0.838072
C169	C	0.673768	-0.000063	0.305063
C170	C	1.173768	0.499937	0.805063
C171	C	0.671679	-0.000058	0.478486
C172	C	1.171679	0.499942	0.978486
C173	C	0.670547	-0.000052	0.572503
C174	C	1.170547	0.499948	1.072503
C175	C	0.674900	-0.000068	0.211040
C176	C	1.174900	0.499932	0.711040
H177	H	0.487530	-0.000034	-0.251464
H178	H	0.987530	0.499966	0.248536
H179	H	0.137983	-0.000099	0.106033
H180	H	0.637983	0.499901	0.606033
H181	H	0.404418	-0.000055	0.025462
H182	H	0.904418	0.499945	0.525462
H183	H	-0.142076	-0.000074	0.035010
H184	H	0.357924	0.499926	0.535010
H185	H	0.577647	-0.000046	0.451669
H186	H	1.077647	0.499954	0.951669
Br187	Br	0.764024	-0.288178	0.025721
Br188	Br	1.264024	0.211822	0.525721
Br189	Br	0.551652	-0.000041	0.265191
Br190	Br	1.051652	0.499959	0.765191
H191	H	0.245739	-0.000100	0.104144
H192	H	0.745739	0.499900	0.604144
H193	H	0.781738	-0.443876	0.051698
H194	H	1.281738	0.056124	0.551698
Br195	Br	0.532008	-0.000059	0.064438
Br196	Br	1.032008	0.499941	0.564438
Br197	Br	0.359961	-0.000051	-0.290459
Br198	Br	0.859961	0.499949	0.209541
Br199	Br	0.581397	-0.142280	-0.242193
Br200	Br	1.081397	0.357720	0.257807
H201	H	0.602457	-0.728740	-0.211292
H202	H	1.102457	-0.228740	0.288708
H203	H	0.563689	-0.443911	-0.268111
H204	H	1.063689	0.056089	0.231889
Br205	Br	0.802776	-0.572993	0.082564
Br206	Br	1.302776	-0.072993	0.582564
H207	H	0.207479	-0.000048	-0.322489
H208	H	0.707479	0.499952	0.177511
H209	H	0.742988	-0.159058	-0.005161
H210	H	1.242988	0.340942	0.494839
Br211	Br	0.764056	-0.711896	0.025746
Br212	Br	1.264056	-0.211896	0.525746
Br213	Br	0.796251	-0.000080	0.313966
Br214	Br	1.296251	0.499920	0.813966
Br215	Br	0.079917	-0.000055	-0.361478
Br216	Br	0.579917	0.499945	0.138522
Br217	Br	0.764058	-0.857850	0.025750
Br218	Br	1.264058	-0.357850	0.525750
H219	H	0.602433	-0.271421	-0.211341
H220	H	1.102433	0.228579	0.288659
H221	H	0.563698	-0.556234	-0.268111
H222	H	1.063698	-0.056234	0.231889
Br223	Br	0.581446	-0.857871	-0.242145
Br224	Br	1.081446	-0.357871	0.257855
Br225	Br	0.793789	-0.000062	0.518345
Br226	Br	1.293789	0.499938	1.018345
H227	H	-0.058974	-0.000065	-0.241920
H228	H	0.441026	0.499935	0.258080
H229	H	-0.166747	-0.000068	-0.240028
H230	H	0.333253	0.499932	0.259972
H231	H	-0.034320	-0.000083	0.033129
H232	H	0.465680	0.499917	0.533129
