data_functionalizedCrystal
_audit_creation_method	'MofGen! by Chris Wilmer'
_symmetry_space_group_name_H-M	'P1'
_symmetry_Int_Tables_number	1
_symmetry_cell_setting	triclinic
loop_
_symmetry_equiv_pos_as_xyz
  x,y,z
_cell_length_a	12.837939
_cell_length_b	13.596369
_cell_length_c	12.811487
_cell_angle_alpha	95.426486
_cell_angle_beta	90.587114
_cell_angle_gamma	89.999979
loop_
_atom_site_label
_atom_site_type_symbol
_atom_site_fract_x
_atom_site_fract_y
_atom_site_fract_z
O1	O	-1.376631	-0.057431	0.272970
O2	O	-1.074767	-0.058638	0.259487
O3	O	-1.233291	-0.071590	0.114199
O4	O	-1.218107	-0.044479	0.418259
O5	O	-1.233288	0.091992	0.114188
O6	O	-1.074764	0.104944	0.259477
O7	O	-1.376628	0.106151	0.272960
Zn8	Zn	-1.225696	0.131520	0.266217
Zn9	Zn	-1.225699	-0.084007	0.266230
O10	O	-1.218105	0.119103	0.418248
C11	C	-1.036125	0.022746	0.254927
C12	C	-0.920989	0.021533	0.241341
C13	C	-0.680738	0.036111	0.404669
C14	C	-0.572557	0.034972	0.391909
C15	C	-0.596444	0.018124	0.203062
C16	C	-0.704625	0.019262	0.215822
C17	C	-0.746768	0.028255	0.316629
C18	C	-0.854951	0.029387	0.329388
C19	C	-0.878836	0.012545	0.140542
C20	C	-0.770655	0.011406	0.127782
N21	N	-1.225702	-0.231098	0.266232
C22	C	-1.225697	-0.632390	0.266220
C23	C	-1.225695	-0.520739	0.266226
C24	C	-1.225699	-0.431748	0.266226
C25	C	-1.225698	-0.320089	0.266233
C26	C	-0.415270	0.024766	0.277521
C27	C	-0.530406	0.025977	0.291109
C28	C	-1.232437	0.006704	0.075005
C29	C	-1.229887	-0.003714	-0.041766
N30	N	-1.225701	0.278611	0.266207
C31	C	-1.225109	0.155064	-0.261216
C32	C	-1.222713	0.145280	-0.370932
C33	C	-1.222704	-0.033066	-0.370918
C34	C	-1.225101	-0.023282	-0.261201
C35	C	-1.226302	0.070787	-0.206354
C36	C	-1.228691	0.080570	-0.096635
C37	C	-1.228690	-0.097775	-0.096623
C38	C	-1.226293	-0.107559	-0.206340
C39	C	-1.218958	0.040806	0.457442
C40	C	-1.221509	0.051218	0.574213
H41	H	-0.889262	0.036711	0.411469
H42	H	-1.229654	0.157165	-0.051980
H43	H	-1.226060	0.231658	-0.216557
O44	O	-1.221419	0.236177	-0.430110
H45	H	-1.222649	0.303228	-0.373534
H46	H	-1.221738	-0.109652	-0.415594
H47	H	-1.225319	-0.184147	-0.251011
H48	H	-1.229649	-0.166400	-0.051943
O49	O	-0.726196	0.045804	0.513391
H50	H	-0.812514	0.045269	0.507473
O51	O	-0.725192	0.001706	0.019061
H52	H	-0.751678	0.064561	-0.023772
H53	H	-0.518799	0.041373	0.463601
O54	O	-0.550982	0.008440	0.094341
H55	H	-0.464664	0.008970	0.100265
O56	O	-0.950052	0.004076	0.045573
H57	H	-1.032358	0.006384	0.071377
