data_functionalizedCrystal
_audit_creation_method	'MofGen! by Chris Wilmer'
_symmetry_space_group_name_H-M	'P1'
_symmetry_Int_Tables_number	1
_symmetry_cell_setting	triclinic
loop_
_symmetry_equiv_pos_as_xyz
  x,y,z
_cell_length_a	20.299480
_cell_length_b	20.298645
_cell_length_c	20.294903
_cell_angle_alpha	60.007695
_cell_angle_beta	60.015306
_cell_angle_gamma	59.991039
loop_
_atom_site_label
_atom_site_type_symbol
_atom_site_fract_x
_atom_site_fract_y
_atom_site_fract_z
O1	O	0.091305	-0.962534	0.804873
O2	O	0.034397	-0.749399	0.648508
O3	O	0.169355	-0.884263	0.648401
O4	O	-0.043654	-0.827670	0.804979
O5	O	0.214132	-0.839502	0.693072
O6	O	0.079173	-0.704639	0.693178
O7	O	0.136081	-0.917774	0.849544
Zn8	Zn	0.114736	-0.804099	0.778453
Zn9	Zn	0.055742	-0.863073	0.719598
O10	O	0.001122	-0.782910	0.849650
N11	N	0.155000	-0.763857	0.818624
N12	N	0.015485	-0.903322	0.679427
C13	C	0.179343	-0.615641	0.842971
C14	C	0.179443	-0.739552	0.966834
C15	C	0.303264	-0.739536	0.842917
C16	C	0.179356	-0.739528	0.842952
C17	C	0.210353	-0.708565	0.873918
C18	C	-0.132622	-0.927446	0.654695
C19	C	-0.008595	-0.927622	0.530981
C20	C	-0.008820	-1.051459	0.654914
C21	C	-0.008800	-0.927618	0.654995
C22	C	-0.039709	-0.958538	0.623897
N23	N	0.376268	-0.763873	0.818558
O24	O	0.652281	-0.777347	0.619856
O25	O	0.652556	-0.934198	0.832777
O26	O	0.652445	-0.933836	0.697731
O27	O	0.652392	-0.777709	0.754902
O28	O	0.518259	-0.889182	0.742556
O29	O	0.518369	-0.889544	0.877602
O30	O	0.518095	-0.732693	0.664680
Zn31	Zn	0.496927	-0.804029	0.778258
Zn32	Zn	0.673724	-0.862862	0.719200
O33	O	0.518205	-0.733055	0.799726
N34	N	0.794383	-0.903019	0.678891
N35	N	0.154981	-0.542636	0.818657
O36	O	-0.043628	-0.266455	0.805024
O37	O	0.169291	-0.266451	0.648191
O38	O	0.034217	-0.266468	0.648577
O39	O	0.091446	-0.266438	0.804638
O40	O	0.078998	-0.400670	0.693303
O41	O	0.214071	-0.400653	0.692918
O42	O	0.001152	-0.400657	0.849750
Zn43	Zn	0.114722	-0.421963	0.778435
Zn44	Zn	0.055722	-0.245145	0.719506
O45	O	0.136226	-0.400640	0.849364
N46	N	0.015453	-0.124472	0.679286
N47	N	0.155155	-0.763898	1.039838
O48	O	0.141555	-0.962488	1.315987
O49	O	-0.015254	-0.749480	1.316022
O50	O	-0.014890	-0.884527	1.315962
O51	O	0.141192	-0.827441	1.316047
O52	O	0.029815	-0.839777	1.181768
O53	O	0.029452	-0.704730	1.181828
O54	O	0.186261	-0.917739	1.181793
Zn55	Zn	0.114954	-0.804130	1.160504
Zn56	Zn	0.056053	-0.863089	1.337311
O57	O	0.185897	-0.782692	1.181853
N58	N	0.015850	-0.903330	1.457977
C59	C	0.051451	-0.700162	0.649301
C60	C	0.218580	-0.867175	0.649169
C61	C	0.119026	-0.967011	0.848750
C62	C	-0.048103	-0.799998	0.848882
C63	C	0.585495	-0.933471	0.882014
C64	C	0.585361	-0.933023	0.714775
C65	C	0.585151	-0.733419	0.615444
C66	C	0.585291	-0.733869	0.782682
C67	C	0.218449	-0.333386	0.648902
C68	C	0.051232	-0.333573	0.649435
C69	C	-0.048061	-0.333556	0.848984
C70	C	0.119212	-0.333537	0.848507
C71	C	-0.014496	-0.700269	1.248929
C72	C	-0.014037	-0.867500	1.248828
C73	C	0.185503	-0.966949	1.248886
C74	C	0.185054	-0.799709	1.248957
H75	H	0.279759	-0.879241	0.599998
H76	H	-0.109209	-0.333558	0.898221
O77	O	0.585157	-0.674640	0.542493
C78	C	0.654543	-0.586375	0.424046
C79	C	0.654628	-0.652926	0.506654
H80	H	0.710713	-0.568812	0.395038
H81	H	0.598391	-0.531326	0.432531
H82	H	0.654483	-0.609764	0.383385
H83	H	0.654717	-0.629613	0.547358
H84	H	0.710774	-0.707963	0.498108
O85	O	0.133643	-1.040107	0.907240
C86	C	0.229403	-1.172935	0.944374
C87	C	0.212951	-1.090197	0.878058
H88	H	0.293528	-1.213450	0.920811
H89	H	0.184745	-1.202063	0.962015
H90	H	0.222128	-1.164521	0.999421
H91	H	0.220237	-1.098541	0.822969
H92	H	0.257607	-1.061097	0.860486
H93	H	0.234089	-0.787495	1.248972
H94	H	0.039295	-0.638935	0.600193
O95	O	0.585165	-0.675255	0.797210
C96	C	0.515552	-0.540921	0.804876
C97	C	0.515601	-0.607224	0.788387
H98	H	0.459307	-0.485910	0.797766
H99	H	0.571628	-0.523183	0.760165
H100	H	0.515662	-0.564616	0.868969
H101	H	0.515462	-0.583587	0.724317
H102	H	0.459530	-0.624953	0.833149
H103	H	0.131466	-0.333527	0.897533
O104	O	-0.121121	-0.785467	0.907468
C105	C	-0.254003	-0.689867	0.944756
C106	C	-0.171344	-0.706210	0.878342
H107	H	-0.294638	-0.625794	0.921226
H108	H	-0.245593	-0.697090	0.999783
H109	H	-0.282993	-0.734648	0.962411
H110	H	-0.142309	-0.661443	0.860618
H111	H	-0.179807	-0.699015	0.823358
H112	H	0.038975	-0.333574	0.600406
H113	H	0.279471	-0.333012	0.599542
O114	O	-0.073154	-0.627255	1.248975
C115	C	-0.110650	-0.494315	1.248969
C116	C	-0.044155	-0.576972	1.248936
H117	H	-0.087222	-0.453633	1.248920
H118	H	-0.165674	-0.502735	1.305133
H119	H	-0.128265	-0.465366	1.192813
H120	H	-0.026471	-0.605966	1.305054
H121	H	0.010826	-0.568500	1.192734
H122	H	-0.063051	-0.879692	1.248749
O123	O	0.244213	-1.039925	1.248765
C124	C	0.329553	-1.137082	1.179180
C125	C	0.263048	-1.054432	1.179228
H126	H	0.344813	-1.148829	1.122957
H127	H	0.307390	-1.186390	1.235285
H128	H	0.385735	-1.137187	1.179240
H129	H	0.206842	-1.054248	1.179140
H130	H	0.285277	-1.005160	1.123128
O131	O	0.585620	-0.992143	0.954999
C132	C	0.585690	-1.029644	1.087922
C133	C	0.585568	-0.963134	1.005298
H134	H	0.585630	-1.006209	1.128618
H135	H	0.641890	-1.084660	1.079456
H136	H	0.529576	-1.047286	1.116878
H137	H	0.641643	-0.945423	0.976297
H138	H	0.529330	-0.908161	1.013817
O139	O	0.585348	-0.991437	0.700063
C140	C	0.585339	-1.028360	0.604185
C141	C	0.585335	-0.962129	0.620745
H142	H	0.585346	-1.004695	0.540053
H143	H	0.529212	-1.046029	0.648828
H144	H	0.641525	-1.083417	0.611405
H145	H	0.529187	-0.907029	0.613515
H146	H	0.641500	-0.944529	0.576106
