data_functionalizedCrystal
_audit_creation_method	'MofGen! by Chris Wilmer'
_symmetry_space_group_name_H-M	'P1'
_symmetry_Int_Tables_number	1
_symmetry_cell_setting	triclinic
loop_
_symmetry_equiv_pos_as_xyz
  x,y,z
_cell_length_a	19.288867
_cell_length_b	16.053789
_cell_length_c	19.288865
_cell_angle_alpha	87.098675
_cell_angle_beta	96.863342
_cell_angle_gamma	92.894766
loop_
_atom_site_label
_atom_site_type_symbol
_atom_site_fract_x
_atom_site_fract_y
_atom_site_fract_z
O1	O	0.923951	0.069410	-0.089257
O2	O	1.423951	0.569410	0.410743
O3	O	0.721691	0.069420	-0.100945
O4	O	1.221691	0.569420	0.399055
O5	O	0.828664	0.069398	0.006030
O6	O	1.328664	0.569398	0.506030
O7	O	0.816977	0.069432	-0.196232
O8	O	1.316977	0.569432	0.303768
O9	O	0.823447	-0.069462	0.011240
O10	O	1.323447	0.430538	0.511240
O11	O	0.716473	-0.069440	-0.095734
O12	O	1.216473	0.430560	0.404266
O13	O	0.918733	-0.069450	-0.084047
O14	O	1.418733	0.430550	0.415953
Zn15	Zn	0.816775	-0.091492	-0.089063
Zn16	Zn	1.316775	0.408508	0.410937
Zn17	Zn	0.823649	0.091462	-0.095928
Zn18	Zn	1.323649	0.591462	0.404072
O19	O	0.811760	-0.069428	-0.191021
O20	O	1.311760	0.430572	0.308979
C21	C	0.693206	-0.000009	-0.097963
C22	C	1.193206	0.499991	0.402037
C23	C	0.616102	-0.000007	-0.096834
C24	C	1.116102	0.499993	0.403166
C25	C	0.063380	0.075675	-0.091537
C26	C	0.563380	0.575675	0.408463
C27	C	0.135828	0.075678	-0.092595
C28	C	0.635828	0.575678	0.407405
C29	C	0.169213	-0.000014	-0.090286
C30	C	0.669213	0.499986	0.409714
C31	C	0.130146	-0.075715	-0.086902
C32	C	0.630146	0.424285	0.413098
C33	C	0.057700	-0.075716	-0.085838
C34	C	0.557700	0.424284	0.414162
C35	C	0.276361	-0.057997	-0.130478
C36	C	0.776361	0.442003	0.369522
C37	C	0.348805	-0.057993	-0.131547
C38	C	0.848805	0.442007	0.368453
C39	C	0.392658	-0.000014	-0.093565
C40	C	0.892658	0.499986	0.406435
C41	C	0.364059	0.057975	-0.054525
C42	C	0.864059	0.557975	0.445475
C43	C	0.291613	0.057974	-0.053461
C44	C	0.791613	0.557974	0.446539
C45	C	0.247767	-0.000021	-0.091440
C46	C	0.747767	0.499979	0.408560
C47	C	0.510273	0.075686	-0.098091
C48	C	1.010273	0.575686	0.401909
C49	C	0.582722	0.075686	-0.099144
C50	C	1.082722	0.575686	0.400856
C51	C	0.577038	-0.075709	-0.093458
C52	C	1.077038	0.424291	0.406542
C53	C	0.504591	-0.075707	-0.092398
C54	C	1.004591	0.424293	0.407602
C55	C	0.471212	-0.000007	-0.094718
C56	C	0.971212	0.499993	0.405282
N57	N	0.812089	-0.216353	-0.084377
N58	N	1.312089	0.283647	0.415623
C59	C	0.852442	-0.260039	-0.124761
C60	C	1.352442	0.239961	0.375239
C61	C	0.849173	-0.347446	-0.121478
C62	C	1.349173	0.152554	0.378522
C63	C	0.805547	-0.391167	-0.077816
C64	C	1.305547	0.108833	0.422184
C65	C	0.765192	-0.347475	-0.037428
C66	C	1.265192	0.152525	0.462572
C67	C	0.768465	-0.260069	-0.040707
C68	C	1.268465	0.239931	0.459293
C69	C	0.791259	-0.652579	-0.063500
C70	C	1.291259	-0.152579	0.436500
C71	C	0.787987	-0.739991	-0.060225
C72	C	1.287987	-0.239991	0.439775
C73	C	0.871970	-0.739956	-0.144275
C74	C	1.371970	-0.239956	0.355725
C75	C	0.875236	-0.652549	-0.147553
C76	C	1.375236	-0.152549	0.352447
C77	C	0.834884	-0.608865	-0.107163
C78	C	1.334884	-0.108865	0.392837
N79	N	0.802203	-0.480511	-0.074462
N80	N	1.302203	0.019489	0.425538
N81	N	0.838232	-0.519522	-0.110514
N82	N	1.338232	-0.019522	0.389486
C83	C	0.947218	-0.000019	-0.087028
C84	C	1.447218	0.499981	0.412972
C85	C	1.024322	-0.000016	-0.088158
C86	C	1.524322	0.499984	0.411842
C87	C	0.825679	-0.000034	0.034512
C88	C	1.325679	0.499966	0.534512
C89	C	0.824550	-0.000042	0.111616
C90	C	1.324550	0.499958	0.611616
N91	N	0.828341	0.216323	-0.100608
N92	N	1.328341	0.716323	0.399392
C93	C	0.814744	0.000006	-0.219503
C94	C	1.314744	0.500006	0.280497
C95	C	0.815874	0.000019	-0.296607
C96	C	1.315874	0.500019	0.203393
C97	C	0.887318	-0.000049	0.156312
C98	C	1.387318	0.499951	0.656312
C99	C	0.886258	-0.000035	0.228758
C100	C	1.386258	0.499965	0.728758
C101	C	0.822426	-0.000032	0.256506
C102	C	1.322426	0.499968	0.756506
C103	C	0.759650	-0.000020	0.211800
C104	C	1.259650	0.499980	0.711800
C105	C	0.760712	-0.000025	0.139355
C106	C	1.260712	0.499975	0.639355
C107	C	0.770419	-0.048669	0.366619
C108	C	1.270419	0.451331	0.866619
C109	C	0.769359	-0.048670	0.439063
C110	C	1.269359	0.451330	0.939063
C111	C	0.819147	-0.000013	0.479951
C112	C	1.319147	0.499987	0.979951
C113	C	0.870006	0.048633	0.448387
C114	C	1.370006	0.548633	0.948387
C115	C	0.871068	0.048628	0.375942
C116	C	1.371068	0.548628	0.875942
C117	C	0.821267	-0.000026	0.335060
C118	C	1.321267	0.499974	0.835060
C119	C	0.880769	-0.000004	0.603203
C120	C	1.380769	0.499996	1.103203
C121	C	0.879706	0.000014	0.675650
C122	C	1.379706	0.500014	1.175650
C123	C	0.753097	0.000021	0.658690
C124	C	1.253097	0.500021	1.158690
C125	C	0.754161	0.000011	0.586244
C126	C	1.254161	0.500011	1.086244
C127	C	0.817999	-0.000006	0.558505
C128	C	1.317999	0.499994	1.058505
H129	H	0.472788	-0.137343	-0.089649
H130	H	0.972788	0.362657	0.410351
N131	N	0.923714	0.101113	0.492477
N132	N	1.423714	0.601113	0.992477
H133	H	0.899332	0.142725	0.517548
H134	H	1.399332	0.642725	1.017548
H135	H	0.956075	0.131869	0.461444
H136	H	1.456075	0.631869	0.961444
H137	H	0.483095	0.137326	-0.099977
H138	H	0.983095	0.637326	0.400023
H139	H	0.910763	-0.616957	-0.183105
H140	H	1.410763	-0.116957	0.316895
N141	N	0.686457	0.000004	0.538037
N142	N	1.186457	0.500004	1.038037
H143	H	0.682143	-0.051474	0.509542
H144	H	1.182143	0.448526	1.009542
H145	H	0.686049	0.051511	0.505705
H146	H	1.186049	0.551511	1.005705
N147	N	0.915499	-0.787064	-0.187834
N148	N	1.415499	-0.287064	0.312166
H149	H	0.883798	-0.823328	-0.220551
H150	H	1.383798	-0.323328	0.279449
H151	H	0.948231	-0.823279	-0.156099
H152	H	1.448231	-0.323279	0.343901
H153	H	0.752458	-0.775586	-0.024670
H154	H	1.252458	-0.275586	0.475330
N155	N	0.949620	-0.000021	0.573279
N156	N	1.449620	0.499979	1.073279
H157	H	0.940768	-0.000034	0.520603
H158	H	1.440768	0.499966	1.020603
H159	H	0.975135	-0.051502	0.591592
H160	H	1.475135	0.448498	1.091592
N161	N	0.379649	-0.120528	-0.173658
N162	N	0.879649	0.379472	0.326342
H163	H	0.340877	-0.157264	-0.197552
H164	H	0.840877	0.342736	0.302448
H165	H	0.412553	-0.156141	-0.141556
H166	H	0.912553	0.343859	0.358444
H167	H	0.729873	-0.088296	0.333334
H168	H	1.229873	0.411704	0.833334
H169	H	0.157332	-0.137344	-0.085022
H170	H	0.657332	0.362656	0.414978
H171	H	0.930822	0.000013	0.712041
H172	H	1.430822	0.500013	1.212041
H173	H	0.758401	-0.617023	-0.030611
H174	H	1.258401	-0.117023	0.469389
N175	N	0.718142	-0.394626	0.009671
N176	N	1.218142	0.105374	0.509671
H177	H	0.722190	-0.456627	0.005620
H178	H	1.222190	0.043373	0.505620
H179	H	0.668156	-0.379352	-0.004752
H180	H	1.168156	0.120648	0.495248
H181	H	0.887963	-0.224448	-0.160319
H182	H	1.387963	0.275552	0.339681
N183	N	0.693008	-0.000037	0.091144
N184	N	1.193008	0.499963	0.591144
H185	H	0.703367	-0.000047	0.041041
H186	H	1.203367	0.499953	0.541041
H187	H	0.667109	0.051441	0.098159
H188	H	1.167109	0.551441	0.598159
N189	N	0.724945	-0.212947	0.002852
N190	N	1.224945	0.287053	0.502852
H191	H	0.696810	-0.253905	0.031009
H192	H	1.196810	0.246095	0.531009
H193	H	0.692252	-0.176678	-0.028878
H194	H	1.192252	0.323322	0.471122
N195	N	0.714502	-0.101128	0.473101
N196	N	1.214502	0.398872	0.973101
H197	H	0.721384	-0.093746	0.525199
H198	H	1.221384	0.406254	1.025199
H199	H	0.718893	-0.161812	0.463593
H200	H	1.218893	0.338188	0.963593
H201	H	0.939300	-0.000059	0.133731
H202	H	1.439300	0.499941	0.633731
H203	H	0.937372	-0.000038	0.265157
H204	H	1.437372	0.499962	0.765157
H205	H	0.912478	0.088239	0.350246
H206	H	1.412478	0.588239	0.850246
N207	N	0.684248	0.000034	0.688607
N208	N	1.184248	0.500034	1.188607
H209	H	0.693098	0.000039	0.741284
H210	H	1.193098	0.500039	1.241284
H211	H	0.654854	-0.051442	0.674183
H212	H	1.154854	0.448558	1.174183
N213	N	0.624855	0.157329	-0.102777
N214	N	1.124855	0.657329	0.397223
H215	H	0.592714	0.205280	-0.104085
H216	H	1.092714	0.705280	0.395915
H217	H	0.649276	0.160632	-0.146389
H218	H	1.149276	0.660632	0.353611
H219	H	0.707678	-0.000016	0.234397
H220	H	1.207678	0.499984	0.734397
H221	H	0.036209	0.137316	-0.093423
H222	H	0.536209	0.637316	0.406577
H223	H	0.167635	0.137317	-0.095351
H224	H	0.667635	0.637317	0.404649
N225	N	0.613036	-0.157351	-0.090960
N226	N	1.113036	0.342649	0.409040
H227	H	0.664857	-0.145867	-0.092145
H228	H	1.164857	0.354133	0.407855
H229	H	0.593367	-0.190403	-0.132582
H230	H	1.093367	0.309597	0.367418
H231	H	0.268331	0.105189	-0.021671
H232	H	0.768331	0.605189	0.478329
H233	H	0.399763	0.105190	-0.023599
H234	H	0.899763	0.605190	0.476401
H235	H	0.240661	-0.105220	-0.161404
H236	H	0.740661	0.394780	0.338596
H237	H	0.025899	-0.137355	-0.083089
H238	H	0.525899	0.362645	0.416911
N239	N	0.892731	-0.394565	-0.165000
N240	N	1.392731	0.105435	0.335000
H241	H	0.920873	-0.353605	-0.193149
H242	H	1.420873	0.146395	0.306851
H243	H	0.861012	-0.430852	-0.197679
H244	H	1.361012	0.069148	0.302321
