data_functionalizedCrystal
_audit_creation_method	'MofGen! by Chris Wilmer'
_symmetry_space_group_name_H-M	'P1'
_symmetry_Int_Tables_number	1
_symmetry_cell_setting	triclinic
loop_
_symmetry_equiv_pos_as_xyz
  x,y,z
_cell_length_a	14.044220
_cell_length_b	10.654541
_cell_length_c	9.730217
_cell_angle_alpha	89.997980
_cell_angle_beta	89.992062
_cell_angle_gamma	88.836403
loop_
_atom_site_label
_atom_site_type_symbol
_atom_site_fract_x
_atom_site_fract_y
_atom_site_fract_z
O1	O	0.133224	1.681229	-0.114252
O2	O	0.145920	1.317026	-0.114264
O3	O	0.001551	1.493661	-0.114245
O4	O	0.277592	1.504594	-0.114271
O5	O	0.001540	1.493648	0.114335
O6	O	0.145909	1.317013	0.114316
O7	O	0.133213	1.681216	0.114328
Zn8	Zn	0.139559	1.499113	0.150614
Zn9	Zn	0.139574	1.499130	-0.150550
O10	O	0.277581	1.504581	0.114309
C11	C	0.144983	1.270128	0.000024
C12	C	0.142195	1.130404	0.000020
C13	C	-0.033800	1.488869	0.000046
C14	C	-0.139120	1.474593	0.000047
C15	C	0.314827	1.119781	-0.000014
C16	C	0.399829	1.048829	-0.000036
C17	C	0.397204	0.917547	-0.000037
C18	C	0.309567	0.857215	-0.000012
C19	C	0.224565	0.928167	0.000011
C20	C	0.227199	1.059452	0.000008
C21	C	0.051935	0.938790	0.000054
C22	C	0.054558	1.070072	0.000046
C23	C	-0.035701	0.878458	0.000080
C24	C	-0.120706	0.949411	0.000092
C25	C	-0.118077	1.080701	0.000092
C26	C	-0.030444	1.141025	0.000068
C27	C	-0.331952	1.448494	0.000026
C28	C	-0.388921	1.549742	0.000026
C29	C	-0.496219	1.535221	0.000014
C30	C	-0.224644	1.463014	0.000038
C31	C	0.312933	1.509374	0.000015
C32	C	0.418252	1.523649	0.000005
C33	C	0.134150	1.728114	0.000037
C34	C	0.136938	1.867838	0.000032
N35	N	0.139576	1.499141	-0.356087
C36	C	0.023182	1.334067	-0.643772
C37	C	-0.034999	1.251558	-0.571793
C38	C	-0.034991	1.251575	-0.427914
C39	C	0.023206	1.334107	-0.356009
C40	C	0.081387	1.416616	-0.427988
C41	C	0.081371	1.416593	-0.571871
C42	C	0.197758	1.581650	-0.428065
C43	C	0.197746	1.581642	-0.571945
C44	C	0.255955	1.664182	-0.356161
C45	C	0.314133	1.746699	-0.428139
C46	C	0.314122	1.746681	-0.572028
C47	C	0.255927	1.664151	-0.643924
N48	N	0.139549	1.499110	0.356151
H49	H	0.316973	1.226677	-0.000043
Br50	Br	0.255977	1.664194	-0.160894
Br51	Br	0.512564	0.821249	-0.000049
Br52	Br	-0.239628	0.867527	0.000144
Br53	Br	-0.335904	1.712397	0.000043
Br54	Br	-0.384971	1.285850	0.000009
Br55	Br	-0.039266	0.700289	0.000090
Br56	Br	0.023152	1.334058	-0.839039
Br57	Br	0.518759	1.130712	-0.000067
Br58	Br	-0.113944	1.139589	-0.330222
Br59	Br	0.306006	0.679045	0.000017
Br60	Br	-0.113971	1.139547	-0.669382
Br61	Br	0.023235	1.334104	-0.160742
H62	H	0.361517	1.813884	-0.369583
Br63	Br	0.393093	1.858657	-0.669701
Br64	Br	0.255902	1.664126	-0.839190
Br65	Br	-0.026870	1.319193	0.000055
Br66	Br	-0.233444	1.176983	0.000139
