data_functionalizedCrystal
_audit_creation_method	'MofGen! by Chris Wilmer'
_symmetry_space_group_name_H-M	'P1'
_symmetry_Int_Tables_number	1
_symmetry_cell_setting	triclinic
loop_
_symmetry_equiv_pos_as_xyz
  x,y,z
_cell_length_a	19.188930
_cell_length_b	16.109301
_cell_length_c	14.586319
_cell_angle_alpha	89.999213
_cell_angle_beta	90.008905
_cell_angle_gamma	96.696869
loop_
_atom_site_label
_atom_site_type_symbol
_atom_site_fract_x
_atom_site_fract_y
_atom_site_fract_z
O1	O	0.089744	-1.102833	0.076193
O2	O	0.589744	-0.602833	0.576193
O3	O	0.100912	-0.860734	0.076209
O4	O	0.600912	-0.360734	0.576209
O5	O	-0.006311	-0.988770	0.076182
O6	O	0.493689	-0.488770	0.576182
O7	O	0.196968	-0.974797	0.076219
O8	O	0.696968	-0.474797	0.576219
O9	O	-0.006313	-0.988762	-0.076298
O10	O	0.493687	-0.488762	0.423702
O11	O	0.100911	-0.860726	-0.076272
O12	O	0.600911	-0.360726	0.423728
O13	O	0.089742	-1.102825	-0.076288
O14	O	0.589742	-0.602825	0.423712
Cu15	Cu	0.095326	-0.981774	-0.090203
Cu16	Cu	0.595326	-0.481774	0.409797
Cu17	Cu	0.095328	-0.981785	0.090124
Cu18	Cu	0.595328	-0.481785	0.590124
O19	O	0.196966	-0.974789	-0.076262
O20	O	0.696966	-0.474789	0.423738
C21	C	0.100459	-0.829757	-0.000030
C22	C	0.600459	-0.329757	0.499970
C23	C	0.099103	-0.737466	-0.000025
C24	C	0.599103	-0.237466	0.499975
C25	C	-0.032324	-0.988313	-0.000061
C26	C	0.467676	-0.488313	0.499939
C27	C	-0.109832	-0.986955	-0.000068
C28	C	0.390168	-0.486955	0.499932
N29	N	0.095325	-0.981773	-0.217034
N30	N	0.595325	-0.481773	0.282966
C31	C	-0.154580	-1.062082	-0.000078
C32	C	0.345420	-0.562082	0.499922
C33	C	-0.227407	-1.060806	-0.000063
C34	C	0.272593	-0.560806	0.499937
C35	C	-0.255482	-0.984399	-0.000057
C36	C	0.244518	-0.484399	0.499943
C37	C	-0.210724	-0.909261	-0.000043
C38	C	0.289276	-0.409261	0.499957
C39	C	-0.137899	-0.910540	-0.000048
C40	C	0.362101	-0.410540	0.499952
N41	N	-0.363624	-0.925991	-0.051945
N42	N	0.136376	-0.425991	0.448055
N43	N	-0.432805	-0.924782	-0.051942
N44	N	0.067195	-0.424782	0.448058
C45	C	-0.474900	-0.980543	-0.000038
C46	C	0.025100	-0.480543	0.499962
N47	N	-0.445200	-1.037571	0.051850
N48	N	0.054800	-0.537571	0.551850
N49	N	-0.376013	-1.038783	0.051843
N50	N	0.123987	-0.538783	0.551843
C51	C	-0.334448	-0.983004	-0.000051
C52	C	0.165552	-0.483004	0.499949
C53	C	-0.598616	-1.054292	-0.000030
C54	C	-0.098616	-0.554292	0.499970
C55	C	-0.671443	-1.053012	-0.000010
C56	C	-0.171443	-0.553012	0.499990
C57	C	-0.654759	-0.901465	0.000001
C58	C	-0.154759	-0.401465	0.500001
C59	C	-0.581933	-0.902747	-0.000010
C60	C	-0.081933	-0.402747	0.499990
C61	C	-0.553866	-0.979162	-0.000030
C62	C	-0.053866	-0.479162	0.499970
C63	C	0.222979	-0.975246	-0.000017
C64	C	0.722979	-0.475246	0.499983
C65	C	0.300486	-0.976604	-0.000003
C66	C	0.800486	-0.476604	0.499997
C67	C	0.090196	-1.133802	-0.000047
C68	C	0.590196	-0.633802	0.499953
C69	C	0.091552	-1.226093	-0.000046
C70	C	0.591552	-0.726093	0.499954
C71	C	0.159573	-0.514993	-0.000024
C72	C	0.659573	-0.014993	0.499976
C73	C	0.158294	-0.428277	-0.000030
C74	C	0.658294	0.071723	0.499970
C75	C	0.031076	-0.448573	-0.000050
C76	C	0.531076	0.051427	0.499950
C77	C	0.032357	-0.535287	-0.000050
C78	C	0.532357	-0.035287	0.499950
C79	C	0.096608	-0.568495	-0.000033
C80	C	0.596608	-0.068495	0.499967
C81	C	0.094047	-0.395064	-0.000038
C82	C	0.594047	0.104936	0.499962
C83	C	0.092659	-0.301043	-0.000045
C84	C	0.592659	0.198957	0.499955
C85	C	0.097996	-0.662522	-0.000028
C86	C	0.597996	-0.162522	0.499972
C87	C	0.047862	-1.038486	-0.452052
C88	C	0.547862	-0.538486	0.047948
C89	C	0.047860	-1.038488	-0.548034
C90	C	0.547860	-0.538488	-0.048034
C91	C	0.142790	-0.925074	-0.548020
C92	C	0.642790	-0.425074	-0.048020
C93	C	0.142787	-0.925068	-0.452040
C94	C	0.642787	-0.425068	0.047960
C95	C	0.095324	-0.981779	-0.404059
C96	C	0.595324	-0.481779	0.095941
C97	C	0.095325	-0.981787	-0.596020
C98	C	0.595325	-0.481787	-0.096020
C99	C	0.095323	-0.981789	-0.700087
C100	C	0.595323	-0.481789	-0.200087
C101	C	0.095325	-0.981776	-0.299985
C102	C	0.595325	-0.481776	0.200015
N103	N	0.095325	-0.981793	0.216955
N104	N	0.595325	-0.481793	0.716955
H105	H	-0.131733	-1.124306	-0.000091
H106	H	0.368267	-0.624306	0.499909
H107	H	0.009211	-1.084663	-0.587107
H108	H	0.509211	-0.584663	-0.087107
N109	N	0.228872	-0.550805	-0.000008
N110	N	0.728872	-0.050805	0.499992
H111	H	0.256454	-0.531277	-0.056529
H112	H	0.756454	-0.031277	0.443471
H113	H	0.220075	-0.613851	0.000029
H114	H	0.720075	-0.113851	0.500029
H115	H	-0.545497	-0.841570	-0.000008
H116	H	-0.045497	-0.341570	0.499992
H117	H	-0.263848	-1.121986	-0.000067
H118	H	0.236152	-0.621986	0.499933
N119	N	-0.719713	-1.134045	-0.000026
N120	N	-0.219713	-0.634045	0.499974
H121	H	-0.750290	-1.136904	0.056502
H122	H	-0.250290	-0.636904	0.556502
H123	H	-0.690831	-1.182598	-0.000078
H124	H	-0.190831	-0.682598	0.499922
N125	N	-0.003339	-1.099628	-0.400289
N126	N	0.496661	-0.599628	0.099711
H127	H	0.023343	-1.136341	-0.360452
H128	H	0.523343	-0.636341	0.139548
H129	H	-0.033401	-1.135495	-0.445311
H130	H	0.466599	-0.635495	0.054689
H131	H	-0.018920	-0.578851	-0.000059
H132	H	0.481080	-0.078851	0.499941
H133	H	0.181437	-0.878886	-0.412962
H134	H	0.681437	-0.378886	0.087038
N135	N	0.226218	-0.370592	-0.000027
N136	N	0.726218	0.129408	0.499973
H137	H	0.228539	-0.334155	0.056493
H138	H	0.728539	0.165845	0.556493
H139	H	0.228488	-0.334222	-0.056594
H140	H	0.728488	0.165778	0.443406
H141	H	-0.233587	-0.847050	-0.000036
H142	H	0.266413	-0.347050	0.499964
N143	N	-0.685029	-0.819052	0.000017
N144	N	-0.185029	-0.319052	0.500017
H145	H	-0.737954	-0.829640	0.000023
H146	H	-0.237954	-0.329640	0.500023
H147	H	-0.668667	-0.786182	-0.056507
H148	H	-0.168667	-0.286182	0.443493
N149	N	-0.089624	-0.829511	-0.000045
N150	N	0.410376	-0.329511	0.499955
H151	H	-0.098637	-0.796164	0.056484
H152	H	0.401363	-0.296164	0.556484
H153	H	-0.098682	-0.796224	-0.056603
H154	H	0.401318	-0.296224	0.443397
N155	N	0.193989	-0.863917	-0.599767
N156	N	0.693989	-0.363917	-0.099767
H157	H	0.185934	-0.804941	-0.583073
H158	H	0.685934	-0.304941	-0.083073
H159	H	0.186768	-0.872597	-0.667837
H160	H	0.686768	-0.372597	-0.167837
H161	H	-0.021234	-0.421524	-0.000069
H162	H	0.478766	0.078476	0.499931
N163	N	-0.568339	-1.136707	-0.000048
N164	N	-0.068339	-0.636707	0.499952
H165	H	-0.538512	-1.140609	-0.056582
H166	H	-0.038512	-0.640609	0.443418
H167	H	-0.607782	-1.184057	-0.000013
H168	H	-0.107782	-0.684057	0.499987
