data_functionalizedCrystal
_audit_creation_method	'MofGen! by Chris Wilmer'
_symmetry_space_group_name_H-M	'P1'
_symmetry_Int_Tables_number	1
_symmetry_cell_setting	triclinic
loop_
_symmetry_equiv_pos_as_xyz
  x,y,z
_cell_length_a	19.188933
_cell_length_b	19.188930
_cell_length_c	13.101039
_cell_angle_alpha	93.345801
_cell_angle_beta	86.655175
_cell_angle_gamma	83.145175
loop_
_atom_site_label
_atom_site_type_symbol
_atom_site_fract_x
_atom_site_fract_y
_atom_site_fract_z
O1	O	0.929996	0.083310	-0.085191
O2	O	1.263329	0.416643	0.248142
O3	O	1.596662	0.749976	0.581475
O4	O	0.726685	0.095042	-0.085202
O5	O	1.060018	0.428375	0.248131
O6	O	1.393352	0.761709	0.581464
O7	O	0.834206	-0.012479	-0.085176
O8	O	1.167540	0.320855	0.248157
O9	O	1.500873	0.654188	0.581490
O10	O	0.822474	0.190831	-0.085217
O11	O	1.155807	0.524164	0.248116
O12	O	1.489141	0.857497	0.581450
O13	O	0.826492	-0.004751	0.085252
O14	O	1.159825	0.328582	0.418585
O15	O	1.493159	0.661915	0.751918
O16	O	0.718970	0.102769	0.085226
O17	O	1.052304	0.436103	0.418559
O18	O	1.385637	0.769436	0.751892
O19	O	0.922281	0.091037	0.085237
O20	O	1.255614	0.424370	0.418570
O21	O	1.588948	0.757704	0.751903
Zn22	Zn	0.819401	0.098130	0.112290
Zn23	Zn	1.152734	0.431463	0.445624
Zn24	Zn	1.486067	0.764797	0.778957
Zn25	Zn	0.829565	0.087949	-0.112256
Zn26	Zn	1.162898	0.421282	0.221077
Zn27	Zn	1.496232	0.754616	0.554411
O28	O	0.814759	0.198558	0.085211
O29	O	1.148093	0.531891	0.418544
O30	O	1.481426	0.865225	0.751878
C31	C	0.696817	0.098526	0.000011
C32	C	1.030150	0.431859	0.333344
C33	C	1.363483	0.765192	0.666677
C34	C	0.619312	0.097384	0.000007
C35	C	0.952646	0.430717	0.333341
C36	C	1.285979	0.764051	0.666674
C37	C	0.070262	0.085027	-0.092880
C38	C	0.403595	0.418361	0.240453
C39	C	0.736928	0.751694	0.573786
C40	C	0.143086	0.086095	-0.092885
C41	C	0.476419	0.419429	0.240449
C42	C	0.809753	0.752762	0.573782
C43	C	0.175298	0.090845	0.000015
C44	C	0.508631	0.424178	0.333349
C45	C	0.841965	0.757511	0.666682
C46	C	0.134681	0.094508	0.092926
C47	C	0.468015	0.427842	0.426260
C48	C	0.801348	0.761175	0.759593
C49	C	0.061859	0.093433	0.092928
C50	C	0.395193	0.426767	0.426261
C51	C	0.728526	0.760100	0.759594
N52	N	0.281188	0.135398	0.069157
N53	N	0.614521	0.468731	0.402490
N54	N	0.947855	0.802065	0.735823
N55	N	0.350366	0.136421	0.069149
N56	N	0.683699	0.469754	0.402482
N57	N	1.017033	0.803087	0.735816
C58	C	0.394707	0.094083	0.000016
C59	C	0.728040	0.427416	0.333350
C60	C	1.061373	0.760749	0.666683
N61	N	0.367255	0.050692	-0.069124
N62	N	0.700588	0.384025	0.264209
N63	N	1.033922	0.717358	0.597543
N64	N	0.298071	0.049672	-0.069119
N65	N	0.631404	0.383005	0.264214
N66	N	0.964737	0.716339	0.597548
C67	C	0.254261	0.092011	0.000024
C68	C	0.587594	0.425344	0.333357
C69	C	0.920927	0.758677	0.666691
C70	C	0.514279	0.091572	-0.092893
C71	C	0.847613	0.424905	0.240440
C72	C	1.180946	0.758239	0.573773
C73	C	0.587106	0.092636	-0.092894
C74	C	0.920439	0.425969	0.240440
C75	C	1.253772	0.759303	0.573773
C76	C	0.578698	0.101056	0.092920
C77	C	0.912032	0.434390	0.426253
C78	C	1.245365	0.767723	0.759587
C79	C	0.505875	0.099985	0.092918
C80	C	0.839208	0.433319	0.426251
C81	C	1.172541	0.766652	0.759584
C82	C	0.473669	0.095246	0.000008
C83	C	0.807002	0.428580	0.333341
C84	C	1.140336	0.761913	0.666675
C85	C	0.829969	-0.034626	0.000040
C86	C	1.163302	0.298707	0.333374
C87	C	1.496636	0.632041	0.666707
C88	C	0.828828	-0.112130	0.000049
C89	C	1.162161	0.221203	0.333383
C90	C	1.495495	0.554537	0.666716
C91	C	0.891918	-0.157053	0.000058
C92	C	1.225252	0.176280	0.333391
C93	C	1.558585	0.509613	0.666724
C94	C	0.890847	-0.229878	0.000041
C95	C	1.224181	0.103456	0.333374
C96	C	1.557514	0.436789	0.666708
C97	C	0.826682	-0.257775	0.000037
C98	C	1.160015	0.075558	0.333370
C99	C	1.493348	0.408892	0.666704
C100	C	0.763583	-0.212842	0.000023
C101	C	1.096916	0.120491	0.333356
C102	C	1.430250	0.453824	0.666689
C103	C	0.764656	-0.140020	0.000029
C104	C	1.097990	0.193314	0.333362
C105	C	1.431323	0.526647	0.666696
N106	N	0.775009	-0.363151	0.058034
N107	N	1.108342	-0.029817	0.391367
N108	N	1.441676	0.303516	0.724701
N109	N	0.773994	-0.432330	0.058030
N110	N	1.107327	-0.098996	0.391364
N111	N	1.440660	0.234337	0.724697
C112	C	0.823444	-0.477185	0.000016
C113	C	1.156778	-0.143851	0.333349
C114	C	1.490111	0.189482	0.666683
N115	N	0.873959	-0.450248	-0.057982
N116	N	1.207292	-0.116915	0.275352
N117	N	1.540625	0.216418	0.608685
N118	N	0.874976	-0.381063	-0.057974
N119	N	1.208309	-0.047730	0.275360
N120	N	1.541643	0.285603	0.608693
C121	C	0.825511	-0.336738	0.000029
C122	C	1.158844	-0.003405	0.333363
C123	C	1.492177	0.329929	0.666696
C124	C	0.885378	-0.601073	0.000005
C125	C	1.218711	-0.267740	0.333338
C126	C	1.552045	0.065594	0.666672
C127	C	0.884305	-0.673899	-0.000018
C128	C	1.217638	-0.340566	0.333315
C129	C	1.550971	-0.007232	0.666649
C130	C	0.757038	-0.656861	-0.000026
C131	C	1.090371	-0.323528	0.333307
C132	C	1.423705	0.009805	0.666641
C133	C	0.758114	-0.584038	-0.000013
C134	C	1.091447	-0.250704	0.333320
C135	C	1.424780	0.082629	0.666653
C136	C	0.822285	-0.556148	0.000007
C137	C	1.155619	-0.222815	0.333340
C138	C	1.488952	0.110519	0.666674
C139	C	0.952149	0.087554	0.000022
C140	C	1.285483	0.420887	0.333355
C141	C	1.618816	0.754220	0.666688
C142	C	1.029654	0.088695	0.000018
C143	C	1.362987	0.422028	0.333352
C144	C	1.696321	0.755361	0.666685
C145	C	0.818997	0.220705	-0.000008
C146	C	1.152330	0.554038	0.333325
C147	C	1.485664	0.887372	0.666658
C148	C	0.820138	0.298209	-0.000024
C149	C	1.153472	0.631542	0.333310
C150	C	1.486805	0.964876	0.666643
N151	N	0.812469	0.105078	0.265537
N152	N	1.145802	0.438411	0.598870
N153	N	1.479136	0.771744	0.932204
N154	N	0.836502	0.080996	-0.265503
N155	N	1.169836	0.414329	0.067831
N156	N	1.503169	0.747662	0.401164
C157	C	0.803038	0.114537	0.474577
C158	C	1.136371	0.447870	0.807911
C159	C	1.469705	0.781204	1.141244
C160	C	0.845931	0.071539	0.525463
C161	C	1.179264	0.404872	0.858797
C162	C	1.512598	0.738206	1.192130
C163	C	0.840684	0.076802	0.641781
C164	C	1.174017	0.410135	0.975114
C165	C	1.507350	0.743469	1.308447
C166	C	0.808285	0.109275	0.358250
C167	C	1.141618	0.442608	0.691583
C168	C	1.474951	0.775941	1.024916
H169	H	0.160913	0.098374	0.168566
H170	H	0.494246	0.431708	0.501899
H171	H	0.827580	0.765041	0.835233
H172	H	0.044045	0.081166	-0.168535
H173	H	0.377379	0.414499	0.164799
H174	H	0.710712	0.747833	0.498132
N175	N	0.899804	0.017547	0.467471
N176	N	1.233137	0.350880	0.800804
N177	N	1.566471	0.684213	1.134137
H178	H	0.891010	-0.031138	0.486083
H179	H	1.224343	0.302195	0.819417
H180	H	1.557676	0.635529	1.152750
H181	H	0.895943	0.021454	0.391412
H182	H	1.229277	0.354787	0.724745
H183	H	1.562610	0.688120	1.058079
N184	N	0.694372	-0.242921	0.000020
N185	N	1.027705	0.090412	0.333353
N186	N	1.361039	0.423746	0.666686
H187	H	0.693950	-0.275614	-0.063158
H188	H	1.027283	0.057719	0.270175
H189	H	1.360616	0.391053	0.603509
H190	H	0.688268	-0.269860	0.063239
H191	H	1.021601	0.063474	0.396572
H192	H	1.354935	0.396807	0.729906
H193	H	0.935683	-0.710476	-0.000017
H194	H	1.269016	-0.377142	0.333317
H195	H	1.602350	-0.043809	0.666650
H196	H	0.944172	-0.134351	0.000071
H197	H	1.277505	0.198983	0.333404
H198	H	1.610839	0.532316	0.666737
H199	H	0.762378	0.155299	0.518365
H200	H	1.095712	0.488633	0.851698
H201	H	1.429045	0.821966	1.185031
H202	H	0.176155	0.083113	-0.168536
H203	H	0.509488	0.416446	0.164797
H204	H	0.842822	0.749779	0.498130
H205	H	0.028796	0.096422	0.168579
H206	H	0.362129	0.429756	0.501913
H207	H	0.695463	0.763089	0.835246
H208	H	0.488057	0.087711	-0.168546
H209	H	0.821390	0.421045	0.164788
H210	H	1.154723	0.754378	0.498121
H211	H	0.604925	0.104921	0.168561
H212	H	0.938258	0.438254	0.501894
H213	H	1.271591	0.771587	0.835227
H214	H	0.620169	0.089644	-0.168546
H215	H	0.953502	0.422977	0.164787
H216	H	1.286835	0.756311	0.498121
H217	H	0.942225	-0.266461	0.000044
H218	H	1.275558	0.066872	0.333377
H219	H	1.608892	0.400205	0.666710
H220	H	0.472811	0.102974	0.168566
H221	H	0.806144	0.436307	0.501899
H222	H	1.139477	0.769641	0.835233
H223	H	0.937631	-0.578364	0.000017
H224	H	1.270964	-0.245031	0.333350
H225	H	1.604297	0.088302	0.666683
N226	N	0.696606	-0.091561	0.000019
N227	N	1.029940	0.241772	0.333353
N228	N	1.363273	0.575105	0.666686
H229	H	0.655793	-0.120281	0.000011
H230	H	0.989126	0.213052	0.333344
H231	H	1.322460	0.546385	0.666677
H232	H	0.691419	-0.058121	0.063204
H233	H	1.024753	0.275212	0.396537
H234	H	1.358086	0.608545	0.729870
H235	H	0.704793	-0.679575	-0.000034
H236	H	1.038127	-0.346241	0.333299
H237	H	1.371460	-0.012908	0.666632
H238	H	0.706738	-0.547460	-0.000014
H239	H	1.040072	-0.214126	0.333319
H240	H	1.373405	0.119207	0.666652
