data_functionalizedCrystal
_audit_creation_method	'MofGen! by Chris Wilmer'
_symmetry_space_group_name_H-M	'P1'
_symmetry_Int_Tables_number	1
_symmetry_cell_setting	triclinic
loop_
_symmetry_equiv_pos_as_xyz
  x,y,z
_cell_length_a	17.638686
_cell_length_b	17.637651
_cell_length_c	21.395356
_cell_angle_alpha	78.756692
_cell_angle_beta	78.790682
_cell_angle_gamma	87.823829
loop_
_atom_site_label
_atom_site_type_symbol
_atom_site_fract_x
_atom_site_fract_y
_atom_site_fract_z
Zn1	Zn	1.099805	-0.537546	-0.443964
Zn2	Zn	1.074064	-0.664548	-0.314700
Zn3	Zn	0.972821	-0.511847	-0.323011
Zn4	Zn	0.947138	-0.638796	-0.403268
O5	O	1.023457	-0.588184	-0.371236
O6	O	1.202653	-0.575925	-0.440370
O7	O	1.060610	-0.644314	-0.228117
O8	O	1.011186	-0.408977	-0.359565
O9	O	1.183741	-0.669233	-0.345400
O10	O	1.104481	-0.427857	-0.448429
O11	O	0.986227	-0.532126	-0.234223
O12	O	0.863151	-0.507155	-0.320104
O13	O	0.967414	-0.625343	-0.496352
O14	O	0.844282	-0.600424	-0.379068
O15	O	1.079577	-0.550955	-0.526251
O16	O	1.035707	-0.767412	-0.305939
O17	O	0.942454	-0.748492	-0.371009
C18	C	0.826164	-0.548207	-0.346072
C19	C	0.741758	-0.531123	-0.335318
C20	C	0.415064	-0.718137	-0.453056
C21	C	0.335753	-0.702077	-0.442937
C22	C	0.355398	-0.604805	-0.381691
C23	C	0.434712	-0.620860	-0.391802
C24	C	0.464539	-0.677526	-0.427486
C25	C	0.484187	-0.580248	-0.366232
C26	C	0.563494	-0.596299	-0.376345
C27	C	0.593328	-0.652961	-0.412029
C28	C	0.543846	-0.693576	-0.437600
C29	C	0.454359	-0.523579	-0.330552
C30	C	0.503834	-0.482968	-0.304982
C31	C	0.583142	-0.499022	-0.315091
C32	C	0.612976	-0.555683	-0.350775
C33	C	0.632624	-0.458406	-0.289521
C34	C	0.711931	-0.474457	-0.299634
C35	C	0.692283	-0.571734	-0.360889
C36	C	0.983521	-0.785513	-0.333172
C37	C	0.966506	-0.869945	-0.316918
C38	C	1.153214	-1.196448	-0.494975
C39	C	1.137201	-1.275780	-0.479688
C40	C	1.040118	-1.256240	-0.387085
C41	C	1.056125	-1.176905	-0.402362
C42	C	1.112673	-1.147016	-0.456308
C43	C	1.015585	-1.127473	-0.363696
C44	C	1.031588	-1.048145	-0.378974
C45	C	1.088132	-1.018248	-0.432919
C46	C	1.128676	-1.067687	-0.471587
C47	C	0.959033	-1.157363	-0.309753
C48	C	0.918492	-1.107931	-0.271086
C49	C	0.934499	-1.028602	-0.286362
C50	C	0.991043	-0.998706	-0.340306
C51	C	0.893954	-0.979163	-0.247694
C52	C	0.909958	-0.899835	-0.262972
C53	C	1.007046	-0.919377	-0.355585
C54	C	1.221520	-0.628318	-0.396498
C55	C	1.305923	-0.645421	-0.407263
C56	C	1.023502	-0.588143	-0.534673
C57	C	1.023521	-0.588125	-0.604320
C58	C	1.063569	-0.390089	-0.409464
C59	C	1.080663	-0.305673	-0.425755
C60	C	1.082021	-0.549284	-1.121718
C61	C	1.082011	-0.549302	-1.056279
C62	C	1.023607	-0.588037	-1.007986
C63	C	0.965219	-0.626775	-1.025137
C64	C	0.965234	-0.626763	-1.090576
C65	C	0.953953	-0.580190	-0.894428
C66	C	0.953937	-0.580196	-0.828991
C67	C	1.023558	-0.588078	-0.806151
C68	C	1.093200	-0.595938	-0.848759
C69	C	1.093216	-0.595926	-0.914198
C70	C	1.023583	-0.588054	-0.937027
C71	C	1.081935	-0.549365	-0.718050
C72	C	1.081925	-0.549388	-0.652608
C73	C	0.965127	-0.626856	-0.621468
C74	C	0.965143	-0.626839	-0.686908
C75	C	1.023546	-0.588089	-0.735196
C76	C	1.023467	-0.588180	-0.208450
C77	C	1.023638	-0.588013	-0.138863
H78	H	0.752216	-0.441381	-0.278818
H79	H	0.917667	-0.658315	-0.985813
H80	H	0.994075	-1.280587	-0.343163
H81	H	0.945998	-1.221956	-0.297320
C82	C	1.146185	-0.506750	-0.771168
N83	N	1.194581	-0.474653	-0.811176
H84	H	1.129472	-0.517853	-0.638652
C85	C	0.900882	-0.669467	-0.568349
N86	N	0.852492	-0.701564	-0.528337
C87	C	1.169789	-0.604613	-0.823641
N88	N	1.227473	-0.611147	-0.804718
C89	C	1.105736	-0.930984	-0.449725
N90	N	1.118998	-0.865257	-0.462382
C91	C	0.865368	-0.845458	-0.220432
N92	N	0.831782	-0.804501	-0.188389
H93	H	0.917599	-0.658372	-0.700866
C94	C	1.146271	-0.506665	-1.174832
N95	N	1.194666	-0.474567	-1.214837
C96	C	0.901002	-0.669364	-1.109434
N97	N	0.852620	-0.701449	-1.123640
H98	H	1.174729	-1.043352	-0.515511
H99	H	0.657906	-0.666024	-0.420267
C100	C	0.877331	-0.571544	-0.782129
N101	N	0.819629	-0.565027	-0.746834
H102	H	0.479538	-0.436828	-0.275930
H103	H	0.295472	-0.735149	-0.463765
C104	C	1.146236	-0.506690	-1.037414
N105	N	1.194609	-0.474593	-1.023207
C106	C	0.856339	-1.140829	-0.211714
N107	N	0.809543	-1.165610	-0.166980
H108	H	0.847908	-1.003510	-0.203775
H109	H	1.199266	-1.172113	-0.538900
C110	C	0.725096	-0.634071	-0.400141
N111	N	0.749812	-0.681020	-0.429707
H112	H	1.053099	-0.895042	-0.399509
C113	C	1.181804	-1.330154	-0.522229
N114	N	1.215396	-1.371108	-0.554271
H115	H	1.149920	-0.602328	-0.948887
H116	H	0.897255	-0.573771	-0.913016
H117	H	0.568132	-0.739723	-0.466653
H118	H	0.439349	-0.764284	-0.482110
H119	H	0.331102	-0.558666	-0.352639
H120	H	0.389782	-0.510509	-0.322323
H121	H	0.608327	-0.412264	-0.260473
