data_functionalizedCrystal
_audit_creation_method	'MofGen! by Chris Wilmer'
_symmetry_space_group_name_H-M	'P1'
_symmetry_Int_Tables_number	1
_symmetry_cell_setting	triclinic
loop_
_symmetry_equiv_pos_as_xyz
  x,y,z
_cell_length_a	21.395364
_cell_length_b	21.295418
_cell_length_c	21.395355
_cell_angle_alpha	89.981445
_cell_angle_beta	89.974323
_cell_angle_gamma	90.027752
loop_
_atom_site_label
_atom_site_type_symbol
_atom_site_fract_x
_atom_site_fract_y
_atom_site_fract_z
Zn1	Zn	-0.957846	0.250782	0.354280
Zn2	Zn	-0.624513	0.584116	0.687613
Zn3	Zn	-0.291179	0.917449	1.020947
Zn4	Zn	-0.957743	0.356034	0.249502
Zn5	Zn	-0.624410	0.689367	0.582836
Zn6	Zn	-0.291076	1.022700	0.916169
Zn7	Zn	-0.853061	0.250771	0.249515
Zn8	Zn	-0.519728	0.584105	0.582848
Zn9	Zn	-0.186394	0.917438	0.916181
Zn10	Zn	-0.853025	0.356007	0.354241
Zn11	Zn	-0.519691	0.689340	0.687574
Zn12	Zn	-0.186358	1.022673	1.020907
O13	O	-0.905419	0.303399	0.301884
O14	O	-0.572085	0.636732	0.635218
O15	O	-0.238752	0.970065	0.968551
O16	O	-1.045510	0.264760	0.340392
O17	O	-0.712177	0.598093	0.673726
O18	O	-0.378843	0.931427	1.007059
O19	O	-0.943829	0.342077	0.161826
O20	O	-0.610495	0.675411	0.495159
O21	O	-0.277162	1.008744	0.828493
O22	O	-0.867019	0.162684	0.263434
O23	O	-0.533686	0.496017	0.596767
O24	O	-0.200352	0.829350	0.930100
O25	O	-1.045434	0.342088	0.263413
O26	O	-0.712101	0.675421	0.596746
O27	O	-0.378768	1.008755	0.930079
O28	O	-0.944004	0.162692	0.340404
O29	O	-0.610671	0.496025	0.673738
O30	O	-0.277338	0.829358	1.007071
O31	O	-0.866919	0.264742	0.161835
O32	O	-0.533586	0.598075	0.495168
O33	O	-0.200253	0.931408	0.828502
O34	O	-0.765378	0.264715	0.263395
O35	O	-0.432045	0.598049	0.596729
O36	O	-0.098712	0.931382	0.930062
O37	O	-0.866957	0.342042	0.441924
O38	O	-0.533624	0.675375	0.775257
O39	O	-0.200291	1.008708	1.108590
O40	O	-0.765351	0.342031	0.340337
O41	O	-0.432018	0.675364	0.673670
O42	O	-0.098685	1.008698	1.007004
O43	O	-0.943969	0.264734	0.441953
O44	O	-0.610636	0.598067	0.775286
O45	O	-0.277302	0.931400	1.108619
O46	O	-0.943793	0.444120	0.263375
O47	O	-0.610460	0.777453	0.596708
O48	O	-0.277127	1.110786	0.930041
O49	O	-0.866857	0.444100	0.340325
O50	O	-0.533524	0.777433	0.673659
O51	O	-0.200191	1.110766	1.006992
C52	C	-0.742631	0.303369	0.301864
C53	C	-0.409298	0.636703	0.635197
C54	C	-0.075964	0.970036	0.968530
C55	C	-0.672990	0.303372	0.301870
C56	C	-0.339656	0.636706	0.635203
C57	C	-0.006323	0.970039	0.968536
C58	C	-0.171232	0.263207	0.342027
C59	C	0.162101	0.596540	0.675360
C60	C	0.495434	0.929873	1.008694
C61	C	-0.236668	0.263204	0.342028
C62	C	0.096666	0.596537	0.675362
C63	C	0.429999	0.929871	1.008695
C64	C	-0.269351	0.303399	0.301886
C65	C	0.063982	0.636732	0.635219
C66	C	0.397315	0.970065	0.968552
C67	C	-0.236594	0.343610	0.261750
C68	C	0.096739	0.676943	0.595084
C69	C	0.430072	1.010277	0.928417
C70	C	-0.171160	0.343616	0.261755
C71	C	0.162173	0.676949	0.595088
C72	C	0.495507	1.010283	0.928421
C73	C	-0.372988	0.308276	0.245420
C74	C	-0.039654	0.641610	0.578754
C75	C	0.293679	0.974943	0.912087
C76	C	-0.438421	0.308266	0.245415
C77	C	-0.105087	0.641599	0.578748
C78	C	0.228246	0.974932	0.912082
C79	C	-0.471172	0.303384	0.301872
C80	C	-0.137839	0.636717	0.635206
C81	C	0.195495	0.970050	0.968539
C82	C	-0.438483	0.298499	0.358337
C83	C	-0.105149	0.631832	0.691670
C84	C	0.228184	0.965165	1.025004
C85	C	-0.373049	0.298505	0.358341
C86	C	-0.039715	0.631838	0.691675
C87	C	0.293618	0.965171	1.025008
C88	C	-0.340304	0.303397	0.301877
C89	C	-0.006970	0.636730	0.635210
C90	C	0.326363	0.970063	0.968543
C91	C	-0.574874	0.263175	0.342010
C92	C	-0.241541	0.596508	0.675343
C93	C	0.091793	0.929842	1.008676
C94	C	-0.640311	0.263177	0.342012
C95	C	-0.306977	0.596510	0.675345
C96	C	0.026356	0.929843	1.008678
C97	C	-0.640236	0.343579	0.261728
C98	C	-0.306902	0.676913	0.595062
C99	C	0.026431	1.010246	0.928395
C100	C	-0.574800	0.343581	0.261732
C101	C	-0.241467	0.676914	0.595065
C102	C	0.091866	1.010248	0.928398
C103	C	-0.542123	0.303375	0.301871
C104	C	-0.208790	0.636709	0.635205
C105	C	0.124543	0.970042	0.968538
C106	C	-0.905327	0.466950	0.301858
C107	C	-0.571994	0.800284	0.635191
C108	C	-0.238661	1.133617	0.968525
C109	C	-0.905346	0.536918	0.301868
C110	C	-0.572012	0.870252	0.635201
C111	C	-0.238679	1.203585	0.968534
C112	C	-0.905471	0.303386	0.465308
C113	C	-0.572137	0.636719	0.798641
C114	C	-0.238804	0.970053	1.131974
C115	C	-0.905493	0.303380	0.534949
C116	C	-0.572159	0.636714	0.868282
C117	C	-0.238826	0.970047	1.201616
C118	C	-0.068842	0.303421	0.301901
C119	C	0.264492	0.636754	0.635234
C120	C	0.597825	0.970087	0.968567
C121	C	-0.138483	0.303411	0.301894
C122	C	0.194850	0.636744	0.635228
C123	C	0.528184	0.970077	0.968561
C124	C	-0.945515	1.036327	0.342027
C125	C	-0.612181	1.369661	0.675361
C126	C	-0.278848	1.702994	1.008694
C127	C	-0.945503	0.970585	0.342019
C128	C	-0.612169	1.303918	0.675352
C129	C	-0.278836	1.637251	1.008685
C130	C	-0.905445	0.937758	0.301910
C131	C	-0.572112	1.271091	0.635243
C132	C	-0.238778	1.604424	0.968576
C133	C	-0.865408	0.970679	0.261794
C134	C	-0.532075	1.304012	0.595128
C135	C	-0.198742	1.637345	0.928461
C136	C	-0.865426	1.036420	0.261800
C137	C	-0.532093	1.369753	0.595133
C138	C	-0.198760	1.703087	0.928466
N139	N	-0.850575	0.834582	0.297043
N140	N	-0.517242	1.167915	0.630376
N141	N	-0.183908	1.501248	0.963710
N142	N	-0.850560	0.772130	0.297042
N143	N	-0.517226	1.105463	0.630375
N144	N	-0.183893	1.438797	0.963708
C145	C	-0.905390	0.739683	0.301891
C146	C	-0.572057	1.073016	0.635224
C147	C	-0.238723	1.406350	0.968557
N148	N	-0.960237	0.772047	0.306753
N149	N	-0.626904	1.105380	0.640086
N150	N	-0.293570	1.438713	0.973420
N151	N	-0.960251	0.834504	0.306758
N152	N	-0.626918	1.167837	0.640091
N153	N	-0.293585	1.501170	0.973424
C154	C	-0.905422	0.866472	0.301899
C155	C	-0.572088	1.199806	0.635233
C156	C	-0.238755	1.533139	0.968566
C157	C	-0.945414	0.635484	0.341991
C158	C	-0.612080	0.968818	0.675324
C159	C	-0.278747	1.302151	1.008658
C160	C	-0.945403	0.569741	0.341978
C161	C	-0.612069	0.903074	0.675311
C162	C	-0.278736	1.236407	1.008645
C163	C	-0.865303	0.569836	0.261757
C164	C	-0.531970	0.903169	0.595090
C165	C	-0.198636	1.236503	0.928424
C166	C	-0.865320	0.635578	0.261766
C167	C	-0.531986	0.968912	0.595100
C168	C	-0.198653	1.302245	0.928433
C169	C	-0.905374	0.668399	0.301887
C170	C	-0.572041	1.001732	0.635220
C171	C	-0.238708	1.335065	0.968553
C172	C	-0.905504	1.139208	0.301919
C173	C	-0.572171	1.472542	0.635253
C174	C	-0.238837	1.805875	0.968586
C175	C	-0.905481	1.069240	0.301920
C176	C	-0.572148	1.402574	0.635253
C177	C	-0.238814	1.735907	0.968587
C178	C	-0.905403	0.303366	0.139097
C179	C	-0.572069	0.636699	0.472430
C180	C	-0.238736	0.970033	0.805764
C181	C	-0.905502	0.303194	0.069456
C182	C	-0.572169	0.636527	0.402789
C183	C	-0.238835	0.969861	0.736123
C184	C	-0.945591	0.263125	0.567678
C185	C	-0.612258	0.596458	0.901012
C186	C	-0.278924	0.929791	1.234345
C187	C	-0.945590	0.263097	0.633114
C188	C	-0.612257	0.596431	0.966447
C189	C	-0.278924	0.929764	1.299780
C190	C	-0.905498	0.303338	0.665817
C191	C	-0.572164	0.636671	0.999151
C192	C	-0.238831	0.970004	1.332484
C193	C	-0.865392	0.343596	0.633080
C194	C	-0.532058	0.676930	0.966414
C195	C	-0.198725	1.010263	1.299747
C196	C	-0.865389	0.343618	0.567646
C197	C	-0.532056	0.676951	0.900979
C198	C	-0.198722	1.010284	1.234313
C199	C	-0.900519	0.360017	0.769483
C200	C	-0.567185	0.693350	1.102816
C201	C	-0.233852	1.026684	1.436150
C202	C	-0.900526	0.359997	0.834916
C203	C	-0.567192	0.693330	1.168249
C204	C	-0.233859	1.026663	1.501583
C205	C	-0.905501	0.303271	0.867638
C206	C	-0.572168	0.636604	1.200972
C207	C	-0.238835	0.969938	1.534305
C208	C	-0.910484	0.246564	0.834920
C209	C	-0.577150	0.579897	1.168253
C210	C	-0.243817	0.913231	1.501586
C211	C	-0.910481	0.246585	0.769486
C212	C	-0.577148	0.579919	1.102819
C213	C	-0.243815	0.913252	1.436152
C214	C	-0.905496	0.303318	0.736770
C215	C	-0.572162	0.636652	1.070103
C216	C	-0.238829	0.969985	1.403437
C217	C	-0.945601	0.262982	0.971320
C218	C	-0.612268	0.596316	1.304653
C219	C	-0.278934	0.929649	1.637987
C220	C	-0.945596	0.262954	1.036757
C221	C	-0.612262	0.596288	1.370090
C222	C	-0.278929	0.929621	1.703423
C223	C	-0.865400	0.343459	1.036722
C224	C	-0.532067	0.676792	1.370055
C225	C	-0.198734	1.010125	1.703389
C226	C	-0.865402	0.343481	0.971287
C227	C	-0.532069	0.676814	1.304620
C228	C	-0.198736	1.010148	1.637953
C229	C	-0.905506	0.303244	0.938590
C230	C	-0.572173	0.636577	1.271923
C231	C	-0.238839	0.969911	1.605256
H232	H	-0.548267	0.230437	0.374694
H233	H	-0.214934	0.563770	0.708027
H234	H	0.118400	0.897104	1.041360
H235	H	-0.978242	0.230313	0.659767
H236	H	-0.644908	0.563646	0.993100
H237	H	-0.311575	0.896980	1.326434
H238	H	-0.666974	0.230440	0.374697
H239	H	-0.333641	0.563773	0.708030
H240	H	-0.000307	0.897106	1.041364
O241	O	-0.915854	0.185428	0.734195
O242	O	-0.582521	0.518762	1.067528
O243	O	-0.249187	0.852095	1.400861
H244	H	-0.876033	0.154509	0.746730
H245	H	-0.542700	0.487843	1.080064
H246	H	-0.209367	0.821176	1.413397
O247	O	-0.988615	0.670894	0.385255
O248	O	-0.655282	1.004227	0.718589
O249	O	-0.321948	1.337560	1.051922
H250	H	-1.037793	0.658252	0.374552
H251	H	-0.704460	0.991586	0.707886
H252	H	-0.371126	1.324919	1.041219
O253	O	-0.988842	0.219722	0.532416
O254	O	-0.655509	0.553056	0.865749
O255	O	-0.322175	0.886389	1.199082
H256	H	-0.982109	0.226502	0.481416
H257	H	-0.648776	0.559835	0.814749
H258	H	-0.315442	0.893169	1.148082
O259	O	-0.271998	0.219832	0.385311
O260	O	0.061336	0.553165	0.718644
O261	O	0.394669	0.886498	1.051977
H262	H	-0.301814	0.248043	0.417143
H263	H	0.031519	0.581376	0.750476
H264	H	0.364852	0.914709	1.083810
H265	H	-0.896299	0.406198	0.742846
H266	H	-0.562966	0.739531	1.076179
H267	H	-0.229632	1.072865	1.409512
O268	O	-0.988600	0.534243	0.385229
O269	O	-0.655266	0.867577	0.718562
O270	O	-0.321933	1.200910	1.051895
H271	H	-0.977833	0.546840	0.434396
H272	H	-0.644499	0.880173	0.767729
H273	H	-0.311166	1.213507	1.101063
H274	H	-0.832690	0.543109	0.229097
H275	H	-0.499357	0.876442	0.562430
H276	H	-0.166023	1.209775	0.895763
O277	O	-0.988685	0.935076	0.385279
O278	O	-0.655352	1.268409	0.718612
O279	O	-0.322019	1.601743	1.051946
H280	H	-0.960613	0.905129	0.417119
H281	H	-0.627280	1.238463	0.750453
H282	H	-0.293947	1.571796	1.083786
O283	O	-0.822138	0.387041	0.532344
O284	O	-0.488804	0.720374	0.865677
O285	O	-0.155471	1.053708	1.199011
H286	H	-0.828870	0.380293	0.481350
H287	H	-0.495537	0.713627	0.814683
H288	H	-0.162203	1.046960	1.148017
O289	O	-0.271845	0.386960	0.218452
O290	O	0.061488	0.720294	0.551786
O291	O	0.394821	1.053627	0.885119
H292	H	-0.238076	0.414922	0.190548
H293	H	0.095257	0.748255	0.523881
H294	H	0.428590	1.081589	0.857214
O295	O	-0.822245	1.071920	0.218536
O296	O	-0.488912	1.405254	0.551869
O297	O	-0.155578	1.738587	0.885202
H298	H	-0.828990	1.123149	0.225275
H299	H	-0.495657	1.456482	0.558608
H300	H	-0.162324	1.789815	0.891942
H301	H	-0.832717	0.662377	0.229109
H302	H	-0.499384	0.995710	0.562442
H303	H	-0.166051	1.329043	0.895776
H304	H	-0.346435	0.294529	0.404317
H305	H	-0.013102	0.627862	0.737650
H306	H	0.320231	0.961195	1.070983
H307	H	-0.978135	1.063045	0.374692
H308	H	-0.644802	1.396379	0.708025
H309	H	-0.311469	1.729712	1.041358
H310	H	-0.666846	0.376311	0.229048
H311	H	-0.333513	0.709645	0.562382
H312	H	-0.000180	1.042978	0.895715
O313	O	-0.337675	0.313526	0.184516
O314	O	-0.004342	0.646859	0.517849
O315	O	0.328991	0.980192	0.851182
H316	H	-0.307882	0.271344	0.178209
H317	H	0.025451	0.604678	0.511542
H318	H	0.358785	0.938011	0.844876
O319	O	-0.822207	0.935277	0.218529
O320	O	-0.488873	1.268610	0.551862
O321	O	-0.155540	1.601943	0.885196
H322	H	-0.773029	0.947932	0.229220
H323	H	-0.439696	1.281266	0.562553
H324	H	-0.106363	1.614599	0.895886
H325	H	-0.978248	0.230169	1.063404
H326	H	-0.644914	0.563503	1.396737
H327	H	-0.311581	0.896836	1.730070
H328	H	-0.914537	0.200372	0.861561
H329	H	-0.581203	0.533706	1.194894
H330	H	-0.247870	0.867039	1.528228
O331	O	-0.988845	0.219580	0.936046
O332	O	-0.655512	0.552913	1.269380
O333	O	-0.322179	0.886246	1.602713
H334	H	-1.016721	0.191573	0.969801
H335	H	-0.683388	0.524907	1.303135
H336	H	-0.350055	0.858240	1.636468
H337	H	-0.832750	0.376216	1.063349
H338	H	-0.499417	0.709550	1.396682
H339	H	-0.166083	1.042883	1.730015
H340	H	-0.832754	0.376266	0.944638
H341	H	-0.499420	0.709599	1.277972
H342	H	-0.166087	1.042932	1.611305
H343	H	-0.896472	0.406171	0.861550
H344	H	-0.563139	0.739504	1.194884
H345	H	-0.229806	1.072838	1.528217
O346	O	-0.822145	0.386994	0.668351
O347	O	-0.488812	0.720328	1.001685
O348	O	-0.155478	1.053661	1.335018
H349	H	-0.832849	0.436406	0.655794
H350	H	-0.499516	0.769740	0.989127
H351	H	-0.166183	1.103073	1.322460
H352	H	-0.144631	0.230471	0.374715
H353	H	0.188703	0.563804	0.708048
H354	H	0.522036	0.897137	1.041381
H355	H	-0.548136	0.376317	0.229049
H356	H	-0.214802	0.709650	0.562382
H357	H	0.118531	1.042983	0.895715
O358	O	-0.473793	0.293233	0.419239
O359	O	-0.140460	0.626566	0.752572
O360	O	0.192874	0.959900	1.085906
H361	H	-0.503584	0.335413	0.425564
H362	H	-0.170250	0.668747	0.758897
H363	H	0.163083	1.002080	1.092230
O364	O	-0.473680	0.313535	0.184520
O365	O	-0.140347	0.646868	0.517853
O366	O	0.192986	0.980202	0.851187
H367	H	-0.461098	0.358296	0.161076
H368	H	-0.127765	0.691629	0.494409
H369	H	0.205569	1.024962	0.827743
O370	O	-0.135831	0.386973	0.218460
O371	O	0.197502	0.720306	0.551793
O372	O	0.530835	1.053640	0.885127
H373	H	-0.169548	0.414921	0.190542
H374	H	0.163785	0.748254	0.523876
H375	H	0.497118	1.081587	0.857209
