data_functionalizedCrystal
_audit_creation_method	'MofGen! by Chris Wilmer'
_symmetry_space_group_name_H-M	'P1'
_symmetry_Int_Tables_number	1
_symmetry_cell_setting	triclinic
loop_
_symmetry_equiv_pos_as_xyz
  x,y,z
_cell_length_a	15.944551
_cell_length_b	10.723024
_cell_length_c	9.198806
_cell_angle_alpha	90.003648
_cell_angle_beta	89.995864
_cell_angle_gamma	96.016696
loop_
_atom_site_label
_atom_site_type_symbol
_atom_site_fract_x
_atom_site_fract_y
_atom_site_fract_z
O1	O	0.117808	-1.655699	-0.120886
O2	O	0.129085	-1.292405	-0.120892
O3	O	0.001228	-1.483973	-0.120876
O4	O	0.245664	-1.464131	-0.120902
O5	O	0.001228	-1.483958	0.120909
O6	O	0.129084	-1.292389	0.120893
O7	O	0.117808	-1.655684	0.120899
Cu8	Cu	0.123446	-1.474035	0.142973
Cu9	Cu	0.123446	-1.474053	-0.142966
O10	O	0.245664	-1.464116	0.120883
C11	C	0.128264	-1.245908	0.000000
C12	C	0.125809	-1.107384	-0.000001
C13	C	-0.030070	-1.483141	0.000017
C14	C	-0.123331	-1.480672	0.000018
N15	N	0.123445	-1.474032	0.344087
C16	C	-0.338901	-1.356026	-0.000004
C17	C	-0.399587	-1.413900	0.119211
C18	C	-0.294082	-1.476205	0.000006
C19	C	-0.399570	-1.413944	-0.119170
C20	C	-0.459020	-1.471880	-0.000011
C21	C	-0.353540	-1.534111	0.119320
C22	C	-0.353516	-1.534138	-0.119168
C23	C	-0.414184	-1.592099	0.000077
C24	C	-0.199066	-1.478692	0.000018
C25	C	-0.554035	-1.469402	-0.000011
C26	C	0.276963	-1.464947	-0.000013
C27	C	0.370223	-1.467417	-0.000024
C28	C	0.118629	-1.702181	0.000003
C29	C	0.121084	-1.840704	-0.000005
C30	C	0.197350	-1.031498	-0.000010
C31	C	0.194814	-0.888327	-0.000012
N32	N	0.123441	-1.474067	-0.344080
C33	C	0.069525	-1.554469	0.416290
C34	C	0.069522	-1.554488	0.583703
H35	H	-0.419986	-1.363063	0.219997
H36	H	-0.333095	-1.584931	-0.219959
H37	H	-0.333259	-1.584893	0.220218
C38	C	-0.427101	-1.345265	-0.255326
C39	C	-0.393680	-1.207098	-0.281482
C40	C	-0.421207	-1.138409	-0.417629
C41	C	-0.482155	-1.207887	-0.527620
C42	C	-0.515579	-1.346061	-0.501467
C43	C	-0.488052	-1.414750	-0.365320
H44	H	-0.348560	-1.155660	-0.200057
H45	H	-0.396464	-1.036124	-0.436988
H46	H	-0.502532	-1.157039	-0.628404
H47	H	-0.560700	-1.397499	-0.582892
H48	H	-0.512796	-1.517035	-0.345960
H49	H	0.260477	-1.072523	-0.000009
C50	C	0.038336	-0.928776	0.000006
C51	C	0.018977	-1.022359	0.125561
C52	C	-0.063771	-1.110442	0.125571
C53	C	-0.127159	-1.104940	0.000026
C54	C	-0.107802	-1.011353	-0.125539
C55	C	-0.025054	-0.923271	-0.125549
H56	H	0.065902	-1.026435	0.218506
H57	H	-0.078100	-1.179721	0.218524
H58	H	-0.188414	-1.170144	0.000033
H59	H	-0.154727	-1.007277	-0.218484
H60	H	-0.010725	-0.853991	-0.218502
C61	C	0.007160	-1.647489	0.332384
C62	C	0.007171	-1.647223	0.164979
C63	C	-0.055197	-1.740247	0.081079
C64	C	-0.117575	-1.833538	0.164584
C65	C	-0.117588	-1.833808	0.331999
C66	C	-0.055220	-1.740784	0.415899
H67	H	0.053349	-1.578160	0.103155
H68	H	-0.055187	-1.740046	-0.042853
H69	H	-0.163743	-1.902400	0.102476
H70	H	-0.163766	-1.902870	0.393823
H71	H	-0.055230	-1.740984	0.539831
H72	H	0.062682	-1.066360	-0.000032
C73	C	-0.458213	-1.726973	0.000163
C74	C	-0.518243	-1.771671	0.125146
C75	C	-0.562272	-1.906543	0.125241
C76	C	-0.546270	-1.996718	0.000354
C77	C	-0.486238	-1.952022	-0.124638
C78	C	-0.442209	-1.817150	-0.124733
H79	H	-0.530091	-1.704917	0.217604
H80	H	-0.606712	-1.939630	0.217769
H81	H	-0.578863	-2.096559	0.000424
H82	H	-0.474390	-2.018776	-0.217096
H83	H	-0.397769	-1.784063	-0.217261
C84	C	0.185810	-1.381024	0.572059
C85	C	0.152547	-1.286172	0.466531
C86	C	0.214917	-1.193130	0.382658
C87	C	0.310550	-1.194940	0.404311
C88	C	0.343818	-1.289796	0.509843
C89	C	0.281448	-1.382839	0.593717
H90	H	0.081750	-1.284828	0.450498
H91	H	0.190289	-1.122911	0.304536
H92	H	0.356719	-1.126065	0.342222
H93	H	0.414615	-1.291140	0.525876
H94	H	0.306076	-1.453057	0.671838
H95	H	0.256060	-0.823120	-0.000025
H96	H	-0.306164	-1.256273	0.000113
H97	H	0.023362	-1.623358	0.645795
H98	H	0.169603	-1.405176	0.406209
