data_functionalizedCrystal
_audit_creation_method	'MofGen! by Chris Wilmer'
_symmetry_space_group_name_H-M	'P1'
_symmetry_Int_Tables_number	1
_symmetry_cell_setting	triclinic
loop_
_symmetry_equiv_pos_as_xyz
  x,y,z
_cell_length_a	14.044191
_cell_length_b	15.021413
_cell_length_c	14.044209
_cell_angle_alpha	89.997840
_cell_angle_beta	86.810135
_cell_angle_gamma	89.991171
loop_
_atom_site_label
_atom_site_type_symbol
_atom_site_fract_x
_atom_site_fract_y
_atom_site_fract_z
O1	O	1.277155	0.073999	-0.230192
O2	O	1.610489	0.407333	0.103141
O3	O	1.943822	0.740666	0.436475
O4	O	1.000483	0.074010	-0.221879
O5	O	1.333816	0.407344	0.111454
O6	O	1.667149	0.740677	0.444787
O7	O	1.134667	0.073992	-0.087700
O8	O	1.468001	0.407326	0.245634
O9	O	1.801334	0.740659	0.578967
O10	O	1.142971	0.074017	-0.364371
O11	O	1.476304	0.407351	-0.031038
O12	O	1.809637	0.740684	0.302295
O13	O	1.134685	-0.074072	-0.087710
O14	O	1.468018	0.259261	0.245623
O15	O	1.801352	0.592595	0.578956
O16	O	1.000501	-0.074054	-0.221890
O17	O	1.333834	0.259279	0.111444
O18	O	1.667167	0.592613	0.444777
O19	O	1.277173	-0.074065	-0.230202
O20	O	1.610506	0.259269	0.103131
O21	O	1.943840	0.592602	0.436464
Zn22	Zn	1.138840	-0.097568	-0.226048
Zn23	Zn	1.472173	0.235766	0.107286
Zn24	Zn	1.805506	0.569099	0.440619
Zn25	Zn	1.138816	0.097513	-0.226034
Zn26	Zn	1.472149	0.430847	0.107299
Zn27	Zn	1.805483	0.764180	0.440633
O28	O	1.142989	-0.074047	-0.364382
O29	O	1.476322	0.259286	-0.031049
O30	O	1.809655	0.592620	0.302285
C31	C	0.964870	-0.000021	-0.218248
C32	C	1.298203	0.333313	0.115085
C33	C	1.631536	0.666646	0.448419
C34	C	0.858727	-0.000017	-0.207401
C35	C	1.192060	0.333316	0.125933
C36	C	1.525393	0.666650	0.459266
C37	C	0.613268	-0.000021	-0.264501
C38	C	0.946601	0.333313	0.068832
C39	C	1.279934	0.666646	0.402166
C40	C	0.664394	-0.000026	-0.187585
C41	C	0.997727	0.333307	0.145749
C42	C	1.331061	0.666641	0.479082
C43	C	0.772531	-0.000021	-0.198613
C44	C	1.105864	0.333312	0.134720
C45	C	1.439197	0.666646	0.468054
C46	C	0.505121	-0.000026	-0.253474
C47	C	0.838455	0.333308	0.079859
C48	C	1.171788	0.666641	0.413192
N49	N	1.138863	-0.230705	-0.226057
N50	N	1.472196	0.102628	0.107276
N51	N	1.805529	0.435961	0.440609
C52	C	1.200922	-0.470373	-0.163998
C53	C	1.534255	-0.137040	0.169335
C54	C	1.867588	0.196294	0.502668
C55	C	1.113087	-0.529701	-0.138160
C56	C	1.446420	-0.196367	0.195173
C57	C	1.779754	0.136966	0.528506
C58	C	1.138839	-0.412312	-0.226043
C59	C	1.472173	-0.078979	0.107290
C60	C	1.805506	0.254354	0.440623
C61	C	1.226648	-0.529726	-0.251823
C62	C	1.559981	-0.196393	0.081510
C63	C	1.893315	0.136940	0.414844
C64	C	1.138825	-0.587736	-0.226028
C65	C	1.472158	-0.254403	0.107305
C66	C	1.805491	0.078930	0.440638
C67	C	1.050958	-0.470333	-0.200159
C68	C	1.384291	-0.137000	0.133174
C69	C	1.717624	0.196333	0.466507
C70	C	1.164579	-0.470354	-0.313864
C71	C	1.497912	-0.137021	0.019469
C72	C	1.831245	0.196313	0.352803
C73	C	1.076685	-0.529655	-0.288058
C74	C	1.410018	-0.196321	0.045276
C75	C	1.743352	0.137012	0.378609
C76	C	1.138849	-0.311255	-0.226050
C77	C	1.472183	0.022078	0.107284
C78	C	1.805516	0.355412	0.440617
C79	C	1.138805	-0.688792	-0.226022
C80	C	1.472138	-0.355458	0.107311
C81	C	1.805472	-0.022125	0.440645
C82	C	1.312786	-0.000032	-0.233834
C83	C	1.646119	0.333301	0.099500
C84	C	1.979453	0.666635	0.432833
C85	C	1.418929	-0.000030	-0.244681
C86	C	1.752262	0.333304	0.088652
C87	C	2.085596	0.666637	0.421986
C88	C	1.131041	-0.000041	-0.052083
C89	C	1.464374	0.333292	0.281250
C90	C	1.797707	0.666626	0.614584
C91	C	1.120197	-0.000045	0.054060
C92	C	1.453530	0.333289	0.387393
C93	C	1.786864	0.666622	0.720727
N94	N	1.138800	0.230651	-0.226017
N95	N	1.472133	0.563984	0.107316
N96	N	1.805467	0.897318	0.440649
C97	C	1.100372	-0.000036	0.248398
C98	C	1.433706	0.333297	0.581732
C99	C	1.767039	0.666630	0.915065
C100	C	1.177287	-0.000038	0.299526
C101	C	1.510621	0.333295	0.632860
C102	C	1.843954	0.666628	0.966193
C103	C	1.166257	-0.000034	0.407663
C104	C	1.499590	0.333300	0.740996
C105	C	1.832923	0.666633	1.074329
C106	C	1.111402	-0.000041	0.140252
C107	C	1.444735	0.333292	0.473585
C108	C	1.778068	0.666626	0.806919
C109	C	1.146617	-0.000019	0.600001
C110	C	1.479950	0.333315	0.933335
C111	C	1.813284	0.666648	1.266668
C112	C	1.157467	-0.000030	0.493859
C113	C	1.490800	0.333303	0.827192
C114	C	1.824134	0.666637	1.160525
H115	H	0.626951	0.000030	-0.113452
H116	H	0.960284	0.333363	0.219881
H117	H	1.293618	0.666697	0.553214
H118	H	1.186387	-0.444266	-0.388119
H119	H	1.519720	-0.110933	-0.054785
H120	H	1.853053	0.222401	0.278548
H121	H	1.300913	-0.555815	-0.273634
H122	H	1.634246	-0.222482	0.059699
H123	H	1.967580	0.110852	0.393033
C124	C	1.083674	-0.564941	-0.037824
C125	C	1.417008	-0.231608	0.295509
C126	C	1.750341	0.101726	0.628842
N127	N	1.061532	-0.591489	0.037749
N128	N	1.394865	-0.258155	0.371083
N129	N	1.728199	0.075178	0.704416
H130	H	1.024115	-0.555520	-0.340519
H131	H	1.357449	-0.222187	-0.007186
H132	H	1.690782	0.111147	0.326147
C133	C	1.277439	-0.000053	0.248947
C134	C	1.610772	0.333280	0.582280
C135	C	1.944106	0.666613	0.915614
N136	N	1.352871	-0.000070	0.210847
N137	N	1.686204	0.333264	0.544180
N138	N	2.019537	0.666597	0.877513
H139	H	0.650708	-0.000011	-0.338628
H140	H	0.984042	0.333322	-0.005294
H141	H	1.317375	0.666655	0.328039
H142	H	0.976669	-0.444354	-0.178265
H143	H	1.310002	-0.111021	0.155069
H144	H	1.643336	0.222312	0.488402
H145	H	1.253360	-0.444343	-0.111492
H146	H	1.586693	-0.111009	0.221841
H147	H	1.920026	0.222324	0.555175
H148	H	1.026245	-0.000032	0.285837
H149	H	1.359578	0.333301	0.619171
H150	H	1.692911	0.666634	0.952504
