data_functionalizedCrystal
_audit_creation_method	'MofGen! by Chris Wilmer'
_symmetry_space_group_name_H-M	'P1'
_symmetry_Int_Tables_number	1
_symmetry_cell_setting	triclinic
loop_
_symmetry_equiv_pos_as_xyz
  x,y,z
_cell_length_a	16.109302
_cell_length_b	10.489716
_cell_length_c	14.586319
_cell_angle_alpha	90.000245
_cell_angle_beta	89.994552
_cell_angle_gamma	83.995458
loop_
_atom_site_label
_atom_site_type_symbol
_atom_site_fract_x
_atom_site_fract_y
_atom_site_fract_z
O1	O	1.104132	0.163953	-0.076273
O2	O	0.862194	0.184355	-0.076265
O3	O	0.988679	-0.011526	-0.076273
O4	O	0.977647	0.359834	-0.076266
O5	O	0.988670	-0.011528	0.076208
O6	O	0.862185	0.184353	0.076216
O7	O	1.104123	0.163950	0.076208
Cu8	Cu	0.983153	0.174151	0.090134
Cu9	Cu	0.983164	0.174155	-0.090192
O10	O	0.977638	0.359831	0.076215
C11	C	0.831210	0.183527	-0.000024
C12	C	0.738900	0.181049	-0.000021
C13	C	0.526519	0.175317	0.083087
C14	C	0.439784	0.172975	0.083084
C15	C	0.439805	0.172985	-0.083159
C16	C	0.526538	0.175318	-0.083155
C17	C	0.569892	0.176491	-0.000029
C18	C	0.396425	0.171815	-0.000037
C19	C	0.302383	0.169276	-0.000041
C20	C	0.663940	0.179028	-0.000025
C21	C	0.987845	-0.059047	-0.000035
C22	C	0.985366	-0.200642	-0.000043
C23	C	1.062930	-0.299441	-0.000038
C24	C	1.021948	-0.376206	-0.075215
C25	C	1.021921	-0.376172	0.075119
C26	C	0.944416	-0.275542	-0.075283
C27	C	0.944400	-0.275503	0.075119
C28	C	0.903361	-0.352218	-0.000077
C29	C	1.135107	0.164778	-0.000036
C30	C	1.227417	0.167257	-0.000045
C31	C	0.978472	0.407353	-0.000025
C32	C	0.980951	0.548948	-0.000022
N33	N	0.983152	0.174148	0.216966
N34	N	0.983172	0.174148	-0.217024
C35	C	1.039178	0.087441	0.451969
C36	C	1.039180	0.087438	0.547950
C37	C	0.927139	0.260859	0.547967
C38	C	0.927134	0.260855	0.451987
C39	C	0.983158	0.174147	0.403991
C40	C	0.983166	0.174148	0.595952
C41	C	0.983168	0.174146	0.700019
C42	C	0.983155	0.174148	0.299917
H43	H	0.404495	0.172031	-0.150837
H44	H	1.130397	-0.275743	-0.000116
H45	H	0.404473	0.172020	0.150765
H46	H	0.561815	0.176272	0.150774
H47	H	0.561854	0.176270	-0.150842
H48	H	1.054677	-0.420121	0.138674
H49	H	1.054694	-0.420174	-0.138775
H50	H	0.911694	-0.231762	-0.138910
H51	H	0.835843	-0.375669	-0.000115
H52	H	0.911682	-0.231512	0.138682
H53	H	1.084795	0.016837	0.412893
H54	H	1.084796	0.016832	0.587012
H55	H	0.881511	0.331462	0.412920
H56	H	0.881527	0.331456	0.587055
