data_functionalizedCrystal
_audit_creation_method	'MofGen! by Chris Wilmer'
_symmetry_space_group_name_H-M	'P1'
_symmetry_Int_Tables_number	1
_symmetry_cell_setting	triclinic
loop_
_symmetry_equiv_pos_as_xyz
  x,y,z
_cell_length_a	14.519710
_cell_length_b	16.109301
_cell_length_c	14.586319
_cell_angle_alpha	90.005214
_cell_angle_beta	89.997436
_cell_angle_gamma	96.429187
loop_
_atom_site_label
_atom_site_type_symbol
_atom_site_fract_x
_atom_site_fract_y
_atom_site_fract_z
O1	O	1.223634	-0.108984	-0.076223
O2	O	1.556967	0.224349	0.257110
O3	O	1.890301	0.557682	0.590443
O4	O	0.955130	-0.121819	-0.076230
O5	O	1.288463	0.211514	0.257103
O6	O	1.621797	0.544848	0.590437
O7	O	1.096758	0.005617	-0.076217
O8	O	1.430091	0.338950	0.257116
O9	O	1.763425	0.672283	0.590450
O10	O	1.082006	-0.236420	-0.076236
O11	O	1.415339	0.096913	0.257097
O12	O	1.748673	0.430247	0.590431
O13	O	1.096748	0.005618	0.076264
O14	O	1.430082	0.338952	0.409597
O15	O	1.763415	0.672285	0.742930
O16	O	0.955120	-0.121817	0.076251
O17	O	1.288453	0.211516	0.409584
O18	O	1.621787	0.544850	0.742918
O19	O	1.223624	-0.108983	0.076257
O20	O	1.556958	0.224351	0.409591
O21	O	1.890291	0.557684	0.742924
Cu22	Cu	1.089371	-0.115400	0.090177
Cu23	Cu	1.422705	0.217934	0.423510
Cu24	Cu	1.756038	0.551267	0.756844
Cu25	Cu	1.089383	-0.115402	-0.090149
Cu26	Cu	1.422716	0.217932	0.243184
Cu27	Cu	1.756050	0.551265	0.576517
O28	O	1.081996	-0.236418	0.076245
O29	O	1.415329	0.096915	0.409578
O30	O	1.748663	0.430249	0.742911
C31	C	0.920766	-0.121220	0.000010
C32	C	1.254100	0.212114	0.333343
C33	C	1.587433	0.545447	0.666676
C34	C	0.818389	-0.119427	0.000008
C35	C	1.151722	0.213906	0.333341
C36	C	1.485056	0.547239	0.666674
C37	C	1.096156	0.036593	0.000024
C38	C	1.429489	0.369927	0.333357
C39	C	1.762822	0.703260	0.666690
C40	C	1.094364	0.128892	0.000025
C41	C	1.427697	0.462225	0.333358
C42	C	1.761031	0.795559	0.666692
C43	C	1.257988	-0.109582	0.000016
C44	C	1.591321	0.223752	0.333349
C45	C	1.924654	0.557085	0.666682
C46	C	1.360365	-0.111374	0.000012
C47	C	1.693698	0.221959	0.333345
C48	C	2.027032	0.555293	0.666679
C49	C	1.735247	-0.117973	0.000011
C50	C	2.068580	0.215361	0.333344
C51	C	2.401914	0.548694	0.666678
C52	C	1.630943	-0.116140	0.000011
C53	C	1.964276	0.217193	0.333344
C54	C	2.297610	0.550526	0.666678
C55	C	1.547809	-0.114674	0.000011
C56	C	1.881143	0.218660	0.333344
C57	C	2.214476	0.551993	0.666677
C58	C	1.443499	-0.112841	0.000012
C59	C	1.776832	0.220493	0.333346
C60	C	2.110165	0.553826	0.666679
C61	C	1.082599	-0.267395	0.000002
C62	C	1.415932	0.065938	0.333335
C63	C	1.749265	0.399272	0.666668
C64	C	1.084390	-0.359693	-0.000005
C65	C	1.417724	-0.026360	0.333328
C66	C	1.751057	0.306973	0.666661
N67	N	1.089370	-0.115397	0.217009
N68	N	1.422703	0.217936	0.550342
N69	N	1.756037	0.551269	0.883675
C70	C	1.174238	0.351026	0.000012
C71	C	1.507571	0.684359	0.333346
C72	C	1.840904	1.017693	0.666679
C73	C	1.172547	0.437749	0.000005
C74	C	1.505880	0.771083	0.333338
C75	C	1.839214	1.104416	0.666672
C76	C	1.004510	0.418166	0.000004
C77	C	1.337843	0.751499	0.333338
C78	C	1.671177	1.084832	0.666671
C79	C	1.006202	0.331444	0.000005
C80	C	1.339535	0.664778	0.333339
C81	C	1.672868	0.998111	0.666672
C82	C	1.091068	0.297877	0.000014
C83	C	1.424401	0.631210	0.333347
C84	C	1.757735	0.964543	0.666681
C85	C	1.087686	0.471322	0.000005
C86	C	1.421019	0.804655	0.333339
C87	C	1.754353	1.137988	0.666672
C88	C	1.085852	0.565351	-0.000003
C89	C	1.419186	0.898684	0.333331
C90	C	1.752519	1.232018	0.666664
C91	C	1.092902	0.203842	0.000021
C92	C	1.426236	0.537175	0.333354
C93	C	1.759569	0.870508	0.666687
N94	N	1.089392	-0.115397	-0.216981
N95	N	1.422725	0.217936	0.116352
N96	N	1.756058	0.551269	0.449686
C97	C	1.152104	-0.058988	0.452021
C98	C	1.485437	0.274345	0.785354
C99	C	1.818770	0.607679	1.118687
C100	C	1.152106	-0.058986	0.548002
C101	C	1.485440	0.274347	0.881335
C102	C	1.818773	0.607681	1.214669
C103	C	1.026651	-0.171809	0.548000
C104	C	1.359985	0.161524	0.881333
C105	C	1.693318	0.494857	1.214667
C106	C	1.026645	-0.171807	0.452021
C107	C	1.359978	0.161526	0.785354
C108	C	1.693312	0.494860	1.118687
C109	C	1.089376	-0.115397	0.404033
C110	C	1.422710	0.217936	0.737367
C111	C	1.756043	0.551270	1.070700
C112	C	1.089385	-0.115398	0.595994
C113	C	1.422719	0.217936	0.929328
C114	C	1.756052	0.551269	1.262661
C115	C	1.089388	-0.115396	0.700061
C116	C	1.422721	0.217937	1.033395
C117	C	1.756054	0.551271	1.366728
C118	C	1.089373	-0.115398	0.299960
C119	C	1.422706	0.217936	0.633293
C120	C	1.756040	0.551269	0.966626
H121	H	1.243341	0.323699	0.000018
H122	H	1.576675	0.657032	0.333351
H123	H	1.910008	0.990365	0.666684
O124	O	0.959009	-0.232662	0.599760
O125	O	1.292343	0.100671	0.933094
O126	O	1.625676	0.434004	1.266427
H127	H	0.887119	-0.221929	0.581359
H128	H	1.220452	0.111405	0.914693
H129	H	1.553785	0.444738	1.248026
O130	O	1.262256	0.495070	0.000013
O131	O	1.595589	0.828404	0.333346
O132	O	1.928922	1.161737	0.666679
H133	H	1.265519	0.535038	-0.062141
H134	H	1.598852	0.868371	0.271192
H135	H	1.932185	1.201705	0.604526
H136	H	0.935415	0.445507	-0.000001
H137	H	1.268748	0.778841	0.333332
H138	H	1.602081	1.112174	0.666666
O139	O	0.958989	-0.232653	0.400252
O140	O	1.292323	0.100680	0.733585
O141	O	1.625656	0.434013	1.066918
H142	H	0.915379	-0.271888	0.449743
H143	H	1.248713	0.061445	0.783076
H144	H	1.582046	0.394779	1.116410
O145	O	1.219740	0.001863	0.400252
O146	O	1.553073	0.335196	0.733585
O147	O	1.886407	0.668529	1.066918
H148	H	1.291633	-0.008857	0.418659
H149	H	1.624967	0.324477	0.751993
H150	H	1.958300	0.657810	1.085326
O151	O	0.916494	0.274109	0.000017
O152	O	1.249827	0.607442	0.333351
O153	O	1.583160	0.940775	0.666684
H154	H	0.857197	0.312018	0.000028
H155	H	1.190530	0.645351	0.333362
H156	H	1.523863	0.978684	0.666695
O157	O	1.219773	0.001844	0.599764
O158	O	1.553106	0.335178	0.933097
O159	O	1.886439	0.668511	1.266430
H160	H	1.263397	0.041060	0.550267
H161	H	1.596730	0.374394	0.883600
H162	H	1.930063	0.707727	1.216934
