data_functionalizedCrystal
_audit_creation_method	'MofGen! by Chris Wilmer'
_symmetry_space_group_name_H-M	'P1'
_symmetry_Int_Tables_number	1
_symmetry_cell_setting	triclinic
loop_
_symmetry_equiv_pos_as_xyz
  x,y,z
_cell_length_a	29.839134
_cell_length_b	18.050589
_cell_length_c	18.050582
_cell_angle_alpha	90.018205
_cell_angle_beta	90.026973
_cell_angle_gamma	90.020967
loop_
_atom_site_label
_atom_site_type_symbol
_atom_site_fract_x
_atom_site_fract_y
_atom_site_fract_z
Zn1	Zn	0.686773	-0.295850	0.420174
Zn2	Zn	0.686719	-0.420034	0.295993
Zn3	Zn	0.611652	-0.295846	0.295972
Zn4	Zn	0.611620	-0.419987	0.420116
O5	O	0.649191	-0.357929	0.358064
O6	O	0.749633	-0.312345	0.403734
O7	O	0.676751	-0.403578	0.192066
O8	O	0.621653	-0.191922	0.312463
O9	O	0.749593	-0.403581	0.312499
O10	O	0.676843	-0.191925	0.403714
O11	O	0.621600	-0.312338	0.192050
O12	O	0.548781	-0.312293	0.312406
O13	O	0.621599	-0.403503	0.524048
O14	O	0.548758	-0.403499	0.403614
O15	O	0.676813	-0.312300	0.524091
O16	O	0.676721	-0.523952	0.312443
O17	O	0.621547	-0.523918	0.403635
C18	C	0.532468	-0.357891	0.358002
C19	C	0.482534	-0.357892	0.357994
C20	C	0.649137	-0.550881	0.358051
C21	C	0.649155	-0.633427	0.358071
C22	C	0.619180	-0.832886	0.407644
C23	C	0.608232	-0.882318	0.339873
C24	C	0.649199	-0.784558	0.358081
C25	C	0.660169	-0.882208	0.425859
C26	C	0.649241	-0.930543	0.358096
C27	C	0.638229	-0.832902	0.290274
C28	C	0.690185	-0.832787	0.376306
C29	C	0.679252	-0.882197	0.308488
C30	C	0.649174	-0.700459	0.358073
C31	C	0.649266	-1.014639	0.358096
C32	C	0.125946	-0.310368	0.310669
C33	C	0.313619	-0.310347	0.310624
O34	O	0.337884	-0.269878	0.270317
N35	N	0.337089	-0.357904	0.358031
C36	C	0.313637	-0.405466	0.405456
O37	O	0.337906	-0.445910	0.445784
C38	C	0.125965	-0.405483	0.405505
C39	C	0.102498	-0.357928	0.358089
C40	C	0.102479	-0.262817	0.263257
C41	C	0.055564	-0.262825	0.263266
C42	C	0.032115	-0.310385	0.310686
C43	C	0.055582	-0.357937	0.358098
C44	C	0.102514	-0.453041	0.452933
C45	C	0.055593	-0.453039	0.452943
C46	C	0.032126	-0.405485	0.405527
C47	C	-0.014781	-0.405505	0.405527
N48	N	-0.038251	-0.357948	0.358119
C49	C	-0.014802	-0.310388	0.310699
C50	C	0.412168	-0.405455	0.405427
C51	C	0.459086	-0.405452	0.405414
C52	C	0.459065	-0.310332	0.310582
C53	C	0.412146	-0.310339	0.310591
C54	C	0.388698	-0.357898	0.358019
C55	C	-0.113328	-0.310411	0.310721
C56	C	-0.160248	-0.310425	0.310732
C57	C	-0.160223	-0.405542	0.405566
C58	C	-0.113307	-0.405531	0.405553
C59	C	-0.089861	-0.357959	0.358128
O60	O	-0.039075	-0.445948	0.445818
O61	O	-0.039079	-0.269939	0.270390
C62	C	0.172862	-0.310360	0.310660
C63	C	0.196329	-0.357911	0.358071
C64	C	0.172880	-0.405471	0.405491
C65	C	0.243247	-0.357908	0.358058
C66	C	0.266695	-0.310348	0.310638
C67	C	0.243226	-0.262791	0.263231
C68	C	0.196310	-0.262800	0.263240
C69	C	0.196350	-0.453028	0.452899
C70	C	0.243265	-0.453016	0.452885
C71	C	0.266714	-0.405456	0.405465
C72	C	0.766369	-0.357969	0.358126
C73	C	0.816304	-0.357985	0.358152
C74	C	0.649209	-0.357896	0.551769
C75	C	0.649216	-0.357882	0.634315
C76	C	0.649258	-0.164224	0.358092
C77	C	0.649286	-0.081678	0.358104
C78	C	0.649199	-0.357909	0.165112
C79	C	0.649279	-0.357713	0.082566
C80	C	0.619214	-0.407411	0.833743
C81	C	0.660201	-0.425573	0.883150
C82	C	0.649238	-0.357826	0.785446
C83	C	0.608274	-0.339643	0.883120
C84	C	0.649256	-0.357772	0.931431
C85	C	0.690247	-0.376023	0.833765
C86	C	0.638292	-0.290062	0.833732
C87	C	0.679307	-0.308198	0.883116
C88	C	0.649227	-0.357858	0.701347
C89	C	0.649271	-0.357740	1.015527
H90	H	0.573591	-0.904091	0.324471
H91	H	0.573623	-0.324286	0.904801
O92	O	0.268518	-0.211492	0.212079
H93	H	0.289909	-0.173748	0.245380
H94	H	0.629011	-0.232795	0.812009
O95	O	0.585506	-0.804195	0.463080
H96	H	0.594282	-0.824797	0.519169
H97	H	0.704656	-0.903712	0.266532
O98	O	-0.185561	-0.259141	0.259582
H99	H	-0.206925	-0.221408	0.292882
O100	O	0.672441	-0.910894	0.501776
H101	H	0.647452	-0.891144	0.542799
H102	H	0.628927	-0.811334	0.232944
O103	O	0.736060	-0.803946	0.396749
H104	H	0.749477	-0.770132	0.350441
O105	O	0.585613	-0.463025	0.805022
H106	H	0.559982	-0.434031	0.771184
H107	H	0.669470	-0.482856	0.904856
H108	H	0.121613	-0.491765	0.491544
O109	O	-0.088043	-0.259114	0.259560
H110	H	-0.112249	-0.226062	0.226590
H111	H	0.262368	-0.491748	0.491496
H112	H	0.036461	-0.224101	0.224655
O113	O	0.127767	-0.211530	0.212093
H114	H	0.103559	-0.178478	0.179125
H115	H	0.393042	-0.271613	0.271984
H116	H	0.478164	-0.271607	0.271970
O117	O	0.484395	-0.456745	0.456552
H118	H	0.460203	-0.489808	0.489531
H119	H	0.177263	-0.491757	0.491515
H120	H	0.393081	-0.444186	0.444050
H121	H	0.724908	-0.391445	0.812176
O122	O	0.030302	-0.504385	0.504048
H123	H	0.054506	-0.537469	0.536992
H124	H	-0.179323	-0.444267	0.444172
O125	O	-0.087992	-0.456821	0.456690
H126	H	-0.112181	-0.489891	0.489668
O127	O	0.712985	-0.252622	0.911662
H128	H	0.746948	-0.267868	0.891788
O129	O	0.171001	-0.211502	0.212105
H130	H	0.195195	-0.178429	0.179139
