data_functionalizedCrystal
_audit_creation_method	'MofGen! by Chris Wilmer'
_symmetry_space_group_name_H-M	'P1'
_symmetry_Int_Tables_number	1
_symmetry_cell_setting	triclinic
loop_
_symmetry_equiv_pos_as_xyz
  x,y,z
_cell_length_a	6.817900
_cell_length_b	10.773890
_cell_length_c	10.943624
_cell_angle_alpha	95.382956
_cell_angle_beta	108.838799
_cell_angle_gamma	96.645716
loop_
_atom_site_label
_atom_site_type_symbol
_atom_site_fract_x
_atom_site_fract_y
_atom_site_fract_z
V1	V	-4.053411	-0.172562	-0.400448
O2	O	-4.076200	0.008326	-0.394990
O3	O	-3.970332	-0.342194	-0.395628
O4	O	-4.032334	-0.169893	-0.576047
O5	O	-4.013768	-0.165168	-0.213321
V6	V	-4.537992	-0.150927	-0.378319
O7	O	-4.312348	-0.220019	-0.448990
O8	O	-4.729252	-0.103470	-0.329777
O9	O	-4.397865	0.018704	-0.383140
O10	O	-4.632601	-0.331815	-0.383778
O11	O	-4.695032	-0.158322	-0.565446
O12	O	-4.335863	-0.153597	-0.202720
C13	C	-3.806012	-0.383547	-0.388774
C14	C	-3.819554	-0.522223	-0.386003
C15	C	-3.885101	-0.163758	-0.618915
C16	C	-3.948922	-0.162698	-0.762454
C17	C	-3.998378	-0.590085	-0.390818
C18	C	-4.012378	-0.733414	-0.387954
C19	C	-3.796320	-0.155561	-0.839689
C20	C	-3.947564	-0.261501	-0.944388
C21	C	-3.911419	-0.054882	-0.913519
C22	C	-4.099341	-0.268737	-0.865275
C23	C	-4.063150	-0.062025	-0.834384
C24	C	-4.214519	-0.167995	-0.939053
C25	C	-4.225525	0.060051	-0.389990
C26	C	-4.191223	0.198726	-0.392769
C27	C	-4.146436	-0.159735	-0.159846
C28	C	-4.061855	-0.160789	-0.016305
H29	H	-4.141114	-0.542075	-0.397066
C30	C	-3.559854	-0.148680	-0.781562
C31	C	-3.502425	-0.148644	-0.646627
C32	C	-3.284616	-0.142297	-0.593034
H33	H	-3.518361	-0.219632	-0.819415
H34	H	-3.492549	-0.073428	-0.798869
H35	H	-3.569706	-0.223888	-0.629330
H36	H	-3.543864	-0.077696	-0.608739
H37	H	-3.217311	-0.067044	-0.610341
H38	H	-3.243144	-0.213250	-0.630896
H39	H	-3.245621	-0.142260	-0.501474
H40	H	-3.899362	-0.345832	-0.992309
H41	H	-4.391933	-0.173277	-0.982233
C42	C	-3.629276	-0.586199	-0.377945
C43	C	-3.568079	-0.567588	-0.486136
C44	C	-3.392814	-0.626514	-0.478765
H45	H	-3.517261	-0.550963	-0.300331
H46	H	-3.663932	-0.674045	-0.377194
H47	H	-3.533414	-0.479759	-0.486875
H48	H	-3.680042	-0.602828	-0.563767
H49	H	-3.427470	-0.714361	-0.478014
H50	H	-3.280815	-0.591273	-0.401146
H51	H	-3.351282	-0.613905	-0.552176
H52	H	-3.832579	0.035477	-0.935382
H53	H	-4.111269	0.022310	-0.786428
C54	C	-4.204170	-0.389340	-0.836160
C55	C	-4.142573	-0.388991	-0.701045
C56	C	-4.239064	-0.500076	-0.674173
H57	H	-4.352200	-0.394139	-0.870950
H58	H	-4.163342	-0.460139	-0.874782
H59	H	-4.183414	-0.318211	-0.662438
H60	H	-3.994558	-0.384212	-0.666225
H61	H	-4.198236	-0.570875	-0.712795
H62	H	-4.387090	-0.504865	-0.708970
H63	H	-4.197269	-0.499859	-0.582497
H64	H	-4.333973	-0.753271	-0.399017
C65	C	-3.822087	-0.797385	-0.379896
C66	C	-3.760890	-0.778775	-0.488087
C67	C	-3.585625	-0.837701	-0.480716
H68	H	-3.710072	-0.762149	-0.302281
H69	H	-3.856743	-0.885231	-0.379145
H70	H	-3.726225	-0.690946	-0.488825
H71	H	-3.872853	-0.814014	-0.565717
H72	H	-3.620281	-0.925547	-0.479965
H73	H	-3.473626	-0.802459	-0.403097
H74	H	-3.544093	-0.825092	-0.554126
