data_functionalizedCrystal
_audit_creation_method	'MofGen! by Chris Wilmer'
_symmetry_space_group_name_H-M	'P1'
_symmetry_Int_Tables_number	1
_symmetry_cell_setting	triclinic
loop_
_symmetry_equiv_pos_as_xyz
  x,y,z
_cell_length_a	17.699083
_cell_length_b	14.853567
_cell_length_c	16.776229
_cell_angle_alpha	89.997147
_cell_angle_beta	89.998886
_cell_angle_gamma	83.458972
loop_
_atom_site_label
_atom_site_type_symbol
_atom_site_fract_x
_atom_site_fract_y
_atom_site_fract_z
O1	O	1.004374	0.114008	-0.066170
O2	O	0.784034	0.128841	-0.066195
O3	O	0.900090	-0.009827	-0.066184
O4	O	0.888319	0.252676	-0.066181
O5	O	0.900075	-0.009835	0.066392
O6	O	0.784019	0.128832	0.066381
O7	O	1.004359	0.114000	0.066407
Zn8	Zn	0.894187	0.121415	0.087443
Zn9	Zn	0.894207	0.121426	-0.087232
O10	O	0.888303	0.252667	0.066396
C11	C	0.755828	0.128305	0.000090
C12	C	0.671806	0.126711	0.000080
C13	C	0.623396	0.208106	0.000081
C14	C	0.544449	0.206602	0.000092
C15	C	0.513913	0.123703	0.000095
C16	C	0.562329	0.042301	0.000096
C17	C	0.641275	0.043806	0.000091
C18	C	0.243950	0.036232	0.000116
C19	C	0.164999	0.034734	0.000118
C20	C	0.147125	0.199028	0.000116
C21	C	0.226070	0.200533	0.000111
C22	C	0.274479	0.119132	0.000116
C23	C	0.360083	0.120763	0.000107
C24	C	0.428311	0.122070	0.000099
C25	C	0.899549	-0.043418	0.000102
C26	C	0.897951	-0.143496	0.000095
C27	C	0.822255	-0.555751	0.000101
C28	C	0.960131	-0.577539	0.000117
C29	C	0.961634	-0.483511	0.000112
C30	C	0.893446	-0.425598	0.000103
C31	C	0.823756	-0.461714	0.000099
C32	C	1.031324	-0.447389	0.000125
C33	C	1.032829	-0.353355	0.000121
C34	C	0.964641	-0.295441	0.000107
C35	C	0.894947	-0.331561	0.000101
C36	C	0.826759	-0.273648	0.000092
C37	C	0.757065	-0.309767	0.000081
C38	C	0.755567	-0.403799	0.000084
C39	C	0.966139	-0.201409	0.000104
C40	C	0.828260	-0.179611	0.000090
C41	C	1.032565	0.114535	0.000120
C42	C	1.116587	0.116130	0.000125
C43	C	0.888844	0.286258	0.000108
C44	C	0.890443	0.386336	0.000110
N45	N	0.894178	0.121406	0.206655
N46	N	0.894221	0.121427	-0.206443
C47	C	0.945583	0.060029	0.248377
C48	C	0.945587	0.060029	0.331829
C49	C	0.894190	0.121410	0.373558
C50	C	0.842779	0.182790	0.331830
C51	C	0.842772	0.182786	0.248379
C52	C	0.842806	0.182808	0.668377
C53	C	0.842819	0.182809	0.751834
C54	C	0.945622	0.060051	0.751827
C55	C	0.945615	0.060046	0.668376
C56	C	0.894202	0.121423	0.626656
C57	C	0.894197	0.121422	0.536167
C58	C	0.894198	0.121416	0.464044
H59	H	0.107700	0.265309	0.000116
H60	H	0.648252	0.275612	0.000078
C61	C	1.109488	-0.313632	0.000123
H62	H	1.149882	-0.361591	0.000122
H63	H	1.112939	-0.277398	0.046350
H64	H	1.112941	-0.277409	-0.046120
H65	H	0.800912	0.232764	0.214410
C66	C	0.694529	-0.045726	0.000089
H67	H	0.745919	-0.032958	0.000094
H68	H	0.685265	-0.079728	-0.046141
H69	H	0.685264	-0.079724	0.046329
H70	H	1.022883	-0.172005	0.000118
C71	C	0.131407	-0.056457	0.000124
H72	H	0.077456	-0.045692	0.000116
H73	H	0.148014	-0.089967	0.046357
H74	H	0.148017	-0.089964	-0.046113
C75	C	0.745597	-0.595476	0.000092
H76	H	0.754465	-0.659773	0.000099
H77	H	0.717521	-0.575584	-0.046142
H78	H	0.717516	-0.575590	0.046329
C79	C	0.786261	0.250326	0.622495
H80	H	0.755660	0.286888	0.659301
H81	H	0.754718	0.217945	0.589947
H82	H	0.813525	0.287817	0.589935
H83	H	0.987440	0.010050	0.214407
C84	C	0.259656	0.291722	0.000111
H85	H	0.219517	0.339984	0.000121
H86	H	0.290081	0.295730	-0.046121
H87	H	0.290081	0.295715	0.046349
H88	H	1.015647	-0.624697	0.000131
H89	H	0.505037	0.272882	0.000092
C90	C	1.002164	-0.007454	0.622475
H91	H	0.994806	0.001344	0.566799
H92	H	0.993901	-0.067618	0.636149
H93	H	1.052683	0.002284	0.636151
C94	C	0.297190	-0.053305	0.000116
H95	H	0.267695	-0.102889	0.000110
H96	H	0.328359	-0.056139	0.046347
H97	H	0.328357	-0.056133	-0.046123
H98	H	0.537461	-0.025197	0.000110
H99	H	0.701546	-0.262602	0.000080
C100	C	0.753251	-0.115913	0.000081
H101	H	0.711534	-0.150894	0.000080
H102	H	0.750976	-0.078774	-0.046150
H103	H	0.750965	-0.078784	0.046321
H104	H	0.987483	0.010072	0.785804
H105	H	0.987445	0.010050	0.365798
H106	H	0.800962	0.232795	0.785808
C107	C	0.786218	0.250283	0.377726
H108	H	0.755591	0.286823	0.340923
H109	H	0.813460	0.287785	0.410285
H110	H	0.754692	0.217867	0.410273
C111	C	0.678912	-0.443532	0.000084
H112	H	0.687786	-0.507828	0.000097
H113	H	0.650832	-0.423650	-0.046150
H114	H	0.650832	-0.423642	0.046320
H115	H	1.086839	-0.494548	0.000140
