data_functionalizedCrystal
_audit_creation_method	'MofGen! by Chris Wilmer'
_symmetry_space_group_name_H-M	'P1'
_symmetry_Int_Tables_number	1
_symmetry_cell_setting	triclinic
loop_
_symmetry_equiv_pos_as_xyz
  x,y,z
_cell_length_a	12.759401
_cell_length_b	19.805405
_cell_length_c	19.805399
_cell_angle_alpha	89.969291
_cell_angle_beta	89.985865
_cell_angle_gamma	90.027935
loop_
_atom_site_label
_atom_site_type_symbol
_atom_site_fract_x
_atom_site_fract_y
_atom_site_fract_z
Zn1	Zn	1.606110	-0.269442	-0.382662
Zn2	Zn	1.605986	-0.382633	-0.269470
Zn3	Zn	1.430430	-0.269466	-0.269492
Zn4	Zn	1.430365	-0.382597	-0.382622
O5	O	1.518223	-0.326035	-0.326062
O6	O	1.753115	-0.284462	-0.367654
O7	O	1.582674	-0.367647	-0.174756
O8	O	1.453813	-0.174747	-0.284530
O9	O	1.753024	-0.367623	-0.284493
O10	O	1.582885	-0.174729	-0.367675
O11	O	1.453693	-0.284503	-0.174772
O12	O	1.283400	-0.284469	-0.284491
O13	O	1.453703	-0.367562	-0.477344
O14	O	1.283353	-0.367586	-0.367608
O15	O	1.582822	-0.284427	-0.477373
O16	O	1.582611	-0.477345	-0.284455
O17	O	1.453583	-0.477319	-0.367587
C18	C	1.245256	-0.326026	-0.326048
C19	C	1.128479	-0.326039	-0.326058
C20	C	1.518105	-0.501891	-0.326029
C21	C	1.518150	-0.577123	-0.326037
C22	C	1.073620	-0.369384	-0.369269
C23	C	0.963896	-0.369387	-0.369283
C24	C	0.963900	-0.282698	-0.282869
C25	C	1.073622	-0.282692	-0.282859
C26	C	1.585400	-0.612458	-0.282796
C27	C	1.585445	-0.683147	-0.282811
C28	C	1.518233	-0.718498	-0.326065
C29	C	1.450980	-0.683158	-0.369311
C30	C	1.450942	-0.612471	-0.369299
C31	C	1.451135	-0.968231	-0.369361
C32	C	1.451177	-1.038923	-0.369368
C33	C	1.585639	-1.038907	-0.282873
C34	C	1.585600	-0.968220	-0.282861
C35	C	1.518351	-0.932886	-0.326110
C36	C	1.518305	-0.856237	-0.326094
C37	C	1.518273	-0.795145	-0.326077
C38	C	1.792256	-0.326044	-0.326075
C39	C	1.909033	-0.326047	-0.326081
C40	C	1.518269	-0.325988	-0.502604
C41	C	1.518289	-0.325968	-0.577836
C42	C	1.518370	-0.149492	-0.326109
C43	C	1.518433	-0.074260	-0.326130
C44	C	1.451148	-0.282671	-0.613188
C45	C	1.451162	-0.282658	-0.683877
C46	C	1.518324	-0.325938	-0.719212
C47	C	1.585468	-0.369240	-0.683855
C48	C	1.585447	-0.369256	-0.613168
C49	C	1.585551	-0.369177	-0.968929
C50	C	1.585569	-0.369156	-1.039621
C51	C	1.451266	-0.282578	-1.039637
C52	C	1.451245	-0.282595	-0.968950
C53	C	1.518385	-0.325898	-0.933600
C54	C	1.518367	-0.325913	-0.856951
C55	C	1.518348	-0.325921	-0.795859
C56	C	1.518237	-0.326033	-0.150206
C57	C	1.518421	-0.325862	-0.074974
H58	H	1.118281	-0.404678	-0.404446
C59	C	1.718339	-0.676030	-0.197301
C60	C	1.659363	-0.721987	-0.235274
H61	H	1.763969	-0.700010	-0.167950
H62	H	1.758483	-0.648418	-0.226807
H63	H	1.672558	-0.648502	-0.171384
H64	H	1.705144	-0.749512	-0.261195
H65	H	1.619215	-0.749611	-0.205764
H66	H	1.396559	-0.247349	-0.940184
H67	H	1.640127	-0.583679	-0.247571
C68	C	1.391637	-0.244112	-1.148004
C69	C	1.377449	-0.234985	-1.078497
H70	H	1.346062	-0.214733	-1.171991
H71	H	1.462229	-0.234204	-1.159594
H72	H	1.376223	-0.289588	-1.159565
H73	H	1.392870	-0.189510	-1.066935
H74	H	1.306841	-0.244888	-1.066902
H75	H	1.396446	-1.067705	-0.404596
H76	H	1.640209	-0.404445	-0.940155
C77	C	1.309816	-0.273282	-0.533689
C78	C	1.377321	-0.235096	-0.574348
H79	H	1.264242	-0.243910	-0.509709
H80	H	1.269616	-0.302758	-0.561255
H81	H	1.349814	-0.299066	-0.502519
H82	H	1.337323	-0.209316	-0.605521
H83	H	1.417526	-0.205608	-0.546780
C84	C	1.436337	-0.762602	-0.460357
C85	C	1.377100	-0.722018	-0.416856
H86	H	1.390721	-0.786594	-0.489705
H87	H	1.482060	-0.734985	-0.486269
H88	H	1.476390	-0.793761	-0.434597
H89	H	1.337052	-0.690856	-0.442616
H90	H	1.331358	-0.749638	-0.390941
C91	C	0.974920	-0.455079	-0.454690
C92	C	0.903594	-0.417036	-0.416778
H93	H	0.937690	-0.484499	-0.484010
H94	H	1.017749	-0.425623	-0.480630
H95	H	1.017682	-0.480926	-0.425138
H96	H	0.860838	-0.391185	-0.446330
H97	H	0.860747	-0.446496	-0.390836
H98	H	1.118289	-0.247391	-0.247672
C99	C	0.795704	-0.244214	-0.244514
C100	C	0.903597	-0.235055	-0.235383
H101	H	0.758480	-0.214803	-0.215194
H102	H	0.777762	-0.234369	-0.290006
H103	H	0.777698	-0.289680	-0.234522
H104	H	0.921604	-0.189590	-0.245380
H105	H	0.921546	-0.244895	-0.189881
C106	C	1.718528	-0.975305	-0.197368
C107	C	1.659485	-0.929362	-0.235318
H108	H	1.764149	-0.951315	-0.168021
H109	H	1.672797	-1.002916	-0.171454
H110	H	1.758696	-1.002836	-0.226893
H111	H	1.619311	-0.901834	-0.205792
H112	H	1.705222	-0.901740	-0.261233
C113	C	1.718207	-0.454834	-0.620247
C114	C	1.659250	-0.416850	-0.574306
H115	H	1.763771	-0.484216	-0.596255
H116	H	1.672417	-0.480712	-0.647808
H117	H	1.758431	-0.425333	-0.647827
H118	H	1.619020	-0.446351	-0.546729
H119	H	1.705046	-0.390970	-0.546734
H120	H	1.640400	-1.067684	-0.247660
C121	C	1.645140	-0.407657	-0.792205
C122	C	1.659294	-0.416816	-0.722694
H123	H	1.690725	-0.437026	-0.816180
H124	H	1.574553	-0.417558	-0.803781
H125	H	1.660560	-0.362175	-0.803796
H126	H	1.643865	-0.462296	-0.711102
H127	H	1.729897	-0.406919	-0.711114
H128	H	1.396485	-0.247404	-0.712657
H129	H	1.396377	-0.939468	-0.404574
C130	C	1.318032	-0.619583	-0.454801
C131	C	1.377020	-0.573628	-0.416833
H132	H	1.272395	-0.595601	-0.484146
H133	H	1.363798	-0.647111	-0.480716
H134	H	1.277885	-0.647194	-0.425286
H135	H	1.417174	-0.546019	-0.446347
H136	H	1.331248	-0.546088	-0.390915
H137	H	1.640262	-0.404403	-1.068389
