data_functionalizedCrystal
_audit_creation_method	'MofGen! by Chris Wilmer'
_symmetry_space_group_name_H-M	'P1'
_symmetry_Int_Tables_number	1
_symmetry_cell_setting	triclinic
loop_
_symmetry_equiv_pos_as_xyz
  x,y,z
_cell_length_a	19.805405
_cell_length_b	12.759401
_cell_length_c	12.759393
_cell_angle_alpha	89.977912
_cell_angle_beta	90.037628
_cell_angle_gamma	89.975727
loop_
_atom_site_label
_atom_site_type_symbol
_atom_site_fract_x
_atom_site_fract_y
_atom_site_fract_z
Zn1	Zn	-0.269462	-1.606170	0.594038
Zn2	Zn	-0.382667	-1.606028	0.418339
Zn3	Zn	-0.269493	-1.430472	0.418366
Zn4	Zn	-0.382610	-1.430425	0.593970
O5	O	-0.326058	-1.518274	0.506178
O6	O	-0.284489	-1.753172	0.570748
O7	O	-0.367691	-1.582701	0.271322
O8	O	-0.174772	-1.453858	0.441709
O9	O	-0.367661	-1.753068	0.441663
O10	O	-0.174749	-1.582942	0.570774
O11	O	-0.284542	-1.453720	0.271341
O12	O	-0.284487	-1.283445	0.441643
O13	O	-0.367564	-1.453777	0.741000
O14	O	-0.367594	-1.283410	0.570658
O15	O	-0.284435	-1.582896	0.741050
O16	O	-0.477376	-1.582655	0.441597
O17	O	-0.477334	-1.453640	0.570632
C18	C	-0.326038	-1.245306	0.506147
C19	C	-0.326046	-1.128530	0.506158
C20	C	-0.369283	-1.073617	0.438850
C21	C	-0.369291	-0.963893	0.438863
C22	C	-0.282822	-0.964004	0.573497
C23	C	-0.282817	-1.073726	0.573488
C24	C	-0.419203	-1.073552	0.361117
C25	C	-0.419212	-0.963828	0.361130
C26	C	-0.501914	-1.518155	0.506127
C27	C	-0.577146	-1.518201	0.506141
C28	C	-0.612489	-1.585445	0.439023
C29	C	-0.683178	-1.585489	0.439046
C30	C	-0.718521	-1.518284	0.506183
C31	C	-0.683173	-1.451038	0.573308
C32	C	-0.612486	-1.450999	0.573290
C33	C	-0.968246	-1.451193	0.573386
C34	C	-1.038938	-1.451234	0.573397
C35	C	-1.038938	-1.585683	0.439142
C36	C	-0.968251	-1.585644	0.439124
C37	C	-0.932909	-1.518402	0.506253
C38	C	-0.856260	-1.518356	0.506228
C39	C	-0.795169	-1.518324	0.506203
C40	C	-0.149515	-1.518421	0.506252
C41	C	-0.074283	-1.518484	0.506284
C42	C	-0.325990	-1.518347	0.780212
C43	C	-0.325960	-1.518379	0.896988
C44	C	-0.326071	-0.792307	0.506199
C45	C	-0.326060	-0.909084	0.506181
C46	C	-0.326077	-1.518261	0.233211
C47	C	-0.325915	-1.518433	0.116435
C48	C	-0.282671	-1.585620	0.951878
C49	C	-0.282646	-1.585645	1.061602
C50	C	-0.369207	-1.451184	1.061537
C51	C	-0.369228	-1.451154	0.951815
C52	C	-0.232698	-1.663254	0.951917
C53	C	-0.232673	-1.663279	1.061641
H54	H	-0.400365	-1.107559	0.283875
C55	C	-1.060615	-1.763636	0.388132
C56	C	-1.077779	-1.659618	0.365358
H57	H	-1.084588	-1.809278	0.342575
H58	H	-1.072160	-1.778974	0.458729
H59	H	-1.013455	-1.773202	0.378518
H60	H	-1.124938	-1.650050	0.374980
H61	H	-1.066238	-1.644275	0.294744
H62	H	-1.067713	-1.396509	0.628076
C63	C	-0.530635	-0.999580	0.425960
C64	C	-0.486471	-0.917860	0.400268
H65	H	-0.572157	-0.971197	0.450116
H66	H	-0.511089	-1.041508	0.479513
H67	H	-0.538619	-1.041446	0.365668
H68	H	-0.478483	-0.875998	0.460563
H69	H	-0.506021	-0.875914	0.346711
H70	H	-0.939476	-1.396440	0.628043
H71	H	-0.182867	-1.634181	1.095695
H72	H	-0.405110	-0.934018	0.279803
H73	H	-0.404476	-1.396396	0.907128
C74	C	-0.619596	-1.718353	0.306319
C75	C	-0.573643	-1.659319	0.365222
H76	H	-0.595614	-1.763966	0.260763
H77	H	-0.647210	-1.672615	0.266099
H78	H	-0.647123	-1.758528	0.352151
H79	H	-0.546119	-1.619138	0.319389
H80	H	-0.546018	-1.705063	0.405445
H81	H	-0.711951	-1.640245	0.384391
H82	H	-0.711956	-1.396323	0.627977
C83	C	-0.619582	-1.318103	0.706002
C84	C	-0.573634	-1.377085	0.647070
H85	H	-0.595595	-1.272470	0.751551
H86	H	-0.647109	-1.363873	0.746231
H87	H	-0.647196	-1.277951	0.660187
H88	H	-0.546023	-1.417243	0.692884
H89	H	-0.546095	-1.331309	0.606838
C90	C	-0.263167	-1.839699	1.016499
C91	C	-0.251637	-1.773111	1.101855
H92	H	-0.274878	-1.907499	1.041328
H93	H	-0.223401	-1.844155	0.975167
H94	H	-0.299050	-1.812609	0.975125
H95	H	-0.215750	-1.800198	1.143226
H96	H	-0.291407	-1.768659	1.143204
H97	H	-0.180279	-1.641502	0.922168
C98	C	-0.197349	-1.062809	0.706569
C99	C	-0.235292	-1.134087	0.647478
H100	H	-0.168005	-1.100076	0.752244
H101	H	-0.226873	-1.020020	0.746671
H102	H	-0.171425	-1.020003	0.660863
H103	H	-0.261219	-1.176888	0.693184
H104	H	-0.205764	-1.176894	0.607373
H105	H	-0.404432	-1.396450	1.106191
C106	C	-0.244435	-0.795856	0.633293
C107	C	-0.235301	-0.903759	0.647497
H108	H	-0.215094	-0.758667	0.678975
H109	H	-0.289920	-0.777865	0.648544
H110	H	-0.234476	-0.777855	0.562730
H111	H	-0.245266	-0.921762	0.718058
H112	H	-0.189806	-0.921757	0.632254
C113	C	-0.946556	-1.636915	0.261262
C114	C	-0.929403	-1.659521	0.365326
H115	H	-0.922577	-1.682532	0.215706
H116	H	-0.935011	-1.566337	0.245822
H117	H	-0.993715	-1.646564	0.251680
H118	H	-0.882246	-1.649864	0.374909
H119	H	-0.940944	-1.730116	0.380771
H120	H	-0.471640	-1.103309	0.382755
H121	H	-0.251491	-1.740520	0.917882
