data_functionalizedCrystal
_audit_creation_method	'MofGen! by Chris Wilmer'
_symmetry_space_group_name_H-M	'P1'
_symmetry_Int_Tables_number	1
_symmetry_cell_setting	triclinic
loop_
_symmetry_equiv_pos_as_xyz
  x,y,z
_cell_length_a	15.944551
_cell_length_b	15.944551
_cell_length_c	14.421503
_cell_angle_alpha	90.003141
_cell_angle_beta	90.003340
_cell_angle_gamma	96.501262
loop_
_atom_site_label
_atom_site_type_symbol
_atom_site_fract_x
_atom_site_fract_y
_atom_site_fract_z
O1	O	0.108320	-1.114529	-0.077017
O2	O	0.121677	-0.869980	-0.077040
O3	O	-0.007276	-0.998933	-0.077020
O4	O	0.237273	-0.985576	-0.077038
O5	O	-0.007257	-0.998911	0.077204
O6	O	0.121696	-0.869958	0.077183
O7	O	0.108340	-1.114508	0.077206
Cu8	Cu	0.115020	-0.992231	0.091277
Cu9	Cu	0.114997	-0.992256	-0.091110
O10	O	0.237293	-0.985555	0.077186
C11	C	-0.038561	-0.998367	0.000092
C12	C	-0.131807	-0.996705	0.000093
C13	C	0.121132	-0.838675	0.000069
C14	C	0.119470	-0.745429	0.000060
C15	C	0.108885	-1.145813	0.000096
C16	C	0.110547	-1.239059	0.000098
C17	C	-0.346663	-0.912801	0.000072
C18	C	-0.407671	-0.951753	0.076117
C19	C	-0.302533	-0.993698	0.000085
C20	C	-0.407674	-0.951793	-0.075935
C21	C	-0.467445	-0.990787	0.000074
C22	C	-0.362312	-1.032672	0.076193
C23	C	-0.362308	-1.032701	-0.075927
C24	C	-0.423298	-1.071711	0.000136
C25	C	-0.207530	-0.995372	0.000092
C26	C	-0.562446	-0.989119	0.000073
C27	C	0.268577	-0.986120	0.000072
C28	C	0.361823	-0.987782	0.000066
N29	N	0.115035	-0.992219	0.219558
C30	C	0.035565	-0.530572	0.000084
C31	C	0.074518	-0.469563	-0.075959
C32	C	0.116462	-0.574703	0.000071
C33	C	0.074556	-0.469564	0.076093
C34	C	0.113551	-0.409790	0.000086
C35	C	0.155437	-0.514922	-0.076035
C36	C	0.155464	-0.514929	0.076086
C37	C	0.194476	-0.453937	0.000024
C38	C	0.118137	-0.669705	0.000062
C39	C	0.111883	-0.314789	0.000089
N40	N	0.114975	-0.992275	-0.219392
C41	C	0.174636	-0.932581	0.469202
C42	C	0.190943	-1.008481	0.531011
C43	C	0.115015	-0.992240	0.408719
C44	C	0.098727	-0.916359	0.531005
C45	C	0.114997	-0.992253	0.591441
C46	C	0.131360	-1.068178	0.469167
C47	C	0.039111	-0.976007	0.469156
C48	C	0.055386	-1.051961	0.530936
C49	C	0.115027	-0.992231	0.303458
C50	C	0.114985	-0.992270	0.696700
H51	H	-0.427771	-0.917527	0.140401
H52	H	0.084959	-0.852183	0.558170
N53	N	-0.467232	-1.160729	0.000190
H54	H	-0.423715	-1.202092	0.000764
H55	H	-0.504085	-1.169600	0.057095
N56	N	0.200748	-0.541581	0.161252
H57	H	0.202012	-0.604764	0.160304
H58	H	0.260412	-0.512513	0.161815
N59	N	-0.335826	-1.077923	0.161462
H60	H	-0.387241	-1.097319	0.200053
H61	H	-0.307092	-1.128440	0.142126
N62	N	-0.053381	-0.574686	0.000007
H63	H	-0.083839	-0.558311	-0.057484
H64	H	-0.051574	-0.637795	0.000631
N65	N	0.029231	-0.442940	0.161248
H66	H	-0.030785	-0.471106	0.161181
H67	H	0.059251	-0.460249	0.218632
N68	N	0.283494	-0.410005	-0.000042
H69	H	0.281889	-0.346864	0.000504
H70	H	0.314259	-0.427296	0.056835
N71	N	0.275951	-1.026689	0.567018
H72	H	0.288711	-1.083567	0.543557
H73	H	0.320906	-0.981542	0.544564
N74	N	-0.335653	-1.078004	-0.161078
H75	H	-0.351962	-1.047400	-0.218492
H76	H	-0.272472	-1.079259	-0.160034
H77	H	0.145205	-1.132368	0.442119
N78	N	-0.011416	-1.118863	0.566625
H79	H	0.000992	-1.176128	0.544009
H80	H	-0.011354	-1.118101	0.636652
N81	N	0.200716	-0.541399	-0.161288
H82	H	0.201534	-0.604644	-0.160782
H83	H	0.170357	-0.524461	-0.218602
H84	H	0.040294	-0.449461	-0.140243
N85	N	0.241467	-0.865813	0.433299
H86	H	0.298776	-0.878193	0.455804
H87	H	0.240574	-0.865944	0.363274
H88	H	-0.025051	-0.962240	0.441965
N89	N	-0.434301	-0.906468	-0.161089
H90	H	-0.406136	-0.846452	-0.161023
H91	H	-0.416995	-0.936488	-0.218474
H92	H	-0.313356	-0.845652	0.000141
