data_functionalizedCrystal
_audit_creation_method	'MofGen! by Chris Wilmer'
_symmetry_space_group_name_H-M	'P1'
_symmetry_Int_Tables_number	1
_symmetry_cell_setting	triclinic
loop_
_symmetry_equiv_pos_as_xyz
  x,y,z
_cell_length_a	16.959455
_cell_length_b	29.839131
_cell_length_c	16.959447
_cell_angle_alpha	90.040294
_cell_angle_beta	90.024021
_cell_angle_gamma	90.032247
loop_
_atom_site_label
_atom_site_type_symbol
_atom_site_fract_x
_atom_site_fract_y
_atom_site_fract_z
Zn1	Zn	1.208329	-0.178886	0.446975
Zn2	Zn	1.208208	-0.254017	0.314770
Zn3	Zn	1.076149	-0.178898	0.314798
Zn4	Zn	1.076087	-0.253986	0.446895
O5	O	1.142193	-0.216447	0.380859
O6	O	1.318924	-0.188860	0.429459
O7	O	1.190666	-0.244071	0.204163
O8	O	1.093759	-0.116030	0.332377
O9	O	1.318835	-0.244059	0.332329
O10	O	1.190872	-0.116020	0.429486
O11	O	1.093642	-0.188882	0.204183
O12	O	0.965530	-0.188851	0.332299
O13	O	1.093654	-0.244005	0.557516
O14	O	0.965485	-0.244017	0.429350
O15	O	1.190812	-0.188829	0.557575
O16	O	1.190606	-0.316880	0.332251
O17	O	1.093537	-0.316857	0.429323
C18	C	0.936827	-0.216432	0.380819
C19	C	0.848970	-0.216437	0.380821
C20	C	0.477438	-0.245160	0.330258
C21	C	0.477552	-0.187771	0.431557
C22	C	0.560098	-0.187763	0.431538
C23	C	0.601318	-0.216455	0.380879
C24	C	0.559992	-0.245155	0.330239
C25	C	0.601430	-0.159067	0.482182
C26	C	0.683981	-0.159059	0.482166
C27	C	0.725202	-0.187749	0.431502
C28	C	0.683871	-0.216450	0.380860
C29	C	0.725091	-0.245142	0.330200
C30	C	0.683761	-0.273840	0.279553
C31	C	0.601213	-0.273845	0.279575
C32	C	0.807751	-0.187745	0.431480
C33	C	0.807644	-0.245136	0.330181
C34	C	1.142073	-0.333169	0.380793
C35	C	1.142094	-0.383104	0.380791
C36	C	1.192749	-0.692707	0.431496
C37	C	1.192834	-0.880381	0.431544
O38	O	1.235785	-0.904612	0.474606
N39	N	1.142328	-0.903889	0.380947
C40	C	1.091792	-0.880476	0.330338
O41	O	1.048829	-0.904778	0.287310
C42	C	1.091703	-0.692804	0.330296
C43	C	1.142219	-0.669298	0.380890
C44	C	1.243260	-0.669202	0.482087
C45	C	1.243241	-0.622286	0.482072
C46	C	1.192711	-0.598877	0.431465
C47	C	1.142200	-0.622383	0.380875
C48	C	1.041164	-0.669392	0.279692
C49	C	1.041145	-0.622471	0.279687
C50	C	1.091661	-0.598965	0.330281
C51	C	1.091651	-0.552058	0.330253
N52	N	1.142158	-0.528549	0.380850
C53	C	1.192688	-0.551959	0.431456
C54	C	1.091844	-0.979007	0.330363
C55	C	1.091867	-1.025924	0.330373
C56	C	1.192908	-1.025826	0.431580
C57	C	1.192888	-0.978907	0.431565
C58	C	1.142350	-0.955498	0.380960
C59	C	1.192645	-0.453433	0.431419
C60	C	1.192623	-0.406513	0.431397
C61	C	1.091579	-0.406616	0.330194
C62	C	1.091603	-0.453532	0.330213
C63	C	1.142138	-0.476939	0.380832
O64	O	1.048717	-0.527798	0.287219
O65	O	1.235632	-0.527649	0.474491
C66	C	1.192767	-0.739623	0.431512
C67	C	1.142256	-0.763129	0.380921
C68	C	1.091727	-0.739719	0.330314
C69	C	1.142280	-0.810047	0.380930
C70	C	1.192810	-0.833456	0.431537
C71	C	1.243316	-0.809948	0.482133
C72	C	1.243297	-0.763032	0.482118
C73	C	1.041220	-0.763228	0.279718
C74	C	1.041243	-0.810143	0.279737
C75	C	1.091773	-0.833553	0.330343
C76	C	1.348362	-0.216462	0.380900
C77	C	1.436218	-0.216468	0.380917
C78	C	1.142239	-0.216412	0.587028
C79	C	1.142259	-0.216397	0.674884
C80	C	1.142336	-0.099268	0.380943
C81	C	1.142397	-0.049334	0.380979
C82	C	1.142193	-0.216449	0.175493
C83	C	1.142327	-0.216337	0.087637
C84	C	1.192785	-0.245125	0.716149
C85	C	1.091747	-0.187659	0.716173
C86	C	1.091760	-0.187646	0.798719
C87	C	1.142286	-0.216373	0.839984
C88	C	1.192798	-0.245113	0.798703
C89	C	1.041244	-0.158909	0.840006
C90	C	1.041255	-0.158895	0.922557
C91	C	1.091785	-0.187620	0.963824
C92	C	1.142300	-0.216362	0.922537
C93	C	1.192825	-0.245089	0.963802
C94	C	1.243344	-0.273828	0.922518
C95	C	1.243328	-0.273839	0.839969
C96	C	1.091801	-0.187610	1.046372
C97	C	1.192839	-0.245077	1.046356
H98	H	0.717333	-0.297204	0.238311
N99	N	0.849734	-0.274444	0.278421
N100	N	0.812822	-0.300061	0.233206
H101	H	0.842547	-0.320760	0.196648
N102	N	0.435227	-0.274468	0.278515
N103	N	0.389149	-0.258626	0.228207
H104	H	0.359337	-0.279324	0.191661
N105	N	0.558984	-0.303155	0.227850
N106	N	0.485280	-0.303156	0.227879
H107	H	0.455452	-0.323856	0.191350
H108	H	0.567863	-0.135711	0.523431
N109	N	1.294941	-0.303173	0.964685
N110	N	1.294934	-0.303159	1.038389
H111	H	1.331372	-0.323883	1.068173
H112	H	1.233986	-0.268469	1.079948
H113	H	1.284457	-0.297237	0.806348
N114	N	1.040131	-0.158313	0.674042
N115	N	0.967193	-0.161283	0.683245
H116	H	0.930738	-0.140554	0.653490
N117	N	1.244386	-0.274474	0.673972
N118	N	1.244375	-0.274480	0.600268
H119	H	1.280819	-0.295209	0.570478
H120	H	0.841397	-0.164380	0.472718
H121	H	1.000029	-0.688522	0.238492
H122	H	1.000103	-0.135524	0.806402
H123	H	1.000119	-0.135494	0.956164
H124	H	1.050688	-0.959950	0.289153
N125	N	1.040193	-0.158258	1.088531
N126	N	0.995079	-0.132614	1.051678
H127	H	0.958628	-0.111883	1.081451
N128	N	1.244243	-0.382508	0.483070
N129	N	1.317183	-0.387726	0.477893
H130	H	1.353642	-0.370775	0.514385
N131	N	0.435438	-0.158471	0.483303
N132	N	0.361734	-0.158483	0.483317
H133	H	0.331987	-0.137789	0.519864
N134	N	1.294896	-0.693108	0.533770
N135	N	1.345302	-0.719271	0.506013
H136	H	1.381779	-0.736153	0.542512
N137	N	1.039997	-0.477538	0.278529
N138	N	0.989608	-0.503722	0.306285
H139	H	0.953155	-0.520671	0.269784
H140	H	0.717624	-0.135691	0.523405
H141	H	1.233790	-0.472486	0.472643
H142	H	1.284372	-0.603150	0.523272
N143	N	1.244495	-0.954905	0.483249
N144	N	1.289609	-0.975818	0.528423
H145	H	1.326059	-0.958869	0.564928
N146	N	1.244534	-1.049742	0.483265
N147	N	1.294932	-1.075912	0.455512
H148	H	1.331389	-1.092804	0.492015
N149	N	1.040286	-1.049933	0.278673
N150	N	1.045573	-1.044722	0.205742
H151	H	1.009141	-1.061677	0.169228
N152	N	0.989509	-0.598560	0.228003
N153	N	0.916573	-0.603833	0.233182
H154	H	0.880105	-0.586946	0.196680
N155	N	1.039980	-0.382692	0.278499
N156	N	1.039978	-0.340802	0.278498
H157	H	1.003535	-0.323903	0.241990
H158	H	1.284432	-0.743897	0.523317
N159	N	1.294933	-0.833872	0.533816
N160	N	1.294937	-0.875763	0.533813
H161	H	1.331387	-0.892662	0.570313
H162	H	1.000109	-0.829278	0.238529
H163	H	1.000071	-0.744171	0.238509
