data_functionalizedCrystal
_audit_creation_method	'MofGen! by Chris Wilmer'
_symmetry_space_group_name_H-M	'P1'
_symmetry_Int_Tables_number	1
_symmetry_cell_setting	triclinic
loop_
_symmetry_equiv_pos_as_xyz
  x,y,z
_cell_length_a	12.759401
_cell_length_b	16.625545
_cell_length_c	12.759393
_cell_angle_alpha	89.968435
_cell_angle_beta	90.018567
_cell_angle_gamma	89.974006
loop_
_atom_site_label
_atom_site_type_symbol
_atom_site_fract_x
_atom_site_fract_y
_atom_site_fract_z
Zn1	Zn	1.606166	0.320975	0.593983
Zn2	Zn	1.606023	0.455831	0.418303
Zn3	Zn	1.430468	0.321014	0.418322
Zn4	Zn	1.430419	0.455767	0.593945
O5	O	1.518269	0.388397	0.506138
O6	O	1.753168	0.338874	0.570687
O7	O	1.582696	0.437991	0.271285
O8	O	1.453855	0.208177	0.441648
O9	O	1.753063	0.437953	0.441616
O10	O	1.582940	0.208147	0.570706
O11	O	1.453716	0.338942	0.271299
O12	O	1.283440	0.338879	0.441611
O13	O	1.453772	0.437843	0.740971
O14	O	1.283404	0.437881	0.570640
O15	O	1.582892	0.338811	0.740999
O16	O	1.582648	0.568655	0.441578
O17	O	1.453633	0.568608	0.570621
C18	C	1.245302	0.388378	0.506124
C19	C	1.128525	0.388389	0.506143
C20	C	1.073711	0.336896	0.573454
C21	C	0.963987	0.336912	0.573461
C22	C	0.963901	0.439920	0.438841
C23	C	1.073623	0.439900	0.438830
C24	C	1.128613	0.285386	0.640766
C25	C	1.073799	0.233889	0.708084
C26	C	0.964075	0.233905	0.708091
C27	C	0.909165	0.285416	0.640780
C28	C	1.518148	0.597888	0.506117
C29	C	1.518193	0.687509	0.506142
C30	C	1.518231	0.760291	0.506167
C31	C	1.518289	0.851600	0.506195
C32	C	1.518342	0.924376	0.506212
C33	C	1.518399	1.015690	0.506239
C34	C	1.792302	0.388416	0.506154
C35	C	1.909079	0.388425	0.506160
C36	C	1.518342	0.388315	0.780172
C37	C	1.518374	0.388281	0.896949
C38	C	1.518411	1.178088	0.506197
C39	C	1.518451	1.088467	0.506256
C40	C	1.518256	0.388420	0.233171
C41	C	1.518428	0.388227	0.116395
C42	C	1.585616	0.336710	0.951827
C43	C	1.585641	0.336681	1.061551
C44	C	1.451179	0.439800	1.061509
C45	C	1.451149	0.439824	0.951787
C46	C	1.652841	0.285167	0.896989
C47	C	1.720090	0.233593	0.951868
C48	C	1.720115	0.233564	1.061592
C49	C	1.652891	0.285108	1.116438
H50	H	1.118254	0.481830	0.384019
C51	C	1.652921	0.285077	1.237132
H52	H	1.702600	0.246983	1.261963
H53	H	1.585140	0.271125	1.261957
H54	H	1.671066	0.337108	1.261934
C55	C	1.794082	0.176835	1.121956
H56	H	1.834116	0.146148	1.073579
H57	H	1.753935	0.141687	1.164768
H58	H	1.839848	0.207681	1.164750
H59	H	0.919184	0.481860	0.384042
H60	H	1.396448	0.481765	1.106173
C61	C	0.788471	0.285435	0.640790
H62	H	0.763687	0.247392	0.690523
H63	H	0.763620	0.271437	0.573027
H64	H	0.763646	0.337492	0.658853
C65	C	1.377225	0.496582	0.891416
H66	H	1.337215	0.527293	0.939788
H67	H	1.331449	0.465770	0.848601
H68	H	1.417421	0.531719	0.848625
H69	H	1.217956	0.285367	0.640768
C70	C	1.134194	0.177231	0.782119
H71	H	1.207392	0.184600	0.772484
H72	H	1.116226	0.123043	0.766872
H73	H	1.116233	0.189106	0.852687
H74	H	0.919448	0.191968	0.762897
C75	C	1.652813	0.285194	0.776297
H76	H	1.702472	0.247107	0.751495
H77	H	1.670928	0.337235	0.751460
H78	H	1.585015	0.271241	0.751477
H79	H	1.774814	0.191622	0.907205
