data_functionalizedCrystal
_audit_creation_method	'MofGen! by Chris Wilmer'
_symmetry_space_group_name_H-M	'P1'
_symmetry_Int_Tables_number	1
_symmetry_cell_setting	triclinic
loop_
_symmetry_equiv_pos_as_xyz
  x,y,z
_cell_length_a	15.944499
_cell_length_b	15.944493
_cell_length_c	7.540329
_cell_angle_alpha	90.002283
_cell_angle_beta	89.994450
_cell_angle_gamma	83.476327
loop_
_atom_site_label
_atom_site_type_symbol
_atom_site_fract_x
_atom_site_fract_y
_atom_site_fract_z
O1	O	1.114527	0.108127	-0.147565
O2	O	1.614527	0.608127	0.352435
O3	O	0.869969	0.121529	-0.147543
O4	O	1.369969	0.621529	0.352457
O5	O	0.998952	-0.007451	-0.147569
O6	O	1.498952	0.492549	0.352431
O7	O	0.985544	0.237107	-0.147539
O8	O	1.485544	0.737107	0.352461
O9	O	0.998944	-0.007453	0.147396
O10	O	1.498944	0.492547	0.647396
O11	O	0.869961	0.121527	0.147422
O12	O	1.369961	0.621527	0.647422
O13	O	1.114519	0.108125	0.147400
O14	O	1.614519	0.608125	0.647400
Cu15	Cu	0.992239	0.114826	0.174344
Cu16	Cu	1.492239	0.614826	0.674344
Cu17	Cu	0.992248	0.114828	-0.174487
Cu18	Cu	1.492248	0.614828	0.325513
O19	O	0.985536	0.237106	0.147426
O20	O	1.485536	0.737106	0.647426
C21	C	0.838670	0.120979	-0.000058
C22	C	1.338670	0.620979	0.499942
C23	C	0.745422	0.119334	-0.000050
C24	C	1.245422	0.619334	0.499950
C25	C	0.453871	0.194269	-0.000067
C26	C	0.953871	0.694269	0.499933
C27	C	0.514912	0.155317	-0.145508
C28	C	1.014912	0.655317	0.354492
C29	C	0.409787	0.113358	-0.000092
C30	C	0.909787	0.613358	0.499908
C31	C	0.514890	0.155293	0.145304
C32	C	1.014890	0.655293	0.645304
C33	C	0.574695	0.116299	-0.000068
C34	C	1.074695	0.616299	0.499932
C35	C	0.469600	0.074384	-0.145653
C36	C	0.969600	0.574384	0.354347
C37	C	0.469572	0.074372	0.145290
C38	C	0.969572	0.574372	0.645290
C39	C	0.530595	0.035361	-0.000187
C40	C	1.030595	0.535361	0.499813
C41	C	0.314787	0.111666	-0.000107
C42	C	0.814787	0.611666	0.499893
C43	C	0.669694	0.117984	-0.000066
C44	C	1.169694	0.617984	0.499934
C45	C	0.998400	-0.038747	-0.000094
C46	C	1.498400	0.461253	0.499906
C47	C	0.996757	-0.131995	-0.000117
C48	C	1.496757	0.368005	0.499883
C49	C	1.072679	-0.367769	-0.000090
C50	C	1.572679	0.132231	0.499910
C51	C	1.031741	-0.418329	-0.145519
C52	C	1.531741	0.081671	0.354481
C53	C	0.993713	-0.302716	-0.000095
C54	C	1.493713	0.197284	0.499905
C55	C	1.031715	-0.418307	0.145294
C56	C	1.531715	0.081693	0.645294
C57	C	0.990778	-0.467625	-0.000066
C58	C	1.490778	0.032375	0.499934
C59	C	0.952796	-0.352047	-0.145643
C60	C	1.452796	0.147953	0.354357
C61	C	0.952781	-0.352021	0.145300
C62	C	1.452781	0.147979	0.645300
C63	C	0.911785	-0.402548	-0.000164
C64	C	1.411785	0.097452	0.499836
C65	C	0.995405	-0.207716	-0.000113
C66	C	1.495405	0.292284	0.499887
C67	C	0.989079	-0.562622	-0.000060
C68	C	1.489079	-0.062622	0.499940
C69	C	1.145818	0.108675	-0.000089
C70	C	1.645818	0.608675	0.499911
C71	C	1.239066	0.110320	-0.000108
C72	C	1.739066	0.610320	0.499892
C73	C	0.986088	0.268401	-0.000052
C74	C	1.486088	0.768401	0.499948
C75	C	0.987731	0.361650	-0.000042
C76	C	1.487731	0.861650	0.499958
N77	N	0.992239	0.114824	0.419692
N78	N	1.492239	0.614824	0.919692
N79	N	0.992255	0.114823	-0.419835
N80	N	1.492255	0.614823	0.080165
H81	H	0.534955	0.189528	0.268259
H82	H	1.034955	0.689528	0.768259
H83	H	1.065077	-0.447244	0.268235
H84	H	1.565077	0.052756	0.768235
H85	H	1.140699	-0.352153	-0.000243
H86	H	1.640699	0.147847	0.499757
Br87	Br	0.436326	0.017386	-0.350813
Br88	Br	0.936326	0.517386	0.149187
H89	H	0.535006	0.189542	-0.268452
H90	H	1.035006	0.689542	0.231548
H91	H	0.449459	0.040177	0.268244
H92	H	0.949459	0.540177	0.768244
Br93	Br	0.897258	-0.303718	0.350247
Br94	Br	1.397258	0.196282	0.850247
H95	H	0.563787	-0.031847	-0.000273
H96	H	1.063787	0.468153	0.499727
H97	H	0.843713	-0.418002	-0.000237
H98	H	1.343713	0.081998	0.499763
H99	H	0.919469	-0.323221	-0.268723
H100	H	1.419469	0.176779	0.231277
Br101	Br	0.398292	0.306183	-0.000276
Br102	Br	0.898292	0.806183	0.499724
Br103	Br	1.087326	-0.466585	-0.350455
Br104	Br	1.587326	0.033415	0.149545
