data_functionalizedCrystal
_audit_creation_method	'MofGen! by Chris Wilmer'
_symmetry_space_group_name_H-M	'P1'
_symmetry_Int_Tables_number	1
_symmetry_cell_setting	triclinic
loop_
_symmetry_equiv_pos_as_xyz
  x,y,z
_cell_length_a	23.096457
_cell_length_b	18.878441
_cell_length_c	18.878441
_cell_angle_alpha	89.999813
_cell_angle_beta	60.001209
_cell_angle_gamma	60.003277
loop_
_atom_site_label
_atom_site_type_symbol
_atom_site_fract_x
_atom_site_fract_y
_atom_site_fract_z
Zr1	Zr	0.633746	-0.092946	0.682400
O2	O	0.754526	-0.206040	0.569301
O3	O	0.512963	-0.058282	0.717068
O4	O	0.633744	-0.206051	0.717073
O5	O	0.633747	0.058297	0.569296
O6	O	0.633747	-0.206055	0.833640
O7	O	0.633744	-0.058270	0.569297
O8	O	0.417691	0.058277	0.833632
O9	O	0.849804	-0.206035	0.569304
O10	O	0.562647	-0.043495	0.818850
O11	O	0.562647	0.043501	0.731856
O12	O	0.704852	-0.130478	0.731862
O13	O	0.704852	-0.043482	0.644868
Zr14	Zr	0.633757	0.092959	0.868311
Zr15	Zr	0.633752	-0.092953	0.868312
Zr16	Zr	0.633752	0.092966	0.682399
Zr17	Zr	0.785704	-0.092939	0.682405
Zr18	Zr	0.481800	0.092952	0.868306
O19	O	0.754541	0.058295	0.833643
O20	O	0.754533	-0.206049	0.833644
O21	O	0.754533	0.058304	0.569300
O22	O	0.512978	0.206053	0.981410
O23	O	0.512970	-0.058291	0.981411
O24	O	0.512970	0.206062	0.717067
O25	O	0.633756	-0.058284	0.981415
O26	O	0.633759	0.206064	0.833638
O27	O	0.633756	0.206068	0.717071
O28	O	0.633759	0.058283	0.981415
O29	O	0.849808	-0.206040	0.717079
O30	O	0.417696	0.206053	0.833632
O31	O	0.417700	0.206048	0.981407
O32	O	0.417696	0.058272	0.981408
O33	O	0.849808	-0.058259	0.569303
O34	O	0.849812	-0.058264	0.717079
O35	O	0.562652	0.130491	0.818849
O36	O	0.562652	0.043495	0.905843
O37	O	0.704857	-0.043488	0.818855
O38	O	0.704857	0.043508	0.731861
C39	C	0.443676	-0.000003	0.775350
C40	C	0.379166	-0.000007	0.775348
C41	C	0.633745	0.000014	0.542808
C42	C	0.633743	0.000017	0.463883
C43	C	0.633759	0.232554	0.775354
C44	C	0.633761	0.311479	0.775354
C45	C	0.348865	-0.045421	0.820752
C46	C	0.288243	-0.045414	0.820760
C47	C	0.257936	-0.000004	0.775348
C48	C	0.288241	0.045420	0.729942
C49	C	0.348856	0.045419	0.729942
N50	N	0.195538	-0.006298	0.701448
N51	N	0.137957	-0.006302	0.701450
C52	C	0.075304	0.000004	0.775347
N53	N	0.072414	0.006296	0.849241
N54	N	0.130003	0.006295	0.849238
C55	C	0.192208	0.000003	0.775343
C56	C	-0.020732	-0.045405	0.820764
C57	C	-0.081359	-0.045392	0.820775
C58	C	-0.081354	0.045436	0.729948
C59	C	-0.020734	0.045429	0.729946
C60	C	0.009576	0.000003	0.775352
C61	C	0.823827	0.000016	0.775361
C62	C	0.888337	0.000020	0.775363
C63	C	0.633745	-0.232541	0.775357
C64	C	0.633743	-0.311466	0.775357
C65	C	0.707989	0.303156	0.729948
C66	C	0.707987	0.377317	0.729944
C67	C	0.633755	0.459800	0.775351
C68	C	0.559520	0.468121	0.820758
C69	C	0.559524	0.393961	0.820757
C70	C	0.559518	0.622692	0.820760
C71	C	0.559514	0.696857	0.820763
C72	C	0.707981	0.606047	0.729947
C73	C	0.707984	0.531887	0.729946
C74	C	0.633750	0.540214	0.775354
C75	C	0.559514	0.045418	0.472209
C76	C	0.559517	0.045419	0.398048
C77	C	0.633749	0.000013	0.315562
C78	C	0.707983	-0.045390	0.307238
C79	C	0.707980	-0.045385	0.381398
C80	C	0.707986	-0.045399	0.152668
C81	C	0.707989	-0.045405	0.078502
C82	C	0.559523	0.045405	0.169318
C83	C	0.559519	0.045410	0.243478
C84	C	0.633754	0.000006	0.235148
C85	C	0.633759	-0.000001	1.007903
C86	C	0.633761	-0.000004	1.086828
C87	C	0.443683	-0.000011	1.007897
C88	C	0.379175	-0.000017	1.086820
C89	C	0.443683	0.232544	0.775348
C90	C	0.379175	0.311466	0.775346
C91	C	0.443690	0.232537	1.007896
C92	C	0.379185	0.311455	1.086818
C93	C	0.823814	-0.232524	0.542815
C94	C	0.888319	-0.311442	0.463893
C95	C	0.823820	0.000024	0.542814
C96	C	0.888328	0.000030	0.463891
C97	C	0.823820	-0.232532	0.775363
C98	C	0.888328	-0.311453	0.775365
C99	C	0.348879	-0.045436	1.078474
C100	C	0.288276	-0.045459	1.152623
C101	C	0.257966	-0.000058	1.235117
C102	C	0.288268	0.045362	1.243462
C103	C	0.348874	0.045380	1.169314
C104	C	0.348885	0.393944	0.820754
C105	C	0.288281	0.468106	0.820749
C106	C	0.257966	0.459788	0.775340
C107	C	0.288263	0.377301	0.729926
C108	C	0.348869	0.303141	0.729927
C109	C	0.348892	0.303105	1.169299
C110	C	0.288291	0.377250	1.243462
C111	C	0.257979	0.459745	1.235142
C112	C	0.288278	0.468093	1.152653
C113	C	0.348882	0.393949	1.078492
C114	C	0.918619	-0.303092	0.381412
C115	C	0.979239	-0.377237	0.307249
C116	C	1.009554	-0.459732	0.315569
C117	C	0.979251	-0.468080	0.398058
C118	C	0.918637	-0.393936	0.472219
C119	C	0.918630	0.045441	0.472237
C120	C	0.979251	0.045444	0.398088
C121	C	1.009563	0.000040	0.315594
C122	C	0.979258	-0.045377	0.307249
C123	C	0.918643	-0.045384	0.381397
C124	C	0.918624	-0.303107	0.820783
C125	C	0.979228	-0.377255	0.820802
C126	C	1.009538	-0.459748	0.775398
C127	C	0.979236	-0.468092	0.729978
C128	C	0.918629	-0.393945	0.729965
H129	H	0.263567	-0.082397	0.857735
H130	H	0.208615	-0.000078	1.295487
H131	H	1.003915	0.082430	0.404900
O132	O	1.011907	-0.368246	0.869789
H133	H	0.980655	-0.298426	0.901344
O134	O	0.255599	-0.094445	1.143604
H135	H	0.267246	-0.144655	1.175195
H136	H	0.768431	0.464727	0.692977
O137	O	0.479460	0.402940	0.869731
H138	H	0.491933	0.337516	0.862094
O139	O	0.011958	-0.094384	0.869746
H140	H	-0.019310	-0.125951	0.901333
O141	O	1.011953	-0.094341	0.218269
H142	H	1.039575	-0.164136	0.210712
O143	O	0.885936	-0.214141	0.869770
H144	H	0.897575	-0.178175	0.823932
H145	H	0.003940	0.082407	0.692969
H146	H	1.058889	-0.520116	0.775416
H147	H	1.003924	-0.535267	0.693011
O148	O	0.479454	0.631665	0.869734
H149	H	0.475916	0.600039	0.919916
H150	H	0.208631	0.520111	1.295536
H151	H	1.058910	-0.520098	0.255175
O152	O	0.255572	0.094334	1.332439
H153	H	0.188712	0.144515	1.368383
O154	O	0.885964	-0.402950	0.680963
H155	H	0.917235	-0.472771	0.649388
H156	H	0.373540	-0.082406	0.857726
O157	O	1.074918	0.000078	0.235621
H158	H	1.090879	0.039302	0.255293
O159	O	0.381459	0.214214	0.680969
H160	H	0.448318	0.178194	0.630739
O161	O	0.788052	0.597057	0.680961
H162	H	0.775582	0.662481	0.688578
O163	O	0.381537	0.094384	1.178320
H164	H	0.350266	0.125958	1.248143
O165	O	0.255562	0.094394	0.680954
H166	H	0.208328	0.086757	0.688573
H167	H	0.263621	0.535263	0.857733
H168	H	0.499078	0.082368	0.176098
H169	H	0.373528	0.082401	0.692966
H170	H	0.768424	-0.082355	0.240071
O171	O	0.381589	0.214133	1.178282
H172	H	0.350345	0.220798	1.248101
O173	O	0.192594	0.539783	0.775349
H174	H	0.176601	0.520150	0.736142
O175	O	0.381579	0.402926	0.869730
H176	H	0.350334	0.472743	0.901292
O177	O	-0.114041	-0.094381	0.869744
H178	H	-0.082772	-0.125975	0.901306
H179	H	0.893973	-0.082360	0.374589
O180	O	0.479456	0.557086	0.869730
H181	H	0.427840	0.550412	0.901295
O182	O	0.885964	-0.402934	0.561186
H183	H	0.819101	-0.371326	0.597156
H184	H	-0.106030	0.082410	0.692973
H185	H	0.499068	0.764017	0.857732
O186	O	0.885945	0.094413	0.561210
H187	H	0.897570	0.048562	0.597167
H188	H	0.768436	-0.082379	0.011340
O189	O	0.255534	0.368349	0.680979
H190	H	0.267147	0.399978	0.630798
O191	O	0.788055	0.214192	0.680971
H192	H	0.839669	0.220867	0.649390
H193	H	0.263628	0.370438	1.310621
H194	H	0.499065	0.082397	0.539369
O195	O	0.479457	0.094374	0.332447
H196	H	0.443860	0.164167	0.339993
H197	H	0.768431	0.370533	0.692972
O198	O	0.381534	0.402972	0.989536
H199	H	0.448394	0.371378	0.953562
H200	H	0.499072	0.082390	0.404835
H201	H	0.768435	-0.082355	0.145879
O202	O	0.885928	-0.214119	0.372431
H203	H	0.936808	-0.206570	0.336438
O204	O	0.788040	-0.094358	0.372424
H205	H	0.839659	-0.125941	0.302609
H206	H	0.263589	0.535270	1.145893
H207	H	0.373557	-0.082418	1.011309
O208	O	1.011901	-0.368224	0.218285
H209	H	0.980619	-0.298403	0.224967
O210	O	1.011945	-0.557059	0.407026
H211	H	1.059176	-0.607205	0.341596
