data_functionalizedCrystal
_audit_creation_method	'MofGen! by Chris Wilmer'
_symmetry_space_group_name_H-M	'P1'
_symmetry_Int_Tables_number	1
_symmetry_cell_setting	triclinic
loop_
_symmetry_equiv_pos_as_xyz
  x,y,z
_cell_length_a	12.759395
_cell_length_b	16.120531
_cell_length_c	12.759387
_cell_angle_alpha	92.860081
_cell_angle_beta	90.020509
_cell_angle_gamma	87.066275
loop_
_atom_site_label
_atom_site_type_symbol
_atom_site_fract_x
_atom_site_fract_y
_atom_site_fract_z
Zn1	Zn	1.584938	0.331828	0.615141
Zn2	Zn	1.575865	0.471265	0.448343
Zn3	Zn	1.409233	0.331874	0.439481
Zn4	Zn	1.400269	0.471205	0.623978
O5	O	1.492576	0.401543	0.531736
O6	O	1.730755	0.350331	0.593025
O7	O	1.553715	0.452818	0.300149
O8	O	1.440089	0.215202	0.455375
O9	O	1.724089	0.452774	0.470480
O10	O	1.569179	0.215169	0.584432
O11	O	1.431292	0.350408	0.293638
O12	O	1.261023	0.350351	0.463944
O13	O	1.424811	0.452673	0.769824
O14	O	1.254437	0.452717	0.599494
O15	O	1.560486	0.350273	0.763332
O16	O	1.545023	0.587922	0.479049
O17	O	1.416013	0.587879	0.608087
C18	C	1.219609	0.401533	0.531717
C19	C	1.102832	0.401549	0.531735
C20	C	1.478589	0.618150	0.545512
C21	C	1.472702	0.710816	0.551440
C22	C	1.096001	0.508315	0.672677
C23	C	1.037724	0.561705	0.743151
C24	C	0.928002	0.561715	0.743164
C25	C	0.876554	0.508328	0.672698
C26	C	0.934831	0.454938	0.602224
C27	C	1.044555	0.454935	0.602216
C28	C	0.941662	0.348169	0.461290
C29	C	1.051384	0.348161	0.461269
C30	C	0.890214	0.294781	0.390823
C31	C	0.948490	0.241394	0.320343
C32	C	1.058219	0.241387	0.320331
C33	C	1.109660	0.294771	0.390795
C34	C	1.461959	0.880477	0.562285
C35	C	1.523232	0.921768	0.501127
C36	C	1.517255	1.016174	0.507161
C37	C	1.467935	0.786063	0.556252
C38	C	1.766609	0.401554	0.531755
C39	C	1.883385	0.401558	0.531764
C40	C	1.492661	0.401461	0.805764
C41	C	1.492697	0.401426	0.922539
C42	C	1.506609	1.184090	0.517910
C43	C	1.512493	1.091424	0.511969
C44	C	1.492556	0.401564	0.258770
C45	C	1.492739	0.401364	0.141981
C46	C	1.633984	0.294805	0.915798
C47	C	1.704644	0.241481	0.967288
C48	C	1.704671	0.241451	1.077008
C49	C	1.634030	0.294748	1.135240
C50	C	1.563370	0.348071	1.083751
C51	C	1.563353	0.348098	0.974028
C52	C	1.422079	0.454688	1.090491
C53	C	1.422055	0.454723	0.980772
C54	C	1.351438	0.507985	1.148724
C55	C	1.280782	0.561314	1.097234
C56	C	1.280758	0.561342	0.987508
C57	C	1.351396	0.508047	0.929282
H58	H	1.185342	0.508318	0.672665
H59	H	1.580178	0.886218	0.444235
H60	H	1.634050	0.294711	1.224579
H61	H	1.351462	0.507953	1.238063
H62	H	1.351388	0.508069	0.839942
H63	H	1.405016	0.916025	0.619171
H64	H	1.079626	0.605170	0.800524
H65	H	1.633978	0.294832	0.826459
H66	H	1.199001	0.294773	0.390790
H67	H	1.762157	0.198086	0.919863
H68	H	1.762202	0.198025	1.118930
H69	H	1.223266	0.604699	1.144656
H70	H	1.223208	0.604756	0.945591
H71	H	0.880554	0.605186	0.800555
H72	H	0.800872	0.294790	0.390844
H73	H	0.787213	0.508334	0.672724
H74	H	1.105662	0.197905	0.262949
H75	H	0.906593	0.197927	0.262980
