data_functionalizedCrystal
_audit_creation_method	'MofGen! by Chris Wilmer'
_symmetry_space_group_name_H-M	'P1'
_symmetry_Int_Tables_number	1
_symmetry_cell_setting	triclinic
loop_
_symmetry_equiv_pos_as_xyz
  x,y,z
_cell_length_a	13.339070
_cell_length_b	19.188924
_cell_length_c	11.804365
_cell_angle_alpha	101.787608
_cell_angle_beta	74.875130
_cell_angle_gamma	99.385629
loop_
_atom_site_label
_atom_site_type_symbol
_atom_site_fract_x
_atom_site_fract_y
_atom_site_fract_z
O1	O	1.361219	0.339588	-0.099091
O2	O	1.066894	0.293686	-0.099082
O3	O	1.222551	0.216646	-0.099073
O4	O	1.205562	0.416627	-0.099100
O5	O	1.181572	0.236899	0.098981
O6	O	1.025916	0.313939	0.098972
O7	O	1.320240	0.359841	0.098962
Cu8	Cu	1.169336	0.338739	0.117051
Cu9	Cu	1.217798	0.314788	-0.117170
O10	O	1.164584	0.436881	0.098953
C11	C	1.008750	0.296058	-0.000053
C12	C	0.896550	0.272946	-0.000049
C13	C	1.201512	0.200654	-0.000045
C14	C	1.199863	0.122827	-0.000042
C15	C	0.530965	0.452654	-0.000092
C16	C	0.636382	0.474371	-0.000100
C17	C	0.701429	0.424017	-0.000087
C18	C	0.661049	0.351942	-0.000067
C19	C	0.555623	0.330222	-0.000068
C20	C	0.726088	0.301584	-0.000063
C21	C	0.685707	0.229509	-0.000043
C22	C	0.580291	0.207793	-0.000043
C23	C	0.515244	0.258147	-0.000057
C24	C	0.831513	0.323304	-0.000061
C25	C	0.856172	0.200872	-0.000037
C26	C	0.750754	0.179155	-0.000029
C27	C	1.221431	0.075238	-0.108001
C28	C	1.219869	0.002108	-0.108010
C29	C	1.196759	-0.023427	-0.000053
C30	C	1.175183	0.024172	0.107920
C31	C	1.176735	0.097299	0.107926
N32	N	1.235214	-0.124087	0.080294
N33	N	1.233744	-0.193556	0.080281
C34	C	1.192080	-0.243754	-0.000065
N35	N	1.151958	-0.221861	-0.080415
N36	N	1.153434	-0.152386	-0.080406
C37	C	1.195073	-0.102720	-0.000048
C38	C	1.211954	-0.370640	-0.108041
C39	C	1.210386	-0.443772	-0.108046
C40	C	1.165709	-0.421704	0.107887
C41	C	1.167268	-0.348576	0.107889
C42	C	1.190396	-0.323048	-0.000079
C43	C	1.378385	0.357468	-0.000069
C44	C	1.490586	0.380580	-0.000081
C45	C	1.185623	0.452872	-0.000077
C46	C	1.187274	0.530699	-0.000088
N47	N	1.135259	0.355587	0.281790
N48	N	1.251884	0.297936	-0.281909
C49	C	1.333717	0.257466	0.655750
C50	C	1.359496	0.244718	0.531089
C51	C	1.303439	0.272434	0.468758
C52	C	1.221599	0.312901	0.531100
C53	C	1.195823	0.325655	0.655772
C54	C	1.165544	0.340622	0.468781
C55	C	1.083704	0.381089	0.531122
C56	C	1.057932	0.393840	0.655783
C57	C	1.113989	0.366125	0.718114
C58	C	1.191320	0.327868	0.344108
C59	C	1.053425	0.396057	0.344131
C60	C	1.027646	0.408805	0.468791
H61	H	0.864379	0.381989	-0.000073
O62	O	0.948024	0.448013	0.529305
C63	C	0.764212	0.458693	0.567448
C64	C	0.854283	0.414215	0.498863
H65	H	0.688405	0.431393	0.542843
H66	H	0.755333	0.463028	0.667268
H67	H	0.782240	0.514623	0.542946
H68	H	0.836322	0.358264	0.523266
H69	H	0.863140	0.409940	0.399061
O70	O	1.152549	-0.000611	0.212821
C71	C	1.026365	-0.013136	0.397404
C72	C	1.051861	0.014949	0.278630
H73	H	0.944968	-0.000553	0.450655
H74	H	1.028883	-0.073585	0.378929
H75	H	1.086414	0.013983	0.450595
H76	H	0.991838	-0.012117	0.225379
H77	H	1.049379	0.075402	0.297188
H78	H	1.092998	0.376501	0.819622
O79	O	1.231457	-0.490061	-0.212845
C80	C	1.343222	-0.576354	-0.338177
C81	C	1.319459	-0.523967	-0.219439
H82	H	1.414384	-0.603770	-0.343558
H83	H	1.272943	-0.618493	-0.343600
H84	H	1.359968	-0.545536	-0.415322
H85	H	1.302735	-0.554723	-0.142226
H86	H	1.389752	-0.481829	-0.214119
H87	H	0.991301	0.426797	0.706541
O88	O	0.999051	0.423104	0.283652
C89	C	0.947111	0.528999	0.245552
C90	C	1.008741	0.498465	0.314105
H91	H	0.954907	0.589932	0.270167
H92	H	0.979588	0.512991	0.145728
H93	H	0.861141	0.506668	0.270073
H94	H	1.094720	0.520781	0.289684
H95	H	0.976179	0.514467	0.413913
O96	O	1.234241	-0.345881	-0.212937
C97	C	1.185407	-0.351413	-0.397517
C98	C	1.160033	-0.379504	-0.278760
H99	H	1.125438	-0.378596	-0.450778
H100	H	1.182768	-0.290976	-0.379018
H101	H	1.266860	-0.363905	-0.450709
H102	H	1.078579	-0.367063	-0.225508
H103	H	1.162742	-0.439934	-0.297342
H104	H	1.159167	0.136048	0.195842
O105	O	1.143374	-0.446409	0.212827
C106	C	1.192276	-0.440933	0.397349
C107	C	1.217684	-0.412873	0.278561
H108	H	1.252354	-0.413843	0.450517
H109	H	1.110876	-0.428398	0.450670
H110	H	1.194826	-0.501380	0.378756
H111	H	1.215194	-0.352425	0.297045
H112	H	1.299070	-0.425464	0.225276
O113	O	0.919482	0.152001	-0.000182
C114	C	1.074019	0.094946	-0.102812
C115	C	1.002415	0.150321	-0.102776
H116	H	1.141074	0.093559	-0.185763
H117	H	1.106919	0.110528	-0.019981
H118	H	1.027019	0.039715	-0.102750
H119	H	1.049343	0.205571	-0.102880
H120	H	0.969510	0.134678	-0.185599
H121	H	0.787265	0.441703	-0.000096
H122	H	0.669254	0.533054	-0.000126
H123	H	1.237427	-0.036648	-0.195926
H124	H	1.149713	-0.309826	0.195801
H125	H	1.324431	0.262053	0.367254
O126	O	0.467866	0.501565	-0.000322
C127	C	0.435792	0.589089	-0.102926
C128	C	0.507328	0.533704	-0.102824
H129	H	0.467682	0.615100	-0.185777
H130	H	0.353509	0.561211	-0.103005
H131	H	0.433262	0.631999	-0.020010
H132	H	0.509946	0.490780	-0.185725
H133	H	0.589574	0.561634	-0.102682
O134	O	1.270689	0.288431	0.283653
C135	C	1.338312	0.174728	0.245717
C136	C	1.248346	0.219320	0.314208
H137	H	1.320290	0.118848	0.270414
H138	H	1.347150	0.170283	0.145883
H139	H	1.414147	0.202067	0.270213
H140	H	1.172461	0.192018	0.289812
H141	H	1.239601	0.223769	0.414025
O142	O	1.438986	0.205369	0.470720
C143	C	1.573077	0.139117	0.483861
C144	C	1.483060	0.183659	0.552379
H145	H	1.608752	0.121565	0.549852
H146	H	1.541712	0.089793	0.425544
H147	H	1.635461	0.173068	0.425446
H148	H	1.420644	0.149768	0.610859
H149	H	1.514504	0.232987	0.610620
H150	H	0.429403	0.240468	-0.000050
O151	O	0.541223	0.137757	0.000022
C152	C	0.576823	0.018606	-0.000023
C153	C	0.621195	0.097900	-0.000069
H154	H	0.641464	-0.013644	-0.000121
H155	H	0.510965	0.013816	0.082882
H156	H	0.545198	-0.003067	-0.082888
H157	H	0.652877	0.119623	0.082740
H158	H	0.687007	0.102642	-0.083029
H159	H	1.379357	0.234908	0.706508
H160	H	0.717863	0.120469	-0.000023
H161	H	1.240261	0.096017	-0.195917
