data_functionalizedCrystal
_audit_creation_method	'MofGen! by Chris Wilmer'
_symmetry_space_group_name_H-M	'P1'
_symmetry_Int_Tables_number	1
_symmetry_cell_setting	triclinic
loop_
_symmetry_equiv_pos_as_xyz
  x,y,z
_cell_length_a	16.959455
_cell_length_b	29.839131
_cell_length_c	16.959447
_cell_angle_alpha	90.033915
_cell_angle_beta	90.014322
_cell_angle_gamma	90.038367
loop_
_atom_site_label
_atom_site_type_symbol
_atom_site_fract_x
_atom_site_fract_y
_atom_site_fract_z
Zn1	Zn	1.208267	-0.178881	0.446889
Zn2	Zn	1.708267	0.321119	0.946889
Zn3	Zn	1.208140	-0.254014	0.314702
Zn4	Zn	1.708140	0.245986	0.814702
Zn5	Zn	1.076095	-0.178895	0.314726
Zn6	Zn	1.576095	0.321105	0.814726
Zn7	Zn	1.076010	-0.253981	0.446841
Zn8	Zn	1.576010	0.246019	0.946841
O9	O	1.142128	-0.216443	0.380790
O10	O	1.642128	0.283557	0.880790
O11	O	1.318861	-0.188856	0.429364
O12	O	1.818861	0.311144	0.929364
O13	O	1.190606	-0.244070	0.204094
O14	O	1.690606	0.255930	0.704094
O15	O	1.093716	-0.116026	0.332288
O16	O	1.593716	0.383974	0.832288
O17	O	1.318767	-0.244056	0.332247
O18	O	1.818767	0.255944	0.832247
O19	O	1.190822	-0.116016	0.429388
O20	O	1.690822	0.383984	0.929388
O21	O	1.093593	-0.188880	0.204112
O22	O	1.593593	0.311120	0.704112
O23	O	0.965473	-0.188847	0.332242
O24	O	1.465473	0.311153	0.832242
O25	O	1.093572	-0.243999	0.557458
O26	O	1.593572	0.256001	1.057458
O27	O	0.965411	-0.244012	0.429305
O28	O	1.465411	0.255988	0.929305
O29	O	1.190740	-0.188823	0.557493
O30	O	1.690740	0.311177	1.057493
O31	O	1.190524	-0.316877	0.332200
O32	O	1.690524	0.183123	0.832200
O33	O	1.093449	-0.316852	0.429282
O34	O	1.593449	0.183148	0.929282
C35	C	0.936762	-0.216428	0.380771
C36	C	1.436762	0.283572	0.880771
C37	C	0.848905	-0.216433	0.380782
C38	C	1.348905	0.283567	0.880782
C39	C	0.477437	-0.187695	0.330354
C40	C	0.977437	0.312305	0.830354
C41	C	0.477421	-0.245228	0.431270
C42	C	0.977421	0.254772	0.931270
C43	C	0.559967	-0.245221	0.431265
C44	C	1.059967	0.254779	0.931265
C45	C	0.601252	-0.216452	0.380803
C46	C	1.101252	0.283548	0.880803
C47	C	0.559991	-0.187688	0.330346
C48	C	1.059991	0.312312	0.830346
C49	C	0.601235	-0.273987	0.481716
C50	C	1.101235	0.226013	0.981716
C51	C	0.683786	-0.273982	0.481713
C52	C	1.183786	0.226018	0.981713
C53	C	0.725072	-0.245210	0.431254
C54	C	1.225072	0.254790	0.931254
C55	C	0.683806	-0.216445	0.380795
C56	C	1.183806	0.283555	0.880795
C57	C	0.725090	-0.187676	0.330333
C58	C	1.225090	0.312324	0.830333
C59	C	0.683826	-0.158908	0.279878
C60	C	1.183826	0.341092	0.779878
C61	C	0.601277	-0.158916	0.279887
C62	C	1.101277	0.341084	0.779887
C63	C	0.807620	-0.245202	0.431245
C64	C	1.307620	0.254798	0.931245
C65	C	0.807644	-0.187669	0.330325
C66	C	1.307644	0.312331	0.830325
C67	C	1.141985	-0.333165	0.380750
C68	C	1.641985	0.166835	0.880750
C69	C	1.141996	-0.383100	0.380760
C70	C	1.641996	0.116900	0.880760
C71	C	1.192767	-0.692743	0.330313
C72	C	1.692767	-0.192743	0.830313
C73	C	1.192864	-0.880416	0.330344
C74	C	1.692864	-0.380416	0.830344
O75	O	1.235918	-0.904681	0.287422
O76	O	1.735918	-0.404681	0.787422
N77	N	1.142292	-0.903885	0.380849
N78	N	1.642292	-0.403885	0.880849
C79	C	1.091695	-0.880432	0.431354
C80	C	1.591695	-0.380432	0.931354
O81	O	1.048688	-0.904700	0.474319
O82	O	1.548688	-0.404700	0.974319
C83	C	1.091602	-0.692760	0.431327
C84	C	1.591602	-0.192760	0.931327
C85	C	1.142172	-0.669294	0.380812
C86	C	1.642172	-0.169294	0.880812
C87	C	1.243333	-0.669277	0.279803
C88	C	1.743333	-0.169277	0.779803
C89	C	1.243305	-0.622362	0.279793
C90	C	1.743305	-0.122362	0.779793
C91	C	1.192711	-0.598913	0.330293
C92	C	1.692711	-0.098913	0.830293
C93	C	1.142144	-0.622379	0.380802
C94	C	1.642144	-0.122379	0.880802
C95	C	1.041010	-0.669308	0.481835
C96	C	1.541010	-0.169308	0.981835
C97	C	1.040992	-0.622387	0.481826
C98	C	1.540992	-0.122387	0.981826
C99	C	1.091563	-0.598921	0.431311
C100	C	1.591563	-0.098921	0.931311
C101	C	1.091522	-0.552014	0.431292
C102	C	1.591522	-0.052014	0.931292
N103	N	1.142094	-0.528545	0.380786
N104	N	1.642094	-0.028545	0.880786
C105	C	1.192689	-0.551995	0.330287
C106	C	1.692689	-0.051995	0.830287
C107	C	1.091746	-0.978963	0.431364
C108	C	1.591746	-0.478963	0.931364
C109	C	1.091768	-1.025881	0.431370
C110	C	1.591768	-0.525881	0.931370
C111	C	1.192939	-1.025862	0.330360
C112	C	1.692939	-0.525862	0.830360
C113	C	1.192912	-0.978943	0.330351
C114	C	1.692912	-0.478943	0.830351
C115	C	1.142319	-0.955494	0.380858
C116	C	1.642319	-0.455494	0.880858
C117	C	1.192626	-0.453469	0.330268
C118	C	1.692626	0.046531	0.830268
C119	C	1.192591	-0.406549	0.330260
C120	C	1.692591	0.093451	0.830260
C121	C	1.091424	-0.406572	0.431273
C122	C	1.591424	0.093428	0.931273
C123	C	1.091455	-0.453488	0.431278
C124	C	1.591455	0.046512	0.931278
C125	C	1.142063	-0.476935	0.380773
C126	C	1.642063	0.023065	0.880773
O127	O	1.048497	-0.527720	0.474197
O128	O	1.548497	-0.027720	0.974197
O129	O	1.235702	-0.527719	0.287341
O130	O	1.735702	-0.027719	0.787341
C131	C	1.192795	-0.739659	0.330323
C132	C	1.692795	-0.239659	0.830323
C133	C	1.142228	-0.763125	0.380833
C134	C	1.642228	-0.263125	0.880833
C135	C	1.091633	-0.739675	0.431332
C136	C	1.591633	-0.239675	0.931332
C137	C	1.142250	-0.810043	0.380839
C138	C	1.642250	-0.310043	0.880839
C139	C	1.192845	-0.833492	0.330339
C140	C	1.692845	-0.333492	0.830339
C141	C	1.243417	-0.810024	0.279834
C142	C	1.743417	-0.310024	0.779834
C143	C	1.243389	-0.763108	0.279824
C144	C	1.743389	-0.263108	0.779824
C145	C	1.041061	-0.763144	0.481838
C146	C	1.541061	-0.263144	0.981838
C147	C	1.041092	-0.810059	0.481843
C148	C	1.541092	-0.310059	0.981843
C149	C	1.091687	-0.833509	0.431344
C150	C	1.591687	-0.333509	0.931344
C151	C	1.348296	-0.216458	0.380808
C152	C	1.848296	0.283542	0.880808
C153	C	1.436153	-0.216465	0.380816
C154	C	1.936153	0.283535	0.880816
C155	C	1.142161	-0.216406	0.586958
C156	C	1.642161	0.283594	1.086958
C157	C	1.142175	-0.216390	0.674814
C158	C	1.642175	0.283610	1.174814
C159	C	1.142293	-0.099264	0.380846
C160	C	1.642293	0.400736	0.880846
C161	C	1.142363	-0.049330	0.380870
C162	C	1.642363	0.450670	0.880870
C163	C	1.142141	-0.216447	0.175423
C164	C	1.642141	0.283553	0.675423
C165	C	1.142280	-0.216337	0.087567
C166	C	1.642280	0.283663	0.587567
C167	C	1.091678	-0.245070	1.046274
C168	C	1.591678	0.254930	1.546274
C169	C	1.192860	-0.187615	1.046306
C170	C	1.692860	0.312385	1.546306
C171	C	1.192839	-0.187625	0.963760
C172	C	1.692839	0.312375	1.463760
C173	C	1.142238	-0.216358	0.922468
C174	C	1.642238	0.283642	1.422468
C175	C	1.091657	-0.245081	0.963721
C176	C	1.591657	0.254919	1.463721
C177	C	1.243424	-0.158905	0.922501
C178	C	1.743424	0.341095	1.422501
C179	C	1.243406	-0.158914	0.839950
C180	C	1.743406	0.341086	1.339950
C181	C	1.192800	-0.187645	0.798656
C182	C	1.692800	0.312355	1.298656
C183	C	1.142217	-0.216369	0.839914
C184	C	1.642217	0.283631	1.339914
C185	C	1.091615	-0.245102	0.798621
C186	C	1.591615	0.254898	1.298621
C187	C	1.041028	-0.273824	0.839878
C188	C	1.541028	0.226176	1.339878
C189	C	1.041051	-0.273812	0.922426
C190	C	1.541051	0.226188	1.422426
C191	C	1.192776	-0.187657	0.716107
C192	C	1.692776	0.312343	1.216107
C193	C	1.091594	-0.245113	0.716068
C194	C	1.591594	0.254887	1.216068
H195	H	0.567615	-0.297413	0.522794
H196	H	1.067615	0.202587	1.022794
H197	H	0.717376	-0.297406	0.522797
H198	H	1.217376	0.202594	1.022797
H199	H	1.284538	-0.688365	0.238680
H200	H	1.784538	-0.188365	0.738680
H201	H	1.284597	-0.135526	0.806366
H202	H	1.784597	0.364474	1.306366
H203	H	1.050489	-0.268453	1.079869
H204	H	1.550489	0.231547	1.579869
C205	C	1.292950	-1.021142	0.230516
C206	C	1.792950	-0.521142	0.730516
C207	C	1.248557	-1.051643	0.274852
C208	C	1.748557	-0.551643	0.774852
H209	H	1.327283	-1.037061	0.196250
H210	H	1.827283	-0.537061	0.696250
H211	H	1.323150	-1.002813	0.264980
H212	H	1.823150	-0.502813	0.764980
H213	H	1.258521	-1.002872	0.200240
H214	H	1.758521	-0.502872	0.700240
H215	H	1.282986	-1.069911	0.305132
H216	H	1.782986	-0.569911	0.805132
H217	H	1.218355	-1.069979	0.240384
H218	H	1.718355	-0.569979	0.740384
C219	C	1.052848	-0.392090	0.565081
C220	C	1.552848	0.107910	1.065081
C221	C	1.035820	-0.380790	0.486787
C222	C	1.535820	0.119210	0.986787
H223	H	1.018522	-0.376173	0.599356
H224	H	1.518522	0.123827	1.099356
H225	H	1.105944	-0.384370	0.576677
H226	H	1.605944	0.115630	1.076677
H227	H	1.045614	-0.423390	0.572310
H228	H	1.545614	0.076610	1.072310
H229	H	1.043060	-0.349489	0.479557
H230	H	1.543060	0.150511	0.979557
H231	H	0.982712	-0.388506	0.475187
H232	H	1.482712	0.111494	0.975187
H233	H	0.717450	-0.135486	0.238788
H234	H	1.217450	0.364514	0.738788
C235	C	0.833032	-0.165691	0.196545
C236	C	1.333032	0.334309	0.696545
C237	C	0.853024	-0.156046	0.274852
C238	C	1.353024	0.343954	0.774852
H239	H	0.861053	-0.146170	0.162300
H240	H	1.361053	0.353830	0.662300
H241	H	0.777971	-0.161574	0.189337
H242	H	1.277971	0.338426	0.689337
H243	H	0.846529	-0.195868	0.184889
H244	H	1.346529	0.304132	0.684889
H245	H	0.839522	-0.125870	0.286510
H246	H	1.339522	0.374130	0.786510
H247	H	0.908098	-0.160159	0.282064
H248	H	1.408098	0.339841	0.782064
C249	C	1.203734	-0.506271	0.223972
C250	C	1.703734	-0.006271	0.723972
C251	C	1.248257	-0.479243	0.274765
C252	C	1.748257	0.020757	0.774765
H253	H	1.238080	-0.522186	0.189713
H254	H	1.738080	-0.022186	0.689713
H255	H	1.169315	-0.488002	0.193696
H256	H	1.669315	0.011998	0.693696
H257	H	1.173623	-0.526960	0.254061
H258	H	1.673623	-0.026960	0.754061
H259	H	1.278364	-0.458552	0.244676
H260	H	1.778364	0.041448	0.744676
H261	H	1.282690	-0.497514	0.305044
H262	H	1.782690	0.002486	0.805044
H263	H	1.233771	-0.387445	0.289123
H264	H	1.733771	0.112555	0.789123
H265	H	0.999794	-0.603298	0.522958
H266	H	1.499794	-0.103298	1.022958
H267	H	1.284626	-0.135515	0.956128
H268	H	1.784626	0.364485	1.456128
H269	H	0.999862	-0.744055	0.522962
H270	H	1.499862	-0.244055	1.022962
C271	C	1.231386	-0.111594	0.690735
C272	C	1.731386	0.388406	1.190735
C273	C	1.248375	-0.156089	0.670755
C274	C	1.748375	0.343911	1.170755
H275	H	1.265709	-0.092105	0.662731
H276	H	1.765709	0.407895	1.162731
H277	H	1.238647	-0.107478	0.745800
H278	H	1.738647	0.392522	1.245800
H279	H	1.178282	-0.105020	0.677209
H280	H	1.678282	0.394980	1.177209
H281	H	1.301478	-0.162664	0.684286
H282	H	1.801478	0.337336	1.184286
H283	H	1.241121	-0.160206	0.615677
H284	H	1.741121	0.339794	1.115677
H285	H	0.567672	-0.135496	0.238808
H286	H	1.067672	0.364504	0.738808
C287	C	0.350909	-0.162153	0.285554
C288	C	0.850909	0.337847	0.785554
C289	C	0.432084	-0.156075	0.274894
C290	C	0.932084	0.343925	0.774894
H291	H	0.322911	-0.142634	0.251311
H292	H	0.822911	0.357366	0.751311
H293	H	0.337411	-0.155615	0.338679
H294	H	0.837411	0.344385	0.838679
H295	H	0.337352	-0.192331	0.273888
H296	H	0.837352	0.307669	0.773888
H297	H	0.445642	-0.125897	0.286566
H298	H	0.945642	0.374103	0.786566
H299	H	0.445587	-0.162610	0.221757
H300	H	0.945587	0.337390	0.721757
C301	C	0.350874	-0.270782	0.476087
C302	C	0.850874	0.229218	0.976087
C303	C	0.432043	-0.276850	0.486736
C304	C	0.932043	0.223150	0.986736
H305	H	0.322859	-0.290303	0.510336
H306	H	0.822859	0.209697	1.010336
H307	H	0.337328	-0.277323	0.422965
H308	H	0.837328	0.222677	0.922965
H309	H	0.337385	-0.240605	0.487752
H310	H	0.837385	0.259395	0.987752
H311	H	0.445533	-0.307027	0.475066
H312	H	0.945533	0.192973	0.975066
H313	H	0.445594	-0.270312	0.539871
H314	H	0.945594	0.229688	1.039871
H315	H	0.999826	-0.688406	0.522966
H316	H	1.499826	-0.188406	1.022966
H317	H	0.841214	-0.268625	0.472322
H318	H	1.341214	0.231375	0.972322
C319	C	1.080434	-0.506216	0.537600
C320	C	1.580434	-0.006216	1.037600
C321	C	1.035865	-0.479287	0.486796
C322	C	1.535865	0.020713	0.986796
H323	H	1.046117	-0.522143	0.571874
H324	H	1.546117	-0.022143	1.071874
H325	H	1.114832	-0.487878	0.567859
H326	H	1.614832	0.012122	1.067859
H327	H	1.110571	-0.526895	0.507518
H328	H	1.610571	-0.026895	1.007518
H329	H	1.005733	-0.458606	0.516877
H330	H	1.505733	0.041394	1.016877
H331	H	1.001454	-0.497627	0.456534
H332	H	1.501454	0.002373	0.956534
H333	H	1.234091	-0.959840	0.289218
H334	H	1.734091	-0.459840	0.789218
C335	C	1.343319	-0.627070	0.179966
C336	C	1.843319	-0.127070	0.679966
C337	C	1.298906	-0.596572	0.224277
C338	C	1.798906	-0.096572	0.724277
H339	H	1.377652	-0.611150	0.145697
H340	H	1.877652	-0.111150	0.645697
H341	H	1.308909	-0.645397	0.149701
H342	H	1.808909	-0.145397	0.649701
H343	H	1.373528	-0.645343	0.214450
H344	H	1.873528	-0.145343	0.714450
H345	H	1.268693	-0.578302	0.189793
H346	H	1.768693	-0.078302	0.689793
H347	H	1.333321	-0.578238	0.254545
H348	H	1.833321	-0.078238	0.754545
C349	C	0.991770	-1.021175	0.531216
C350	C	1.491770	-0.521175	1.031216
C351	C	1.036176	-1.051671	0.486892
C352	C	1.536176	-0.551671	0.986892
H353	H	0.957455	-1.037097	0.565499
H354	H	1.457455	-0.537097	1.065499
H355	H	0.961550	-1.002907	0.496745
H356	H	1.461550	-0.502907	0.996745
H357	H	1.026192	-1.002844	0.561472
H358	H	1.526192	-0.502844	1.061472
H359	H	1.001753	-1.070000	0.456631
H360	H	1.501753	-0.570000	0.956631
H361	H	1.066397	-1.069947	0.521367
H362	H	1.566397	-0.569947	1.021367
C363	C	1.343395	-0.767817	0.179988
C364	C	1.843395	-0.267817	0.679988
C365	C	1.298984	-0.737319	0.224302
C366	C	1.798984	-0.237319	0.724302
H367	H	1.377722	-0.751897	0.145714
H368	H	1.877722	-0.251897	0.645714
H369	H	1.308982	-0.786145	0.149728
H370	H	1.808982	-0.286145	0.649728
H371	H	1.373609	-0.786088	0.214471
H372	H	1.873609	-0.286088	0.714471
H373	H	1.268765	-0.719050	0.189819
H374	H	1.768765	-0.219050	0.689819
H375	H	1.333401	-0.718982	0.254564
H376	H	1.833401	-0.218982	0.754564
H377	H	1.050545	-0.959874	0.472494
H378	H	1.550545	-0.459874	0.972494
C379	C	1.288406	-0.881941	0.235045
C380	C	1.788406	-0.381941	0.735045
C381	C	1.299058	-0.835806	0.224349
C382	C	1.799058	-0.335806	0.724349
H383	H	1.322768	-0.897858	0.200806
H384	H	1.822768	-0.397858	0.700806
H385	H	1.235324	-0.889667	0.223405
H386	H	1.735324	-0.389667	0.723405
H387	H	1.299918	-0.889587	0.288179
H388	H	1.799918	-0.389587	0.788179
H389	H	1.287541	-0.828159	0.171217
H390	H	1.787541	-0.328159	0.671217
H391	H	1.352153	-0.828077	0.235985
H392	H	1.852153	-0.328077	0.735985
H393	H	0.999905	-0.829161	0.522978
H394	H	1.499905	-0.329161	1.022978
H395	H	1.050381	-0.268507	0.682453
H396	H	1.550381	0.231493	1.182453
C397	C	0.996079	-0.299350	0.713316
C398	C	1.496079	0.200650	1.213316
C399	C	0.985407	-0.305407	0.794483
C400	C	1.485407	0.194593	1.294483
H401	H	0.961738	-0.318845	0.685291
H402	H	1.461738	0.181155	1.185291
H403	H	1.049170	-0.305932	0.699796
H404	H	1.549170	0.194068	1.199796
H405	H	0.984553	-0.269164	0.699815
H406	H	1.484553	0.230836	1.199815
H407	H	0.996939	-0.335592	0.807985
H408	H	1.496939	0.164408	1.307985
H409	H	0.932304	-0.298827	0.808009
H410	H	1.432304	0.201173	1.308009
C411	C	0.996163	-0.299307	1.048952
C412	C	1.496163	0.200693	1.548952
C413	C	0.985453	-0.305383	0.967777
C414	C	1.485453	0.194617	1.467777
H415	H	0.961843	-0.318800	1.076950
H416	H	1.461843	0.181200	1.576950
H417	H	0.984641	-0.269123	1.062495
H418	H	1.484641	0.230877	1.562495
H419	H	1.049269	-0.305885	1.062465
H420	H	1.549269	0.194115	1.562465
H421	H	0.932348	-0.298802	0.954264
H422	H	1.432348	0.201198	1.454264
H423	H	0.996970	-0.335575	0.954229
H424	H	1.496970	0.164425	1.454229
H425	H	1.234062	-0.164225	1.079932
H426	H	1.734062	0.335775	1.579932
