data_functionalizedCrystal
_audit_creation_method	'MofGen! by Chris Wilmer'
_symmetry_space_group_name_H-M	'P1'
_symmetry_Int_Tables_number	1
_symmetry_cell_setting	triclinic
loop_
_symmetry_equiv_pos_as_xyz
  x,y,z
_cell_length_a	17.699083
_cell_length_b	17.699083
_cell_length_c	9.730223
_cell_angle_alpha	89.994713
_cell_angle_beta	90.002740
_cell_angle_gamma	83.283015
loop_
_atom_site_label
_atom_site_type_symbol
_atom_site_fract_x
_atom_site_fract_y
_atom_site_fract_z
O1	O	1.004075	0.095711	-0.114100
O2	O	0.783696	0.108163	-0.114145
O3	O	0.900112	-0.008252	-0.114109
O4	O	0.887659	0.212126	-0.114136
O5	O	0.900104	-0.008255	0.114471
O6	O	0.783689	0.108160	0.114435
O7	O	1.004067	0.095708	0.114480
Zn8	Zn	0.893877	0.101934	0.150749
Zn9	Zn	0.893886	0.101938	-0.150415
O10	O	0.887652	0.212123	0.114444
C11	C	0.755495	0.107716	0.000139
C12	C	0.671477	0.106377	0.000122
C13	C	0.899662	-0.036451	0.000181
C14	C	0.898323	-0.120469	0.000181
C15	C	0.622856	0.174710	0.000114
C16	C	0.543913	0.173448	0.000132
C17	C	0.513592	0.103852	0.000148
C18	C	0.562219	0.035513	0.000160
C19	C	0.641161	0.036776	0.000152
C20	C	0.243856	0.030418	0.000195
C21	C	0.164908	0.029160	0.000199
C22	C	0.146608	0.167090	0.000175
C23	C	0.225550	0.168353	0.000167
C24	C	0.274170	0.100015	0.000186
C25	C	0.359769	0.101384	0.000169
C26	C	0.427995	0.102481	0.000155
C27	C	0.966656	-0.169090	0.000197
C28	C	0.965394	-0.248033	0.000185
C29	C	0.895798	-0.278354	0.000166
C30	C	0.827459	-0.229727	0.000146
C31	C	0.828722	-0.150785	0.000149
C32	C	0.822364	-0.548090	0.000134
C33	C	0.821106	-0.627038	0.000135
C34	C	0.959036	-0.645338	0.000170
C35	C	0.960299	-0.566396	0.000173
C36	C	0.891961	-0.517776	0.000145
C37	C	0.893330	-0.432177	0.000156
C38	C	0.894427	-0.363951	0.000165
C39	C	1.032268	0.096156	0.000193
C40	C	1.116286	0.097494	0.000201
C41	C	0.888102	0.240322	0.000151
C42	C	0.889440	0.324340	0.000142
N43	N	0.893876	0.101930	0.356286
N44	N	0.893894	0.101935	-0.355951
C45	C	0.945442	0.050403	0.428228
C46	C	0.945449	0.050403	0.572111
C47	C	0.842322	0.153465	0.572097
C48	C	0.842312	0.153460	0.428217
H49	H	0.647537	0.231384	0.000100
C50	C	0.297328	-0.044755	0.000196
C51	C	0.294023	-0.101830	0.118892
C52	C	0.347498	-0.177007	0.118889
C53	C	0.404278	-0.195109	0.000190
C54	C	0.407586	-0.138032	-0.118515
C55	C	0.354111	-0.062855	-0.118512
H56	H	0.251989	-0.088431	0.206768
H57	H	0.345049	-0.219260	0.206762
H58	H	0.443863	-0.250760	0.000187
H59	H	0.449620	-0.151431	-0.206391
H60	H	0.356560	-0.020603	-0.206385
H61	H	0.987438	0.008444	0.630682
C62	C	1.002155	-0.006284	0.349103
C63	C	1.058873	-0.062966	0.428246
C64	C	1.115586	-0.119657	0.349126
C65	C	1.115581	-0.119666	0.190863
C66	C	1.058861	-0.062982	0.111711
C67	C	1.002148	-0.006291	0.190831
H68	H	1.058878	-0.062961	0.545409
H69	H	1.157574	-0.161618	0.407720
H70	H	1.157563	-0.161632	0.132294
H71	H	1.058855	-0.062986	-0.005452
H72	H	0.960160	0.035670	0.132237
H73	H	0.800341	0.195420	0.630678
C74	C	1.036855	-0.533043	0.000190
C75	C	1.056690	-0.481281	-0.118502
C76	C	1.133247	-0.447929	-0.118491
C77	C	1.189970	-0.466338	0.000211
C78	C	1.170138	-0.518102	0.118911
C79	C	1.093580	-0.551454	0.118900
H80	H	1.014698	-0.467651	-0.206380
H81	H	1.147929	-0.409609	-0.206361
H82	H	1.246643	-0.441648	0.000219
H83	H	1.212129	-0.531732	0.206789
H84	H	1.078899	-0.589774	0.206771
H85	H	0.537526	-0.021154	0.000193
H86	H	0.504328	0.229092	0.000124
H87	H	0.773078	-0.111198	0.000135
H88	H	0.250232	0.225025	0.000147
H89	H	0.800317	0.195420	0.369638
H90	H	0.766718	-0.508512	0.000112
C91	C	0.750903	-0.263080	0.000117
C92	C	0.731059	-0.314839	0.118804
C93	C	0.654501	-0.348191	0.118776
C94	C	0.597787	-0.329784	0.000059
C95	C	0.617629	-0.278022	-0.118637
C96	C	0.694187	-0.244670	-0.118609
H97	H	0.773043	-0.328468	0.206693
H98	H	0.639813	-0.386509	0.206643
H99	H	0.541115	-0.354474	0.000038
H100	H	0.575645	-0.264394	-0.206526
H101	H	0.708875	-0.206352	-0.206476
H102	H	0.107012	0.222734	0.000166
H103	H	0.140225	-0.027517	0.000214
H104	H	0.680748	-0.018868	0.000158
H105	H	1.023330	-0.144409	0.000221
H106	H	1.021038	-0.287618	0.000201
H107	H	1.014680	-0.684934	0.000185
H108	H	0.764429	-0.651721	0.000123
