data_functionalizedCrystal
_audit_creation_method	'MofGen! by Chris Wilmer'
_symmetry_space_group_name_H-M	'P1'
_symmetry_Int_Tables_number	1
_symmetry_cell_setting	triclinic
loop_
_symmetry_equiv_pos_as_xyz
  x,y,z
_cell_length_a	19.188905
_cell_length_b	19.188930
_cell_length_c	17.666332
_cell_angle_alpha	90.011603
_cell_angle_beta	90.016479
_cell_angle_gamma	83.139668
loop_
_atom_site_label
_atom_site_type_symbol
_atom_site_fract_x
_atom_site_fract_y
_atom_site_fract_z
O1	O	0.926161	0.087086	0.063081
O2	O	1.259494	0.420419	0.396415
O3	O	1.592827	0.753752	0.729748
O4	O	0.722847	0.098838	0.063057
O5	O	1.056180	0.432171	0.396390
O6	O	1.389514	0.765505	0.729723
O7	O	0.830371	-0.008694	0.063055
O8	O	1.163704	0.324639	0.396388
O9	O	1.497038	0.657972	0.729722
O10	O	0.818637	0.194618	0.063083
O11	O	1.151970	0.527951	0.396417
O12	O	1.485303	0.861285	0.729750
O13	O	0.830352	-0.008700	-0.062842
O14	O	1.163686	0.324633	0.270492
O15	O	1.497019	0.657967	0.603825
O16	O	0.722828	0.098832	-0.062840
O17	O	1.056162	0.432166	0.270493
O18	O	1.389495	0.765499	0.603827
O19	O	0.926142	0.087080	-0.062815
O20	O	1.259475	0.420413	0.270518
O21	O	1.592809	0.753747	0.603851
Cu22	Cu	0.824483	0.092956	-0.074323
Cu23	Cu	1.157817	0.426289	0.259010
Cu24	Cu	1.491150	0.759622	0.592344
Cu25	Cu	0.824506	0.092962	0.074565
Cu26	Cu	1.157839	0.426296	0.407898
Cu27	Cu	1.491172	0.759629	0.741231
O28	O	0.818618	0.194612	-0.062814
O29	O	1.151951	0.527946	0.270520
O30	O	1.485285	0.861279	0.603853
C31	C	0.696826	0.098458	0.000105
C32	C	1.030160	0.431791	0.333438
C33	C	1.363493	0.765124	0.666772
C34	C	0.619321	0.097324	0.000095
C35	C	0.952654	0.430657	0.333428
C36	C	1.285987	0.763991	0.666762
C37	C	0.829982	-0.034708	0.000104
C38	C	1.163315	0.298625	0.333438
C39	C	1.496648	0.631959	0.666771
C40	C	0.828841	-0.112213	0.000098
C41	C	1.162174	0.221121	0.333431
C42	C	1.495508	0.554454	0.666764
C43	C	0.582939	0.096782	0.068723
C44	C	0.916273	0.430116	0.402056
C45	C	1.249606	0.763449	0.735390
C46	C	0.510116	0.095709	0.068732
C47	C	0.843449	0.429043	0.402066
C48	C	1.176782	0.762376	0.735399
C49	C	0.473678	0.095164	0.000110
C50	C	0.807012	0.428497	0.333443
C51	C	1.140345	0.761830	0.666776
C52	C	0.510068	0.095709	-0.068528
C53	C	0.843401	0.429043	0.264806
C54	C	1.176735	0.762376	0.598139
C55	C	0.582889	0.096789	-0.068535
C56	C	0.916223	0.430123	0.264798
C57	C	1.249556	0.763456	0.598132
N58	N	0.364650	0.053733	-0.050966
N59	N	0.697984	0.387066	0.282368
N60	N	1.031317	0.720400	0.615701
N61	N	0.295473	0.052705	-0.050954
N62	N	0.628807	0.386039	0.282379
N63	N	0.962140	0.719372	0.615713
C64	C	0.254272	0.091911	0.000127
C65	C	0.587605	0.425245	0.333461
C66	C	0.920938	0.758578	0.666794
N67	N	0.284861	0.132174	0.051208
N68	N	0.618195	0.465508	0.384542
N69	N	0.951528	0.798841	0.717875
N70	N	0.354045	0.133199	0.051199
N71	N	0.687378	0.466532	0.384532
N72	N	1.020712	0.799866	0.717865
C73	C	0.394716	0.093993	0.000110
C74	C	0.728049	0.427326	0.333443
C75	C	1.061382	0.760660	0.666776
C76	C	0.138926	0.090207	0.068770
C77	C	0.472260	0.423541	0.402104
C78	C	0.805593	0.756874	0.735437
C79	C	0.066101	0.089138	0.068777
C80	C	0.399434	0.422472	0.402110
C81	C	0.732767	0.755805	0.735443
C82	C	0.066055	0.089131	-0.068485
C83	C	0.399389	0.422465	0.264848
C84	C	0.732722	0.755798	0.598181
C85	C	0.138879	0.090207	-0.068490
C86	C	0.472212	0.423540	0.264844
C87	C	0.805545	0.756874	0.598177
C88	C	0.175310	0.090742	0.000140
C89	C	0.508643	0.424075	0.333474
C90	C	0.841977	0.757408	0.666807
C91	C	0.891933	-0.157142	0.000102
C92	C	1.225266	0.176191	0.333435
C93	C	1.558599	0.509525	0.666769
C94	C	0.890861	-0.229966	0.000114
C95	C	1.224194	0.103367	0.333447
C96	C	1.557528	0.436701	0.666781
C97	C	0.826694	-0.257857	0.000107
C98	C	1.160027	0.075477	0.333440
C99	C	1.493361	0.408810	0.666773
C100	C	0.763594	-0.212917	0.000107
C101	C	1.096927	0.120416	0.333440
C102	C	1.430261	0.453749	0.666773
C103	C	0.764668	-0.140095	0.000102
C104	C	1.098001	0.193238	0.333436
C105	C	1.431334	0.526572	0.666769
N106	N	0.777640	-0.365859	-0.042744
N107	N	1.110973	-0.032526	0.290589
N108	N	1.444306	0.300807	0.623922
N109	N	0.776624	-0.435038	-0.042742
N110	N	1.109958	-0.101704	0.290591
N111	N	1.443291	0.231629	0.623925
C112	C	0.823456	-0.477265	0.000122
C113	C	1.156789	-0.143932	0.333455
C114	C	1.490122	0.189402	0.666788
N115	N	0.871352	-0.447702	0.042973
N116	N	1.204685	-0.114369	0.376306
N117	N	1.538019	0.218965	0.709639
N118	N	0.872369	-0.378517	0.042967
N119	N	1.205703	-0.045184	0.376300
N120	N	1.539036	0.288149	0.709633
C121	C	0.825523	-0.336819	0.000112
C122	C	1.158856	-0.003486	0.333445
C123	C	1.492190	0.329848	0.666779
C124	C	0.885390	-0.601159	0.000140
C125	C	1.218723	-0.267826	0.333473
C126	C	1.552056	0.065508	0.666806
C127	C	0.884315	-0.673984	0.000156
C128	C	1.217649	-0.340650	0.333490
C129	C	1.550982	-0.007317	0.666823
C130	C	0.757047	-0.656933	0.000142
C131	C	1.090380	-0.323600	0.333475
C132	C	1.423714	0.009733	0.666808
C133	C	0.758123	-0.584110	0.000133
C134	C	1.091456	-0.250777	0.333466
C135	C	1.424790	0.082556	0.666799
C136	C	0.822296	-0.556228	0.000128
C137	C	1.155630	-0.222894	0.333461
C138	C	1.488963	0.110439	0.666795
C139	C	0.952163	0.087460	0.000138
C140	C	1.285496	0.420794	0.333471
C141	C	1.618829	0.754127	0.666805
C142	C	1.029668	0.088594	0.000153
C143	C	1.363001	0.421927	0.333487
C144	C	1.696335	0.755261	0.666820
C145	C	0.819007	0.220626	0.000139
C146	C	1.152341	0.553959	0.333472
C147	C	1.485674	0.887293	0.666805
C148	C	0.820148	0.298131	0.000150
C149	C	1.153481	0.631464	0.333484
C150	C	1.486815	0.964797	0.666817
N151	N	0.824473	0.092950	-0.179042
N152	N	1.157806	0.426284	0.154291
N153	N	1.491139	0.759617	0.487624
C154	C	0.872100	0.045358	-0.218653
C155	C	1.205433	0.378692	0.114680
C156	C	1.538766	0.712025	0.448014
C157	C	0.872104	0.045355	-0.297901
C158	C	1.205437	0.378688	0.035433
C159	C	1.538771	0.712022	0.368766
C160	C	0.824488	0.092956	-0.337535
C161	C	1.157821	0.426289	-0.004201
C162	C	1.491154	0.759622	0.329132
C163	C	0.776852	0.140552	-0.297915
C164	C	1.110185	0.473885	0.035419
C165	C	1.443518	0.807218	0.368752
C166	C	0.776844	0.140549	-0.218668
C167	C	1.110178	0.473882	0.114665
C168	C	1.443511	0.807216	0.447998
N169	N	0.815411	0.154764	-0.461945
N170	N	1.148745	0.488097	-0.128612
N171	N	1.482078	0.821431	0.204721
N172	N	0.815422	0.154764	-0.537226
N173	N	1.148756	0.488097	-0.203892
N174	N	1.482089	0.821431	0.129441
C175	C	0.824506	0.092966	-0.576299
C176	C	1.157839	0.426299	-0.242965
C177	C	1.491173	0.759632	0.090368
N178	N	0.833592	0.031164	-0.537247
N179	N	1.166925	0.364498	-0.203914
N180	N	1.500258	0.697831	0.129420
N181	N	0.833584	0.031165	-0.461960
N182	N	1.166917	0.364498	-0.128626
N183	N	1.500251	0.697831	0.204707
C184	C	0.824490	0.092964	-0.423464
C185	C	1.157823	0.426297	-0.090130
C186	C	1.491157	0.759630	0.243203
C187	C	0.872140	0.045366	-0.701838
C188	C	1.205473	0.378699	-0.368505
C189	C	1.538807	0.712032	-0.035172
C190	C	0.872139	0.045361	-0.781087
C191	C	1.205473	0.378695	-0.447754
C192	C	1.538806	0.712028	-0.114421
C193	C	0.776890	0.140564	-0.781100
C194	C	1.110224	0.473897	-0.447767
C195	C	1.443557	0.807231	-0.114433
C196	C	0.776888	0.140562	-0.701852
C197	C	1.110221	0.473896	-0.368519
C198	C	1.443554	0.807229	-0.035186
C199	C	0.824516	0.092964	-0.662226
C200	C	1.157850	0.426297	-0.328893
C201	C	1.491183	0.759631	0.004440
N202	N	0.824522	0.092962	0.179284
N203	N	1.157855	0.426295	0.512617
N204	N	1.491188	0.759629	0.845951
H205	H	0.480488	0.095270	0.124620
H206	H	0.813821	0.428603	0.457953
H207	H	1.147155	0.761936	0.791286
H208	H	0.910889	0.006598	-0.330157
H209	H	1.244222	0.339932	0.003176
H210	H	1.577555	0.673265	0.336509
H211	H	0.937644	-0.578456	0.000139
H212	H	1.270977	-0.245123	0.333473
H213	H	1.604310	0.088211	0.666806
N214	N	0.472840	0.095159	-0.138618
N215	N	0.806173	0.428493	0.194715
N216	N	1.139507	0.761826	0.528049
N217	N	0.407822	0.094195	-0.138603
N218	N	0.741155	0.427528	0.194731
N219	N	1.074488	0.760862	0.528064
H220	H	0.381528	0.093810	-0.188106
H221	H	0.714861	0.427144	0.145227
H222	H	1.048195	0.760477	0.478561
H223	H	0.612511	0.097231	-0.124422
H224	H	0.945844	0.430564	0.208911
H225	H	1.279177	0.763898	0.542244
H226	H	0.036479	0.088702	0.124664
H227	H	0.369813	0.422035	0.457998
H228	H	0.703146	0.755369	0.791331
H229	H	0.713289	-0.103513	0.000099
H230	H	1.046622	0.229821	0.333432
H231	H	1.379956	0.563154	0.666766
H232	H	0.706747	-0.547527	0.000125
H233	H	1.040080	-0.214194	0.333458
H234	H	1.373413	0.119139	0.666792
H235	H	0.910880	0.006599	-0.186392
H236	H	1.244213	0.339933	0.146942
H237	H	1.577547	0.673266	0.480275
N238	N	0.920697	-0.003311	-0.661315
N239	N	1.254030	0.330022	-0.327982
N240	N	1.587363	0.663355	0.005351
N241	N	0.919838	-0.067831	-0.670184
N242	N	1.253171	0.265502	-0.336850
N243	N	1.586505	0.598835	-0.003517
H244	H	0.954099	-0.102228	-0.641547
H245	H	1.287432	0.231105	-0.308214
H246	H	1.620765	0.564439	0.025120
N247	N	0.028845	0.088595	-0.138585
N248	N	0.362178	0.421928	0.194748
N249	N	0.695511	0.755261	0.528082
N250	N	-0.018385	0.137203	-0.153885
N251	N	0.314949	0.470537	0.179449
N252	N	0.648282	0.803870	0.512782
H253	H	-0.044668	0.136830	-0.203396
H254	H	0.288666	0.470163	0.129938
H255	H	0.621999	0.803497	0.463271
H256	H	0.168589	0.090650	0.124653
H257	H	0.501923	0.423983	0.457986
H258	H	0.835256	0.757317	0.791320
N259	N	0.176036	0.090755	-0.138600
N260	N	0.509369	0.424088	0.194734
N261	N	0.842702	0.757422	0.528067
N262	N	0.143497	0.090269	-0.199867
N263	N	0.476830	0.423602	0.133467
N264	N	0.810164	0.756935	0.466800
H265	H	0.169738	0.090656	-0.249386
H266	H	0.503071	0.423990	0.083948
H267	H	0.836405	0.757323	0.417281
N268	N	0.948772	-0.719871	0.000171
N269	N	1.282106	-0.386538	0.333504
N270	N	1.615439	-0.053205	0.666837
N271	N	1.006061	-0.694963	0.000170
N272	N	1.339394	-0.361629	0.333503
N273	N	1.672727	-0.028296	0.666836
H274	H	1.051585	-0.727371	0.000181
H275	H	1.384919	-0.394038	0.333514
H276	H	1.718252	-0.060704	0.666847
N277	N	0.698050	-0.241405	0.000079
N278	N	1.031383	0.091928	0.333412
N279	N	1.364717	0.425262	0.666746
N280	N	0.655559	-0.227576	-0.052998
N281	N	0.988892	0.105758	0.280335
N282	N	1.322225	0.439091	0.613669
H283	H	0.609266	-0.247695	-0.053017
H284	H	0.942599	0.085638	0.280316
H285	H	1.275933	0.418972	0.613650
N286	N	0.728213	0.189166	-0.338407
N287	N	1.061546	0.522499	-0.005074
N288	N	1.394880	0.855832	0.328259
N289	N	0.728226	0.189162	-0.409162
N290	N	1.061559	0.522496	-0.075829
N291	N	1.394892	0.855829	0.257504
H292	H	0.693871	0.223495	-0.437761
H293	H	1.027204	0.556829	-0.104428
H294	H	1.360537	0.890162	0.228905
H295	H	0.704801	-0.679641	0.000140
H296	H	1.038134	-0.346308	0.333473
H297	H	1.371468	-0.012975	0.666806
N298	N	0.728186	0.189168	-0.178215
N299	N	1.061519	0.522502	0.155118
N300	N	1.394852	0.855835	0.488452
N301	N	0.685669	0.231663	-0.213607
N302	N	1.019002	0.564996	0.119727
N303	N	1.352335	0.898330	0.453060
H304	H	0.651303	0.266002	-0.185036
H305	H	0.984636	0.599336	0.148297
H306	H	1.317969	0.932669	0.481631
N307	N	0.957488	-0.128673	0.000099
N308	N	1.290821	0.204660	0.333433
N309	N	1.624155	0.537993	0.666766
N310	N	1.013816	-0.168804	0.000105
N311	N	1.347150	0.164530	0.333438
N312	N	1.680483	0.497863	0.666772
H313	H	1.060116	-0.148697	0.000105
H314	H	1.393449	0.184636	0.333438
H315	H	1.726783	0.517970	0.666771
H316	H	0.942239	-0.266555	0.000120
H317	H	1.275573	0.066779	0.333454
H318	H	1.608906	0.400112	0.666787
H319	H	0.910921	0.006602	-0.813339
H320	H	1.244254	0.339936	-0.480006
H321	H	1.577587	0.673269	-0.146672
N322	N	0.728248	0.189177	-0.821587
N323	N	1.061582	0.522510	-0.488254
N324	N	1.394915	0.855843	-0.154920
N325	N	0.728257	0.189170	-0.892342
N326	N	1.061590	0.522503	-0.559008
N327	N	1.394924	0.855837	-0.225675
H328	H	0.693900	0.223501	-0.920940
H329	H	1.027233	0.556835	-0.587607
H330	H	1.360567	0.890168	-0.254273
N331	N	0.728242	0.189194	-0.661400
N332	N	1.061576	0.522527	-0.328067
N333	N	1.394909	0.855860	0.005266
N334	N	0.729001	0.253727	-0.670238
N335	N	1.062334	0.587061	-0.336904
N336	N	1.395668	0.920394	-0.003571
H337	H	0.694641	0.288076	-0.641670
H338	H	1.027975	0.621409	-0.308337
H339	H	1.361308	0.954742	0.024997
N340	N	0.620141	0.097329	0.138831
N341	N	0.953474	0.430662	0.472165
N342	N	1.286808	0.763996	0.805498
N343	N	0.587642	0.096846	0.200103
N344	N	0.920976	0.430179	0.533436
N345	N	1.254309	0.763513	0.866770
H346	H	0.613917	0.097233	0.249618
H347	H	0.947250	0.430566	0.582952
H348	H	1.280583	0.763900	0.916285
