data_functionalizedCrystal
_audit_creation_method	'MofGen! by Chris Wilmer'
_symmetry_space_group_name_H-M	'P1'
_symmetry_Int_Tables_number	1
_symmetry_cell_setting	triclinic
loop_
_symmetry_equiv_pos_as_xyz
  x,y,z
_cell_length_a	18.050591
_cell_length_b	21.295417
_cell_length_c	21.295411
_cell_angle_alpha	89.971282
_cell_angle_beta	89.977563
_cell_angle_gamma	90.026512
loop_
_atom_site_label
_atom_site_type_symbol
_atom_site_fract_x
_atom_site_fract_y
_atom_site_fract_z
Zn1	Zn	1.135292	-0.250704	-0.356012
Zn2	Zn	1.468625	0.082629	-0.022679
Zn3	Zn	1.801958	0.415963	0.310655
Zn4	Zn	1.135194	-0.355969	-0.250737
Zn5	Zn	1.468528	-0.022636	0.082596
Zn6	Zn	1.801861	0.310698	0.415929
Zn7	Zn	1.011108	-0.250710	-0.250746
Zn8	Zn	1.344441	0.082623	0.082587
Zn9	Zn	1.677774	0.415956	0.415921
Zn10	Zn	1.011054	-0.355932	-0.355958
Zn11	Zn	1.344387	-0.022599	-0.022625
Zn12	Zn	1.677721	0.310735	0.310709
O13	O	1.073162	-0.303329	-0.303363
O14	O	1.406495	0.030005	0.029970
O15	O	1.739829	0.363338	0.363303
O16	O	1.239203	-0.264681	-0.342066
O17	O	1.572537	0.068653	-0.008733
O18	O	1.905870	0.401986	0.324601
O19	O	1.118716	-0.342024	-0.162649
O20	O	1.452049	-0.008691	0.170684
O21	O	1.785382	0.324643	0.504018
O22	O	1.027644	-0.162620	-0.264736
O23	O	1.360978	0.170713	0.068597
O24	O	1.694311	0.504047	0.401931
O25	O	1.239132	-0.342018	-0.264721
O26	O	1.572465	-0.008685	0.068612
O27	O	1.905798	0.324649	0.401945
O28	O	1.118882	-0.162615	-0.342074
O29	O	1.452215	0.170718	-0.008741
O30	O	1.785548	0.504051	0.324592
O31	O	1.027550	-0.264691	-0.162655
O32	O	1.360883	0.068642	0.170678
O33	O	1.694216	0.401976	0.504011
O34	O	0.907176	-0.264655	-0.264684
O35	O	1.240509	0.068678	0.068650
O36	O	1.573843	0.402011	0.401983
O37	O	1.027553	-0.341955	-0.444055
O38	O	1.360886	-0.008622	-0.110721
O39	O	1.694219	0.324711	0.222612
O40	O	0.907137	-0.341961	-0.341983
O41	O	1.240470	-0.008628	-0.008649
O42	O	1.573803	0.324705	0.324684
O43	O	1.118830	-0.264645	-0.444094
O44	O	1.452163	0.068689	-0.110761
O45	O	1.785496	0.402022	0.222572
O46	O	1.118664	-0.444053	-0.264669
O47	O	1.451997	-0.110720	0.068664
O48	O	1.785330	0.222613	0.401998
O49	O	1.027458	-0.444026	-0.341974
O50	O	1.360792	-0.110693	-0.008641
O51	O	1.694125	0.222640	0.324692
C52	C	0.880210	-0.303305	-0.303329
C53	C	1.213543	0.030028	0.030005
C54	C	1.546877	0.363361	0.363338
C55	C	0.797664	-0.303310	-0.303329
C56	C	1.130997	0.030023	0.030005
C57	C	1.464331	0.363356	0.363338
C58	C	1.073065	-0.466880	-0.303329
C59	C	1.406398	-0.133547	0.030005
C60	C	1.739731	0.199786	0.363338
C61	C	1.073091	-0.536849	-0.303335
C62	C	1.406424	-0.203515	0.029999
C63	C	1.739758	0.129818	0.363332
C64	C	0.598213	-0.261223	-0.261390
C65	C	0.931547	0.072111	0.071943
C66	C	1.264880	0.405444	0.405276
C67	C	0.548790	-0.318638	-0.245895
C68	C	0.882124	0.014695	0.087439
C69	C	1.215457	0.348029	0.420772
C70	C	0.646534	-0.303330	-0.303357
C71	C	0.979867	0.030004	0.029976
C72	C	1.313200	0.363337	0.363310
C73	C	0.548875	-0.245934	-0.318851
C74	C	0.882208	0.087399	0.014482
C75	C	1.215542	0.420733	0.347816
C76	C	0.500549	-0.303343	-0.303383
C77	C	0.833882	0.029990	0.029950
C78	C	1.167215	0.363324	0.363283
C79	C	0.598198	-0.360775	-0.287832
C80	C	0.931531	-0.027442	0.045502
C81	C	1.264865	0.305892	0.378835
C82	C	0.598287	-0.288032	-0.360814
C83	C	0.931620	0.045301	-0.027481
C84	C	1.264954	0.378634	0.305852
C85	C	0.548886	-0.345487	-0.345341
C86	C	0.882220	-0.012154	-0.012007
C87	C	1.215553	0.321179	0.321326
C88	C	0.730632	-0.303321	-0.303340
C89	C	1.063965	0.030012	0.029993
C90	C	1.397299	0.363346	0.363326
C91	C	0.416452	-0.303358	-0.303400
C92	C	0.749785	0.029975	0.029933
C93	C	1.083119	0.363309	0.363266
C94	C	1.120624	-0.569708	-0.263123
C95	C	1.453957	-0.236375	0.070210
C96	C	1.787290	0.096958	0.403544
C97	C	1.120659	-0.635451	-0.263137
C98	C	1.453992	-0.302118	0.070196
C99	C	1.787325	0.031216	0.403529
C100	C	1.073147	-0.668331	-0.303356
C101	C	1.406481	-0.334998	0.029977
C102	C	1.739814	-0.001664	0.363310
C103	C	1.025611	-0.635463	-0.343576
C104	C	1.358944	-0.302130	-0.010242
C105	C	1.692278	0.031203	0.323091
C106	C	1.025583	-0.569722	-0.343565
C107	C	1.358916	-0.236389	-0.010232
C108	C	1.692250	0.096945	0.323102
N109	N	1.008180	-0.771593	-0.308144
N110	N	1.341514	-0.438260	0.025190
N111	N	1.674847	-0.104927	0.358523
N112	N	1.008209	-0.834045	-0.308150
N113	N	1.341543	-0.500711	0.025183
N114	N	1.674876	-0.167378	0.358516
C115	C	1.073230	-0.866406	-0.303392
C116	C	1.406564	-0.533072	0.029941
C117	C	1.739897	-0.199739	0.363274
N118	N	1.138223	-0.833956	-0.298616
N119	N	1.471556	-0.500623	0.034718
N120	N	1.804890	-0.167289	0.368051
N121	N	1.138193	-0.771499	-0.298606
N122	N	1.471527	-0.438166	0.034728
N123	N	1.804860	-0.104832	0.368061
C124	C	1.073173	-0.739616	-0.303373
C125	C	1.406506	-0.406283	0.029960
C126	C	1.739840	-0.072950	0.363294
C127	C	1.120805	-0.970551	-0.263194
C128	C	1.454138	-0.637218	0.070139
C129	C	1.787472	-0.303884	0.403473
C130	C	1.120841	-1.036295	-0.263213
C131	C	1.454174	-0.702961	0.070121
C132	C	1.787508	-0.369628	0.403454
C133	C	1.025787	-1.036306	-0.343648
C134	C	1.359120	-0.702973	-0.010315
C135	C	1.692454	-0.369639	0.323019
C136	C	1.025758	-0.970563	-0.343633
C137	C	1.359091	-0.637230	-0.010299
C138	C	1.692424	-0.303897	0.323034
C139	C	1.073266	-0.937690	-0.303402
C140	C	1.406599	-0.604357	0.029931
C141	C	1.739932	-0.271023	0.363264
C142	C	1.266868	-0.303353	-0.303399
C143	C	1.600201	0.029981	0.029935
C144	C	1.933534	0.363314	0.363268
C145	C	1.349413	-0.303363	-0.303414
C146	C	1.682747	0.029970	0.029920
C147	C	2.016080	0.363304	0.363253
C148	C	1.073196	-0.303295	-0.467554
C149	C	1.406530	0.030038	-0.134220
C150	C	1.739863	0.363371	0.199113
C151	C	1.073211	-0.303281	-0.537522
C152	C	1.406544	0.030052	-0.204188
C153	C	1.739877	0.363386	0.129145
C154	C	1.073280	-0.139138	-0.303412
C155	C	1.406613	0.194195	0.029921
C156	C	1.739947	0.527528	0.363255
C157	C	1.073330	-0.069170	-0.303433
C158	C	1.406664	0.264163	0.029900
C159	C	1.739997	0.597496	0.363234
C160	C	1.120764	-0.343418	-1.036977
C161	C	1.454097	-0.010084	-0.703644
C162	C	1.787430	0.323249	-0.370311
C163	C	1.120750	-0.343438	-0.971235
C164	C	1.454084	-0.010105	-0.637901
C165	C	1.787417	0.323229	-0.304568
C166	C	1.073281	-0.303183	-0.938362
C167	C	1.406614	0.030151	-0.605028
C168	C	1.739948	0.363484	-0.271695
C169	C	1.025808	-0.262916	-0.971236
C170	C	1.359141	0.070417	-0.637903
C171	C	1.692475	0.403751	-0.304570
C172	C	1.025818	-0.262901	-1.036978
C173	C	1.359151	0.070432	-0.703644
C174	C	1.692484	0.403765	-0.370311
N175	N	1.067608	-0.248103	-0.835156
N176	N	1.400942	0.085230	-0.501822
N177	N	1.734275	0.418564	-0.168489
N178	N	1.067604	-0.248119	-0.772704
N179	N	1.400937	0.085215	-0.439371
N180	N	1.734270	0.418548	-0.106038
C181	C	1.073248	-0.303225	-0.740287
C182	C	1.406582	0.030108	-0.406953
C183	C	1.739915	0.363441	-0.073620
N184	N	1.078912	-0.358317	-0.772680
N185	N	1.412246	-0.024983	-0.439347
N186	N	1.745579	0.308350	-0.106013
N187	N	1.078921	-0.358300	-0.835137
N188	N	1.412254	-0.024967	-0.501804
N189	N	1.745588	0.308366	-0.168470
C190	C	1.073265	-0.303194	-0.867076
C191	C	1.406598	0.030139	-0.533743
C192	C	1.739932	0.363472	-0.200409
C193	C	1.120700	-0.343514	-0.636134
C194	C	1.454033	-0.010181	-0.302801
C195	C	1.787367	0.323152	0.030532
C196	C	1.120681	-0.343536	-0.570391
C197	C	1.454015	-0.010202	-0.237057
C198	C	1.787348	0.323131	0.096276
C199	C	1.025743	-0.263008	-0.570393
C200	C	1.359076	0.070325	-0.237060
C201	C	1.692410	0.403659	0.096273
C202	C	1.025758	-0.262993	-0.636136
C203	C	1.359091	0.070341	-0.302802
C204	C	1.692424	0.403674	0.030531
C205	C	1.073240	-0.303245	-0.669002
C206	C	1.406574	0.030089	-0.335669
C207	C	1.739907	0.363422	-0.002336
C208	C	1.073171	-0.303317	-0.139812
C209	C	1.406504	0.030017	0.193522
C210	C	1.739837	0.363350	0.526855
C211	C	1.073300	-0.303154	-0.069844
C212	C	1.406633	0.030180	0.263489
C213	C	1.739967	0.363513	0.596823
H214	H	0.527051	-0.331587	-0.197315
H215	H	0.860384	0.001747	0.136018
H216	H	1.193717	0.335080	0.469351
H217	H	0.987166	-0.230112	-1.063737
H218	H	1.320499	0.103221	-0.730404
H219	H	1.653833	0.436554	-0.397071
H220	H	0.987110	-0.230203	-0.662896
H221	H	1.320444	0.103130	-0.329563
H222	H	1.653777	0.436464	0.003770
N223	N	0.625404	-0.216599	-0.216832
N224	N	0.958737	0.116735	0.116501
N225	N	1.292071	0.450068	0.449835
N226	N	0.665047	-0.171898	-0.234740
N227	N	0.998380	0.161435	0.098593
N228	N	1.331714	0.494769	0.431926
H229	H	0.684252	-0.140384	-0.203271
H230	H	1.017586	0.192949	0.130063
H231	H	1.350919	0.526282	0.463396
H232	H	0.619774	-0.409334	-0.274684
H233	H	0.953107	-0.076000	0.058649
H234	H	1.286440	0.257333	0.391983
N235	N	1.169176	-0.384651	-0.536806
N236	N	1.502510	-0.051318	-0.203473
N237	N	1.835843	0.282015	0.129861
N238	N	1.169166	-0.384656	-0.478109
N239	N	1.502499	-0.051323	-0.144776
N240	N	1.835833	0.282011	0.188558
H241	H	1.203420	-0.413691	-0.454388
H242	H	1.536753	-0.080358	-0.121055
H243	H	1.870087	0.252976	0.212279
H244	H	0.527170	-0.197396	-0.331923
H245	H	0.860503	0.135937	0.001410
H246	H	1.193836	0.469270	0.334744
H247	H	1.159553	-1.063048	-0.230469
H248	H	1.492886	-0.729715	0.102865
H249	H	1.826219	-0.396381	0.436198
H250	H	0.527364	-0.381143	-0.380842
H251	H	0.860697	-0.047809	-0.047508
H252	H	1.194031	0.285524	0.285825
H253	H	0.987049	-0.943807	-0.376374
H254	H	1.320382	-0.610474	-0.043041
H255	H	1.653715	-0.277140	0.290293
H256	H	0.986929	-0.662238	-0.376324
H257	H	1.320262	-0.328905	-0.042990
H258	H	1.653595	0.004428	0.290343
H259	H	0.620045	-0.275066	-0.409379
H260	H	0.953378	0.058267	-0.076046
H261	H	1.286711	0.391600	0.257288
H262	H	0.986875	-0.542967	-0.376311
H263	H	1.320209	-0.209634	-0.042977
H264	H	1.653542	0.123700	0.290356
N265	N	1.169155	-0.536140	-0.222027
N266	N	1.502489	-0.202807	0.111307
N267	N	1.835822	0.130527	0.444640
N268	N	1.211594	-0.565492	-0.186126
N269	N	1.544927	-0.232159	0.147207
N270	N	1.878260	0.101174	0.480541
H271	H	1.245871	-0.541784	-0.157102
H272	H	1.579204	-0.208451	0.176232
H273	H	1.912537	0.124883	0.509565
H274	H	0.987157	-0.230141	-0.944467
H275	H	1.320491	0.103192	-0.611133
H276	H	1.653824	0.436526	-0.277800
H277	H	1.159368	-0.662211	-0.230392
H278	H	1.492701	-0.328877	0.102941
H279	H	1.826035	0.004456	0.436274
H280	H	1.159361	-0.376292	-0.662896
H281	H	1.492695	-0.042958	-0.329562
H282	H	1.826028	0.290375	0.003771
N283	N	1.169344	-0.936957	-0.222122
N284	N	1.502677	-0.603624	0.111212
N285	N	1.836010	-0.270291	0.444545
N286	N	1.169315	-0.878260	-0.222119
N287	N	1.502649	-0.544927	0.111214
N288	N	1.835982	-0.211594	0.444548
H289	H	1.203599	-0.854535	-0.193114
H290	H	1.536932	-0.521202	0.140219
H291	H	1.870265	-0.187868	0.473553
H292	H	0.987106	-1.063076	-0.376398
H293	H	1.320439	-0.729743	-0.043065
H294	H	1.653772	-0.396410	0.290269
N295	N	1.169262	-0.384543	-1.070539
N296	N	1.502595	-0.051210	-0.737205
N297	N	1.835928	0.282124	-0.403872
N298	N	1.211632	-0.420496	-1.041180
N299	N	1.544966	-0.087162	-0.707847
N300	N	1.878299	0.246171	-0.374513
H301	H	1.245882	-0.449544	-1.064883
H302	H	1.579215	-0.116210	-0.731550
H303	H	1.912548	0.217123	-0.398217
H304	H	1.159412	-0.376218	-0.944469
H305	H	1.492745	-0.042885	-0.611136
H306	H	1.826079	0.290448	-0.277803
N307	N	0.977252	-0.221897	-0.536813
N308	N	1.310585	0.111436	-0.203479
N309	N	1.643918	0.444769	0.129854
N310	N	0.977246	-0.221917	-0.478116
N311	N	1.310579	0.111416	-0.144782
N312	N	1.643912	0.444749	0.188551
H313	H	0.942995	-0.192884	-0.454396
H314	H	1.276328	0.140450	-0.121062
H315	H	1.609662	0.473783	0.212271
