data_functionalizedCrystal
_audit_creation_method	'MofGen! by Chris Wilmer'
_symmetry_space_group_name_H-M	'P1'
_symmetry_Int_Tables_number	1
_symmetry_cell_setting	triclinic
loop_
_symmetry_equiv_pos_as_xyz
  x,y,z
_cell_length_a	14.044209
_cell_length_b	14.044220
_cell_length_c	13.101039
_cell_angle_alpha	86.332810
_cell_angle_beta	86.324717
_cell_angle_gamma	86.811585
loop_
_atom_site_label
_atom_site_type_symbol
_atom_site_fract_x
_atom_site_fract_y
_atom_site_fract_z
O1	O	-0.234985	1.272343	0.085226
O2	O	-0.226680	0.995672	0.085228
O3	O	-0.092496	1.129857	0.085212
O4	O	-0.369169	1.138159	0.085242
O5	O	-0.082856	1.139488	-0.085218
O6	O	-0.217040	1.005303	-0.085203
O7	O	-0.225345	1.281975	-0.085205
Zn8	Zn	-0.219662	1.145168	-0.112264
Zn9	Zn	-0.232363	1.132479	0.112287
O10	O	-0.359529	1.147790	-0.085189
C11	C	-0.052054	1.131037	-0.000005
C12	C	0.054089	1.120194	-0.000009
C13	C	-0.218224	0.964866	0.000013
C14	C	-0.207380	0.858723	0.000013
C15	C	-0.233801	1.312781	0.000013
C16	C	-0.244646	1.418923	0.000019
C17	C	0.248426	1.100368	-0.000000
C18	C	0.299556	1.177283	0.000000
C19	C	0.407692	1.166252	0.000005
C20	C	0.140280	1.111398	-0.000005
C21	C	0.600029	1.146612	0.000022
C22	C	0.493887	1.157462	0.000009
C23	C	-0.264472	1.613260	0.000020
C24	C	-0.187558	1.664391	0.000012
C25	C	-0.198589	1.772527	0.000012
C26	C	-0.253442	1.505115	0.000020
N27	N	-0.241024	1.123818	0.265536
N28	N	-0.210994	1.153835	-0.265513
C29	C	-0.252808	1.112027	0.474580
C30	C	-0.199213	1.165623	0.525450
C31	C	-0.205770	1.159063	0.641769
C32	C	-0.246253	1.118587	0.358250
H33	H	0.262113	1.251412	0.000070
N34	N	0.298013	1.002177	-0.000017
H35	H	0.248827	0.952378	-0.000023
H36	H	0.335648	0.990691	0.063162
N37	N	-0.320094	1.044710	0.532594
H38	H	-0.387759	1.062471	0.514011
H39	H	-0.315212	1.049532	0.608650
N40	N	-0.362670	1.662835	0.000040
H41	H	-0.367100	1.707617	-0.063134
H42	H	-0.374173	1.700414	0.063265
H43	H	-0.148405	1.216435	0.481641
N44	N	-0.089356	1.614811	0.000003
H45	H	-0.095290	1.543470	0.000006
H46	H	-0.057124	1.630375	0.063183
