data_functionalizedCrystal
_audit_creation_method	'MofGen! by Chris Wilmer'
_symmetry_space_group_name_H-M	'P1'
_symmetry_Int_Tables_number	1
_symmetry_cell_setting	triclinic
loop_
_symmetry_equiv_pos_as_xyz
  x,y,z
_cell_length_a	18.101398
_cell_length_b	25.639239
_cell_length_c	18.101389
_cell_angle_alpha	89.979551
_cell_angle_beta	89.975673
_cell_angle_gamma	90.033952
loop_
_atom_site_label
_atom_site_type_symbol
_atom_site_fract_x
_atom_site_fract_y
_atom_site_fract_z
Zn1	Zn	1.132082	-0.208272	-0.418828
Zn2	Zn	1.632082	0.291728	0.081172
Zn3	Zn	1.131961	-0.295693	-0.294982
Zn4	Zn	1.631961	0.204307	0.205018
Zn5	Zn	1.008241	-0.208266	-0.294989
Zn6	Zn	1.508241	0.291734	0.205011
Zn7	Zn	1.008175	-0.295671	-0.418771
Zn8	Zn	1.508175	0.204329	0.081229
O9	O	1.070115	-0.251975	-0.356893
O10	O	1.570115	0.248025	0.143107
O11	O	1.235699	-0.219880	-0.402421
O12	O	1.735699	0.280120	0.097579
O13	O	1.115527	-0.284103	-0.191350
O14	O	1.615527	0.215897	0.308650
O15	O	1.024747	-0.135102	-0.311444
O16	O	1.524747	0.364898	0.188556
O17	O	1.235610	-0.284108	-0.311432
O18	O	1.735610	0.215892	0.188568
O19	O	1.115732	-0.135106	-0.402428
O20	O	1.615732	0.364894	0.097572
O21	O	1.024630	-0.219871	-0.191356
O22	O	1.524630	0.280129	0.308644
O23	O	0.904599	-0.219849	-0.311388
O24	O	1.404599	0.280151	0.188612
O25	O	1.024635	-0.284070	-0.522411
O26	O	1.524635	0.215930	-0.022411
O27	O	0.904551	-0.284065	-0.402330
O28	O	1.404551	0.215935	0.097670
O29	O	1.115668	-0.219858	-0.522454
O30	O	1.615668	0.280142	-0.022454
O31	O	1.115463	-0.368855	-0.311376
O32	O	1.615463	0.131145	0.188624
O33	O	1.024518	-0.368839	-0.402323
O34	O	1.524518	0.131161	0.097677
C35	C	0.877704	-0.251954	-0.356854
C36	C	1.377704	0.248046	0.143146
C37	C	0.795390	-0.251958	-0.356855
C38	C	1.295390	0.248042	0.143145
C39	C	0.496299	-0.251990	-0.356917
C40	C	0.996299	0.248010	0.143083
C41	C	0.527630	-0.211386	-0.299978
C42	C	1.027630	0.288614	0.200022
C43	C	0.613248	-0.211495	-0.299735
C44	C	1.113248	0.288505	0.200265
C45	C	0.644682	-0.251974	-0.356886
C46	C	1.144682	0.248026	0.143114
C47	C	0.613553	-0.307048	-0.335559
C48	C	1.113553	0.192952	0.164441
C49	C	0.527908	-0.306822	-0.335163
C50	C	1.027908	0.193178	0.164837
C51	C	0.527917	-0.238000	-0.435317
C52	C	1.027917	0.262000	0.064683
C53	C	0.613568	-0.236773	-0.434890
C54	C	1.113568	0.263227	0.065110
C55	C	0.728541	-0.251968	-0.356870
C56	C	1.228541	0.248032	0.143130
C57	C	0.412440	-0.252000	-0.356932
C58	C	0.912440	0.248000	0.143068
C59	C	1.069990	-0.387818	-0.356859
C60	C	1.569990	0.112182	0.143141
C61	C	1.070005	-0.445932	-0.356869
C62	C	1.570005	0.054068	0.143131
C63	C	1.117594	-0.806291	-0.309617
C64	C	1.617594	-0.306291	0.190383
C65	C	1.117622	-0.860895	-0.309627
C66	C	1.617622	-0.360895	0.190373
O67	O	1.157955	-0.889129	-0.269415
O68	O	1.657955	-0.389129	0.230585
N69	N	1.070245	-0.888214	-0.356942
N70	N	1.570245	-0.388214	0.143058
C71	C	1.022841	-0.860926	-0.404255
C72	C	1.522841	-0.360926	0.095745
O73	O	0.982546	-0.889177	-0.444501
O74	O	1.482546	-0.389177	0.055499
C75	C	1.022817	-0.806323	-0.404248
C76	C	1.522817	-0.306323	0.095752
C77	C	1.070192	-0.779007	-0.356925
C78	C	1.570192	-0.279007	0.143075
C79	C	1.164965	-0.778975	-0.262299
C80	C	1.664965	-0.278975	0.237701
C81	C	1.164936	-0.724374	-0.262288
C82	C	1.664936	-0.224374	0.237712
C83	C	1.117534	-0.697090	-0.309596
C84	C	1.617534	-0.197090	0.190404
C85	C	1.070162	-0.724406	-0.356914
C86	C	1.570162	-0.224406	0.143086
C87	C	0.975417	-0.779036	-0.451564
C88	C	1.475417	-0.279036	0.048436
C89	C	0.975397	-0.724429	-0.451554
C90	C	1.475397	-0.224429	0.048446
C91	C	1.022773	-0.697113	-0.404231
C92	C	1.522773	-0.197113	0.095769
C93	C	1.022731	-0.642522	-0.404212
C94	C	1.522731	-0.142522	0.095788
N95	N	1.070108	-0.615202	-0.356897
N96	N	1.570108	-0.115202	0.143103
C97	C	1.117509	-0.642487	-0.309589
C98	C	1.617509	-0.142487	0.190411
C99	C	1.022897	-0.975597	-0.404266
C100	C	1.522897	-0.475597	0.095734
C101	C	1.022917	-1.030199	-0.404270
C102	C	1.522917	-0.530199	0.095730
C103	C	1.117699	-1.030164	-0.309643
C104	C	1.617699	-0.530164	0.190357
C105	C	1.117675	-0.975561	-0.309636
C106	C	1.617675	-0.475561	0.190364
C107	C	1.070274	-0.948278	-0.356952
C108	C	1.570274	-0.448278	0.143048
C109	C	1.117443	-0.527822	-0.309570
C110	C	1.617443	-0.027822	0.190430
C111	C	1.117406	-0.473216	-0.309561
C112	C	1.617406	0.026784	0.190439
C113	C	1.022627	-0.473256	-0.404190
C114	C	1.522627	0.026744	0.095810
C115	C	1.022661	-0.527856	-0.404197
C116	C	1.522661	-0.027856	0.095803
C117	C	1.070074	-0.555138	-0.356884
C118	C	1.570074	-0.055138	0.143116
O119	O	0.982421	-0.614254	-0.444405
O120	O	1.482421	-0.114254	0.055595
O121	O	1.157804	-0.614229	-0.269357
O122	O	1.657804	-0.114229	0.230643
C123	C	1.263277	-0.251997	-0.356932
C124	C	1.763277	0.248003	0.143068
C125	C	1.345591	-0.252006	-0.356949
C126	C	1.845591	0.247994	0.143051
C127	C	1.070158	-0.251962	-0.550055
C128	C	1.570158	0.248038	-0.050055
C129	C	1.070176	-0.251957	-0.632369
C130	C	1.570176	0.248043	-0.132369
C131	C	1.070260	-0.115602	-0.356943
C132	C	1.570260	0.384398	0.143057
C133	C	1.070322	-0.057488	-0.356964
C134	C	1.570322	0.442512	0.143036
C135	C	1.070219	-0.251859	-0.931460
C136	C	1.570219	0.248141	-0.431460
C137	C	1.012746	-0.292130	-0.900108
C138	C	1.512746	0.207870	-0.400108
C139	C	1.012901	-0.292317	-0.814490
C140	C	1.512901	0.207683	-0.314490
C141	C	1.070197	-0.251907	-0.783077
C142	C	1.570197	0.248093	-0.283077
C143	C	1.148220	-0.266868	-0.814182
C144	C	1.648220	0.233132	-0.314182
C145	C	1.147899	-0.267132	-0.899827
C146	C	1.647899	0.232868	-0.399827
C147	C	1.050348	-0.196537	-0.899887
C148	C	1.550348	0.303463	-0.399887
C149	C	1.048612	-0.196856	-0.814236
C150	C	1.548612	0.303144	-0.314236
C151	C	1.070189	-0.251934	-0.699218
C152	C	1.570189	0.248066	-0.199218
C153	C	1.070232	-0.251833	-1.015320
C154	C	1.570232	0.248167	-0.515320
C155	C	1.070115	-0.251951	-0.164482
C156	C	1.570115	0.248049	0.335518
C157	C	1.070240	-0.251809	-0.082169
C158	C	1.570240	0.248191	0.417831
H159	H	0.633912	-0.338111	-0.375733
H160	H	1.133912	0.161889	0.124267
C161	C	1.217046	-0.694333	-0.210223
C162	C	1.717046	-0.194333	0.289777
N163	N	1.256297	-0.671710	-0.171002
N164	N	1.756297	-0.171710	0.328998
C165	C	0.974819	-0.178127	-0.929041
C166	C	1.474819	0.321873	-0.429041
N167	N	0.917926	-0.164267	-0.951000
N168	N	1.417926	0.335733	-0.451000
C169	C	0.923252	-0.694421	-0.503606
C170	C	1.423252	-0.194421	-0.003606
N171	N	0.883975	-0.671820	-0.542811
N172	N	1.383975	-0.171820	-0.042811
H173	H	1.203570	-0.801184	-0.223775
H174	H	1.703570	-0.301184	0.276225
H175	H	1.156252	-0.953323	-0.271102
H176	H	1.656252	-0.453323	0.228898
H177	H	1.156299	-1.052389	-0.271125
H178	H	1.656299	-0.552389	0.228875
H179	H	1.087419	-0.165258	-0.792854
H180	H	1.587419	0.334742	-0.292854
H181	H	0.506352	-0.198540	-0.454708
H182	H	1.006352	0.301460	0.045292
C183	C	0.934344	-0.279609	-0.927912
C184	C	1.434344	0.220391	-0.427912
N185	N	0.875291	-0.270178	-0.948860
N186	N	1.375291	0.229822	-0.448860
H187	H	0.633700	-0.220743	-0.241642
H188	H	1.133700	0.279257	0.258358
H189	H	0.984292	-0.953386	-0.442794
H190	H	1.484292	-0.453386	0.057206
H191	H	0.507180	-0.338099	-0.374826
H192	H	1.007180	0.161901	0.125174
H193	H	1.156053	-0.550028	-0.271045
H194	H	1.656053	-0.050028	0.228955
H195	H	0.506079	-0.220529	-0.242223
H196	H	1.006079	0.279471	0.257777
H197	H	0.507068	-0.170421	-0.313200
H198	H	1.007068	0.329579	0.186800
H199	H	0.955044	-0.282955	-0.793458
H200	H	1.455044	0.217045	-0.293458
H201	H	0.984333	-1.052436	-0.442798
H202	H	1.484333	-0.552436	0.057202
H203	H	0.991194	-0.185574	-0.793905
H204	H	1.491194	0.314426	-0.293905
H205	H	1.092209	-0.166532	-0.920164
H206	H	1.592209	0.333468	-0.420164
H207	H	0.936836	-0.801268	-0.490096
H208	H	1.436836	-0.301268	0.009904
H209	H	0.984086	-0.550098	-0.442733
H210	H	1.484086	-0.050098	0.057267
C211	C	1.030298	-0.347192	-0.929174
C212	C	1.530298	0.152808	-0.429174
N213	N	1.043524	-0.388665	-0.951063
N214	N	1.543524	0.111335	-0.451063
C215	C	0.970491	-0.443233	-0.456229
C216	C	1.470491	0.056767	0.043771
N217	N	0.931226	-0.420618	-0.495430
N218	N	1.431226	0.079382	0.004570
H219	H	1.026019	-0.333323	-0.794005
H220	H	1.526019	0.166677	-0.294005
C221	C	0.500868	-0.322846	-0.257732
C222	C	1.000868	0.177154	0.242268
N223	N	0.480506	-0.334913	-0.199407
N224	N	0.980506	0.165087	0.300593
H225	H	1.192172	-0.239073	-0.920569
H226	H	1.692172	0.260927	-0.420569
C227	C	0.641685	-0.156320	-0.317785
C228	C	1.141685	0.343680	0.182215
N229	N	0.663100	-0.114759	-0.331376
N230	N	1.163100	0.385241	0.168624
H231	H	0.634966	-0.319119	-0.278864
H232	H	1.134966	0.180881	0.221136
C233	C	0.641052	-0.182018	-0.456612
C234	C	1.141052	0.317982	0.043388
N235	N	0.661755	-0.140775	-0.472970
N236	N	1.161755	0.359225	0.027030
H237	H	1.164746	-0.307573	-0.919809
H238	H	1.664746	0.192427	-0.419809
C239	C	1.207626	-0.228490	-0.786694
C240	C	1.707626	0.271510	-0.286694
N241	N	1.252370	-0.199583	-0.765988
N242	N	1.752370	0.300417	-0.265988
C243	C	1.171372	-0.320923	-0.785218
C244	C	1.671372	0.179077	-0.285218
N245	N	1.188806	-0.361640	-0.763404
N246	N	1.688806	0.138360	-0.263404
C247	C	0.642471	-0.273820	-0.495275
C248	C	1.142471	0.226180	0.004725
N249	N	0.664239	-0.301728	-0.540755
N250	N	1.164239	0.198272	-0.040755
H251	H	1.155985	-0.450977	-0.271023
H252	H	1.655985	0.049023	0.228977
C253	C	0.500539	-0.277952	-0.492633
C254	C	1.000539	0.222048	0.007367
N255	N	0.479914	-0.308045	-0.535797
N256	N	0.979914	0.191955	-0.035797
