data_functionalizedCrystal
_audit_creation_method	'MofGen! by Chris Wilmer'
_symmetry_space_group_name_H-M	'P1'
_symmetry_Int_Tables_number	1
_symmetry_cell_setting	triclinic
loop_
_symmetry_equiv_pos_as_xyz
  x,y,z
_cell_length_a	12.759401
_cell_length_b	12.645330
_cell_length_c	12.759393
_cell_angle_alpha	89.971026
_cell_angle_beta	89.979062
_cell_angle_gamma	90.019217
loop_
_atom_site_label
_atom_site_type_symbol
_atom_site_fract_x
_atom_site_fract_y
_atom_site_fract_z
Zn1	Zn	1.606245	-0.421945	-0.594031
Zn2	Zn	2.106245	0.078055	-0.094031
Zn3	Zn	1.606126	-0.599246	-0.418356
Zn4	Zn	2.106126	-0.099246	0.081644
Zn5	Zn	1.430543	-0.422001	-0.418366
Zn6	Zn	1.930543	0.077999	0.081634
Zn7	Zn	1.430526	-0.599172	-0.593993
Zn8	Zn	1.930526	-0.099172	-0.093993
O9	O	1.518360	-0.510591	-0.506187
O10	O	2.018360	-0.010591	-0.006187
O11	O	1.753250	-0.445472	-0.570739
O12	O	2.253250	0.054528	-0.070739
O13	O	1.582793	-0.575788	-0.271336
O14	O	2.082793	-0.075788	0.228664
O15	O	1.453907	-0.273647	-0.441689
O16	O	1.953907	0.226353	0.058311
O17	O	1.753163	-0.575734	-0.441671
O18	O	2.253163	-0.075734	0.058329
O19	O	1.582994	-0.273605	-0.570749
O20	O	2.082994	0.226395	-0.070749
O21	O	1.453793	-0.445568	-0.271344
O22	O	1.953793	0.054432	0.228656
O23	O	1.283520	-0.445496	-0.441652
O24	O	1.783520	0.054504	0.058348
O25	O	1.453878	-0.575607	-0.741019
O26	O	1.953878	-0.075607	-0.241019
O27	O	1.283507	-0.575662	-0.570684
O28	O	1.783507	-0.075662	-0.070684
O29	O	1.582977	-0.445400	-0.741047
O30	O	2.082977	0.054600	-0.241047
O31	O	1.582776	-0.747583	-0.441634
O32	O	2.082776	-0.247583	0.058366
O33	O	1.453763	-0.747529	-0.570674
O34	O	1.953763	-0.247529	-0.070674
C35	C	1.245393	-0.510578	-0.506166
C36	C	1.745393	-0.010578	-0.006166
C37	C	1.128616	-0.510598	-0.506182
C38	C	1.628616	-0.010598	-0.006182
C39	C	1.073775	-0.578479	-0.573263
C40	C	1.573775	-0.078479	-0.073263
C41	C	0.964051	-0.578483	-0.573284
C42	C	1.464051	-0.078483	-0.073284
C43	C	0.964019	-0.442722	-0.439133
C44	C	1.464019	0.057278	0.060867
C45	C	1.073741	-0.442714	-0.439118
C46	C	1.573741	0.057286	0.060882
C47	C	1.518283	-0.786021	-0.506172
C48	C	2.018283	-0.286021	-0.006172
C49	C	1.518347	-0.903851	-0.506201
C50	C	2.018347	-0.403851	-0.006201
C51	C	1.437519	-1.071424	-0.587630
C52	C	1.937519	-0.571424	-0.087630
C53	C	1.437106	-0.948865	-0.587368
C54	C	1.937106	-0.448865	-0.087368
C55	C	1.488371	-0.948453	-0.395479
C56	C	1.988371	-0.448453	0.104521
C57	C	1.487878	-1.071052	-0.395973
C58	C	1.987878	-0.571052	0.104027
C59	C	1.629644	-1.070935	-0.534596
C60	C	2.129644	-0.570935	-0.034596
C61	C	1.628962	-0.948328	-0.537017
C62	C	2.128962	-0.448328	-0.037017
C63	C	1.792393	-0.510605	-0.506208
C64	C	2.292393	-0.010605	-0.006208
C65	C	1.909170	-0.510610	-0.506217
C66	C	2.409170	-0.010610	-0.006217
C67	C	1.518439	-0.510489	-0.780220
C68	C	2.018439	-0.010489	-0.280220
C69	C	1.518472	-0.510446	-0.896997
C70	C	2.018472	-0.010446	-0.396997
C71	C	1.518466	-0.234086	-0.506224
C72	C	2.018466	0.265914	-0.006224
C73	C	1.518511	-0.116255	-0.506241
C74	C	2.018511	0.383745	-0.006241
C75	C	1.585699	-0.442636	-0.951875
C76	C	2.085699	0.057364	-0.451875
C77	C	1.585717	-0.442590	-1.061599
C78	C	2.085717	0.057410	-0.561599
C79	C	1.451278	-0.578173	-1.061557
C80	C	1.951278	-0.078173	-0.561557
C81	C	1.451255	-0.578213	-0.951835
C82	C	1.951255	-0.078213	-0.451835
C83	C	1.518342	-0.510616	-0.233219
C84	C	2.018342	-0.010616	0.266781
C85	C	1.518512	-0.510360	-0.116443
C86	C	2.018512	-0.010360	0.383557
H87	H	1.118451	-0.633752	-0.627873
H88	H	1.618451	-0.133752	-0.127873
Br89	Br	1.581919	-1.120494	-0.291448
Br90	Br	2.081919	-0.620494	0.208552
H91	H	1.640459	-0.387371	-1.106276
H92	H	2.140459	0.112629	-0.606276
Br93	Br	1.730221	-1.119275	-0.435811
Br94	Br	2.230221	-0.619275	0.064189
Br95	Br	1.734842	-0.897237	-0.445417
Br96	Br	2.234842	-0.397237	0.054583
Br97	Br	1.360002	-0.670238	-0.877350
Br98	Br	1.860002	-0.170238	-0.377350
Br99	Br	1.468483	-1.120437	-0.724924
Br100	Br	1.968483	-0.620437	-0.224924
H101	H	1.640429	-0.387452	-0.907229
H102	H	2.140429	0.112548	-0.407229
Br103	Br	1.360063	-0.670142	-1.135987
Br104	Br	1.860063	-0.170142	-0.635987
Br105	Br	1.352475	-1.118886	-0.355935
Br106	Br	1.852475	-0.618886	0.144065
H107	H	1.355645	-1.102329	-0.569085
H108	H	1.855645	-0.602329	-0.069085
H109	H	0.919404	-0.633756	-0.627910
H110	H	1.419404	-0.133756	-0.127910
H111	H	0.919326	-0.387455	-0.384531
H112	H	1.419326	0.112545	0.115469
Br113	Br	1.354376	-0.897448	-0.354714
Br114	Br	1.854376	-0.397448	0.145286
H115	H	1.656988	-1.101772	-0.613962
H116	H	2.156988	-0.601772	-0.113962
H117	H	1.118394	-0.387431	-0.384493
H118	H	1.618394	0.112569	0.115507
Br119	Br	1.468362	-0.898589	-0.724207
Br120	Br	1.968362	-0.398589	-0.224207
Br121	Br	1.583573	-0.899866	-0.291638
Br122	Br	2.083573	-0.399866	0.208362
Br123	Br	1.299783	-0.900134	-0.556067
Br124	Br	1.799783	-0.400134	-0.056067
Br125	Br	1.666644	-0.899736	-0.672834
Br126	Br	2.166644	-0.399736	-0.172834
