data_functionalizedCrystal
_audit_creation_method	'MofGen! by Chris Wilmer'
_symmetry_space_group_name_H-M	'P1'
_symmetry_Int_Tables_number	1
_symmetry_cell_setting	triclinic
loop_
_symmetry_equiv_pos_as_xyz
  x,y,z
_cell_length_a	16.109301
_cell_length_b	16.109304
_cell_length_c	15.186229
_cell_angle_alpha	90.000934
_cell_angle_beta	90.000638
_cell_angle_gamma	83.462059
loop_
_atom_site_label
_atom_site_type_symbol
_atom_site_fract_x
_atom_site_fract_y
_atom_site_fract_z
O1	O	-1.103132	-0.106866	-0.073167
O2	O	-0.861070	-0.120165	-0.073181
O3	O	-0.988749	0.007515	-0.073174
O4	O	-0.975452	-0.234546	-0.073174
O5	O	-0.988741	0.007517	0.073283
O6	O	-0.861061	-0.120163	0.073277
O7	O	-1.103123	-0.106864	0.073290
Zn8	Zn	-0.982091	-0.113513	0.096537
Zn9	Zn	-0.982102	-0.113516	-0.096427
O10	O	-0.975444	-0.234545	0.073283
C11	C	-0.830091	-0.119626	0.000046
C12	C	-0.737795	-0.118010	0.000041
C13	C	-0.988206	0.038491	0.000052
C14	C	-0.986590	0.130786	0.000046
N15	N	-0.982089	-0.113511	0.228229
C16	C	-1.134102	-0.107404	0.000061
C17	C	-1.226398	-0.109019	0.000061
C18	C	-0.515524	-0.190018	0.000051
C19	C	-0.428803	-0.188494	0.000057
C20	C	-0.448676	-0.037005	0.000053
C21	C	-0.535395	-0.038530	0.000054
C22	C	-0.568816	-0.115039	0.000048
C23	C	-0.395377	-0.111990	0.000053
C24	C	-0.301351	-0.110337	0.000059
C25	C	-0.662848	-0.116693	0.000044
C26	C	-0.975987	-0.265520	0.000055
C27	C	-0.977603	-0.357816	0.000055
C28	C	-0.982861	0.343123	-0.079784
C29	C	-0.981335	0.429843	-0.079784
C30	C	-0.981330	0.429842	0.079892
C31	C	-0.982850	0.343122	0.079890
C32	C	-0.983620	0.299766	0.000050
C33	C	-0.980573	0.473205	0.000052
C34	C	-0.978919	0.567231	0.000053
C35	C	-0.985273	0.205734	0.000048
N36	N	-0.982110	-0.113511	-0.228120
C37	C	-1.038645	-0.056993	0.453955
C38	C	-1.038648	-0.056991	0.546145
C39	C	-0.925549	-0.170032	0.546148
C40	C	-0.925543	-0.170029	0.453960
C41	C	-0.982096	-0.113511	0.407866
C42	C	-0.982104	-0.113512	0.592243
C43	C	-0.982107	-0.113510	0.692200
C44	C	-0.982092	-0.113511	0.307903
H45	H	-0.542732	-0.252316	0.000053
C46	C	-0.980533	0.477536	-0.167607
N47	N	-0.979940	0.513459	-0.233760
H48	H	-0.980705	0.465154	0.144896
C49	C	-0.983684	0.295427	0.167719
N50	N	-0.984309	0.259502	0.233868
C51	C	-0.983698	0.295432	-0.167611
N52	N	-0.984325	0.259513	-0.233766
C53	C	-1.100848	0.005185	0.403255
N54	N	-1.147699	0.052022	0.365070
C55	C	-0.370185	-0.270977	0.000064
N56	N	-0.326033	-0.333107	0.000072
C57	C	-1.100850	0.005189	0.596838
N58	N	-1.147700	0.052029	0.635020
H59	H	-0.879506	-0.216049	0.583687
C60	C	-0.863368	-0.232244	0.403259
N61	N	-0.816553	-0.279115	0.365071
H62	H	-0.421454	0.025285	0.000063
H63	H	-0.578788	0.022530	0.000054
