data_functionalizedCrystal
_audit_creation_method	'MofGen! by Chris Wilmer'
_symmetry_space_group_name_H-M	'P1'
_symmetry_Int_Tables_number	1
_symmetry_cell_setting	triclinic
loop_
_symmetry_equiv_pos_as_xyz
  x,y,z
_cell_length_a	15.944551
_cell_length_b	15.944545
_cell_length_c	15.021413
_cell_angle_alpha	90.002227
_cell_angle_beta	89.996338
_cell_angle_gamma	96.502545
loop_
_atom_site_label
_atom_site_type_symbol
_atom_site_fract_x
_atom_site_fract_y
_atom_site_fract_z
O1	O	-0.108312	1.114528	0.073965
O2	O	0.225022	1.447861	0.407298
O3	O	0.558355	1.781194	0.740631
O4	O	-0.121673	0.869977	0.073978
O5	O	0.211660	1.203311	0.407311
O6	O	0.544993	1.536644	0.740645
O7	O	0.007283	0.998930	0.073976
O8	O	0.340616	1.332264	0.407309
O9	O	0.673949	1.665597	0.740643
O10	O	-0.237267	0.985574	0.073966
O11	O	0.096066	1.318908	0.407300
O12	O	0.429399	1.652241	0.740633
O13	O	0.007296	0.998919	-0.074088
O14	O	0.340629	1.332252	0.259245
O15	O	0.673962	1.665586	0.592579
O16	O	-0.121660	0.869966	-0.074086
O17	O	0.211673	1.203299	0.259247
O18	O	0.545007	1.536633	0.592580
O19	O	-0.108298	1.114516	-0.074100
O20	O	0.225035	1.447850	0.259234
O21	O	0.558368	1.781183	0.592567
Zn22	Zn	-0.114977	0.992239	-0.097601
Zn23	Zn	0.218356	1.325573	0.235732
Zn24	Zn	0.551690	1.658906	0.569065
Zn25	Zn	-0.114995	0.992254	0.097480
Zn26	Zn	0.218339	1.325587	0.430813
Zn27	Zn	0.551672	1.658921	0.764146
O28	O	-0.237254	0.985563	-0.074098
O29	O	0.096079	1.318896	0.259236
O30	O	0.429412	1.652230	0.592569
C31	C	-0.121113	0.838677	-0.000052
C32	C	0.212220	1.172011	0.333281
C33	C	0.545554	1.505344	0.666614
C34	C	-0.119453	0.745431	-0.000047
C35	C	0.213881	1.078764	0.333286
C36	C	0.547214	1.412098	0.666620
C37	C	-0.034559	0.474798	-0.000053
C38	C	0.298774	0.808132	0.333280
C39	C	0.632108	1.141465	0.666614
C40	C	-0.075481	0.525374	-0.073060
C41	C	0.257852	0.858708	0.260273
C42	C	0.591185	1.192041	0.593607
C43	C	-0.113532	0.409787	-0.000062
C44	C	0.219801	0.743121	0.333271
C45	C	0.553135	1.076454	0.666605
C46	C	-0.075516	0.525366	0.072920
C47	C	0.257818	0.858700	0.406253
C48	C	0.591151	1.192033	0.739586
C49	C	-0.116437	0.574701	-0.000053
C50	C	0.216897	0.908034	0.333280
C51	C	0.550230	1.241368	0.666614
C52	C	-0.154433	0.459135	-0.073129
C53	C	0.178900	0.792468	0.260204
C54	C	0.512233	1.125802	0.593537
C55	C	-0.154456	0.459123	0.072916
C56	C	0.178877	0.792457	0.406249
C57	C	0.512211	1.125790	0.739583
C58	C	-0.195436	0.509667	-0.000109
C59	C	0.137897	0.843000	0.333224
C60	C	0.471230	1.176333	0.666558
C61	C	-0.111856	0.314785	-0.000068
C62	C	0.221477	0.648119	0.333266
C63	C	0.554810	0.981452	0.666599
C64	C	-0.118119	0.669700	-0.000054
C65	C	0.215215	1.003034	0.333280
C66	C	0.548548	1.336367	0.666613
C67	C	-0.268555	0.986123	-0.000067
C68	C	0.064779	1.319456	0.333266
C69	C	0.398112	1.652790	0.666600
C70	C	-0.361801	0.987785	-0.000071
C71	C	-0.028467	1.321119	0.333262
C72	C	0.304866	1.654452	0.666596
C73	C	-0.576656	1.071690	-0.000062
C74	C	-0.243322	1.405023	0.333271
C75	C	0.090011	1.738357	0.666605
C76	C	-0.637666	1.032722	-0.073064
C77	C	-0.304333	1.366055	0.260269
C78	C	0.029001	1.699388	0.593603
C79	C	-0.532527	0.990793	-0.000063
C80	C	-0.199193	1.324126	0.333270
C81	C	0.134140	1.657459	0.666604
C82	C	-0.637665	1.032714	0.072916
C83	C	-0.304331	1.366047	0.406249
C84	C	0.029002	1.699381	0.739582
C85	C	-0.697439	0.993703	-0.000052
C86	C	-0.364106	1.327037	0.333282
C87	C	-0.030772	1.660370	0.666615
C88	C	-0.592309	0.951802	-0.073125
C89	C	-0.258976	1.285136	0.260208
C90	C	0.074358	1.618469	0.593541
C91	C	-0.592301	0.951806	0.072920
C92	C	-0.258968	1.285139	0.406253
C93	C	0.074365	1.618472	0.739586
C94	C	-0.653294	0.912779	-0.000100
C95	C	-0.319961	1.246112	0.333233
C96	C	0.013373	1.579445	0.666567
C97	C	-0.437524	0.989118	-0.000070
C98	C	-0.104191	1.322451	0.333263
C99	C	0.229142	1.655785	0.666596
C100	C	-0.792440	0.995372	-0.000051
C101	C	-0.459107	1.328705	0.333282
C102	C	-0.125774	1.662038	0.666616
C103	C	0.038583	0.998370	-0.000053
C104	C	0.371916	1.331704	0.333281
C105	C	0.705250	1.665037	0.666614
C106	C	0.131829	0.996708	-0.000043
C107	C	0.465162	1.330041	0.333290
C108	C	0.798496	1.663375	0.666624
C109	C	-0.108859	1.145816	-0.000067
C110	C	0.224475	1.479149	0.333266
C111	C	0.557808	1.812483	0.666599
C112	C	-0.110519	1.239062	-0.000067
C113	C	0.222814	1.572396	0.333266
C114	C	0.556148	1.905729	0.666600
N115	N	-0.114965	0.992235	-0.230739
N116	N	0.218369	1.325568	0.102594
N117	N	0.551702	1.658902	0.435928
C118	C	-0.054862	1.051417	-0.529731
C119	C	0.278471	1.384750	-0.196398
C120	C	0.611805	1.718083	0.136936
C121	C	-0.130532	1.068404	-0.470368
C122	C	0.202801	1.401737	-0.137035
C123	C	0.536135	1.735070	0.196298
C124	C	-0.114990	0.992255	-0.587776
C125	C	0.218343	1.325588	-0.254443
C126	C	0.551677	1.658922	0.078891
C127	C	-0.039310	0.975298	-0.470397
C128	C	0.294024	1.308631	-0.137063
C129	C	0.627357	1.641964	0.196270
C130	C	-0.114973	0.992248	-0.412352
C131	C	0.218360	1.325581	-0.079018
C132	C	0.551693	1.658914	0.254315
C133	C	-0.190698	1.009280	-0.529720
C134	C	0.142635	1.342614	-0.196386
C135	C	0.475969	1.675947	0.136947
C136	C	-0.099426	0.916141	-0.529753
C137	C	0.233907	1.249474	-0.196420
C138	C	0.567240	1.582808	0.136913
C139	C	-0.175151	0.933096	-0.470417
C140	C	0.158182	1.266429	-0.137084
C141	C	0.491515	1.599763	0.196249
C142	C	-0.114998	0.992262	-0.688833
C143	C	0.218335	1.325595	-0.355500
C144	C	0.551668	1.658928	-0.022167
C145	C	-0.114974	0.992240	-0.311297
C146	C	0.218360	1.325574	0.022037
C147	C	0.551693	1.658907	0.355370
N148	N	-0.115000	0.992265	0.230617
N149	N	0.218333	1.325598	0.563951
N150	N	0.551666	1.658932	0.897284
H151	H	-0.042124	0.554301	-0.134779
H152	H	0.291210	0.887634	0.198554
H153	H	0.624543	1.220967	0.531888
H154	H	-0.254708	1.023689	-0.555669
H155	H	0.078625	1.357023	-0.222336
H156	H	0.411958	1.690356	0.110998
F157	F	-0.031913	0.563171	0.153589
F158	F	0.301421	0.896504	0.486922
F159	F	0.634754	1.229837	0.820256
H160	H	0.033453	0.459145	-0.000121
H161	H	0.366787	0.792478	0.333212
H162	H	0.700120	1.125812	0.666545
H163	H	-0.543348	1.138839	-0.000137
H164	H	-0.210015	1.472173	0.333196
H165	H	0.123318	1.805506	0.666529
F166	F	-0.198019	0.421292	0.153590
F167	F	0.135314	0.754625	0.486924
F168	F	0.468647	1.087959	0.820257
H169	H	-0.686454	0.845571	-0.000137
H170	H	-0.353121	1.178905	0.333196
H171	H	-0.019787	1.512238	0.666529
H172	H	-0.226048	0.883059	-0.444538
H173	H	0.107286	1.216393	-0.111205
H174	H	0.440619	1.549726	0.222128
H175	H	-0.657767	1.066933	-0.134786
H176	H	-0.324433	1.400267	0.198548
H177	H	0.008900	1.733600	0.531881
F178	F	-0.663932	1.077462	0.153580
F179	F	-0.330598	1.410795	0.486913
F180	F	0.002735	1.744128	0.820246
H181	H	-0.187755	0.430321	-0.134917
H182	H	0.145578	0.763654	0.198416
H183	H	0.478911	1.096988	0.531749
F184	F	-0.565997	0.907126	0.153598
F185	F	-0.232663	1.240459	0.486932
F186	F	0.100670	1.573793	0.820265
H187	H	-0.004077	1.101484	-0.555773
H188	H	0.329256	1.434818	-0.222440
H189	H	0.662589	1.768151	0.110894
F190	F	-0.566176	0.907110	-0.153884
F191	F	-0.232843	1.240443	0.179449
F192	F	0.100491	1.573776	0.512782
F193	F	-0.147727	1.152529	-0.436254
F194	F	0.185606	1.485862	-0.102921
F195	F	0.518940	1.819196	0.230413
F196	F	-0.082190	0.832037	-0.563875
F197	F	0.251143	1.165370	-0.230542
F198	F	0.584476	1.498703	0.102791
H199	H	0.024685	0.960958	-0.444337
H200	H	0.358019	1.294291	-0.111004
H201	H	0.691352	1.627625	0.222329
F202	F	-0.284402	0.529915	-0.000163
F203	F	0.048931	0.863248	0.333170
F204	F	0.382264	1.196581	0.666503
