data_functionalizedCrystal
_audit_creation_method	'MofGen! by Chris Wilmer'
_symmetry_space_group_name_H-M	'P1'
_symmetry_Int_Tables_number	1
_symmetry_cell_setting	triclinic
loop_
_symmetry_equiv_pos_as_xyz
  x,y,z
_cell_length_a	14.853567
_cell_length_b	14.853567
_cell_length_c	13.930277
_cell_angle_alpha	90.000757
_cell_angle_beta	89.995755
_cell_angle_gamma	96.365070
loop_
_atom_site_label
_atom_site_type_symbol
_atom_site_fract_x
_atom_site_fract_y
_atom_site_fract_z
O1	O	1.196368	-0.117704	-0.079756
O2	O	0.933909	-0.131725	-0.079772
O3	O	1.072149	0.006516	-0.079767
O4	O	1.058128	-0.255944	-0.079762
O5	O	1.072130	0.006519	0.079895
O6	O	0.933890	-0.131722	0.079890
O7	O	1.196349	-0.117701	0.079905
Zn8	Zn	1.065116	-0.124711	0.105247
Zn9	Zn	1.065142	-0.124715	-0.105114
O10	O	1.058109	-0.255941	0.079900
C11	C	0.900311	-0.131088	0.000057
C12	C	0.800227	-0.129184	0.000051
C13	C	1.071504	0.040106	0.000061
C14	C	1.069601	0.140189	0.000053
C15	C	0.387693	-0.039019	0.000070
C16	C	0.366412	-0.203251	0.000073
C17	C	0.460446	-0.205042	0.000070
C18	C	0.518108	-0.123819	0.000066
C19	C	0.481736	-0.040806	0.000065
C20	C	0.496825	-0.288053	0.000061
C21	C	0.590864	-0.289846	0.000057
C22	C	0.648528	-0.208623	0.000060
C23	C	0.612150	-0.125607	0.000060
C24	C	0.669812	-0.044384	0.000056
C25	C	0.633437	0.038633	0.000063
C26	C	0.539399	0.040417	0.000067
C27	C	0.742565	-0.210407	0.000055
C28	C	0.763855	-0.046172	0.000050
C29	C	1.229947	-0.118337	0.000075
C30	C	1.330031	-0.120241	0.000075
C31	C	1.058754	-0.289531	0.000070
C32	C	1.060657	-0.389615	0.000072
N33	N	1.065106	-0.124708	0.248814
C34	C	0.979435	0.552723	0.000066
C35	C	1.143668	0.574004	0.000076
C36	C	1.145458	0.479971	0.000070
C37	C	1.064235	0.422309	0.000064
C38	C	0.981223	0.458680	0.000063
C39	C	1.228469	0.443591	0.000080
C40	C	1.230262	0.349552	0.000076
C41	C	1.149039	0.291889	0.000063
C42	C	1.066023	0.328266	0.000061
C43	C	0.984800	0.270604	0.000055
C44	C	0.901783	0.306979	0.000047
C45	C	0.899999	0.401017	0.000050
C46	C	1.150823	0.197851	0.000059
C47	C	0.986588	0.176561	0.000052
N48	N	1.065160	-0.124711	-0.248680
C49	C	1.003926	-0.185904	0.701081
C50	C	1.126382	-0.063519	0.701055
C51	C	1.126371	-0.063516	0.600559
C52	C	1.065138	-0.124709	0.550319
C53	C	1.003916	-0.185904	0.600576
C54	C	1.187598	-0.002328	0.550295
C55	C	1.187591	-0.002323	0.449793
C56	C	1.126353	-0.063512	0.399552
C57	C	1.065127	-0.124710	0.449814
C58	C	1.003894	-0.185902	0.399575
C59	C	0.942664	-0.247096	0.449835
C60	C	0.942677	-0.247094	0.550334
C61	C	1.126339	-0.063515	0.299053
C62	C	1.003883	-0.185903	0.299070
H63	H	0.810798	0.019971	0.000050
C64	C	0.434333	-0.376304	0.000210
C65	C	0.450804	-0.426295	0.082334
C66	C	0.393259	-0.507606	0.082497
H67	H	0.373087	-0.363480	0.000267
H68	H	0.445384	-0.410383	-0.055443
H69	H	0.439745	-0.392223	0.137972
H70	H	0.512038	-0.439143	0.082294
H71	H	0.404310	-0.541685	0.026844
H72	H	0.332016	-0.494774	0.082551
H73	H	0.404432	-0.541539	0.138212
H74	H	1.237457	0.047489	0.591203
H75	H	1.176196	-0.013696	0.258136
H76	H	1.237447	0.047505	0.408877
C77	C	0.500080	0.130635	0.000109
C78	C	0.570701	0.201386	0.000129
C79	C	0.534511	0.284505	0.000174
H80	H	0.463856	0.134867	-0.055555
H81	H	0.463858	0.134798	0.055807
H82	H	0.606907	0.197225	-0.055564
H83	H	0.606931	0.197184	0.055789
H84	H	0.498289	0.288669	0.055873
H85	H	0.498287	0.288728	-0.055491
H86	H	0.582421	0.332520	0.000197
C87	C	0.937359	-0.252445	0.244701
C88	C	0.883759	-0.306045	0.310230
C89	C	0.822477	-0.367360	0.260181
H90	H	0.899706	-0.220051	0.205497
H91	H	0.969807	-0.290087	0.205513
H92	H	0.851314	-0.268407	0.349401
H93	H	0.921388	-0.338458	0.349436
H94	H	0.854924	-0.405003	0.220994
H95	H	0.784830	-0.334959	0.220979
H96	H	0.786108	-0.403741	0.304634
H97	H	0.680397	0.104764	0.000053
C98	C	0.889214	0.592036	0.000007
C99	C	0.818469	0.521407	-0.000023
C100	C	0.735345	0.557587	-0.000092
H101	H	0.884962	0.628266	0.055666
H102	H	0.885061	0.628249	-0.055696
H103	H	0.822620	0.485210	0.055674
H104	H	0.822691	0.485171	-0.055679
H105	H	0.731193	0.593800	-0.055795
H106	H	0.731103	0.593818	0.055569
H107	H	0.687335	0.509672	-0.000121
C108	C	0.876311	-0.313494	0.605077
C109	C	0.889449	-0.300414	0.703842
C110	C	0.828341	-0.361575	0.754303
H111	H	0.816090	-0.303656	0.588741
H112	H	0.886183	-0.373700	0.588656
H113	H	0.879571	-0.240222	0.720255
H114	H	0.949658	-0.310259	0.720205
H115	H	0.838213	-0.421781	0.737883
H116	H	0.768124	-0.351732	0.737960
H117	H	0.837253	-0.352714	0.821320
C118	C	1.320300	0.309888	0.000121
C119	C	1.304485	0.215193	0.000134
C120	C	1.387405	0.178622	0.000184
H121	H	1.353819	0.329579	-0.055540
H122	H	1.353752	0.329616	0.055823
H123	H	1.271047	0.195473	-0.055562
H124	H	1.270979	0.195477	0.055791
H125	H	1.420857	0.198350	0.055886
H126	H	1.420918	0.198320	-0.055478
H127	H	1.376686	0.114368	0.000202
H128	H	0.319459	-0.269379	0.000068
C129	C	1.192807	0.003064	0.755480
C130	C	1.178081	0.091681	0.731024
C131	C	1.239259	0.153047	0.781139
H132	H	1.184104	-0.005577	0.822546
H133	H	1.253005	-0.006771	0.738984
H134	H	1.117897	0.101512	0.747527
H135	H	1.186791	0.100351	0.663968
H136	H	1.299458	0.143211	0.764642
H137	H	1.230551	0.144397	0.848202
H138	H	1.229282	0.213180	0.764546
C139	C	0.630222	-0.380044	-0.000095
C140	C	0.600906	-0.429157	-0.082225
C141	C	0.637132	-0.512257	-0.082389
H142	H	0.694483	-0.369615	-0.000146
H143	H	0.610404	-0.413537	0.055554
H144	H	0.620729	-0.395671	-0.137860
H145	H	0.536650	-0.439610	-0.082191
H146	H	0.617314	-0.545750	-0.026740
H147	H	0.701392	-0.501820	-0.082437
H148	H	0.617240	-0.545594	-0.138108
H149	H	0.358072	0.028572	0.000080
H150	H	0.772178	-0.277998	0.000051
H151	H	0.920445	0.129618	0.000043
H152	H	1.218414	0.168238	0.000072
H153	H	0.835652	0.260019	0.000048
H154	H	0.832411	0.430643	0.000044
H155	H	1.209795	0.620958	0.000088
H156	H	1.294596	0.490546	0.000094
H157	H	0.892811	-0.296924	0.408919
H158	H	0.954071	-0.235724	0.742005
