data_functionalizedCrystal
_audit_creation_method	'MofGen! by Chris Wilmer'
_symmetry_space_group_name_H-M	'P1'
_symmetry_Int_Tables_number	1
_symmetry_cell_setting	triclinic
loop_
_symmetry_equiv_pos_as_xyz
  x,y,z
_cell_length_a	10.686285
_cell_length_b	10.685972
_cell_length_c	10.686551
_cell_angle_alpha	81.590232
_cell_angle_beta	99.084519
_cell_angle_gamma	90.336301
loop_
_atom_site_label
_atom_site_type_symbol
_atom_site_fract_x
_atom_site_fract_y
_atom_site_fract_z
Zn1	Zn	-0.282884	-2.015989	0.846645
Zn2	Zn	-0.511473	-2.015887	0.618134
Zn3	Zn	-0.317996	-1.789922	0.615609
Zn4	Zn	-0.511344	-1.820001	0.814049
O5	O	-0.405924	-1.910450	0.723609
O6	O	-0.298566	-2.192564	0.831031
O7	O	-0.500556	-1.973282	0.439119
O8	O	-0.136757	-1.807365	0.658841
O9	O	-0.466509	-2.192489	0.663145
O10	O	-0.110960	-1.973455	0.828582
O11	O	-0.358410	-1.807266	0.437263
O12	O	-0.358285	-1.617324	0.627234
O13	O	-0.466290	-1.858630	0.997054
O14	O	-0.500336	-1.639423	0.773027
O15	O	-0.298441	-2.002621	1.021002
O16	O	-0.688037	-2.002448	0.631538
O17	O	-0.687942	-1.858531	0.775476
C18	C	-0.433107	-1.582586	0.696320
C19	C	-0.444764	-1.442329	0.684673
C20	C	-0.733770	-1.933778	0.700275
C21	C	-0.874011	-1.943877	0.690345
C22	C	-0.076793	-1.887067	0.747066
C23	C	0.063464	-1.877102	0.757061
C24	C	-0.378434	-1.933992	1.056653
C25	C	-0.366720	-1.944025	1.198577
C26	C	-0.378628	-1.239593	0.751001
C27	C	-0.366975	-1.379852	0.762659
C28	C	-0.433210	-1.887065	0.391874
C29	C	-0.444548	-1.877252	0.249997
H30	H	-0.520286	-1.388510	0.608985
F31	F	-0.267912	-2.028793	1.282956
H32	H	-0.520146	-1.812413	1.185444
F33	F	-0.866273	-1.792280	0.841655
F34	F	-0.944282	-2.028690	0.605733
H35	H	-0.291451	-1.433663	0.838335
