data_functionalizedCrystal
_audit_creation_method	'MofGen! by Chris Wilmer'
_symmetry_space_group_name_H-M	'P1'
_symmetry_Int_Tables_number	1
_symmetry_cell_setting	triclinic
loop_
_symmetry_equiv_pos_as_xyz
  x,y,z
_cell_length_a	11.295483
_cell_length_b	16.992694
_cell_length_c	16.992695
_cell_angle_alpha	90.668223
_cell_angle_beta	94.374931
_cell_angle_gamma	85.620289
loop_
_atom_site_label
_atom_site_type_symbol
_atom_site_fract_x
_atom_site_fract_y
_atom_site_fract_z
O1	O	0.098876	-1.055813	-0.161955
O2	O	0.098911	-0.827415	-0.160122
O3	O	0.098884	-0.940698	-0.046839
O4	O	0.098903	-0.942530	-0.275238
O5	O	-0.099164	-0.930747	-0.056773
O6	O	-0.099137	-0.817464	-0.170056
O7	O	-0.099172	-1.045862	-0.171889
Cu8	Cu	-0.117238	-0.930755	-0.171879
Cu9	Cu	0.116977	-0.942523	-0.160132
O10	O	-0.099146	-0.932579	-0.285172
C11	C	-0.000109	-0.793080	-0.162733
C12	C	-0.000096	-0.705596	-0.155703
N13	N	-0.281973	-0.922483	-0.180142
C14	C	-0.000139	-0.933367	-0.022446
C15	C	-0.000138	-0.926338	0.065039
C16	C	-0.531283	-1.010339	-0.092341
C17	C	-0.655945	-1.004094	-0.098591
C18	C	-0.655961	-0.903745	-0.198887
C19	C	-0.531299	-0.909990	-0.192637
C20	C	-0.468964	-0.963290	-0.139363
C21	C	-0.344300	-0.969538	-0.133118
C22	C	-0.344319	-0.869186	-0.233409
C23	C	-0.468981	-0.862941	-0.239659
N24	N	0.281711	-0.950800	-0.151863
C25	C	-0.000150	-1.080198	-0.169278
C26	C	-0.000155	-1.167682	-0.176307
C27	C	-0.000091	-0.659605	-0.223521
C28	C	-0.000108	-0.577403	-0.216913
C29	C	-0.000121	-0.541194	-0.142486
C30	C	-0.000129	-0.587191	-0.074664
C31	C	-0.000121	-0.669391	-0.081273
C32	C	-0.000155	-0.295878	-0.115093
C33	C	-0.000160	-0.213673	-0.108489
C34	C	-0.000141	-0.203891	-0.250739
C35	C	-0.000125	-0.286093	-0.257342
C36	C	-0.000140	-0.332082	-0.189519
N37	N	-0.000135	-0.457172	-0.135730
N38	N	-0.000135	-0.416103	-0.196277
C39	C	-0.000119	-0.939911	-0.309565
C40	C	-0.000113	-0.946940	-0.397049
C41	C	-0.000150	-0.994156	0.111029
C42	C	-0.000137	-0.987547	0.193231
C43	C	-0.000122	-0.913120	0.229440
C44	C	-0.000107	-0.845298	0.183444
C45	C	-0.000111	-0.851908	0.101244
C46	C	-0.000101	-0.885727	0.474755
C47	C	-0.000101	-0.879122	0.556960
C48	C	-0.000130	-1.021372	0.566742
C49	C	-0.000141	-1.027975	0.484540
C50	C	-0.000119	-0.960153	0.438552
N51	N	-0.000113	-0.906364	0.313462
N52	N	-0.000119	-0.966911	0.354531
H53	H	-0.293548	-1.012939	-0.089742
H54	H	-0.480529	-1.053743	-0.048969
H55	H	-0.000079	-0.689080	-0.284128
C56	C	-0.000167	-1.076026	0.071207
H57	H	-0.000161	-1.115469	0.110373
H58	H	-0.069231	-1.078093	0.035883
H59	H	0.068905	-1.085031	0.042807
C60	C	-0.000162	-1.062146	0.243816
H61	H	-0.000189	-1.107417	0.210478
H62	H	0.068901	-1.066003	0.279547
H63	H	-0.069235	-1.059047	0.272623
H64	H	-0.000153	-1.088581	0.455065
H65	H	-0.000145	-1.076589	0.604195
C66	C	-0.000106	-0.325921	-0.339209
H67	H	-0.000087	-0.381464	-0.333431
H68	H	-0.069163	-0.306980	-0.370821
H69	H	0.068973	-0.313900	-0.363877
H70	H	-0.000132	-0.166438	-0.305956
C71	C	-0.000154	-0.346460	-0.040493
H72	H	-0.000158	-0.400602	-0.055084
H73	H	0.068908	-0.338460	-0.006725
H74	H	-0.069228	-0.331535	-0.013651
C75	C	-0.000141	-0.547363	0.007205
H76	H	-0.000133	-0.491822	0.001430
H77	H	-0.069206	-0.559381	0.031882
H78	H	0.068931	-0.566311	0.038807
C79	C	-0.000064	-0.797250	0.596790
H80	H	-0.000037	-0.757805	0.557630
H81	H	-0.069123	-0.788237	0.625194
H82	H	0.069014	-0.795200	0.632112
C83	C	-0.000099	-0.811124	0.424177
H84	H	-0.000105	-0.765853	0.457516
H85	H	0.068962	-0.814208	0.395366
H86	H	-0.069175	-0.807278	0.388449
C87	C	-0.000101	-0.777309	0.050655
H88	H	-0.000101	-0.732035	0.083990
H89	H	0.068963	-0.780401	0.021846
H90	H	-0.069174	-0.773459	0.014925
H91	H	-0.706731	-0.860345	-0.242256
H92	H	-0.000124	-0.706836	-0.026048
H93	H	-0.000087	-0.784698	0.212932
H94	H	-0.519748	-0.819543	-0.283032
C95	C	-0.724497	-1.055847	-0.046869
H96	H	-0.807670	-1.044491	-0.058215
H97	H	-0.704057	-1.109943	-0.057710
H98	H	-0.704070	-1.045021	0.007235
C99	C	-0.275766	-0.817438	-0.285145
H100	H	-0.192593	-0.828790	-0.273795
H101	H	-0.296205	-0.828264	-0.339243
H102	H	-0.296196	-0.763336	-0.274304
C103	C	-0.000177	-0.173844	-0.026616
H104	H	-0.000194	-0.213005	0.012830
H105	H	0.068886	-0.145447	-0.017616
H106	H	-0.069250	-0.138516	-0.024551
C107	C	-0.000099	-0.526817	-0.291513
H108	H	-0.000075	-0.560155	-0.336784
H109	H	-0.069167	-0.491086	-0.295360
H110	H	0.068970	-0.498010	-0.288423
