data_functionalizedCrystal
_audit_creation_method	'MofGen! by Chris Wilmer'
_symmetry_space_group_name_H-M	'P1'
_symmetry_Int_Tables_number	1
_symmetry_cell_setting	triclinic
loop_
_symmetry_equiv_pos_as_xyz
  x,y,z
_cell_length_a	14.044220
_cell_length_b	14.044220
_cell_length_c	14.048226
_cell_angle_alpha	89.992807
_cell_angle_beta	89.998644
_cell_angle_gamma	93.188878
loop_
_atom_site_label
_atom_site_type_symbol
_atom_site_fract_x
_atom_site_fract_y
_atom_site_fract_z
O1	O	1.277171	0.230170	-0.079063
O2	O	1.000499	0.221864	-0.079087
O3	O	1.134682	0.087681	-0.079066
O4	O	1.142988	0.364353	-0.079084
O5	O	1.134664	0.087671	0.079255
O6	O	1.000481	0.221854	0.079234
O7	O	1.277152	0.230160	0.079258
Zn8	Zn	1.138814	0.226005	0.104383
Zn9	Zn	1.138838	0.226019	-0.104212
O10	O	1.142969	0.364343	0.079237
C11	C	0.964868	0.218223	0.000071
C12	C	0.858725	0.207379	0.000062
C13	C	0.664388	0.187553	0.000082
C14	C	0.613258	0.264467	0.000081
C15	C	0.505122	0.253435	0.000092
C16	C	0.772534	0.198583	0.000071
C17	C	1.131037	0.052054	0.000095
C18	C	1.120193	-0.054088	0.000095
C19	C	1.100366	-0.248426	0.000079
C20	C	1.177281	-0.299556	0.000083
C21	C	1.166249	-0.407692	0.000075
C22	C	1.111397	-0.140280	0.000088
C23	C	1.312783	0.233800	0.000098
C24	C	1.418926	0.244645	0.000101
C25	C	1.146614	0.399969	0.000074
C26	C	1.157459	0.506112	0.000068
N27	N	1.138804	0.225996	0.246744
N28	N	1.138854	0.226021	-0.246573
C29	C	1.198243	0.166608	0.296571
C30	C	1.198249	0.166608	0.396229
C31	C	1.138821	0.226002	0.446057
C32	C	1.079376	0.285392	0.396223
C33	C	1.079365	0.285386	0.296567
C34	C	1.079404	0.285401	0.603937
C35	C	1.079415	0.285408	0.703600
C36	C	1.198288	0.166623	0.703599
C37	C	1.198277	0.166618	0.603943
C38	C	1.138833	0.226009	0.554116
H39	H	0.650697	0.338600	0.000071
O40	O	0.619777	0.099095	0.000251
C41	C	0.595946	-0.051063	0.082233
C42	C	0.646525	0.049092	0.082177
H43	H	0.617569	-0.091527	0.148452
H44	H	0.515419	-0.044373	0.082297
H45	H	0.617458	-0.091461	0.015941
H46	H	0.625091	0.089545	0.148457
H47	H	0.727043	0.042333	0.082063
O48	O	1.265654	-0.254748	0.000143
C49	C	1.357364	-0.104546	0.000116
C50	C	1.257232	-0.155173	0.000067
H51	H	1.350588	-0.024032	0.000034
H52	H	1.397818	-0.126019	0.066394
H53	H	1.397821	-0.126117	-0.066120
H54	H	1.216695	-0.133628	0.066258
H55	H	1.216850	-0.133699	-0.066256
H56	H	1.246648	0.118250	0.436798
O57	O	1.255983	0.108793	0.751888
C58	C	1.297887	-0.052449	0.782434
C59	C	1.232495	0.012925	0.727668
H60	H	1.278907	-0.129972	0.762888
H61	H	1.375413	-0.033566	0.762806
H62	H	1.287707	-0.042200	0.862216
H63	H	1.242591	0.002712	0.647874
H64	H	1.154993	-0.005973	0.747376
O65	O	1.255755	0.108672	0.555543
C66	C	1.264652	-0.020380	0.443441
C67	C	1.199529	0.045331	0.498105
H68	H	1.219218	-0.071620	0.397004
H69	H	1.315939	0.024569	0.396596
H70	H	1.307016	-0.062780	0.496315
H71	H	1.157103	0.087744	0.445299
H72	H	1.148303	0.000329	0.544965
H73	H	1.026239	-0.285863	0.000071
O74	O	1.255865	0.108754	0.248236
C75	C	1.297787	-0.052510	0.217884
C76	C	1.232455	0.012914	0.272647
H77	H	1.278897	-0.130009	0.237615
H78	H	1.287585	-0.042425	0.138080
H79	H	1.375301	-0.033518	0.237465
H80	H	1.154917	-0.006037	0.253146
H81	H	1.242740	0.002819	0.352438
O82	O	1.021634	0.343185	0.555681
C83	C	0.903699	0.460973	0.566193
C84	C	0.969084	0.395594	0.620962
H85	H	0.861180	0.503348	0.618948
H86	H	0.948903	0.512234	0.519550
H87	H	0.852558	0.415680	0.519523
H88	H	1.020236	0.440811	0.667683
H89	H	0.923820	0.344329	0.667545
H90	H	1.031022	0.333772	0.744165
O91	O	1.021601	0.343167	0.248309
C92	C	0.903656	0.460945	0.258821
C93	C	0.969048	0.395574	0.313590
H94	H	0.861135	0.503318	0.311577
H95	H	0.948853	0.512208	0.212175
H96	H	0.852517	0.415646	0.212155
H97	H	1.020198	0.440797	0.360308
H98	H	0.923791	0.344307	0.360176
H99	H	1.030983	0.333748	0.436799
