data_functionalizedCrystal
_audit_creation_method	'MofGen! by Chris Wilmer'
_symmetry_space_group_name_H-M	'P1'
_symmetry_Int_Tables_number	1
_symmetry_cell_setting	triclinic
loop_
_symmetry_equiv_pos_as_xyz
  x,y,z
_cell_length_a	13.897449
_cell_length_b	17.077403
_cell_length_c	17.077396
_cell_angle_alpha	90.017592
_cell_angle_beta	90.018441
_cell_angle_gamma	90.001992
loop_
_atom_site_label
_atom_site_type_symbol
_atom_site_fract_x
_atom_site_fract_y
_atom_site_fract_z
Zn1	Zn	1.474795	-0.312481	0.443880
Zn2	Zn	1.474743	-0.443756	0.312639
Zn3	Zn	1.313490	-0.312511	0.312630
Zn4	Zn	1.313513	-0.443712	0.443865
O5	O	1.394135	-0.378115	0.378254
O6	O	1.609769	-0.329901	0.426480
O7	O	1.453321	-0.426377	0.202791
O8	O	1.334900	-0.202660	0.330044
O9	O	1.609731	-0.426348	0.330058
O10	O	1.453409	-0.202638	0.426472
O11	O	1.334849	-0.329952	0.202784
O12	O	1.178512	-0.329909	0.330029
O13	O	1.334939	-0.426273	0.553714
O14	O	1.178529	-0.426302	0.426446
O15	O	1.453432	-0.329858	0.553725
O16	O	1.453343	-0.553597	0.330044
O17	O	1.334889	-0.553565	0.426455
C18	C	1.394139	-0.582063	0.378266
C19	C	1.394229	-0.669313	0.378297
C20	C	1.143521	-0.378105	0.378236
C21	C	1.036307	-0.378119	0.378247
C22	C	1.394194	-0.378057	0.582998
C23	C	1.394218	-0.378033	0.670248
C24	C	0.840012	-0.378122	0.378267
C25	C	0.949244	-0.378118	0.378254
C26	C	1.645728	-0.378126	0.378272
C27	C	1.752942	-0.378131	0.378280
C28	C	1.394158	-0.173371	0.378259
C29	C	1.394167	-0.086121	0.378261
C30	C	1.332474	-0.045141	0.328058
C31	C	1.332481	0.036839	0.328068
C32	C	1.394187	0.077838	0.378277
C33	C	1.455884	0.036853	0.428485
C34	C	1.455871	-0.045126	0.428479
C35	C	1.455908	0.207723	0.428494
C36	C	1.455922	0.289707	0.428500
C37	C	1.332518	0.289688	0.328083
C38	C	1.332505	0.207709	0.328077
C39	C	1.394203	0.166729	0.378284
C40	C	1.394133	-0.378116	0.174306
C41	C	1.394295	-0.377920	0.087056
C42	C	1.455920	-0.327825	0.711245
C43	C	1.455931	-0.327799	0.793225
C44	C	1.394246	-0.377985	0.834207
C45	C	1.332538	-0.428194	0.793204
C46	C	1.332522	-0.428216	0.711225
C47	C	1.332576	-0.428147	0.964074
C48	C	1.332593	-0.428127	1.046059
C49	C	1.455986	-0.327730	1.046075
C50	C	1.455970	-0.327752	0.964096
C51	C	1.394263	-0.377963	0.923098
H52	H	1.282229	-0.078517	0.287169
O53	O	1.272485	-0.476881	0.671368
C54	C	1.142267	-0.487472	0.578765
C55	C	1.210189	-0.432269	0.623864
H56	H	1.091897	-0.451426	0.540335
H57	H	1.098116	-0.523323	0.622106
H58	H	1.186559	-0.528546	0.540424
H59	H	1.165971	-0.391147	0.662206
H60	H	1.254343	-0.396473	0.580481
O61	O	1.272529	0.076526	0.279221
C62	C	1.150106	0.067855	0.179640
C63	C	1.217969	0.022814	0.234911
H64	H	1.105962	0.024449	0.143812
H65	H	1.194348	0.106200	0.138553
H66	H	1.099719	0.106270	0.215682
H67	H	1.268369	-0.015643	0.198931
H68	H	1.173667	-0.015481	0.275999
O69	O	1.272476	0.329525	0.279426
C70	C	1.142287	0.422116	0.268854
C71	C	1.210202	0.377033	0.324049
H72	H	1.091935	0.460550	0.304908
H73	H	1.098117	0.378764	0.232979
H74	H	1.186586	0.460451	0.227801
H75	H	1.165977	0.338697	0.365149
H76	H	1.254375	0.420427	0.359869
O77	O	1.515878	0.329414	0.477358
C78	C	1.638281	0.320787	0.576953
C79	C	1.570422	0.275722	0.521668
H80	H	1.682412	0.277396	0.612781
H81	H	1.594037	0.359154	0.618039
H82	H	1.688681	0.359182	0.540922
H83	H	1.520009	0.237284	0.557637
H84	H	1.614726	0.237404	0.480580
O85	O	1.515660	-0.084975	0.477327
C86	C	1.528634	-0.177549	0.583268
C87	C	1.460818	-0.132454	0.528004
H88	H	1.484323	-0.215958	0.624243
H89	H	1.572727	-0.134205	0.619216
H90	H	1.579072	-0.215909	0.547215
H91	H	1.410322	-0.094092	0.563996
H92	H	1.416793	-0.175840	0.492054
O93	O	1.272663	-0.477054	0.832926
C94	C	1.225869	-0.610573	0.858033
C95	C	1.293720	-0.555325	0.812988
H96	H	1.242883	-0.673867	0.841943
H97	H	1.148072	-0.596853	0.841892
H98	H	1.236465	-0.601894	0.923664
H99	H	1.283210	-0.563972	0.747347
H100	H	1.371492	-0.569058	0.829194
O101	O	1.515963	-0.279006	0.832928
C102	C	1.638317	-0.179403	0.824292
C103	C	1.570394	-0.234637	0.779232
H104	H	1.682328	-0.143504	0.780899
H105	H	1.688818	-0.215399	0.862658
H106	H	1.594033	-0.138375	0.862689
H107	H	1.614601	-0.275676	0.740794
H108	H	1.519891	-0.198592	0.740916
H109	H	1.506137	0.174359	0.469388
H110	H	1.282313	-0.469022	0.930697
H111	H	1.506206	-0.286891	0.930730
O112	O	1.515718	0.076644	0.477373
C113	C	1.562610	0.101723	0.610903
C114	C	1.494771	0.056626	0.555628
H115	H	1.545712	0.085543	0.674183
H116	H	1.552018	0.167364	0.602351
H117	H	1.640378	0.085606	0.597087
H118	H	1.416977	0.072677	0.569410
H119	H	1.505447	-0.009004	0.564190
H120	H	1.282264	0.174330	0.287188
H121	H	1.506155	-0.286961	0.677883
O122	O	1.515826	-0.278970	1.086016
C123	C	1.570557	-0.234453	1.212317
C124	C	1.502729	-0.289699	1.167177
H125	H	1.560007	-0.243120	1.277943
H126	H	1.553614	-0.171147	1.196248
H127	H	1.648325	-0.248232	1.196168
H128	H	1.424939	-0.275991	1.183301
H129	H	1.519756	-0.352989	1.183249
O130	O	1.272578	-0.476898	1.085749
C131	C	1.150218	-0.576505	1.077088
C132	C	1.218120	-0.521299	1.032042
H133	H	1.106185	-0.612429	1.033685
H134	H	1.099736	-0.540485	1.115444
H135	H	1.194521	-0.617510	1.115492
H136	H	1.173894	-0.480282	0.993595
H137	H	1.268603	-0.557367	0.993735
