data_functionalizedCrystal
_audit_creation_method	'MofGen! by Chris Wilmer'
_symmetry_space_group_name_H-M	'P1'
_symmetry_Int_Tables_number	1
_symmetry_cell_setting	triclinic
loop_
_symmetry_equiv_pos_as_xyz
  x,y,z
_cell_length_a	11.792254
_cell_length_b	11.792241
_cell_length_c	9.130313
_cell_angle_alpha	89.995332
_cell_angle_beta	89.996532
_cell_angle_gamma	84.196007
loop_
_atom_site_label
_atom_site_type_symbol
_atom_site_fract_x
_atom_site_fract_y
_atom_site_fract_z
O1	O	1.506899	0.155636	-0.121799
O2	O	1.176559	0.171654	-0.121802
O3	O	1.349745	-0.001525	-0.121790
O4	O	1.333713	0.328815	-0.121811
O5	O	1.349734	-0.001530	0.121809
O6	O	1.176548	0.171649	0.121797
O7	O	1.506887	0.155631	0.121800
Cu8	Cu	1.341716	0.163640	0.144041
Cu9	Cu	1.341730	0.163646	-0.144043
O10	O	1.333701	0.328810	0.121788
C11	C	1.348732	-0.043819	0.000009
C12	C	1.345718	-0.169832	0.000007
C13	C	1.134263	0.170642	-0.000003
C14	C	1.008250	0.167622	-0.000004
C15	C	1.340175	-0.400545	-0.000017
C16	C	1.343255	-0.272160	-0.000004
C17	C	0.905913	0.165168	-0.000010
C18	C	0.777527	0.162100	-0.000011
C19	C	1.549183	0.156643	-0.000002
C20	C	1.675196	0.159663	-0.000011
C21	C	1.334714	0.371104	-0.000014
C22	C	1.337728	0.497118	-0.000022
N23	N	1.341714	0.163635	0.346664
N24	N	1.341741	0.163641	-0.346666
C25	C	1.418427	0.086983	0.423321
C26	C	1.418438	0.086984	0.576658
C27	C	1.265020	0.240296	0.576667
C28	C	1.265004	0.240290	0.423333
H29	H	1.480888	0.024564	0.360901
C30	C	1.502819	0.002652	0.660973
N31	N	1.566375	-0.060875	0.724479
C32	C	1.180662	0.324669	0.339005
N33	N	1.117155	0.388237	0.275489
C34	C	1.180641	0.324610	0.661017
N35	N	1.117085	0.388117	0.724548
