data_functionalizedCrystal
_audit_creation_method	'MofGen! by Chris Wilmer'
_symmetry_space_group_name_H-M	'P1'
_symmetry_Int_Tables_number	1
_symmetry_cell_setting	triclinic
loop_
_symmetry_equiv_pos_as_xyz
  x,y,z
_cell_length_a	14.519709
_cell_length_b	17.766277
_cell_length_c	19.288865
_cell_angle_alpha	89.988397
_cell_angle_beta	83.408197
_cell_angle_gamma	89.996257
loop_
_atom_site_label
_atom_site_type_symbol
_atom_site_fract_x
_atom_site_fract_y
_atom_site_fract_z
O1	O	1.223296	-0.062505	0.091051
O2	O	0.954751	-0.062529	0.101773
O3	O	1.096783	-0.062502	-0.004690
O4	O	1.081264	-0.062533	0.197514
O5	O	1.096759	0.062687	-0.004696
O6	O	0.954726	0.062659	0.101768
O7	O	1.223271	0.062683	0.091045
Cu8	Cu	1.088997	0.074102	0.096406
Cu9	Cu	1.089026	-0.073948	0.096413
O10	O	1.081239	0.062656	0.197509
C11	C	0.920382	0.000062	0.101271
C12	C	0.818010	0.000054	0.099773
N13	N	1.088983	0.178232	0.096401
N14	N	1.089047	-0.178078	0.096412
C15	C	0.443150	0.000089	0.094261
C16	C	0.547448	0.000079	0.095792
C17	C	0.630577	0.000070	0.097017
C18	C	0.734882	0.000062	0.098548
C19	C	1.257640	0.000090	0.091548
C20	C	1.360012	0.000094	0.093045
C21	C	1.096272	0.000095	-0.030571
C22	C	1.094773	0.000101	-0.107680
C23	C	1.151895	0.217631	0.049282
C24	C	1.151900	0.296433	0.049279
C25	C	1.089002	0.335833	0.096407
C26	C	1.026078	0.296424	0.143529
C27	C	1.026069	0.217624	0.143526
C28	C	1.076656	0.460660	0.159650
C29	C	1.076672	0.539459	0.159654
C30	C	1.089027	0.578879	0.096415
C31	C	1.101385	0.539491	0.033170
C32	C	1.101375	0.460690	0.033167
C33	C	1.089005	0.421279	0.096415
C34	C	1.151948	0.703724	0.049289
C35	C	1.151947	0.782528	0.049285
C36	C	1.026129	0.782517	0.143541
C37	C	1.026126	0.703715	0.143539
C38	C	1.089040	0.664324	0.096414
C39	C	1.178111	0.000112	-0.152077
C40	C	1.176702	0.000100	-0.224529
C41	C	1.091951	0.000092	-0.252581
C42	C	1.008602	0.000077	-0.208175
C43	C	1.010013	0.000081	-0.135725
C44	C	1.025318	0.043937	-0.361110
C45	C	1.023911	0.043937	-0.433560
C46	C	1.087597	0.000075	-0.476043
C47	C	1.152705	-0.043778	-0.446068
C48	C	1.154116	-0.043773	-0.373618
C49	C	1.090412	0.000087	-0.331141
C50	C	1.169414	0.000072	-0.599000
C51	C	1.168002	0.000055	-0.671454
C52	C	0.999899	0.000040	-0.655098
C53	C	1.001314	0.000049	-0.582647
C54	C	1.086073	0.000069	-0.554602
C55	C	1.081751	0.000058	0.223390
C56	C	1.083250	0.000046	0.300499
H57	H	1.203121	0.185561	0.010909
H58	H	1.238430	0.000085	-0.576166
H59	H	1.203174	0.671650	0.010914
H60	H	0.942147	0.000073	-0.099576
Br61	Br	1.242468	-0.103288	-0.332939
Br62	Br	1.289812	0.000112	-0.284793
H63	H	1.203132	0.328518	0.010908
H64	H	0.974864	0.328507	0.181900
H65	H	0.974837	0.185544	0.181897
Br66	Br	1.059980	0.407170	0.245484
Br67	Br	1.293141	0.000118	-0.114019
Br68	Br	1.118137	0.407236	-0.052660
H69	H	1.235869	0.000060	-0.707601
H70	H	1.203175	0.814607	0.010911
H71	H	1.066615	0.571523	0.211151
Br72	Br	1.239144	-0.103309	-0.503714
Br73	Br	0.884878	0.000021	-0.693161
H74	H	0.933451	0.000044	-0.546498
H75	H	0.970892	0.079640	-0.457959
H76	H	0.973455	0.079659	-0.326526
H77	H	1.111445	0.571585	-0.018325
Br78	Br	0.940757	0.835981	0.207493
Br79	Br	0.893582	0.000056	-0.246244
H80	H	0.974901	0.671634	0.181910
