data_functionalizedCrystal
_audit_creation_method	'MofGen! by Chris Wilmer'
_symmetry_space_group_name_H-M	'P1'
_symmetry_Int_Tables_number	1
_symmetry_cell_setting	triclinic
loop_
_symmetry_equiv_pos_as_xyz
  x,y,z
_cell_length_a	15.944551
_cell_length_b	15.944493
_cell_length_c	15.021413
_cell_angle_alpha	90.009890
_cell_angle_beta	89.997174
_cell_angle_gamma	83.486891
loop_
_atom_site_label
_atom_site_type_symbol
_atom_site_fract_x
_atom_site_fract_y
_atom_site_fract_z
O1	O	1.114506	0.108324	-0.073927
O2	O	1.614506	0.608324	0.426073
O3	O	0.869954	0.121680	-0.073948
O4	O	1.369954	0.621680	0.426052
O5	O	0.998934	-0.007276	-0.073945
O6	O	1.498934	0.492724	0.426055
O7	O	0.985527	0.237280	-0.073931
O8	O	1.485527	0.737280	0.426069
O9	O	0.998913	-0.007258	0.074120
O10	O	1.498913	0.492742	0.574120
O11	O	0.869933	0.121699	0.074116
O12	O	1.369933	0.621699	0.574116
O13	O	1.114486	0.108342	0.074137
O14	O	1.614486	0.608342	0.574137
Zn15	Zn	0.992206	0.115023	0.097635
Zn16	Zn	1.492206	0.615023	0.597635
Zn17	Zn	0.992233	0.114999	-0.097446
Zn18	Zn	1.492233	0.614999	0.402554
O19	O	0.985506	0.237299	0.074133
O20	O	1.485506	0.737299	0.574133
C21	C	0.838650	0.121135	0.000081
C22	C	1.338650	0.621135	0.500081
C23	C	0.745404	0.119473	0.000073
C24	C	1.245404	0.619473	0.500073
C25	C	0.530565	0.035566	0.000085
C26	C	1.030565	0.535566	0.500085
C27	C	0.469547	0.074520	-0.072916
C28	C	0.969547	0.574520	0.427084
C29	C	0.574679	0.116465	0.000083
C30	C	1.074679	0.616465	0.500083
C31	C	0.469549	0.074558	0.073064
C32	C	0.969549	0.574558	0.573064
C33	C	0.409767	0.113555	0.000097
C34	C	0.909767	0.613555	0.500097
C35	C	0.514889	0.155442	-0.072979
C36	C	1.014889	0.655442	0.427021
C37	C	0.514897	0.155468	0.073067
C38	C	1.014897	0.655468	0.573067
C39	C	0.453897	0.194481	0.000048
C40	C	0.953897	0.694481	0.500048
C41	C	0.669681	0.118140	0.000074
C42	C	1.169681	0.618140	0.500074
C43	C	0.314766	0.111886	0.000099
C44	C	0.814766	0.611886	0.500099
C45	C	0.998375	-0.038562	0.000084
C46	C	1.498375	0.461438	0.500084
C47	C	0.996733	-0.131810	0.000072
C48	C	1.496733	0.368190	0.500072
C49	C	1.072653	-0.367570	0.000095
C50	C	1.572653	0.132430	0.500095
C51	C	1.031722	-0.418147	-0.072911
C52	C	1.531722	0.081853	0.427089
C53	C	0.993688	-0.302531	0.000083
C54	C	1.493688	0.197469	0.500083
C55	C	1.031683	-0.418105	0.073069
C56	C	1.531683	0.081895	0.573069
C57	C	0.990754	-0.467441	0.000097
C58	C	1.490754	0.032559	0.500097
C59	C	0.952779	-0.351880	-0.072984
C60	C	1.452779	0.148120	0.427016
C61	C	0.952752	-0.351835	0.073061
C62	C	1.452752	0.148165	0.573061
C63	C	0.911763	-0.402379	0.000037
C64	C	1.411763	0.097621	0.500037
C65	C	0.995381	-0.207531	0.000074
C66	C	1.495381	0.292469	0.500074
C67	C	0.989055	-0.562438	0.000100
C68	C	1.489055	-0.062438	0.500100
C69	C	1.145790	0.108888	0.000106
C70	C	1.645790	0.608888	0.500106
C71	C	1.239036	0.110550	0.000108
C72	C	1.739036	0.610550	0.500108
C73	C	0.986064	0.268584	0.000103
C74	C	1.486064	0.768584	0.500103
C75	C	0.987707	0.361833	0.000109
C76	C	1.487707	0.861833	0.500109
N77	N	0.992194	0.115039	0.230772
N78	N	1.492194	0.615039	0.730772
N79	N	0.992252	0.114976	-0.230584
N80	N	1.492252	0.614976	0.269416
C81	C	0.932545	0.174641	0.470454
C82	C	1.432545	0.674641	0.970454
C83	C	1.008442	0.190948	0.529796
C84	C	1.508442	0.690948	1.029796
C85	C	0.992215	0.115018	0.412379
C86	C	1.492215	0.615018	0.912379
C87	C	0.916339	0.098730	0.529779
C88	C	1.416339	0.598730	1.029779
C89	C	0.992229	0.115000	0.587803
C90	C	1.492229	0.615000	1.087803
C91	C	1.068151	0.131364	0.470415
C92	C	1.568151	0.631364	0.970415
C93	C	0.975998	0.039112	0.470392
C94	C	1.475998	0.539112	0.970392
C95	C	1.051950	0.055387	0.529708
C96	C	1.551950	0.555387	1.029708
C97	C	0.992206	0.115031	0.311322
C98	C	1.492206	0.615031	0.811322
C99	C	0.992247	0.114987	0.688859
C100	C	1.492247	0.614987	1.188859
H101	H	0.534878	0.189626	-0.134763
H102	H	1.034878	0.689626	0.365237
Br103	Br	1.175137	0.154436	0.427143
Br104	Br	1.675137	0.654436	0.927143
H105	H	1.065039	-0.447029	0.134786
H106	H	1.565039	0.052971	0.634786
Br107	Br	0.586103	-0.076354	-0.000035
Br108	Br	1.086103	0.423646	0.499965
Br109	Br	0.436057	0.017482	-0.175793
Br110	Br	0.936057	0.517482	0.324207
Br111	Br	0.809382	0.075779	0.573246
Br112	Br	1.309382	0.575779	1.073246
Br113	Br	0.436067	0.017518	0.175926
Br114	Br	0.936067	0.517518	0.675926
Br115	Br	0.897221	-0.303528	0.175932
Br116	Br	1.397221	0.196472	0.675932
H117	H	0.882134	0.225102	0.444437
H118	H	1.382134	0.725102	0.944437
H119	H	1.140671	-0.351942	0.000028
H120	H	1.640671	0.148058	0.500028
Br121	Br	0.398603	0.306499	-0.000009
Br122	Br	0.898603	0.806499	0.499991
Br123	Br	0.798309	-0.428160	-0.000033
Br124	Br	1.298309	0.071840	0.499967
H125	H	0.535013	0.189664	0.134791
H126	H	1.035013	0.689664	0.634791
Br127	Br	1.031329	0.297924	0.573285
Br128	Br	1.531329	0.797924	1.073285
H129	H	1.102473	0.004956	0.555562
H130	H	1.602473	0.504956	1.055562
Br131	Br	1.087315	-0.466407	-0.175776
Br132	Br	1.587315	0.033593	0.324224
Br133	Br	0.897244	-0.303865	-0.175969
Br134	Br	1.397244	0.196135	0.324031
H135	H	0.962245	-0.025052	0.444279
H136	H	1.462245	0.474948	0.944279
