data_functionalizedCrystal
_audit_creation_method	'MofGen! by Chris Wilmer'
_symmetry_space_group_name_H-M	'P1'
_symmetry_Int_Tables_number	1
_symmetry_cell_setting	triclinic
loop_
_symmetry_equiv_pos_as_xyz
  x,y,z
_cell_length_a	12.811353
_cell_length_b	14.971486
_cell_length_c	13.448316
_cell_angle_alpha	89.997568
_cell_angle_beta	84.573570
_cell_angle_gamma	96.170965
loop_
_atom_site_label
_atom_site_type_symbol
_atom_site_fract_x
_atom_site_fract_y
_atom_site_fract_z
O1	O	1.392827	-0.120451	-0.042981
O2	O	1.087260	-0.133556	-0.015408
O3	O	1.248233	0.003174	-0.029941
O4	O	1.231853	-0.257181	-0.028449
O5	O	1.248206	0.003170	-0.195322
O6	O	1.087233	-0.133559	-0.180790
O7	O	1.392799	-0.120454	-0.208363
Cu8	Cu	1.240014	-0.127007	-0.209677
Cu9	Cu	1.240046	-0.127003	-0.014094
O10	O	1.231826	-0.257184	-0.193830
C11	C	1.048142	-0.132824	-0.094570
C12	C	0.931621	-0.130628	-0.084056
C13	C	1.247487	0.036499	-0.112565
C14	C	1.245292	0.135802	-0.112366
C15	C	1.431918	-0.121186	-0.129198
C16	C	1.548438	-0.123383	-0.139706
C17	C	1.712664	-0.126488	-0.244648
C18	C	1.603184	-0.124418	-0.234788
C19	C	1.603180	-0.124413	-0.054477
C20	C	1.712660	-0.126483	-0.064337
C21	C	1.767398	-0.127521	-0.159426
C22	C	1.876880	-0.129597	-0.169285
C23	C	1.876874	-0.129585	0.011025
C24	C	1.767394	-0.127516	0.020885
C25	C	1.232572	-0.290509	-0.111204
C26	C	1.234767	-0.389812	-0.111396
N27	N	1.239999	-0.127010	-0.347240
C28	C	1.339859	0.192763	-0.120900
C29	C	1.337790	0.286068	-0.120704
C30	C	1.241153	0.322411	-0.111980
C31	C	1.146578	0.265442	-0.103442
C32	C	1.148648	0.172139	-0.103632
C33	C	1.142271	0.459917	-0.103050
C34	C	1.140200	0.553227	-0.102862
C35	C	1.331413	0.573846	-0.120122
C36	C	1.333483	0.480543	-0.120311
C37	C	1.238907	0.423581	-0.111775
C38	C	1.311358	-0.066475	-0.830901
C39	C	1.311349	-0.066481	-0.726796
C40	C	1.240046	-0.127002	-0.668325
C41	C	1.168753	-0.187528	-0.713964
C42	C	1.168768	-0.187525	-0.818066
C43	C	1.168726	-0.187527	-0.496981
C44	C	1.168710	-0.187529	-0.392871
C45	C	1.311308	-0.066483	-0.405711
C46	C	1.311322	-0.066480	-0.509814
C47	C	1.240028	-0.127005	-0.555445
N48	N	1.240069	-0.126994	0.123468
H49	H	1.921445	-0.130448	-0.246711
H50	H	1.369399	-0.017202	-0.689644
H51	H	1.558595	-0.123553	0.022939
Cl52	Cl	1.025090	0.311130	-0.092463
Cl53	Cl	1.781480	-0.127806	-0.364184
H54	H	1.110648	-0.236812	-0.345269
Cl55	Cl	1.534379	-0.123117	-0.341930
H56	H	1.369418	-0.017187	-0.878501
Cl57	Cl	1.698575	-0.126181	0.140418
H58	H	1.921449	-0.130432	0.080420
Cl59	Cl	1.400955	0.009609	-0.583322
Cl60	Cl	1.023374	0.388309	-0.092318
Cl61	Cl	1.400931	0.009605	-0.348343
H62	H	1.418553	0.163181	-0.128010
H63	H	1.414797	0.332443	-0.127655
H64	H	1.412173	0.450956	-0.127422
H65	H	1.071642	0.125761	-0.096682
H66	H	1.110674	-0.236816	-0.534130
Cl67	Cl	1.450307	0.645455	-0.130847
Cl68	Cl	1.079117	-0.263618	-0.640460
Cl69	Cl	1.018711	0.598913	-0.091896
Cl70	Cl	1.079146	-0.263613	-0.875431
