data_functionalizedCrystal
_audit_creation_method	'MofGen! by Chris Wilmer'
_symmetry_space_group_name_H-M	'P1'
_symmetry_Int_Tables_number	1
_symmetry_cell_setting	triclinic
loop_
_symmetry_equiv_pos_as_xyz
  x,y,z
_cell_length_a	14.519709
_cell_length_b	14.519709
_cell_length_c	10.868271
_cell_angle_alpha	89.993918
_cell_angle_beta	90.001299
_cell_angle_gamma	83.680145
loop_
_atom_site_label
_atom_site_type_symbol
_atom_site_fract_x
_atom_site_fract_y
_atom_site_fract_z
O1	O	1.223867	0.120892	-0.102165
O2	O	1.557201	0.454225	0.231169
O3	O	1.890534	0.787558	0.564502
O4	O	0.955390	0.135128	-0.102203
O5	O	1.288724	0.468462	0.231131
O6	O	1.622057	0.801795	0.564464
O7	O	1.096747	-0.006228	-0.102172
O8	O	1.430080	0.327105	0.231162
O9	O	1.763414	0.660438	0.564495
O10	O	1.082510	0.262248	-0.102196
O11	O	1.415844	0.595582	0.231138
O12	O	1.749177	0.928915	0.564471
O13	O	1.096735	-0.006234	0.102473
O14	O	1.430069	0.327099	0.435806
O15	O	1.763402	0.660433	0.769140
O16	O	0.955379	0.135123	0.102442
O17	O	1.288712	0.468456	0.435775
O18	O	1.622045	0.801789	0.769109
O19	O	1.223856	0.120886	0.102480
O20	O	1.557189	0.454220	0.435813
O21	O	1.890522	0.787553	0.769147
Zn22	Zn	1.089615	0.128004	0.134953
Zn23	Zn	1.422949	0.461337	0.468286
Zn24	Zn	1.756282	0.794670	0.801619
Zn25	Zn	1.089631	0.128011	-0.134675
Zn26	Zn	1.422964	0.461344	0.198658
Zn27	Zn	1.756297	0.794678	0.531991
O28	O	1.082499	0.262243	0.102449
O29	O	1.415832	0.595576	0.435782
O30	O	1.749165	0.928910	0.769116
C31	C	0.921025	0.134462	0.000115
C32	C	1.254358	0.467795	0.333448
C33	C	1.587691	0.801129	0.666782
C34	C	0.818643	0.132474	0.000101
C35	C	1.151977	0.465807	0.333434
C36	C	1.485310	0.799141	0.666767
C37	C	0.443748	0.125154	0.000157
C38	C	0.777081	0.458488	0.333491
C39	C	1.110414	0.791821	0.666824
C40	C	0.548056	0.127187	0.000141
C41	C	0.881389	0.460520	0.333475
C42	C	1.214722	0.793854	0.666808
C43	C	0.631192	0.128814	0.000128
C44	C	0.964526	0.462147	0.333461
C45	C	1.297859	0.795481	0.666795
C46	C	0.735507	0.130847	0.000114
C47	C	1.068840	0.464180	0.333447
C48	C	1.402173	0.797514	0.666781
C49	C	1.096078	-0.040591	0.000151
C50	C	1.429411	0.292742	0.333484
C51	C	1.762744	0.626076	0.666818
C52	C	1.094090	-0.142972	0.000151
C53	C	1.427423	0.190361	0.333485
C54	C	1.760756	0.523694	0.666818
C55	C	1.086770	-0.517868	0.000118
C56	C	1.420103	-0.184535	0.333452
C57	C	1.753437	0.148799	0.666785
C58	C	1.088803	-0.413560	0.000128
C59	C	1.422136	-0.080227	0.333461
C60	C	1.755469	0.253107	0.666794
C61	C	1.090430	-0.330423	0.000136
C62	C	1.423763	0.002910	0.333469
C63	C	1.757096	0.336243	0.666803
C64	C	1.092463	-0.226109	0.000143
C65	C	1.425796	0.107224	0.333476
C66	C	1.759129	0.440558	0.666810
C67	C	1.258221	0.121553	0.000160
C68	C	1.591554	0.454886	0.333493
C69	C	1.924888	0.788219	0.666826
C70	C	1.360602	0.123541	0.000166
C71	C	1.693936	0.456874	0.333499
C72	C	2.027269	0.790207	0.666832
C73	C	1.083168	0.296605	0.000124
C74	C	1.416501	0.629939	0.333457
C75	C	1.749835	0.963272	0.666790
C76	C	1.085156	0.398987	0.000115
C77	C	1.418490	0.732320	0.333449
C78	C	1.751823	1.065653	0.666782
N79	N	1.089612	0.127998	0.318967
N80	N	1.422945	0.461331	0.652300
N81	N	1.756278	0.794665	0.985633
N82	N	1.089642	0.128009	-0.318690
N83	N	1.422975	0.461342	0.014644
N84	N	1.756308	0.794676	0.347977
C85	C	1.089626	0.128009	0.569973
C86	C	1.422959	0.461342	0.903306
C87	C	1.756292	0.794676	1.236639
C88	C	1.089615	0.128006	0.430295
C89	C	1.422948	0.461339	0.763629
C90	C	1.756282	0.794672	1.096962
