data_functionalizedCrystal
_audit_creation_method	'MofGen! by Chris Wilmer'
_symmetry_space_group_name_H-M	'P1'
_symmetry_Int_Tables_number	1
_symmetry_cell_setting	triclinic
loop_
_symmetry_equiv_pos_as_xyz
  x,y,z
_cell_length_a	17.699083
_cell_length_b	16.176319
_cell_length_c	17.699083
_cell_angle_alpha	89.992434
_cell_angle_beta	96.716985
_cell_angle_gamma	90.001388
loop_
_atom_site_label
_atom_site_type_symbol
_atom_site_fract_x
_atom_site_fract_y
_atom_site_fract_z
O1	O	-1.004079	-0.068624	0.095713
O2	O	-0.783701	-0.068653	0.108165
O3	O	-0.900116	-0.068630	-0.008250
O4	O	-0.887664	-0.068647	0.212128
O5	O	-0.900099	0.068863	-0.008257
O6	O	-0.783684	0.068840	0.108158
O7	O	-1.004062	0.068869	0.095706
Cu8	Cu	-0.893872	0.081409	0.101932
Cu9	Cu	-0.893892	-0.081193	0.101940
O10	O	-0.887647	0.068846	0.212121
C11	C	-0.755495	0.000090	0.107716
C12	C	-0.671477	0.000079	0.106377
N13	N	-0.893863	0.195774	0.101925
C14	C	-0.622856	0.000074	0.174710
C15	C	-0.543913	0.000084	0.173448
C16	C	-0.513592	0.000093	0.103852
C17	C	-0.562219	0.000101	0.035513
C18	C	-0.641161	0.000097	0.036776
C19	C	-0.243856	0.000119	0.030418
C20	C	-0.164908	0.000121	0.029160
C21	C	-0.146608	0.000106	0.167090
C22	C	-0.225550	0.000102	0.168353
C23	C	-0.274170	0.000114	0.100015
C24	C	-0.359769	0.000105	0.101384
C25	C	-0.427995	0.000097	0.102481
C26	C	-0.945427	0.239048	0.050398
C27	C	-0.945430	0.325595	0.050397
C28	C	-0.893872	0.368867	0.101928
C29	C	-0.842303	0.325586	0.153458
C30	C	-0.842297	0.239041	0.153455
C31	C	-0.842326	0.674615	0.153474
C32	C	-0.842338	0.761166	0.153475
C33	C	-0.945460	0.761169	0.050416
C34	C	-0.945453	0.674624	0.050412
C35	C	-0.893882	0.631351	0.101939
C36	C	-0.893878	0.537507	0.101938
C37	C	-0.893879	0.462709	0.101934
C38	C	-0.032268	0.000122	0.096156
C39	C	-0.116286	0.000122	0.097494
C40	C	-0.899662	0.000116	-0.036451
C41	C	-0.898323	0.000116	-0.120469
N42	N	-0.893899	0.804442	0.101943
C43	C	-0.966656	0.000127	-0.169090
C44	C	-0.965394	0.000119	-0.248033
C45	C	-0.895798	0.000107	-0.278354
C46	C	-0.827459	0.000095	-0.229727
C47	C	-0.828722	0.000096	-0.150785
C48	C	-0.822364	0.000087	-0.548090
C49	C	-0.821106	0.000088	-0.627038
C50	C	-0.959036	0.000110	-0.645338
C51	C	-0.960299	0.000112	-0.566396
C52	C	-0.891961	0.000095	-0.517776
C53	C	-0.893330	0.000101	-0.432177
C54	C	-0.894427	0.000107	-0.363951
C55	C	-0.888102	0.000098	0.240322
C56	C	-0.889440	0.000092	0.324340
H57	H	-0.647537	0.000066	0.231384
H58	H	-1.023330	0.000141	-0.144409
H59	H	-1.021038	0.000129	-0.287618
Cl60	Cl	-0.736452	0.000064	-0.486977
Cl61	Cl	-0.702285	0.000107	-0.049132
H62	H	-1.016971	0.000125	-0.541714
Cl63	Cl	-1.010250	0.184659	-0.014385
Cl64	Cl	-0.733606	0.000072	-0.665153
H65	H	-0.504328	0.000079	0.229092
H66	H	-0.800307	0.203808	0.195413
Cl67	Cl	-0.739966	0.000070	-0.267844
H68	H	-1.014680	0.000120	-0.684934
Cl69	Cl	-0.777498	0.620220	0.218251
Cl70	Cl	-0.524102	0.000118	-0.051980
Cl71	Cl	-0.263663	0.000086	0.255849
H72	H	-0.107012	0.000101	0.222734
H73	H	-0.773078	0.000088	-0.111198
Cl74	Cl	-0.777483	0.379983	0.218238
Cl75	Cl	-0.126793	0.000133	-0.058340
Cl76	Cl	-0.304969	0.000133	-0.055494
H77	H	-0.987439	0.639395	0.008453
Cl78	Cl	-1.010254	0.379999	-0.014382
H79	H	-0.800351	0.796396	0.195439
Cl80	Cl	-1.010291	0.815574	-0.014365
