data_functionalizedCrystal
_audit_creation_method	'MofGen! by Chris Wilmer'
_symmetry_space_group_name_H-M	'P1'
_symmetry_Int_Tables_number	1
_symmetry_cell_setting	triclinic
loop_
_symmetry_equiv_pos_as_xyz
  x,y,z
_cell_length_a	17.077404
_cell_length_b	13.897447
_cell_length_c	17.077396
_cell_angle_alpha	90.026095
_cell_angle_beta	90.019501
_cell_angle_gamma	90.019755
loop_
_atom_site_label
_atom_site_type_symbol
_atom_site_fract_x
_atom_site_fract_y
_atom_site_fract_z
Zn1	Zn	1.200073	-0.384009	0.443856
Zn2	Zn	1.199988	-0.545322	0.312595
Zn3	Zn	1.068805	-0.384043	0.312604
Zn4	Zn	1.068780	-0.545264	0.443819
O5	O	1.134411	-0.464660	0.378218
O6	O	1.309909	-0.405417	0.426456
O7	O	1.182561	-0.523966	0.202749
O8	O	1.086264	-0.249057	0.330034
O9	O	1.309846	-0.523933	0.330019
O10	O	1.182706	-0.249032	0.426464
O11	O	1.086181	-0.405475	0.202756
O12	O	0.958955	-0.405420	0.329998
O13	O	1.086222	-0.523835	0.553671
O14	O	0.958937	-0.523868	0.426401
O15	O	1.182682	-0.405362	0.553698
O16	O	1.182537	-0.680296	0.329983
O17	O	1.086139	-0.680254	0.426393
C18	C	0.930464	-0.464642	0.378197
C19	C	0.843214	-0.464658	0.378206
C20	C	0.802235	-0.526427	0.428323
C21	C	0.720254	-0.526429	0.428335
C22	C	0.679254	-0.464666	0.378227
C23	C	0.720239	-0.402890	0.328108
C24	C	0.802218	-0.402884	0.328100
C25	C	0.549369	-0.402909	0.328127
C26	C	0.467384	-0.402916	0.328133
C27	C	0.467405	-0.526454	0.428362
C28	C	0.549384	-0.526448	0.428354
C29	C	0.590363	-0.464673	0.378234
C30	C	1.134348	-0.715274	0.378200
C31	C	1.134392	-0.822488	0.378219
C32	C	1.134430	-0.909558	0.378237
C33	C	1.134485	-1.018790	0.378257
C34	C	1.339156	-0.464678	0.378241
C35	C	1.426405	-0.464686	0.378250
C36	C	1.134459	-0.464588	0.582963
C37	C	1.134479	-0.464558	0.670213
C38	C	1.134497	-0.213067	0.378254
C39	C	1.134533	-0.105853	0.378269
C40	C	1.134409	-0.464661	0.174271
C41	C	1.134541	-0.464419	0.087021
C42	C	1.184708	-0.402864	0.711218
C43	C	1.184717	-0.402832	0.793199
C44	C	1.134501	-0.464500	0.834172
C45	C	1.084267	-0.526197	0.793161
C46	C	1.084255	-0.526223	0.711182
C47	C	1.084299	-0.526139	0.964031
C48	C	1.084313	-0.526114	1.046016
C49	C	1.184762	-0.402747	1.046048
C50	C	1.184749	-0.402774	0.964069
C51	C	1.134516	-0.464472	0.923063
H52	H	0.686893	-0.576729	0.469144
O53	O	0.589145	-0.343011	0.279325
C54	C	0.569057	-0.363965	0.201065
H55	H	0.546496	-0.441017	0.197003
H56	H	0.622955	-0.355603	0.162289
H57	H	0.521478	-0.312219	0.180618
O58	O	0.680535	-0.342802	0.279406
C59	C	0.734287	-0.288298	0.235157
H60	H	0.792738	-0.285001	0.267309
H61	H	0.710613	-0.212288	0.226890
H62	H	0.742974	-0.323528	0.175490
H63	H	0.835582	-0.352580	0.287294
O64	O	1.233440	-0.342697	1.085907
C65	C	1.188775	-0.280386	1.133335
H66	H	1.126949	-0.274440	1.108618
H67	H	1.217188	-0.206153	1.134271
H68	H	1.186073	-0.310177	1.195464
H69	H	1.043421	-0.576327	1.079374
O70	O	0.427434	-0.342976	0.279513
C71	C	0.346291	-0.356201	0.290296
H72	H	0.335086	-0.430703	0.315859
H73	H	0.315094	-0.349509	0.231523
H74	H	0.323079	-0.299086	0.332221
O75	O	1.035491	-0.586179	0.924318
C76	C	0.991166	-0.640598	0.978059
H77	H	1.023319	-0.643899	1.036507
H78	H	0.982787	-0.716611	0.954366
H79	H	0.931551	-0.605290	0.986761
H80	H	0.434036	-0.576751	0.469174
H81	H	1.043378	-0.576404	0.826528
H82	H	1.043345	-0.576451	0.677796
H83	H	0.835611	-0.576725	0.469124
O84	O	1.233405	-0.342819	0.671457
C85	C	1.216295	-0.246677	0.691519
H86	H	1.153589	-0.241798	0.714042
H87	H	1.223065	-0.199037	0.637617
H88	H	1.258393	-0.221453	0.739118
O89	O	0.589177	-0.586343	0.477141
C90	C	0.569170	-0.565403	0.555408
H91	H	0.546652	-0.488353	0.559483
H92	H	0.623099	-0.573766	0.594170
H93	H	0.521584	-0.617156	0.575860
O94	O	1.233541	-0.343033	0.833123
C95	C	1.284239	-0.397933	0.880539
H96	H	1.256534	-0.471029	0.892801
H97	H	1.294768	-0.358622	0.938196
H98	H	1.342408	-0.408540	0.848964
O99	O	1.233554	-0.342781	0.924387
C100	C	1.277907	-0.288335	0.978156
H101	H	1.245769	-0.284968	1.036590
H102	H	1.286302	-0.212346	0.954479
H103	H	1.337514	-0.323661	0.986878
