data_functionalizedCrystal
_audit_creation_method	'MofGen! by Chris Wilmer'
_symmetry_space_group_name_H-M	'P1'
_symmetry_Int_Tables_number	1
_symmetry_cell_setting	triclinic
loop_
_symmetry_equiv_pos_as_xyz
  x,y,z
_cell_length_a	10.654544
_cell_length_b	16.956984
_cell_length_c	16.053802
_cell_angle_alpha	92.372341
_cell_angle_beta	87.392810
_cell_angle_gamma	80.269135
loop_
_atom_site_label
_atom_site_type_symbol
_atom_site_fract_x
_atom_site_fract_y
_atom_site_fract_z
O1	O	1.660331	0.108606	-0.069451
O2	O	1.293598	0.119271	-0.069448
O3	O	1.498997	-0.002018	-0.069443
O4	O	1.454932	0.229895	-0.069455
O5	O	1.487694	0.004630	0.069415
O6	O	1.282295	0.125919	0.069411
O7	O	1.649028	0.115254	0.069408
Zn8	Zn	1.463867	0.121642	0.091456
Zn9	Zn	1.478759	0.112883	-0.091496
O10	O	1.443629	0.236543	0.069404
C11	C	1.241241	0.121812	-0.000018
C12	C	1.102073	0.119469	-0.000017
C13	C	1.089724	0.126727	0.151371
C14	C	1.018169	0.129257	0.227063
C15	C	0.887410	0.127054	0.227059
C16	C	0.828204	0.122319	0.151356
C17	C	0.899758	0.119788	0.075665
C18	C	1.030519	0.121994	0.075676
C19	C	0.912109	0.112525	-0.075722
C20	C	1.042866	0.114733	-0.075720
C21	C	0.852902	0.107789	-0.151425
C22	C	0.924456	0.105265	-0.227118
C23	C	1.055223	0.107469	-0.227111
C24	C	1.114421	0.112203	-0.151411
C25	C	1.495602	-0.028390	-0.000014
C26	C	1.502310	-0.116874	-0.000015
C27	C	1.390144	-0.149578	-0.000018
C28	C	1.396455	-0.232718	-0.000016
C29	C	1.514933	-0.283153	-0.000017
C30	C	1.627108	-0.250443	-0.000012
C31	C	1.620796	-0.167304	-0.000008
C32	C	1.546178	-0.532753	-0.000023
C33	C	1.552482	-0.615897	-0.000029
C34	C	1.321828	-0.598167	-0.000032
C35	C	1.315527	-0.515027	-0.000033
C36	C	1.427701	-0.482324	-0.000023
N37	N	1.521387	-0.368136	-0.000017
N38	N	1.421245	-0.397343	-0.000017
C39	C	1.701385	0.112713	-0.000023
C40	C	1.840554	0.115055	-0.000030
N41	N	1.453713	0.127620	0.216316
C42	C	1.447024	0.262915	-0.000027
C43	C	1.440316	0.351398	-0.000032
N44	N	1.488924	0.106899	-0.216356
C45	C	1.541138	0.076030	0.260012
C46	C	1.534046	0.080219	0.347419
C47	C	1.439533	0.136002	0.391128
C48	C	1.352099	0.187595	0.347426
C49	C	1.359186	0.183401	0.260021
C50	C	1.408577	0.154298	0.652537
C51	C	1.401498	0.158489	0.739948
C52	C	1.583445	0.051112	0.739935
C53	C	1.590528	0.046926	0.652528
C54	C	1.503090	0.098516	0.608834
N55	N	1.432284	0.140287	0.480472
N56	N	1.510334	0.094226	0.519492
H57	H	0.746433	0.105990	-0.151422
C58	C	0.684366	0.119890	0.151357
N59	N	0.576026	0.118061	0.151356
H60	H	1.605234	0.038210	0.382995
C61	C	1.645110	0.014663	0.211940
N62	N	1.723421	-0.031563	0.175734
H63	H	1.637518	-0.506137	-0.000017
H64	H	0.876241	0.101404	-0.288749
C65	C	1.694494	-0.014444	0.604454
N66	N	1.772803	-0.060669	0.568245
H67	H	1.066390	0.133110	0.288699
C68	C	1.133924	0.104683	-0.310379
N69	N	1.193197	0.102585	-0.373099
H70	H	1.654632	0.009109	0.775519
C71	C	1.297519	0.219855	0.788027
N72	N	1.219206	0.266074	0.824239
H73	H	1.220890	0.114003	-0.151398
C74	C	1.259807	-0.094107	-0.000018
N75	N	1.161632	-0.052328	-0.000015
H76	H	1.287994	0.225410	0.224445
C77	C	1.682824	-0.671375	-0.000030
N78	N	1.780993	-0.713160	-0.000032
H79	H	1.712133	-0.140678	-0.000004
H80	H	1.305117	-0.259342	-0.000024
H81	H	1.337383	0.196305	0.616968
C82	C	1.248123	0.248950	0.395510
N83	N	1.169805	0.295163	0.431725
C84	C	1.185191	-0.459555	-0.000043
N85	N	1.087021	-0.417774	-0.000058
H86	H	1.196191	0.128532	0.151382
H87	H	0.829148	0.129121	0.288694
H88	H	1.230502	-0.624803	-0.000038
C89	C	1.757436	-0.305924	-0.000011
N90	N	1.855603	-0.347712	-0.000013
