data_functionalizedCrystal
_audit_creation_method	'MofGen! by Chris Wilmer'
_symmetry_space_group_name_H-M	'P1'
_symmetry_Int_Tables_number	1
_symmetry_cell_setting	triclinic
loop_
_symmetry_equiv_pos_as_xyz
  x,y,z
_cell_length_a	19.188930
_cell_length_b	19.188930
_cell_length_c	18.266242
_cell_angle_alpha	89.988525
_cell_angle_beta	89.977082
_cell_angle_gamma	83.144779
loop_
_atom_site_label
_atom_site_type_symbol
_atom_site_fract_x
_atom_site_fract_y
_atom_site_fract_z
O1	O	0.926149	0.087169	-0.061124
O2	O	0.722838	0.098903	-0.061075
O3	O	0.830361	-0.008620	-0.061087
O4	O	0.818627	0.194691	-0.061113
O5	O	0.830343	-0.008625	0.060675
O6	O	0.722820	0.098897	0.060687
O7	O	0.926131	0.087163	0.060638
Zn8	Zn	0.824473	0.093029	0.079994
Zn9	Zn	0.824497	0.093037	-0.080432
O10	O	0.818608	0.194686	0.060649
C11	C	0.696818	0.098520	-0.000188
C12	C	0.619313	0.097380	-0.000169
C13	C	0.574389	0.160470	-0.000188
C14	C	0.501566	0.159399	-0.000196
C15	C	0.473669	0.095233	-0.000199
C16	C	0.518603	0.032133	-0.000175
C17	C	0.591425	0.033207	-0.000160
N18	N	0.365695	0.046188	-0.041663
N19	N	0.296516	0.045172	-0.041679
C20	C	0.254260	0.091994	-0.000243
N21	N	0.283795	0.139881	0.041200
N22	N	0.352980	0.140899	0.041213
C23	C	0.394707	0.094062	-0.000215
C24	C	0.130372	0.153928	-0.000270
C25	C	0.057547	0.152853	-0.000274
C26	C	0.074586	0.025586	-0.000261
C27	C	0.147409	0.026662	-0.000250
C28	C	0.175298	0.090835	-0.000258
C29	C	0.829972	-0.034634	-0.000204
C30	C	0.828831	-0.112138	-0.000197
C31	C	0.891922	-0.157062	-0.000209
C32	C	0.890850	-0.229886	-0.000220
C33	C	0.826684	-0.257782	-0.000206
C34	C	0.763585	-0.212849	-0.000198
C35	C	0.764658	-0.140026	-0.000194
N36	N	0.777631	-0.365789	0.041244
N37	N	0.776615	-0.434968	0.041242
C38	C	0.823446	-0.477191	-0.000220
N39	N	0.871341	-0.447624	-0.041669
N40	N	0.872359	-0.378439	-0.041664
C41	C	0.825513	-0.336745	-0.000210
C42	C	0.885379	-0.601079	-0.000245
C43	C	0.884305	-0.673904	-0.000261
C44	C	0.757038	-0.656865	-0.000231
C45	C	0.758114	-0.584042	-0.000222
C46	C	0.822287	-0.556154	-0.000226
C47	C	0.952151	0.087546	-0.000252
C48	C	1.029656	0.088687	-0.000276
C49	C	0.818997	0.220700	-0.000236
C50	C	0.820138	0.298204	-0.000247
N51	N	0.824461	0.093024	0.189481
N52	N	0.824513	0.093037	-0.189919
C53	C	0.872088	0.045436	0.227785
C54	C	0.872092	0.045433	0.304430
C55	C	0.824477	0.093030	0.342768
C56	C	0.776841	0.140621	0.304455
C57	C	0.776834	0.140618	0.227812
N58	N	0.815401	0.154837	0.463094
N59	N	0.815413	0.154838	0.535902
C60	C	0.824496	0.093040	0.573691
N61	N	0.833582	0.031239	0.535920
N62	N	0.833574	0.031240	0.463106
C63	C	0.824480	0.093038	0.425875
C64	C	0.872131	0.045444	0.695101
C65	C	0.872130	0.045440	0.771748
C66	C	0.776882	0.140634	0.771772
C67	C	0.776879	0.140632	0.695127
C68	C	0.824507	0.093038	0.656796
H69	H	0.051874	-0.026659	-0.000309
C70	C	0.924510	-0.006913	0.652935
H71	H	0.952870	-0.035263	0.686728
H72	H	0.953494	0.018129	0.623015
H73	H	0.899477	-0.035917	0.623057
H74	H	0.711340	-0.235567	-0.000187
H75	H	0.942228	-0.266470	-0.000233
C76	C	0.955963	-0.570395	-0.000258
H77	H	0.947566	-0.520590	-0.000244
H78	H	0.981938	-0.585817	-0.042726
H79	H	0.981924	-0.585842	0.042201
C80	C	0.953708	-0.723321	-0.000272
H81	H	0.992078	-0.696279	-0.000267
H82	H	0.955948	-0.752074	-0.042736
H83	H	0.955922	-0.752092	0.042192
H84	H	0.153080	0.206181	-0.000267
H85	H	0.495885	-0.020111	-0.000188
H86	H	0.910911	0.006685	0.802935
C87	C	0.686456	-0.687543	-0.000217
H88	H	0.694852	-0.737348	-0.000218
H89	H	0.660494	-0.672097	-0.042671
H90	H	0.660481	-0.672120	0.042257
C91	C	0.008127	0.222255	-0.000296
H92	H	-0.039238	0.212427	-0.000296
H93	H	0.016584	0.248574	-0.042761
H94	H	0.016539	0.248577	0.042167
C95	C	0.924492	-0.006896	0.185622
H96	H	0.917678	-0.000074	0.134489
H97	H	0.917082	-0.053485	0.198188
H98	H	0.971057	0.000602	0.198169
H99	H	0.706738	-0.547464	-0.000208
C100	C	0.724451	0.192973	0.185673
H101	H	0.731266	0.186154	0.134537
H102	H	0.731891	0.239552	0.198221
H103	H	0.677876	0.185504	0.198255
C104	C	0.724505	0.192991	0.813931
H105	H	0.696137	0.221332	0.780138
H106	H	0.749531	0.221994	0.843811
H107	H	0.695519	0.167943	0.843849
H108	H	0.910877	0.006680	0.335623
C109	C	0.695256	-0.090608	-0.000174
H110	H	0.656885	-0.117649	-0.000163
H111	H	0.693035	-0.061832	-0.042630
H112	H	0.693025	-0.061860	0.042298
H113	H	0.628003	-0.018171	-0.000145
C114	C	0.724468	0.192978	0.346624
H115	H	0.731298	0.186169	0.397757
H116	H	0.677894	0.185511	0.334093
H117	H	0.731908	0.239559	0.334045
C118	C	0.724497	0.192987	0.652991
H119	H	0.696143	0.221339	0.686799
H120	H	0.695509	0.167944	0.623112
H121	H	0.749525	0.221991	0.623074
H122	H	0.183988	-0.024713	-0.000238
H123	H	0.464982	0.210776	-0.000210
C124	C	0.962507	-0.126385	-0.000216
H125	H	0.954112	-0.076580	-0.000205
H126	H	0.988487	-0.141810	-0.042680
H127	H	0.988463	-0.141830	0.042247
C128	C	0.605063	0.231057	-0.000184
H129	H	0.567874	0.268479	-0.000189
H130	H	0.633144	0.234128	-0.042636
H131	H	0.633089	0.234117	0.042291
