data_functionalizedCrystal
_audit_creation_method	'MofGen! by Chris Wilmer'
_symmetry_space_group_name_H-M	'P1'
_symmetry_Int_Tables_number	1
_symmetry_cell_setting	triclinic
loop_
_symmetry_equiv_pos_as_xyz
  x,y,z
_cell_length_a	10.967819
_cell_length_b	9.482900
_cell_length_c	16.992695
_cell_angle_alpha	80.026204
_cell_angle_beta	87.622480
_cell_angle_gamma	111.293645
loop_
_atom_site_label
_atom_site_type_symbol
_atom_site_fract_x
_atom_site_fract_y
_atom_site_fract_z
O1	O	1.751102	0.559604	0.053681
O2	O	2.251102	1.059604	0.553681
O3	O	1.374623	0.465287	0.073710
O4	O	1.874623	0.965287	0.573710
O5	O	1.561351	0.512055	-0.050416
O6	O	2.061351	1.012055	0.449584
O7	O	1.564374	0.512835	0.177807
O8	O	2.064374	1.012835	0.677807
O9	O	1.523433	0.260765	-0.025105
O10	O	2.023433	0.760765	0.474895
O11	O	1.336705	0.213997	0.099021
O12	O	1.836705	0.713997	0.599021
O13	O	1.713183	0.308314	0.078992
O14	O	2.213183	0.808314	0.578992
Cu15	Cu	1.521482	0.238211	0.091317
Cu16	Cu	2.021482	0.738211	0.591317
Cu17	Cu	1.566325	0.535390	0.061384
Cu18	Cu	2.066325	1.035390	0.561384
O19	O	1.526455	0.261546	0.203117
O20	O	2.026455	0.761546	0.703117
C21	C	1.307269	0.327518	0.086820
C22	C	1.807269	0.827518	0.586820
C23	C	1.163065	0.291391	0.088164
C24	C	1.663065	0.791391	0.588164
C25	C	0.969386	0.368150	0.077046
C26	C	1.469386	0.868150	0.577046
C27	C	1.118428	0.405480	0.075652
C28	C	1.618428	0.905480	0.575652
N29	N	1.489951	0.029193	0.112370
N30	N	1.989951	0.529193	0.612370
C31	C	1.557015	-0.026209	0.067590
C32	C	2.057015	0.473791	0.567590
C33	C	1.530791	-0.200194	0.085112
C34	C	2.030791	0.299806	0.585112
C35	C	1.780538	0.446086	0.065882
C36	C	2.280538	0.946086	0.565882
C37	C	1.924743	0.482223	0.064536
C38	C	2.424743	0.982223	0.564536
C39	C	1.538509	0.385438	-0.066895
C40	C	2.038509	0.885438	0.433105
C41	C	1.526923	0.382536	-0.153707
C42	C	2.026923	0.882536	0.346293
N43	N	1.597865	0.744410	0.040326
N44	N	2.097865	1.244410	0.540326
C45	C	1.638710	0.410539	-0.206189
C46	C	2.138710	0.910539	0.293811
C47	C	1.627818	0.407824	-0.287758
C48	C	2.127818	0.907824	0.212242
C49	C	1.505138	0.377095	-0.316844
C50	C	2.005138	0.877095	0.183156
C51	C	1.393344	0.349094	-0.264356
C52	C	1.893344	0.849094	0.235644
C53	C	1.404238	0.351820	-0.182789
C54	C	1.904238	0.851820	0.317211
C55	C	1.459985	0.365803	-0.559538
C56	C	1.959985	0.865803	-0.059538
C57	C	1.449099	0.363075	-0.641111
C58	C	1.949099	0.863075	-0.141111
C59	C	1.683575	0.421809	-0.664508
C60	C	2.183575	0.921809	-0.164508
C61	C	1.694457	0.424523	-0.582938
C62	C	2.194457	0.924523	-0.082938
C63	C	1.582664	0.396530	-0.530458
C64	C	2.082664	0.896530	-0.030458
N65	N	1.494001	0.374314	-0.400220
N66	N	1.994001	0.874314	0.099780
N67	N	1.593804	0.399321	-0.447084
N68	N	2.093804	0.899321	0.052916
C69	C	1.549298	0.388166	0.219596
C70	C	2.049298	0.888166	0.719596
C71	C	1.560885	0.391078	0.306407
C72	C	2.060885	0.891078	0.806407
H73	H	0.897267	0.242852	0.088793
H74	H	1.397267	0.742852	0.588793
H75	H	1.413115	-0.052181	0.163676
H76	H	1.913115	0.447819	0.663676
H77	H	1.794356	0.449546	-0.559263
H78	H	2.294356	0.949546	-0.059263
Cl79	Cl	1.229760	0.598946	0.057527
Cl80	Cl	1.729760	1.098946	0.557527
H81	H	1.349189	0.338026	-0.664786
H82	H	1.849189	0.838026	-0.164786
Cl83	Cl	1.051735	0.097924	0.106301
Cl84	Cl	1.551735	0.597924	0.606301
H85	H	1.738608	0.435553	-0.182514
H86	H	2.238608	0.935553	0.317486
Cl87	Cl	1.675328	0.099337	-0.011799
Cl88	Cl	2.175328	0.599337	0.488201
H89	H	1.774590	0.444602	-0.707246
H90	H	2.274590	0.944602	-0.207246
H91	H	1.718846	0.430625	-0.330486
H92	H	2.218846	0.930625	0.169514
H93	H	1.674696	-0.174223	-0.010990
H94	H	2.174696	0.325777	0.489010
H95	H	1.368955	0.343009	-0.516818
H96	H	1.868955	0.843009	-0.016818
H97	H	0.996862	0.607521	0.052798
H98	H	1.496862	1.107521	0.552798
H99	H	1.293456	0.324083	-0.288044
H100	H	1.793456	0.824083	0.211956
H101	H	1.453950	-0.281564	0.136422
H102	H	1.953950	0.218436	0.636422
Cl103	Cl	1.263701	0.316619	-0.116812
Cl104	Cl	1.763701	0.816619	0.383188
