data_functionalizedCrystal
_audit_creation_method	'MofGen! by Chris Wilmer'
_symmetry_space_group_name_H-M	'P1'
_symmetry_Int_Tables_number	1
_symmetry_cell_setting	triclinic
loop_
_symmetry_equiv_pos_as_xyz
  x,y,z
_cell_length_a	17.640968
_cell_length_b	12.827893
_cell_length_c	12.827892
_cell_angle_alpha	89.984638
_cell_angle_beta	78.770345
_cell_angle_gamma	101.222813
loop_
_atom_site_label
_atom_site_type_symbol
_atom_site_fract_x
_atom_site_fract_y
_atom_site_fract_z
Zn1	Zn	-0.446922	-1.717121	-0.296568
Zn2	Zn	-0.314747	-1.681688	-0.506662
Zn3	Zn	-0.314758	-1.507038	-0.331933
Zn4	Zn	-0.446892	-1.542340	-0.471276
O5	O	-0.380830	-1.612047	-0.401610
O6	O	-0.429397	-1.858659	-0.324447
O7	O	-0.204135	-1.628918	-0.513093
O8	O	-0.332306	-1.534961	-0.181001
O9	O	-0.332289	-1.832627	-0.478802
O10	O	-0.429407	-1.689308	-0.155019
O11	O	-0.204142	-1.500603	-0.384720
O12	O	-0.332277	-1.365483	-0.350408
O13	O	-0.557510	-1.595127	-0.418491
O14	O	-0.429355	-1.391419	-0.452783
O15	O	-0.557532	-1.723538	-0.290134
O16	O	-0.332260	-1.663148	-0.648208
O17	O	-0.429346	-1.560770	-0.622210
C18	C	-0.380815	-1.340533	-0.401594
C19	C	-0.380827	-1.224383	-0.401607
C20	C	-0.587003	-1.667223	-0.346421
C21	C	-0.674862	-1.690736	-0.322903
C22	C	-0.380816	-1.611978	-0.673123
C23	C	-0.380836	-1.612051	-0.789271
C24	C	-0.963762	-1.433823	-0.579706
C25	C	-1.046319	-1.455939	-0.557594
C26	C	-1.046332	-1.589642	-0.423947
C27	C	-0.963773	-1.567534	-0.446045
C28	C	-0.922495	-1.489624	-0.523926
C29	C	-0.922506	-1.623334	-0.390265
C30	C	-0.839954	-1.601231	-0.412364
C31	C	-0.798670	-1.523327	-0.490244
C32	C	-0.839944	-1.467521	-0.546026
C33	C	-0.963786	-1.701249	-0.312389
C34	C	-0.922518	-1.757050	-0.256609
C35	C	-0.839965	-1.734942	-0.278703
C36	C	-0.798681	-1.657038	-0.356583
C37	C	-0.798692	-1.790749	-0.222921
C38	C	-0.716141	-1.768646	-0.245021
C39	C	-0.716130	-1.634935	-0.378683
C40	C	-0.175458	-1.557145	-0.456508
C41	C	-0.087599	-1.533835	-0.479732
C42	C	-0.380845	-1.884621	-0.401627
C43	C	-0.380852	-2.000776	-0.401634
C44	C	-0.428790	-1.185440	-0.452384
C45	C	-0.428804	-1.065393	-0.452399
C46	C	-0.332848	-1.662801	-0.853871
C47	C	-0.332868	-1.662877	-0.973916
C48	C	-0.380861	-1.612149	-0.129031
C49	C	-0.380874	-1.612193	-0.012874
H50	H	-0.682519	-1.571468	-0.442077
H51	H	-0.291782	-1.706323	-1.029423
C52	C	-0.325366	-1.149377	-0.342888
H53	H	-0.295276	-1.189377	-0.311022
H54	H	-0.290908	-1.097557	-0.392058
H55	H	-0.355702	-1.114935	-0.289338
C56	C	-0.436382	-1.553493	-0.937909
H57	H	-0.466500	-1.521699	-0.977925
H58	H	-0.470812	-1.602658	-0.886061
H59	H	-0.406074	-1.499889	-0.903500
H60	H	-0.731452	-1.505337	-0.508241
H61	H	-0.421938	-1.568664	-0.822836
H62	H	-1.031004	-1.719245	-0.294400
H63	H	-0.930151	-1.370356	-0.643100
C64	C	-0.794532	-1.381859	-0.631733
H65	H	-0.830931	-1.351802	-0.661806
H66	H	-0.762315	-1.327705	-0.600417
H67	H	-0.762343	-1.413248	-0.685875
C68	C	-1.091715	-1.394550	-0.618950
H69	H	-1.146792	-1.418875	-0.594640
H70	H	-1.078187	-1.320720	-0.607275
H71	H	-1.078179	-1.406204	-0.692792
C72	C	-1.091742	-1.675331	-0.338278
H73	H	-1.146817	-1.680499	-0.333099
H74	H	-1.078211	-1.741919	-0.357188
H75	H	-1.078220	-1.656423	-0.271682
C76	C	-0.967928	-1.842739	-0.170940
H77	H	-1.023004	-1.847907	-0.165760
H78	H	-0.954397	-1.909327	-0.189849
H79	H	-0.954406	-1.823832	-0.104343
C80	C	-0.277326	-1.721423	-0.808537
H81	H	-0.284593	-1.713676	-0.733801
H82	H	-0.288931	-1.794756	-0.823202
H83	H	-0.224193	-1.691986	-0.840633
H84	H	-0.832313	-1.854190	-0.159518
C85	C	-0.670744	-1.830014	-0.183655
H86	H	-0.707150	-1.879569	-0.134098
H87	H	-0.638532	-1.866910	-0.232249
H88	H	-0.638549	-1.781417	-0.146741
C89	C	-0.484252	-1.260451	-0.511098
H90	H	-0.476964	-1.331295	-0.503390
H91	H	-0.537396	-1.256854	-0.481709
H92	H	-0.472602	-1.239488	-0.584429
H93	H	-0.469865	-1.031853	-0.495875
H94	H	-0.339784	-1.034307	-0.358163
