data_functionalizedCrystal
_audit_creation_method	'MofGen! by Chris Wilmer'
_symmetry_space_group_name_H-M	'P1'
_symmetry_Int_Tables_number	1
_symmetry_cell_setting	triclinic
loop_
_symmetry_equiv_pos_as_xyz
  x,y,z
_cell_length_a	10.489741
_cell_length_b	23.532407
_cell_length_c	8.965430
_cell_angle_alpha	89.995773
_cell_angle_beta	89.998843
_cell_angle_gamma	83.693926
loop_
_atom_site_label
_atom_site_type_symbol
_atom_site_fract_x
_atom_site_fract_y
_atom_site_fract_z
O1	O	1.691383	0.080340	-0.123964
O2	O	1.319936	0.087881	-0.123989
O3	O	1.516860	0.001253	-0.123949
O4	O	1.494458	0.166968	-0.124005
O5	O	1.516844	0.001259	0.124130
O6	O	1.319920	0.087887	0.124090
O7	O	1.691366	0.080346	0.124115
Cu8	Cu	1.505641	0.084117	0.146754
Cu9	Cu	1.505661	0.084110	-0.146628
O10	O	1.494442	0.166974	0.124074
C11	C	1.272415	0.087315	0.000048
C12	C	1.130842	0.085611	0.000039
C13	C	1.064535	0.030491	0.000072
C14	C	0.971550	0.056526	-0.122250
C15	C	0.971568	0.056545	0.122337
C16	C	1.039723	0.111668	-0.122383
C17	C	1.039750	0.111679	0.122313
C18	C	0.946792	0.137754	-0.000039
C19	C	1.516282	-0.019964	0.000095
C20	C	1.514566	-0.083192	0.000106
C21	C	1.620344	-0.481594	0.000031
C22	C	1.618751	-0.541005	0.000020
O23	O	1.716808	-0.577100	-0.000029
N24	N	1.501680	-0.564407	0.000013
C25	C	1.386194	-0.528395	0.000003
O26	O	1.286470	-0.553755	-0.000006
C27	C	1.387789	-0.468985	0.000003
C28	C	1.504868	-0.445587	0.000025
C29	C	1.737414	-0.458195	0.000051
C30	C	1.739007	-0.398788	0.000066
C31	C	1.623530	-0.362781	0.000060
C32	C	1.506460	-0.386180	0.000039
C33	C	1.272305	-0.432974	-0.000018
C34	C	1.273909	-0.373561	-0.000018
C35	C	1.390988	-0.350162	0.000004
C36	C	1.392576	-0.290766	0.000048
N37	N	1.509648	-0.267364	0.000054
C38	C	1.625125	-0.303371	0.000060
C39	C	1.382854	-0.653160	-0.000002
C40	C	1.381258	-0.712568	0.000008
C41	C	1.613816	-0.725174	0.000023
C42	C	1.615410	-0.665765	0.000023
C43	C	1.499926	-0.629758	0.000005
C44	C	1.628461	-0.178612	0.000092
C45	C	1.630043	-0.119200	0.000112
C46	C	1.397486	-0.106599	0.000090
C47	C	1.395903	-0.166006	0.000077
C48	C	1.511401	-0.202012	0.000073
O49	O	1.294571	-0.254636	0.000090
O50	O	1.724833	-0.278003	0.000049
C51	C	1.738887	0.080912	0.000075
C52	C	1.880460	0.082616	0.000073
C53	C	1.495021	0.188191	0.000028
C54	C	1.496736	0.251419	0.000006
N55	N	1.505637	0.084121	0.353103
N56	N	1.505676	0.084101	-0.352977
C57	C	1.414538	0.124171	0.450390
C58	C	1.529652	0.135693	0.549807
C59	C	1.390572	0.072603	0.549813
C60	C	1.620808	0.095670	0.450331
C61	C	1.481652	0.032557	0.450328
C62	C	1.596850	0.044059	0.549701
H63	H	0.895860	0.183113	-0.000121
C64	C	1.454162	-0.026318	0.391236
H65	H	1.372315	-0.034437	0.425236
H66	H	1.518051	-0.054854	0.426715
H67	H	1.455128	-0.025980	0.285284
C68	C	1.259098	0.059447	0.608830
H69	H	1.194463	0.087945	0.574805
H70	H	1.260281	0.059186	0.714775
H71	H	1.241428	0.023097	0.573285
H72	H	1.176967	-0.452014	-0.000045
H73	H	1.179865	-0.344246	-0.000035
C74	C	1.267121	-0.191746	0.000050
H75	H	1.198576	-0.161790	0.000038
H76	H	1.261646	-0.214670	0.086543
H77	H	1.261681	-0.214649	-0.086490
C78	C	1.080315	0.143143	-0.262252
H79	H	1.006682	0.155212	-0.320585
H80	H	1.138396	0.118100	-0.319424
H81	H	1.120895	0.175543	-0.233030
C82	C	1.133654	-0.030726	-0.000061
H83	H	1.185245	-0.036407	0.086890
H84	H	1.186395	-0.036131	-0.086140
H85	H	1.071952	-0.057408	-0.000992
C86	C	1.080651	0.143161	0.261999
H87	H	1.057601	0.123525	0.348837
H88	H	1.038718	0.181049	0.262868
H89	H	1.170886	0.144316	0.260489
C90	C	1.752309	0.108895	0.391559
H91	H	1.751476	0.108843	0.285597
H92	H	1.817062	0.080611	0.426353
H93	H	1.769499	0.145403	0.426449
H94	H	1.337569	0.158070	0.406786
C95	C	1.252472	-0.738300	-0.000004
H96	H	1.183933	-0.708342	-0.000016
H97	H	1.247000	-0.761219	0.086498
H98	H	1.247020	-0.761206	-0.086534
C99	C	1.867794	-0.373058	0.000061
H100	H	1.936330	-0.403018	0.000046
H101	H	1.873266	-0.350146	0.086568
H102	H	1.873253	-0.350145	-0.086464
H103	H	0.941318	0.033202	-0.225650
C104	C	0.930760	0.025033	0.262044
H105	H	0.971512	-0.013071	0.261893
H106	H	0.840349	0.024477	0.261533
H107	H	0.955273	0.044247	0.348897
C108	C	1.557086	0.194586	0.608859
H109	H	1.492269	0.223008	0.574869
H110	H	1.638214	0.203040	0.573341
H111	H	1.557669	0.194045	0.714812
C112	C	1.701044	-0.001711	0.608245
H113	H	1.662231	-0.028801	0.666572
H114	H	1.760271	0.015986	0.667902
H115	H	1.744899	-0.020563	0.526366
C116	C	1.758831	-0.093462	0.000137
H117	H	1.743250	-0.052922	0.000160
H118	H	1.806356	-0.105784	-0.086369
H119	H	1.806332	-0.105796	0.086663
C120	C	1.755505	-0.218210	0.000100
H121	H	1.825446	-0.195759	0.000128
H122	H	1.759741	-0.241646	-0.086411
H123	H	1.759712	-0.241650	0.086621
H124	H	1.831454	-0.487507	0.000051
H125	H	1.303468	-0.077271	0.000090
C126	C	1.744195	-0.640031	0.000033
H127	H	1.812734	-0.669990	0.000029
H128	H	1.749653	-0.617118	0.086540
H129	H	1.749661	-0.617119	-0.086492
C130	C	1.740839	-0.764790	0.000001
H131	H	1.723112	-0.803522	-0.000023
H132	H	1.788888	-0.757655	0.086508
H133	H	1.788869	-0.757640	-0.086524
H134	H	1.288807	-0.623845	-0.000004
