data_functionalizedCrystal
_audit_creation_method	'MofGen! by Chris Wilmer'
_symmetry_space_group_name_H-M	'P1'
_symmetry_Int_Tables_number	1
_symmetry_cell_setting	triclinic
loop_
_symmetry_equiv_pos_as_xyz
  x,y,z
_cell_length_a	10.654550
_cell_length_b	15.995350
_cell_length_c	9.730223
_cell_angle_alpha	89.997832
_cell_angle_beta	89.999957
_cell_angle_gamma	83.988653
loop_
_atom_site_label
_atom_site_type_symbol
_atom_site_fract_x
_atom_site_fract_y
_atom_site_fract_z
O1	O	1.666303	0.117602	-0.114180
O2	O	1.300678	0.128807	-0.114204
O3	O	1.493485	0.001375	-0.114190
O4	O	1.473496	0.245034	-0.114194
O5	O	1.493473	0.001371	0.114390
O6	O	1.300666	0.128803	0.114375
O7	O	1.666290	0.117599	0.114400
Zn8	Zn	1.483476	0.123201	0.150680
Zn9	Zn	1.483492	0.123205	-0.150484
O10	O	1.473483	0.245031	0.114386
C11	C	1.253884	0.127982	0.000082
C12	C	1.114473	0.125521	0.000073
C13	C	1.034008	0.200551	0.000075
C14	C	0.903017	0.198233	0.000099
C15	C	0.932971	0.045849	0.000112
C16	C	1.063959	0.048168	0.000098
C17	C	1.492652	-0.029826	0.000097
C18	C	1.490175	-0.122791	0.000089
C19	C	1.481277	-0.460590	0.000093
C20	C	1.343964	-0.413954	-0.000429
C21	C	1.346442	-0.317249	0.000087
C22	C	1.485691	-0.293004	0.000090
C23	C	1.553412	-0.333690	0.130623
C24	C	1.549962	-0.430346	0.130732
C25	C	1.552813	-0.430684	-0.129206
C26	C	1.552780	-0.333739	-0.130931
C27	C	1.488192	-0.198292	0.000093
C28	C	1.478780	-0.555303	0.000099
C29	C	1.713084	0.118423	0.000110
C30	C	1.852495	0.120885	0.000111
C31	C	1.474316	0.276232	0.000095
C32	C	1.476793	0.369197	0.000094
N33	N	1.483474	0.123197	0.356216
N34	N	1.483504	0.123202	-0.356021
C35	C	1.568878	0.066794	0.428148
C36	C	1.568890	0.066794	0.572031
C37	C	1.398091	0.179608	0.572037
C38	C	1.398074	0.179603	0.428157
H39	H	0.891826	-0.017129	0.000141
H40	H	1.328562	0.225533	0.630626
N41	N	1.279650	-0.281958	-0.117275
N42	N	1.270050	-0.204327	-0.136967
H43	H	1.222872	-0.179404	-0.219855
N44	N	1.275132	-0.437597	-0.117871
N45	N	1.326467	-0.489098	-0.202557
H46	H	1.277857	-0.505799	-0.285508
N47	N	1.490746	-0.299822	-0.252053
N48	N	1.484329	-0.222650	-0.275431
H49	H	1.440512	-0.198685	-0.360967
N50	N	1.656082	0.009173	0.354641
N51	N	1.656055	0.009172	0.226177
H52	H	1.717642	-0.031527	0.174263
N53	N	0.820827	0.274876	0.000129
N54	N	0.825449	0.326148	0.096480
H55	H	0.767404	0.380281	0.096507
N56	N	1.085608	0.279562	0.000094
N57	N	1.155363	0.297852	0.096445
H58	H	1.191803	0.353656	0.096465
N59	N	1.310850	0.237235	0.354673
N60	N	1.350682	0.289453	0.274373
H61	H	1.289083	0.330154	0.222474
H62	H	1.129478	-0.012934	0.000100
H63	H	1.655714	-0.318971	0.135480
N64	N	1.275420	-0.438940	0.116338
N65	N	1.327261	-0.490945	0.199939
H66	H	1.278855	-0.508594	0.282408
H67	H	1.292840	-0.289697	0.093810
H68	H	1.500570	-0.448936	0.228304
N69	N	1.656110	0.009179	0.645529
N70	N	1.656101	0.009177	0.773992
H71	H	1.717693	-0.031522	0.825902
N72	N	1.496529	-0.456769	-0.253340
N73	N	1.560251	-0.503636	-0.335947
H74	H	1.520493	-0.522059	-0.423614
N75	N	1.494386	-0.298428	0.252471
N76	N	1.402459	-0.243344	0.243513
H77	H	1.360763	-0.218440	0.329565
H78	H	1.650775	-0.462009	0.136657
H79	H	1.654054	-0.461857	-0.130081
N80	N	1.680160	-0.313708	-0.140821
N81	N	1.723767	-0.268890	-0.051058
H82	H	1.813732	-0.254739	-0.058037
