data_functionalizedCrystal
_audit_creation_method	'MofGen! by Chris Wilmer'
_symmetry_space_group_name_H-M	'P1'
_symmetry_Int_Tables_number	1
_symmetry_cell_setting	triclinic
loop_
_symmetry_equiv_pos_as_xyz
  x,y,z
_cell_length_a	16.959455
_cell_length_b	14.908520
_cell_length_c	14.908308
_cell_angle_alpha	96.360765
_cell_angle_beta	86.720693
_cell_angle_gamma	86.682394
loop_
_atom_site_label
_atom_site_type_symbol
_atom_site_fract_x
_atom_site_fract_y
_atom_site_fract_z
Zn1	Zn	1.161749	0.389946	0.532552
Zn2	Zn	1.161659	0.532591	0.389922
Zn3	Zn	1.037663	0.381240	0.381211
Zn4	Zn	1.021447	0.541255	0.541233
O5	O	1.095629	0.461258	0.461229
O6	O	1.272346	0.408885	0.513644
O7	O	1.151960	0.505245	0.262106
O8	O	1.060948	0.255731	0.394008
O9	O	1.272280	0.513686	0.408855
O10	O	1.152113	0.262126	0.505197
O11	O	1.060860	0.394048	0.255706
O12	O	0.924903	0.402450	0.402426
O13	O	1.033309	0.528453	0.666742
O14	O	0.912989	0.520012	0.519993
O15	O	1.136388	0.417286	0.660364
O16	O	1.136235	0.660404	0.417272
O17	O	1.033222	0.666770	0.528440
C18	C	1.082980	0.696431	0.474763
C19	C	1.077639	0.797041	0.480583
C20	C	0.890266	0.461227	0.461207
C21	C	0.802408	0.461237	0.461220
C22	C	1.083050	0.474807	0.697313
C23	C	1.077690	0.480581	0.797918
C24	C	0.437106	0.400003	0.400130
C25	C	0.424749	0.522590	0.522385
C26	C	0.507296	0.522577	0.522378
C27	C	0.554752	0.461277	0.461246
C28	C	0.519661	0.399989	0.400120
C29	C	0.542393	0.583869	0.583497
C30	C	0.624945	0.583859	0.583493
C31	C	0.672402	0.522554	0.522364
C32	C	0.637307	0.461263	0.461236
C33	C	0.684763	0.399963	0.400104
C34	C	0.649668	0.338667	0.338980
C35	C	0.567119	0.338684	0.338992
C36	C	0.754952	0.522537	0.522352
C37	C	0.767317	0.399949	0.400094
C38	C	1.301795	0.461290	0.461253
C39	C	1.389650	0.461303	0.461262
C40	C	1.108349	0.225168	0.447663
C41	C	1.113769	0.124560	0.441881
C42	C	1.174970	0.979413	0.375854
C43	C	1.169954	1.073945	0.381320
C44	C	1.062597	1.080638	0.496984
C45	C	1.067613	0.986106	0.491518
C46	C	1.123800	0.935497	0.430950
C47	C	1.128811	0.840963	0.425481
C48	C	1.021458	0.847658	0.541149
C49	C	1.016443	0.942190	0.546614
C50	C	1.108209	0.447696	0.226061
C51	C	1.113736	0.441667	0.125442
C52	C	1.174951	0.375652	0.980324
C53	C	1.169917	0.381074	1.074850
C54	C	1.062584	0.496841	1.081500
C55	C	1.067618	0.491420	0.986973
C56	C	1.123804	0.430824	0.936388
C57	C	1.128842	0.425407	0.841860
C58	C	1.021505	0.541169	0.848510
C59	C	1.016471	0.546591	0.943037
H60	H	0.805951	0.350025	0.350317
H61	H	1.016840	0.546175	1.122702
Br62	Br	0.940197	1.010882	0.628814
Br63	Br	1.251212	0.293431	0.911669
H64	H	1.220714	0.938206	0.326531
Br65	Br	1.239331	0.306191	1.134475
Br66	Br	0.951996	0.788052	0.615911
H67	H	0.979860	0.586097	0.812728
Br68	Br	1.239405	1.133543	0.306548
Br69	Br	0.940220	0.628821	1.011696
Br70	Br	1.205097	0.343175	0.773209
H71	H	0.386106	0.572504	0.572151
H72	H	0.688318	0.288760	0.289203
Br73	Br	0.986362	1.149337	0.579191
H74	H	0.538537	0.288782	0.289227
H75	H	0.653511	0.633769	0.633264
Br76	Br	0.389482	0.316813	0.317187
Br77	Br	0.802578	0.605724	0.605291
Br78	Br	0.477987	0.667090	0.666425
H79	H	1.174559	0.799758	0.376161
