data_functionalizedCrystal
_audit_creation_method	'MofGen! by Chris Wilmer'
_symmetry_space_group_name_H-M	'P1'
_symmetry_Int_Tables_number	1
_symmetry_cell_setting	triclinic
loop_
_symmetry_equiv_pos_as_xyz
  x,y,z
_cell_length_a	14.908783
_cell_length_b	13.897448
_cell_length_c	13.897441
_cell_angle_alpha	90.030599
_cell_angle_beta	93.321823
_cell_angle_gamma	93.308624
loop_
_atom_site_label
_atom_site_type_symbol
_atom_site_fract_x
_atom_site_fract_y
_atom_site_fract_z
Zn1	Zn	1.379289	-0.298996	0.630631
Zn2	Zn	1.379190	-0.460324	0.469326
Zn3	Zn	1.228415	-0.308335	0.460024
Zn4	Zn	1.228398	-0.469549	0.621259
O5	O	1.303823	-0.384301	0.545310
O6	O	1.505524	-0.312628	0.617049
O7	O	1.359155	-0.440210	0.333108
O8	O	1.248478	-0.172112	0.482685
O9	O	1.505452	-0.431155	0.498539
O10	O	1.359324	-0.165251	0.608029
O11	O	1.248381	-0.328545	0.326274
O12	O	1.102165	-0.337489	0.473597
O13	O	1.248448	-0.446877	0.757486
O14	O	1.102152	-0.455932	0.592055
O15	O	1.359308	-0.321573	0.764371
O16	O	1.359139	-0.596532	0.489451
O17	O	1.248352	-0.603310	0.601075
C18	C	1.069424	-0.398726	0.530800
C19	C	0.969146	-0.404920	0.524616
C20	C	0.780789	-0.293306	0.636588
C21	C	0.686570	-0.299122	0.630780
C22	C	0.686487	-0.422364	0.507189
C23	C	0.780706	-0.416547	0.512997
C24	C	0.827854	-0.352017	0.577699
C25	C	0.922075	-0.346206	0.583511
C26	C	0.921990	-0.469442	0.459916
C27	C	0.827771	-0.475259	0.454108
C28	C	1.303757	-0.634919	0.545278
C29	C	1.303812	-0.742130	0.545302
C30	C	1.303906	-0.938419	0.545368
C31	C	1.303851	-0.829190	0.545334
C32	C	1.539138	-0.369821	0.559877
C33	C	1.639415	-0.363650	0.566084
C34	C	1.303887	-0.384212	0.796907
C35	C	1.303914	-0.384174	0.904123
C36	C	1.303914	-0.132702	0.545365
C37	C	1.303952	-0.025486	0.545388
C38	C	1.303811	-0.384317	0.294695
C39	C	1.303959	-0.384073	0.187491
C40	C	1.303939	-0.384107	1.100420
C41	C	1.303923	-0.384147	0.991186
H42	H	0.648253	-0.251311	0.678731
N43	N	0.828969	-0.227396	0.702667
N44	N	0.913092	-0.222210	0.707841
H45	H	0.947120	-0.175660	0.754510
N46	N	0.970252	-0.280289	0.649585
N47	N	1.054375	-0.275099	0.654762
H48	H	1.088400	-0.228541	0.701425
H49	H	0.789370	-0.527794	0.401426
N50	N	0.638321	-0.488284	0.441110
N51	N	0.648821	-0.576651	0.448003
H52	H	0.614805	-0.623209	0.401333
H53	H	0.960321	-0.517257	0.411971
