data_functionalizedCrystal
_audit_creation_method	'MofGen! by Chris Wilmer'
_symmetry_space_group_name_H-M	'P1'
_symmetry_Int_Tables_number	1
_symmetry_cell_setting	triclinic
loop_
_symmetry_equiv_pos_as_xyz
  x,y,z
_cell_length_a	16.109295
_cell_length_b	13.596369
_cell_length_c	16.109304
_cell_angle_alpha	89.997583
_cell_angle_beta	96.539088
_cell_angle_gamma	89.997006
loop_
_atom_site_label
_atom_site_type_symbol
_atom_site_fract_x
_atom_site_fract_y
_atom_site_fract_z
O1	O	-1.103138	0.081718	0.106839
O2	O	-0.861076	0.081734	0.120143
O3	O	-0.988755	0.081726	-0.007540
O4	O	-0.975459	0.081726	0.234522
O5	O	-0.988740	-0.081857	-0.007533
O6	O	-0.861060	-0.081849	0.120151
O7	O	-1.103123	-0.081865	0.106846
Zn8	Zn	-0.982089	-0.107829	0.113500
Zn9	Zn	-0.982109	0.107698	0.113490
O10	O	-0.975443	-0.081857	0.234529
C11	C	-0.830093	-0.000055	0.119609
C12	C	-0.737797	-0.000049	0.117996
N13	N	-0.982081	-0.254921	0.113505
C14	C	-0.515525	-0.000059	0.190008
C15	C	-0.428804	-0.000065	0.188485
C16	C	-0.448677	-0.000061	0.036996
C17	C	-0.535396	-0.000062	0.038520
C18	C	-0.568818	-0.000056	0.115028
C19	C	-0.395378	-0.000061	0.111982
C20	C	-0.301352	-0.000068	0.110331
C21	C	-0.662850	-0.000052	0.116679
C22	C	-0.982085	-0.343919	0.113507
C23	C	-0.982093	-0.455570	0.113502
C24	C	-0.982104	-0.544561	0.113492
C25	C	-0.982113	-0.656219	0.113487
C26	C	-0.134105	-0.000072	0.107386
C27	C	-0.226398	-0.000069	0.109014
C28	C	-0.988209	-0.000063	-0.038511
C29	C	-0.986592	-0.000056	-0.130806
N30	N	-0.982124	0.254790	0.113478
C31	C	-0.982867	0.089110	-0.343147
C32	C	-0.981341	0.089109	-0.429867
C33	C	-0.981328	-0.089238	-0.429857
C34	C	-0.982848	-0.089237	-0.343137
C35	C	-0.983622	-0.000060	-0.299785
C36	C	-0.980576	-0.000062	-0.473225
C37	C	-0.978921	-0.000064	-0.567251
C38	C	-0.985275	-0.000058	-0.205753
C39	C	-0.975990	-0.000066	0.265501
C40	C	-0.977606	-0.000066	0.357796
H41	H	-0.542734	-0.000062	0.252305
H42	H	-0.421455	-0.000072	-0.025294
H43	H	-0.980725	0.161719	-0.465168
H44	H	-0.578790	-0.000063	-0.022542
F45	F	-0.983688	0.184019	-0.297011
H46	H	-0.983458	-0.161853	-0.307831
H47	H	-0.385417	-0.000070	0.249542
F48	F	-0.980505	-0.184141	-0.476002
