data_functionalizedCrystal
_audit_creation_method	'MofGen! by Chris Wilmer'
_symmetry_space_group_name_H-M	'P1'
_symmetry_Int_Tables_number	1
_symmetry_cell_setting	triclinic
loop_
_symmetry_equiv_pos_as_xyz
  x,y,z
_cell_length_a	11.026607
_cell_length_b	14.853567
_cell_length_c	13.930277
_cell_angle_alpha	90.001389
_cell_angle_beta	89.992886
_cell_angle_gamma	96.110474
loop_
_atom_site_label
_atom_site_type_symbol
_atom_site_fract_x
_atom_site_fract_y
_atom_site_fract_z
O1	O	1.610805	0.377620	-0.079811
O2	O	1.257427	0.334621	-0.079814
O3	O	1.443555	0.226414	-0.079815
O4	O	1.424677	0.485827	-0.079810
O5	O	1.443528	0.226412	0.079847
O6	O	1.257400	0.334619	0.079848
O7	O	1.610778	0.377619	0.079851
Zn8	Zn	1.434085	0.356119	0.105199
Zn9	Zn	1.434120	0.356121	-0.105162
O10	O	1.424650	0.485825	0.079852
C11	C	1.212189	0.326687	0.000016
C12	C	1.077435	0.303039	0.000014
C13	C	1.003739	0.368335	0.000015
C14	C	0.864464	0.343895	0.000013
C15	C	1.442686	0.192686	0.000013
C16	C	1.440123	0.092189	0.000005
C17	C	1.318723	-0.339934	0.000022
C18	C	1.539848	-0.325534	0.000024
C19	C	1.542258	-0.231112	0.000018
C20	C	1.432899	-0.191096	0.000016
C21	C	1.321130	-0.245503	0.000019
C22	C	1.654025	-0.176698	0.000025
C23	C	1.656440	-0.082269	0.000020
C24	C	1.547080	-0.042252	0.000011
C25	C	1.435306	-0.096665	0.000013
C26	C	1.325947	-0.056649	0.000011
C27	C	1.214172	-0.111061	0.000006
C28	C	1.211769	-0.205486	0.000010
C29	C	1.549482	0.052173	0.000007
C30	C	1.328354	0.037782	0.000008
C31	C	1.656016	0.385552	0.000019
C32	C	1.790770	0.409200	0.000014
C33	C	1.425519	0.519553	0.000022
C34	C	1.428082	0.620050	0.000024
N35	N	1.434069	0.356118	0.248765
N36	N	1.434146	0.356116	-0.248728
C37	C	1.360366	0.289446	0.299026
C38	C	1.507787	0.422788	0.299009
C39	C	1.507802	0.422790	0.399505
C40	C	1.434099	0.356118	0.449766
C41	C	1.360382	0.289444	0.399531
C42	C	1.581528	0.489457	0.449747
C43	C	1.581547	0.489461	0.550249
C44	C	1.507837	0.422792	0.600512
C45	C	1.434115	0.356116	0.550271
C46	C	1.360412	0.289444	0.600532
C47	C	1.286683	0.222771	0.550293
C48	C	1.286671	0.222775	0.449794
C49	C	1.507848	0.422788	0.701011
C50	C	1.360428	0.289442	0.701037
H51	H	1.239299	0.070355	0.000002
H52	H	1.300404	0.235152	0.741953
H53	H	0.830779	0.483200	0.000022
C54	C	1.205584	0.149437	0.394535
H55	H	1.161681	0.109733	0.438860
H56	H	1.255251	0.116028	0.355320
H57	H	1.149777	0.177310	0.355342
C58	C	1.023389	0.203077	0.000007
H59	H	0.936870	0.199765	-0.000002
H60	H	1.049962	0.173893	0.055681
H61	H	1.049982	0.173905	-0.055681
H62	H	1.125132	-0.078467	0.000011
C63	C	1.088832	-0.265338	0.000018
H64	H	1.103064	-0.327305	0.000033
H65	H	1.043798	-0.252830	-0.055658
H66	H	1.043797	-0.252815	0.055704
H67	H	1.227718	-0.384240	0.000014
H68	H	1.641541	0.543733	0.408817
H69	H	1.641581	0.543751	0.591145
C70	C	1.660132	-0.369549	0.000029
H71	H	1.642691	-0.433578	0.000027
H72	H	1.705949	-0.351113	0.055704
H73	H	1.705960	-0.351123	-0.055658
C74	C	1.588936	0.496120	0.756270
H75	H	1.632825	0.535829	0.711942
H76	H	1.644736	0.468254	0.795467
H77	H	1.539262	0.529536	0.795480
H78	H	1.743059	-0.209286	0.000036
H79	H	0.824453	0.269896	-0.000013
C80	C	1.779385	-0.022425	0.000013
H81	H	1.844168	-0.059782	0.000007
H82	H	1.784918	0.014719	0.055684
H83	H	1.784923	0.014700	-0.055678
C84	C	1.279274	0.216109	0.243770
H85	H	1.289821	0.225652	0.176717
H86	H	1.196257	0.219351	0.260261
H87	H	1.301736	0.158074	0.260232
C88	C	1.672418	0.112021	0.000015
H89	H	1.737202	0.074665	0.000015
H90	H	1.677938	0.149160	0.055690
H91	H	1.677968	0.149151	-0.055673
H92	H	1.567800	0.477066	0.258081
C93	C	1.057785	0.468297	0.000016
H94	H	1.144304	0.471609	0.000010
H95	H	1.031192	0.497478	0.055692
H96	H	1.031213	0.497472	-0.055670
C97	C	1.205614	0.149436	0.605587
H98	H	1.216186	0.158990	0.672634
H99	H	1.228050	0.091401	0.589110
H100	H	1.122584	0.152690	0.589142
