data_functionalizedCrystal
_audit_creation_method	'MofGen! by Chris Wilmer'
_symmetry_space_group_name_H-M	'P1'
_symmetry_Int_Tables_number	1
_symmetry_cell_setting	triclinic
loop_
_symmetry_equiv_pos_as_xyz
  x,y,z
_cell_length_a	31.640172
_cell_length_b	31.640171
_cell_length_c	19.376995
_cell_angle_alpha	72.094625
_cell_angle_beta	89.994944
_cell_angle_gamma	59.987882
loop_
_atom_site_label
_atom_site_type_symbol
_atom_site_fract_x
_atom_site_fract_y
_atom_site_fract_z
Zr1	Zr	0.415665	0.445529	-0.079409
O2	O	0.358594	0.512864	-0.175678
O3	O	0.433172	0.363730	-0.049856
O4	O	0.446790	0.424660	-0.175624
O5	O	0.334221	0.473439	0.049250
O6	O	0.516346	0.424652	-0.175628
O7	O	0.344976	0.451933	-0.049911
O8	O	0.491987	0.315659	0.049347
O9	O	0.358580	0.582432	-0.175725
O10	O	0.492534	0.402726	-0.037305
O11	O	0.432597	0.418781	0.036700
O12	O	0.448630	0.490519	-0.111375
O13	O	0.388694	0.506574	-0.037369
Zr14	Zr	0.509446	0.479815	0.078735
Zr15	Zr	0.526600	0.445516	-0.079415
Zr16	Zr	0.398511	0.479827	0.078741
Zr17	Zr	0.415643	0.556482	-0.079484
Zr18	Zr	0.509468	0.368861	0.078809
O19	O	0.491938	0.561614	0.049182
O20	O	0.516329	0.512845	-0.175687
O21	O	0.334203	0.561632	0.049191
O22	O	0.566516	0.412480	0.175004
O23	O	0.590907	0.363712	-0.049865
O24	O	0.408781	0.412498	0.175013
O25	O	0.590890	0.451905	-0.049925
O26	O	0.478321	0.500683	0.174950
O27	O	0.408764	0.500691	0.174954
O28	O	0.580134	0.473410	0.049236
O29	O	0.446758	0.582422	-0.175730
O30	O	0.478352	0.342922	0.175055
O31	O	0.566530	0.342912	0.175050
O32	O	0.580165	0.315649	0.049342
O33	O	0.344945	0.609695	-0.050017
O34	O	0.433123	0.609685	-0.050022
O35	O	0.476480	0.434825	0.110700
O36	O	0.536416	0.418769	0.036695
O37	O	0.492513	0.506562	-0.037375
O38	O	0.432577	0.522617	0.036631
C39	C	0.462583	0.323886	-0.000244
C40	C	0.462592	0.276783	-0.000212
C41	C	0.431268	-0.051084	0.038300
C42	C	0.431289	0.125883	0.038365
O43	O	0.404699	0.155879	0.071250
N44	N	0.462578	0.139633	-0.000258
C45	C	0.493866	0.109135	-0.038896
O46	O	0.520484	0.124888	-0.071739
C47	C	0.493848	-0.067834	-0.038956
C48	C	0.462553	-0.081577	-0.000337
C49	C	0.399977	-0.064829	0.076916
C50	C	0.399970	-0.109067	0.076896
C51	C	0.431255	-0.139560	0.038260
C52	C	0.462547	-0.125815	-0.000357
C53	C	0.525139	-0.098333	-0.077589
C54	C	0.525132	-0.142578	-0.077600
C55	C	0.493838	-0.156321	-0.038980
C56	C	0.493825	-0.200546	-0.039014
N57	N	0.462536	-0.214296	-0.000391
C58	C	0.431251	-0.183803	0.038246
C59	C	0.493873	0.202048	-0.038863
C60	C	0.493877	0.246290	-0.038849
C61	C	0.431300	0.263035	0.038413
C62	C	0.431294	0.218793	0.038394
C63	C	0.462584	0.188298	-0.000240
C64	C	0.431239	-0.276705	0.038201
C65	C	0.431233	-0.320947	0.038175
C66	C	0.493812	-0.337689	-0.039084
C67	C	0.493816	-0.293450	-0.039061
C68	C	0.462527	-0.262960	-0.000414
O69	O	0.520405	-0.230569	-0.071875
O70	O	0.404645	-0.199570	0.071098
C71	C	0.431275	-0.006847	0.038320
C72	C	0.462567	0.006898	-0.000297
C73	C	0.493852	-0.023595	-0.038934
C74	C	0.462571	0.051141	-0.000283
C75	C	0.431286	0.081634	0.038353
C76	C	0.399997	0.067884	0.076976
C77	C	0.399990	0.023646	0.076956
C78	C	0.525141	-0.009845	-0.077557
C79	C	0.525145	0.034393	-0.077534
C80	C	0.493860	0.064886	-0.038898
C81	C	0.323793	0.462688	-0.000329
C82	C	0.276698	0.462693	-0.000327
C83	C	-0.009381	0.450814	-0.054964
C84	C	-0.186367	0.450805	-0.054970
O85	O	-0.204202	0.440707	-0.101411
N86	N	-0.214423	0.462654	-0.000342
C87	C	-0.198229	0.474502	0.054294
O88	O	-0.226150	0.484574	0.100763
C89	C	-0.021242	0.474507	0.054302
C90	C	0.006810	0.462663	-0.000334
C91	C	0.018670	0.438970	-0.109595
C92	C	0.062912	0.438975	-0.109595
C93	C	0.079104	0.450824	-0.054965
C94	C	0.051052	0.462668	-0.000334
C95	C	-0.005046	0.486351	0.108940
C96	C	0.039205	0.486350	0.108938
C97	C	0.067256	0.474506	0.054303
C98	C	0.111486	0.474522	0.054296
N99	N	0.139542	0.462673	-0.000332
C100	C	0.123351	0.450824	-0.054963
C101	C	-0.291149	0.474499	0.054285
C102	C	-0.335396	0.474499	0.054283
C103	C	-0.323531	0.450801	-0.054981
C104	C	-0.279285	0.450805	-0.054980
C105	C	-0.263094	0.462651	-0.000343
C106	C	0.216262	0.450836	-0.054960
C107	C	0.260507	0.450844	-0.054957
C108	C	0.248639	0.474539	0.054308
C109	C	0.204397	0.474534	0.054303
C110	C	0.188211	0.462680	-0.000334
O111	O	0.129354	0.484609	0.100718
O112	O	0.151285	0.440742	-0.101415
C113	C	-0.053624	0.450809	-0.054964
C114	C	-0.081675	0.462653	-0.000333
C115	C	-0.065484	0.474501	0.054297
C116	C	-0.125922	0.462652	-0.000336
C117	C	-0.142113	0.450803	-0.054966
C118	C	-0.114057	0.438955	-0.109594
C119	C	-0.069815	0.438960	-0.109594
C120	C	-0.093540	0.486350	0.108925
C121	C	-0.137782	0.486345	0.108921
C122	C	-0.153973	0.474496	0.054290
C123	C	0.601318	0.462656	-0.000345
C124	C	0.648412	0.462650	-0.000348
C125	C	0.484012	0.419769	-0.198159
C126	C	0.491295	0.405209	-0.265298
C127	C	0.462528	0.601458	-0.000430
C128	C	0.462518	0.648560	-0.000462
C129	C	0.524474	0.338862	-0.321267
C130	C	0.517628	0.352550	-0.258185
C131	C	0.471793	0.444202	-0.335503
C132	C	0.478633	0.430522	-0.398594
C133	C	0.504974	0.377851	-0.391469
C134	C	0.459133	0.469511	-0.468796
C135	C	0.465974	0.455833	-0.531880
C136	C	0.492315	0.403165	-0.524764
C137	C	0.511815	0.364173	-0.454554
C138	C	0.432795	0.522182	-0.475918
C139	C	0.413295	0.561171	-0.546120
C140	C	0.420133	0.547492	-0.609207
C141	C	0.446474	0.494824	-0.602090
C142	C	0.400634	0.586484	-0.679416
C143	C	0.407475	0.572805	-0.742501
C144	C	0.453316	0.481146	-0.665175
C145	C	0.441098	0.505574	0.197485
C146	C	0.433816	0.520135	0.264623
C147	C	0.601345	0.323870	-0.000252
C148	C	0.648449	0.276762	-0.000223
C149	C	0.441126	0.366788	0.197578
C150	C	0.433853	0.334246	0.264748
C151	C	0.579888	0.366772	0.197570
C152	C	0.619710	0.334225	0.264738
C153	C	0.345222	0.558571	-0.198244
C154	C	0.305400	0.591119	-0.265412
C155	C	0.323765	0.601474	-0.000422
C156	C	0.276661	0.648582	-0.000451
C157	C	0.483985	0.558555	-0.198252
C158	C	0.491258	0.591097	-0.265423
C159	C	0.647665	0.246263	-0.038843
C160	C	0.691921	0.202003	-0.038831
C161	C	0.736962	0.188240	-0.000193
C162	C	0.737746	0.218743	0.038428
C163	C	0.693490	0.263005	0.038411
C164	C	0.453343	0.327340	0.334926
C165	C	0.446506	0.296771	0.398046
C166	C	0.420183	0.273105	0.390986
C167	C	0.400690	0.280014	0.320801
C168	C	0.407524	0.310586	0.257683
C169	C	0.669702	0.310560	0.257650
C170	C	0.707123	0.279983	0.320755
C171	C	0.694552	0.273069	0.390947
C172	C	0.644556	0.296738	0.398033
C173	C	0.607135	0.327317	0.334929
C174	C	0.255409	0.614789	-0.258325
C175	C	0.217987	0.645380	-0.321430
C176	C	0.230558	0.652296	-0.391622
C177	C	0.280554	0.628624	-0.398708
C178	C	0.317975	0.598037	-0.335603
C179	C	0.277447	0.679083	0.038162
C180	C	0.233192	0.723352	0.038132
C181	C	0.188151	0.737116	-0.000507
C182	C	0.187367	0.706612	-0.039125
C183	C	0.231622	0.662346	-0.039100
C184	C	0.517584	0.614754	-0.258340
C185	C	0.524427	0.645326	-0.321447
C186	C	0.504940	0.652244	-0.391638
C187	C	0.478613	0.628583	-0.398719
C188	C	0.471774	0.598009	-0.335612
H189	H	0.405811	0.207607	0.069842
Br190	Br	0.364967	0.247893	0.311233
H191	H	0.150689	0.717825	-0.070585
Br192	Br	0.381071	0.319951	0.162444
H193	H	0.545863	0.664589	-0.315667
H194	H	0.679946	0.316183	0.200502
H195	H	0.533453	0.609128	-0.201193
H196	H	0.747830	0.260713	0.314973
Br197	Br	0.514227	0.693741	-0.477276
Br198	Br	0.452165	0.637982	-0.493983
Br199	Br	0.501606	0.384598	-0.610378
Br200	Br	0.745344	0.231566	0.476583
H201	H	0.283345	0.441200	-0.099450
Br202	Br	0.539290	0.359429	0.344561
H203	H	-0.256448	0.441160	-0.099469
Br204	Br	0.238335	0.605409	-0.163072
H205	H	0.450334	0.578750	-0.341390
Br206	Br	0.364895	0.657962	-0.689074
H207	H	0.634327	0.291104	0.455192
Br208	Br	0.357516	0.005002	0.129371
Br209	Br	0.388757	-0.339594	0.090587
Br210	Br	0.297607	0.638014	-0.493974
Br211	Br	0.150140	0.677500	-0.311796
H212	H	0.358680	0.578763	-0.341383
H213	H	0.774424	0.207531	0.069885
Br214	Br	0.338567	0.660416	0.090605
H215	H	0.694135	0.287833	0.069864
Br216	Br	0.547557	0.292690	-0.444892
Br217	Br	0.179766	0.693809	-0.477258
H218	H	0.233840	0.748183	0.069583
Br219	Br	0.388775	-0.235332	0.090651
H220	H	0.152120	0.773161	-0.000522
H221	H	0.230975	0.637512	-0.070541
H222	H	0.374488	-0.120254	0.108347
Br223	Br	0.194303	0.434748	-0.129111
H224	H	0.391596	0.604554	-0.799663
H225	H	0.374500	-0.040006	0.108383
Br226	Br	0.536341	0.264944	-0.091278
Br227	Br	0.388841	0.304427	0.090847
H228	H	0.772994	0.152198	-0.000185
H229	H	0.550622	-0.087150	-0.109036
Br230	Br	0.536336	0.160672	-0.091312
H231	H	0.550614	-0.167407	-0.109059
H232	H	0.462383	0.291150	0.455187
Br233	Br	0.536282	-0.274792	-0.091483
H234	H	0.374521	0.092721	0.108432
Br235	Br	0.567617	0.053042	-0.129958
Br236	Br	0.536266	-0.379079	-0.091520
H237	H	0.085751	0.429328	-0.154083
Br238	Br	-0.269181	0.490578	0.128442
H239	H	0.414622	0.248213	0.442387
H240	H	0.550618	-0.034671	-0.109018
H241	H	0.005493	0.429319	-0.154082
H242	H	-0.358237	0.484152	0.098765
Br243	Br	-0.345514	0.434721	-0.129121
H244	H	-0.127248	0.429310	-0.154078
H245	H	-0.027880	0.495996	0.153430
H246	H	0.052386	0.495995	0.153433
Br247	Br	0.166323	0.490619	0.128446
H248	H	0.261828	0.484189	0.098786
H249	H	-0.046978	0.429315	-0.154084
H250	H	-0.080361	0.495998	0.153413
Br251	Br	-0.175850	0.502425	0.183072
H252	H	0.545918	0.295973	-0.315464
Br253	Br	0.544114	0.299629	-0.162907
H254	H	0.474760	0.438256	-0.659372
H255	H	0.427227	0.533317	-0.424548
H256	H	0.450348	0.487086	-0.341293
H257	H	0.391850	0.604055	-0.551910
H258	H	0.610995	0.257466	-0.070315
H259	H	0.691273	0.177172	-0.070281
H260	H	0.474777	0.346607	0.340688
