data_functionalizedCrystal
_audit_creation_method	'MofGen! by Chris Wilmer'
_symmetry_space_group_name_H-M	'P1'
_symmetry_Int_Tables_number	1
_symmetry_cell_setting	triclinic
loop_
_symmetry_equiv_pos_as_xyz
  x,y,z
_cell_length_a	19.188930
_cell_length_b	14.519709
_cell_length_c	13.596369
_cell_angle_alpha	89.993066
_cell_angle_beta	89.980792
_cell_angle_gamma	83.412462
loop_
_atom_site_label
_atom_site_type_symbol
_atom_site_fract_x
_atom_site_fract_y
_atom_site_fract_z
O1	O	0.926555	0.115137	-0.082110
O2	O	1.426555	0.615137	0.417890
O3	O	0.723299	0.130636	-0.082043
O4	O	1.223299	0.630636	0.417957
O5	O	0.830316	-0.011385	-0.082069
O6	O	1.330316	0.488615	0.417931
O7	O	0.819538	0.257158	-0.082083
O8	O	1.319538	0.757158	0.417917
O9	O	0.830306	-0.011393	0.081514
O10	O	1.330306	0.488607	0.581514
O11	O	0.723289	0.130629	0.081540
O12	O	1.223289	0.630629	0.581540
O13	O	0.926545	0.115130	0.081473
O14	O	1.426545	0.615130	0.581473
Zn15	Zn	0.824915	0.122878	0.107479
Zn16	Zn	1.324915	0.622878	0.607479
Zn17	Zn	0.824929	0.122888	-0.108049
Zn18	Zn	1.324929	0.622888	0.391951
O19	O	0.819528	0.257151	0.081500
O20	O	1.319528	0.757151	0.581500
C21	C	0.829809	-0.045746	-0.000277
C22	C	1.329809	0.454254	0.499723
C23	C	0.828304	-0.148118	-0.000276
C24	C	1.328304	0.351882	0.499724
C25	C	0.697281	0.130131	-0.000242
C26	C	1.197281	0.630131	0.499758
C27	C	0.619771	0.128624	-0.000217
C28	C	1.119771	0.628624	0.499783
C29	C	0.822762	-0.522979	-0.000300
C30	C	1.322762	-0.022979	0.499700
C31	C	0.824301	-0.418681	-0.000293
C32	C	1.324301	0.081319	0.499707
C33	C	0.825533	-0.335552	-0.000287
C34	C	1.325533	0.164448	0.499713
C35	C	0.827072	-0.231247	-0.000282
C36	C	1.327072	0.268753	0.499718
C37	C	0.575144	0.211957	-0.000236
C38	C	1.075144	0.711957	0.499764
C39	C	0.502315	0.210542	-0.000247
C40	C	1.002315	0.710542	0.499753
C41	C	0.474117	0.125788	-0.000258
C42	C	0.974117	0.625788	0.499742
C43	C	0.518754	0.042444	-0.000232
C44	C	1.018754	0.542444	0.499768
C45	C	0.591581	0.043861	-0.000212
C46	C	1.091581	0.543861	0.499788
N47	N	0.365910	0.061007	-0.055968
N48	N	0.865910	0.561007	0.444032
N49	N	0.296726	0.059666	-0.055990
N50	N	0.796726	0.559666	0.444010
C51	C	0.254693	0.121511	-0.000318
C52	C	0.754693	0.621511	0.499682
N53	N	0.284455	0.184762	0.055365
N54	N	0.784455	0.684762	0.555365
N55	N	0.353645	0.186106	0.055382
N56	N	0.853645	0.686106	0.555382
C57	C	0.395149	0.124241	-0.000280
C58	C	0.895149	0.624241	0.499720
C59	C	0.131096	0.203315	-0.000348
C60	C	0.631096	0.703315	0.499652
C61	C	0.058266	0.201896	-0.000352
C62	C	0.558266	0.701896	0.499648
C63	C	0.074706	0.033796	-0.000348
C64	C	0.574706	0.533796	0.499652
C65	C	0.147535	0.035217	-0.000333
C66	C	0.647535	0.535217	0.499667
C67	C	0.175725	0.119980	-0.000338
C68	C	0.675725	0.619980	0.499662
C69	C	0.952563	0.115635	-0.000329
C70	C	1.452563	0.615635	0.499671
C71	C	1.030073	0.117142	-0.000361
C72	C	1.530073	0.617142	0.499639
C73	C	0.820035	0.291511	-0.000294
C74	C	1.320035	0.791511	0.499706
C75	C	0.821541	0.393883	-0.000302
C76	C	1.321541	0.893883	0.499698
N77	N	0.824911	0.122871	0.254571
N78	N	1.324911	0.622871	0.754571
N79	N	0.824939	0.122888	-0.255140
N80	N	1.324939	0.622888	0.244860
C81	C	0.824928	0.122889	0.655862
C82	C	1.324928	0.622889	1.155862
C83	C	0.824921	0.122887	0.544210
C84	C	1.324921	0.622887	1.044210
C85	C	0.824920	0.122880	0.455220
C86	C	1.324920	0.622880	0.955220
C87	C	0.824912	0.122877	0.343561
C88	C	1.324912	0.622877	0.843561
H89	H	0.598091	0.280978	-0.000242
H90	H	1.098091	0.780978	0.499758
H91	H	0.465973	0.278404	-0.000261
H92	H	0.965973	0.778404	0.499739
H93	H	0.051748	-0.035213	-0.000417
H94	H	0.551748	0.464787	0.499583
O95	O	0.491448	-0.039944	-0.000378
O96	O	0.991448	0.460056	0.499622
C97	C	0.514264	-0.090714	-0.085103
C98	C	1.014264	0.409286	0.414897
H99	H	0.564816	-0.065786	-0.113331
H100	H	1.064816	0.434214	0.386669
H101	H	0.472161	-0.079858	-0.144442
H102	H	0.972161	0.420142	0.355558
C103	C	0.465685	-0.225130	-0.024692
C104	C	0.965685	0.274870	0.475308
C105	C	0.527777	-0.194518	-0.059357
C106	C	1.027777	0.305482	0.440643
H107	H	0.474018	-0.289162	-0.008814
H108	H	0.974018	0.210838	0.491186
H109	H	0.450311	-0.190925	0.032387
H110	H	0.950311	0.309075	0.532387
H111	H	0.430605	-0.216075	-0.074148
H112	H	0.930605	0.283925	0.425852
H113	H	0.562853	-0.203563	-0.009898
H114	H	1.062853	0.296437	0.490102
H115	H	0.543158	-0.228728	-0.116428
H116	H	1.043158	0.271272	0.383572
H117	H	0.627917	-0.024001	-0.000196
H118	H	1.127917	0.475999	0.499804
H119	H	0.154049	0.272334	-0.000337
H120	H	0.654049	0.772334	0.499663
O121	O	0.015012	0.282937	-0.000413
O122	O	0.515012	0.782937	0.499587
C123	C	0.055515	0.358048	-0.000389
C124	C	0.555515	0.858048	0.499611
H125	H	0.109849	0.334418	-0.031346
H126	H	0.609849	0.834418	0.468654
H127	H	0.060707	0.384044	0.078089
H128	H	0.560707	0.884044	0.578089
C129	C	-0.047385	0.465921	-0.026533
C130	C	0.452615	0.965921	0.473467
C131	C	0.019347	0.436901	-0.064563
C132	C	0.519347	0.936901	0.435437
H133	H	-0.069696	0.514564	-0.066115
H134	H	0.430304	1.014564	0.433885
H135	H	-0.074673	0.415318	-0.026546
H136	H	0.425327	0.915318	0.473454
H137	H	-0.043049	0.487578	0.038864
H138	H	0.456951	0.987578	0.538864
H139	H	0.015009	0.415234	-0.129954
H140	H	0.515009	0.915234	0.370046
H141	H	0.046633	0.487502	-0.064563
H142	H	0.546633	0.987502	0.435437
H143	H	0.183871	-0.032642	-0.000322
H144	H	0.683871	0.467358	0.499678
