data_functionalizedCrystal
_audit_creation_method	'MofGen! by Chris Wilmer'
_symmetry_space_group_name_H-M	'P1'
_symmetry_Int_Tables_number	1
_symmetry_cell_setting	triclinic
loop_
_symmetry_equiv_pos_as_xyz
  x,y,z
_cell_length_a	23.532407
_cell_length_b	22.010155
_cell_length_c	19.188930
_cell_angle_alpha	90.000879
_cell_angle_beta	82.996764
_cell_angle_gamma	90.005729
loop_
_atom_site_label
_atom_site_type_symbol
_atom_site_fract_x
_atom_site_fract_y
_atom_site_fract_z
O1	O	0.755444	0.050494	0.084747
O2	O	0.589606	0.050504	0.097011
O3	O	0.677311	0.050487	-0.010792
O4	O	0.667739	0.050511	0.192550
O5	O	0.677295	-0.050564	-0.010776
O6	O	0.589590	-0.050546	0.097027
O7	O	0.755428	-0.050557	0.084763
Cu8	Cu	0.672508	-0.059778	0.090897
Cu9	Cu	0.672526	0.059725	0.090878
O10	O	0.667723	-0.050539	0.192566
C11	C	0.568382	-0.000020	0.096707
C12	C	0.505163	-0.000016	0.095768
N13	N	0.672498	-0.143831	0.090910
C14	C	0.238851	-0.000041	0.028100
C15	C	0.298254	-0.000041	0.028972
O16	O	0.334884	-0.000068	-0.024707
N17	N	0.321016	-0.000029	0.093061
C18	C	0.284373	-0.000024	0.156282
O19	O	0.309188	-0.000014	0.210874
C20	C	0.224972	-0.000028	0.155409
C21	C	0.202213	-0.000034	0.091316
C22	C	0.216092	-0.000047	-0.035987
C23	C	0.156694	-0.000046	-0.036859
C24	C	0.120055	-0.000039	0.026356
C25	C	0.142815	-0.000033	0.090444
C26	C	0.188329	-0.000027	0.218629
C27	C	0.128925	-0.000032	0.217750
C28	C	0.106166	-0.000038	0.153657
C29	C	0.046778	-0.000025	0.152788
N30	N	0.024016	-0.000037	0.088699
C31	C	0.060655	-0.000044	0.025483
C32	C	0.409119	-0.000015	0.158110
C33	C	0.468519	-0.000006	0.158984
C34	C	0.482396	-0.000024	0.031674
C35	C	0.422995	-0.000029	0.030801
C36	C	0.386357	-0.000027	0.094021
C37	C	-0.064086	-0.000042	0.023657
C38	C	-0.123490	-0.000038	0.022791
C39	C	-0.137362	-0.000023	0.150100
C40	C	-0.077963	-0.000023	0.150967
C41	C	-0.041326	-0.000035	0.087740
O42	O	0.010113	0.000000	0.206439
O43	O	0.035831	-0.000061	-0.029100
C44	C	0.711364	-0.563618	0.043149
C45	C	0.711367	-0.627225	0.043144
O46	O	0.744389	-0.660123	0.002546
N47	N	0.672526	-0.659038	0.090863
C48	C	0.633676	-0.627239	0.138585
O49	O	0.600639	-0.660139	0.179172
C50	C	0.633671	-0.563633	0.138586
C51	C	0.672519	-0.531824	0.090869
C52	C	0.750208	-0.531809	-0.004564
C53	C	0.750206	-0.468205	-0.004558
C54	C	0.711360	-0.436411	0.043161
C55	C	0.672516	-0.468221	0.090875
C56	C	0.594819	-0.531836	0.186303
C57	C	0.594818	-0.468225	0.186300
C58	C	0.633665	-0.436416	0.138583
C59	C	0.633669	-0.372823	0.138600
N60	N	0.672509	-0.341011	0.090881
C61	C	0.711355	-0.372805	0.043162
C62	C	0.633689	-0.760817	0.138578
C63	C	0.633696	-0.824422	0.138581
C64	C	0.711386	-0.824404	0.043140
C65	C	0.711381	-0.760798	0.043141
C66	C	0.672530	-0.729005	0.090860
C67	C	0.711348	-0.239234	0.043178
C68	C	0.711344	-0.175625	0.043190
C69	C	0.633652	-0.175649	0.138629
C70	C	0.633658	-0.239252	0.138619
C71	C	0.672508	-0.271043	0.090888
O72	O	0.600662	-0.339885	0.179176
O73	O	0.744382	-0.339898	0.002575
C74	C	0.776652	-0.000031	0.085068
C75	C	0.839871	-0.000031	0.086007
C76	C	0.676993	-0.000040	-0.036794
C77	C	0.676062	-0.000045	-0.114295
N78	N	0.672540	0.143778	0.090859
C79	C	0.727524	-0.000052	-0.159383
C80	C	0.726650	-0.000042	-0.232205
C81	C	0.674311	-0.000038	-0.259934
C82	C	0.622842	-0.000028	-0.214836
C83	C	0.623718	-0.000032	-0.142017
N84	N	0.634299	-0.034425	-0.367806
N85	N	0.633470	-0.034423	-0.436982
C86	C	0.671670	-0.000026	-0.479334
N87	N	0.710737	0.034362	-0.449899
N88	N	0.711567	0.034357	-0.380717
C89	C	0.673356	-0.000034	-0.338894
C90	C	0.722188	-0.000020	-0.603384
C91	C	0.721311	-0.000007	-0.676206
C92	C	0.617502	0.000001	-0.658836
C93	C	0.618380	-0.000007	-0.586015
C94	C	0.670724	-0.000020	-0.558294
C95	C	0.668041	-0.000011	0.218568
C96	C	0.668972	-0.000002	0.296070
H97	H	-0.142016	-0.000041	-0.029403
H98	H	0.379291	-0.000009	0.209595
N99	N	0.089410	-0.000022	0.285941
H100	H	0.048325	-0.000023	0.275668
H101	H	0.096760	-0.037480	0.313894
N102	N	0.561049	0.000011	-0.688733
H103	H	0.568302	0.000015	-0.741706
H104	H	0.538529	-0.037448	-0.672216
N105	N	0.398450	-0.000036	-0.038326
H106	H	0.430679	-0.000038	-0.078237
H107	H	0.374106	-0.037500	-0.041459
N108	N	0.521919	-0.000033	-0.036511
H109	H	0.563001	-0.000031	-0.026228
H110	H	0.514566	-0.037498	-0.064454
N111	N	0.493063	0.000016	0.228112
H112	H	0.460834	0.000023	0.268022
H113	H	0.517402	-0.037443	0.231261
H114	H	0.602031	-0.265151	0.177482
N115	N	0.562874	-0.000004	-0.537379
H116	H	0.529583	-0.000000	-0.565993
H117	H	0.560970	-0.037466	-0.506790
N118	N	0.552913	-0.566133	0.237762
H119	H	0.527770	-0.592524	0.211228
H120	H	0.574628	-0.592489	0.268537
N121	N	-0.024576	-0.000056	-0.044536
H122	H	-0.048015	-0.000059	-0.085262
H123	H	0.000377	0.037405	-0.046957
N124	N	-0.176883	-0.000016	0.218282
H125	H	-0.201836	0.037442	0.220750
H126	H	-0.201802	-0.037501	0.220715
N127	N	0.132151	-0.000058	-0.105988
H128	H	0.164382	-0.000066	-0.145897
H129	H	0.107807	-0.037522	-0.109117
H130	H	0.743013	-0.734902	0.004285
N131	N	0.568206	-0.000035	-0.093388
H132	H	0.566251	-0.037498	-0.062794
H133	H	0.566291	0.037445	-0.062827
H134	H	0.742980	-0.149728	0.004333
N135	N	0.591784	-0.726528	0.190052
H136	H	0.567182	-0.756337	0.220277
H137	H	0.613503	-0.700133	0.220788
N138	N	0.792100	-0.433901	-0.056031
H139	H	0.817250	-0.407508	-0.029512
H140	H	0.816665	-0.463741	-0.086246
H141	H	0.770147	-0.000060	-0.136818
N142	N	0.255604	-0.000060	-0.104176
H143	H	0.232164	-0.000066	-0.144901
H144	H	0.280554	0.037403	-0.106599
H145	H	0.206849	-0.000020	0.270820
N146	N	0.591798	-0.858727	0.190048
H147	H	0.613477	-0.885116	0.220830
H148	H	0.567201	-0.828889	0.220227
N149	N	0.552910	-0.433934	0.237766
H150	H	0.528304	-0.463741	0.267990
H151	H	0.574628	-0.407541	0.268504
H152	H	0.743016	-0.850302	0.004283
H153	H	0.742983	-0.265111	0.004310
N154	N	-0.053411	-0.000008	0.220093
H155	H	-0.085638	-0.000001	0.260007
H156	H	-0.029076	-0.037471	0.223234
N157	N	0.792118	-0.566095	-0.056026
H158	H	0.816723	-0.536283	-0.086244
H159	H	0.817226	-0.592472	-0.029440
N160	N	0.591756	-0.141350	0.190096
H161	H	0.597651	-0.096230	0.182852
H162	H	0.551379	-0.152473	0.182274
H163	H	0.763220	-0.000008	-0.712917
H164	H	0.768558	-0.000044	-0.268922
N165	N	0.566390	-0.000021	-0.244739
H166	H	0.573644	-0.000022	-0.297712
H167	H	0.543871	-0.037480	-0.228219
H168	H	0.764810	-0.000028	-0.580812
