data_functionalizedCrystal
_audit_creation_method	'MofGen! by Chris Wilmer'
_symmetry_space_group_name_H-M	'P1'
_symmetry_Int_Tables_number	1
_symmetry_cell_setting	triclinic
loop_
_symmetry_equiv_pos_as_xyz
  x,y,z
_cell_length_a	19.077236
_cell_length_b	19.121073
_cell_length_c	19.076919
_cell_angle_alpha	94.604058
_cell_angle_beta	89.887323
_cell_angle_gamma	94.857396
loop_
_atom_site_label
_atom_site_type_symbol
_atom_site_fract_x
_atom_site_fract_y
_atom_site_fract_z
Zn1	Zn	1.046913	-0.255828	-0.450992
Zn2	Zn	1.296913	-0.005828	-0.200992
Zn3	Zn	1.546913	0.244172	0.049008
Zn4	Zn	1.796913	0.494172	0.299008
Zn5	Zn	1.046530	-0.368770	-0.338098
Zn6	Zn	1.296530	-0.118770	-0.088098
Zn7	Zn	1.546530	0.131230	0.161902
Zn8	Zn	1.796530	0.381230	0.411902
Zn9	Zn	0.934145	-0.255458	-0.328757
Zn10	Zn	1.184145	-0.005458	-0.078757
Zn11	Zn	1.434145	0.244542	0.171243
Zn12	Zn	1.684145	0.494542	0.421243
Zn13	Zn	0.923931	-0.378172	-0.451221
Zn14	Zn	1.173931	-0.128172	-0.201221
Zn15	Zn	1.423931	0.121828	0.048779
Zn16	Zn	1.673931	0.371828	0.298779
O17	O	0.987880	-0.314557	-0.392267
O18	O	1.237880	-0.064557	-0.142267
O19	O	1.487880	0.185443	0.107733
O20	O	1.737880	0.435443	0.357733
O21	O	1.145364	-0.267030	-0.439830
O22	O	1.395364	-0.017030	-0.189830
O23	O	1.645364	0.232970	0.060170
O24	O	1.895364	0.482970	0.310170
O25	O	1.035736	-0.349649	-0.238361
O26	O	1.285736	-0.099649	0.011639
O27	O	1.535736	0.150351	0.261639
O28	O	1.785736	0.400351	0.511639
O29	O	0.953539	-0.156885	-0.340966
O30	O	1.203539	0.093115	-0.090966
O31	O	1.453539	0.343115	0.159034
O32	O	1.703539	0.593115	0.409034
O33	O	1.145082	-0.350007	-0.356888
O34	O	1.395082	-0.100007	-0.106888
O35	O	1.645082	0.149993	0.143112
O36	O	1.895082	0.399993	0.393112
O37	O	1.036389	-0.157156	-0.430772
O38	O	1.286389	0.092844	-0.180772
O39	O	1.536389	0.342844	0.069228
O40	O	1.786389	0.592844	0.319228
O41	O	0.953167	-0.266400	-0.231498
O42	O	1.203167	-0.016400	0.018502
O43	O	1.453167	0.233600	0.268502
O44	O	1.703167	0.483600	0.518502
O45	O	0.834288	-0.275517	-0.341188
O46	O	1.084288	-0.025517	-0.091188
O47	O	1.334288	0.224483	0.158812
O48	O	1.584288	0.474483	0.408812
O49	O	0.936130	-0.366032	-0.549688
O50	O	1.186130	-0.116032	-0.299688
O51	O	1.436130	0.133968	-0.049688
O52	O	1.686130	0.383968	0.200312
O53	O	0.826784	-0.365674	-0.431162
O54	O	1.076784	-0.115674	-0.181162
O55	O	1.326784	0.134326	0.068838
O56	O	1.576784	0.384326	0.318838
O57	O	1.026485	-0.276147	-0.549520
O58	O	1.276485	-0.026147	-0.299520
O59	O	1.526485	0.223853	-0.049520
O60	O	1.776485	0.473853	0.200480
O61	O	1.025832	-0.468640	-0.357110
O62	O	1.275832	-0.218640	-0.107110
O63	O	1.525832	0.031360	0.142890
O64	O	1.775832	0.281360	0.392890
O65	O	0.935759	-0.475547	-0.440220
O66	O	1.185759	-0.225547	-0.190220
O67	O	1.435759	0.024453	0.059780
O68	O	1.685759	0.274453	0.309780
C69	C	0.804996	-0.321576	-0.385186
C70	C	1.054996	-0.071576	-0.135186
C71	C	1.304996	0.178424	0.114814
C72	C	1.554996	0.428424	0.364814
C73	C	0.726756	-0.324596	-0.382175
C74	C	0.976756	-0.074596	-0.132175
C75	C	1.226756	0.175404	0.117825
C76	C	1.476756	0.425404	0.367825
C77	C	0.690139	-0.282888	-0.424015
C78	C	0.940139	-0.032888	-0.174015
C79	C	1.190139	0.217112	0.075985
C80	C	1.440139	0.467112	0.325985
C81	C	0.616625	-0.285722	-0.421179
C82	C	0.866625	-0.035722	-0.171179
C83	C	1.116625	0.214278	0.078821
C84	C	1.366625	0.464278	0.328821
C85	C	0.579728	-0.330269	-0.376506
C86	C	0.829728	-0.080269	-0.126506
C87	C	1.079728	0.169731	0.123494
C88	C	1.329728	0.419731	0.373494
C89	C	0.616349	-0.371980	-0.334661
C90	C	0.866349	-0.121980	-0.084661
C91	C	1.116349	0.128020	0.165339
C92	C	1.366349	0.378020	0.415339
C93	C	0.689863	-0.369141	-0.337494
C94	C	0.939863	-0.119141	-0.087494
C95	C	1.189863	0.130859	0.162506
C96	C	1.439863	0.380859	0.412506
C97	C	0.359851	-0.343380	-0.363392
C98	C	0.609851	-0.093380	-0.113392
C99	C	0.859851	0.156620	0.136608
C100	C	1.109851	0.406620	0.386608
C101	C	0.286333	-0.346217	-0.360564
C102	C	0.536333	-0.096217	-0.110564
C103	C	0.786333	0.153783	0.139436
C104	C	1.036333	0.403783	0.389436
C105	C	0.286614	-0.259958	-0.447082
C106	C	0.536614	-0.009958	-0.197082
C107	C	0.786614	0.240042	0.052918
C108	C	1.036614	0.490042	0.302918
C109	C	0.360128	-0.257127	-0.449914
C110	C	0.610128	-0.007127	-0.199914
C111	C	0.860128	0.242873	0.050086
C112	C	1.110128	0.492873	0.300086
C113	C	0.396743	-0.298834	-0.408066
C114	C	0.646743	-0.048834	-0.158066
C115	C	0.896743	0.201166	0.091934
C116	C	1.146743	0.451166	0.341934
N117	N	0.504584	-0.333169	-0.373608
N118	N	0.754584	-0.083169	-0.123608
N119	N	1.004584	0.166831	0.126392
N120	N	1.254584	0.416831	0.376392
N121	N	0.471886	-0.295930	-0.410961
N122	N	0.721886	-0.045930	-0.160961
N123	N	0.971886	0.204070	0.089039
N124	N	1.221886	0.454070	0.339039
C125	C	0.979664	-0.497665	-0.399720
C126	C	1.229664	-0.247665	-0.149720
C127	C	1.479664	0.002335	0.100280
C128	C	1.729664	0.252335	0.350280
C129	C	0.976212	-0.575998	-0.402934
C130	C	1.226212	-0.325998	-0.152934
C131	C	1.476212	-0.075998	0.097066
C132	C	1.726212	0.174002	0.347066
C133	C	0.954359	-1.019217	-0.423339
C134	C	1.204359	-0.769217	-0.173339
C135	C	1.454359	-0.519217	0.076661
C136	C	1.704359	-0.269217	0.326661
C137	C	0.957602	-0.945614	-0.420311
C138	C	1.207602	-0.695614	-0.170311
C139	C	1.457602	-0.445614	0.079689
C140	C	1.707602	-0.195614	0.329689
C141	C	1.006152	-0.905196	-0.375560
C142	C	1.256152	-0.655196	-0.125560
C143	C	1.506152	-0.405196	0.124440
C144	C	1.756152	-0.155196	0.374440
C145	C	1.051467	-0.938383	-0.333839
C146	C	1.301467	-0.688383	-0.083839
C147	C	1.551467	-0.438383	0.166161
C148	C	1.801467	-0.188383	0.416161
C149	C	1.048227	-1.011984	-0.336871
C150	C	1.298227	-0.761984	-0.086871
C151	C	1.548227	-0.511984	0.163129
C152	C	1.798227	-0.261984	0.413129
C153	C	1.018287	-0.682787	-0.364245
C154	C	1.268287	-0.432787	-0.114245
C155	C	1.518287	-0.182787	0.135755
C156	C	1.768287	0.067213	0.385755
C157	C	1.021522	-0.609181	-0.361214
C158	C	1.271522	-0.359181	-0.111214
C159	C	1.521522	-0.109181	0.138786
C160	C	1.771522	0.140819	0.388786
C161	C	0.927658	-0.616417	-0.447688
C162	C	1.177658	-0.366417	-0.197688
C163	C	1.427658	-0.116417	0.052312
C164	C	1.677658	0.133583	0.302312
C165	C	0.924419	-0.690019	-0.450713
C166	C	1.174419	-0.440019	-0.200713
C167	C	1.424419	-0.190019	0.049287
C168	C	1.674419	0.059981	0.299287
C169	C	0.969736	-0.723200	-0.408995
C170	C	1.219736	-0.473200	-0.158995
C171	C	1.469736	-0.223200	0.091005
C172	C	1.719736	0.026800	0.341005
C173	C	1.009467	-0.829962	-0.372462
C174	C	1.259467	-0.579962	-0.122462
C175	C	1.509467	-0.329962	0.127538
C176	C	1.759467	-0.079962	0.377538
C177	C	0.966424	-0.798432	-0.412097
C178	C	1.216424	-0.548432	-0.162097
C179	C	1.466424	-0.298432	0.087903
C180	C	1.716424	-0.048432	0.337903
C181	C	1.171478	-0.307511	-0.399375
C182	C	1.421478	-0.057511	-0.149375
C183	C	1.671478	0.192489	0.100625
C184	C	1.921478	0.442489	0.350625
C185	C	1.249716	-0.304508	-0.402405
C186	C	1.499716	-0.054508	-0.152405
C187	C	1.749716	0.195492	0.097595
C188	C	1.999716	0.445492	0.347595
C189	C	0.980211	-0.322179	-0.575858
C190	C	1.230211	-0.072179	-0.325858
C191	C	1.480211	0.177821	-0.075858
C192	C	1.730211	0.427821	0.174142
C193	C	0.976943	-0.325428	-0.654093
C194	C	1.226943	-0.075428	-0.404093
C195	C	1.476943	0.174572	-0.154093
C196	C	1.726943	0.424572	0.095907
C197	C	0.996146	-0.130734	-0.384801
C198	C	1.246146	0.119266	-0.134801
C199	C	1.496146	0.369266	0.115199
C200	C	1.746146	0.619266	0.365199
C201	C	0.999669	-0.052399	-0.381620
C202	C	1.249669	0.197601	-0.131620
C203	C	1.499669	0.447601	0.118380
C204	C	1.749669	0.697601	0.368380
C205	C	1.022448	-0.280157	-0.690762
C206	C	1.272448	-0.030157	-0.440762
C207	C	1.522448	0.219843	-0.190762
C208	C	1.772448	0.469843	0.059238
C209	C	1.019369	-0.283207	-0.764272
C210	C	1.269369	-0.033207	-0.514272
C211	C	1.519369	0.216793	-0.264272
C212	C	1.769369	0.466793	-0.014272
C213	C	0.970788	-0.331531	-0.801112
C214	C	1.220788	-0.081531	-0.551112
C215	C	1.470788	0.168469	-0.301112
C216	C	1.720788	0.418469	-0.051112
C217	C	0.925278	-0.376803	-0.764438
C218	C	1.175278	-0.126803	-0.514438
C219	C	1.425278	0.123197	-0.264438
C220	C	1.675278	0.373197	-0.014438
C221	C	0.928354	-0.373750	-0.690929
C222	C	1.178354	-0.123750	-0.440929
C223	C	1.428354	0.126250	-0.190929
C224	C	1.678354	0.376250	0.059071
C225	C	0.956541	-0.345679	-1.020969
C226	C	1.206541	-0.095679	-0.770969
C227	C	1.456541	0.154321	-0.520969
C228	C	1.706541	0.404321	-0.270969
C229	C	0.953469	-0.348730	-1.094483
C230	C	1.203469	-0.098730	-0.844483
C231	C	1.453469	0.151270	-0.594483
C232	C	1.703469	0.401270	-0.344483
C233	C	1.047560	-0.255132	-1.094312
C234	C	1.297560	-0.005132	-0.844312
C235	C	1.547560	0.244868	-0.594312
C236	C	1.797560	0.494868	-0.344312
C237	C	1.050634	-0.252086	-1.020802
C238	C	1.300634	-0.002086	-0.770802
C239	C	1.550634	0.247914	-0.520802
C240	C	1.800634	0.497914	-0.270802
C241	C	1.005122	-0.297356	-0.984134
C242	C	1.255122	-0.047356	-0.734134
C243	C	1.505122	0.202644	-0.484134
C244	C	1.755122	0.452644	-0.234134
N245	N	0.967641	-0.334651	-0.876251
N246	N	1.217641	-0.084651	-0.626251
N247	N	1.467641	0.165349	-0.376251
N248	N	1.717641	0.415349	-0.126251
N249	N	1.008266	-0.294232	-0.908996
N250	N	1.258266	-0.044232	-0.658996
N251	N	1.508266	0.205768	-0.408996
N252	N	1.758266	0.455768	-0.158996
C253	C	0.995561	-0.306912	-0.209390
C254	C	1.245561	-0.056912	0.040610
C255	C	1.495561	0.193088	0.290610
C256	C	1.745561	0.443088	0.540610
C257	C	0.998974	-0.303460	-0.131152
C258	C	1.248974	-0.053460	0.118848
C259	C	1.498974	0.196540	0.368848
C260	C	1.748974	0.446540	0.618848
H261	H	0.719675	-0.403104	-0.303422
H262	H	0.969675	-0.153104	-0.053422
H263	H	1.219675	0.096896	0.196578
H264	H	1.469675	0.346896	0.446578
H265	H	0.920708	-0.918598	-0.454283
H266	H	1.170708	-0.668598	-0.204283
H267	H	1.420708	-0.418598	0.045717
H268	H	1.670708	-0.168598	0.295717
H269	H	0.891292	-0.410607	-0.661074
H270	H	1.141292	-0.160607	-0.411074
H271	H	1.391292	0.089393	-0.161074
H272	H	1.641292	0.339393	0.088926
H273	H	0.884877	-0.722923	-0.487146
H274	H	1.134877	-0.472923	-0.237146
H275	H	1.384877	-0.222923	0.012854
H276	H	1.634877	0.027077	0.262854
H277	H	1.085125	-1.039000	-0.302900
H278	H	1.335125	-0.789000	-0.052900
H279	H	1.585125	-0.539000	0.197100
H280	H	1.835125	-0.289000	0.447100
Cl281	Cl	0.240579	-0.207528	-0.499685
Cl282	Cl	0.490579	0.042472	-0.249685
Cl283	Cl	0.740579	0.292472	0.000315
Cl284	Cl	0.990579	0.542472	0.250315
H285	H	0.720176	-0.246614	-0.460395
H286	H	0.970176	0.003386	-0.210395
H287	H	1.220176	0.253386	0.039605
H288	H	1.470176	0.503386	0.289605
H289	H	0.914825	-1.052121	-0.459782
H290	H	1.164825	-0.802121	-0.209782
H291	H	1.414825	-0.552121	0.040218
H292	H	1.664825	-0.302121	0.290218
H293	H	1.084613	-0.218275	-1.124175
H294	H	1.334613	0.031725	-0.874175
H295	H	1.584613	0.281725	-0.624175
H296	H	1.834613	0.531725	-0.374175
H297	H	1.062010	-0.240808	-0.660772
H298	H	1.312010	0.009192	-0.410772
H299	H	1.562010	0.259192	-0.160772
H300	H	1.812010	0.509192	0.089228
Cl301	Cl	0.570596	-0.233288	-0.473783
Cl302	Cl	0.820596	0.016712	-0.223783
Cl303	Cl	1.070596	0.266712	0.026217
Cl304	Cl	1.320596	0.516712	0.276217
H305	H	0.390165	-0.220854	-0.486294
H306	H	0.640165	0.029146	-0.236294
H307	H	0.890165	0.279146	0.013706
H308	H	1.140165	0.529146	0.263706
Cl309	Cl	0.870696	-0.574699	-0.500136
Cl310	Cl	1.120696	-0.324699	-0.250136
Cl311	Cl	1.370696	-0.074699	-0.000136
Cl312	Cl	1.620696	0.175301	0.249864
H313	H	0.256293	-0.382496	-0.324186
H314	H	0.506293	-0.132496	-0.074186
H315	H	0.756293	0.117504	0.175814
H316	H	1.006293	0.367504	0.425814
H317	H	0.389654	-0.377342	-0.329318
H318	H	0.639654	-0.127342	-0.079318
H319	H	0.889654	0.122658	0.170682
H320	H	1.139654	0.372658	0.420682
H321	H	0.586302	-0.408248	-0.298284
H322	H	0.836302	-0.158248	-0.048284
H323	H	1.086302	0.091752	0.201716
H324	H	1.336302	0.341752	0.451716
H325	H	0.913906	-0.388083	-1.124477
H326	H	1.163906	-0.138083	-0.874477
H327	H	1.413906	0.111917	-0.624477
H328	H	1.663906	0.361917	-0.374477
H329	H	1.061060	-0.576274	-0.324770
H330	H	1.311060	-0.326274	-0.074770
H331	H	1.561060	-0.076274	0.175230
H332	H	1.811060	0.173726	0.425230
Cl333	Cl	1.075256	-0.724490	-0.311797
Cl334	Cl	1.325256	-0.474490	-0.061797
Cl335	Cl	1.575256	-0.224490	0.188203
Cl336	Cl	1.825256	0.025510	0.438203
Cl337	Cl	0.899325	-0.402590	-0.974882
Cl338	Cl	1.149325	-0.152590	-0.724882
Cl339	Cl	1.399325	0.097410	-0.474882
Cl340	Cl	1.649325	0.347410	-0.224882
H341	H	0.885720	-0.416147	-0.794439
H342	H	1.135720	-0.166147	-0.544439
H343	H	1.385720	0.083853	-0.294439
H344	H	1.635720	0.333853	-0.044439
Cl345	Cl	0.905395	-0.849245	-0.468357
Cl346	Cl	1.155395	-0.599245	-0.218357
Cl347	Cl	1.405395	-0.349245	0.031643
Cl348	Cl	1.655395	-0.099245	0.281643
Cl349	Cl	1.112506	-0.887571	-0.277583
Cl350	Cl	1.362506	-0.637571	-0.027583
Cl351	Cl	1.612506	-0.387571	0.222417
Cl352	Cl	1.862506	-0.137571	0.472417
H353	H	1.048996	-0.797047	-0.336023
H354	H	1.298996	-0.547047	-0.086023
H355	H	1.548996	-0.297047	0.163977
H356	H	1.798996	-0.047047	0.413977
Cl357	Cl	1.076608	-0.226322	-0.810369
Cl358	Cl	1.326608	0.023678	-0.560369
Cl359	Cl	1.576608	0.273678	-0.310369
Cl360	Cl	1.826608	0.523678	-0.060369
H361	H	1.090196	-0.212737	-0.990812
H362	H	1.340196	0.037263	-0.740812
H363	H	1.590196	0.287263	-0.490812
H364	H	1.840196	0.537263	-0.240812
