data_functionalizedCrystal
_audit_creation_method	'MofGen! by Chris Wilmer'
_symmetry_space_group_name_H-M	'P1'
_symmetry_Int_Tables_number	1
_symmetry_cell_setting	triclinic
loop_
_symmetry_equiv_pos_as_xyz
  x,y,z
_cell_length_a	9.065215
_cell_length_b	11.792241
_cell_length_c	8.140239
_cell_angle_alpha	89.996328
_cell_angle_beta	89.997810
_cell_angle_gamma	84.604057
loop_
_atom_site_label
_atom_site_type_symbol
_atom_site_fract_x
_atom_site_fract_y
_atom_site_fract_z
O1	O	1.958841	0.166414	-0.136595
O2	O	1.529427	0.180069	-0.136603
O3	O	1.754555	0.008129	-0.136587
O4	O	1.733713	0.338354	-0.136611
O5	O	1.754542	0.008127	0.136640
O6	O	1.529415	0.180067	0.136624
O7	O	1.958828	0.166412	0.136632
Zn8	Zn	1.744120	0.173239	0.180009
Zn9	Zn	1.744136	0.173242	-0.179980
O10	O	1.733701	0.338352	0.136616
C11	C	1.474447	0.178756	0.000010
C12	C	1.310640	0.174835	0.000007
C13	C	1.753239	-0.034171	0.000026
C14	C	1.749321	-0.160206	0.000024
C15	C	1.742116	-0.390958	-0.000004
C16	C	1.746119	-0.262551	0.000011
C17	C	2.013809	0.167725	0.000015
C18	C	2.177615	0.171646	0.000007
C19	C	1.735016	0.380652	-0.000000
C20	C	1.738935	0.506687	-0.000009
N21	N	1.744119	0.173237	0.425691
N22	N	1.744148	0.173235	-0.425662
