data_functionalizedCrystal
_audit_creation_method	'MofGen! by Chris Wilmer'
_symmetry_space_group_name_H-M	'P1'
_symmetry_Int_Tables_number	1
_symmetry_cell_setting	triclinic
loop_
_symmetry_equiv_pos_as_xyz
  x,y,z
_cell_length_a	14.044220
_cell_length_b	14.044190
_cell_length_c	13.448316
_cell_angle_alpha	89.988796
_cell_angle_beta	89.998357
_cell_angle_gamma	93.190328
loop_
_atom_site_label
_atom_site_type_symbol
_atom_site_fract_x
_atom_site_fract_y
_atom_site_fract_z
O1	O	1.277177	0.230171	-0.082606
O2	O	1.777177	0.730171	0.417394
O3	O	1.000505	0.221865	-0.082631
O4	O	1.500505	0.721865	0.417369
O5	O	1.134685	0.087682	-0.082599
O6	O	1.634685	0.587682	0.417401
O7	O	1.142997	0.364354	-0.082638
O8	O	1.642997	0.864354	0.417362
O9	O	1.134666	0.087671	0.082785
O10	O	1.634666	0.587671	0.582785
O11	O	1.000486	0.221855	0.082753
O12	O	1.500486	0.721855	0.582753
O13	O	1.277158	0.230160	0.082778
O14	O	1.777158	0.730160	0.582778
Cu15	Cu	1.138820	0.226006	0.097866
Cu16	Cu	1.638820	0.726006	0.597866
Cu17	Cu	1.138843	0.226019	-0.097719
Cu18	Cu	1.638843	0.726019	0.402281
O19	O	1.142978	0.364344	0.082746
O20	O	1.642978	0.864344	0.582746
C21	C	0.964874	0.218224	0.000058
C22	C	1.464874	0.718224	0.500058
C23	C	0.858731	0.207380	0.000050
C24	C	1.358731	0.707380	0.500050
C25	C	1.131039	0.052054	0.000095
C26	C	1.631039	0.552054	0.500095
C27	C	1.120191	-0.054089	0.000103
C28	C	1.620191	0.445911	0.500103
C29	C	1.177292	-0.299547	0.000069
C30	C	1.677292	0.200453	0.500069
C31	C	1.100375	-0.248422	0.000069
C32	C	1.600375	0.251578	0.500069
C33	C	1.111404	-0.140285	0.000088
C34	C	1.611404	0.359715	0.500088
C35	C	1.166265	-0.407694	0.000050
C36	C	1.666265	0.092306	0.500050
C37	C	0.664392	0.187553	0.000072
C38	C	1.164392	0.687553	0.500072
C39	C	0.613264	0.264468	0.000066
C40	C	1.113264	0.764468	0.500066
C41	C	0.505128	0.253436	0.000078
C42	C	1.005128	0.753436	0.500078
C43	C	0.772539	0.198583	0.000060
C44	C	1.272539	0.698583	0.500060
C45	C	1.312789	0.233801	0.000086
C46	C	1.812789	0.733801	0.500086
C47	C	1.418932	0.244646	0.000088
C48	C	1.918932	0.744646	0.500088
C49	C	1.146624	0.399971	0.000049
C50	C	1.646624	0.899971	0.500049
C51	C	1.157472	0.506114	0.000035
C52	C	1.657472	1.006114	0.500035
N53	N	1.138811	0.225998	0.235430
N54	N	1.638811	0.725998	0.735430
N55	N	1.138859	0.226021	-0.235284
N56	N	1.638859	0.726021	0.264716
C57	C	1.198248	0.166610	0.287485
C58	C	1.698248	0.666610	0.787485
C59	C	1.198254	0.166609	0.391588
C60	C	1.698254	0.666609	0.891588
C61	C	1.138827	0.226003	0.443635
C62	C	1.638827	0.726003	0.943635
C63	C	1.079383	0.285393	0.391574
C64	C	1.579383	0.785393	0.891574
C65	C	1.079373	0.285388	0.287472
C66	C	1.579373	0.785388	0.787472
C67	C	1.079410	0.285402	0.608554
C68	C	1.579410	0.785402	1.108554
C69	C	1.079422	0.285409	0.712662
C70	C	1.579422	0.785409	1.212662
C71	C	1.198291	0.166623	0.712669
C72	C	1.698291	0.666623	1.212669
C73	C	1.198281	0.166618	0.608568
C74	C	1.698281	0.666618	1.108568
C75	C	1.138838	0.226010	0.556514
C76	C	1.638838	0.726010	1.056514
H77	H	1.026243	-0.285865	0.000057
H78	H	1.526243	0.214135	0.500057
C79	C	1.263654	0.101282	0.551318
C80	C	1.763654	0.601282	1.051318
N81	N	1.312891	0.052068	0.508198
N82	N	1.812891	0.552068	1.008198
C83	C	0.663844	0.364620	0.000034
C84	C	1.163844	0.864620	0.500034
N85	N	0.701944	0.440052	0.000004
N86	N	1.201944	0.940052	0.500004
C87	C	1.277435	-0.248965	0.000103
C88	C	1.777435	0.251035	0.500103
N89	N	1.352863	-0.210855	0.000136
N90	N	1.852863	0.289145	0.500136
H91	H	0.626954	0.113425	0.000088
H92	H	1.126954	0.613425	0.500088
H93	H	1.246645	0.118249	0.245115
H94	H	1.746645	0.618249	0.745115
C95	C	1.263675	0.101287	0.769931
C96	C	1.763675	0.601287	1.269931
N97	N	1.312922	0.052080	0.813065
N98	N	1.812922	0.552080	1.313065
H99	H	1.246651	0.118250	0.433970
H100	H	1.746651	0.618250	0.933970
C101	C	1.014043	0.350738	0.769912
C102	C	1.514043	0.850738	1.269912
N103	N	0.964797	0.399944	0.813032
N104	N	1.464797	0.899944	1.313032
H105	H	1.031002	0.333762	0.566174
H106	H	1.531002	0.833762	1.066174
C107	C	1.014003	0.350717	0.448829
C108	C	1.514003	0.850717	0.948829
N109	N	0.964757	0.399920	0.491953
N110	N	1.464757	0.899920	0.991953
C111	C	1.013996	0.350728	0.230213
C112	C	1.513996	0.850728	0.730213
N113	N	0.964752	0.399944	0.187087
N114	N	1.464752	0.899944	0.687087
