data_functionalizedCrystal
_audit_creation_method	'MofGen! by Chris Wilmer'
_symmetry_space_group_name_H-M	'P1'
_symmetry_Int_Tables_number	1
_symmetry_cell_setting	triclinic
loop_
_symmetry_equiv_pos_as_xyz
  x,y,z
_cell_length_a	14.853567
_cell_length_b	15.625429
_cell_length_c	13.330367
_cell_angle_alpha	71.918212
_cell_angle_beta	89.995418
_cell_angle_gamma	83.949492
loop_
_atom_site_label
_atom_site_type_symbol
_atom_site_fract_x
_atom_site_fract_y
_atom_site_fract_z
O1	O	1.196370	0.117702	-0.126165
O2	O	0.933910	0.131723	-0.131282
O3	O	1.072150	-0.006515	-0.080986
O4	O	1.058130	0.255941	-0.176461
O5	O	1.072130	-0.006518	0.085862
O6	O	0.933890	0.131720	0.035566
O7	O	1.196350	0.117699	0.040683
Cu8	Cu	1.065118	0.124709	0.053359
Cu9	Cu	1.065142	0.124713	-0.143958
O10	O	1.058110	0.255937	-0.009613
C11	C	0.900312	0.131086	-0.047629
C12	C	0.800228	0.129183	-0.046943
C13	C	0.387693	0.039018	-0.014121
C14	C	0.366414	0.203249	-0.073865
C15	C	0.460447	0.205039	-0.074519
C16	C	0.518109	0.123817	-0.044975
C17	C	0.481736	0.040806	-0.014777
C18	C	0.496827	0.288049	-0.104727
C19	C	0.590866	0.289842	-0.105384
C20	C	0.648529	0.208620	-0.075832
C21	C	0.612151	0.125605	-0.045632
C22	C	0.669813	0.044383	-0.016088
C23	C	0.633437	-0.038633	0.014120
C24	C	0.539399	-0.040417	0.014774
C25	C	0.742567	0.210404	-0.076487
C26	C	0.763855	0.046171	-0.016745
C27	C	1.071504	-0.040105	0.014654
C28	C	1.069599	-0.140187	0.051055
C29	C	1.063364	-0.469338	-0.283936
C30	C	1.061571	-0.563380	-0.249701
C31	C	1.061549	-0.563370	-0.067815
C32	C	1.063347	-0.469327	-0.102035
C33	C	1.064254	-0.422318	-0.210096
C34	C	1.064237	-0.422306	-0.028195
C35	C	1.066030	-0.328271	-0.062412
C36	C	1.066934	-0.281255	-0.170469
C37	C	1.066047	-0.328282	-0.244314
C38	C	1.063324	-0.469316	0.079866
C39	C	1.064213	-0.422296	0.153706
C40	C	1.066013	-0.328259	0.119490
C41	C	1.066917	-0.281243	0.011432
C42	C	1.066900	-0.281232	0.193334
C43	C	1.068693	-0.187196	0.159117
C44	C	1.068710	-0.187208	-0.022785
C45	C	1.229948	0.118336	-0.042972
C46	C	1.330032	0.120240	-0.043665
C47	C	1.058756	0.289527	-0.105255
C48	C	1.060661	0.389610	-0.141662
N49	N	1.065108	0.124706	0.192142
N50	N	1.065159	0.124709	-0.282738
C51	C	1.003927	0.185901	0.642500
C52	C	1.126381	0.063518	0.686995
C53	C	1.126371	0.063515	0.581978
C54	C	1.065139	0.124707	0.507216
C55	C	1.003917	0.185902	0.537472
C56	C	1.187598	0.002328	0.551712
C57	C	1.187591	0.002323	0.446689
C58	C	1.126354	0.063511	0.371926
C59	C	1.065128	0.124708	0.402188
C60	C	1.003896	0.185900	0.327426
C61	C	0.942666	0.247093	0.357687
C62	C	0.942679	0.247090	0.462709
C63	C	1.126340	0.063514	0.266904
C64	C	1.003886	0.185901	0.222398
H65	H	0.810798	-0.019971	0.007318
H66	H	0.680397	-0.104763	0.038167
H67	H	0.892814	0.296920	0.296802
H68	H	0.954020	0.235728	0.161531
H69	H	0.319461	0.269375	-0.097926
C70	C	1.069676	-0.135472	0.240345
N71	N	1.070416	-0.096512	0.301528
C72	C	1.064366	-0.417624	-0.402810
N73	N	1.065118	-0.378673	-0.492342
H74	H	0.892829	0.296912	0.487355
C75	C	0.433396	0.377386	-0.137222
N76	N	0.385614	0.444678	-0.161693
H77	H	0.954071	0.235721	0.667142
H78	H	1.176197	0.013696	0.242268
C79	C	1.063212	-0.474015	0.272571
N80	N	1.062460	-0.512970	0.362103
C81	C	0.782577	0.301716	-0.109715
N82	N	0.812711	0.370496	-0.134741
C83	C	0.499378	-0.131726	0.047992
N84	N	0.469230	-0.200500	0.073007
H85	H	1.176239	0.013701	0.747867
C86	C	1.068908	-0.177812	-0.208109
N87	N	1.070397	-0.099899	-0.236459
H88	H	1.069456	-0.148932	-0.110779
C89	C	1.060548	-0.615090	0.051050
N90	N	1.059796	-0.654044	0.140581
C91	C	1.254938	-0.064997	0.413414
N92	N	1.305661	-0.115706	0.388352
C93	C	0.347679	-0.052295	0.019106
N94	N	0.317539	-0.121073	0.044131
C95	C	0.630871	0.381160	-0.138597
N96	N	0.661004	0.449942	-0.163607
H97	H	1.060838	-0.601660	-0.309840
H98	H	1.066793	-0.290006	-0.332308
H99	H	1.061854	-0.545885	0.107722
H100	H	1.066152	-0.319519	0.281318
C101	C	1.254949	-0.064979	0.633954
N102	N	1.305678	-0.115679	0.695905
