data_functionalizedCrystal
_audit_creation_method	'MofGen! by Chris Wilmer'
_symmetry_space_group_name_H-M	'P1'
_symmetry_Int_Tables_number	1
_symmetry_cell_setting	triclinic
loop_
_symmetry_equiv_pos_as_xyz
  x,y,z
_cell_length_a	10.540535
_cell_length_b	10.540539
_cell_length_c	10.868271
_cell_angle_alpha	89.997005
_cell_angle_beta	89.998076
_cell_angle_gamma	84.524567
loop_
_atom_site_label
_atom_site_type_symbol
_atom_site_fract_x
_atom_site_fract_y
_atom_site_fract_z
O1	O	1.685890	0.178874	-0.102249
O2	O	1.316476	0.195736	-0.102265
O3	O	1.509611	0.002598	-0.102255
O4	O	1.492755	0.372011	-0.102259
O5	O	1.509595	0.002590	0.102390
O6	O	1.316460	0.195728	0.102379
O7	O	1.685874	0.178866	0.102396
Zn8	Zn	1.501165	0.187296	0.134879
Zn9	Zn	1.501186	0.187306	-0.134749
O10	O	1.492739	0.372004	0.102386
C11	C	1.269165	0.194469	0.000055
C12	C	1.128217	0.190689	0.000048
C13	C	1.091546	0.049675	0.000055
C14	C	0.944946	0.045698	0.000531
C15	C	0.918872	0.255055	0.116697
C16	C	1.065637	0.258056	0.116783
C17	C	1.065539	0.260116	-0.115945
C18	C	0.919193	0.253594	-0.117465
C19	C	1.508339	-0.044709	0.000065
C20	C	1.504557	-0.185657	0.000058
C21	C	1.359640	-0.369081	-0.000408
C22	C	1.363474	-0.222463	0.000053
C23	C	1.572444	-0.247320	0.116923
C24	C	1.567629	-0.393864	0.117022
C25	C	1.570517	-0.394374	-0.115697
C26	C	1.571816	-0.247392	-0.117242
C27	C	1.733185	0.180133	0.000073
C28	C	1.874134	0.183913	0.000072
C29	C	1.494011	0.419311	0.000063
C30	C	1.497793	0.560259	0.000062
N31	N	1.501160	0.187288	0.318894
N32	N	1.501201	0.187304	-0.318763
C33	C	1.501179	0.187303	0.569900
C34	C	1.501164	0.187299	0.430222
H35	H	1.310056	-0.179856	-0.083721
H36	H	1.309669	-0.180709	0.083962
H37	H	0.887963	0.206239	0.203825
O38	O	0.885279	0.191787	-0.220445
C39	C	0.956762	0.080169	-0.405011
C40	C	0.995369	0.150094	-0.288417
H41	H	1.045744	0.046464	-0.460012
H42	H	0.904717	-0.005532	-0.377684
H43	H	0.891217	0.147897	-0.463699
H44	H	1.060954	0.082467	-0.229676
H45	H	1.047345	0.235812	-0.315830
H46	H	1.134998	-0.003572	0.083567
O47	O	1.507672	-0.427293	0.221262
C48	C	1.403820	-0.355377	0.409648
C49	C	1.471676	-0.317349	0.291633
H50	H	1.374721	-0.266512	0.466588
H51	H	1.315336	-0.403902	0.384095
H52	H	1.471258	-0.423896	0.465672
H53	H	1.404339	-0.248791	0.235554
H54	H	1.560177	-0.268893	0.317271
H55	H	1.303915	-0.397677	-0.084214
H56	H	1.676051	-0.224968	0.121273
H57	H	1.105802	0.210004	0.204298
H58	H	1.524862	-0.425923	-0.204274
H59	H	0.870145	0.354468	-0.124871
H60	H	1.669094	-0.441835	0.122328
H61	H	1.672421	-0.441601	-0.116479
O62	O	1.141410	-0.014918	-0.099798
C63	C	1.098701	-0.130802	-0.283972
C64	C	1.042047	-0.057657	-0.170954
H65	H	1.018395	-0.165400	-0.341519
H66	H	1.154509	-0.065083	-0.341881
H67	H	1.165162	-0.216156	-0.252129
H68	H	0.975532	0.027697	-0.202687
H69	H	0.986316	-0.123462	-0.113069
H70	H	1.108005	0.216117	-0.204373
O71	O	1.516355	-0.196395	0.220711
C72	C	1.543294	-0.080208	0.408364
C73	C	1.606976	-0.137790	0.290866
H74	H	1.616539	-0.032835	0.465130
H75	H	1.461776	-0.006231	0.382142
H76	H	1.504433	-0.159021	0.464849
H77	H	1.645915	-0.059066	0.234327
H78	H	1.688435	-0.211798	0.317173
H79	H	1.087724	0.363867	-0.117074
O80	O	0.911194	-0.020335	0.100951
C81	C	0.982717	-0.136815	0.282834
C82	C	1.021113	-0.062038	0.169165
H83	H	1.071567	-0.170577	0.338003
H84	H	0.915095	-0.072510	0.342775
H85	H	0.933058	-0.222802	0.251820
H86	H	1.070823	0.023951	0.200069
H87	H	1.088677	-0.126432	0.109250
H88	H	1.522144	-0.206529	-0.203696
O89	O	1.092901	0.381441	0.122779
C90	C	1.009577	0.602143	0.133400
C91	C	0.978529	0.462469	0.126627
H92	H	0.917127	0.667694	0.136487
H93	H	1.067698	0.616695	0.219854
H94	H	1.066908	0.625442	0.048775
H95	H	0.921158	0.439075	0.211189
H96	H	0.920468	0.447989	0.040119
H97	H	1.674677	-0.223172	-0.124295
H98	H	0.871515	0.356820	0.120704
H99	H	0.915615	-0.009940	-0.083053
H100	H	1.304129	-0.399291	0.082924
