data_functionalizedCrystal
_audit_creation_method	'MofGen! by Chris Wilmer'
_symmetry_space_group_name_H-M	'P1'
_symmetry_Int_Tables_number	1
_symmetry_cell_setting	triclinic
loop_
_symmetry_equiv_pos_as_xyz
  x,y,z
_cell_length_a	19.188930
_cell_length_b	17.666332
_cell_length_c	9.065218
_cell_angle_alpha	89.996704
_cell_angle_beta	95.919667
_cell_angle_gamma	90.023133
loop_
_atom_site_label
_atom_site_type_symbol
_atom_site_fract_x
_atom_site_fract_y
_atom_site_fract_z
O1	O	0.927581	0.063189	-0.184176
O2	O	1.427581	0.563189	0.315824
O3	O	0.724462	0.063137	-0.208969
O4	O	1.224462	0.563137	0.291031
O5	O	0.830220	0.063163	0.018215
O6	O	1.330220	0.563163	0.518215
O7	O	0.821823	0.063163	-0.411361
O8	O	1.321823	0.563163	0.088639
O9	O	0.830201	-0.062734	0.018222
O10	O	1.330201	0.437266	0.518222
O11	O	0.724443	-0.062760	-0.208963
O12	O	1.224443	0.437240	0.291037
O13	O	0.927562	-0.062708	-0.184170
O14	O	1.427562	0.437292	0.315830
Cu15	Cu	0.826001	-0.074229	-0.196566
Cu16	Cu	1.326001	0.425771	0.303434
Cu17	Cu	0.826023	0.074658	-0.196573
Cu18	Cu	1.326023	0.574658	0.303427
O19	O	0.821804	-0.062733	-0.411354
O20	O	1.321804	0.437267	0.088646
C21	C	0.698435	0.000182	-0.208163
C22	C	1.198435	0.500182	0.291837
C23	C	0.620912	0.000162	-0.205753
C24	C	1.120912	0.500162	0.294247
N25	N	0.825990	-0.178949	-0.196559
N26	N	1.325990	0.321051	0.303441
C27	C	0.577024	0.000174	-0.339058
C28	C	1.077024	0.500174	0.160942
C29	C	0.504182	0.000182	-0.336793
C30	C	1.004182	0.500182	0.163207
C31	C	0.475232	0.000194	-0.201217
C32	C	0.975232	0.500194	0.298783
C33	C	0.519130	0.000177	-0.067895
C34	C	1.019130	0.500177	0.432105
C35	C	0.591970	0.000161	-0.070163
C36	C	1.091970	0.500161	0.429837
N37	N	0.366453	0.043072	-0.097588
N38	N	0.866453	0.543072	0.402412
N39	N	0.297258	0.043089	-0.095442
N40	N	0.797258	0.543089	0.404558
C41	C	0.255771	0.000240	-0.194375
C42	C	0.755771	0.500240	0.305625
N43	N	0.286091	-0.042617	-0.295557
N44	N	0.786091	0.457383	0.204443
N45	N	0.355292	-0.042630	-0.297707
N46	N	0.855292	0.457370	0.202293
C47	C	0.396251	0.000211	-0.198742
C48	C	0.896251	0.500211	0.301258
C49	C	0.132899	0.000260	-0.325234
C50	C	0.632899	0.500260	0.174766
C51	C	0.060056	0.000264	-0.322964
C52	C	0.560056	0.500264	0.177036
C53	C	0.075006	0.000266	-0.054061
C54	C	0.575006	0.500266	0.445939
C55	C	0.147847	0.000255	-0.056335
C56	C	0.647847	0.500255	0.443665
C57	C	0.176789	0.000256	-0.191925
C58	C	0.676789	0.500256	0.308075
C59	C	0.868892	-0.218540	-0.285820
C60	C	1.368892	0.281460	0.214180
C61	C	0.868903	-0.297788	-0.285815
C62	C	1.368903	0.202212	0.214185
C63	C	0.825999	-0.337441	-0.196568
C64	C	1.325999	0.162559	0.303432
C65	C	0.783094	-0.297840	-0.107289
C66	C	1.283094	0.202160	0.392711
C67	C	0.783089	-0.218593	-0.107285
C68	C	1.283089	0.281407	0.392715
N69	N	0.764823	-0.461896	-0.192933
N70	N	1.264823	0.038104	0.307067
N71	N	0.764829	-0.537176	-0.192946
N72	N	1.264829	-0.037176	0.307054
C73	C	0.826012	-0.576205	-0.196573
C74	C	1.326012	-0.076205	0.303427
N75	N	0.887189	-0.537109	-0.200216
N76	N	1.387189	-0.037109	0.299784
N77	N	0.887182	-0.461821	-0.200211
N78	N	1.387182	0.038179	0.299789
C79	C	0.826000	-0.423370	-0.196562
C80	C	1.326000	0.076630	0.303438
C81	C	0.868930	-0.701726	-0.285833
C82	C	1.368930	-0.201726	0.214167
C83	C	0.868943	-0.780975	-0.285818
C84	C	1.368943	-0.280975	0.214182
C85	C	0.783127	-0.781025	-0.107301
C86	C	1.283127	-0.281025	0.392699
C87	C	0.783121	-0.701777	-0.107307
C88	C	1.283121	-0.201777	0.392693
C89	C	0.826021	-0.662133	-0.196581
C90	C	1.326021	-0.162133	0.303419
C91	C	0.953588	0.000249	-0.184976
C92	C	1.453588	0.500249	0.315024
C93	C	1.031112	0.000274	-0.187386
C94	C	1.531112	0.500274	0.312614
C95	C	0.829403	0.000215	0.073177
C96	C	1.329403	0.500215	0.573177
C97	C	0.826990	0.000218	0.236936
C98	C	1.326990	0.500218	0.736936
N99	N	0.826039	0.179378	-0.196568
N100	N	1.326039	0.679378	0.303432
C101	C	0.822620	0.000216	-0.466316
C102	C	1.322620	0.500216	0.033684
C103	C	0.825033	0.000218	-0.630075
C104	C	1.325033	0.500218	-0.130075
H105	H	0.468442	0.000190	-0.445349
H106	H	0.968442	0.500190	0.054651
O107	O	0.910721	-0.819352	-0.372445
O108	O	1.410721	-0.319352	0.127555
C109	C	0.981326	-0.799962	-0.331191
C110	C	1.481326	-0.299962	0.168809
H111	H	0.983959	-0.742425	-0.273957
H112	H	1.483959	-0.242425	0.226043
H113	H	1.010563	-0.797229	-0.434340
H114	H	1.510563	-0.297229	0.065660
H115	H	1.006550	-0.844551	-0.251919
H116	H	1.506550	-0.344551	0.248081
H117	H	0.748162	-0.330130	-0.034622
H118	H	1.248162	0.169870	0.465378
O119	O	0.910568	-0.663292	-0.372746
O120	O	1.410568	-0.163292	0.127254
C121	C	0.892160	-0.682647	-0.522594
C122	C	1.392160	-0.182647	-0.022594
H123	H	0.865130	-0.740200	-0.529071
H124	H	1.365130	-0.240200	-0.029071
H125	H	0.941422	-0.685327	-0.582754
H126	H	1.441422	-0.185327	-0.082754
H127	H	0.855045	-0.638065	-0.577126
H128	H	1.355045	-0.138065	-0.077126
H129	H	0.156464	0.000249	-0.435639
H130	H	0.656464	0.500249	0.064361
H131	H	0.748194	-0.813309	-0.034632
H132	H	1.248194	-0.313309	0.465368
H133	H	0.024323	0.000269	-0.431521
H134	H	0.524323	0.500269	0.068479
O135	O	0.910603	-0.179944	-0.372321
O136	O	1.410603	0.320056	0.127679
C137	C	0.957685	-0.134098	-0.282122
C138	C	1.457685	0.365902	0.217878
H139	H	0.935275	-0.122245	-0.172766
H140	H	1.435275	0.377755	0.327234
H141	H	0.965826	-0.078363	-0.341385
H142	H	1.465826	0.421637	0.158615
H143	H	1.010025	-0.164610	-0.259280
H144	H	1.510025	0.335390	0.240720
O145	O	0.741364	-0.180050	-0.020799
O146	O	1.241364	0.319950	0.479201
C147	C	0.694277	-0.134254	-0.111018
C148	C	1.194277	0.365746	0.388982
H149	H	0.716697	-0.122366	-0.220361
H150	H	1.216697	0.377634	0.279639
H151	H	0.686114	-0.078535	-0.051760
H152	H	1.186114	0.421465	0.448240
H153	H	0.641947	-0.164829	-0.133885
H154	H	1.141947	0.335171	0.366115
H155	H	0.748182	-0.669541	-0.034628
H156	H	1.248182	-0.169541	0.465372
H157	H	0.600583	0.000176	-0.449466
H158	H	1.100583	0.500176	0.050534
O159	O	0.491127	0.000158	0.063934
O160	O	0.991127	0.500158	0.563934
C161	C	0.545488	0.000165	0.181111
C162	C	1.045488	0.500165	0.681111
H163	H	0.595206	-0.023684	0.140082
H164	H	1.095206	0.476316	0.640082
H165	H	0.529647	-0.036379	0.275801
H166	H	1.029647	0.463621	0.775801
H167	H	0.555569	0.060563	0.222204
H168	H	1.055569	0.560563	0.722204
H169	H	0.051436	0.000322	0.056328
H170	H	0.551436	0.500322	0.556328
O171	O	0.190384	0.000285	0.073295
O172	O	0.690384	0.500285	0.573295
C173	C	0.149215	0.000277	0.193448
C174	C	0.649215	0.500277	0.693448
H175	H	0.095115	0.024123	0.155649
H176	H	0.595115	0.524123	0.655649
H177	H	0.175509	0.036825	0.286820
H178	H	0.675509	0.536825	0.786820
H179	H	0.143734	-0.060120	0.235032
H180	H	0.643734	0.439880	0.735032
H181	H	0.627705	0.000152	0.038393
H182	H	1.127705	0.500152	0.538393
H183	H	0.903840	-0.330030	-0.358506
H184	H	1.403840	0.169970	0.141494
