data_functionalizedCrystal
_audit_creation_method	'MofGen! by Chris Wilmer'
_symmetry_space_group_name_H-M	'P1'
_symmetry_Int_Tables_number	1
_symmetry_cell_setting	triclinic
loop_
_symmetry_equiv_pos_as_xyz
  x,y,z
_cell_length_a	10.654550
_cell_length_b	16.109301
_cell_length_c	9.130313
_cell_angle_alpha	89.994060
_cell_angle_beta	89.999724
_cell_angle_gamma	83.973206
loop_
_atom_site_label
_atom_site_type_symbol
_atom_site_fract_x
_atom_site_fract_y
_atom_site_fract_z
O1	O	1.666255	0.116774	-0.121695
O2	O	1.300626	0.127899	-0.121723
O3	O	1.493485	0.001365	-0.121693
O4	O	1.473396	0.243308	-0.121725
O5	O	1.493472	0.001362	0.121906
O6	O	1.300613	0.127896	0.121876
O7	O	1.666242	0.116770	0.121904
Cu8	Cu	1.483426	0.122333	0.144132
Cu9	Cu	1.483442	0.122337	-0.143951
O10	O	1.473383	0.243304	0.121874
C11	C	1.253832	0.127081	0.000073
C12	C	1.114422	0.124637	0.000063
C13	C	1.033926	0.199138	0.000058
C14	C	0.902936	0.196836	0.000084
C15	C	0.932952	0.045526	0.000114
C16	C	1.063939	0.047828	0.000099
C17	C	1.492664	-0.029616	0.000107
C18	C	1.490225	-0.121926	0.000109
C19	C	1.598991	-0.343552	0.000094
C20	C	1.596689	-0.430286	0.000081
C21	C	1.367868	-0.411772	0.000070
C22	C	1.370172	-0.325039	0.000072
C23	C	1.485737	-0.290932	0.000091
C24	C	1.481131	-0.464398	0.000077
C25	C	1.478634	-0.558439	0.000064
C26	C	1.488234	-0.196885	0.000101
C27	C	1.713036	0.117589	0.000104
C28	C	1.852446	0.120033	0.000105
C29	C	1.474203	0.274286	0.000071
C30	C	1.476643	0.366596	0.000059
N31	N	1.483424	0.122329	0.346755
N32	N	1.483453	0.122334	-0.346574
C33	C	1.568851	0.066324	0.423420
C34	C	1.568863	0.066324	0.576757
C35	C	1.398018	0.178342	0.576750
C36	C	1.398001	0.178337	0.423416
H37	H	1.075024	0.261680	0.000040
H38	H	1.328430	0.223944	0.360992
H39	H	0.837401	0.257503	0.000082
C40	C	1.661757	0.005483	0.659728
C41	C	1.736578	-0.043551	0.559766
C42	C	1.822178	-0.099603	0.636144
H43	H	1.616758	-0.029486	0.719564
H44	H	1.714088	0.035695	0.719498
H45	H	1.684253	-0.073761	0.500021
H46	H	1.781604	-0.008605	0.499927
H47	H	1.874510	-0.069390	0.695914
H48	H	1.777169	-0.134565	0.695977
H49	H	1.872962	-0.132873	0.568332
H50	H	0.891833	-0.017009	0.000152
C51	C	1.305081	0.239054	0.659914
C52	C	1.181686	0.224791	0.622672
C53	C	1.096039	0.280696	0.699266
H54	H	1.318512	0.294663	0.634831
H55	H	1.317244	0.231031	0.762228
H56	H	1.169528	0.232820	0.520381
H57	H	1.168215	0.169193	0.647759
H58	H	1.108202	0.272673	0.801580
H59	H	1.109482	0.336301	0.674177
H60	H	1.012307	0.271021	0.674018
H61	H	1.693091	-0.315784	0.000106
C62	C	1.151285	-0.033091	-0.000200
C63	C	1.128495	-0.079286	-0.125533
C64	C	1.208945	-0.153823	-0.125861
H65	H	1.136066	-0.064652	0.084657
H66	H	1.236544	-0.020753	-0.000288
H67	H	1.043256	-0.091626	-0.125431
H68	H	1.143722	-0.047749	-0.210410
H69	H	1.294204	-0.141485	-0.125950
H70	H	1.193719	-0.185377	-0.040999
H71	H	1.193501	-0.185172	-0.210904
C72	C	1.719788	-0.487277	0.000164
C73	C	1.821481	-0.438839	0.000217
C74	C	1.934904	-0.491310	0.000310
H75	H	1.723832	-0.521507	-0.084764
H76	H	1.723711	-0.521491	0.085144
H77	H	1.817560	-0.404639	-0.084754
H78	H	1.817478	-0.404610	0.085138
H79	H	1.938826	-0.525524	0.085290
H80	H	1.938934	-0.525537	-0.084619
H81	H	2.003915	-0.458452	0.000360
C82	C	1.242531	-0.448966	0.000140
C83	C	1.264750	-0.536185	0.000183
C84	C	1.149317	-0.570474	0.000273
H85	H	1.195802	-0.431037	-0.084785
H86	H	1.195889	-0.430999	0.085122
H87	H	1.311372	-0.554145	-0.084791
H88	H	1.311459	-0.554137	0.085102
H89	H	1.102675	-0.552507	0.085255
H90	H	1.102598	-0.552539	-0.084654
H91	H	1.164377	-0.629655	0.000315
H92	H	1.277941	-0.282194	0.000065
H93	H	1.638406	0.020717	0.361006
