data_functionalizedCrystal
_audit_creation_method	'MofGen! by Chris Wilmer'
_symmetry_space_group_name_H-M	'P1'
_symmetry_Int_Tables_number	1
_symmetry_cell_setting	triclinic
loop_
_symmetry_equiv_pos_as_xyz
  x,y,z
_cell_length_a	9.065218
_cell_length_b	9.065215
_cell_length_c	8.140239
_cell_angle_alpha	89.997619
_cell_angle_beta	90.002802
_cell_angle_gamma	94.984709
loop_
_atom_site_label
_atom_site_type_symbol
_atom_site_fract_x
_atom_site_fract_y
_atom_site_fract_z
O1	O	-1.960396	0.216355	-0.136613
O2	O	-1.627062	0.549688	0.196720
O3	O	-1.293729	0.883021	0.530053
O4	O	-1.531111	0.234101	-0.136615
O5	O	-1.197777	0.567435	0.196718
O6	O	-0.864444	0.900768	0.530051
O7	O	-1.754629	0.010585	-0.136608
O8	O	-1.421295	0.343919	0.196725
O9	O	-1.087962	0.677252	0.530059
O10	O	-1.736878	0.439871	-0.136621
O11	O	-1.403544	0.773204	0.196713
O12	O	-1.070211	1.106537	0.530046
O13	O	-1.754616	0.010583	0.136619
O14	O	-1.421283	0.343916	0.469952
O15	O	-1.087950	0.677249	0.803286
O16	O	-1.531098	0.234099	0.136612
O17	O	-1.197765	0.567432	0.469945
O18	O	-0.864432	0.900765	0.803279
O19	O	-1.960383	0.216352	0.136614
O20	O	-1.627050	0.549685	0.469947
O21	O	-1.293717	0.883019	0.803280
Zn22	Zn	-1.745739	0.225225	0.179994
Zn23	Zn	-1.412405	0.558558	0.513327
Zn24	Zn	-1.079072	0.891892	0.846660
Zn25	Zn	-1.745755	0.225228	-0.179995
Zn26	Zn	-1.412422	0.558562	0.153338
Zn27	Zn	-1.079089	0.891895	0.486672
O28	O	-1.736865	0.439868	0.136607
O29	O	-1.403532	0.773201	0.469940
O30	O	-1.070199	1.106535	0.803273
C31	C	-1.476118	0.232394	-0.000002
C32	C	-1.142785	0.565728	0.333331
C33	C	-0.809451	0.899061	0.666665
C34	C	-1.312275	0.227295	-0.000003
C35	C	-0.978942	0.560628	0.333331
C36	C	-0.645608	0.893961	0.666664
C37	C	-1.752917	-0.044403	0.000004
C38	C	-1.419584	0.288931	0.333337
C39	C	-1.086251	0.622264	0.666670
C40	C	-1.747819	-0.208246	-0.000002
C41	C	-1.414486	0.125088	0.333331
C42	C	-1.081153	0.458421	0.666665
C43	C	-2.015376	0.218059	-0.000003
C44	C	-1.682043	0.551392	0.333330
C45	C	-1.348709	0.884726	0.666664
C46	C	-2.179219	0.223159	-0.000013
C47	C	-1.845886	0.556492	0.333320
C48	C	-1.512552	0.889825	0.666654
C49	C	-1.738576	0.494856	-0.000009
C50	C	-1.405243	0.828189	0.333325
C51	C	-1.071910	1.161523	0.666658
C52	C	-1.743674	0.658699	-0.000014
C53	C	-1.410341	0.992033	0.333320
C54	C	-1.077008	1.325366	0.666653
N55	N	-1.745738	0.225222	0.425676
N56	N	-1.412405	0.558555	0.759009
N57	N	-1.079072	0.891888	1.092343
N58	N	-1.745767	0.225220	-0.425678
N59	N	-1.412434	0.558554	-0.092344
N60	N	-1.079101	0.891887	0.240989
