data_functionalizedCrystal
_audit_creation_method	'MofGen! by Chris Wilmer'
_symmetry_space_group_name_H-M	'P1'
_symmetry_Int_Tables_number	1
_symmetry_cell_setting	triclinic
loop_
_symmetry_equiv_pos_as_xyz
  x,y,z
_cell_length_a	13.635800
_cell_length_b	19.551136
_cell_length_c	11.102300
_cell_angle_alpha	85.463034
_cell_angle_beta	108.605850
_cell_angle_gamma	78.349158
loop_
_atom_site_label
_atom_site_type_symbol
_atom_site_fract_x
_atom_site_fract_y
_atom_site_fract_z
V1	V	2.038242	-0.096676	0.396882
O2	O	2.036123	0.004646	0.388683
O3	O	2.009409	-0.191693	0.394787
O4	O	2.026902	-0.095189	0.569694
O5	O	2.018509	-0.092526	0.212566
V6	V	2.278990	-0.084557	0.374761
O7	O	2.171095	-0.123261	0.445406
O8	O	2.371237	-0.057972	0.326237
O9	O	2.196220	0.010460	0.376856
O10	O	2.339808	-0.185879	0.382960
O11	O	2.357422	-0.088707	0.559078
O12	O	2.178727	-0.086044	0.201950
V13	V	2.538242	-0.096676	0.396882
O14	O	2.536123	0.004646	0.388683
O15	O	2.509409	-0.191693	0.394787
O16	O	2.526902	-0.095189	0.569694
O17	O	2.518509	-0.092526	0.212566
V18	V	2.778990	-0.084557	0.374761
O19	O	2.671095	-0.123261	0.445406
O20	O	2.871237	-0.057972	0.326237
O21	O	2.696220	0.010460	0.376856
O22	O	2.839808	-0.185879	0.382960
O23	O	2.857422	-0.088707	0.559078
O24	O	2.678727	-0.086044	0.201950
C25	C	1.930366	-0.214856	0.388686
C26	C	1.947521	-0.292534	0.388125
C27	C	1.927304	-0.319024	0.271396
C28	C	1.943455	-0.392009	0.270829
C29	C	1.979804	-0.438500	0.386998
C30	C	2.000028	-0.412002	0.503744
C31	C	1.983886	-0.339019	0.504307
C32	C	1.968327	-0.559511	0.471230
C33	C	1.984461	-0.632491	0.470661
C34	C	2.029595	-0.663604	0.385265
C35	C	2.058575	-0.621724	0.300416
C36	C	2.042434	-0.548741	0.300980
C37	C	1.997310	-0.517638	0.386400
C38	C	2.026891	-0.769232	0.267914
C39	C	2.043050	-0.842218	0.267353
C40	C	2.099613	-0.862210	0.500270
C41	C	2.083464	-0.789225	0.500828
C42	C	2.047098	-0.742740	0.384646
C43	C	1.952680	-0.091755	0.611795
C44	C	1.984020	-0.091168	0.753073
C45	C	2.106934	0.033619	0.382954
C46	C	2.079399	0.111296	0.383523
C47	C	2.084620	-0.089481	0.159842
C48	C	2.042900	-0.090064	0.018562
C49	C	2.430366	-0.214856	0.388686
C50	C	2.447521	-0.292534	0.388125
C51	C	2.452680	-0.091755	0.611795
C52	C	2.484020	-0.091168	0.753073
C53	C	2.090116	-0.094382	0.825943
C54	C	2.119556	-0.093828	0.958688
C55	C	1.936794	-0.086848	0.945682
C56	C	1.907354	-0.087397	0.812938
C57	C	2.606934	0.033619	0.382954
C58	C	2.579399	0.111296	0.383523
C59	C	2.584620	-0.089481	0.159842
C60	C	2.542900	-0.090064	0.018562
C61	C	2.546948	-0.332575	0.394235
C62	C	2.563085	-0.405563	0.393727
C63	C	2.479791	-0.438509	0.387101
C64	C	2.380357	-0.398462	0.380995
C65	C	2.364223	-0.325476	0.381511
C66	C	2.652466	0.151337	0.377417
C67	C	2.626601	0.224324	0.377931
C68	C	2.527672	0.257270	0.384560
C69	C	2.454599	0.217224	0.390663
C70	C	2.480462	0.144238	0.390140
C71	C	2.590116	-0.094382	0.825943
C72	C	2.619556	-0.093828	0.958688
C73	C	2.436794	-0.086848	0.945682
C74	C	2.407354	-0.087397	0.812938
H75	H	1.897700	-0.281180	0.176791
H76	H	2.506626	0.316700	0.384984
Cl77	Cl	2.776841	0.109936	0.369081
Cl78	Cl	2.045729	-0.470447	0.649785
H79	H	2.312544	-0.425298	0.375600
Cl80	Cl	1.840425	-0.082118	1.020953
H81	H	2.095317	-0.647052	0.230871
H82	H	2.320953	-0.084775	0.753604
H83	H	1.960860	-0.666584	0.539747
Cl84	Cl	1.918033	-0.425319	0.124072
H85	H	2.420960	0.111641	0.395123
Cl86	Cl	2.108871	-0.755920	0.647582
Cl87	Cl	2.688093	-0.455891	0.401396
H88	H	2.705947	-0.096444	1.018013
H89	H	2.652544	-0.097451	0.777205
H90	H	2.066033	-0.514645	0.231895
Cl91	Cl	2.252939	-0.097868	1.050290
Cl92	Cl	2.340425	-0.082118	1.020953
H93	H	1.997279	-0.731381	0.173312
Cl94	Cl	2.017644	-0.875520	0.120594
Cl95	Cl	2.239215	-0.275146	0.373818
Cl96	Cl	2.145319	-0.920649	0.646314
H97	H	2.614780	-0.305760	0.399622
H98	H	2.374050	0.244059	0.396059
Cl99	Cl	1.911593	-0.520407	0.578602
H100	H	2.686113	0.256920	0.372963
H101	H	1.820953	-0.084775	0.753604
H102	H	2.000354	-0.317453	0.599365
H103	H	2.152544	-0.097451	0.777205
H104	H	2.492943	-0.497939	0.386681
