data_functionalizedCrystal
_audit_creation_method	'MofGen! by Chris Wilmer'
_symmetry_space_group_name_H-M	'P1'
_symmetry_Int_Tables_number	1
_symmetry_cell_setting	triclinic
loop_
_symmetry_equiv_pos_as_xyz
  x,y,z
_cell_length_a	10.654551
_cell_length_b	10.540535
_cell_length_c	9.016244
_cell_angle_alpha	89.999214
_cell_angle_beta	90.000100
_cell_angle_gamma	84.504502
loop_
_atom_site_label
_atom_site_type_symbol
_atom_site_fract_x
_atom_site_fract_y
_atom_site_fract_z
O1	O	0.176962	1.685823	0.123249
O2	O	0.193644	1.316403	0.123269
O3	O	0.002567	1.509606	0.123259
O4	O	0.368039	1.492620	0.123259
O5	O	0.002566	1.509599	-0.123422
O6	O	0.193644	1.316396	-0.123412
O7	O	0.176962	1.685816	-0.123432
Cu8	Cu	0.185303	1.501105	-0.145946
Cu9	Cu	0.185303	1.501113	0.145783
O10	O	0.368039	1.492613	-0.123422
C11	C	0.192394	1.269097	-0.000069
C12	C	0.188655	1.128150	-0.000061
C13	C	-0.044232	1.508355	-0.000078
C14	C	-0.183676	1.504623	-0.000068
C15	C	0.049145	1.091529	-0.000067
C16	C	0.045210	0.944930	-0.000641
C17	C	0.252338	0.918787	-0.140671
C18	C	0.255307	1.065552	-0.140775
C19	C	0.257337	1.065443	0.139757
C20	C	0.250885	0.919099	0.141590
C21	C	-0.249188	1.502875	0.134396
C22	C	-0.380210	1.499358	0.134389
C23	C	-0.380196	1.499340	-0.134556
C24	C	-0.249176	1.502848	-0.134548
C25	C	-0.249198	1.502891	0.289669
C26	C	-0.380220	1.499373	0.289662
C27	C	0.414838	1.493864	-0.000082
C28	C	0.554282	1.497596	-0.000082
C29	C	0.178212	1.733122	-0.000091
C30	C	0.181951	1.874069	-0.000089
N31	N	0.185302	1.501109	-0.351132
N32	N	0.185294	1.501120	0.350969
C33	C	0.082950	1.604369	0.585950
C34	C	0.083215	1.604748	0.414059
C35	C	0.316695	1.530865	0.413366
C36	C	0.316099	1.531602	0.585311
C37	C	0.157427	1.367802	0.585506
C38	C	0.154453	1.368669	0.413550
H39	H	-0.009837	0.915614	0.100114
Cl40	Cl	0.272636	1.249146	0.648328
H41	H	0.057783	1.346117	0.372770
Cl42	Cl	-0.203491	1.645834	0.364049
H43	H	0.350682	0.870015	0.150516
H44	H	-0.202947	1.415167	0.349298
Cl45	Cl	0.437215	1.417890	0.350281
Cl46	Cl	-0.451654	1.634820	0.381684
Cl47	Cl	-0.033576	1.156359	0.155561
Cl48	Cl	-0.032188	1.158642	-0.155488
H49	H	0.341583	1.627005	0.370293
Cl50	Cl	0.415828	1.099581	0.141817
Cl51	Cl	-0.166816	1.505003	-0.303594
H52	H	-0.433541	1.497893	-0.244045
H53	H	-0.409818	1.406791	0.337861
H54	H	-0.014412	1.586916	0.371871
H55	H	-0.014992	1.586832	0.627339
H56	H	0.224054	1.288163	0.370610
H57	H	0.100653	1.702716	0.629171
Cl58	Cl	0.110960	1.757453	0.350527
H59	H	0.340434	1.628846	0.625407
Cl60	Cl	0.438135	1.420879	0.649575
Cl61	Cl	0.012532	1.323985	0.652462
H62	H	0.207771	1.105737	-0.246265
Cl63	Cl	-0.039336	0.901014	-0.157171
H64	H	0.353018	0.871395	-0.145503
Cl65	Cl	0.413202	1.101060	-0.150035
H66	H	0.204047	0.887900	-0.245696
Cl67	Cl	0.190124	1.131019	0.304331
H68	H	0.199662	0.890517	0.245595
