data_functionalizedCrystal
_audit_creation_method	'MofGen! by Chris Wilmer'
_symmetry_space_group_name_H-M	'P1'
_symmetry_Int_Tables_number	1
_symmetry_cell_setting	triclinic
loop_
_symmetry_equiv_pos_as_xyz
  x,y,z
_cell_length_a	16.625548
_cell_length_b	12.594516
_cell_length_c	16.625539
_cell_angle_alpha	89.974997
_cell_angle_beta	89.979432
_cell_angle_gamma	90.012884
loop_
_atom_site_label
_atom_site_type_symbol
_atom_site_fract_x
_atom_site_fract_y
_atom_site_fract_z
Zn1	Zn	1.232740	-0.423710	-0.455928
Zn2	Zn	1.732740	0.076290	0.044072
Zn3	Zn	1.232668	-0.601711	-0.321103
Zn4	Zn	1.732668	-0.101711	0.178897
Zn5	Zn	1.097902	-0.423750	-0.321108
Zn6	Zn	1.597902	0.076250	0.178892
Zn7	Zn	1.097897	-0.601650	-0.455893
Zn8	Zn	1.597897	-0.101650	0.044107
O9	O	1.165302	-0.512705	-0.388508
O10	O	1.665302	-0.012705	0.111492
O11	O	1.345563	-0.447331	-0.438055
O12	O	1.845563	0.052669	0.061945
O13	O	1.214763	-0.578147	-0.208271
O14	O	1.714763	-0.078147	0.291729
O15	O	1.115820	-0.274799	-0.339010
O16	O	1.615820	0.225201	0.160990
O17	O	1.345510	-0.578107	-0.339000
O18	O	1.845510	-0.078107	0.161000
O19	O	1.214885	-0.274769	-0.438061
O20	O	1.714885	0.225231	0.061939
O21	O	1.115751	-0.447400	-0.208275
O22	O	1.615751	0.052600	0.291725
O23	O	0.985069	-0.447341	-0.338975
O24	O	1.485069	0.052659	0.161025
O25	O	1.115813	-0.578003	-0.568730
O26	O	1.615813	-0.078003	-0.068730
O27	O	0.985066	-0.578043	-0.438001
O28	O	1.485066	-0.078043	0.061999
O29	O	1.214881	-0.447271	-0.568756
O30	O	1.714881	0.052729	-0.068756
O31	O	1.214759	-0.750649	-0.338966
O32	O	1.714759	-0.250649	0.161034
O33	O	1.115743	-0.750604	-0.437996
O34	O	1.615743	-0.250604	0.062004
C35	C	0.955811	-0.512690	-0.388485
C36	C	1.455811	-0.012690	0.111515
C37	C	0.866190	-0.512709	-0.388495
C38	C	1.366190	-0.012709	0.111505
C39	C	1.165265	-0.789246	-0.388494
C40	C	1.665265	-0.289246	0.111506
C41	C	1.165322	-0.907552	-0.388515
C42	C	1.665322	-0.407552	0.111485
C43	C	0.538014	-0.512716	-0.388529
C44	C	1.038014	-0.012716	0.111471
C45	C	0.629323	-0.512711	-0.388517
C46	C	1.129323	-0.012711	0.111483
C47	C	0.702099	-0.512713	-0.388512
C48	C	1.202099	-0.012713	0.111488
C49	C	0.793414	-0.512707	-0.388501
C50	C	1.293414	-0.012707	0.111499
C51	C	1.219240	-0.976791	-0.334710
C52	C	1.719240	-0.476791	0.165290
C53	C	1.238943	-1.047491	-0.408305
C54	C	1.738943	-0.547491	0.091695
C55	C	1.145720	-1.047650	-0.314967
C56	C	1.645720	-0.547650	0.185033
C57	C	1.185064	-0.976694	-0.462148
C58	C	1.685064	-0.476694	0.037852
C59	C	1.091806	-0.976846	-0.368761
C60	C	1.591806	-0.476846	0.131239
C61	C	1.111482	-1.047515	-0.442406
C62	C	1.611482	-0.547515	0.057594
C63	C	1.375611	-0.512721	-0.388531
C64	C	1.875611	-0.012721	0.111469
C65	C	1.465232	-0.512728	-0.388541
C66	C	1.965232	-0.012728	0.111459
C67	C	1.165354	-0.512626	-0.598817
C68	C	1.665354	-0.012626	-0.098817
C69	C	1.165377	-0.512592	-0.688438
C70	C	1.665377	-0.012592	-0.188438
C71	C	1.165361	-0.235085	-0.388540
C72	C	1.665361	0.264915	0.111460
C73	C	1.165387	-0.116779	-0.388553
C74	C	1.665387	0.383221	0.111447
C75	C	1.165414	-0.512473	-1.016614
C76	C	1.665414	-0.012473	-0.516614
C77	C	1.165401	-0.512510	-0.925305
C78	C	1.665401	-0.012510	-0.425305
C79	C	1.165396	-0.512534	-0.852529
C80	C	1.665396	-0.012534	-0.352529
C81	C	1.165382	-0.512568	-0.761215
C82	C	1.665382	-0.012568	-0.261215
C83	C	1.165296	-0.512708	-0.179017
C84	C	1.665296	-0.012708	0.320983
C85	C	1.165430	-0.512441	-0.089396
C86	C	1.665430	-0.012441	0.410604
H87	H	1.301142	-1.078526	-0.425034
H88	H	1.801142	-0.578526	0.074966
H89	H	1.129113	-1.078816	-0.252753
H90	H	1.629113	-0.578816	0.247247
H91	H	1.201609	-0.945660	-0.524416
H92	H	1.701609	-0.445660	-0.024416
C93	C	1.050616	-1.088734	-0.503034
C94	C	1.550616	-0.588734	-0.003034
C95	C	0.992656	-1.149951	-0.463201
C96	C	1.492656	-0.649951	0.036799
C97	C	0.936572	-1.187930	-0.519025
C98	C	1.436572	-0.687930	-0.019025
H99	H	1.077286	-1.131214	-0.541980
H100	H	1.577286	-0.631214	-0.041980
H101	H	1.025207	-1.030483	-0.528970
H102	H	1.525207	-0.530483	-0.028970
H103	H	1.018062	-1.208194	-0.437279
H104	H	1.518062	-0.708194	0.062721
H105	H	0.965966	-1.107494	-0.424259
H106	H	1.465966	-0.607494	0.075741
H107	H	0.911163	-1.129679	-0.544960
H108	H	1.411163	-0.629679	-0.044960
H109	H	0.963249	-1.230405	-0.557968
H110	H	1.463249	-0.730405	-0.057968
H111	H	0.897236	-1.229461	-0.492005
H112	H	1.397236	-0.729461	0.007995
C113	C	1.280169	-0.935430	-0.274200
C114	C	1.780169	-0.435430	0.225800
C115	C	1.357065	-0.971204	-0.295284
C116	C	1.857065	-0.471204	0.204716
C117	C	1.413216	-0.933111	-0.239572
C118	C	1.913216	-0.433111	0.260428
H119	H	1.266842	-0.960742	-0.222041
H120	H	1.766842	-0.460742	0.277959
H121	H	1.279434	-0.860002	-0.274277
H122	H	1.779434	-0.360002	0.225723
H123	H	1.357799	-1.046616	-0.295199
H124	H	1.857799	-0.546616	0.204801
H125	H	1.370418	-0.945895	-0.347433
H126	H	1.870418	-0.445895	0.152567
H127	H	1.412480	-0.857683	-0.239648
H128	H	1.912480	-0.357683	0.260352
H129	H	1.399881	-0.958425	-0.187416
H130	H	1.899881	-0.458425	0.312584
H131	H	1.465397	-0.957369	-0.253873
H132	H	1.965397	-0.457369	0.246127
C133	C	1.008924	-0.935482	-0.346262
C134	C	1.508924	-0.435482	0.153738
C135	C	0.988675	-0.971351	-0.269145
C136	C	1.488675	-0.471351	0.230855
C137	C	0.912335	-0.933253	-0.248379
C138	C	1.412335	-0.433253	0.251621
H139	H	0.970429	-0.960726	-0.383885
H140	H	1.470429	-0.460726	0.116115
H141	H	1.009374	-0.860053	-0.346851
H142	H	1.509374	-0.360053	0.153149
H143	H	0.988218	-1.046763	-0.268562
H144	H	1.488218	-0.546763	0.231438
H145	H	1.027149	-0.946109	-0.231506
H146	H	1.527149	-0.446109	0.268494
H147	H	0.912786	-0.857825	-0.248968
H148	H	1.412786	-0.357825	0.251032
H149	H	0.873847	-0.958500	-0.286006
H150	H	1.373847	-0.458500	0.213994
H151	H	0.898589	-0.957577	-0.196051
H152	H	1.398589	-0.457577	0.303949
