data_functionalizedCrystal
_audit_creation_method	'MofGen! by Chris Wilmer'
_symmetry_space_group_name_H-M	'P1'
_symmetry_Int_Tables_number	1
_symmetry_cell_setting	triclinic
loop_
_symmetry_equiv_pos_as_xyz
  x,y,z
_cell_length_a	12.827893
_cell_length_b	12.827892
_cell_length_c	12.827885
_cell_angle_alpha	89.970024
_cell_angle_beta	89.980728
_cell_angle_gamma	90.015362
loop_
_atom_site_label
_atom_site_type_symbol
_atom_site_fract_x
_atom_site_fract_y
_atom_site_fract_z
Zn1	Zn	1.597671	-0.415978	-0.590847
Zn2	Zn	2.097671	0.084022	-0.090847
Zn3	Zn	1.597566	-0.590755	-0.416107
Zn4	Zn	2.097566	-0.090755	0.083893
Zn5	Zn	1.422912	-0.416029	-0.416121
Zn6	Zn	1.922912	0.083971	0.083879
Zn7	Zn	1.422898	-0.590678	-0.590807
Zn8	Zn	1.922898	-0.090678	-0.090807
O9	O	1.510262	-0.503360	-0.503471
O10	O	2.010262	-0.003360	-0.003471
O11	O	1.743893	-0.439173	-0.567679
O12	O	2.243893	0.060827	-0.067679
O13	O	1.574359	-0.567631	-0.269873
O14	O	2.074359	-0.067631	0.230127
O15	O	1.446144	-0.269787	-0.439321
O16	O	1.946144	0.230213	0.060679
O17	O	1.743816	-0.567582	-0.439298
O18	O	2.243816	-0.067582	0.060702
O19	O	1.574539	-0.269749	-0.567692
O20	O	2.074539	0.230251	-0.067692
O21	O	1.446042	-0.439261	-0.269883
O22	O	1.946042	0.060739	0.230117
O23	O	1.276674	-0.439186	-0.439282
O24	O	1.776674	0.060814	0.060718
O25	O	1.446120	-0.567450	-0.737048
O26	O	1.946120	-0.067450	-0.237048
O27	O	1.276664	-0.567500	-0.567623
O28	O	1.776664	-0.067500	-0.067623
O29	O	1.574525	-0.439098	-0.737078
O30	O	2.074525	0.060902	-0.237078
O31	O	1.574346	-0.736981	-0.439259
O32	O	2.074346	-0.236981	0.060741
O33	O	1.446018	-0.736924	-0.567610
O34	O	1.946018	-0.236924	-0.067610
C35	C	1.238752	-0.503341	-0.503451
C36	C	1.738752	-0.003341	-0.003451
C37	C	1.122599	-0.503358	-0.503467
C38	C	1.622599	-0.003358	-0.003467
C39	C	0.950732	-0.566817	-0.439874
C40	C	1.450732	-0.066817	0.060126
C41	C	1.070782	-0.566801	-0.439856
C42	C	1.570782	-0.066801	0.060144
C43	C	1.510197	-0.774870	-0.503451
C44	C	2.010197	-0.274870	-0.003451
C45	C	1.510265	-0.891023	-0.503478
C46	C	2.010265	-0.391023	-0.003478
C47	C	1.446750	-0.942814	-0.566944
C48	C	1.946750	-0.442814	-0.066944
C49	C	1.446819	-1.062865	-0.566973
C50	C	1.946819	-0.562865	-0.066973
C51	C	1.782832	-0.503380	-0.503491
C52	C	2.282832	-0.003380	-0.003491
C53	C	1.898985	-0.503389	-0.503500
C54	C	2.398985	-0.003389	-0.003500
C55	C	1.510333	-0.503260	-0.776041
C56	C	2.010333	-0.003260	-0.276041
C57	C	1.510363	-0.503217	-0.892194
C58	C	2.010363	-0.003217	-0.392194
C59	C	1.510355	-0.230790	-0.503513
C60	C	2.010355	0.269210	-0.003513
C61	C	1.510395	-0.114637	-0.503531
C62	C	2.010395	0.385363	-0.003531
C63	C	1.446878	-0.566658	-1.064009
C64	C	1.946878	-0.066658	-0.564009
C65	C	1.446845	-0.566704	-0.943958
C66	C	1.946845	-0.066704	-0.443958
C67	C	1.510251	-0.503385	-0.231961
C68	C	2.010251	-0.003385	0.268039
C69	C	1.510423	-0.503133	-0.115808
C70	C	2.010423	-0.003133	0.384192
H71	H	1.078104	-0.449056	-0.557946
H72	H	1.578104	0.050944	-0.057946
H73	H	1.564773	-0.448832	-0.936734
H74	H	2.064773	0.051168	-0.436734
H75	H	1.392316	-0.898281	-0.621254
H76	H	1.892316	-0.398281	-0.121254
H77	H	1.392445	-1.107404	-0.621312
H78	H	1.892445	-0.607404	-0.121312
H79	H	1.564780	-1.070105	-0.449196
H80	H	2.064780	-0.570105	0.050804
H81	H	1.115283	-0.621109	-0.385389
H82	H	1.615283	-0.121109	0.114611
H83	H	0.943560	-0.449070	-0.557954
H84	H	1.443560	0.050930	-0.057954
H85	H	1.564798	-0.448776	-1.071279
H86	H	2.064798	0.051224	-0.571279
H87	H	0.906157	-0.621127	-0.385411
H88	H	1.406157	-0.121127	0.114589
H89	H	1.564691	-0.935560	-0.449161
H90	H	2.064691	-0.435560	0.050839
H91	H	1.392495	-0.621007	-1.108538
H92	H	1.892495	-0.121007	-0.608538
H93	H	1.392445	-0.621093	-0.899412
H94	H	1.892445	-0.121093	-0.399412
