data_functionalizedCrystal
_audit_creation_method	'MofGen! by Chris Wilmer'
_symmetry_space_group_name_H-M	'P1'
_symmetry_Int_Tables_number	1
_symmetry_cell_setting	triclinic
loop_
_symmetry_equiv_pos_as_xyz
  x,y,z
_cell_length_a	19.188930
_cell_length_b	17.038272
_cell_length_c	18.266242
_cell_angle_alpha	89.994947
_cell_angle_beta	90.022820
_cell_angle_gamma	92.871832
loop_
_atom_site_label
_atom_site_type_symbol
_atom_site_fract_x
_atom_site_fract_y
_atom_site_fract_z
O1	O	0.932212	-0.097591	0.061119
O2	O	0.729717	-0.110728	0.061069
O3	O	0.829761	0.009652	0.061088
O4	O	0.832168	-0.217971	0.061100
O5	O	0.829743	0.009655	-0.060674
O6	O	0.729699	-0.110725	-0.060693
O7	O	0.932194	-0.097588	-0.060643
Zn8	Zn	0.830943	-0.104156	-0.080001
Zn9	Zn	0.830968	-0.104160	0.080426
O10	O	0.832150	-0.217968	-0.060662
C11	C	0.703670	-0.110301	0.000181
C12	C	0.626087	-0.109024	0.000162
C13	C	0.827563	0.038775	0.000206
C14	C	0.821031	0.125548	0.000205
N15	N	0.830932	-0.104152	-0.189488
C16	C	0.585551	-0.179659	0.000177
C17	C	0.512653	-0.178460	0.000185
C18	C	0.480293	-0.106620	0.000193
C19	C	0.520838	-0.035976	0.000173
C20	C	0.593735	-0.037178	0.000158
N21	N	0.368908	-0.051710	0.041660
N22	N	0.299658	-0.050573	0.041676
C23	C	0.260659	-0.102995	0.000237
N24	N	0.293524	-0.156609	-0.041209
N25	N	0.362780	-0.157748	-0.041222
C26	C	0.401249	-0.105309	0.000209
C27	C	0.141078	-0.172334	0.000260
C28	C	0.068179	-0.171132	0.000264
C29	C	0.076366	-0.028646	0.000259
C30	C	0.149264	-0.029851	0.000248
C31	C	0.181616	-0.101697	0.000252
C32	C	0.958240	-0.098015	0.000246
C33	C	1.035824	-0.099292	0.000270
C34	C	0.834348	-0.247091	0.000221
C35	C	0.840880	-0.333863	0.000227
C36	C	0.880998	0.175849	0.000219
C37	C	0.874857	0.257381	0.000224
C38	C	0.808748	0.288609	0.000210
C39	C	0.748777	0.238301	0.000199
C40	C	0.754919	0.156771	0.000198
C41	C	0.787050	0.534299	0.000215
C42	C	0.780913	0.615835	0.000213
C43	C	0.906993	0.634909	0.000240
C44	C	0.913129	0.553377	0.000235
C45	C	0.853158	0.503076	0.000228
C46	C	0.802470	0.371947	0.000214
C47	C	0.859437	0.419740	0.000229
C48	C	0.876079	-0.151449	-0.227777
C49	C	0.876091	-0.151447	-0.304422
C50	C	0.830942	-0.104157	-0.342774
C51	C	0.785791	-0.056850	-0.304476
C52	C	0.785786	-0.056848	-0.227833
N53	N	0.769675	-0.102231	-0.463142
N54	N	0.769682	-0.102238	-0.535950
C55	C	0.830956	-0.104160	-0.573697
N56	N	0.892225	-0.106090	-0.535885
N57	N	0.892217	-0.106088	-0.463070
C58	C	0.830943	-0.104154	-0.425881
C59	C	0.876120	-0.151457	-0.695093
C60	C	0.876132	-0.151449	-0.771739
C61	C	0.785827	-0.056857	-0.771793
C62	C	0.785821	-0.056860	-0.695148
C63	C	0.830966	-0.104164	-0.656803
N64	N	0.830984	-0.104157	0.189913
H65	H	0.611887	-0.238162	0.000182
F66	F	0.737743	-0.006518	-0.345295
F67	F	0.924178	-0.201788	-0.654281
F68	F	0.924191	-0.201788	-0.812489
F69	F	0.737729	-0.006509	-0.187081
H70	H	0.050019	0.029847	0.000310
H71	H	0.749054	-0.018349	-0.663972
H72	H	0.912843	-0.189965	-0.196561
H73	H	0.749067	-0.018351	-0.803019
H74	H	0.479642	-0.235981	0.000196
F75	F	0.025038	-0.246316	0.000276
H76	H	0.912856	-0.189964	-0.335603
H77	H	0.934830	0.150430	0.000226
H78	H	0.923688	0.298333	0.000234
H79	H	0.182269	0.027668	0.000240
H80	H	0.913263	0.394310	0.000257
H81	H	0.494486	0.022516	0.000189
H82	H	0.748644	0.397382	0.000201
H83	H	0.626739	0.020344	0.000146
F84	F	0.710548	0.649068	0.000195
F85	F	0.175512	-0.248798	0.000259
H86	H	0.966961	0.527958	0.000247
H87	H	0.738217	0.493353	0.000208
F88	F	0.970814	0.688448	0.000250
H89	H	0.694950	0.263733	0.000192
F90	F	0.691094	0.103236	0.000186
