data_functionalizedCrystal
_audit_creation_method	'MofGen! by Chris Wilmer'
_symmetry_space_group_name_H-M	'P1'
_symmetry_Int_Tables_number	1
_symmetry_cell_setting	triclinic
loop_
_symmetry_equiv_pos_as_xyz
  x,y,z
_cell_length_a	16.992695
_cell_length_b	10.654550
_cell_length_c	15.455313
_cell_angle_alpha	92.703897
_cell_angle_beta	92.847427
_cell_angle_gamma	92.423423
loop_
_atom_site_label
_atom_site_type_symbol
_atom_site_fract_x
_atom_site_fract_y
_atom_site_fract_z
O1	O	0.106792	-1.682522	-0.072067
O2	O	0.117289	-1.317952	-0.072083
O3	O	-0.002110	-1.498775	-0.072068
O4	O	0.226191	-1.501699	-0.072081
O5	O	0.004689	-1.488432	0.072194
O6	O	0.124088	-1.307609	0.072179
O7	O	0.113591	-1.672179	0.072195
Cu8	Cu	0.119460	-1.488949	0.085359
Cu9	Cu	0.111419	-1.501181	-0.085247
O10	O	0.232990	-1.491356	0.072180
C11	C	0.119918	-1.265916	0.000046
C12	C	0.117611	-1.126274	0.000040
C13	C	-0.027943	-1.489843	0.000063
C14	C	-0.115049	-1.478624	0.000062
C15	C	0.110962	-1.724215	0.000064
C16	C	0.113268	-1.863857	0.000064
C17	C	-0.164700	-1.586874	0.000068
C18	C	-0.246544	-1.576326	0.000059
C19	C	-0.278735	-1.457525	0.000051
C20	C	-0.229078	-1.349267	0.000042
C21	C	-0.147235	-1.359817	0.000045
C22	C	-0.522572	-1.413799	0.000037
C23	C	-0.604420	-1.403257	0.000037
C24	C	-0.621882	-1.630317	0.000052
C25	C	-0.540037	-1.640856	0.000059
C26	C	-0.490386	-1.532598	0.000047
N27	N	-0.362393	-1.446740	0.000045
N28	N	-0.406730	-1.543385	0.000047
C29	C	0.258823	-1.500288	0.000048
C30	C	0.345928	-1.511507	0.000043
N31	N	0.125116	-1.480355	0.205354
C32	C	0.187912	-1.052863	0.000038
C33	C	0.185741	-0.921654	0.000054
C34	C	0.042962	-0.937277	0.000069
C35	C	0.045134	-1.068484	0.000060
N36	N	0.105758	-1.509785	-0.205242
C37	C	0.074410	-1.557206	0.250754
C38	C	0.078694	-1.550718	0.341562
C39	C	0.133688	-1.467387	0.386967
C40	C	0.184396	-1.390528	0.341560
C41	C	0.180108	-1.397009	0.250754
C42	C	0.152178	-1.439408	0.658546
C43	C	0.156464	-1.432934	0.749358
C44	C	0.050760	-1.593124	0.749353
C45	C	0.046480	-1.599604	0.658546
C46	C	0.097185	-1.522740	0.613147
N47	N	0.138070	-1.460756	0.479786
N48	N	0.092798	-1.529365	0.520329
H49	H	-0.138497	-1.683614	0.000080
Cl50	Cl	-0.043251	-1.160778	0.000069
H51	H	0.242987	-0.861888	0.000054
Cl52	Cl	-0.048146	-0.864619	0.000088
Cl53	Cl	-0.499576	-1.790214	0.000042
H54	H	0.029631	-1.625069	0.213791
Cl55	Cl	0.279025	-1.125508	0.000019
Cl56	Cl	0.014947	-1.647331	0.398638
Cl57	Cl	0.225608	-1.328166	0.806433
H58	H	0.229171	-1.322670	0.378534
Cl59	Cl	-0.022656	-1.704366	0.601465
Cl60	Cl	-0.684303	-1.766404	0.000065
H61	H	-0.630626	-1.306510	0.000044
Cl62	Cl	-0.012983	-1.689742	0.806430
Cl63	Cl	0.215923	-1.342787	0.601479
H64	H	-0.106809	-1.271668	0.000040
H65	H	-0.482156	-1.325647	0.000027
Cl66	Cl	-0.308961	-1.712419	0.000069
Cl67	Cl	-0.269547	-1.199917	0.000022
H68	H	0.221397	-1.334428	0.213790
