data_functionalizedCrystal
_audit_creation_method	'MofGen! by Chris Wilmer'
_symmetry_space_group_name_H-M	'P1'
_symmetry_Int_Tables_number	1
_symmetry_cell_setting	triclinic
loop_
_symmetry_equiv_pos_as_xyz
  x,y,z
_cell_length_a	14.908520
_cell_length_b	11.169417
_cell_length_c	11.169409
_cell_angle_alpha	90.020564
_cell_angle_beta	86.739567
_cell_angle_gamma	93.321403
loop_
_atom_site_label
_atom_site_type_symbol
_atom_site_fract_x
_atom_site_fract_y
_atom_site_fract_z
Zn1	Zn	-0.359063	1.807307	0.706060
Zn2	Zn	-0.509955	1.795569	0.516941
Zn3	Zn	-0.359118	1.606586	0.505398
Zn4	Zn	-0.509882	1.594981	0.717580
O5	O	-0.434504	1.701111	0.611495
O6	O	-0.379087	1.973699	0.680982
O7	O	-0.490000	1.770444	0.347464
O8	O	-0.232867	1.642982	0.522365
O9	O	-0.489947	1.965075	0.542037
O10	O	-0.232826	1.790451	0.669790
O11	O	-0.379180	1.631600	0.338984
O12	O	-0.379109	1.437098	0.533535
O13	O	-0.489822	1.623202	0.883997
O14	O	-0.489875	1.428571	0.689424
O15	O	-0.379016	1.779198	0.875534
O16	O	-0.636189	1.759191	0.553207
O17	O	-0.636135	1.611820	0.700616
C18	C	-0.434491	1.389287	0.611478
C19	C	-0.434507	1.255886	0.611501
C20	C	-0.668896	1.683005	0.629440
C21	C	-0.769170	1.675369	0.637158
C22	C	-0.957589	1.814635	0.498287
C23	C	-1.051806	1.807464	0.505534
C24	C	-1.051820	1.653864	0.658905
C25	C	-0.957603	1.661034	0.651658
C26	C	-0.910492	1.741422	0.571345
C27	C	-0.816274	1.748585	0.564092
C28	C	-0.816290	1.594991	0.717468
C29	C	-0.910506	1.587821	0.724716
C30	C	-0.199198	1.719320	0.593505
C31	C	-0.098924	1.727080	0.585839
C32	C	-0.434404	1.701215	0.924530
C33	C	-0.434362	1.701259	1.057926
C34	C	-0.434519	2.014152	0.611512
C35	C	-0.434525	2.147552	0.611519
C36	C	-0.434539	1.701082	0.299673
C37	C	-0.434327	1.701289	0.166257
H38	H	-0.777916	1.814037	0.498694
H39	H	-0.919230	1.880081	0.432884
Cl40	Cl	-1.111011	1.899511	0.413688
H41	H	-0.777932	1.535372	0.776954
Cl42	Cl	-1.111061	1.552830	0.759877
Cl43	Cl	-0.969740	1.486772	0.825678
