data_functionalizedCrystal
_audit_creation_method	'MofGen! by Chris Wilmer'
_symmetry_space_group_name_H-M	'P1'
_symmetry_Int_Tables_number	1
_symmetry_cell_setting	triclinic
loop_
_symmetry_equiv_pos_as_xyz
  x,y,z
_cell_length_a	14.908520
_cell_length_b	12.759401
_cell_length_c	12.759393
_cell_angle_alpha	90.017068
_cell_angle_beta	93.263373
_cell_angle_gamma	86.679304
loop_
_atom_site_label
_atom_site_type_symbol
_atom_site_fract_x
_atom_site_fract_y
_atom_site_fract_z
Zn1	Zn	-0.359109	-1.582051	-0.618083
Zn2	Zn	-0.509993	-1.571787	-0.452530
Zn3	Zn	-0.359154	-1.406355	-0.442426
Zn4	Zn	-0.509926	-1.396183	-0.628167
O5	O	-0.434546	-1.489094	-0.535301
O6	O	-0.379134	-1.727710	-0.596131
O7	O	-0.490031	-1.549803	-0.304172
O8	O	-0.232904	-1.438214	-0.457278
O9	O	-0.489988	-1.720169	-0.474500
O10	O	-0.232871	-1.567297	-0.586333
O11	O	-0.379210	-1.428261	-0.296748
O12	O	-0.379145	-1.257985	-0.467056
O13	O	-0.489874	-1.420878	-0.773847
O14	O	-0.489917	-1.250512	-0.603519
O15	O	-0.379069	-1.557434	-0.766439
O16	O	-0.636229	-1.539940	-0.484277
O17	O	-0.636180	-1.410925	-0.613317
C18	C	-0.434529	-1.216128	-0.535286
C19	C	-0.434544	-1.099350	-0.535306
C20	C	-0.668938	-1.473243	-0.551011
C21	C	-0.769212	-1.466558	-0.557767
C22	C	-0.434459	-1.489166	-0.809329
C23	C	-0.434422	-1.489197	-0.926103
C24	C	-0.957627	-1.588478	-0.436201
C25	C	-1.051843	-1.582201	-0.442545
C26	C	-1.051862	-1.447731	-0.576804
C27	C	-0.957646	-1.454009	-0.570460
C28	C	-0.910532	-1.524384	-0.500154
C29	C	-0.816314	-1.530655	-0.493806
C30	C	-0.816334	-1.396192	-0.628069
C31	C	-0.910551	-1.389914	-0.634414
C32	C	-0.199238	-1.505035	-0.519554
C33	C	-0.098964	-1.511829	-0.512843
C34	C	-0.434563	-1.763126	-0.535318
C35	C	-0.434570	-1.879902	-0.535324
C36	C	-0.492315	-1.040618	-0.606257
C37	C	-0.492326	-0.930893	-0.606270
C38	C	-0.376793	-0.938642	-0.464369
C39	C	-0.376778	-1.048365	-0.464363
C40	C	-0.559020	-1.036143	-0.688179
C41	C	-0.559032	-0.926418	-0.688192
C42	C	-0.492064	-1.552539	-1.094548
C43	C	-0.492102	-1.552497	-0.984826
C44	C	-0.376705	-1.425928	-0.977108
C45	C	-0.376672	-1.425965	-1.086828
C46	C	-0.558685	-1.625616	-1.099002
C47	C	-0.558723	-1.625574	-0.989281
C48	C	-0.434567	-1.489086	-0.262335
C49	C	-0.434350	-1.489276	-0.145545
H50	H	-0.777954	-1.587955	-0.436557
H51	H	-0.777979	-1.343999	-0.680142
H52	H	-0.534093	-0.894099	-0.763870
H53	H	-0.919266	-1.645773	-0.378948
H54	H	-0.540389	-1.067204	-0.768336
Br55	Br	-1.115757	-1.669195	-0.355752
Br56	Br	-0.675444	-0.868906	-0.659414
Br57	Br	-0.974499	-1.294417	-0.729828
H58	H	-0.329686	-1.374439	-1.128346
Br59	Br	-0.669614	-1.085399	-0.646901
H60	H	-1.090239	-1.390443	-0.634049
H61	H	-0.540017	-1.708200	-0.958248
Br62	Br	-0.298397	-0.869442	-0.368098
Br63	Br	-0.298427	-1.340015	-0.897415
Br64	Br	-0.675121	-1.581430	-1.156432
Br65	Br	-0.516985	-1.757292	-1.152944
Br66	Br	-0.298351	-1.128073	-0.368090
H67	H	-0.625115	-1.591945	-0.959694
