data_functionalizedCrystal
_audit_creation_method	'MofGen! by Chris Wilmer'
_symmetry_space_group_name_H-M	'P1'
_symmetry_Int_Tables_number	1
_symmetry_cell_setting	triclinic
loop_
_symmetry_equiv_pos_as_xyz
  x,y,z
_cell_length_a	19.077269
_cell_length_b	19.121063
_cell_length_c	19.077271
_cell_angle_alpha	85.379098
_cell_angle_beta	85.319775
_cell_angle_gamma	90.074438
loop_
_atom_site_label
_atom_site_type_symbol
_atom_site_fract_x
_atom_site_fract_y
_atom_site_fract_z
Zn1	Zn	1.046580	-0.336514	0.370238
Zn2	Zn	1.046222	-0.449397	0.257376
Zn3	Zn	0.933863	-0.327434	0.256701
Zn4	Zn	0.923631	-0.449394	0.379960
O5	O	0.987574	-0.390685	0.316068
O6	O	1.145010	-0.355289	0.351480
O7	O	1.035450	-0.429421	0.158469
O8	O	0.953248	-0.230356	0.267410
O9	O	1.144747	-0.438225	0.268561
O10	O	1.036060	-0.237026	0.350825
O11	O	0.952901	-0.339815	0.157973
O12	O	0.834029	-0.339811	0.276837
O13	O	0.935808	-0.438218	0.477487
O14	O	0.826511	-0.429414	0.367395
O15	O	1.026138	-0.355285	0.470344
O16	O	1.025528	-0.547680	0.277988
O17	O	0.935461	-0.547677	0.368050
C18	C	0.804735	-0.383627	0.323098
C19	C	0.726515	-0.380626	0.326123
C20	C	0.689633	-0.422320	0.284302
C21	C	0.616136	-0.419500	0.287154
C22	C	0.579522	-0.374982	0.331823
C23	C	0.616409	-0.333286	0.373648
C24	C	0.689905	-0.336110	0.370800
C25	C	0.359729	-0.361918	0.344982
C26	C	0.286228	-0.359095	0.347825
C27	C	0.285960	-0.445311	0.261331
C28	C	0.359457	-0.448127	0.258484
C29	C	0.396337	-0.406434	0.300312
N30	N	0.504397	-0.372097	0.334737
N31	N	0.471461	-0.409323	0.297401
C32	C	0.979364	-0.573163	0.324162
C33	C	0.975914	-0.651232	0.327646
C34	C	1.021221	-0.687889	0.282428
C35	C	1.017981	-0.761243	0.285709
C36	C	0.969431	-0.797938	0.334204
C37	C	0.924122	-0.761275	0.379426
C38	C	0.927366	-0.687923	0.376149
C39	C	0.957292	-1.019416	0.346447
C40	C	0.954050	-1.092773	0.349719
C41	C	1.047910	-1.092736	0.256002
C42	C	1.051146	-1.019382	0.252726
C43	C	1.005840	-0.982726	0.297951
C44	C	0.966116	-0.872917	0.337556
C45	C	1.009159	-0.907748	0.294601
C46	C	1.171127	-0.397770	0.309012
C47	C	1.249346	-0.400790	0.306005
C48	C	0.979871	-0.397764	0.500254
C49	C	0.976589	-0.400781	0.578743
C50	C	0.995836	-0.207495	0.307958
C51	C	0.999356	-0.129431	0.304502
C52	C	1.022075	-0.359022	0.611900
C53	C	1.018982	-0.361853	0.685649
C54	C	0.970406	-0.406448	0.726240
C55	C	0.924916	-0.448209	0.693079
C56	C	0.928006	-0.445373	0.619331
C57	C	0.956119	-0.419555	0.947201
C58	C	0.953034	-0.422390	1.020954
C59	C	1.047100	-0.336032	1.013520
C60	C	1.050188	-0.333204	0.939771
C61	C	1.004695	-0.374962	0.906616
N62	N	0.967245	-0.409345	0.801624
N63	N	1.007853	-0.372061	0.831233
C64	C	0.995240	-0.383648	1.132600
C65	C	0.998520	-0.380630	1.054111
H66	H	0.256420	-0.322837	0.384198
O67	O	1.091257	-0.295364	1.045647
C68	C	1.079774	-0.224079	1.025130
H69	H	1.055030	-0.219523	0.972558
H70	H	1.132087	-0.194448	1.019262
H71	H	1.042921	-0.200623	1.066977
O72	O	0.395442	-0.321341	0.385628
C73	C	0.347363	-0.281453	0.425670
H74	H	0.296285	-0.275859	0.398670
H75	H	0.370763	-0.227234	0.430012
H76	H	0.336162	-0.309010	0.480708
H77	H	0.890959	-0.479371	0.592336
O78	O	0.911865	-0.460012	0.914960
C79	C	0.870019	-0.416626	0.872265
H80	H	0.867236	-0.361999	0.892214
H81	H	0.814751	-0.439902	0.874625
H82	H	0.894230	-0.412892	0.815431
H83	H	0.586110	-0.453452	0.253099
H84	H	0.586593	-0.297042	0.410022
O85	O	0.906907	-1.128526	0.396768
C86	C	0.913770	-1.201129	0.389969
H87	H	0.938696	-1.209942	0.335050
H88	H	0.859621	-1.227200	0.397989
H89	H	0.948542	-1.224955	0.431370
H90	H	1.084796	-1.122589	0.219184
H91	H	0.913476	-0.458706	1.054002
H92	H	1.089746	-0.296892	0.906726
H93	H	0.885362	-0.484516	0.726134
H94	H	1.061632	-0.322710	0.578856
O95	O	0.876868	-0.796835	0.426502
C96	C	0.808179	-0.775688	0.412901
H97	H	0.810233	-0.721344	0.383430
H98	H	0.774565	-0.773921	0.464943
H99	H	0.784195	-0.814698	0.379334
H100	H	1.060752	-0.658017	0.242936
O101	O	0.725157	-0.465669	0.240992
C102	C	0.703402	-0.535588	0.260103
H103	H	0.680693	-0.540611	0.317454
H104	H	0.750431	-0.571900	0.253630
H105	H	0.661491	-0.550794	0.224680
O106	O	0.394910	-0.491433	0.215076
C107	C	0.346597	-0.527615	0.178759
H108	H	0.292895	-0.529197	0.209819
H109	H	0.365667	-0.583461	0.172760
H110	H	0.342162	-0.499447	0.124332
O111	O	1.063242	-0.321267	0.717745
C112	C	1.106770	-0.281290	0.666104
H113	H	1.110109	-0.308132	0.614715
H114	H	1.161661	-0.276762	0.684953
H115	H	1.083739	-0.226651	0.656887
O116	O	0.725627	-0.295540	0.411449
C117	C	0.677553	-0.255654	0.451500
H118	H	0.626476	-0.250048	0.424499
H119	H	0.700959	-0.201440	0.455853
H120	H	0.666348	-0.283221	0.506533
O121	O	0.883384	-0.652392	0.420173
C122	C	0.894989	-0.673558	0.490774
H123	H	0.919620	-0.727895	0.493595
H124	H	0.842743	-0.675349	0.524468
H125	H	0.931987	-0.634546	0.511348
O126	O	0.913201	-0.983920	0.390396
C127	C	0.869663	-1.032040	0.433906
H128	H	0.866157	-1.083139	0.407409
H129	H	0.814829	-1.009045	0.442571
H130	H	0.892794	-1.042848	0.486920
H131	H	0.255923	-0.479256	0.227279
H132	H	1.048691	-0.877870	0.255119
O133	O	1.062137	-0.796729	0.241809
C134	C	1.132380	-0.781974	0.253862
H135	H	1.134951	-0.729816	0.278614
H136	H	1.166246	-0.778648	0.201613
H137	H	1.152742	-0.825526	0.291104
O138	O	1.098280	-0.983815	0.205528
C139	C	1.085100	-0.998473	0.136526
H140	H	1.055751	-1.050653	0.138460
H141	H	1.137128	-1.001701	0.103064
H142	H	1.051762	-0.954919	0.112256
O143	O	0.919044	-0.908647	0.384693
C144	C	0.955293	-0.954308	0.430699
H145	H	1.009203	-0.966355	0.404278
H146	H	0.923950	-1.005171	0.443539
H147	H	0.962036	-0.928321	0.481480
