data_functionalizedCrystal
_audit_creation_method	'MofGen! by Chris Wilmer'
_symmetry_space_group_name_H-M	'P1'
_symmetry_Int_Tables_number	1
_symmetry_cell_setting	triclinic
loop_
_symmetry_equiv_pos_as_xyz
  x,y,z
_cell_length_a	12.645331
_cell_length_b	19.120786
_cell_length_c	12.645323
_cell_angle_alpha	92.471912
_cell_angle_beta	90.022676
_cell_angle_gamma	92.464092
loop_
_atom_site_label
_atom_site_type_symbol
_atom_site_fract_x
_atom_site_fract_y
_atom_site_fract_z
Zn1	Zn	1.602667	-0.279644	0.581385
Zn2	Zn	2.102667	0.220356	1.081385
Zn3	Zn	1.594961	-0.397110	0.396539
Zn4	Zn	2.094961	0.102890	0.896539
Zn5	Zn	1.425380	-0.279668	0.404128
Zn6	Zn	1.925380	0.220332	0.904128
Zn7	Zn	1.417779	-0.397064	0.573757
Zn8	Zn	1.917779	0.102936	1.073757
O9	O	1.510197	-0.338371	0.488952
O10	O	2.010197	0.161629	0.988952
O11	O	1.749992	-0.295235	0.556881
O12	O	2.249992	0.204765	1.056881
O13	O	1.572422	-0.381560	0.249196
O14	O	2.072422	0.118440	0.749196
O15	O	1.455304	-0.181374	0.434010
O16	O	1.955304	0.318626	0.934010
O17	O	1.744330	-0.381537	0.421075
O18	O	2.244330	0.118463	0.921075
O19	O	1.585556	-0.181357	0.564240
O20	O	2.085556	0.318643	1.064240
O21	O	1.447832	-0.295276	0.254772
O22	O	1.947832	0.204724	0.754772
O23	O	1.276025	-0.295231	0.426613
O24	O	1.776025	0.204769	0.926613
O25	O	1.442349	-0.381459	0.723118
O26	O	1.942349	0.118541	1.223118
O27	O	1.270441	-0.381482	0.551239
O28	O	1.770441	0.118518	1.051239
O29	O	1.578185	-0.295191	0.728723
O30	O	2.078185	0.204809	1.228723
O31	O	1.565051	-0.495394	0.413678
O32	O	2.065051	0.004606	0.913678
O33	O	1.434876	-0.495360	0.543880
O34	O	1.934876	0.004640	1.043880
C35	C	1.234768	-0.338355	0.488923
C36	C	1.734768	0.161645	0.988923
C37	C	1.116938	-0.338364	0.488934
C38	C	1.616938	0.161636	0.988934
C39	C	1.498332	-0.520863	0.477151
C40	C	1.998332	-0.020863	0.977151
C41	C	1.493352	-0.598933	0.472138
C42	C	1.993352	-0.098933	0.972138
C43	C	0.952868	-0.283855	0.411000
C44	C	1.452868	0.216145	0.911000
C45	C	1.075418	-0.283996	0.410632
C46	C	1.575418	0.216004	0.910632
C47	C	1.067638	-0.412356	0.453640
C48	C	1.567638	0.087644	0.953640
C49	C	0.945059	-0.412058	0.453104
C50	C	1.445059	0.087942	0.953104
C51	C	0.951001	-0.319586	0.602431
C52	C	1.451001	0.180414	1.102431
C53	C	1.073714	-0.317933	0.601914
C54	C	1.573714	0.182067	1.101914
C55	C	1.558778	-0.635541	0.537642
C56	C	2.058778	-0.135541	1.037642
C57	C	1.554095	-0.708897	0.532933
C58	C	2.054095	-0.208897	1.032933
C59	C	1.483992	-0.745643	0.462715
C60	C	1.983992	-0.245643	0.962715
C61	C	1.418559	-0.709030	0.397208
C62	C	1.918559	-0.209030	0.897208
C63	C	1.423237	-0.635675	0.401923
C64	C	1.923237	-0.135675	0.901923
C65	C	1.466472	-0.967129	0.445089
C66	C	1.966472	-0.467129	0.945089
C67	C	1.461801	-1.040488	0.440377
C68	C	1.961801	-0.540488	0.940377
C69	C	1.597336	-1.040351	0.576104
C70	C	2.097336	-0.540351	1.076104
C71	C	1.602013	-0.966995	0.580808
C72	C	2.102013	-0.466995	1.080808
C73	C	1.536576	-0.930388	0.515306
C74	C	2.036576	-0.430388	1.015306
C75	C	1.479206	-0.820624	0.457898
C76	C	1.979206	-0.320624	0.957898
C77	C	1.541357	-0.855408	0.520129
C78	C	2.041357	-0.355408	1.020129
C79	C	1.786701	-0.338389	0.488982
C80	C	2.286701	0.161611	0.988982
C81	C	1.904531	-0.338396	0.488995
C82	C	2.404531	0.161604	0.988995
C83	C	1.510279	-0.338317	0.765461
C84	C	2.010279	0.161683	1.265461
C85	C	1.510313	-0.338294	0.883293
C86	C	2.010313	0.161706	1.383293
C87	C	1.522138	-0.155167	0.500823
C88	C	2.022138	0.344833	1.000823
C89	C	1.527226	-0.077097	0.505881
C90	C	2.027226	0.422903	1.005881
C91	C	1.510180	-0.338375	0.213522
C92	C	2.010180	0.161625	0.713522
C93	C	1.510363	-0.338200	0.095704
C94	C	2.010363	0.161800	0.595704
C95	C	1.424622	-0.392309	1.047348
C96	C	1.924622	0.107691	1.547348
C97	C	1.424820	-0.392577	0.924770
C98	C	1.924820	0.107423	1.424770
C99	C	1.620715	-0.358383	0.926515
C100	C	2.120715	0.141617	1.426515
C101	C	1.620243	-0.358722	1.049092
C102	C	2.120243	0.141278	1.549092
C103	C	1.486678	-0.263887	1.055296
C104	C	1.986678	0.236113	1.555296
C105	C	1.484157	-0.264333	0.932661
C106	C	1.984157	0.235667	1.432661
H107	H	1.109063	-0.229128	0.433302
H108	H	1.609063	0.270872	0.933302
H109	H	1.440066	-0.447668	0.891898
H110	H	1.940066	0.052332	1.391898
H111	H	1.659096	-0.937078	0.637985
H112	H	2.159096	-0.437078	1.137985
Br113	Br	0.891119	-0.482084	0.543218
Br114	Br	1.391119	0.017916	1.043218
H115	H	1.650610	-1.070164	0.629434
H116	H	2.150610	-0.570164	1.129434
H117	H	1.615868	-0.605628	0.594816
H118	H	2.115868	-0.105628	1.094816
Br119	Br	1.366661	-1.090358	0.345068
Br120	Br	1.866661	-0.590358	0.845068
Br121	Br	1.111742	-0.481900	0.545011
Br122	Br	1.611742	0.018100	1.045011
H123	H	1.607380	-0.738700	0.586265
H124	H	2.107380	-0.238700	1.086265
Br125	Br	1.355254	-0.233366	1.108772
Br126	Br	1.855254	0.266634	1.608772
Br127	Br	1.120838	-0.379317	0.704601
Br128	Br	1.620838	0.120683	1.204601
H129	H	1.342803	-0.380005	0.895480
H130	H	1.842803	0.119995	1.395480
Br131	Br	1.377651	-0.917457	0.356206
Br132	Br	1.877651	-0.417457	0.856206
Br133	Br	1.323403	-0.758898	0.301924
Br134	Br	1.823403	-0.258898	0.801924
H135	H	1.369959	-0.605870	0.348584
H136	H	1.869959	-0.105870	0.848584
Br137	Br	1.636486	-0.805538	0.615431
Br138	Br	2.136486	-0.305538	1.115431
Br139	Br	0.898427	-0.385797	0.699389
Br140	Br	1.398427	0.114203	1.199389
H141	H	1.641802	-0.412138	0.892355
H142	H	2.141802	0.087862	1.392355
Br143	Br	1.348772	-0.239083	0.885810
Br144	Br	1.848772	0.260917	1.385810
H145	H	0.923529	-0.266574	0.633606
H146	H	1.423529	0.233426	1.133606
Br147	Br	1.287490	-0.371555	1.097798
Br148	Br	1.787490	0.128445	1.597798
H149	H	1.422130	-0.850551	0.400723
H150	H	1.922130	-0.350551	0.900723
Br151	Br	1.449691	-0.483548	1.092909
Br152	Br	1.949691	0.016452	1.592909
H153	H	1.640878	-0.413046	1.074194
H154	H	2.140878	0.086954	1.574194
Br155	Br	1.729838	-0.295843	1.102626
Br156	Br	2.229838	0.204157	1.602626
H157	H	1.542427	-0.221887	0.904781
H158	H	2.042427	0.278113	1.404781
Br159	Br	1.729705	-0.294775	0.882071
Br160	Br	2.229705	0.205225	1.382071
H161	H	0.926959	-0.228822	0.433475
H162	H	1.426959	0.271178	0.933475
Br163	Br	0.900107	-0.304328	0.271889
Br164	Br	1.400107	0.195672	0.771889
H165	H	1.103893	-0.296428	0.326669
H166	H	1.603893	0.203572	0.826669
Br167	Br	0.895590	-0.438643	0.314650
Br168	Br	1.395590	0.061357	0.814650
H169	H	1.097245	-0.428581	0.371434
H170	H	1.597245	0.071419	0.871434
Br171	Br	1.128102	-0.227187	0.646143
Br172	Br	1.628102	0.272813	1.146143
Br173	Br	1.590862	-0.196695	1.107989
Br174	Br	2.090862	0.303305	1.607989
