data_functionalizedCrystal
_audit_creation_method	'MofGen! by Chris Wilmer'
_symmetry_space_group_name_H-M	'P1'
_symmetry_Int_Tables_number	1
_symmetry_cell_setting	triclinic
loop_
_symmetry_equiv_pos_as_xyz
  x,y,z
_cell_length_a	15.944551
_cell_length_b	14.044220
_cell_length_c	13.101039
_cell_angle_alpha	86.332523
_cell_angle_beta	93.353409
_cell_angle_gamma	88.343808
loop_
_atom_site_label
_atom_site_type_symbol
_atom_site_fract_x
_atom_site_fract_y
_atom_site_fract_z
O1	O	-1.127901	-0.117026	-0.085109
O2	O	-0.884482	-0.132096	-0.085135
O3	O	-1.002537	0.013423	-0.085112
O4	O	-1.009846	-0.262545	-0.085132
O5	O	-0.994068	0.002965	0.085316
O6	O	-0.876013	-0.142555	0.085293
O7	O	-1.119432	-0.127484	0.085319
Zn8	Zn	-0.996378	-0.136680	0.112365
Zn9	Zn	-1.007536	-0.122901	-0.112181
O10	O	-1.001377	-0.273003	0.085296
C11	C	-0.995104	0.043509	0.000102
C12	C	-0.985563	0.148735	0.000102
C13	C	-0.848906	-0.136700	0.000076
C14	C	-0.755520	-0.134823	0.000066
C15	C	-1.155008	-0.122881	0.000106
C16	C	-1.248394	-0.124757	0.000109
C17	C	-0.533573	-0.040140	0.000093
C18	C	-0.480021	-0.078952	-0.083940
C19	C	-0.584540	-0.131430	0.000079
C20	C	-0.471695	-0.089285	0.084089
C21	C	-0.419380	-0.128147	0.000095
C22	C	-0.532221	-0.170263	-0.084024
C23	C	-0.523897	-0.180587	0.084080
C24	C	-0.470369	-0.219464	0.000027
C25	C	-0.679684	-0.133319	0.000068
C26	C	-0.324238	-0.126264	0.000098
C27	C	-1.008810	-0.303089	0.000080
C28	C	-1.018352	-0.408315	0.000073
N29	N	-0.988769	-0.146083	0.265612
C30	C	-0.968120	0.341399	0.000085
C31	C	-1.035791	0.399027	0.000090
C32	C	-1.026085	0.506232	0.000080
C33	C	-0.977824	0.234184	0.000095
N34	N	-1.015152	-0.113490	-0.265428
C35	C	-0.978417	-0.158885	0.474653
C36	C	-1.025501	-0.100691	0.525538
C37	C	-1.019741	-0.107814	0.641855
C38	C	-0.984176	-0.151763	0.358325
H39	H	-0.460550	-0.035980	-0.154979
C40	C	-0.880013	0.383503	0.000074
H41	H	-0.838827	0.333250	0.000067
H42	H	-0.870473	0.417979	0.059502
H43	H	-0.876379	0.425255	-0.059370
C44	C	-0.550235	-0.238597	0.180046
H45	H	-0.581808	-0.291316	0.159860
H46	H	-0.583654	-0.199074	0.218929
H47	H	-0.501485	-0.261203	0.220551
C48	C	-0.567892	-0.216510	-0.180091
H49	H	-0.627419	-0.217394	-0.179523
H50	H	-0.545721	-0.280003	-0.180312
H51	H	-0.552552	-0.180653	-0.239703
C52	C	-0.918102	-0.233395	0.533802
H53	H	-0.889305	-0.268964	0.486582
H54	H	-0.949278	-0.275335	0.575667
H55	H	-0.878494	-0.201838	0.575645
H56	H	-0.561238	0.035630	-0.000006
H57	H	-0.445186	-0.055015	0.155130
H58	H	-1.101018	0.367856	0.000028
C59	C	-0.433240	-0.321909	-0.000042
H60	H	-0.454136	-0.350515	-0.059790
H61	H	-0.448975	-0.358206	0.059081
H62	H	-0.373696	-0.320204	0.000517
H63	H	-1.070137	-0.045520	0.481744
