data_functionalizedCrystal
_audit_creation_method	'MofGen! by Chris Wilmer'
_symmetry_space_group_name_H-M	'P1'
_symmetry_Int_Tables_number	1
_symmetry_cell_setting	triclinic
loop_
_symmetry_equiv_pos_as_xyz
  x,y,z
_cell_length_a	12.759401
_cell_length_b	25.639239
_cell_length_c	12.759393
_cell_angle_alpha	89.963467
_cell_angle_beta	89.979527
_cell_angle_gamma	90.040211
loop_
_atom_site_label
_atom_site_type_symbol
_atom_site_fract_x
_atom_site_fract_y
_atom_site_fract_z
Zn1	Zn	1.606086	-0.208101	-0.593980
Zn2	Zn	1.605905	-0.295547	-0.418283
Zn3	Zn	1.430387	-0.208130	-0.418315
Zn4	Zn	1.430304	-0.295510	-0.593921
O5	O	1.518171	-0.251822	-0.506125
O6	O	1.753083	-0.219705	-0.570685
O7	O	1.582581	-0.283979	-0.271266
O8	O	1.453804	-0.134961	-0.441656
O9	O	1.752950	-0.283951	-0.441601
O10	O	1.582890	-0.134940	-0.570716
O11	O	1.453629	-0.219754	-0.271290
O12	O	1.283355	-0.219718	-0.441598
O13	O	1.453663	-0.283887	-0.740950
O14	O	1.283294	-0.283915	-0.570615
O15	O	1.582810	-0.219669	-0.740993
O16	O	1.582501	-0.368708	-0.441544
O17	O	1.453487	-0.368680	-0.570584
C18	C	1.245203	-0.251816	-0.506104
C19	C	1.128427	-0.251826	-0.506120
C20	C	1.517994	-0.387665	-0.506077
C21	C	1.518014	-0.445779	-0.506091
C22	C	1.073560	-0.285304	-0.573193
C23	C	0.963836	-0.285306	-0.573214
C24	C	0.963854	-0.218350	-0.439079
C25	C	1.073576	-0.218345	-0.439065
C26	C	1.585523	-0.806144	-0.439048
C27	C	1.585564	-0.860748	-0.439062
O28	O	1.642779	-0.888986	-0.382007
N29	N	1.518355	-0.888061	-0.506194
C30	C	1.451109	-0.860767	-0.573324
O31	O	1.393947	-0.889014	-0.630428
C32	C	1.451074	-0.806164	-0.573315
C33	C	1.518280	-0.778854	-0.506171
C34	C	1.652725	-0.778833	-0.371910
C35	C	1.652682	-0.724232	-0.371895
C36	C	1.585439	-0.696942	-0.439018
C37	C	1.518237	-0.724253	-0.506156
C38	C	1.383834	-0.778871	-0.640449
C39	C	1.383805	-0.724264	-0.640435
C40	C	1.451011	-0.696954	-0.573291
C41	C	1.450952	-0.642363	-0.573263
N42	N	1.518160	-0.615049	-0.506131
C43	C	1.585404	-0.642339	-0.439008
C44	C	1.451188	-0.975438	-0.573341
C45	C	1.451216	-1.030040	-0.573346
C46	C	1.585673	-1.030017	-0.439085
C47	C	1.585639	-0.975414	-0.439075
C48	C	1.518397	-0.948125	-0.506208
C49	C	1.585309	-0.527674	-0.438981
C50	C	1.585258	-0.473069	-0.438969
C51	C	1.450805	-0.473097	-0.573233
C52	C	1.450852	-0.527697	-0.573242
C53	C	1.518113	-0.554985	-0.506112
O54	O	1.393768	-0.614090	-0.630292
O55	O	1.642566	-0.614086	-0.381925
C56	C	1.792204	-0.251829	-0.506146
C57	C	1.908980	-0.251832	-0.506156
C58	C	1.518247	-0.251771	-0.780158
C59	C	1.518280	-0.251749	-0.896935
C60	C	1.518377	-0.115449	-0.506196
C61	C	1.518464	-0.057335	-0.506226
C62	C	1.585553	-0.218285	-1.061553
C63	C	1.585533	-0.218305	-0.951829
C64	C	1.451049	-0.285178	-0.951771
C65	C	1.451076	-0.285160	-1.061493
C66	C	1.518155	-0.251836	-0.233157
C67	C	1.518326	-0.251710	-0.116381
H68	H	0.919169	-0.312567	-0.627833
H69	H	0.919182	-0.191092	-0.384484
H70	H	1.118250	-0.191080	-0.384446
H71	H	1.640277	-0.191087	-0.907192
O72	O	1.650646	-0.446621	-0.373710
C73	C	1.709987	-0.482421	-0.314455
H74	H	1.713628	-0.521325	-0.357507
H75	H	1.671560	-0.488281	-0.234630
C76	C	1.817326	-0.413277	-0.246528
C77	C	1.821805	-0.461058	-0.299409
H78	H	1.886300	-0.400099	-0.237242
H79	H	1.777345	-0.389157	-0.286445
H80	H	1.785299	-0.418167	-0.180013
H81	H	1.853820	-0.456166	-0.365927
H82	H	1.861795	-0.485177	-0.259502
H83	H	1.396295	-0.312410	-0.907068
H84	H	1.707488	-0.801047	-0.317251
O85	O	1.126680	-0.317838	-0.638434
C86	C	1.054719	-0.347396	-0.697622
H87	H	0.976535	-0.325985	-0.701345
H88	H	1.042981	-0.387083	-0.659008
C89	C	1.193612	-0.381291	-0.804835
C90	C	1.097586	-0.354991	-0.809415
H91	H	1.220055	-0.385978	-0.873793
H92	H	1.242094	-0.361379	-0.764957
H93	H	1.183817	-0.414361	-0.772652
H94	H	1.107385	-0.321920	-0.841585
H95	H	1.049106	-0.374898	-0.849301
O96	O	1.650504	-0.554238	-0.373733
C97	C	1.590764	-0.585876	-0.305808
H98	H	1.511126	-0.594087	-0.342782
H99	H	1.579254	-0.564870	-0.227929
C100	C	1.746443	-0.627632	-0.241452
C101	C	1.648634	-0.637721	-0.286869
H102	H	1.782141	-0.659612	-0.229765
H103	H	1.786692	-0.606316	-0.287212
H104	H	1.736838	-0.610127	-0.176559
H105	H	1.658241	-0.655220	-0.351767
H106	H	1.608387	-0.659041	-0.241120
H107	H	1.640364	-0.953181	-0.384401
H108	H	1.396330	-0.312382	-1.106136
H109	H	1.707410	-0.701999	-0.317224
O110	O	1.651039	-1.056613	-0.374054
C111	C	1.636673	-1.110662	-0.388491
H112	H	1.602124	-1.118089	-0.469505
H113	H	1.580866	-1.126242	-0.326071
C114	C	1.785471	-1.129501	-0.279640
C115	C	1.743045	-1.138624	-0.379146
H116	H	1.851085	-1.146750	-0.273871
H117	H	1.795148	-1.093087	-0.269910
H118	H	1.738955	-1.142484	-0.227635
H119	H	1.789555	-1.125635	-0.431149
H120	H	1.733379	-1.175037	-0.388885
H121	H	1.396481	-1.052272	-0.628011
H122	H	1.396423	-0.953222	-0.628006
H123	H	1.329102	-0.801098	-0.695120
O124	O	1.318388	-0.697838	-0.705687
C125	C	1.259107	-0.733656	-0.764967
H126	H	1.255518	-0.772596	-0.721934
H127	H	1.297554	-0.739415	-0.844789
C128	C	1.151676	-0.664575	-0.832876
C129	C	1.147260	-0.712400	-0.780018
H130	H	1.082685	-0.651463	-0.842166
H131	H	1.191616	-0.640443	-0.792941
H132	H	1.183720	-0.669381	-0.899389
H133	H	1.115229	-0.707593	-0.713502
H134	H	1.107311	-0.736531	-0.819942
H135	H	1.396131	-0.549935	-0.627919
H136	H	1.640312	-0.191048	-1.106239
H137	H	1.396053	-0.450869	-0.627881
