data_functionalizedCrystal
_audit_creation_method	'MofGen! by Chris Wilmer'
_symmetry_space_group_name_H-M	'P1'
_symmetry_Int_Tables_number	1
_symmetry_cell_setting	triclinic
loop_
_symmetry_equiv_pos_as_xyz
  x,y,z
_cell_length_a	16.109302
_cell_length_b	16.109301
_cell_length_c	14.586319
_cell_angle_alpha	89.994786
_cell_angle_beta	89.994552
_cell_angle_gamma	83.461631
loop_
_atom_site_label
_atom_site_type_symbol
_atom_site_fract_x
_atom_site_fract_y
_atom_site_fract_z
O1	O	1.103130	0.106869	-0.076284
O2	O	0.861069	0.120168	-0.076278
O3	O	0.988749	-0.007513	-0.076272
O4	O	0.975450	0.234549	-0.076290
O5	O	0.988740	-0.007515	0.076209
O6	O	0.861060	0.120166	0.076203
O7	O	1.103122	0.106867	0.076196
Cu8	Cu	0.982090	0.113516	0.090122
Cu9	Cu	0.982100	0.113519	-0.090204
O10	O	0.975441	0.234547	0.076191
C11	C	0.830089	0.119628	-0.000036
C12	C	0.737794	0.118013	-0.000033
C13	C	0.525448	0.114276	0.083075
C14	C	0.438728	0.112750	0.083072
C15	C	0.438748	0.112756	-0.083171
C16	C	0.525468	0.114277	-0.083167
C17	C	0.568815	0.115041	-0.000041
C18	C	0.395375	0.111994	-0.000048
C19	C	0.301350	0.110338	-0.000052
C20	C	0.662847	0.116695	-0.000037
C21	C	0.988206	-0.038488	-0.000031
C22	C	0.986591	-0.130784	-0.000030
C23	C	1.058599	-0.353056	-0.000046
C24	C	1.057074	-0.439776	-0.000054
C25	C	0.905586	-0.419902	-0.000046
C26	C	0.907111	-0.333184	-0.000045
C27	C	0.983620	-0.299763	-0.000040
C28	C	0.980571	-0.473202	-0.000049
C29	C	0.978918	-0.567228	-0.000057
C30	C	0.985273	-0.205731	-0.000034
C31	C	1.134101	0.107407	-0.000047
C32	C	1.226396	0.109022	-0.000056
C33	C	0.975984	0.265523	-0.000052
C34	C	0.977599	0.357819	-0.000060
N35	N	0.982088	0.113514	0.216954
N36	N	0.982108	0.113514	-0.217035
C37	C	1.038644	0.056996	0.451963
C38	C	1.038647	0.056994	0.547944
C39	C	0.925546	0.170035	0.547949
C40	C	0.925541	0.170032	0.451969
C41	C	0.982094	0.113514	0.403979
C42	C	0.982102	0.113514	0.595940
C43	C	0.982105	0.113513	0.700007
C44	C	0.982091	0.113514	0.299905
H45	H	0.403444	0.112135	-0.150849
H46	H	1.118130	-0.483165	-0.000060
C47	C	0.835983	-0.544012	-0.000032
C48	C	0.821490	-0.456642	-0.000037
H49	H	0.784064	-0.566690	-0.000019
H50	H	0.866848	-0.562299	-0.053205
H51	H	0.866857	-0.562301	0.053142
H52	H	0.790622	-0.438353	-0.053215
H53	H	0.790613	-0.438348	0.053142
H54	H	0.560778	0.114897	-0.150854
C55	C	1.128204	-0.228947	-0.000043
C56	C	1.142695	-0.316318	-0.000050
H57	H	1.180124	-0.206271	-0.000042
H58	H	1.097338	-0.210652	-0.053210
H59	H	1.097332	-0.210666	0.053137
H60	H	1.173562	-0.334599	-0.053234
H61	H	1.173573	-0.334620	0.053122
C62	C	0.516717	0.114103	0.247397
C63	C	0.573098	0.115103	0.174445
H64	H	0.546135	0.114606	0.303806
H65	H	0.476543	0.161963	0.243941
H66	H	0.489245	0.065054	0.243927
H67	H	0.600565	0.164156	0.177912
H68	H	0.613287	0.067239	0.177903
C69	C	0.757211	-0.322242	-0.000028
C70	C	0.824687	-0.274597	-0.000035
H71	H	0.706330	-0.286071	-0.000019
H72	H	0.759766	-0.356472	-0.053198
H73	H	0.759770	-0.356485	0.053149
H74	H	0.822132	-0.240357	-0.053216
H75	H	0.822131	-0.240352	0.053140
H76	H	1.084692	0.010975	0.412892
C77	C	0.350578	0.039598	0.179518
C78	C	0.391064	0.111906	0.174439
H79	H	0.321158	0.039074	0.235930
H80	H	0.312349	0.038934	0.130024
H81	H	0.390775	-0.008254	0.176061
H82	H	0.350866	0.159758	0.177890
H83	H	0.429296	0.112577	0.223946
C84	C	0.876675	0.313952	0.577479
C85	C	0.863386	0.232162	0.600698
H86	H	0.838295	0.352306	0.610038
H87	H	0.932150	0.322995	0.593205
H88	H	0.868580	0.322025	0.513447
H89	H	0.871487	0.224087	0.664729
H90	H	0.807897	0.223116	0.584978
H91	H	1.084694	0.010972	0.587011
H92	H	0.879487	0.216056	0.412898
