data_functionalizedCrystal
_audit_creation_method	'MofGen! by Chris Wilmer'
_symmetry_space_group_name_H-M	'P1'
_symmetry_Int_Tables_number	1
_symmetry_cell_setting	triclinic
loop_
_symmetry_equiv_pos_as_xyz
  x,y,z
_cell_length_a	27.732048
_cell_length_b	27.731993
_cell_length_c	26.809956
_cell_angle_alpha	90.002784
_cell_angle_beta	89.999364
_cell_angle_gamma	82.631525
loop_
_atom_site_label
_atom_site_type_symbol
_atom_site_fract_x
_atom_site_fract_y
_atom_site_fract_z
O1	O	0.057385	0.640948	-0.041351
O2	O	0.557385	1.140948	0.458649
O3	O	0.066158	0.500151	-0.041382
O4	O	0.566158	1.000151	0.458618
O5	O	-0.008626	0.574923	-0.041356
O6	O	0.491374	1.074923	0.458644
O7	O	0.132169	0.566177	-0.041377
O8	O	0.632169	1.066177	0.458623
O9	O	-0.008615	0.574908	0.041603
O10	O	0.491385	1.074908	0.541603
O11	O	0.066169	0.500137	0.041577
O12	O	0.566169	1.000137	0.541577
O13	O	0.057396	0.640934	0.041609
O14	O	0.557396	1.140934	0.541609
Zn15	Zn	0.061784	0.570533	0.054764
Zn16	Zn	0.561784	1.070533	0.554764
Zn17	Zn	0.061769	0.570552	-0.054538
Zn18	Zn	0.561769	1.070552	0.445462
O19	O	0.132180	0.566163	0.041582
O20	O	0.632180	1.066163	0.541582
C21	C	0.065983	0.482137	0.000094
C22	C	0.565983	0.982137	0.500094
C23	C	0.065441	0.428480	0.000082
C24	C	0.565441	0.928480	0.500082
C25	C	0.061504	0.045328	-0.045114
C26	C	0.561504	0.545328	0.454886
C27	C	0.063571	0.246985	-0.045128
C28	C	0.563571	0.746985	0.454872
O29	O	0.063814	0.273065	-0.083588
O30	O	0.563814	0.773065	0.416412
N31	N	0.063836	0.272198	0.000092
N32	N	0.563836	0.772198	0.500092
C33	C	0.063581	0.246993	0.045319
C34	C	0.563581	0.746993	0.545319
O35	O	0.063849	0.273066	0.083781
O36	O	0.563849	0.773066	0.583781
C37	C	0.061510	0.045337	0.045332
C38	C	0.561510	0.545337	0.545332
C39	C	0.061251	0.020127	0.000109
C40	C	0.561251	0.520127	0.500109
C41	C	0.061244	0.020117	-0.090333
C42	C	0.561244	0.520117	0.409667
C43	C	0.060730	-0.030295	-0.090329
C44	C	0.560730	0.469705	0.409671
C45	C	0.060476	-0.055496	-0.045106
C46	C	0.560476	0.444504	0.454894
C47	C	0.060736	-0.030285	0.000113
C48	C	0.560736	0.469715	0.500113
C49	C	0.061252	0.020134	0.090558
C50	C	0.561252	0.520134	0.590558
C51	C	0.060733	-0.030283	0.090558
C52	C	0.560733	0.469717	0.590558
C53	C	0.060473	-0.055493	0.045335
C54	C	0.560473	0.444507	0.545335
C55	C	0.059969	-0.105898	0.045340
C56	C	0.559969	0.394102	0.545340
N57	N	0.059704	-0.131110	0.000120
N58	N	0.559704	0.368890	0.500120
C59	C	0.059958	-0.105909	-0.045103
C60	C	0.559958	0.394091	0.454897
C61	C	0.064669	0.352866	0.045309
C62	C	0.564669	0.852866	0.545309
C63	C	0.065187	0.403279	0.045306
C64	C	0.565187	0.903279	0.545306
C65	C	0.065177	0.403268	-0.045141
C66	C	0.565177	0.903268	0.454859
C67	C	0.064662	0.352853	-0.045138
C68	C	0.564662	0.852853	0.454862
C69	C	0.064404	0.327653	0.000089
C70	C	0.564404	0.827653	0.500089
C71	C	0.058878	-0.211777	-0.045091
C72	C	0.558878	0.288223	0.454909
C73	C	0.058366	-0.262194	-0.045083
C74	C	0.558366	0.237806	0.454917
C75	C	0.058374	-0.262178	0.045363
C76	C	0.558374	0.237822	0.545363
C77	C	0.058889	-0.211766	0.045356
C78	C	0.558889	0.288234	0.545356
C79	C	0.059139	-0.186567	0.000124
C80	C	0.559139	0.313433	0.500124
O81	O	0.059720	-0.132008	0.083780
O82	O	0.559720	0.367992	0.583780
O83	O	0.059679	-0.131989	-0.083559
O84	O	0.559679	0.368011	0.416441
C85	C	0.062018	0.095740	-0.045118
C86	C	0.562018	0.595740	0.454882
C87	C	0.062279	0.120950	0.000101
C88	C	0.562279	0.620950	0.500101
C89	C	0.062025	0.095749	0.045325
C90	C	0.562025	0.595749	0.545325
C91	C	0.062797	0.171364	0.000098
C92	C	0.562797	0.671364	0.500098
C93	C	0.063051	0.196565	-0.045125
C94	C	0.563051	0.696565	0.454875
C95	C	0.062786	0.171352	-0.090345
C96	C	0.562786	0.671352	0.409655
C97	C	0.062272	0.120941	-0.090341
C98	C	0.562272	0.620941	0.409659
C99	C	0.062290	0.120962	0.090545
C100	C	0.562290	0.620962	0.590545
C101	C	0.062805	0.171373	0.090537
C102	C	0.562805	0.671373	0.590537
C103	C	0.063058	0.196574	0.045314
C104	C	0.563058	0.696574	0.545314
C105	C	-0.026628	0.574732	0.000125
C106	C	0.473372	1.074732	0.500125
C107	C	-0.080282	0.574179	0.000129
C108	C	0.419718	1.074179	0.500129
C109	C	-0.419105	0.614884	0.000113
C110	C	0.080895	1.114884	0.500113
C111	C	-0.620765	0.612833	0.000105
C112	C	-0.120765	1.112833	0.500105
O113	O	-0.652028	0.650055	0.000092
O114	O	-0.152028	1.150055	0.500092
N115	N	-0.639880	0.568497	0.000096
N116	N	-0.139880	1.068497	0.500096
C117	C	-0.608576	0.524670	0.000085
C118	C	-0.108576	1.024670	0.500085
O119	O	-0.629462	0.486912	0.000072
O120	O	-0.129462	0.986912	0.500072
C121	C	-0.406918	0.526721	0.000089
C122	C	0.093082	1.026721	0.500089
C123	C	-0.387806	0.571061	0.000103
C124	C	0.112194	1.071061	0.500103
C125	C	-0.399993	0.659220	0.000126
C126	C	0.100007	1.159220	0.500126
C127	C	-0.349581	0.659732	0.000131
C128	C	0.150419	1.159732	0.500131
C129	C	-0.318282	0.615909	0.000122
C130	C	0.181718	1.115909	0.500122
C131	C	-0.337394	0.571573	0.000108
C132	C	0.162606	1.071573	0.500108
C133	C	-0.375616	0.482895	0.000074
C134	C	0.124384	0.982895	0.500074
C135	C	-0.325199	0.483412	0.000074
C136	C	0.174801	0.983412	0.500074
C137	C	-0.306087	0.527751	0.000089
C138	C	0.193913	1.027751	0.500089
C139	C	-0.255683	0.528262	0.000103
C140	C	0.244317	1.028262	0.500103
N141	N	-0.236568	0.572598	0.000112
N142	N	0.263432	1.072598	0.500112
C143	C	-0.267867	0.616422	0.000122
C144	C	0.232133	1.116422	0.500122
C145	C	-0.714450	0.523596	0.000084
C146	C	-0.214450	1.023596	0.500084
C147	C	-0.764865	0.523083	0.000084
C148	C	-0.264865	1.023083	0.500084
C149	C	-0.777049	0.611246	0.000103
C150	C	-0.277049	1.111246	0.500103
C151	C	-0.726634	0.611759	0.000107
C152	C	-0.226634	1.111759	0.500107
C153	C	-0.695335	0.567932	0.000093
C154	C	-0.195335	1.067932	0.500093
C155	C	-0.161998	0.617494	0.000132
C156	C	0.338002	1.117494	0.500132
C157	C	-0.111582	0.618003	0.000138
C158	C	0.388418	1.118003	0.500138
C159	C	-0.099401	0.529839	0.000117
C160	C	0.400599	1.029839	0.500117
C161	C	-0.149814	0.529331	0.000113
C162	C	0.350186	1.029331	0.500113
C163	C	-0.181112	0.573162	0.000118
C164	C	0.318888	1.073162	0.500118
O165	O	-0.224392	0.491060	0.000111
O166	O	0.275608	0.991060	0.500111
O167	O	-0.246972	0.654174	0.000124
O168	O	0.253028	1.154174	0.500124
C169	C	-0.469517	0.614372	0.000108
C170	C	0.030483	1.114372	0.500108
C171	C	-0.488630	0.570036	0.000094
C172	C	0.011370	1.070036	0.500094
C173	C	-0.457331	0.526213	0.000085
C174	C	0.042669	1.026213	0.500085
C175	C	-0.539044	0.569523	0.000094
C176	C	-0.039044	1.069523	0.500094
C177	C	-0.570343	0.613346	0.000103
C178	C	-0.070343	1.113346	0.500103
C179	C	-0.551228	0.657683	0.000113
C180	C	-0.051228	1.157683	0.500113
C181	C	-0.500817	0.658195	0.000117
C182	C	-0.000817	1.158195	0.500117
C183	C	-0.476446	0.481876	0.000075
C184	C	0.023554	0.981876	0.500075
C185	C	-0.526858	0.481368	0.000071
C186	C	-0.026858	0.981368	0.500071
C187	C	-0.558157	0.525191	0.000081
C188	C	-0.058157	1.025191	0.500081
C189	C	0.150181	0.566353	0.000100
C190	C	0.650181	1.066353	0.500100
C191	C	0.203836	0.566906	0.000093
C192	C	0.703836	1.066906	0.500093
C193	C	0.057570	0.658949	0.000132
C194	C	0.557570	1.158949	0.500132
C195	C	0.058113	0.712605	0.000140
C196	C	0.558113	1.212605	0.500140
N197	N	0.061794	0.570524	0.129360
N198	N	0.561794	1.070524	0.629360
N199	N	0.061756	0.570565	-0.129134
N200	N	0.561756	1.070565	0.370866
C201	C	0.028663	0.603656	0.473998
C202	C	0.528663	1.103656	0.973998
C203	C	0.028656	0.603668	0.682876
C204	C	0.528656	1.103668	1.182876
O205	O	0.000489	0.631819	0.709889
O206	O	0.500489	1.131819	1.209889
N207	N	0.061759	0.570555	0.708988
N208	N	0.561759	1.070555	1.208988
C209	C	0.094864	0.537434	0.682877
C210	C	0.594864	1.037434	1.182877
O211	O	0.123016	0.509266	0.709879
O212	O	0.623016	1.009266	1.209879
C213	C	0.094869	0.537421	0.474000
C214	C	0.594869	1.037421	0.974000
C215	C	0.061767	0.570539	0.447891
C216	C	0.561767	1.070539	0.947891
C217	C	-0.004437	0.636772	0.447889
C218	C	0.495563	1.136772	0.947889
C219	C	-0.004433	0.636771	0.395673
C220	C	0.495567	1.136771	0.895673
C221	C	0.028671	0.603654	0.369565
C222	C	0.528671	1.103654	0.869565
C223	C	0.061771	0.570538	0.395675
C224	C	0.561771	1.070538	0.895675
C225	C	0.127971	0.504298	0.447890
C226	C	0.627971	1.004298	0.947890
C227	C	0.127968	0.504297	0.395668
C228	C	0.627968	1.004297	0.895668
C229	C	0.094867	0.537415	0.369559
C230	C	0.594867	1.037415	0.869559
C231	C	0.094878	0.537419	0.317351
C232	C	0.594878	1.037419	0.817351
N233	N	0.061775	0.570533	0.291239
N234	N	0.561775	1.070533	0.791239
C235	C	0.028671	0.603650	0.317347
C236	C	0.528671	1.103650	0.817347
C237	C	0.094860	0.537444	0.792540
C238	C	0.594860	1.037444	1.292540
C239	C	0.094859	0.537448	0.844759
C240	C	0.594859	1.037448	1.344759
C241	C	0.028650	0.603681	0.844754
C242	C	0.528650	1.103681	1.344754
C243	C	0.028653	0.603679	0.792534
C244	C	0.528653	1.103679	1.292534
C245	C	0.061757	0.570557	0.766428
C246	C	0.561757	1.070557	1.266428
C247	C	0.028683	0.603644	0.207689
C248	C	0.528683	1.103644	0.707689
C249	C	0.028691	0.603641	0.155468
C250	C	0.528691	1.103641	0.655468
C251	C	0.094898	0.537406	0.155477
C252	C	0.594898	1.037406	0.655477
C253	C	0.094891	0.537411	0.207693
C254	C	0.594891	1.037411	0.707693
C255	C	0.061780	0.570532	0.233798
C256	C	0.561780	1.070532	0.733798
O257	O	0.123026	0.509280	0.290305
O258	O	0.623026	1.009280	0.790305
O259	O	0.000516	0.631806	0.290335
O260	O	0.500516	1.131806	0.790335
C261	C	0.028659	0.603658	0.526214
C262	C	0.528659	1.103658	1.026214
C263	C	0.061759	0.570542	0.552324
C264	C	0.561759	1.070542	1.052324
C265	C	0.094862	0.537425	0.526216
C266	C	0.594862	1.037425	1.026216
C267	C	0.061758	0.570546	0.604542
C268	C	0.561758	1.070546	1.104542
C269	C	0.028655	0.603663	0.630650
C270	C	0.528655	1.103663	1.130650
C271	C	-0.004448	0.636777	0.604538
C272	C	0.495552	1.136777	1.104538
C273	C	-0.004444	0.636775	0.552322
C274	C	0.495556	1.136775	1.052322
C275	C	0.127965	0.504312	0.552328
C276	C	0.627965	1.004312	1.052328
C277	C	0.127959	0.504316	0.604545
C278	C	0.627959	1.004316	1.104545
C279	C	0.094855	0.537433	0.630652
C280	C	0.594855	1.037433	1.130652
H281	H	0.061449	0.040631	-0.127161
H282	H	0.561449	0.540631	0.372839
Br283	Br	-0.085647	0.678181	0.000158
Br284	Br	0.414353	1.178181	0.500158
H285	H	0.060516	-0.050816	-0.127155
H286	H	0.560516	0.449184	0.372845
Br287	Br	-0.552789	0.421187	0.000056
Br288	Br	-0.052789	0.921187	0.500056
H289	H	-0.031401	0.663744	0.625803
H290	H	0.468599	1.163744	1.125803
H291	H	-0.688970	0.487905	0.000073
H292	H	-0.188970	0.987905	0.500073
H293	H	-0.391168	0.446789	0.000060
H294	H	0.108832	0.946789	0.500060
Br295	Br	0.172897	0.459349	0.483313
Br296	Br	0.672897	0.959349	0.983313
Br297	Br	0.139823	0.492469	0.243126
Br298	Br	0.639823	0.992469	0.743126
H299	H	-0.425472	0.694908	0.000132
H300	H	0.074528	1.194908	0.500132
Br301	Br	-0.056915	0.470368	0.000104
Br302	Br	0.443085	0.970368	0.500104
H303	H	0.058156	-0.282718	-0.081911
H304	H	0.558156	0.217282	0.418089
Br305	Br	0.172895	0.459340	0.360241
Br306	Br	0.672895	0.959340	0.860241
Br307	Br	0.172890	0.459368	0.639973
Br308	Br	0.672890	0.959368	1.139973
Br309	Br	-0.433975	0.422395	0.000060
Br310	Br	0.066025	0.922395	0.500060
H311	H	0.059083	-0.191266	-0.081923
H312	H	0.559083	0.308734	0.418077
Br313	Br	0.139824	0.492464	0.120037
Br314	Br	0.639824	0.992464	0.620037
H315	H	0.064458	0.332353	0.082140
H316	H	0.564458	0.832353	0.582140
Br317	Br	-0.282724	0.423930	0.000054
Br318	Br	0.217276	0.923930	0.500054
H319	H	0.064450	0.332329	-0.081962
H320	H	0.564450	0.832329	0.418038
H321	H	0.059110	-0.191240	0.082180
H322	H	0.559110	0.308760	0.582180
H323	H	0.001735	0.630612	0.134211
H324	H	0.501735	1.130612	0.634211
Br325	Br	0.063162	0.205581	0.151917
Br326	Br	0.563162	0.705581	0.651917
H327	H	0.121819	0.510484	0.866013
H328	H	0.621819	1.010484	1.366013
Br329	Br	-0.016272	0.648628	0.757106
Br330	Br	0.483728	1.148628	1.257106
Br331	Br	-0.175753	0.469156	0.000104
Br332	Br	0.324247	0.969156	0.500104
H333	H	0.065385	0.423795	-0.081964
H334	H	0.565385	0.923795	0.418036
Br335	Br	0.139790	0.492489	0.757116
Br336	Br	0.639790	0.992489	1.257116
Br337	Br	-0.016255	0.648595	0.243108
Br338	Br	0.483745	1.148595	0.743108
H339	H	-0.485261	0.694301	0.000129
H340	H	0.014739	1.194301	0.500129
Br341	Br	0.065552	0.437486	0.106682
Br342	Br	0.565552	0.937486	0.606682
Br343	Br	0.061606	0.054336	0.151937
Br344	Br	0.561606	0.554336	0.651937
H345	H	-0.031388	0.663737	0.374418
H346	H	0.468612	1.163737	0.874418
Br347	Br	-0.016275	0.648626	0.880196
Br348	Br	0.483725	1.148626	1.380196
Br349	Br	-0.593716	0.717157	0.000129
Br350	Br	-0.093716	1.217157	0.500129
Br351	Br	-0.049370	0.681724	0.516895
Br352	Br	0.450630	1.181724	1.016895
H353	H	0.058170	-0.282706	0.082183
H354	H	0.558170	0.217294	0.582183
H355	H	0.060527	-0.050798	0.127387
H356	H	0.560527	0.449202	0.627387
H357	H	0.062060	0.100419	-0.127166
H358	H	0.562060	0.600419	0.372834
H359	H	0.154922	0.477343	0.531076
H360	H	0.654922	0.977343	1.031076
H361	H	0.062081	0.100448	0.127372
H362	H	0.562081	0.600448	0.627372
Br363	Br	0.063133	0.205563	-0.151719
Br364	Br	0.563133	0.705563	0.348281
Br365	Br	-0.204466	0.676980	0.000139
Br366	Br	0.295534	1.176980	0.500139
H367	H	-0.334025	0.695838	0.000141
H368	H	0.165975	1.195838	0.500141
H369	H	-0.711077	0.647864	0.000118
H370	H	-0.211077	1.147864	0.500118
H371	H	-0.802542	0.646929	0.000111
H372	H	-0.302542	1.146929	0.500111
H373	H	-0.780421	0.486977	0.000081
H374	H	-0.280421	0.986977	0.500081
H375	H	-0.031396	0.663740	0.469141
H376	H	0.468604	1.163740	0.969141
