data_functionalizedCrystal
_audit_creation_method	'MofGen! by Chris Wilmer'
_symmetry_space_group_name_H-M	'P1'
_symmetry_Int_Tables_number	1
_symmetry_cell_setting	triclinic
loop_
_symmetry_equiv_pos_as_xyz
  x,y,z
_cell_length_a	16.625547
_cell_length_b	16.625546
_cell_length_c	19.077174
_cell_angle_alpha	92.270997
_cell_angle_beta	87.680275
_cell_angle_gamma	90.022405
loop_
_atom_site_label
_atom_site_type_symbol
_atom_site_fract_x
_atom_site_fract_y
_atom_site_fract_z
Zn1	Zn	1.250962	-0.339334	-0.398028
Zn2	Zn	1.750962	0.160666	0.101972
Zn3	Zn	1.245459	-0.468756	-0.280330
Zn4	Zn	1.745459	0.031244	0.219670
Zn5	Zn	1.110718	-0.333942	-0.280337
Zn6	Zn	1.610718	0.166058	0.219663
Zn7	Zn	1.116092	-0.474126	-0.397978
Zn8	Zn	1.616092	0.025874	0.102022
O9	O	1.180808	-0.404040	-0.339168
O10	O	1.680808	0.095960	0.160832
O11	O	1.363065	-0.356512	-0.382433
O12	O	1.863065	0.143488	0.117567
O13	O	1.223034	-0.446369	-0.181840
O14	O	1.723034	0.053631	0.318160
O15	O	1.129376	-0.221826	-0.295973
O16	O	1.629376	0.278174	0.204027
O17	O	1.359022	-0.451598	-0.295961
O18	O	1.859022	0.048402	0.204039
O19	O	1.232412	-0.225788	-0.382440
O20	O	1.732412	0.274212	0.117560
O21	O	1.124040	-0.347321	-0.181846
O22	O	1.624040	0.152679	0.318154
O23	O	0.998598	-0.352528	-0.295924
O24	O	1.498598	0.147472	0.204076
O25	O	1.138534	-0.460750	-0.496474
O26	O	1.638534	0.039250	0.003526
O27	O	1.002546	-0.455521	-0.382354
O28	O	1.502546	0.044479	0.117646
O29	O	1.237623	-0.361719	-0.496512
O30	O	1.737623	0.138281	0.003488
O31	O	1.228244	-0.582300	-0.295912
O32	O	1.728244	-0.082300	0.204088
O33	O	1.133199	-0.586245	-0.382347
O34	O	1.633199	-0.086245	0.117653
C35	C	0.971315	-0.404022	-0.339135
C36	C	1.471315	0.095978	0.160865
C37	C	0.881694	-0.404035	-0.339137
C38	C	1.381694	0.095965	0.160863
C39	C	0.808912	-0.404037	-0.339146
C40	C	1.308912	0.095963	0.160854
C41	C	0.717605	-0.404042	-0.339164
C42	C	1.217605	0.095958	0.160836
C43	C	0.644829	-0.404051	-0.339181
C44	C	1.144829	0.095949	0.160819
C45	C	0.553516	-0.404057	-0.339198
C46	C	1.053516	0.095943	0.160802
C47	C	1.180730	-0.613529	-0.339139
C48	C	1.680730	-0.113529	0.160861
C49	C	1.180772	-0.703151	-0.339149
C50	C	1.680772	-0.203151	0.160851
C51	C	1.180916	-1.031330	-0.339223
C52	C	1.680916	-0.531330	0.160777
C53	C	1.180873	-0.940020	-0.339204
C54	C	1.680873	-0.440020	0.160796
C55	C	1.180843	-0.867243	-0.339186
C56	C	1.680843	-0.367243	0.160814
C57	C	1.180802	-0.775928	-0.339168
C58	C	1.680802	-0.275928	0.160832
C59	C	1.391118	-0.404057	-0.339202
C60	C	1.891118	0.095943	0.160798
C61	C	1.480740	-0.404065	-0.339216
C62	C	1.980740	0.095935	0.160784
C63	C	1.189292	-0.412435	-0.522744
C64	C	1.689292	0.087565	-0.022744
C65	C	1.192907	-0.416012	-0.600974
C66	C	1.692907	0.083988	-0.100974
C67	C	1.180908	-0.193733	-0.339213
C68	C	1.680908	0.306267	0.160787
C69	C	1.180951	-0.104113	-0.339232
C70	C	1.680951	0.395887	0.160768
C71	C	1.143067	-0.366125	-0.637728
C72	C	1.643067	0.133875	-0.137728
C73	C	1.146461	-0.369494	-0.711233
C74	C	1.646461	0.130506	-0.211233
C75	C	1.199700	-0.422745	-0.747982
C76	C	1.699700	0.077255	-0.247982
C77	C	1.249542	-0.472638	-0.711222
C78	C	1.749542	0.027362	-0.211222
C79	C	1.246143	-0.469273	-0.637719
C80	C	1.746143	0.030727	-0.137719
C81	C	1.215387	-0.438342	-0.967814
C82	C	1.715387	0.061658	-0.467814
C83	C	1.218784	-0.441701	-1.041322
C84	C	1.718784	0.058299	-0.541322
C85	C	1.115702	-0.338557	-1.041328
C86	C	1.615702	0.161443	-0.541328
C87	C	1.112311	-0.335194	-0.967823
C88	C	1.612311	0.164806	-0.467823
C89	C	1.162150	-0.385090	-0.931070
C90	C	1.662150	0.114910	-0.431070
N91	N	1.203172	-0.426188	-0.823116
N92	N	1.703172	0.073812	-0.323116
N93	N	1.158673	-0.381651	-0.855937
N94	N	1.658673	0.118349	-0.355937
C95	C	1.172403	-0.395619	-0.156306
C96	C	1.672403	0.104381	0.343694
C97	C	1.168944	-0.391814	-0.078077
C98	C	1.668944	0.108186	0.421923
H99	H	1.099719	-0.322757	-0.607813
H100	H	1.599719	0.177243	-0.107813
H101	H	1.075125	-0.297936	-1.071260
H102	H	1.575125	0.202064	-0.571260
H103	H	1.105873	-0.328873	-0.741155
H104	H	1.605873	0.171127	-0.241155
H105	H	1.068957	-0.291833	-0.937907
H106	H	1.568957	0.208167	-0.437907
O107	O	1.270522	-0.493506	-1.076913
O108	O	1.770522	0.006494	-0.576913
C109	C	1.313797	-0.536810	-1.028713
C110	C	1.813797	-0.036810	-0.528713
H111	H	1.278348	-0.537206	-0.976311
H112	H	1.778348	-0.037206	-0.476311
H113	H	1.323347	-0.601309	-1.049942
H114	H	1.823347	-0.101309	-0.549942
H115	H	1.374689	-0.506935	-1.020909
H116	H	1.874689	-0.006935	-0.520909
O117	O	1.263689	-0.486889	-0.932089
O118	O	1.763689	0.013111	-0.432089
C119	C	1.215800	-0.537010	-0.889541
C120	C	1.715800	-0.037010	-0.389541
H121	H	1.153314	-0.542999	-0.911676
H122	H	1.653314	-0.042999	-0.411676
H123	H	1.244898	-0.599024	-0.888705
H124	H	1.744898	-0.099024	-0.388705
H125	H	1.210464	-0.509538	-0.833837
H126	H	1.710464	-0.009538	-0.333837
O127	O	1.294637	-0.517766	-0.602122
O128	O	1.794637	-0.017766	-0.102122
C129	C	1.342341	-0.565505	-0.650317
C130	C	1.842341	-0.065505	-0.150317
H131	H	1.347578	-0.534875	-0.702720
H132	H	1.847578	-0.034875	-0.202720
H133	H	1.404881	-0.573147	-0.629084
H134	H	1.904881	-0.073147	-0.129084
H135	H	1.313140	-0.627094	-0.658119
H136	H	1.813140	-0.127094	-0.158119
O137	O	1.301236	-0.524298	-0.747027
O138	O	1.801236	-0.024298	-0.247027
C139	C	1.293536	-0.516585	-0.819785
C140	C	1.793536	-0.016585	-0.319785
H141	H	1.267626	-0.454817	-0.829836
H142	H	1.767626	0.045183	-0.329836
H143	H	1.355222	-0.523341	-0.847727
H144	H	1.855222	-0.023341	-0.347727
H145	H	1.251538	-0.565361	-0.840626
H146	H	1.751538	-0.065361	-0.340626
