data_functionalizedCrystal
_audit_creation_method	'MofGen! by Chris Wilmer'
_symmetry_space_group_name_H-M	'P1'
_symmetry_Int_Tables_number	1
_symmetry_cell_setting	triclinic
loop_
_symmetry_equiv_pos_as_xyz
  x,y,z
_cell_length_a	10.540539
_cell_length_b	10.540539
_cell_length_c	9.016244
_cell_angle_alpha	90.000067
_cell_angle_beta	89.994699
_cell_angle_gamma	95.474508
loop_
_atom_site_label
_atom_site_type_symbol
_atom_site_fract_x
_atom_site_fract_y
_atom_site_fract_z
O1	O	1.685893	-0.178895	-0.123263
O2	O	1.316480	-0.195751	-0.123280
O3	O	1.509614	-0.002617	-0.123269
O4	O	1.492759	-0.372030	-0.123274
O5	O	1.509586	-0.002621	0.123411
O6	O	1.316452	-0.195755	0.123400
O7	O	1.685865	-0.178900	0.123418
Cu8	Cu	1.501156	-0.187328	0.145933
Cu9	Cu	1.501189	-0.187323	-0.145795
O10	O	1.492730	-0.372034	0.123407
C11	C	1.269163	-0.194489	0.000058
C12	C	1.128215	-0.190707	0.000051
C13	C	0.944788	-0.045790	0.000628
C14	C	1.091406	-0.049624	0.000057
C15	C	1.066558	-0.258600	-0.140811
C16	C	0.920014	-0.253785	-0.140914
C17	C	0.919493	-0.256660	0.139608
C18	C	1.066475	-0.257960	0.141455
C19	C	1.508336	0.044684	0.000068
C20	C	1.504554	0.185632	0.000060
C21	C	1.733182	-0.180161	0.000077
C22	C	1.874130	-0.183943	0.000074
C23	C	1.494008	-0.419335	0.000066
C24	C	1.497790	-0.560283	0.000064
N25	N	1.501141	-0.187331	0.351119
C26	C	1.359637	0.369059	-0.000500
C27	C	1.363471	0.222441	0.000055
C28	C	1.572434	0.247287	0.140930
C29	C	1.567619	0.393832	0.141049
C30	C	1.570520	0.394355	-0.139473
C31	C	1.571820	0.247373	-0.141336
N32	N	1.501213	-0.187310	-0.350982
C33	C	1.397510	-0.290298	0.586146
C34	C	1.397739	-0.290684	0.414255
C35	C	1.633864	-0.217464	0.413464
C36	C	1.633298	-0.218193	0.585409
C37	C	1.473367	-0.053892	0.585663
C38	C	1.470322	-0.054757	0.413709
H39	H	0.916191	0.009944	0.101649
H40	H	1.133163	0.004177	-0.101092
O41	O	1.340982	-0.024495	0.359765
H42	H	1.298816	-0.103533	0.288662
O43	O	1.347859	-0.015918	0.643170
H44	H	1.330428	0.078447	0.596909
O45	O	1.708075	0.215297	-0.152604
H46	H	1.773050	0.304586	-0.151219
O47	O	1.420907	-0.420674	0.643354
H48	H	1.347180	-0.492652	0.598315
O49	O	1.266472	-0.266658	0.640985
H50	H	1.204245	-0.250591	0.544820
H51	H	0.914592	0.009712	-0.099828
H52	H	1.672424	0.441581	-0.140416
O53	O	0.877700	-0.196180	0.281043
H54	H	0.910839	-0.249172	0.377776
H55	H	0.891816	-0.203602	-0.246209
O56	O	1.738586	-0.120819	0.359291
H57	H	1.831325	-0.144262	0.404916
O58	O	1.666840	-0.344949	0.356421
H59	H	1.756984	-0.331703	0.292217
H60	H	1.540849	0.025564	0.370737
O61	O	1.573505	0.047658	0.639525
H62	H	1.642781	0.003405	0.711071
O63	O	1.738672	-0.122710	0.640516
H64	H	1.789814	-0.076226	0.544349
O65	O	1.147852	0.021120	0.133818
H66	H	1.070433	0.058393	0.199491
H67	H	1.517429	0.422030	0.246347
O68	O	0.856458	-0.388177	-0.149415
H69	H	0.930432	-0.456316	-0.153447
H70	H	1.299123	-0.272553	0.372106
O71	O	1.285808	0.406936	-0.134304
H72	H	1.199672	0.450962	-0.097192
O73	O	1.096170	-0.395839	-0.147783
H74	H	1.155292	-0.417161	-0.050695
O75	O	1.122962	-0.196122	-0.279685
H76	H	1.194890	-0.116728	-0.248736
O77	O	1.120710	-0.192274	0.279505
H78	H	1.191348	-0.112065	0.247559
O79	O	1.702010	0.457388	0.149557
H80	H	1.770149	0.383414	0.153580
O81	O	1.421456	-0.421793	0.359729
H82	H	1.432819	-0.485165	0.456174
H83	H	1.090700	-0.360819	0.149959
O84	O	0.856927	-0.391638	0.140897
H85	H	0.793821	-0.406921	0.042697
O86	O	1.506126	0.193149	-0.279384
H87	H	1.554224	0.237266	-0.378820
H88	H	1.310059	0.179839	-0.100926
H89	H	1.304121	0.399265	0.099949
H90	H	1.525258	0.204686	0.245756
H91	H	1.676041	0.224933	0.146173
O92	O	1.292224	0.167113	0.134048
H93	H	1.254902	0.245097	0.198709
O94	O	1.510056	0.436135	-0.280912
H95	H	1.427482	0.489705	-0.253326
H96	H	1.657653	-0.315531	0.625498
