data_functionalizedCrystal
_audit_creation_method	'MofGen! by Chris Wilmer'
_symmetry_space_group_name_H-M	'P1'
_symmetry_Int_Tables_number	1
_symmetry_cell_setting	triclinic
loop_
_symmetry_equiv_pos_as_xyz
  x,y,z
_cell_length_a	16.793024
_cell_length_b	16.793047
_cell_length_c	33.586455
_cell_angle_alpha	113.253857
_cell_angle_beta	66.219990
_cell_angle_gamma	112.758327
loop_
_atom_site_label
_atom_site_type_symbol
_atom_site_fract_x
_atom_site_fract_y
_atom_site_fract_z
O1	O	0.005016	-0.570216	-0.583573
O2	O	-0.034529	-0.474528	-0.453458
O3	O	0.114723	-0.474535	-0.528082
O4	O	-0.144235	-0.570209	-0.508949
O5	O	0.108729	-0.346329	-0.530229
O6	O	-0.040523	-0.346322	-0.455605
O7	O	-0.000977	-0.442010	-0.585721
Cu8	Cu	-0.021297	-0.382459	-0.520859
Cu9	Cu	-0.014209	-0.534079	-0.518320
O10	O	-0.150229	-0.442003	-0.511097
C11	C	0.005100	-0.790970	-0.238461
C12	C	0.009223	-0.693065	-0.217557
C13	C	0.003804	-0.645758	-0.241627
C14	C	-0.075059	-0.538459	-0.266316
C15	C	0.049838	-0.422849	-0.250165
C16	C	-0.040584	-0.395375	-0.435637
C17	C	-0.044693	-0.353446	-0.386631
C18	C	-0.039275	-0.401741	-0.363054
C19	C	-0.040566	-0.125547	-0.300731
C20	C	-0.044689	-0.223451	-0.321635
C21	C	-0.039266	-0.270752	-0.297563
C22	C	0.039597	-0.378051	-0.272874
C23	C	-0.085304	-0.493667	-0.289026
C24	C	0.005118	-0.521142	-0.103554
C25	C	0.009231	-0.563064	-0.152559
C26	C	0.003809	-0.514775	-0.176138
C27	C	0.010758	-0.652581	-0.172822
C28	C	0.001010	-0.556371	-0.220792
C29	C	-0.008251	-0.506059	-0.245823
C30	C	-0.046224	-0.263935	-0.366370
C31	C	-0.036476	-0.360146	-0.318399
C32	C	-0.027211	-0.410451	-0.293367
C33	C	0.815184	-0.521162	-0.508596
C34	C	0.717729	-0.563083	-0.506815
C35	C	0.669923	-0.514793	-0.509201
C36	C	0.564072	-0.463272	-0.548285
C37	C	0.445555	-0.498966	-0.486078
C38	C	0.415541	-0.125553	-0.528781
C39	C	0.375032	-0.223457	-0.531493
C40	C	0.423813	-0.270761	-0.529101
C41	C	0.149318	-0.395376	-0.530584
C42	C	0.246774	-0.353455	-0.532364
C43	C	0.294574	-0.401748	-0.529976
C44	C	0.400424	-0.453269	-0.490892
C45	C	0.518948	-0.417572	-0.553101
C46	C	0.548961	-0.790984	-0.510398
C47	C	0.589464	-0.693083	-0.507684
C48	C	0.540690	-0.645776	-0.510078
C49	C	0.678399	-0.652598	-0.506649
C50	C	0.581167	-0.556389	-0.510877
C51	C	0.530434	-0.506073	-0.515170
C52	C	0.286104	-0.263940	-0.532530
C53	C	0.383336	-0.360149	-0.528302
C54	C	0.434062	-0.410467	-0.524008
C55	C	-0.040530	-0.395407	-0.935652
C56	C	-0.044651	-0.353482	-0.886645
C57	C	-0.039242	-0.401770	-0.863061
C58	C	0.039602	-0.453292	-0.810474
C59	C	-0.085288	-0.417587	-0.750981
C60	C	0.005063	-0.791004	-0.738448
C61	C	0.009186	-0.693099	-0.717543
C62	C	0.003779	-0.645796	-0.741620
C63	C	0.005077	-0.521171	-0.603544
C64	C	0.009198	-0.563096	-0.652550
C65	C	0.003786	-0.514804	-0.676131
C66	C	-0.075058	-0.463283	-0.728717
C67	C	0.049835	-0.498991	-0.788214
C68	C	-0.040516	-0.125574	-0.800747
C69	C	-0.044642	-0.223476	-0.821649
C70	C	-0.039232	-0.270782	-0.797575
C71	C	-0.046172	-0.263965	-0.866386
C72	C	-0.036447	-0.360171	-0.818406
C73	C	-0.027197	-0.410486	-0.793373
C74	C	0.010719	-0.652613	-0.672809
C75	C	0.000994	-0.556406	-0.720789
C76	C	-0.008259	-0.506089	-0.745819
O77	O	-0.000965	0.173549	-0.277957
O78	O	-0.040516	-0.085616	-0.325254
O79	O	0.108737	0.059592	-0.327284
O80	O	-0.150219	0.028341	-0.275927
O81	O	0.114753	0.055151	-0.263265
O82	O	-0.034500	-0.090057	-0.261234
O83	O	0.005051	0.169108	-0.213937
Cu84	Cu	-0.014175	0.039120	-0.231740
Cu85	Cu	-0.021290	0.044372	-0.307451
O86	O	-0.144202	0.023900	-0.211907
O87	O	-0.034458	-0.474571	0.046517
O88	O	0.005076	-0.570190	-0.083599
O89	O	-0.144170	-0.570237	-0.008972
O90	O	0.114787	-0.474523	-0.028110
O91	O	-0.150200	-0.442024	-0.011093
O92	O	-0.000954	-0.441976	-0.085720
O93	O	-0.040488	-0.346357	0.044396
Cu94	Cu	-0.021272	-0.382460	-0.020856
Cu95	Cu	-0.014141	-0.534087	-0.018347
O96	O	0.108757	-0.346309	-0.030231
C97	C	-0.850734	0.086244	-0.289716
C98	C	-0.753280	0.087165	-0.312001
C99	C	-0.705462	0.081107	-0.288506
C100	C	-0.599592	0.000085	-0.264184
C101	C	-0.481080	0.121287	-0.283645
C102	C	-0.450996	0.035117	-0.097351
C103	C	-0.410501	0.028587	-0.146852
C104	C	-0.459292	0.034683	-0.169840
C105	C	-0.184802	0.024283	-0.235878
C106	C	-0.282257	0.023363	-0.213592
C107	C	-0.330068	0.029423	-0.237088
C108	C	-0.435938	0.110445	-0.261411
C109	C	-0.554456	-0.010759	-0.241948
C110	C	-0.584541	0.075410	-0.428242
C111	C	-0.625029	0.081943	-0.378743
C112	C	-0.576244	0.075844	-0.355753
C113	C	-0.713963	0.086424	-0.357292
C114	C	-0.616708	0.075351	-0.310510
C115	C	-0.565963	0.065400	-0.286043
C116	C	-0.321573	0.024104	-0.168302
C117	C	-0.418828	0.035176	-0.215083
C118	C	-0.469568	0.045131	-0.239552
O119	O	0.585213	0.169090	-0.504004
O120	O	0.494056	-0.090076	-0.525516
O121	O	0.488081	0.055124	-0.449918
O122	O	0.591189	0.023889	-0.579602
O123	O	0.359978	0.059584	-0.452885
O124	O	0.365953	-0.085616	-0.528483
O125	O	0.457110	0.173550	-0.506971
Cu126	Cu	0.399835	0.044374	-0.517998
Cu127	Cu	0.551332	0.039099	-0.514489
O128	O	0.463086	0.028349	-0.582569
C129	C	0.815354	-0.521094	-0.008709
C130	C	0.717898	-0.563028	-0.006927
C131	C	0.670072	-0.514739	-0.009298
C132	C	0.564182	-0.463204	-0.048354
C133	C	0.445681	-0.498945	0.013847
C134	C	0.415547	-0.125494	-0.028771
C135	C	0.375059	-0.223405	-0.031498
C136	C	0.423859	-0.270708	-0.029121
C137	C	0.149365	-0.395355	-0.030599
C138	C	0.246820	-0.353421	-0.032381
C139	C	0.294640	-0.401713	-0.030008
C140	C	0.400530	-0.453248	0.009048
C141	C	0.519038	-0.417504	-0.053155
C142	C	0.549171	-0.790955	-0.010537
C143	C	0.589653	-0.693047	-0.007809
C144	C	0.540859	-0.645741	-0.010187
C145	C	0.678588	-0.652551	-0.006775
C146	C	0.581317	-0.556344	-0.010973
C147	C	0.530562	-0.506029	-0.015250
C148	C	0.286131	-0.263897	-0.032533
C149	C	0.383402	-0.360104	-0.028335
C150	C	0.434150	-0.410423	-0.024057
O151	O	-0.620614	0.089309	0.052274
O152	O	-0.529507	0.043784	-0.078544
O153	O	-0.523494	0.194833	-0.006033
O154	O	-0.626628	-0.061740	-0.020236
O155	O	-0.395386	0.185419	-0.005549
O156	O	-0.401400	0.034370	-0.078059
O157	O	-0.492507	0.079895	0.052758
Cu158	Cu	-0.435256	0.056273	-0.012607
Cu159	Cu	-0.586758	0.067406	-0.013179
O160	O	-0.498521	-0.071154	-0.019752
C161	C	-0.437537	0.048335	0.402491
C162	C	-0.397043	0.041789	0.352989
C163	C	-0.445822	0.047883	0.329994
C164	C	-0.496646	0.126653	0.277022
C165	C	-0.465894	-0.000633	0.218811
C166	C	-0.837226	0.099430	0.210091
C167	C	-0.739773	0.100339	0.187806
C168	C	-0.691967	0.094287	0.211308
C169	C	-0.571027	0.088563	0.071568
C170	C	-0.611521	0.095108	0.121070
C171	C	-0.562739	0.089011	0.144061
C172	C	-0.511915	0.010241	0.197033
C173	C	-0.542670	0.137531	0.255247
C174	C	-0.171338	0.037467	0.263967
C175	C	-0.268788	0.036555	0.286249
C176	C	-0.316597	0.042611	0.262750
C177	C	-0.308112	0.037305	0.331542
C178	C	-0.405351	0.048369	0.284750
C179	C	-0.456092	0.058317	0.260279
C180	C	-0.700452	0.099593	0.142516
C181	C	-0.603213	0.088528	0.189308
C182	C	-0.552469	0.078578	0.213776
O183	O	-0.040608	-1.085661	-0.825229
O184	O	-0.001018	-0.826491	-0.777938
O185	O	-0.150287	-0.971682	-0.775894
O186	O	0.108661	-0.940470	-0.827272
O187	O	-0.144253	-0.976123	-0.711878
O188	O	0.005016	-0.830932	-0.713922
O189	O	-0.034575	-1.090102	-0.761213
Cu190	Cu	-0.014228	-0.960923	-0.731722
Cu191	Cu	-0.021364	-0.955670	-0.807428
O192	O	0.114695	-0.944911	-0.763256
C193	C	-0.036587	-0.225633	-0.248813
C194	C	-0.115212	-0.197561	-0.222306
C195	C	-0.112787	-0.156006	-0.177394
H196	H	0.014756	-0.174936	-0.247781
H197	H	-0.032968	-0.267195	-0.237357
H198	H	-0.118822	-0.156002	-0.233759
H199	H	-0.166568	-0.248241	-0.223325
H200	H	-0.109167	-0.197567	-0.165938
H201	H	-0.061440	-0.105312	-0.176366
H202	H	-0.166135	-0.136961	-0.159403
H203	H	0.702857	-0.441654	-0.509785
C204	C	-0.161756	-0.534539	-0.310450
C205	C	-0.158187	-0.476033	-0.331817
C206	C	-0.228590	-0.513658	-0.351563
H207	H	-0.218090	-0.543661	-0.287611
H208	H	-0.155588	-0.590625	-0.332199
H209	H	-0.164362	-0.419963	-0.310070
H210	H	-0.101868	-0.466906	-0.354662
H211	H	-0.222423	-0.569745	-0.373312
H212	H	-0.284920	-0.522779	-0.328721
H213	H	-0.226173	-0.473972	-0.366066
C214	C	0.732566	-0.705715	-0.005456
C215	C	0.808846	-0.708469	-0.043609
C216	C	0.858588	-0.757433	-0.042404
H217	H	0.696035	-0.765297	-0.005484
H218	H	0.751110	-0.677465	0.021269
H219	H	0.790301	-0.736720	-0.070327
H220	H	0.845399	-0.648900	-0.043588
H221	H	0.877132	-0.729183	-0.015679
H222	H	0.822049	-0.817011	-0.042431
H223	H	0.910353	-0.759301	-0.068288
H224	H	-0.754334	0.089615	-0.376700
C225	C	0.403254	-0.543816	-0.448128
C226	C	0.462448	-0.586415	-0.450187
C227	C	0.423518	-0.627732	-0.415232
H228	H	0.347911	-0.587159	-0.451464
H229	H	0.392049	-0.499595	-0.419681
H230	H	0.473640	-0.630631	-0.478627
H231	H	0.517792	-0.543091	-0.446845
H232	H	0.412313	-0.583511	-0.386785
H233	H	0.368175	-0.671070	-0.418571
H234	H	0.463678	-0.656633	-0.416622
H235	H	0.634089	-0.467700	-0.572564
H236	H	0.496441	-0.236915	-0.527803
H237	H	0.261638	-0.474883	-0.529387
C238	C	-0.542684	0.053945	0.353787
C239	C	-0.576998	0.059419	0.323528
C240	C	-0.666228	0.064989	0.345428
H241	H	-0.544051	0.106060	0.379122
H242	H	-0.578576	0.001880	0.363827
H243	H	-0.541116	0.111478	0.313495
H244	H	-0.575654	0.007310	0.298192
H245	H	-0.702120	0.012924	0.355468
H246	H	-0.667587	0.117105	0.370763
H247	H	-0.689524	0.068696	0.324900
H248	H	0.468064	-0.679625	-0.511379
H249	H	0.001660	-0.441639	-0.159184
H250	H	0.718758	-0.692512	-0.505593
H251	H	-0.740818	0.102779	0.123104
C252	C	0.561570	-0.372819	-0.591099
C253	C	0.646635	-0.388123	-0.616305
C254	C	0.685925	-0.346906	-0.651311
H255	H	0.568120	-0.309891	-0.578529
H256	H	0.523971	-0.397422	-0.610324
H257	H	0.684226	-0.363516	-0.597082
H258	H	0.640111	-0.451041	-0.628885
H259	H	0.648326	-0.371509	-0.670536
H260	H	0.692469	-0.283981	-0.638736
H261	H	0.743642	-0.357291	-0.668419
H262	H	0.413839	-0.532573	0.042316
H263	H	0.245737	-0.223998	-0.033572
H264	H	-0.142686	-0.383972	-0.734830
C265	C	0.001090	-0.690952	-0.290369
C266	C	0.079696	-0.719060	-0.316870
C267	C	0.077231	-0.760704	-0.361773
H268	H	-0.002530	-0.649458	-0.301861
H269	H	-0.050283	-0.741644	-0.291360
H270	H	0.131055	-0.668375	-0.315881
H271	H	0.083332	-0.760564	-0.305392
H272	H	0.025858	-0.811395	-0.362764
H273	H	0.073609	-0.719204	-0.373260
H274	H	0.130560	-0.779787	-0.379758
H275	H	0.468233	-0.679598	-0.011487
H276	H	0.634201	-0.467612	-0.072637
H277	H	0.550886	-0.383867	-0.081621
H278	H	-0.037089	-0.236932	-0.761035
H279	H	-0.281187	0.020914	-0.148901
H280	H	-0.669612	-0.046576	-0.265443
H281	H	0.088092	-0.309407	-0.275738
H282	H	-0.048809	-0.224052	-0.886301
H283	H	0.107243	-0.392097	-0.234140
C284	C	0.250602	-0.499193	-0.029169
C285	C	0.174003	-0.503870	0.008710
C286	C	0.133409	-0.593654	0.009496
H287	H	0.292290	-0.522239	-0.027473
H288	H	0.233322	-0.533878	-0.056026
H289	H	0.191285	-0.469198	0.035561
H290	H	0.132295	-0.480843	0.007023
H291	H	0.116128	-0.628339	-0.017361
H292	H	0.175103	-0.616692	0.011191
H293	H	0.081427	-0.596840	0.035194
C294	C	0.232161	-0.210721	-0.533833
C295	C	0.155810	-0.208094	-0.495714
C296	C	0.106099	-0.159069	-0.496894
H297	H	0.213683	-0.238849	-0.560572
H298	H	0.268710	-0.151109	-0.533743
H299	H	0.119268	-0.267695	-0.495808
H300	H	0.174262	-0.179959	-0.468970
H301	H	0.142648	-0.099456	-0.496804
H302	H	0.087627	-0.187202	-0.523634
H303	H	0.054294	-0.157273	-0.471029
H304	H	-0.037104	-0.474911	-0.880014
C305	C	0.014461	-0.705779	-0.146312
C306	C	0.092799	-0.735573	-0.168284
C307	C	0.096246	-0.784569	-0.143872
H308	H	-0.037174	-0.756200	-0.144606
H309	H	0.015311	-0.668372	-0.116553
H310	H	0.091942	-0.772978	-0.198035
H311	H	0.144447	-0.685171	-0.169990
H312	H	0.097096	-0.747162	-0.114112
H313	H	0.044608	-0.834985	-0.142167
H314	H	0.149402	-0.804783	-0.158773
H315	H	-0.123560	-0.607102	-0.263443
C316	C	-0.749464	0.080559	-0.239179
C317	C	-0.826046	0.006855	-0.235812
C318	C	-0.866597	0.006317	-0.190380
H319	H	-0.766766	0.134709	-0.221569
H320	H	-0.707721	0.076023	-0.228255
H321	H	-0.867782	0.011398	-0.246731
H322	H	-0.808770	-0.047307	-0.253412
H323	H	-0.824854	0.001781	-0.179456
H324	H	-0.883893	0.060470	-0.172774
H325	H	-0.918558	-0.043695	-0.188090
C326	C	0.001126	-0.417225	-0.653542
C327	C	0.079755	-0.366348	-0.640573
C328	C	0.077350	-0.276451	-0.619771
H329	H	-0.050215	-0.413755	-0.627499
H330	H	-0.002485	-0.394219	-0.674278
H331	H	0.083358	-0.389347	-0.619839
H332	H	0.131109	-0.369791	-0.666609
H333	H	0.073739	-0.253445	-0.640507
H334	H	0.026006	-0.272991	-0.593730
H335	H	0.130702	-0.241918	-0.610973
C336	C	-0.597042	-0.085636	-0.219018
C337	C	-0.682101	-0.133765	-0.225524
C338	C	-0.721345	-0.202763	-0.204417
H339	H	-0.603595	-0.060361	-0.187464
H340	H	-0.559414	-0.125082	-0.231848
H341	H	-0.719720	-0.094327	-0.212691
H342	H	-0.675573	-0.159062	-0.257072
H343	H	-0.683716	-0.242208	-0.217248
H344	H	-0.727891	-0.177479	-0.172865
H345	H	-0.779057	-0.235432	-0.208832
H346	H	-0.490116	0.084434	0.126151
C347	C	0.126316	-0.543898	-0.809832
C348	C	0.117023	-0.607624	-0.851036
C349	C	0.187464	-0.649004	-0.870965
H350	H	0.124106	-0.572939	-0.790056
H351	H	0.182620	-0.499693	-0.815184
H352	H	0.060734	-0.651822	-0.845682
H353	H	0.119243	-0.578606	-0.870823
H354	H	0.243768	-0.604799	-0.876318
H355	H	0.185248	-0.678040	-0.851186
H356	H	0.181173	-0.692241	-0.898926
C357	C	-0.139864	-0.469292	-0.682119
C358	C	-0.228061	-0.511292	-0.685228
C359	C	-0.287789	-0.516854	-0.642310
H360	H	-0.136831	-0.410455	-0.661750
H361	H	-0.123593	-0.503432	-0.671268
H362	H	-0.244328	-0.477152	-0.696072
H363	H	-0.231124	-0.570134	-0.705588
H364	H	-0.271518	-0.550994	-0.631460
H365	H	-0.284747	-0.458014	-0.621945
H366	H	-0.347636	-0.545358	-0.644415
C367	C	0.520639	-0.225484	-0.027301
C368	C	0.522251	-0.150907	0.011122
C369	C	0.611388	-0.109236	0.012816
H370	H	0.556571	-0.206264	-0.053778
H371	H	0.544076	-0.267027	-0.025730
H372	H	0.498826	-0.109371	0.009548
H373	H	0.486338	-0.170102	0.037606
H374	H	0.634825	-0.150779	0.014386
H375	H	0.647312	-0.090022	-0.013663
H376	H	0.612492	-0.058636	0.038887
C377	C	0.104199	-0.447258	-0.857110
C378	C	0.079946	-0.396952	-0.872978
C379	C	0.139439	-0.391370	-0.915935
H380	H	0.101097	-0.506090	-0.877490
H381	H	0.164113	-0.418746	-0.855103
H382	H	0.020047	-0.425465	-0.874989
H383	H	0.083053	-0.338112	-0.852611
H384	H	0.199353	-0.362859	-0.913928
H385	H	0.136333	-0.450206	-0.936311
H386	H	0.122997	-0.357231	-0.926705
H387	H	0.001632	-0.679646	-0.778160
C388	C	0.014030	-0.705833	-0.646193
C389	C	-0.062173	-0.708460	-0.608036
C390	C	-0.059163	-0.757488	-0.583508
H391	H	0.067134	-0.677709	-0.636767
H392	H	0.014644	-0.765446	-0.664866
H393	H	-0.062777	-0.648858	-0.589366
H394	H	-0.115287	-0.736592	-0.617449
H395	H	-0.058550	-0.817101	-0.602181
H396	H	-0.006057	-0.729359	-0.574085
H397	H	-0.110869	-0.759284	-0.557618
C398	C	0.714004	-0.417164	-0.009979
C399	C	0.739295	-0.366320	0.029668
C400	C	0.779770	-0.276429	0.029062
H401	H	0.672281	-0.394088	-0.011622
H402	H	0.766042	-0.413753	-0.035640
H403	H	0.687264	-0.369726	0.055322
H404	H	0.781027	-0.389368	0.031320
H405	H	0.831808	-0.273018	0.003401
H406	H	0.738042	-0.253362	0.027417
H407	H	0.796942	-0.241922	0.055960
C408	C	-0.556052	0.041007	-0.145917
C409	C	-0.557604	0.117911	-0.108614
C410	C	-0.646714	0.123796	-0.086571
H411	H	-0.592033	-0.010959	-0.135815
H412	H	-0.579463	0.044815	-0.166373
H413	H	-0.534205	0.114096	-0.088162
H414	H	-0.521642	0.169891	-0.118704
H415	H	-0.670124	0.127605	-0.107026
H416	H	-0.682687	0.071826	-0.076471
H417	H	-0.647777	0.175979	-0.061261
C418	C	-0.520721	-0.055533	0.151405
C419	C	-0.476078	-0.120744	0.139116
C420	C	-0.484178	-0.181357	0.097087
H421	H	-0.494388	-0.023993	0.129099
H422	H	-0.582837	-0.083968	0.153540
H423	H	-0.413974	-0.092311	0.136978
H424	H	-0.502401	-0.152306	0.161411
H425	H	-0.546295	-0.209792	0.099222
H426	H	-0.457846	-0.149809	0.074785
H427	H	-0.453897	-0.225614	0.088746
C428	C	-0.423836	-0.078948	0.197814
C429	C	-0.461017	-0.133111	0.227153
C430	C	-0.422303	-0.205268	0.207824
H431	H	-0.360367	-0.056504	0.192967
H432	H	-0.435839	-0.113610	0.169647
H433	H	-0.449007	-0.098455	0.255312
H434	H	-0.524482	-0.155577	0.232002
H435	H	-0.434306	-0.239930	0.179658
H436	H	-0.358835	-0.182816	0.202979
H437	H	-0.447530	-0.242031	0.227726
C438	C	-0.036446	-0.499284	-0.385567
C439	C	-0.031055	-0.532906	-0.354918
C440	C	-0.028458	-0.622761	-0.375640
H441	H	0.014945	-0.502727	-0.411586
H442	H	-0.089748	-0.533992	-0.394391
H443	H	0.022241	-0.498207	-0.346101
H444	H	-0.082441	-0.529486	-0.328899
H445	H	-0.081759	-0.657469	-0.384463
H446	H	0.022934	-0.626195	-0.401658
H447	H	-0.024808	-0.645587	-0.354846
C448	C	-0.286202	0.029587	-0.286472
C449	C	-0.260949	-0.050407	-0.312252
C450	C	-0.220553	-0.050303	-0.357748
H451	H	-0.234160	0.079471	-0.288915
H452	H	-0.327986	0.034022	-0.297407
H453	H	-0.219168	-0.054833	-0.301320
H454	H	-0.312975	-0.100305	-0.309823
H455	H	-0.262337	-0.045868	-0.368683
H456	H	-0.168514	-0.000415	-0.360186
H457	H	-0.203421	-0.104581	-0.375246
C458	C	-0.272733	0.042757	0.213364
C459	C	-0.247493	-0.037245	0.187590
C460	C	-0.207098	-0.037153	0.142092
H461	H	-0.220685	0.092635	0.210918
H462	H	-0.314513	0.047195	0.202428
H463	H	-0.205716	-0.041674	0.198522
H464	H	-0.299525	-0.087136	0.190022
H465	H	-0.248878	-0.032716	0.131156
H466	H	-0.155053	0.012727	0.139650
H467	H	-0.189976	-0.091437	0.124597
H468	H	0.330510	-0.448858	0.033327
H469	H	-0.365918	0.157102	-0.260160
H470	H	-0.449229	0.177371	-0.300885
C471	C	-0.049919	-0.210816	-0.392921
C472	C	-0.128258	-0.252632	-0.406757
C473	C	-0.131694	-0.203715	-0.431212
H474	H	0.001716	-0.208811	-0.418831
H475	H	-0.050760	-0.151270	-0.374209
H476	H	-0.127409	-0.312161	-0.425468
H477	H	-0.179906	-0.254636	-0.380856
H478	H	-0.132536	-0.144170	-0.412500
H479	H	-0.080056	-0.201714	-0.457119
H480	H	-0.184851	-0.232075	-0.440599
C481	C	0.307083	-0.447460	-0.458470
C482	C	0.282598	-0.494148	-0.426939
C483	C	0.196617	-0.488812	-0.397062
H484	H	0.264436	-0.473493	-0.475073
H485	H	0.308020	-0.386129	-0.442983
H486	H	0.281654	-0.555466	-0.442425
H487	H	0.325222	-0.468124	-0.410326
H488	H	0.197554	-0.427482	-0.381575
H489	H	0.153978	-0.514846	-0.413669
H490	H	0.179997	-0.520482	-0.375662
C491	C	-0.479458	0.069621	-0.379707
C492	C	-0.477857	-0.007236	-0.417036
C493	C	-0.388713	-0.012992	-0.439117
H494	H	-0.455944	0.065825	-0.359295
H495	H	-0.443587	0.121647	-0.389784
H496	H	-0.513715	-0.059249	-0.406958
H497	H	-0.501353	-0.003457	-0.437458
H498	H	-0.352842	0.039034	-0.449194
H499	H	-0.365207	-0.016786	-0.418701
H500	H	-0.387614	-0.065134	-0.464449
H501	H	-0.267732	0.034117	0.350946
C502	C	-0.487619	0.192241	0.322656
C503	C	-0.437534	0.167064	0.338172
C504	C	-0.429194	0.227469	0.380205
H505	H	-0.545984	0.191280	0.343873
H506	H	-0.457553	0.251261	0.319423
H507	H	-0.467601	0.108060	0.341407
H508	H	-0.379162	0.168031	0.316967
H509	H	-0.399128	0.286489	0.376973
H510	H	-0.487562	0.226504	0.401419
H511	H	-0.395205	0.210400	0.390737
H512	H	-0.574318	0.196197	0.271049
C513	C	-0.735963	0.093753	0.260638
C514	C	-0.812551	0.020056	0.264010
C515	C	-0.853096	0.019527	0.309444
H516	H	-0.753258	0.147907	0.278246
H517	H	-0.694219	0.089215	0.271561
H518	H	-0.854287	0.024601	0.253092
H519	H	-0.795281	-0.034110	0.246411
H520	H	-0.811352	0.014989	0.320367
H521	H	-0.870385	0.073684	0.327048
H522	H	-0.905060	-0.030480	0.311737
