data_functionalizedCrystal
_audit_creation_method	'MofGen! by Chris Wilmer'
_symmetry_space_group_name_H-M	'P1'
_symmetry_Int_Tables_number	1
_symmetry_cell_setting	triclinic
loop_
_symmetry_equiv_pos_as_xyz
  x,y,z
_cell_length_a	19.188925
_cell_length_b	19.188930
_cell_length_c	16.776229
_cell_angle_alpha	89.988225
_cell_angle_beta	89.991906
_cell_angle_gamma	83.143665
loop_
_atom_site_label
_atom_site_type_symbol
_atom_site_fract_x
_atom_site_fract_y
_atom_site_fract_z
O1	O	0.926150	0.087151	-0.066314
O2	O	1.426150	0.587151	0.433686
O3	O	0.722838	0.098889	-0.066313
O4	O	1.222838	0.598889	0.433687
O5	O	0.830361	-0.008636	-0.066298
O6	O	1.330361	0.491364	0.433702
O7	O	0.818627	0.194676	-0.066329
O8	O	1.318627	0.694676	0.433671
O9	O	0.830347	-0.008642	0.066278
O10	O	1.330347	0.491358	0.566278
O11	O	0.722824	0.098883	0.066263
O12	O	1.222824	0.598883	0.566263
O13	O	0.926135	0.087145	0.066262
O14	O	1.426135	0.587145	0.566262
Zn15	Zn	0.824477	0.093013	0.087312
Zn16	Zn	1.324477	0.593013	0.587312
Zn17	Zn	0.824496	0.093021	-0.087363
Zn18	Zn	1.324496	0.593021	0.412637
O19	O	0.818612	0.194669	0.066247
O20	O	1.318612	0.694669	0.566247
C21	C	0.696820	0.098507	-0.000025
C22	C	1.196820	0.598507	0.499975
C23	C	0.619315	0.097367	-0.000024
C24	C	1.119315	0.597367	0.499976
C25	C	0.057545	0.152831	-0.000034
C26	C	0.557545	0.652831	0.499966
C27	C	0.130368	0.153908	-0.000038
C28	C	0.630368	0.653908	0.499962
C29	C	0.175302	0.090816	-0.000027
C30	C	0.675302	0.590816	0.499973
C31	C	0.147408	0.026642	-0.000032
C32	C	0.647408	0.526642	0.499968
C33	C	0.074586	0.025568	-0.000036
C34	C	0.574586	0.525568	0.499964
N35	N	0.295975	0.045137	0.045110
N36	N	0.795975	0.545137	0.545110
N37	N	0.365152	0.046163	0.045115
N38	N	0.865152	0.546163	0.545115
C39	C	0.394712	0.094050	-0.000018
C40	C	0.894712	0.594050	0.499982
N41	N	0.352479	0.140884	-0.045147
N42	N	0.852479	0.640884	0.454853
N43	N	0.283295	0.139861	-0.045148
N44	N	0.783295	0.639861	0.454852
C45	C	0.254267	0.091974	-0.000024
C46	C	0.754267	0.591974	0.499976
C47	C	0.501561	0.159386	-0.000024
C48	C	1.001561	0.659386	0.499976
C49	C	0.574385	0.160460	-0.000033
C50	C	1.074385	0.660460	0.499967
C51	C	0.591425	0.033193	-0.000019
C52	C	1.091425	0.533193	0.499981
C53	C	0.518601	0.032121	-0.000018
C54	C	1.018601	0.532121	0.499982
C55	C	0.473673	0.095220	-0.000016
C56	C	0.973673	0.595220	0.499984
C57	C	0.829974	-0.034650	-0.000008
C58	C	1.329974	0.465350	0.499992
C59	C	0.828833	-0.112154	-0.000001
C60	C	1.328833	0.387846	0.499999
C61	C	0.891924	-0.157079	0.000003
C62	C	1.391924	0.342921	0.500003
C63	C	0.890852	-0.229903	-0.000010
C64	C	1.390852	0.270097	0.499990
C65	C	0.826686	-0.257799	-0.000010
C66	C	1.326686	0.242201	0.499990
C67	C	0.763587	-0.212864	-0.000018
C68	C	1.263587	0.287136	0.499982
C69	C	0.764660	-0.140041	-0.000014
C70	C	1.264660	0.359959	0.499986
N71	N	0.777634	-0.365805	0.045108
N72	N	1.277634	0.134195	0.545108
N73	N	0.776618	-0.434983	0.045105
N74	N	1.276618	0.065017	0.545105
C75	C	0.823448	-0.477207	-0.000026
C76	C	1.323448	0.022793	0.499974
N77	N	0.871342	-0.447640	-0.045145
N78	N	1.371342	0.052360	0.454855
N79	N	0.872360	-0.378456	-0.045139
N80	N	1.372360	0.121544	0.454861
C81	C	0.825515	-0.336761	-0.000016
C82	C	1.325515	0.163239	0.499984
C83	C	0.885381	-0.601097	-0.000038
C84	C	1.385381	-0.101097	0.499962
C85	C	0.884307	-0.673922	-0.000056
C86	C	1.384307	-0.173922	0.499944
C87	C	0.757040	-0.656880	-0.000056
C88	C	1.257040	-0.156880	0.499944
C89	C	0.758116	-0.584057	-0.000046
C90	C	1.258116	-0.084057	0.499954
C91	C	0.822289	-0.556170	-0.000033
C92	C	1.322289	-0.056170	0.499967
C93	C	0.952154	0.087527	-0.000028
C94	C	1.452154	0.587527	0.499972
C95	C	1.029658	0.088666	-0.000034
C96	C	1.529658	0.588666	0.499966
C97	C	0.819000	0.220684	-0.000045
C98	C	1.319000	0.720684	0.499955
C99	C	0.820140	0.298188	-0.000057
C100	C	1.320140	0.798188	0.499943
N101	N	0.824470	0.093006	0.206523
N102	N	1.324470	0.593006	0.706523
N103	N	0.824509	0.093022	-0.206574
N104	N	1.324509	0.593022	0.293426
C105	C	0.872095	0.045414	0.248247
C106	C	1.372095	0.545414	0.748247
C107	C	0.872099	0.045413	0.331699
C108	C	1.372099	0.545413	0.831699
C109	C	0.824480	0.093009	0.373426
C110	C	1.324480	0.593009	0.873426
C111	C	0.776849	0.140604	0.331697
C112	C	1.276849	0.640604	0.831697
C113	C	0.776843	0.140601	0.248246
C114	C	1.276843	0.640601	0.748246
C115	C	0.776875	0.140617	0.668244
C116	C	1.276875	0.640617	1.168244
C117	C	0.776886	0.140618	0.751700
C118	C	1.276886	0.640618	1.251700
C119	C	0.872131	0.045430	0.751697
C120	C	1.372131	0.545430	1.251697
C121	C	0.872124	0.045427	0.668246
C122	C	1.372124	0.545427	1.168246
C123	C	0.824492	0.093019	0.626524
C124	C	1.324492	0.593019	1.126524
C125	C	0.824487	0.093018	0.536036
C126	C	1.324487	0.593018	1.036036
C127	C	0.824487	0.093014	0.463913
C128	C	1.324487	0.593014	0.963913
H129	H	0.597088	0.212713	-0.000040
H130	H	1.097088	0.712713	0.499960
H131	H	0.628010	-0.018178	-0.000016
H132	H	1.128010	0.481822	0.499984
H133	H	0.944179	-0.134379	0.000010
H134	H	1.444179	0.365621	0.500010
H135	H	0.464978	0.210765	-0.000024
H136	H	0.964978	0.710765	0.499976
Cl137	Cl	0.001068	0.232156	-0.000043
Cl138	Cl	0.501068	0.732156	0.499957
H139	H	0.942230	-0.266488	-0.000010
H140	H	1.442230	0.233512	0.499990
H141	H	0.153078	0.206160	-0.000031
H142	H	0.653078	0.706160	0.499969
H143	H	0.738060	0.179354	0.214275
H144	H	1.238060	0.679354	0.714275
Cl145	Cl	0.039528	-0.055104	-0.000038
Cl146	Cl	0.539528	0.444896	0.499962
H147	H	0.704794	-0.679592	-0.000060
H148	H	1.204794	-0.179592	0.499940
Cl149	Cl	0.682921	-0.247931	-0.000025
Cl150	Cl	1.182921	0.252069	0.499975
Cl151	Cl	0.483542	-0.048549	-0.000021
Cl152	Cl	0.983542	0.451451	0.499979
H153	H	0.706740	-0.547478	-0.000045
H154	H	1.206740	-0.047478	0.499955
Cl155	Cl	0.931992	-0.014408	0.615793
Cl156	Cl	1.431992	0.485592	1.115793
H157	H	0.910875	0.006659	0.214278
H158	H	1.410875	0.506659	0.714278
H159	H	0.910879	0.006659	0.365670
H160	H	1.410879	0.506659	0.865670
Cl161	Cl	0.203896	-0.052674	-0.000022
Cl162	Cl	0.703896	0.447326	0.499978
Cl163	Cl	0.685339	-0.083561	-0.000018
Cl164	Cl	1.185339	0.416439	0.499982
H165	H	0.910914	0.006676	0.785676
H166	H	1.410914	0.506676	1.285676
H167	H	0.937635	-0.578390	-0.000031
H168	H	1.437635	-0.078390	0.499969
Cl169	Cl	0.717017	0.200457	0.804156
Cl170	Cl	1.217017	0.700457	1.304156
H171	H	0.738092	0.179370	0.634280
H172	H	1.238092	0.679370	1.134280
H173	H	0.935686	-0.710500	-0.000057
H174	H	1.435686	-0.210500	0.499943
Cl175	Cl	0.716981	0.200437	0.384152
Cl176	Cl	1.216981	0.700437	0.884152
