data_functionalizedCrystal
_audit_creation_method	'MofGen! by Chris Wilmer'
_symmetry_space_group_name_H-M	'P1'
_symmetry_Int_Tables_number	1
_symmetry_cell_setting	triclinic
loop_
_symmetry_equiv_pos_as_xyz
  x,y,z
_cell_length_a	6.817900
_cell_length_b	9.582889
_cell_length_c	9.582906
_cell_angle_alpha	89.900356
_cell_angle_beta	111.207526
_cell_angle_gamma	111.207298
loop_
_atom_site_label
_atom_site_type_symbol
_atom_site_fract_x
_atom_site_fract_y
_atom_site_fract_z
V1	V	-4.156365	-0.206432	-0.466330
V2	V	-3.823031	0.126901	-0.132996
V3	V	-3.489698	0.460234	0.200337
O4	O	-4.100363	0.010562	-0.457735
O5	O	-3.767030	0.343895	-0.124401
O6	O	-3.433696	0.677229	0.208932
O7	O	-4.146474	-0.409938	-0.462869
O8	O	-3.813141	-0.076605	-0.129536
O9	O	-3.479807	0.256729	0.203798
O10	O	-4.146477	-0.202975	-0.669836
O11	O	-3.813144	0.130358	-0.336502
O12	O	-3.479811	0.463691	-0.003169
O13	O	-4.100360	-0.197834	-0.249335
O14	O	-3.767026	0.135500	0.083998
O15	O	-3.433693	0.468833	0.417332
V16	V	-4.630012	-0.180511	-0.440408
V17	V	-4.296679	0.152823	-0.107075
V18	V	-3.963346	0.486156	0.226258
O19	O	-4.439285	-0.263294	-0.523190
O20	O	-4.105952	0.070040	-0.189857
O21	O	-3.772619	0.403373	0.143477
O22	O	-4.797289	-0.123649	-0.383548
O23	O	-4.463956	0.209684	-0.050214
O24	O	-4.130622	0.543018	0.283119
O25	O	-4.416697	0.022995	-0.443869
O26	O	-4.083363	0.356328	-0.110535
O27	O	-3.750030	0.689662	0.222798
O28	O	-4.803411	-0.397505	-0.449003
O29	O	-4.470078	-0.064171	-0.115670
O30	O	-4.136745	0.269162	0.217663
O31	O	-4.803415	-0.189109	-0.657403
O32	O	-4.470081	0.144224	-0.324069
O33	O	-4.136748	0.477557	0.009264
O34	O	-4.416693	-0.183968	-0.236902
O35	O	-4.083360	0.149366	0.096431
O36	O	-3.750027	0.482699	0.429765
C37	C	-3.999597	-0.459557	-0.455442
C38	C	-3.666264	-0.126224	-0.122109
C39	C	-3.332930	0.207110	0.211224
C40	C	-4.073053	-0.625924	-0.453970
C41	C	-3.739720	-0.292590	-0.120636
C42	C	-3.406387	0.040743	0.212697
C43	C	-3.999599	-0.195554	-0.719447
C44	C	-3.666266	0.137780	-0.386114
C45	C	-3.332933	0.471113	-0.052781
C46	C	-4.073054	-0.194074	-0.885813
C47	C	-3.739720	0.139260	-0.552479
C48	C	-3.406387	0.472593	-0.219146
C49	C	-4.226917	0.072606	-0.451291
C50	C	-3.893583	0.405940	-0.117958
C51	C	-3.560250	0.739273	0.215375
C52	C	-4.132700	0.238971	-0.452774
C53	C	-3.799367	0.572305	-0.119440
C54	C	-3.466034	0.905638	0.213893
C55	C	-4.226913	-0.191394	-0.187283
C56	C	-3.893580	0.141939	0.146051
C57	C	-3.560246	0.475273	0.479384
C58	C	-4.132695	-0.192866	-0.020916
C59	C	-3.799362	0.140467	0.312418
C60	C	-3.466029	0.473800	0.645751
