data_functionalizedCrystal
_audit_creation_method	'MofGen! by Chris Wilmer'
_symmetry_space_group_name_H-M	'P1'
_symmetry_Int_Tables_number	1
_symmetry_cell_setting	triclinic
loop_
_symmetry_equiv_pos_as_xyz
  x,y,z
_cell_length_a	18.101397
_cell_length_b	16.625547
_cell_length_c	16.625539
_cell_angle_alpha	90.027058
_cell_angle_beta	89.970842
_cell_angle_gamma	89.981048
loop_
_atom_site_label
_atom_site_type_symbol
_atom_site_fract_x
_atom_site_fract_y
_atom_site_fract_z
Zn1	Zn	-0.294844	-1.232696	-0.456044
Zn2	Zn	-0.418693	-1.232605	-0.321209
Zn3	Zn	-0.294868	-1.097857	-0.321209
Zn4	Zn	-0.418647	-1.097834	-0.455984
O5	O	-0.356763	-1.165248	-0.388612
O6	O	-0.311282	-1.345516	-0.438183
O7	O	-0.402297	-1.214703	-0.208377
O8	O	-0.191232	-1.115792	-0.339121
O9	O	-0.402274	-1.345450	-0.339121
O10	O	-0.191215	-1.214857	-0.438183
O11	O	-0.311324	-1.115704	-0.208377
O12	O	-0.311278	-0.985022	-0.339062
O13	O	-0.402194	-1.115752	-0.568824
O14	O	-0.402218	-0.985005	-0.438081
O15	O	-0.311237	-1.214834	-0.568869
O16	O	-0.522320	-1.214680	-0.339062
O17	O	-0.522286	-1.115664	-0.438081
C18	C	-0.356746	-0.955757	-0.388565
C19	C	-0.356757	-0.866136	-0.388565
C20	C	-0.356757	-0.793354	-0.388572
C21	C	-0.356760	-0.702045	-0.388589
C22	C	-0.356766	-0.629269	-0.388606
C23	C	-0.356770	-0.537955	-0.388622
C24	C	-0.549174	-1.165182	-0.388583
C25	C	-0.631488	-1.165227	-0.388597
C26	C	-0.782196	-1.165276	-0.388624
C27	C	-0.813540	-1.227636	-0.326385
C28	C	-0.899159	-1.227480	-0.326156
C29	C	-0.930579	-1.165326	-0.388651
C30	C	-0.899562	-1.080290	-0.365770
C31	C	-0.813917	-1.080622	-0.365302
C32	C	-0.813690	-1.187220	-0.473907
C33	C	-0.899339	-1.189123	-0.473469
C34	C	-1.014438	-1.165348	-0.388668
C35	C	-0.698337	-1.165248	-0.388606
C36	C	-0.163601	-1.165337	-0.388659
C37	C	-0.081287	-1.165375	-0.388679
C38	C	-0.356708	-1.165301	-0.598921
C39	C	-0.356684	-1.165323	-0.688542
C40	C	-0.356778	-0.375557	-0.388649
C41	C	-0.356776	-0.465178	-0.388640
C42	C	-0.356602	-1.165360	-1.016718
C43	C	-0.356627	-1.165348	-0.925409
C44	C	-0.356644	-1.165342	-0.852633
C45	C	-0.356668	-1.165328	-0.761318
C46	C	-0.356765	-1.165242	-0.179121
C47	C	-0.356580	-1.165376	-0.089500
H48	H	-0.920128	-1.290529	-0.340450
H49	H	-0.793414	-1.141806	-0.520279
H50	H	-0.921067	-1.061414	-0.304128
H51	H	-0.792902	-1.290867	-0.340513
Cl52	Cl	-0.930984	-1.006617	-0.433616
H53	H	-0.792035	-1.248156	-0.494760
H54	H	-0.919606	-1.251702	-0.490726
H55	H	-0.920723	-1.147049	-0.522317
H56	H	-0.793996	-1.062055	-0.302968
H57	H	-0.792067	-1.213273	-0.263555
H58	H	-0.793184	-1.032566	-0.408675
Cl59	Cl	-0.930880	-1.205048	-0.228607
