data_functionalizedCrystal
_audit_creation_method	'MofGen! by Chris Wilmer'
_symmetry_space_group_name_H-M	'P1'
_symmetry_Int_Tables_number	1
_symmetry_cell_setting	triclinic
loop_
_symmetry_equiv_pos_as_xyz
  x,y,z
_cell_length_a	17.077404
_cell_length_b	21.395362
_cell_length_c	17.077396
_cell_angle_alpha	90.031646
_cell_angle_beta	90.018362
_cell_angle_gamma	90.025469
loop_
_atom_site_label
_atom_site_type_symbol
_atom_site_fract_x
_atom_site_fract_y
_atom_site_fract_z
Zn1	Zn	1.200029	-0.249472	0.443802
Zn2	Zn	1.700029	0.250528	0.943802
Zn3	Zn	1.199926	-0.354254	0.312528
Zn4	Zn	1.699926	0.145746	0.812528
Zn5	Zn	1.068761	-0.249490	0.312552
Zn6	Zn	1.568761	0.250510	0.812552
Zn7	Zn	1.068719	-0.354212	0.443755
Zn8	Zn	1.568719	0.145788	0.943755
O9	O	1.134359	-0.301857	0.378159
O10	O	1.634359	0.198143	0.878159
O11	O	1.309863	-0.263382	0.426398
O12	O	1.809863	0.236618	0.926398
O13	O	1.182501	-0.340381	0.202684
O14	O	1.682501	0.159619	0.702684
O15	O	1.086235	-0.161810	0.329992
O16	O	1.586235	0.338190	0.829992
O17	O	1.309787	-0.340364	0.329952
O18	O	1.809787	0.159636	0.829952
O19	O	1.182678	-0.161797	0.426421
O20	O	1.682678	0.338203	0.926421
O21	O	1.086135	-0.263412	0.202702
O22	O	1.586135	0.236588	0.702702
O23	O	0.958909	-0.263372	0.329947
O24	O	1.458909	0.236628	0.829947
O25	O	1.086163	-0.340294	0.553608
O26	O	1.586163	0.159706	1.053608
O27	O	0.958877	-0.340311	0.426341
O28	O	1.458877	0.159689	0.926341
O29	O	1.182636	-0.263342	0.553642
O30	O	1.682636	0.236658	1.053642
O31	O	1.182460	-0.441926	0.329906
O32	O	1.682460	0.058074	0.829906
O33	O	1.086062	-0.441896	0.426317
O34	O	1.586062	0.058104	0.926317
C35	C	0.930411	-0.301839	0.378142
C36	C	1.430411	0.198161	0.878142
C37	C	0.843161	-0.301847	0.378153
C38	C	1.343161	0.198153	0.878153
C39	C	0.802211	-0.261834	0.428449
C40	C	1.302211	0.238166	0.928449
C41	C	0.720231	-0.261838	0.428452
C42	C	1.220231	0.238162	0.928452
C43	C	0.679202	-0.301859	0.378163
C44	C	1.179202	0.198141	0.878163
C45	C	0.720157	-0.341874	0.327862
C46	C	1.220157	0.158126	0.827862
C47	C	0.802136	-0.341866	0.327855
C48	C	1.302136	0.158134	0.827855
C49	C	0.549287	-0.341888	0.327881
C50	C	1.049287	0.158112	0.827881
C51	C	0.467303	-0.341897	0.327889
C52	C	0.967303	0.158103	0.827889
C53	C	0.467382	-0.261859	0.428479
C54	C	0.967382	0.238141	0.928479
C55	C	0.549361	-0.261852	0.428472
C56	C	1.049361	0.238148	0.928472
C57	C	0.590311	-0.301868	0.378171
C58	C	1.090311	0.198132	0.878171
C59	C	1.134267	-0.464645	0.378121
C60	C	1.634267	0.035355	0.878121
C61	C	1.134299	-0.534286	0.378131
C62	C	1.634299	-0.034286	0.878131
C63	C	1.184742	-1.036077	0.328085
C64	C	1.684742	-0.536077	0.828085
C65	C	1.184712	-0.970642	0.328067
C66	C	1.684712	-0.470642	0.828067
C67	C	1.134470	-0.937924	0.378215
C68	C	1.634470	-0.437924	0.878215
C69	C	1.084240	-0.970648	0.428372
C70	C	1.584240	-0.470648	0.928372
C71	C	1.084265	-1.036082	0.428383
C72	C	1.584265	-0.536082	0.928383
C73	C	1.128190	-0.834222	0.448914
C74	C	1.628190	-0.334222	0.948914
C75	C	1.128170	-0.768789	0.448904
C76	C	1.628170	-0.268789	0.948904
C77	C	1.134387	-0.736104	0.378180
C78	C	1.634387	-0.236104	0.878180
C79	C	1.140640	-0.768859	0.307463
C80	C	1.640640	-0.268859	0.807463
C81	C	1.140666	-0.834293	0.307475
C82	C	1.640666	-0.334293	0.807475
C83	C	1.134436	-0.866972	0.378208
C84	C	1.634436	-0.366972	0.878208
C85	C	1.184578	-0.632436	0.328003
C86	C	1.684578	-0.132436	0.828003
C87	C	1.184543	-0.566999	0.327983
C88	C	1.684543	-0.066999	0.827983
C89	C	1.084074	-0.567006	0.428295
C90	C	1.584074	-0.067006	0.928295
C91	C	1.084105	-0.632442	0.428308
C92	C	1.584105	-0.132442	0.928308
C93	C	1.134361	-0.665152	0.378163
C94	C	1.634361	-0.165152	0.878163
C95	C	1.339103	-0.301876	0.378177
C96	C	1.839103	0.198124	0.878177
C97	C	1.426353	-0.301883	0.378185
C98	C	1.926353	0.198117	0.878185
C99	C	1.134406	-0.301811	0.582903
C100	C	1.634406	0.198189	1.082903
C101	C	1.134427	-0.301791	0.670153
C102	C	1.634427	0.198209	1.170153
C103	C	1.134473	-0.138434	0.378214
C104	C	1.634473	0.361566	0.878214
C105	C	1.134521	-0.068793	0.378238
C106	C	1.634521	0.431207	0.878238
C107	C	1.134357	-0.301858	0.174211
C108	C	1.634357	0.198142	0.674211
C109	C	1.134489	-0.301701	0.086962
C110	C	1.634489	0.198299	0.586962
C111	C	1.184662	-0.261719	0.711163
C112	C	1.684662	0.238281	1.211163
C113	C	1.184672	-0.261698	0.793143
C114	C	1.684672	0.238302	1.293143
C115	C	1.134449	-0.301753	0.834113
C116	C	1.634449	0.198247	1.334113
C117	C	1.084208	-0.341827	0.793098
C118	C	1.584208	0.158173	1.293098
C119	C	1.084195	-0.341845	0.711119
C120	C	1.584195	0.158155	1.211119
C121	C	1.084239	-0.341790	0.963968
C122	C	1.584239	0.158210	1.463968
C123	C	1.084253	-0.341773	1.045952
C124	C	1.584253	0.158227	1.545952
C125	C	1.184716	-0.261643	1.045992
C126	C	1.684716	0.238357	1.545992
C127	C	1.184703	-0.261661	0.964013
C128	C	1.684703	0.238339	1.464013
C129	C	1.134463	-0.301736	0.923004
C130	C	1.634463	0.198264	1.423004
H131	H	0.686893	-0.229256	0.469410
H132	H	1.186893	0.270744	0.969410
F133	F	1.030725	-0.384493	0.667474
F134	F	1.530725	0.115507	1.167474
H135	H	1.225562	-0.229104	0.677811
H136	H	1.725562	0.270896	1.177811
F137	F	1.030660	-0.667261	0.481695
F138	F	1.530660	-0.167261	0.981695
F139	F	1.237996	-0.532181	0.274600
F140	F	1.737996	-0.032181	0.774600
F141	F	1.238227	-1.070887	0.274714
F142	F	1.738227	-0.570887	0.774714
F143	F	1.030594	-0.532190	0.481659
F144	F	1.530594	-0.032190	0.981659
F145	F	0.423799	-0.219270	0.482011
F146	F	0.923799	0.280730	0.982011
F147	F	0.845718	-0.384454	0.274323
F148	F	1.345718	0.115546	0.774323
F149	F	1.030766	-0.384441	0.920324
F150	F	1.530766	0.115559	1.420324
F151	F	0.593026	-0.219262	0.482001
F152	F	1.093026	0.280738	0.982001
F153	F	0.423638	-0.384504	0.274381
F154	F	0.923638	0.115496	0.774381
H155	H	1.225603	-0.229048	0.930658
H156	H	1.725603	0.270952	1.430658
F157	F	1.238163	-0.935816	0.274682
F158	F	1.738163	-0.435816	0.774682
H159	H	0.686745	-0.374457	0.286912
H160	H	1.186745	0.125543	0.786912
H161	H	1.123083	-0.742122	0.506484
H162	H	1.623083	-0.242122	1.006484
H163	H	1.043370	-1.062719	0.469226
H164	H	1.543370	-0.562719	0.969226
F165	F	1.238166	-0.219069	0.836785
F166	F	1.738166	0.280931	1.336785
F167	F	1.147317	-0.869152	0.232216
F168	F	1.647317	-0.369152	0.732216
H169	H	1.043313	-0.374439	0.826462
H170	H	1.543313	0.125561	1.326462
F171	F	1.238186	-0.218993	1.089638
F172	F	1.738186	0.281007	1.589638
F173	F	0.592867	-0.384481	0.274348
F174	F	1.092867	0.115519	0.774348
F175	F	0.845870	-0.219240	0.481978
F176	F	1.345870	0.280760	0.981978
H177	H	1.145704	-0.742248	0.249874
H178	H	1.645704	-0.242248	0.749874
H179	H	1.123269	-0.860829	0.506523
H180	H	1.623269	-0.360829	1.006523
F181	F	1.238060	-0.667251	0.274631
F182	F	1.738060	-0.167251	0.774631
F183	F	1.030794	-0.384399	1.089554
F184	F	1.530794	0.115601	1.589554
H185	H	1.043331	-0.944006	0.469202
H186	H	1.543331	-0.444006	0.969202
