data_functionalizedCrystal
_audit_creation_method	'MofGen! by Chris Wilmer'
_symmetry_space_group_name_H-M	'P1'
_symmetry_Int_Tables_number	1
_symmetry_cell_setting	triclinic
loop_
_symmetry_equiv_pos_as_xyz
  x,y,z
_cell_length_a	10.654545
_cell_length_b	16.974813
_cell_length_c	9.730223
_cell_angle_alpha	86.341041
_cell_angle_beta	89.997167
_cell_angle_gamma	83.938073
loop_
_atom_site_label
_atom_site_type_symbol
_atom_site_fract_x
_atom_site_fract_y
_atom_site_fract_z
O1	O	1.666114	0.111039	-0.126624
O2	O	2.166114	0.611039	0.373376
O3	O	1.300471	0.121623	-0.127806
O4	O	1.800471	0.621623	0.372194
O5	O	1.493486	0.001283	-0.114413
O6	O	1.993486	0.501283	0.385587
O7	O	1.473099	0.231379	-0.140017
O8	O	1.973099	0.731379	0.359983
O9	O	1.493473	0.001280	0.114168
O10	O	1.993473	0.501280	0.614168
O11	O	1.300458	0.121620	0.100774
O12	O	1.800458	0.621620	0.600774
O13	O	1.666102	0.111035	0.101957
O14	O	2.166102	0.611035	0.601957
Zn15	Zn	1.483278	0.116327	0.137657
Zn16	Zn	1.983278	0.616327	0.637657
Zn17	Zn	1.483294	0.116331	-0.163507
Zn18	Zn	1.983294	0.616331	0.336493
O19	O	1.473087	0.231375	0.088563
O20	O	1.973087	0.731375	0.588563
C21	C	1.253678	0.120845	-0.013431
C22	C	1.753678	0.620845	0.486569
C23	C	1.114271	0.118522	-0.013174
C24	C	1.614271	0.618522	0.486826
C25	C	1.048777	0.117427	0.111547
C26	C	1.548777	0.617427	0.611547
C27	C	0.917791	0.115231	0.111792
C28	C	1.417791	0.615231	0.611792
C29	C	0.917806	0.115229	-0.137418
C30	C	1.417806	0.615229	0.362582
C31	C	1.048790	0.117419	-0.137661
C32	C	1.548790	0.617419	0.362339
C33	C	1.492704	-0.028181	0.003153
C34	C	1.992704	0.471819	0.503153
C35	C	1.490378	-0.115971	0.012913
C36	C	1.990378	0.384029	0.512913
C37	C	1.489295	-0.157208	-0.107099
C38	C	1.989295	0.342792	0.392901
C39	C	1.487102	-0.239695	-0.097924
C40	C	1.987102	0.260305	0.402076
C41	C	1.486000	-0.280944	0.031265
C42	C	1.986000	0.219056	0.531265
C43	C	1.487080	-0.239700	0.151287
C44	C	1.987080	0.260300	0.651287
C45	C	1.489264	-0.157214	0.142110
C46	C	1.989264	0.342786	0.642110
C47	C	1.479458	-0.527641	0.072070
C48	C	1.979458	-0.027641	0.572070
C49	C	1.477277	-0.610133	0.081238
C50	C	1.977277	-0.110133	0.581238
C51	C	1.477297	-0.610122	-0.167974
C52	C	1.977297	-0.110122	0.332026
C53	C	1.479489	-0.527635	-0.177139
C54	C	1.979489	-0.027635	0.322861
C55	C	1.480562	-0.486398	-0.057118
C56	C	1.980562	0.013602	0.442882
N57	N	1.483762	-0.365259	0.040646
N58	N	1.983762	0.134741	0.540646
N59	N	1.482791	-0.402084	-0.066501
N60	N	1.982791	0.097916	0.433499
C61	C	1.712894	0.111813	-0.012422
C62	C	2.212894	0.611813	0.487578
C63	C	1.852302	0.114136	-0.012688
C64	C	2.352302	0.614136	0.487312
C65	C	1.473869	0.260840	-0.029006
C66	C	1.973869	0.760840	0.470994
C67	C	1.476194	0.348629	-0.038775
C68	C	1.976194	0.848629	0.461225
N69	N	1.483276	0.116324	0.343194
N70	N	1.983276	0.616324	0.843194
N71	N	1.483306	0.116329	-0.369043
N72	N	1.983306	0.616329	0.130957
C73	C	1.568772	0.063060	0.421048
C74	C	2.068772	0.563060	0.921048
C75	C	1.568785	0.063060	0.564931
C76	C	2.068785	0.563060	1.064931
C77	C	1.397801	0.169595	0.553092
C78	C	1.897801	0.669595	1.053092
C79	C	1.397784	0.169590	0.409213
C80	C	1.897784	0.669590	0.909213
H81	H	0.864474	0.114332	-0.238771
H82	H	1.364474	0.614332	0.261229
H83	H	1.102117	0.118309	-0.239230
H84	H	1.602117	0.618309	0.260770
H85	H	1.638402	0.019687	0.628317
H86	H	2.138402	0.519687	1.128317
H87	H	1.490199	-0.123630	-0.212299
H88	H	1.990199	0.376370	0.287701
Cl89	Cl	1.475946	-0.661967	-0.318849
Cl90	Cl	1.975946	-0.161967	0.181151
Cl91	Cl	0.835461	0.113856	0.268592
Cl92	Cl	1.335461	0.613856	0.768592
Cl93	Cl	1.490624	-0.105373	0.292990
Cl94	Cl	1.990624	0.394627	0.792990
Cl95	Cl	1.485743	-0.291533	-0.248806
Cl96	Cl	1.985743	0.208467	0.251194
H97	H	1.480388	-0.494056	-0.282339
H98	H	1.980388	0.005944	0.217661
H99	H	1.476374	-0.643715	0.186444
H100	H	1.976374	-0.143715	0.686444
H101	H	1.480357	-0.494078	0.169801
H102	H	1.980357	0.005922	0.669801
H103	H	1.328197	0.212965	0.606859
H104	H	1.828197	0.712965	1.106859
H105	H	1.328157	0.212964	0.345819
H106	H	1.828157	0.712964	0.845819
Cl107	Cl	1.485680	-0.291555	0.313697
Cl108	Cl	1.985680	0.208445	0.813697
H109	H	1.102088	0.118325	0.212912
H110	H	1.602088	0.618325	0.712912
Cl111	Cl	1.676244	-0.003907	0.338060
Cl112	Cl	2.176244	0.496093	0.838060
