data_functionalizedCrystal
_audit_creation_method	'MofGen! by Chris Wilmer'
_symmetry_space_group_name_H-M	'P1'
_symmetry_Int_Tables_number	1
_symmetry_cell_setting	triclinic
loop_
_symmetry_equiv_pos_as_xyz
  x,y,z
_cell_length_a	11.792254
_cell_length_b	10.868271
_cell_length_c	11.026607
_cell_angle_alpha	90.002960
_cell_angle_beta	83.607693
_cell_angle_gamma	89.994489
loop_
_atom_site_label
_atom_site_type_symbol
_atom_site_fract_x
_atom_site_fract_y
_atom_site_fract_z
O1	O	-1.539986	0.102354	0.166626
O2	O	-1.039986	0.602354	0.666626
O3	O	-1.213052	0.102349	0.183775
O4	O	-0.713052	0.602349	0.683775
O5	O	-1.349423	0.102346	-0.001632
O6	O	-0.849423	0.602346	0.498368
O7	O	-1.403615	0.102356	0.352033
O8	O	-0.903615	0.602356	0.852033
O9	O	-1.349407	-0.102298	-0.001639
O10	O	-0.849407	0.397702	0.498361
O11	O	-1.213036	-0.102296	0.183768
O12	O	-0.713036	0.397704	0.683768
O13	O	-1.539970	-0.102291	0.166619
O14	O	-1.039970	0.397709	0.666619
Zn15	Zn	-1.376500	-0.134785	0.175192
Zn16	Zn	-0.876500	0.365215	0.675192
Zn17	Zn	-1.376521	0.134843	0.175202
Zn18	Zn	-0.876521	0.634843	0.675202
O19	O	-1.403599	-0.102288	0.352026
O20	O	-0.903599	0.397712	0.852026
C21	C	-1.170538	0.000026	0.182691
C22	C	-0.670538	0.500026	0.682691
C23	C	-1.043883	0.000024	0.179458
C24	C	-0.543883	0.500024	0.679458
C25	C	-0.941025	0.000026	0.176831
C26	C	-0.441025	0.500026	0.676831
C27	C	-0.811986	0.000024	0.173546
C28	C	-0.311986	0.500024	0.673546
N29	N	-1.376494	-0.318799	0.175185
N30	N	-0.876494	0.181201	0.675185
C31	C	-1.376515	-0.569805	0.175199
C32	C	-0.876515	-0.069805	0.675199
C33	C	-1.376500	-0.430128	0.175195
C34	C	-0.876500	0.069872	0.675195
C35	C	-0.582483	0.000029	0.167703
C36	C	-0.082483	0.500029	0.667703
C37	C	-0.709138	0.000022	0.170936
C38	C	-0.209138	0.500022	0.670936
C39	C	-1.339417	0.000025	-0.046913
C40	C	-0.839417	0.500025	0.453087
C41	C	-1.309614	0.000029	-0.181824
C42	C	-0.809614	0.500029	0.318176
N43	N	-1.376534	0.318857	0.175200
N44	N	-0.876534	0.818857	0.675200
C45	C	-1.391905	0.000032	-0.255084
C46	C	-0.891905	0.500032	0.244916
C47	C	-1.361104	0.000036	-0.394523
C48	C	-0.861104	0.500036	0.105477
C49	C	-1.413604	0.000035	0.397307
C50	C	-0.913604	0.500035	0.897307
C51	C	-1.443407	0.000040	0.532218
C52	C	-0.943407	0.500040	1.032218
H53	H	-1.485159	0.000026	-0.214575
H54	H	-0.985159	0.500026	0.285425
C55	C	-1.235113	0.000037	-0.449228
C56	C	-0.735113	0.500037	0.050772
C57	C	-1.188286	-0.106227	-0.532642
C58	C	-0.688286	0.393773	-0.032642
C59	C	-1.062297	-0.106227	-0.587349
C60	C	-0.562297	0.393773	-0.087349
C61	C	-0.983136	0.000038	-0.558642
C62	C	-0.483136	0.500038	-0.058642
C63	C	-1.029962	0.106310	-0.475225
C64	C	-0.529962	0.606310	0.024775
C65	C	-1.155950	0.106309	-0.420518
C66	C	-0.655950	0.606309	0.079482
H67	H	-1.246887	-0.184898	-0.553896
H68	H	-0.746887	0.315102	-0.053896
H69	H	-1.027634	-0.184897	-0.649101
H70	H	-0.527634	0.315103	-0.149101
H71	H	-0.889871	0.000038	-0.599140
H72	H	-0.389871	0.500038	-0.099140
H73	H	-0.971361	0.184980	-0.453970
H74	H	-0.471361	0.684980	0.046030
H75	H	-1.190614	0.184980	-0.358766
H76	H	-0.690614	0.684980	0.141234
H77	H	-1.536668	0.000134	-0.427279
H78	H	-1.036668	0.500134	0.072721
H79	H	-1.216360	0.000036	-0.222334
H80	H	-0.716360	0.500036	0.277666
