data_functionalizedCrystal
_audit_creation_method	'MofGen! by Chris Wilmer'
_symmetry_space_group_name_H-M	'P1'
_symmetry_Int_Tables_number	1
_symmetry_cell_setting	triclinic
loop_
_symmetry_equiv_pos_as_xyz
  x,y,z
_cell_length_a	25.639239
_cell_length_b	14.908780
_cell_length_c	14.908694
_cell_angle_alpha	96.797826
_cell_angle_beta	93.266315
_cell_angle_gamma	86.672354
loop_
_atom_site_label
_atom_site_type_symbol
_atom_site_fract_x
_atom_site_fract_y
_atom_site_fract_z
Zn1	Zn	-0.180755	-1.413292	-0.591786
Zn2	Zn	0.319245	-0.913292	-0.091786
Zn3	Zn	-0.263429	-1.404414	-0.440407
Zn4	Zn	0.236571	-0.904414	0.059593
Zn5	Zn	-0.180766	-1.253188	-0.431687
Zn6	Zn	0.319234	-0.753188	0.068313
Zn7	Zn	-0.272922	-1.261835	-0.582974
Zn8	Zn	0.227078	-0.761835	-0.082974
O9	O	-0.224468	-1.333182	-0.511713
O10	O	0.275532	-0.833182	-0.011713
O11	O	-0.187744	-1.538788	-0.579043
O12	O	0.312256	-1.038788	-0.079043
O13	O	-0.248496	-1.377019	-0.312584
O14	O	0.251504	-0.877019	0.187416
O15	O	-0.107598	-1.274523	-0.452963
O16	O	0.392402	-0.774523	0.047037
O17	O	-0.248485	-1.532265	-0.467826
O18	O	0.251515	-1.032265	0.032174
O19	O	-0.107589	-1.392151	-0.570587
O20	O	0.392411	-0.892151	-0.070587
O21	O	-0.187764	-1.265914	-0.306177
O22	O	0.312236	-0.765914	0.193823
O23	O	-0.196968	-1.127661	-0.444418
O24	O	0.303032	-0.627661	0.055582
O25	O	-0.264664	-1.289260	-0.710809
O26	O	0.235336	-0.789260	-0.210809
O27	O	-0.264675	-1.134014	-0.555567
O28	O	0.235325	-0.634014	-0.055567
O29	O	-0.196949	-1.400535	-0.717284
O30	O	0.303051	-0.900535	-0.217284
O31	O	-0.337856	-1.385403	-0.459281
O32	O	0.162144	-0.885403	0.040719
O33	O	-0.344830	-1.280651	-0.564023
O34	O	0.155170	-0.780651	-0.064023
C35	C	-0.231853	-1.097993	-0.498091
C36	C	0.268147	-0.597993	0.001909
C37	C	-0.235026	-0.997379	-0.492284
C38	C	0.264974	-0.497379	0.007716
C39	C	-0.177836	-0.815115	-0.597361
C40	C	0.322164	-0.315115	-0.097361
C41	C	-0.180815	-0.720580	-0.591908
C42	C	0.319185	-0.220580	-0.091908
C43	C	-0.243961	-0.713770	-0.475922
C44	C	0.256039	-0.213770	0.024078
C45	C	-0.240982	-0.808306	-0.481375
C46	C	0.259018	-0.308306	0.018625
C47	C	-0.207918	-0.858975	-0.542097
C48	C	0.292082	-0.358975	-0.042097
C49	C	-0.204942	-0.953513	-0.547554
C50	C	0.295058	-0.453513	-0.047554
C51	C	-0.268085	-0.946701	-0.431564
C52	C	0.231915	-0.446701	0.068436
C53	C	-0.271064	-0.852165	-0.426111
C54	C	0.228936	-0.352165	0.073889
C55	C	-0.360314	-1.333028	-0.511663
C56	C	0.139686	-0.833028	-0.011663
C57	C	-0.418428	-1.333046	-0.511677
C58	C	0.081572	-0.833046	-0.011677
C59	C	-0.775142	-1.387883	-0.457281
C60	C	-0.275142	-0.887883	0.042719
C61	C	-0.829746	-1.387919	-0.457295
C62	C	-0.329746	-0.887919	0.042705
O63	O	-0.854883	-1.434383	-0.410992
O64	O	-0.354883	-0.934383	0.089008
N65	N	-0.860704	-1.333345	-0.511783
N66	N	-0.360704	-0.833345	-0.011783
C67	C	-0.837056	-1.278738	-0.566266
C68	C	-0.337056	-0.778738	-0.066266
O69	O	-0.868403	-1.232322	-0.612614
O70	O	-0.368403	-0.732322	-0.112614
C71	C	-0.782454	-1.278708	-0.566256
C72	C	-0.282454	-0.778708	-0.066256
C73	C	-0.751498	-1.333279	-0.511759
C74	C	-0.251498	-0.833279	-0.011759
C75	C	-0.744186	-1.442451	-0.402789
C76	C	-0.244186	-0.942451	0.097211
C77	C	-0.689587	-1.442413	-0.402774
C78	C	-0.189587	-0.942413	0.097226
C79	C	-0.665942	-1.387809	-0.457251
C80	C	-0.165942	-0.887809	0.042749
C81	C	-0.696898	-1.333241	-0.511743
C82	C	-0.196898	-0.833241	-0.011743
C83	C	-0.758807	-1.224106	-0.620744
C84	C	-0.258807	-0.724106	-0.120744
C85	C	-0.704200	-1.224081	-0.620730
C86	C	-0.204200	-0.724081	-0.120730
C87	C	-0.673244	-1.278652	-0.566232
C88	C	-0.173244	-0.778652	-0.066232
C89	C	-0.618654	-1.278599	-0.566206
C90	C	-0.118654	-0.778599	-0.066206
N91	N	-0.587696	-1.333174	-0.511718
N92	N	-0.087696	-0.833174	-0.011718
C93	C	-0.611340	-1.387779	-0.457241
C94	C	-0.111340	-0.887779	0.042759
C95	C	-0.951725	-1.278807	-0.566284
C96	C	-0.451725	-0.778807	-0.066284
C97	C	-1.006327	-1.278832	-0.566290
C98	C	-0.506327	-0.778832	-0.066290
C99	C	-0.999012	-1.388014	-0.457320
C100	C	-0.499012	-0.888014	0.042680
C101	C	-0.944410	-1.387984	-0.457310
C102	C	-0.444410	-0.887984	0.042690
C103	C	-0.920767	-1.333381	-0.511797
C104	C	-0.420767	-0.833381	-0.011797
C105	C	-0.496677	-1.387696	-0.457213
C106	C	0.003323	-0.887696	0.042787
C107	C	-0.442072	-1.387651	-0.457200
C108	C	0.057928	-0.887651	0.042800
C109	C	-0.449392	-1.278472	-0.566172
C110	C	0.050608	-0.778472	-0.066172
C111	C	-0.503991	-1.278513	-0.566182
C112	C	-0.003991	-0.778513	-0.066182
C113	C	-0.527632	-1.333132	-0.511700
C114	C	-0.027632	-0.833132	-0.011700
O115	O	-0.593480	-1.232162	-0.612488
O116	O	-0.093480	-0.732162	-0.112488
O117	O	-0.579987	-1.434195	-0.410910
O118	O	-0.079987	-0.934195	0.089090
C119	C	-0.088092	-1.333363	-0.511785
C120	C	0.411908	-0.833363	-0.011785
C121	C	-0.029976	-1.333440	-0.511816
C122	C	0.470024	-0.833440	-0.011816
C123	C	-0.231864	-1.346853	-0.747808
C124	C	0.268136	-0.846853	-0.247808
C125	C	-0.235016	-1.352678	-0.848417
C126	C	0.264984	-0.852678	-0.348417
C127	C	-0.217050	-0.569290	-0.525383
C128	C	0.282950	-0.069290	-0.025383
C129	C	-0.213877	-0.669904	-0.531192
C130	C	0.286123	-0.169904	-0.031192
C131	C	-0.177700	-1.247911	-1.030802
C132	C	0.322300	-0.747911	-0.530802
C133	C	-0.180660	-1.253381	-1.125333
C134	C	0.319340	-0.753381	-0.625333
C135	C	-0.243898	-1.369084	-1.132013
C136	C	0.256102	-0.869084	-0.632013
C137	C	-0.240938	-1.363614	-1.037481
C138	C	0.259062	-0.863614	-0.537481
C139	C	-0.207837	-1.303026	-0.986879
C140	C	0.292163	-0.803026	-0.486879
C141	C	-0.204875	-1.297561	-0.892346
C142	C	0.295125	-0.797561	-0.392346
C143	C	-0.268116	-1.413259	-0.899027
C144	C	0.231884	-0.913259	-0.399027
C145	C	-0.271075	-1.418729	-0.993559
C146	C	0.228925	-0.918729	-0.493559
C147	C	-0.217062	-1.319617	-0.276541
C148	C	0.282938	-0.819617	0.223459
C149	C	-0.213757	-1.313967	-0.175942
C150	C	0.286243	-0.813967	0.324058
H151	H	-0.178021	-0.994766	-0.596998
H152	H	0.321979	-0.494766	-0.096998
H153	H	-0.156317	-0.684873	-0.636907
H154	H	0.343683	-0.184873	-0.136907
H155	H	-0.156119	-1.208501	-1.161091
H156	H	0.343881	-0.708501	-0.661091
C157	C	-0.280559	-1.435306	-1.187665
C158	C	0.219441	-0.935306	-0.687665
N159	N	-0.308264	-1.485034	-1.229575
N160	N	0.191736	-0.985034	-0.729575
C161	C	-0.141287	-1.181268	-0.975138
C162	C	0.358713	-0.681268	-0.475138
N163	N	-0.113861	-1.131071	-0.933213
N164	N	0.386139	-0.631071	-0.433213
H165	H	-0.784002	-1.179664	-0.665117
H166	H	-0.284002	-0.679664	-0.165117
H167	H	-0.297981	-0.810897	-0.376670
H168	H	0.202019	-0.310897	0.123330
C169	C	-0.301179	-0.994954	-0.370771
C170	C	0.198821	-0.494954	0.129229
N171	N	-0.326106	-1.031300	-0.324986
N172	N	0.173894	-0.531300	0.175014
H173	H	-0.177921	-1.248230	-0.851148
H174	H	0.322079	-0.748230	-0.351148
C175	C	-0.301269	-1.473890	-0.850705
C176	C	0.198731	-0.973890	-0.350705
N177	N	-0.326239	-1.519557	-0.814308
N178	N	0.173761	-1.019557	-0.314308
H179	H	-0.150917	-0.856371	-0.646807
H180	H	0.349083	-0.356371	-0.146807
C181	C	-0.280323	-0.658017	-0.409126
C182	C	0.219677	-0.158017	0.090874
N183	N	-0.307711	-0.616023	-0.358814
N184	N	0.192289	-0.116023	0.141186
H185	H	-1.031527	-1.234385	-0.610658
H186	H	-0.531527	-0.734385	-0.110658
H187	H	-0.416869	-1.432089	-0.412818
H188	H	0.083131	-0.932089	0.087182
C189	C	-0.925723	-1.218739	-0.626232
C190	C	-0.425723	-0.718739	-0.126232
N191	N	-0.906142	-1.173502	-0.671389
N192	N	-0.406142	-0.673502	-0.171389
C193	C	-0.522673	-1.447773	-0.397273
C194	C	-0.022673	-0.947773	0.102727
N195	N	-0.542254	-1.493019	-0.352122
N196	N	-0.042254	-0.993019	0.147878
C197	C	-0.655542	-1.502439	-0.342814
C198	C	-0.155542	-1.002439	0.157186
N199	N	-0.629903	-1.547651	-0.297646
N200	N	-0.129903	-1.047651	0.202354
H201	H	-0.430132	-1.234010	-0.610524
H202	H	0.069868	-0.734010	-0.110524
H203	H	-0.763431	-1.486921	-0.358427
H204	H	-0.263431	-0.986921	0.141573
H205	H	-0.684953	-1.179618	-0.665103
H206	H	-0.184953	-0.679618	-0.165103
H207	H	-0.919208	-1.432421	-0.412934
H208	H	-0.419208	-0.932421	0.087066
H209	H	-0.298027	-1.468055	-1.034772
H210	H	0.201973	-0.968055	-0.534772
C211	C	-1.025031	-1.448089	-0.397401
C212	C	-0.525031	-0.948089	0.102599
N213	N	-1.044631	-1.493335	-0.352274
N214	N	-0.544631	-0.993335	0.147726
H215	H	-0.529197	-1.234080	-0.610562
H216	H	-0.029197	-0.734080	-0.110562
