data_functionalizedCrystal
_audit_creation_method	'MofGen! by Chris Wilmer'
_symmetry_space_group_name_H-M	'P1'
_symmetry_Int_Tables_number	1
_symmetry_cell_setting	triclinic
loop_
_symmetry_equiv_pos_as_xyz
  x,y,z
_cell_length_a	27.440280
_cell_length_b	20.919319
_cell_length_c	20.919309
_cell_angle_alpha	60.112213
_cell_angle_beta	89.996752
_cell_angle_gamma	62.595208
loop_
_atom_site_label
_atom_site_type_symbol
_atom_site_fract_x
_atom_site_fract_y
_atom_site_fract_z
Zr1	Zr	0.493354	0.692179	-0.106642
O2	O	0.422344	0.817680	-0.209699
O3	O	0.512260	0.561384	-0.071614
O4	O	0.519890	0.684531	-0.204749
O5	O	0.411952	0.702412	0.024549
O6	O	0.600092	0.684520	-0.204753
O7	O	0.414715	0.694533	-0.076563
O8	O	0.586444	0.464233	0.033403
O9	O	0.425600	0.922699	-0.213607
O10	O	0.583635	0.617135	-0.060828
O11	O	0.521720	0.623023	0.014634
O12	O	0.530703	0.768012	-0.142116
O13	O	0.468788	0.773900	-0.066655
Zr14	Zr	0.616861	0.704728	0.054615
Zr15	Zr	0.621267	0.692162	-0.106647
Zr16	Zr	0.488949	0.704745	0.054620
Zr17	Zr	0.498547	0.859673	-0.112874
Zr18	Zr	0.611669	0.537234	0.060847
O19	O	0.597955	0.835523	0.019587
O20	O	0.604219	0.817656	-0.209707
O21	O	0.416080	0.835547	0.019595
O22	O	0.687872	0.579228	0.157673
O23	O	0.694136	0.561360	-0.071621
O24	O	0.505996	0.579252	0.157680
O25	O	0.698263	0.694496	-0.076575
O26	O	0.590326	0.712376	0.152723
O27	O	0.510124	0.712387	0.152726
O28	O	0.695501	0.702375	0.024537
O29	O	0.527273	0.922686	-0.213611
O30	O	0.582942	0.474222	0.161584
O31	O	0.684616	0.474208	0.161580
O32	O	0.688118	0.464220	0.033398
O33	O	0.422098	0.932688	-0.085425
O34	O	0.523771	0.932674	-0.085429
O35	O	0.579513	0.628895	0.090090
O36	O	0.641428	0.623007	0.014629
O37	O	0.588495	0.773885	-0.066660
O38	O	0.526580	0.779772	0.008801
C39	C	0.548612	0.488944	-0.018218
C40	C	0.546408	0.417839	-0.015572
C41	C	0.532510	0.015570	0.001669
C42	C	0.534553	0.082422	-0.000864
C43	C	0.567890	0.112775	-0.041527
C44	C	0.599192	0.076268	-0.079651
C45	C	0.597152	0.009413	-0.077113
C46	C	0.575669	0.314476	-0.051158
C47	C	0.577706	0.381338	-0.053696
C48	C	0.513067	0.387486	0.025093
C49	C	0.511028	0.320633	0.027624
C50	C	0.542331	0.284128	-0.010497
C51	C	0.569978	0.181110	-0.044119
C52	C	0.540247	0.215790	-0.007900
C53	C	0.395109	0.698475	-0.026007
C54	C	0.340806	0.698482	-0.026004
C55	C	0.005629	0.694093	-0.081717
C56	C	-0.045389	0.694086	-0.081717
O57	O	-0.070471	0.690362	-0.129074
N58	N	-0.072428	0.698429	-0.026015
C59	C	-0.048444	0.702769	0.029696
O60	O	-0.076128	0.706461	0.077076
C61	C	0.002575	0.702769	0.029699
C62	C	0.029609	0.698435	-0.026012
C63	C	0.032663	0.689758	-0.137423
C64	C	0.083677	0.689767	-0.137423
C65	C	0.107657	0.694109	-0.081718
C66	C	0.080623	0.698443	-0.026012
C67	C	0.026561	0.707103	0.085413
C68	C	0.077584	0.707102	0.085411
C69	C	0.104618	0.702768	0.029700
C70	C	0.155617	0.702794	0.029693
N71	N	0.182657	0.698452	-0.026010
C72	C	0.158677	0.694109	-0.081715
C73	C	-0.155588	0.702767	0.029687
C74	C	-0.206608	0.702773	0.029681
C75	C	-0.203549	0.694089	-0.081732
C76	C	-0.152529	0.694089	-0.081729
C77	C	-0.128548	0.698424	-0.026016
C78	C	0.265809	0.694127	-0.081712
C79	C	0.316827	0.694139	-0.081710
C80	C	0.313764	0.702819	0.029705
C81	C	0.262750	0.702811	0.029701
C82	C	0.238775	0.698462	-0.026012
O83	O	0.180733	0.706513	0.077027
O84	O	0.186370	0.690406	-0.129081
C85	C	0.715107	0.698433	-0.026020
C86	C	0.769409	0.698426	-0.026022
C87	C	0.560618	0.682735	-0.227727
C88	C	0.562489	0.677400	-0.296187
C89	C	0.561603	0.907963	-0.033809
C90	C	0.563807	0.979069	-0.036455
C91	C	0.535738	0.753649	-0.370782
C92	C	0.537503	0.748631	-0.435105
C93	C	0.566015	0.667364	-0.424831
C94	C	0.592769	0.591110	-0.350229
C95	C	0.591008	0.596129	-0.285908
C96	C	0.572719	0.648271	-0.616916
C97	C	0.574478	0.643259	-0.681245
C98	C	0.519212	0.800780	-0.766116
C99	C	0.517450	0.805791	-0.701790
C100	C	0.544206	0.729537	-0.627194
C101	C	0.567818	0.662233	-0.490578
C102	C	0.542407	0.734669	-0.561448
C103	C	0.549597	0.714172	0.175701
C104	C	0.547727	0.719507	0.244161
C105	C	0.708612	0.488923	-0.018224
C106	C	0.760709	0.417811	-0.015581
C107	C	0.543102	0.504663	0.183497
C108	C	0.539027	0.438892	0.254602
C109	C	0.703101	0.504642	0.183490
C110	C	0.753328	0.438864	0.254594
C111	C	0.407115	0.892266	-0.235517
C112	C	0.356887	0.958044	-0.306620
C113	C	0.401604	0.907984	-0.033802
C114	C	0.349506	0.979097	-0.036446
C115	C	0.567114	0.892245	-0.235523
C116	C	0.571188	0.958015	-0.306629
C117	C	0.755008	0.381350	-0.053733
C118	C	0.803955	0.314540	-0.051265
C119	C	0.858603	0.284188	-0.010639
C120	C	0.864303	0.320656	0.027515
C121	C	0.815357	0.387468	0.025041
C122	C	0.567280	0.411071	0.327389
C123	C	0.563450	0.349282	0.394206
C124	C	0.531369	0.315311	0.388235
C125	C	0.503112	0.343138	0.315441
C126	C	0.506940	0.404930	0.248626
C127	C	0.809240	0.404900	0.248594
C128	C	0.856440	0.343104	0.315397
C129	C	0.847726	0.315267	0.388198
C130	C	0.791808	0.349237	0.394196
C131	C	0.744610	0.411037	0.327394
C132	C	0.300975	0.992015	-0.300621
C133	C	0.253777	1.053833	-0.367425
C134	C	0.262490	1.081673	-0.440226
C135	C	0.318408	1.047698	-0.446223
C136	C	0.365606	0.985887	-0.379421
C137	C	0.355208	1.015564	0.001700
C138	C	0.306261	1.082391	-0.000787
C139	C	0.251614	1.112745	-0.041416
C140	C	0.245914	1.076274	-0.079566
C141	C	0.294860	1.009453	-0.077083
C142	C	0.603274	0.991968	-0.300633
C143	C	0.607114	1.053758	-0.367438
C144	C	0.578864	1.081600	-0.440238
C145	C	0.546777	1.047641	-0.446232
C146	C	0.542941	0.985847	-0.379427
H147	H	0.604855	0.406048	-0.086810
H148	H	0.799303	0.284855	-0.082335
H149	H	0.626279	0.969309	-0.241362
H150	H	0.886163	0.264945	0.442587
Br151	Br	0.644439	0.117457	-0.134833
H152	H	0.208251	1.081484	-0.362527
H153	H	0.519194	0.800836	-0.569810
Br154	Br	0.650660	1.099835	-0.359286
Br155	Br	0.779992	0.311450	0.493004
Br156	Br	0.346315	0.708715	0.105301
Br157	Br	0.468594	0.442675	0.149847
H158	H	0.898454	0.229783	-0.008630
H159	H	0.601157	0.284760	-0.082199
H160	H	0.593404	0.438724	0.332265
Br161	Br	0.601803	0.311529	0.492987
H162	H	0.528257	0.264996	0.442647
Br163	Br	0.233280	0.688224	-0.157322
Br164	Br	0.609005	0.544783	-0.515686
H165	H	0.816346	0.427555	0.189322
Br166	Br	0.353511	0.688263	-0.157325
H167	H	0.476992	0.315469	0.310591
Br168	Br	0.938472	0.279452	0.082650
Br169	Br	0.198429	1.165562	-0.530881
Br170	Br	0.823104	0.436939	0.076831
Br171	Br	0.287111	0.959965	-0.128854
Br172	Br	0.429366	0.974388	0.056842
H173	H	0.325496	1.070374	-0.505506
H174	H	0.699086	0.438682	0.332289
Br175	Br	0.465780	0.279445	0.082808
H176	H	0.004557	0.710631	0.130778
Br177	Br	0.627323	0.492645	-0.184669
H178	H	0.901966	0.315451	0.310500
Br179	Br	0.120363	0.683878	-0.213030
Br180	Br	0.314011	1.131871	0.050995
H181	H	0.293869	0.969351	-0.241349
H182	H	0.411130	0.958227	-0.384314
Br183	Br	0.185193	1.203433	-0.044777
Br184	Br	0.631468	0.480818	-0.336284
Br185	Br	0.680850	0.422528	-0.108877
Br186	Br	0.171745	1.117477	-0.134699
Br187	Br	0.639636	-0.040135	-0.128844
Br188	Br	0.584076	1.165465	-0.530895
H189	H	0.523778	1.070319	-0.505514
Br190	Br	0.499387	0.939783	-0.387578
H191	H	0.505360	-0.009135	0.034776
H192	H	0.487582	0.417215	0.056130
Br193	Br	0.492083	0.131947	0.050888
Br194	Br	0.615217	0.222314	-0.099307
H195	H	0.013145	0.686219	-0.182785
Br196	Br	-0.236104	0.688195	-0.157332
Br197	Br	-0.115846	0.688207	-0.157339
H198	H	0.513105	0.191071	0.025210
H199	H	-0.228621	0.706315	0.075039
Br200	Br	-0.123049	0.708659	0.105300
Br201	Br	0.110128	0.712981	0.161030
H202	H	0.240734	0.706353	0.075059
H203	H	0.512516	0.819825	-0.379156
Br204	Br	0.501197	0.852116	-0.536340
H205	H	0.497428	0.862861	-0.826857
Br206	Br	0.478720	0.916086	-0.715739
H207	H	0.597695	0.577078	-0.672871
H208	H	0.591033	0.596066	-0.482221
