data_functionalizedCrystal
_audit_creation_method	'MofGen! by Chris Wilmer'
_symmetry_space_group_name_H-M	'P1'
_symmetry_Int_Tables_number	1
_symmetry_cell_setting	triclinic
loop_
_symmetry_equiv_pos_as_xyz
  x,y,z
_cell_length_a	13.897449
_cell_length_b	19.077068
_cell_length_c	13.897441
_cell_angle_alpha	87.736015
_cell_angle_beta	90.020733
_cell_angle_gamma	92.328280
loop_
_atom_site_label
_atom_site_type_symbol
_atom_site_fract_x
_atom_site_fract_y
_atom_site_fract_z
Zn1	Zn	-1.459212	0.280154	-0.560773
Zn2	Zn	-0.959212	0.780154	-0.060773
Zn3	Zn	-1.452598	0.397865	-0.405941
Zn4	Zn	-0.952598	0.897865	0.094059
Zn5	Zn	-1.297899	0.280188	-0.399493
Zn6	Zn	-0.797899	0.780188	0.100507
Zn7	Zn	-1.291377	0.397818	-0.567191
Zn8	Zn	-0.791377	0.897818	-0.067191
O9	O	-1.375272	0.339006	-0.483349
O10	O	-0.875272	0.839006	0.016651
O11	O	-1.593316	0.295774	-0.540246
O12	O	-1.093316	0.795774	-0.040246
O13	O	-1.432038	0.382288	-0.270106
O14	O	-0.932038	0.882288	0.229894
O15	O	-1.324796	0.181693	-0.415502
O16	O	-0.824796	0.681693	0.084498
O17	O	-1.588456	0.382255	-0.426492
O18	O	-1.088456	0.882255	0.073508
O19	O	-1.443312	0.181668	-0.533994
O20	O	-0.943312	0.681668	-0.033994
O21	O	-1.318382	0.295831	-0.265368
O22	O	-0.818382	0.795831	0.234632
O23	O	-1.162053	0.295787	-0.421726
O24	O	-0.662053	0.795787	0.078274
O25	O	-1.313679	0.382177	-0.701319
O26	O	-0.813679	0.882177	-0.201319
O27	O	-1.157261	0.382209	-0.544933
O28	O	-0.657261	0.882209	-0.044933
O29	O	-1.436987	0.295729	-0.696604
O30	O	-0.936987	0.795729	-0.196604
O31	O	-1.425714	0.496349	-0.432716
O32	O	-0.925714	0.996349	0.067284
O33	O	-1.307266	0.496315	-0.551185
O34	O	-0.807266	0.996315	-0.051185
C35	C	-1.124658	0.338997	-0.483327
C36	C	-0.624658	0.838997	0.016673
C37	C	-1.017443	0.339010	-0.483341
C38	C	-0.517443	0.839010	0.016659
C39	C	-1.365090	0.521870	-0.493368
C40	C	-0.865090	1.021870	0.006632
C41	C	-1.360823	0.600100	-0.497686
C42	C	-0.860823	1.100100	0.002314
C43	C	-1.626864	0.339016	-0.483372
C44	C	-1.126864	0.839016	0.016628
C45	C	-1.734078	0.339021	-0.483382
C46	C	-1.234078	0.839021	0.016618
C47	C	-0.821148	0.339012	-0.483366
C48	C	-0.321148	0.839012	0.016634
C49	C	-0.930381	0.339009	-0.483349
C50	C	-0.430381	0.839009	0.016651
C51	C	-1.375344	0.338944	-0.734939
C52	C	-0.875344	0.838944	-0.234939
C53	C	-1.375374	0.338918	-0.842151
C54	C	-0.875374	0.838918	-0.342151
C55	C	-1.385519	0.155429	-0.473313
C56	C	-0.885519	0.655429	0.026687
C57	C	-1.389886	0.077199	-0.469036
C58	C	-0.889886	0.577199	0.030964
C59	C	-1.420536	0.636847	-0.438085
C60	C	-0.920536	1.136847	0.061915
C61	C	-1.416528	0.710352	-0.442152
C62	C	-0.916528	1.210352	0.057848
C63	C	-1.352801	0.747109	-0.505816
C64	C	-0.852801	1.247109	-0.005816
C65	C	-1.293086	0.710357	-0.565423
C66	C	-0.793086	1.210357	-0.065423
C67	C	-1.297100	0.636853	-0.561360
C68	C	-0.797100	1.136853	-0.061360
C69	C	-1.334184	0.966943	-0.524580
C70	C	-0.834184	1.466943	-0.024580
C71	C	-1.330173	1.040452	-0.528637
C72	C	-0.830173	1.540452	-0.028637
C73	C	-1.453616	1.040442	-0.405366
C74	C	-0.953616	1.540442	0.094634
C75	C	-1.457620	0.966936	-0.401305
C76	C	-0.957620	1.466936	0.098695
C77	C	-1.397909	0.930191	-0.460916
C78	C	-0.897909	1.430191	0.039084
N79	N	-1.348701	0.822243	-0.509973
N80	N	-0.848701	1.322243	-0.009973
N81	N	-1.402015	0.855058	-0.456763
N82	N	-0.902015	1.355058	0.043237
C83	C	-1.375403	0.338870	-1.038444
C84	C	-0.875403	0.838870	-0.538444
C85	C	-1.375384	0.338898	-0.929213
C86	C	-0.875384	0.838898	-0.429213
C87	C	-1.375258	0.339018	-0.232736
C88	C	-0.875258	0.839018	0.267264
C89	C	-1.375426	0.338846	-0.125513
C90	C	-0.875426	0.838846	0.374487
H91	H	-1.472424	0.606924	-0.386239
H92	H	-0.972424	1.106924	0.113761
C93	C	-1.231412	0.596432	-0.626927
C94	C	-0.731412	1.096432	-0.126927
N95	N	-1.181936	0.565988	-0.676316
N96	N	-0.681936	1.065988	-0.176316
C97	C	-1.482211	0.750770	-0.376580
C98	C	-0.982211	1.250770	0.123420
N99	N	-1.531685	0.781213	-0.327186
N100	N	-1.031685	1.281213	0.172814
C101	C	-1.527699	0.926509	-0.331245
C102	C	-1.027699	1.426509	0.168755
N103	N	-1.580472	0.896059	-0.278463
N104	N	-1.080472	1.396059	0.221537
H105	H	-1.285563	0.937030	-0.573116
H106	H	-0.785563	1.437030	-0.073116
H107	H	-1.502231	1.070368	-0.356836
H108	H	-1.002231	1.570368	0.143164
C109	C	-1.260073	1.080883	-0.598681
C110	C	-0.760073	1.580883	-0.098681
N111	N	-1.207277	1.111336	-0.651437
N112	N	-0.707277	1.611336	-0.151437
C113	C	-1.222984	0.750792	-0.635451
C114	C	-0.722984	1.250792	-0.135451
N115	N	-1.170176	0.781248	-0.688194
N116	N	-0.670176	1.281248	-0.188194
