data_functionalizedCrystal
_audit_creation_method	'MofGen! by Chris Wilmer'
_symmetry_space_group_name_H-M	'P1'
_symmetry_Int_Tables_number	1
_symmetry_cell_setting	triclinic
loop_
_symmetry_equiv_pos_as_xyz
  x,y,z
_cell_length_a	14.853566
_cell_length_b	14.853559
_cell_length_c	13.330367
_cell_angle_alpha	89.997552
_cell_angle_beta	89.995295
_cell_angle_gamma	83.632934
loop_
_atom_site_label
_atom_site_type_symbol
_atom_site_fract_x
_atom_site_fract_y
_atom_site_fract_z
O1	O	1.196366	0.117699	-0.083352
O2	O	1.696366	0.617699	0.416648
O3	O	0.933906	0.131721	-0.083368
O4	O	1.433906	0.631721	0.416632
O5	O	1.072151	-0.006520	-0.083359
O6	O	1.572151	0.493480	0.416641
O7	O	1.058121	0.255940	-0.083362
O8	O	1.558121	0.755940	0.416638
O9	O	1.072131	-0.006523	0.083488
O10	O	1.572131	0.493477	0.583488
O11	O	0.933886	0.131718	0.083479
O12	O	1.433886	0.631718	0.583479
O13	O	1.196346	0.117696	0.083495
O14	O	1.696346	0.617696	0.583495
Cu15	Cu	1.065114	0.124707	0.098721
Cu16	Cu	1.565114	0.624707	0.598721
Cu17	Cu	1.065138	0.124710	-0.098595
Cu18	Cu	1.565138	0.624710	0.401405
O19	O	1.058101	0.255937	0.083485
O20	O	1.558101	0.755937	0.583485
C21	C	0.900307	0.131085	0.000053
C22	C	1.400307	0.631085	0.500053
C23	C	0.800223	0.129181	0.000047
C24	C	1.300223	0.629181	0.500047
C25	C	0.377050	0.121132	-0.090884
C26	C	0.877050	0.621132	0.409116
C27	C	0.377049	0.121129	0.091020
C28	C	0.877049	0.621129	0.591020
C29	C	0.471083	0.122917	0.091016
C30	C	0.971083	0.622917	0.591016
C31	C	0.518105	0.123813	0.000062
C32	C	1.018105	0.623813	0.500062
C33	C	0.471092	0.122922	-0.090890
C34	C	0.971092	0.622922	0.409110
C35	C	0.518102	0.123817	0.181966
C36	C	1.018102	0.623817	0.681966
C37	C	0.612141	0.125605	0.181967
C38	C	1.112141	0.625605	0.681967
C39	C	0.659165	0.126496	0.091011
C40	C	1.159165	0.626496	0.591011
C41	C	0.612147	0.125604	0.000056
C42	C	1.112147	0.625604	0.500056
C43	C	0.659168	0.126500	-0.090899
C44	C	1.159168	0.626500	0.409101
C45	C	0.612153	0.125602	-0.181855
C46	C	1.112153	0.625602	0.318145
C47	C	0.518116	0.123813	-0.181845
C48	C	1.018116	0.623813	0.318155
C49	C	0.753202	0.128285	0.091002
C50	C	1.253202	0.628285	0.591002
C51	C	0.753211	0.128290	-0.090904
C52	C	1.253211	0.628290	0.409096
C53	C	1.071506	-0.040111	0.000063
C54	C	1.571506	0.459889	0.500063
C55	C	1.069605	-0.140195	0.000057
C56	C	1.569605	0.359805	0.500057
C57	C	1.061553	-0.563368	-0.090892
C58	C	1.561553	-0.063368	0.409108
C59	C	1.061531	-0.563366	0.091011
C60	C	1.561531	-0.063366	0.591011
C61	C	1.063324	-0.469333	0.091012
C62	C	1.563324	0.030667	0.591012
C63	C	1.064230	-0.422313	0.000060
C64	C	1.564230	0.077687	0.500060
C65	C	1.063343	-0.469326	-0.090894
C66	C	1.563343	0.030674	0.409106
C67	C	1.064202	-0.422312	0.181964
C68	C	1.564202	0.077688	0.681964
C69	C	1.065994	-0.328273	0.181969
C70	C	1.565994	0.171727	0.681969
C71	C	1.066907	-0.281251	0.091015
C72	C	1.566907	0.218749	0.591015
C73	C	1.066021	-0.328270	0.000058
C74	C	1.566021	0.171730	0.500058
C75	C	1.066928	-0.281250	-0.090894
C76	C	1.566928	0.218750	0.409106
C77	C	1.066048	-0.328268	-0.181853
C78	C	1.566048	0.171732	0.318147
C79	C	1.064256	-0.422305	-0.181847
C80	C	1.564256	0.077695	0.318153
C81	C	1.068699	-0.187215	0.091010
C82	C	1.568699	0.312785	0.591010
C83	C	1.068718	-0.187208	-0.090896
C84	C	1.568718	0.312792	0.409104
C85	C	1.229945	0.118332	0.000071
C86	C	1.729945	0.618332	0.500071
C87	C	1.330028	0.120236	0.000071
C88	C	1.830028	0.620236	0.500071
C89	C	1.058745	0.289528	0.000062
C90	C	1.558745	0.789528	0.500062
C91	C	1.060646	0.389612	0.000061
C92	C	1.560646	0.889612	0.500061
N93	N	1.065104	0.124703	0.237503
N94	N	1.565104	0.624703	0.737503
N95	N	1.065155	0.124706	-0.237376
N96	N	1.565155	0.624706	0.262624
C97	C	1.003920	0.185900	0.710122
C98	C	1.503920	0.685900	1.210122
C99	C	1.126379	0.063514	0.710098
C100	C	1.626379	0.563514	1.210098
C101	C	1.126369	0.063511	0.605080
C102	C	1.626369	0.563511	1.105080
C103	C	1.065135	0.124704	0.552577
C104	C	1.565135	0.624704	1.052577
C105	C	1.003910	0.185900	0.605094
C106	C	1.503910	0.685900	1.105094
C107	C	1.187599	0.002322	0.552556
C108	C	1.687599	0.502322	1.052556
C109	C	1.187592	0.002318	0.447531
C110	C	1.687592	0.502318	0.947531
C111	C	1.126352	0.063507	0.395027
C112	C	1.626352	0.563507	0.895027
C113	C	1.065124	0.124705	0.447549
C114	C	1.565124	0.624705	0.947549
C115	C	1.003890	0.185899	0.395047
C116	C	1.503890	0.685899	0.895047
C117	C	0.942657	0.247093	0.447568
C118	C	1.442657	0.747093	0.947568
C119	C	0.942670	0.247090	0.552589
C120	C	1.442670	0.747090	1.052589
C121	C	1.126339	0.063510	0.290005
C122	C	1.626339	0.563510	0.790005
C123	C	1.003879	0.185900	0.290019
C124	C	1.503879	0.685900	0.790019
H125	H	0.791489	0.129017	-0.164972
H126	H	1.291489	0.629017	0.335028
H127	H	0.479828	0.123080	-0.255897
H128	H	0.979828	0.623080	0.244103
H129	H	1.063539	-0.460595	-0.255900
H130	H	1.563539	0.039405	0.244100
F131	F	0.327016	0.120155	-0.187681
F132	F	0.827016	0.620155	0.312319
F133	F	0.662171	0.126560	0.278769
F134	F	1.162171	0.626560	0.778769
H135	H	1.066779	-0.289971	-0.255906
H136	H	1.566779	0.210029	0.244094
F137	F	1.060625	-0.613408	-0.187691
F138	F	1.560625	-0.113408	0.312309
H139	H	1.069395	-0.148934	0.165066
H140	H	1.569395	0.351066	0.665066
H141	H	0.954011	0.235728	0.247278
H142	H	1.454011	0.735728	0.747278
F143	F	1.252757	-0.062811	0.391642
F144	F	1.752757	0.437189	0.891642
H145	H	0.650449	0.126338	-0.255910
H146	H	1.150449	0.626338	0.244090
H147	H	1.176239	0.013696	0.752849
H148	H	1.676239	0.513696	1.252849
H149	H	0.791477	0.129025	0.165057
H150	H	1.291477	0.629025	0.665057
F151	F	1.191508	-0.001608	0.234115
F152	F	1.691508	0.498392	0.734115
H153	H	1.060787	-0.601655	0.165061
H154	H	1.560787	-0.101655	0.665061
F155	F	0.468053	0.122873	0.278759
F156	F	0.968053	0.622873	0.778759
F157	F	0.327002	0.120184	0.187814
F158	F	0.827002	0.620184	0.687814
F159	F	1.069689	-0.137174	-0.187703
F160	F	1.569689	0.362826	0.312297
F161	F	1.063220	-0.472356	0.278755
F162	F	1.563220	0.027644	0.778755
H163	H	0.892803	0.296921	0.404808
H164	H	1.392803	0.796921	0.904808
F165	F	1.066927	-0.278240	0.278773
F166	F	1.566927	0.221760	0.778773
H167	H	0.954063	0.235721	0.752887
H168	H	1.454063	0.735721	1.252887
F169	F	0.877509	0.312214	0.608489
F170	F	1.377509	0.812214	1.108489
F171	F	1.252772	-0.062796	0.608432
F172	F	1.752772	0.437204	1.108432
