data_functionalizedCrystal
_audit_creation_method	'MofGen! by Chris Wilmer'
_symmetry_space_group_name_H-M	'P1'
_symmetry_Int_Tables_number	1
_symmetry_cell_setting	triclinic
loop_
_symmetry_equiv_pos_as_xyz
  x,y,z
_cell_length_a	19.288864
_cell_length_b	16.992695
_cell_length_c	18.366186
_cell_angle_alpha	89.993794
_cell_angle_beta	89.977106
_cell_angle_gamma	86.902234
loop_
_atom_site_label
_atom_site_type_symbol
_atom_site_fract_x
_atom_site_fract_y
_atom_site_fract_z
O1	O	0.927052	0.097795	-0.060785
O2	O	0.725561	0.110988	-0.060736
O3	O	0.825499	-0.009748	-0.060755
O4	O	0.827114	0.218531	-0.060767
O5	O	0.825480	-0.009754	0.060345
O6	O	0.725542	0.110982	0.060363
O7	O	0.927034	0.097789	0.060314
Zn8	Zn	0.826285	0.104385	0.079566
Zn9	Zn	0.826309	0.104392	-0.079988
O10	O	0.827096	0.218525	0.060333
C11	C	0.699650	0.110560	-0.000180
C12	C	0.622472	0.109286	-0.000161
C13	C	0.823411	-0.038957	-0.000205
C14	C	0.817211	-0.125979	-0.000203
C15	C	0.581905	0.180128	-0.000176
C16	C	0.509388	0.178931	-0.000184
C17	C	0.477442	0.106888	-0.000191
C18	C	0.518018	0.036036	-0.000172
C19	C	0.590534	0.037235	-0.000157
C20	C	0.365885	0.050255	-0.042639
C21	C	0.293371	0.049059	-0.042659
C22	C	0.253780	0.103186	-0.000235
C23	C	0.286712	0.158522	0.042199
C24	C	0.359227	0.159722	0.042214
C25	C	0.398811	0.105579	-0.000207
C26	C	0.134581	0.172735	-0.000258
C27	C	0.062063	0.171535	-0.000261
C28	C	0.070695	0.028638	-0.000257
C29	C	0.143212	0.029840	-0.000246
C30	C	0.175150	0.101891	-0.000250
C31	C	0.877039	-0.176431	-0.000217
C32	C	0.871208	-0.258197	-0.000223
C33	C	0.805549	-0.289509	-0.000209
C34	C	0.745717	-0.239051	-0.000197
C35	C	0.751548	-0.157287	-0.000197
C36	C	0.781382	-0.533022	-0.000213
C37	C	0.775556	-0.614793	-0.000211
C38	C	0.901048	-0.633933	-0.000238
C39	C	0.906873	-0.552166	-0.000233
C40	C	0.847041	-0.501715	-0.000225
N41	N	0.799588	-0.373087	-0.000212
N42	N	0.853002	-0.418138	-0.000227
C43	C	0.952944	0.098217	-0.000244
C44	C	1.030122	0.099491	-0.000268
C45	C	0.829183	0.247733	-0.000219
C46	C	0.835384	0.334756	-0.000225
N47	N	0.826273	0.104379	0.188457
N48	N	0.826326	0.104392	-0.188879
C49	C	0.870543	0.050943	0.226549
C50	C	0.870547	0.050940	0.302777
C51	C	0.826289	0.104385	0.340910
C52	C	0.782011	0.157825	0.302808
C53	C	0.782003	0.157822	0.226582
C54	C	0.821154	0.175814	0.461668
C55	C	0.821167	0.175819	0.537893
C56	C	0.826310	0.104395	0.576017
C57	C	0.831454	0.032964	0.537908
C58	C	0.831446	0.032961	0.461681
C59	C	0.826293	0.104394	0.423564
C60	C	0.870586	0.050951	0.696764
C61	C	0.870585	0.050947	0.772994
C62	C	0.782053	0.157839	0.773024
C63	C	0.782050	0.157837	0.696796
C64	C	0.826320	0.104394	0.658671
H65	H	0.607904	0.238798	-0.000180
H66	H	0.949760	-0.675018	-0.000246
H67	H	0.702829	-0.116209	-0.000186
H68	H	0.722085	-0.640283	-0.000188
Br69	Br	0.177931	0.270516	-0.000258
H70	H	0.746014	0.201352	0.804071
Br71	Br	0.700180	-0.464562	-0.000207
H72	H	0.254478	0.202597	0.076745
Br73	Br	0.656606	-0.281546	-0.000191
Br74	Br	0.645594	-0.058916	-0.000135
H75	H	0.816982	0.233982	0.568916
H76	H	0.906633	0.007429	0.804009
H77	H	0.906589	0.007425	0.195510
Br78	Br	0.838443	-0.063975	0.589638
Br79	Br	0.454320	0.275081	-0.000200
H80	H	0.746004	0.201352	0.665779
H81	H	0.029034	0.229226	-0.000270
H82	H	0.745953	0.201336	0.195567
H83	H	0.492003	-0.022623	-0.000188
H84	H	0.266564	0.004004	-0.077214
H85	H	0.044686	-0.030021	-0.000308
H86	H	0.930505	-0.150943	-0.000224
H87	H	0.386037	0.204776	0.076768
H88	H	0.906598	0.007424	0.333797
Br89	Br	0.838421	-0.063976	0.409962
Br90	Br	0.198272	-0.066309	-0.000227
Br91	Br	0.814244	0.272758	0.409935
H92	H	0.906632	0.007432	0.665722
H93	H	0.398115	0.006177	-0.077190
H94	H	0.745974	0.201340	0.333860
Br95	Br	0.952408	-0.326665	-0.000242
H96	H	0.960340	-0.526677	-0.000244
