data_functionalizedCrystal
_audit_creation_method	'MofGen! by Chris Wilmer'
_symmetry_space_group_name_H-M	'P1'
_symmetry_Int_Tables_number	1
_symmetry_cell_setting	triclinic
loop_
_symmetry_equiv_pos_as_xyz
  x,y,z
_cell_length_a	16.625548
_cell_length_b	18.050589
_cell_length_c	16.625539
_cell_angle_alpha	90.022960
_cell_angle_beta	90.017055
_cell_angle_gamma	90.029289
loop_
_atom_site_label
_atom_site_type_symbol
_atom_site_fract_x
_atom_site_fract_y
_atom_site_fract_z
Zn1	Zn	1.232620	-0.295651	0.455929
Zn2	Zn	1.482620	-0.045651	0.705929
Zn3	Zn	1.732620	0.204349	0.955929
Zn4	Zn	1.982620	0.454349	1.205929
Zn5	Zn	1.232518	-0.419844	0.321104
Zn6	Zn	1.482518	-0.169844	0.571104
Zn7	Zn	1.732518	0.080156	0.821104
Zn8	Zn	1.982518	0.330156	1.071104
Zn9	Zn	1.097790	-0.295675	0.321109
Zn10	Zn	1.347790	-0.045675	0.571109
Zn11	Zn	1.597790	0.204325	0.821109
Zn12	Zn	1.847790	0.454325	1.071109
Zn13	Zn	1.097739	-0.419806	0.455894
Zn14	Zn	1.347739	-0.169806	0.705894
Zn15	Zn	1.597739	0.080194	0.955894
Zn16	Zn	1.847739	0.330194	1.205894
O17	O	1.165167	-0.357744	0.388509
O18	O	1.415167	-0.107744	0.638509
O19	O	1.665167	0.142256	0.888509
O20	O	1.915167	0.392256	1.138509
O21	O	1.345439	-0.312131	0.438056
O22	O	1.595439	-0.062131	0.688056
O23	O	1.845439	0.187869	0.938056
O24	O	2.095439	0.437869	1.188056
O25	O	1.214625	-0.403399	0.208272
O26	O	1.464625	-0.153399	0.458272
O27	O	1.714625	0.096601	0.708272
O28	O	1.964625	0.346601	0.958272
O29	O	1.115740	-0.191747	0.339010
O30	O	1.365740	0.058253	0.589010
O31	O	1.615740	0.308253	0.839010
O32	O	1.865740	0.558253	1.089010
O33	O	1.345364	-0.403376	0.339001
O34	O	1.595364	-0.153376	0.589001
O35	O	1.845364	0.096624	0.839001
O36	O	2.095364	0.346624	1.089001
O37	O	1.214799	-0.191729	0.438061
O38	O	1.464799	0.058271	0.688061
O39	O	1.714799	0.308271	0.938061
O40	O	1.964799	0.558271	1.188061
O41	O	1.115641	-0.312173	0.208276
O42	O	1.365641	-0.062173	0.458276
O43	O	1.615641	0.187827	0.708276
O44	O	1.865641	0.437827	0.958276
O45	O	0.984951	-0.312135	0.338976
O46	O	1.234951	-0.062135	0.588976
O47	O	1.484951	0.187865	0.838976
O48	O	1.734951	0.437865	1.088976
O49	O	1.115652	-0.403310	0.568731
O50	O	1.365652	-0.153310	0.818731
O51	O	1.615652	0.096690	1.068731
O52	O	1.865652	0.346690	1.318731
O53	O	0.984913	-0.403333	0.438002
O54	O	1.234913	-0.153333	0.688002
O55	O	1.484913	0.096667	0.938002
O56	O	1.734913	0.346667	1.188002
O57	O	1.214749	-0.312094	0.568757
O58	O	1.464749	-0.062094	0.818757
O59	O	1.714749	0.187906	1.068757
O60	O	1.964749	0.437906	1.318757
O61	O	1.214575	-0.523764	0.338968
O62	O	1.464575	-0.273764	0.588968
O63	O	1.714575	-0.023764	0.838968
O64	O	1.964575	0.226236	1.088968
O65	O	1.115554	-0.523735	0.437997
O66	O	1.365554	-0.273735	0.687997
O67	O	1.615554	-0.023735	0.937997
O68	O	1.865554	0.226265	1.187997
C69	C	0.955676	-0.357733	0.388487
C70	C	1.205676	-0.107733	0.638487
C71	C	1.455676	0.142267	0.888487
C72	C	1.705676	0.392267	1.138487
C73	C	0.866055	-0.357747	0.388496
C74	C	1.116055	-0.107747	0.638496
C75	C	1.366055	0.142253	0.888496
C76	C	1.616055	0.392253	1.138496
C77	C	0.537879	-0.357751	0.388531
C78	C	0.787879	-0.107751	0.638531
C79	C	1.037879	0.142249	0.888531
C80	C	1.287879	0.392249	1.138531
C81	C	0.629188	-0.357748	0.388518
C82	C	0.879188	-0.107748	0.638518
C83	C	1.129188	0.142252	0.888518
C84	C	1.379188	0.392252	1.138518
C85	C	0.701964	-0.357749	0.388513
C86	C	0.951964	-0.107749	0.638513
C87	C	1.201964	0.142251	0.888513
C88	C	1.451964	0.392251	1.138513
C89	C	0.793279	-0.357745	0.388502
C90	C	1.043279	-0.107745	0.638502
C91	C	1.293279	0.142255	0.888502
C92	C	1.543279	0.392255	1.138502
C93	C	1.165070	-0.550696	0.388496
C94	C	1.415070	-0.300696	0.638496
C95	C	1.665070	-0.050696	0.888496
C96	C	1.915070	0.199304	1.138496
C97	C	1.165102	-0.633242	0.388517
C98	C	1.415102	-0.383242	0.638517
C99	C	1.665102	-0.133242	0.888517
C100	C	1.915102	0.116758	1.138517
C101	C	1.111307	-0.832704	0.442350
C102	C	1.361307	-0.582704	0.692350
C103	C	1.611307	-0.332704	0.942350
C104	C	1.861307	-0.082704	1.192350
C105	C	1.091655	-0.882144	0.368774
C106	C	1.341655	-0.632144	0.618774
C107	C	1.591655	-0.382144	0.868774
C108	C	1.841655	-0.132144	1.118774
C109	C	1.165181	-0.784372	0.388528
C110	C	1.415181	-0.534372	0.638528
C111	C	1.665181	-0.284372	0.888528
C112	C	1.915181	-0.034372	1.138528
C113	C	1.184872	-0.882014	0.462112
C114	C	1.434872	-0.632014	0.712112
C115	C	1.684872	-0.382014	0.962112
C116	C	1.934872	-0.132014	1.212112
C117	C	1.165256	-0.930357	0.388544
C118	C	1.415256	-0.680357	0.638544
C119	C	1.665256	-0.430357	0.888544
C120	C	1.915256	-0.180357	1.138544
C121	C	1.145490	-0.832725	0.314913
C122	C	1.395490	-0.582725	0.564913
C123	C	1.645490	-0.332725	0.814913
C124	C	1.895490	-0.082725	1.064913
C125	C	1.238742	-0.832590	0.408300
C126	C	1.488742	-0.582590	0.658300
C127	C	1.738742	-0.332590	0.908300
C128	C	1.988742	-0.082590	1.158300
C129	C	1.219118	-0.882008	0.334673
C130	C	1.469118	-0.632008	0.584673
C131	C	1.719118	-0.382008	0.834673
C132	C	1.969118	-0.132008	1.084673
C133	C	1.165136	-0.700274	0.388519
C134	C	1.415136	-0.450274	0.638519
C135	C	1.665136	-0.200274	0.888519
C136	C	1.915136	0.049726	1.138519
C137	C	1.165301	-1.014454	0.388544
C138	C	1.415301	-0.764454	0.638544
C139	C	1.665301	-0.514454	0.888544
C140	C	1.915301	-0.264454	1.138544
C141	C	1.375476	-0.357755	0.388532
C142	C	1.625476	-0.107755	0.638532
C143	C	1.875476	0.142245	0.888532
C144	C	2.125476	0.392245	1.138532
C145	C	1.465097	-0.357760	0.388542
C146	C	1.715097	-0.107760	0.638542
C147	C	1.965097	0.142240	0.888542
C148	C	2.215097	0.392240	1.138542
C149	C	1.165206	-0.357695	0.598818
C150	C	1.415206	-0.107695	0.848818
C151	C	1.665206	0.142305	1.098818
C152	C	1.915206	0.392305	1.348818
C153	C	1.165223	-0.357674	0.688439
C154	C	1.415223	-0.107674	0.938439
C155	C	1.665223	0.142326	1.188439
C156	C	1.915223	0.392326	1.438439
C157	C	1.165287	-0.164038	0.388540
C158	C	1.415287	0.085962	0.638540
C159	C	1.665287	0.335962	0.888540
C160	C	1.915287	0.585962	1.138540
C161	C	1.165338	-0.081492	0.388553
C162	C	1.415338	0.168508	0.638553
C163	C	1.665338	0.418508	0.888553
C164	C	1.915338	0.668508	1.138553
C165	C	1.165174	-0.357739	0.179018
C166	C	1.415174	-0.107739	0.429018
C167	C	1.665174	0.142261	0.679018
C168	C	1.915174	0.392261	0.929018
C169	C	1.165313	-0.357551	0.089398
C170	C	1.415313	-0.107551	0.339398
C171	C	1.665313	0.142449	0.589398
C172	C	1.915313	0.392449	0.839398
C173	C	1.165236	-0.357658	0.761222
C174	C	1.415236	-0.107658	1.011222
C175	C	1.665236	0.142342	1.261222
C176	C	1.915236	0.392342	1.511222
C177	C	1.165255	-0.357630	0.852530
C178	C	1.415255	-0.107630	1.102530
C179	C	1.665255	0.142370	1.352530
C180	C	1.915255	0.392370	1.602530
C181	C	1.165274	-0.357604	0.925307
C182	C	1.415274	-0.107604	1.175307
C183	C	1.665274	0.142396	1.425307
C184	C	1.915274	0.392396	1.675307
C185	C	1.165294	-0.357577	1.016621
C186	C	1.415294	-0.107577	1.266621
C187	C	1.665294	0.142423	1.516621
C188	C	1.915294	0.392423	1.766621
H189	H	1.065680	-0.811054	0.487802
H190	H	1.315680	-0.561054	0.737802
H191	H	1.565680	-0.311054	0.987802
H192	H	1.815680	-0.061054	1.237802
H193	H	1.029481	-0.903926	0.352066
H194	H	1.279481	-0.653926	0.602066
H195	H	1.529481	-0.403926	0.852066
H196	H	1.779481	-0.153926	1.102066
C197	C	1.280706	-0.911078	0.273128
C198	C	1.530706	-0.661078	0.523128
C199	C	1.780706	-0.411078	0.773128
C200	C	2.030706	-0.161078	1.023128
H201	H	1.266613	-0.894111	0.220909
H202	H	1.516613	-0.644111	0.470909
H203	H	1.766613	-0.394111	0.720909
H204	H	2.016613	-0.144111	0.970909
H205	H	1.332778	-0.893361	0.286721
H206	H	1.582778	-0.643361	0.536721
H207	H	1.832778	-0.393361	0.786721
H208	H	2.082778	-0.143361	1.036721
H209	H	1.280707	-0.963705	0.273773
H210	H	1.530707	-0.713705	0.523773
H211	H	1.780707	-0.463705	0.773773
H212	H	2.030707	-0.213705	1.023773
C213	C	1.322712	-0.803159	0.430913
C214	C	1.572712	-0.553159	0.680913
C215	C	1.822712	-0.303159	0.930913
C216	C	2.072712	-0.053159	1.180913
H217	H	1.343356	-0.774211	0.387897
H218	H	1.593356	-0.524211	0.637897
H219	H	1.843356	-0.274211	0.887897
H220	H	2.093356	-0.024211	1.137897
H221	H	1.318822	-0.773437	0.477914
H222	H	1.568822	-0.523437	0.727914
H223	H	1.818822	-0.273437	0.977914
H224	H	2.068822	-0.023437	1.227914
H225	H	1.357768	-0.843678	0.440872
H226	H	1.607768	-0.593678	0.690872
H227	H	1.857768	-0.343678	0.940872
H228	H	2.107768	-0.093678	1.190872
H229	H	1.128793	-0.811164	0.252673
H230	H	1.378793	-0.561164	0.502673
H231	H	1.628793	-0.311164	0.752673
H232	H	1.878793	-0.061164	1.002673
C233	C	1.207336	-0.911261	0.546166
C234	C	1.457336	-0.661261	0.796166
C235	C	1.707336	-0.411261	1.046166
C236	C	1.957336	-0.161261	1.296166
H237	H	1.168978	-0.894370	0.584333
H238	H	1.418978	-0.644370	0.834333
H239	H	1.668978	-0.394370	1.084333
H240	H	1.918978	-0.144370	1.334333
H241	H	1.207686	-0.963882	0.545455
H242	H	1.457686	-0.713882	0.795455
H243	H	1.707686	-0.463882	1.045455
H244	H	1.957686	-0.213882	1.295455
H245	H	1.259199	-0.893558	0.560575
H246	H	1.509199	-0.643558	0.810575
H247	H	1.759199	-0.393558	1.060575
H248	H	2.009199	-0.143558	1.310575
