data_functionalizedCrystal
_audit_creation_method	'MofGen! by Chris Wilmer'
_symmetry_space_group_name_H-M	'P1'
_symmetry_Int_Tables_number	1
_symmetry_cell_setting	triclinic
loop_
_symmetry_equiv_pos_as_xyz
  x,y,z
_cell_length_a	14.853566
_cell_length_b	23.532407
_cell_length_c	13.330367
_cell_angle_alpha	89.986859
_cell_angle_beta	89.995295
_cell_angle_gamma	83.241581
loop_
_atom_site_label
_atom_site_type_symbol
_atom_site_fract_x
_atom_site_fract_y
_atom_site_fract_z
O1	O	1.195556	0.074349	-0.083377
O2	O	0.933000	0.083207	-0.083396
O3	O	1.072195	-0.004119	-0.083357
O4	O	1.056361	0.161675	-0.083415
O5	O	1.072175	-0.004121	0.083490
O6	O	0.932980	0.083205	0.083452
O7	O	1.195536	0.074347	0.083471
Cu8	Cu	1.064256	0.078776	0.098696
Cu9	Cu	1.064280	0.078778	-0.098621
O10	O	1.056341	0.161673	0.083432
C11	C	0.899405	0.082805	0.000026
C12	C	0.799335	0.081603	0.000020
C13	C	0.376217	0.076518	-0.090909
C14	C	0.376216	0.076516	0.090994
C15	C	0.470238	0.077646	0.090991
C16	C	0.517253	0.078212	0.000036
C17	C	0.470247	0.077649	-0.090915
C18	C	0.517250	0.078214	0.181941
C19	C	0.611277	0.079344	0.181941
C20	C	0.658295	0.079906	0.090985
C21	C	0.611283	0.079343	0.000030
C22	C	0.658298	0.079909	-0.090925
C23	C	0.611289	0.079342	-0.181881
C24	C	0.517264	0.078211	-0.181871
C25	C	0.752320	0.081036	0.090975
C26	C	0.752328	0.081040	-0.090931
C27	C	1.071782	-0.025338	0.000071
C28	C	1.070570	-0.088560	0.000086
C29	C	0.983197	-0.355109	0.000018
C30	C	0.984323	-0.295703	0.000025
O31	O	0.915012	-0.259261	-0.000011
N32	N	1.067075	-0.272716	0.000043
C33	C	1.148706	-0.309138	0.000042
O34	O	1.219196	-0.284131	0.000057
C35	C	1.147579	-0.368542	0.000027
C36	C	1.064822	-0.391525	0.000020
C37	C	0.900447	-0.378093	0.000009
C38	C	0.899321	-0.437494	0.000003
C39	C	0.980946	-0.473911	0.000006
C40	C	1.063696	-0.450926	0.000014
C41	C	1.229209	-0.404962	0.000020
C42	C	1.228075	-0.464369	0.000004
C43	C	1.145317	-0.487353	-0.000003
C44	C	1.144195	-0.546744	0.000011
N45	N	1.061443	-0.569731	-0.000007
C46	C	0.979818	-0.533315	-0.000009
C47	C	1.151067	-0.184385	0.000072
C48	C	1.152195	-0.124982	0.000094
C49	C	0.987812	-0.111552	0.000075
C50	C	0.986685	-0.170956	0.000060
C51	C	1.068315	-0.207372	0.000054
C52	C	0.977460	-0.658062	-0.000021
C53	C	0.976342	-0.717469	-0.000023
C54	C	1.140724	-0.730894	-0.000009
C55	C	1.141843	-0.671492	-0.000002
C56	C	1.060204	-0.635077	-0.000011
O57	O	1.213470	-0.583221	0.000043
O58	O	0.909340	-0.558330	-0.000037
C59	C	1.229131	0.074750	0.000047
C60	C	1.329201	0.075952	0.000046
C61	C	1.056754	0.182892	0.000002
C62	C	1.057966	0.246115	-0.000020
N63	N	1.064246	0.078774	0.237477
N64	N	1.064297	0.078776	-0.237402
C65	C	1.002642	0.117431	0.710083
C66	C	1.125943	0.040121	0.710085
C67	C	1.125932	0.040119	0.605066
C68	C	1.064277	0.078775	0.552552
C69	C	1.002631	0.117432	0.605055
C70	C	1.187583	0.001467	0.552555
C71	C	1.187576	0.001464	0.447530
C72	C	1.125915	0.040117	0.395014
C73	C	1.064267	0.078775	0.447523
C74	C	1.002611	0.117431	0.395009
C75	C	0.940957	0.156087	0.447517
C76	C	0.940971	0.156085	0.552538
C77	C	1.125902	0.040119	0.289992
C78	C	1.002601	0.117431	0.289980
H79	H	0.908948	-0.736178	-0.000024
Cl80	Cl	1.253699	-0.230160	0.000077
H81	H	0.649545	0.079805	0.256003
Cl82	Cl	1.333253	-0.376083	0.000005
Cl83	Cl	0.811427	0.081747	-0.205281
Cl84	Cl	1.330703	-0.510147	-0.000007
Cl85	Cl	0.797818	-0.332321	0.000004
Cl86	Cl	0.863456	0.204684	0.381487
H87	H	0.919297	-0.189665	0.000058
Cl88	Cl	0.317126	0.075788	-0.205247
H89	H	0.890775	0.187558	0.595297
Cl90	Cl	0.925134	0.166023	0.776087
H91	H	1.237776	-0.030012	0.404785
H92	H	1.207181	-0.760555	-0.000002
H93	H	0.921349	-0.081890	0.000074
Cl94	Cl	0.317109	0.075811	0.205331
H95	H	1.219584	-0.106274	0.000116
H96	H	0.910982	-0.628419	-0.000029
H97	H	1.209231	-0.652778	0.000018
H98	H	1.176145	0.008652	0.752846
H99	H	1.237785	-0.030002	0.595316
H100	H	1.176103	0.008648	0.247245
H101	H	0.649580	0.079807	-0.255936
Cl102	Cl	0.458140	0.077509	0.296275
Cl103	Cl	0.458167	0.077476	-0.296204
Cl104	Cl	0.811412	0.081754	0.205310
H105	H	0.831932	-0.456201	-0.000011
H106	H	0.952390	0.148907	0.247229
