data_functionalizedCrystal
_audit_creation_method	'MofGen! by Chris Wilmer'
_symmetry_space_group_name_H-M	'P1'
_symmetry_Int_Tables_number	1
_symmetry_cell_setting	triclinic
loop_
_symmetry_equiv_pos_as_xyz
  x,y,z
_cell_length_a	16.992695
_cell_length_b	16.974897
_cell_length_c	15.455446
_cell_angle_alpha	90.984929
_cell_angle_beta	92.856195
_cell_angle_gamma	87.027201
loop_
_atom_site_label
_atom_site_type_symbol
_atom_site_fract_x
_atom_site_fract_y
_atom_site_fract_z
O1	O	0.106917	1.048908	0.145682
O2	O	0.118870	0.820228	0.129648
O3	O	-0.001252	0.933652	0.137594
O4	O	0.227038	0.935485	0.137736
O5	O	-0.008096	0.940101	-0.006213
O6	O	0.112025	0.826677	-0.014159
O7	O	0.100072	1.055357	0.001875
Cu8	Cu	0.105424	0.941606	-0.019273
Cu9	Cu	0.113518	0.933979	0.150796
O10	O	0.220194	0.941933	-0.006071
C11	C	0.114864	0.794056	0.055684
C12	C	0.113115	0.706465	0.049542
C13	C	0.116026	0.661792	0.125040
C14	C	0.114394	0.579490	0.119256
C15	C	0.109846	0.541862	0.037974
C16	C	0.106938	0.586541	-0.037529
C17	C	0.108575	0.668841	-0.031745
C18	C	0.104556	0.296099	0.012270
C19	C	0.102917	0.213793	0.006491
C20	C	0.110375	0.206747	0.163277
C21	C	0.112007	0.289049	0.169054
C22	C	0.109102	0.333721	0.093551
N23	N	0.108176	0.457737	0.032061
N24	N	0.110778	0.417844	0.099465
C25	C	-0.033892	0.934517	0.065525
C26	C	-0.120953	0.927480	0.065032
C27	C	-0.171036	0.995381	0.069792
C28	C	-0.252838	0.988764	0.069336
C29	C	-0.284554	0.914245	0.064114
C30	C	-0.234464	0.846339	0.059357
C31	C	-0.152664	0.852956	0.059819
C32	C	-0.528215	0.886816	0.062203
C33	C	-0.610021	0.880204	0.061739
C34	C	-0.628390	1.022629	0.071720
C35	C	-0.546587	1.029241	0.072176
C36	C	-0.496504	0.961334	0.067423
N37	N	-0.368168	0.907479	0.063646
N38	N	-0.412891	0.968101	0.067898
C39	C	0.252834	0.941067	0.066000
C40	C	0.339895	0.948105	0.066499
C41	C	0.104078	1.081529	0.075841
C42	C	0.105827	1.169120	0.081989
N43	N	0.099730	0.946976	-0.138890
C44	C	0.068194	0.976812	-0.680794
C45	C	0.072509	0.972734	-0.590273
C46	C	0.127833	0.920454	-0.548548
C47	C	0.178851	0.872255	-0.597348
C48	C	0.174538	0.876338	-0.687866
C49	C	0.146435	0.902860	-0.278208
C50	C	0.150742	0.898779	-0.187683
C51	C	0.044401	0.999259	-0.180615
C52	C	0.040090	1.003334	-0.271135
C53	C	0.091110	0.955138	-0.319927
N54	N	0.132244	0.916282	-0.456022
N55	N	0.086703	0.959314	-0.412451
N56	N	0.119206	0.928615	0.270413
H57	H	0.116765	0.543120	0.180735
N58	N	0.105439	0.717023	-0.113177
H59	H	0.054956	0.707570	-0.148228
H60	H	0.107203	0.774850	-0.097111
N61	N	0.008526	1.033203	-0.725796
H62	H	-0.046412	1.019923	-0.710929
H63	H	0.018550	1.088972	-0.706042
H64	H	-0.669176	1.077915	0.075591
N65	N	-0.019559	1.059755	-0.316119
H66	H	-0.074503	1.046495	-0.301256
H67	H	-0.009508	1.115512	-0.296343
H68	H	0.112741	0.170367	0.224747
H69	H	-0.145220	1.056063	0.074039
N70	N	0.098008	0.173212	-0.081184
H71	H	0.095874	0.214038	-0.128130
H72	H	0.145999	0.136291	-0.087459
N73	N	-0.010625	1.051227	-0.127978
H74	H	0.021231	1.086312	-0.087826
H75	H	-0.046322	1.084916	-0.168196
N76	N	-0.644232	0.799826	0.056108
H77	H	-0.600093	0.757811	0.053169
H78	H	-0.675234	0.791596	0.109009
H79	H	0.195796	0.856203	-0.153715
N80	N	0.120936	0.702369	0.212710
H81	H	0.121530	0.761285	0.204922
H82	H	0.073710	0.689768	0.246162
H83	H	0.102185	0.332461	-0.049211
H84	H	0.187976	0.863615	-0.317927
N85	N	0.238525	0.815870	-0.552349
H86	H	0.233516	0.820593	-0.487602
H87	H	0.228545	0.760104	-0.572152
H88	H	0.216079	0.837092	-0.727593
N89	N	0.102036	0.545957	-0.125196
H90	H	0.053171	0.514441	-0.130414
H91	H	0.099407	0.586856	-0.172085
N92	N	0.116901	0.329632	0.256722
H93	H	0.118495	0.288843	0.303674
H94	H	0.166309	0.360305	0.262314
H95	H	-0.487446	0.831522	0.058333
H96	H	-0.293614	1.044056	0.073210
N97	N	-0.512381	1.109615	0.077803
H98	H	-0.556522	1.151628	0.080749
H99	H	-0.476299	1.113075	0.131522
H100	H	0.030972	1.011980	-0.550546
H101	H	-0.260293	0.785663	0.055110
H102	H	-0.111885	0.797664	0.055943
