data_functionalizedCrystal
_audit_creation_method	'MofGen! by Chris Wilmer'
_symmetry_space_group_name_H-M	'P1'
_symmetry_Int_Tables_number	1
_symmetry_cell_setting	triclinic
loop_
_symmetry_equiv_pos_as_xyz
  x,y,z
_cell_length_a	13.897449
_cell_length_b	12.645330
_cell_length_c	13.897441
_cell_angle_alpha	90.026402
_cell_angle_beta	89.979267
_cell_angle_gamma	89.972534
loop_
_atom_site_label
_atom_site_type_symbol
_atom_site_fract_x
_atom_site_fract_y
_atom_site_fract_z
Zn1	Zn	1.474646	0.421969	-0.545409
Zn2	Zn	1.474516	0.599265	-0.384122
Zn3	Zn	1.313335	0.422020	-0.384128
Zn4	Zn	1.313293	0.599195	-0.545375
O5	O	1.393947	0.510612	-0.464759
O6	O	1.609610	0.445496	-0.524026
O7	O	1.453098	0.575803	-0.249141
O8	O	1.334805	0.273666	-0.405538
O9	O	1.609515	0.575754	-0.405530
O10	O	1.453319	0.273629	-0.524031
O11	O	1.334679	0.445582	-0.249145
O12	O	1.178348	0.445515	-0.405505
O13	O	1.334733	0.575636	-0.680361
O14	O	1.178317	0.575684	-0.523973
O15	O	1.453279	0.445429	-0.680386
O16	O	1.453057	0.747603	-0.405497
O17	O	1.334607	0.747552	-0.523968
C18	C	1.143333	0.510598	-0.464737
C19	C	1.036119	0.510618	-0.464750
C20	C	0.839824	0.510621	-0.464775
C21	C	0.949056	0.510616	-0.464759
C22	C	1.393840	0.786042	-0.464749
C23	C	1.393882	0.903872	-0.464777
C24	C	1.319650	1.071448	-0.539540
C25	C	1.319287	0.948889	-0.539298
C26	C	1.366357	0.948472	-0.363122
C27	C	1.365887	1.071070	-0.363578
C28	C	1.496042	1.070958	-0.490850
C29	C	1.495433	0.948351	-0.493071
C30	C	1.645540	0.510627	-0.464781
C31	C	1.752754	0.510634	-0.464791
C32	C	1.394016	0.510519	-0.716352
C33	C	1.394045	0.510479	-0.823566
C34	C	1.394048	1.234107	-0.464793
C35	C	1.394004	1.116277	-0.464817
C36	C	1.394071	0.510407	-1.019861
C37	C	1.394054	0.510450	-0.910628
C38	C	1.393935	0.510629	-0.214144
C39	C	1.394092	0.510370	-0.106931
H40	H	1.336508	0.918731	-0.614674
Cl41	Cl	1.527485	0.903340	-0.608577
Cl42	Cl	1.581575	1.115736	-0.406840
Cl43	Cl	1.203590	1.119182	-0.513273
H44	H	1.336705	1.100856	-0.615165
H45	H	1.553756	0.917701	-0.442609
Cl46	Cl	1.252405	0.901224	-0.328454
Cl47	Cl	1.202506	0.903749	-0.512672
Cl48	Cl	1.250726	1.115377	-0.329529
H49	H	1.417694	1.100729	-0.306005
Cl50	Cl	1.447328	0.903459	-0.274810
H51	H	1.521141	1.101798	-0.563718
