data_functionalizedCrystal
_audit_creation_method	'MofGen! by Chris Wilmer'
_symmetry_space_group_name_H-M	'P1'
_symmetry_Int_Tables_number	1
_symmetry_cell_setting	triclinic
loop_
_symmetry_equiv_pos_as_xyz
  x,y,z
_cell_length_a	21.295418
_cell_length_b	21.295417
_cell_length_c	13.897441
_cell_angle_alpha	90.036423
_cell_angle_beta	90.041083
_cell_angle_gamma	90.046319
loop_
_atom_site_label
_atom_site_type_symbol
_atom_site_fract_x
_atom_site_fract_y
_atom_site_fract_z
Zn1	Zn	0.962339	-0.250323	0.545866
Zn2	Zn	1.295673	0.083010	0.879199
Zn3	Zn	1.629006	0.416343	1.212533
Zn4	Zn	0.962247	-0.355602	0.384551
Zn5	Zn	1.295580	-0.022269	0.717884
Zn6	Zn	1.628913	0.311064	1.051218
Zn7	Zn	0.857067	-0.250380	0.384527
Zn8	Zn	1.190401	0.082953	0.717860
Zn9	Zn	1.523734	0.416287	1.051194
Zn10	Zn	0.857032	-0.355588	0.545746
Zn11	Zn	1.190365	-0.022254	0.879080
Zn12	Zn	1.523699	0.311079	1.212413
O13	O	0.909671	-0.302973	0.465173
O14	O	1.243005	0.030360	0.798506
O15	O	1.576338	0.363693	1.131839
O16	O	1.050416	-0.264271	0.524527
O17	O	1.383750	0.069062	0.857861
O18	O	1.717083	0.402395	1.191194
O19	O	0.948270	-0.341674	0.249566
O20	O	1.281604	-0.008341	0.582899
O21	O	1.614937	0.324992	0.916233
O22	O	0.871086	-0.162283	0.405969
O23	O	1.204419	0.171050	0.739303
O24	O	1.537752	0.504384	1.072636
O25	O	1.050348	-0.341619	0.406010
O26	O	1.383682	-0.008286	0.739343
O27	O	1.717015	0.325047	1.072677
O28	O	0.948428	-0.162241	0.524504
O29	O	1.281762	0.171092	0.857838
O30	O	1.615095	0.504425	1.191171
O31	O	0.870996	-0.264368	0.249549
O32	O	1.204329	0.068965	0.582882
O33	O	1.537662	0.402299	0.916215
O34	O	0.768973	-0.264354	0.405853
O35	O	1.102307	0.068980	0.739186
O36	O	1.435640	0.402313	1.072520
O37	O	0.871025	-0.341594	0.680744
O38	O	1.204358	-0.008261	1.014077
O39	O	1.537692	0.325072	1.347411
O40	O	0.768947	-0.341649	0.524300
O41	O	1.102281	-0.008316	0.857634
O42	O	1.435614	0.325017	1.190967
O43	O	0.948394	-0.264257	0.680832
O44	O	1.281727	0.069076	1.014165
O45	O	1.615061	0.402410	1.347499
O46	O	0.948236	-0.443690	0.405894
O47	O	1.281569	-0.110357	0.739227
O48	O	1.614903	0.222977	1.072560
O49	O	0.870935	-0.443679	0.524323
O50	O	1.204269	-0.110346	0.857657
O51	O	1.537602	0.222988	1.190990
C52	C	0.746120	-0.303006	0.465062
C53	C	1.079453	0.030327	0.798395
C54	C	1.412786	0.363660	1.131728
C55	C	0.676152	-0.303036	0.465037
C56	C	1.009485	0.030298	0.798370
C57	C	1.342818	0.363631	1.131704
C58	C	0.643288	-0.343337	0.526620
C59	C	0.976621	-0.010004	0.859953
C60	C	1.309954	0.323330	1.193287
C61	C	0.577545	-0.343321	0.526663
C62	C	0.910879	-0.009988	0.859997
C63	C	1.244212	0.323345	1.193330
C64	C	0.544669	-0.303011	0.465106
C65	C	0.878002	0.030322	0.798440
C66	C	1.211336	0.363655	1.131773
C67	C	0.577541	-0.262702	0.403519
C68	C	0.910874	0.070631	0.736852
C69	C	1.244207	0.403964	1.070186
C70	C	0.643282	-0.262715	0.403484
C71	C	0.976615	0.070619	0.736818
C72	C	1.309949	0.403952	1.070151
N73	N	0.441396	-0.298099	0.380740
N74	N	0.774729	0.035235	0.714073
N75	N	1.108062	0.368568	1.047407
N76	N	0.378944	-0.298091	0.380776
N77	N	0.712278	0.035243	0.714109
N78	N	1.045611	0.368576	1.047443
C79	C	0.346594	-0.302971	0.465209
C80	C	0.679928	0.030362	0.798542
C81	C	1.013261	0.363695	1.131875
N82	N	0.379055	-0.307872	0.549606
N83	N	0.712389	0.025461	0.882940
N84	N	1.045722	0.358794	1.216273
N85	N	0.441512	-0.307884	0.549570
N86	N	0.774846	0.025450	0.882903
N87	N	1.108179	0.358783	1.216236
C88	C	0.473384	-0.302993	0.465138
C89	C	0.806717	0.030340	0.798471
C90	C	1.140050	0.363673	1.131804
C91	C	0.242445	-0.343258	0.526844
C92	C	0.575778	-0.009924	0.860177
C93	C	0.909112	0.323409	1.193511
C94	C	0.176701	-0.343238	0.526889
C95	C	0.510035	-0.009904	0.860222
C96	C	0.843368	0.323429	1.193556
C97	C	0.176698	-0.262622	0.403736
C98	C	0.510031	0.070711	0.737069
C99	C	0.843365	0.404045	1.070402
C100	C	0.242441	-0.262639	0.403699
C101	C	0.575774	0.070695	0.737033
C102	C	0.909107	0.404028	1.070366
C103	C	0.275310	-0.302960	0.465252
C104	C	0.608643	0.030373	0.798586
C105	C	0.941977	0.363707	1.131919
C106	C	0.909589	-0.466525	0.465119
C107	C	1.242922	-0.133192	0.798453
C108	C	1.576255	0.200142	1.131786
C109	C	0.909611	-0.536493	0.465129
C110	C	1.242944	-0.203160	0.798462
C111	C	1.576278	0.130174	1.131795
C112	C	0.949897	-0.569344	0.403526
C113	C	1.283231	-0.236011	0.736859
C114	C	1.616564	0.097322	1.070192
C115	C	0.949927	-0.635087	0.403547
C116	C	1.283260	-0.301754	0.736881
C117	C	1.616594	0.031580	1.070214
C118	C	0.909659	-0.667976	0.465162
C119	C	1.242992	-0.334642	0.798495
C120	C	1.576326	-0.001309	1.131829
C121	C	0.869370	-0.635116	0.526777
C122	C	1.202703	-0.301783	0.860110
C123	C	1.536036	0.031550	1.193444
C124	C	0.869346	-0.569375	0.526760
C125	C	1.202679	-0.236042	0.860094
C126	C	1.536013	0.097292	1.193427
N127	N	0.854592	-0.771256	0.472478
N128	N	1.187925	-0.437923	0.805811
N129	N	1.521258	-0.104590	1.139145
N130	N	0.854616	-0.833708	0.472488
N131	N	1.187949	-0.500374	0.805822
N132	N	1.521283	-0.167041	1.139155
C133	C	0.909729	-0.866050	0.465217
C134	C	1.243063	-0.532717	0.798551
C135	C	1.576396	-0.199384	1.131884
N136	N	0.964818	-0.833582	0.457917
N137	N	1.298152	-0.500249	0.791250
N138	N	1.631485	-0.166916	1.124584
N139	N	0.964793	-0.771125	0.457902
N140	N	1.298127	-0.437792	0.791235
N141	N	1.631460	-0.104458	1.124568
C142	C	0.909681	-0.739261	0.465187
C143	C	1.243014	-0.405928	0.798521
C144	C	1.576347	-0.072594	1.131854
C145	C	0.950051	-0.970187	0.403634
C146	C	1.283384	-0.636854	0.736968
C147	C	1.616718	-0.303520	1.070301
C148	C	0.950082	-1.035931	0.403663
C149	C	1.283415	-0.702597	0.736996
C150	C	1.616748	-0.369264	1.070330
C151	C	0.869519	-1.035959	0.526887
C152	C	1.202852	-0.702626	0.860221
C153	C	1.536186	-0.369292	1.193554
C154	C	0.869494	-0.970216	0.526864
C155	C	1.202827	-0.636883	0.860197
C156	C	1.536161	-0.303550	1.193531
C157	C	0.909759	-0.937335	0.465232
C158	C	1.243092	-0.604001	0.798566
C159	C	1.576426	-0.270668	1.131899
C160	C	1.073862	-0.302941	0.465285
C161	C	1.407195	0.030393	0.798618
C162	C	1.740528	0.363726	1.131951
C163	C	1.143830	-0.302927	0.465332
C164	C	1.477163	0.030407	0.798666
C165	C	1.810496	0.363740	1.131999
C166	C	0.909716	-0.302918	0.716766
C167	C	1.243049	0.030416	1.050099
C168	C	1.576383	0.363749	1.383432
C169	C	0.909735	-0.302894	0.823980
C170	C	1.243068	0.030439	1.157313
C171	C	1.576402	0.363773	1.490646
C172	C	0.909771	-0.138783	0.465247
C173	C	1.243105	0.194550	0.798581
C174	C	1.576438	0.527884	1.131914
C175	C	0.909814	-0.068815	0.465279
C176	C	1.243147	0.264518	0.798613
C177	C	1.576481	0.597852	1.131946
C178	C	0.909663	-0.302983	0.214558
C179	C	1.242996	0.030350	0.547892
C180	C	1.576330	0.363683	0.881225
C181	C	0.909766	-0.302830	0.107345
C182	C	1.243099	0.030504	0.440678
C183	C	1.576433	0.363837	0.774012
C184	C	0.909752	-0.302851	1.020275
C185	C	1.243085	0.030482	1.353608
C186	C	1.576419	0.363815	1.686942
C187	C	0.909741	-0.302877	0.911043
C188	C	1.243074	0.030456	1.244376
C189	C	1.576407	0.363790	1.577709
H190	H	0.550769	-0.229881	0.353400
H191	H	0.884102	0.103453	0.686734
H192	H	1.217435	0.436786	1.020067
H193	H	0.982735	-0.661840	0.353383
H194	H	1.316068	-0.328506	0.686716
H195	H	1.649402	0.004827	1.020050
H196	H	0.836539	-0.542627	0.576926
H197	H	1.169873	-0.209294	0.910259
H198	H	1.503206	0.124040	1.243593
Cl199	Cl	0.536222	-0.393990	0.604088
Cl200	Cl	0.869555	-0.060657	0.937421
Cl201	Cl	1.202889	0.272677	1.270755
H202	H	0.269199	-0.229824	0.353547
H203	H	0.602532	0.103509	0.686880
H204	H	0.935865	0.436842	1.020214
H205	H	0.670039	-0.229895	0.353336
H206	H	1.003373	0.103439	0.686669
H207	H	1.336706	0.436772	1.020002
Cl208	Cl	0.818900	-1.077298	0.604354
Cl209	Cl	1.152233	-0.743965	0.937687
Cl210	Cl	1.485567	-0.410632	1.271020
Cl211	Cl	0.135386	-0.393903	0.604321
Cl212	Cl	0.468720	-0.060570	0.937654
Cl213	Cl	0.802053	0.272763	1.270988
Cl214	Cl	1.000669	-0.928847	0.326156
Cl215	Cl	1.334002	-0.595513	0.659489
Cl216	Cl	1.667335	-0.262180	0.992823
H217	H	0.982685	-0.542574	0.353344
H218	H	1.316019	-0.209241	0.686677
H219	H	1.649352	0.124093	1.020011
H220	H	0.149931	-0.229798	0.353619
H221	H	0.483264	0.103535	0.686953
H222	H	0.816598	0.436869	1.020286
Cl223	Cl	0.818750	-0.676461	0.604240
Cl224	Cl	1.152083	-0.343128	0.937573
Cl225	Cl	1.485417	-0.009794	1.270906
H226	H	0.982891	-1.062677	0.353500
H227	H	1.316225	-0.729344	0.686834
H228	H	1.649558	-0.396011	1.020167
H229	H	0.836686	-0.943467	0.577023
H230	H	1.170020	-0.610134	0.910356
H231	H	1.503353	-0.276800	1.243690
H232	H	0.670046	-0.376169	0.576743
H233	H	1.003379	-0.042835	0.910076
H234	H	1.336713	0.290498	1.243409
H235	H	0.269209	-0.376086	0.576969
H236	H	0.602542	-0.042753	0.910302
H237	H	0.935876	0.290580	1.243636
