data_functionalizedCrystal
_audit_creation_method	'MofGen! by Chris Wilmer'
_symmetry_space_group_name_H-M	'P1'
_symmetry_Int_Tables_number	1
_symmetry_cell_setting	triclinic
loop_
_symmetry_equiv_pos_as_xyz
  x,y,z
_cell_length_a	11.792241
_cell_length_b	17.038272
_cell_length_c	10.268362
_cell_angle_alpha	89.994496
_cell_angle_beta	89.999626
_cell_angle_gamma	87.652486
loop_
_atom_site_label
_atom_site_type_symbol
_atom_site_fract_x
_atom_site_fract_y
_atom_site_fract_z
O1	O	1.516303	0.107207	-0.108175
O2	O	2.016303	0.607207	0.391825
O3	O	1.186930	0.118256	-0.108205
O4	O	1.686930	0.618256	0.391795
O5	O	1.349659	-0.001093	-0.108180
O6	O	1.849659	0.498907	0.391820
O7	O	1.353574	0.226556	-0.108200
O8	O	1.853574	0.726556	0.391800
O9	O	1.349643	-0.001098	0.108421
O10	O	1.849643	0.498902	0.608421
O11	O	1.186914	0.118251	0.108396
O12	O	1.686914	0.618251	0.608396
O13	O	1.516287	0.107202	0.108426
O14	O	2.016287	0.607202	0.608426
Cu15	Cu	1.351600	0.112726	0.128188
Cu16	Cu	1.851600	0.612726	0.628188
Cu17	Cu	1.351618	0.112732	-0.127967
Cu18	Cu	1.851618	0.612732	0.372033
O19	O	1.353558	0.226551	0.108401
O20	O	1.853558	0.726551	0.608401
C21	C	1.144571	0.117559	0.000092
C22	C	1.644571	0.617559	0.500092
C23	C	1.018375	0.115482	0.000080
C24	C	1.518375	0.615482	0.500080
C25	C	0.787328	0.111662	0.000118
C26	C	1.287328	0.611662	0.500118
C27	C	0.915899	0.113785	0.000097
C28	C	1.415899	0.613785	0.500097
C29	C	1.346090	-0.030239	0.000120
C30	C	1.846090	0.469761	0.500120
C31	C	1.335466	-0.117079	0.000119
C32	C	1.835466	0.382921	0.500119
C33	C	1.433006	-0.166762	0.000129
C34	C	1.933006	0.333238	0.500129
C35	C	1.423017	-0.248357	0.000116
C36	C	1.923017	0.251643	0.500116
C37	C	1.315487	-0.280267	0.000102
C38	C	1.815487	0.219733	0.500102
C39	C	1.217940	-0.230577	0.000087
C40	C	1.717940	0.269423	0.500087
C41	C	1.227930	-0.148984	0.000091
C42	C	1.727930	0.351016	0.500091
C43	C	1.280194	-0.526181	0.000081
C44	C	1.780194	-0.026181	0.500081
C45	C	1.270211	-0.607780	0.000080
C46	C	1.770211	-0.107780	0.500080
C47	C	1.475289	-0.625554	0.000107
C48	C	1.975289	-0.125554	0.500107
C49	C	1.485270	-0.543958	0.000118
C50	C	1.985270	-0.043958	0.500118
C51	C	1.387723	-0.494276	0.000097
C52	C	1.887723	0.005724	0.500097
C53	C	1.305274	-0.363669	0.000092
C54	C	1.805274	0.136331	0.500092
C55	C	1.397937	-0.410875	0.000097
C56	C	1.897937	0.089125	0.500097
C57	C	1.558647	0.107899	0.000127
C58	C	2.058647	0.607899	0.500127
C59	C	1.684843	0.109976	0.000130
C60	C	2.184843	0.609976	0.500130
C61	C	1.357127	0.255697	0.000098
C62	C	1.857127	0.755697	0.500098
C63	C	1.367751	0.342537	0.000091
C64	C	1.867751	0.842537	0.500091
N65	N	1.351595	0.112721	0.308354
N66	N	1.851595	0.612721	0.808354
N67	N	1.351631	0.112730	-0.308133
N68	N	1.851631	0.612730	0.191867
C69	C	1.351612	0.112730	0.574025
C70	C	1.851612	0.612730	1.074025
C71	C	1.351599	0.112728	0.426187
C72	C	1.851599	0.612728	0.926187
H73	H	1.520568	-0.140788	0.000149
H74	H	2.020568	0.359212	0.500149
N75	N	1.595104	-0.511356	0.000145
N76	N	2.095104	-0.011356	0.500145
N77	N	1.623544	-0.467818	0.091458
N78	N	2.123544	0.032182	0.591458
H79	H	1.701116	-0.444793	0.091485
H80	H	2.201116	0.055207	0.591485
N81	N	1.160369	-0.640382	0.000098
N82	N	1.660369	-0.140382	0.500098
N83	N	1.092826	-0.625326	0.091401
N84	N	1.592826	-0.125326	0.591401
H85	H	1.015256	-0.648353	0.091423
H86	H	1.515256	-0.148353	0.591423
N87	N	1.108102	-0.263173	0.000107
N88	N	1.608102	0.236827	0.500107
N89	N	1.040564	-0.248113	0.091412
N90	N	1.540564	0.251887	0.591412
H91	H	0.962988	-0.271134	0.091435
H92	H	1.462988	0.228866	0.591435
H93	H	1.554706	-0.666014	0.000121
H94	H	2.054706	-0.166014	0.500121
N95	N	1.180544	-0.475450	0.000068
N96	N	1.680544	0.024550	0.500068
N97	N	1.084545	-0.503954	0.000066
N98	N	1.584545	-0.003954	0.500066
H99	H	1.014161	-0.468123	0.000061
H100	H	1.514161	0.031877	0.500061
H101	H	1.217723	-0.389660	0.000083
H102	H	1.717723	0.110340	0.500083
H103	H	1.485487	-0.384890	0.000080
H104	H	1.985487	0.115110	0.500080
N105	N	1.522664	-0.299095	0.000114
N106	N	2.022664	0.200905	0.500114
N107	N	1.618665	-0.270595	0.000128
N108	N	2.118665	0.229405	0.500128
H109	H	1.689047	-0.306428	0.000122
H110	H	2.189047	0.193572	0.500122
N111	N	1.128284	-0.098242	0.000064
N112	N	1.628284	0.401758	0.500064
N113	N	1.032281	-0.126741	0.000044
N114	N	1.532281	0.373259	0.500044
H115	H	0.961901	-0.090906	0.000016
H116	H	1.461901	0.409094	0.500016
