data_functionalizedCrystal
_audit_creation_method	'MofGen! by Chris Wilmer'
_symmetry_space_group_name_H-M	'P1'
_symmetry_Int_Tables_number	1
_symmetry_cell_setting	triclinic
loop_
_symmetry_equiv_pos_as_xyz
  x,y,z
_cell_length_a	17.077404
_cell_length_b	13.897448
_cell_length_c	17.077396
_cell_angle_alpha	89.971029
_cell_angle_beta	89.982940
_cell_angle_gamma	90.017917
loop_
_atom_site_label
_atom_site_type_symbol
_atom_site_fract_x
_atom_site_fract_y
_atom_site_fract_z
Zn1	Zn	1.200064	-0.383994	-0.443849
Zn2	Zn	1.199989	-0.545311	-0.312585
Zn3	Zn	1.068801	-0.384032	-0.312597
Zn4	Zn	1.068776	-0.545249	-0.443809
O5	O	1.134407	-0.464647	-0.378210
O6	O	1.309901	-0.405403	-0.426448
O7	O	1.182566	-0.523959	-0.202740
O8	O	1.086256	-0.249045	-0.330029
O9	O	1.309846	-0.523922	-0.330010
O10	O	1.182694	-0.249017	-0.426459
O11	O	1.086183	-0.405468	-0.202748
O12	O	0.958951	-0.405408	-0.329990
O13	O	1.086212	-0.523816	-0.553661
O14	O	0.958932	-0.523854	-0.426391
O15	O	1.182669	-0.405343	-0.553690
O16	O	1.182541	-0.680284	-0.329971
O17	O	1.086139	-0.680239	-0.426380
C18	C	0.930460	-0.464629	-0.378188
C19	C	0.843210	-0.464645	-0.378198
C20	C	0.802230	-0.526412	-0.428313
C21	C	0.720250	-0.526415	-0.428326
C22	C	0.679250	-0.464653	-0.378218
C23	C	0.720236	-0.402879	-0.328100
C24	C	0.802215	-0.402873	-0.328092
C25	C	0.549366	-0.402898	-0.328119
C26	C	0.467381	-0.402905	-0.328126
C27	C	0.467401	-0.526440	-0.428353
C28	C	0.549380	-0.526433	-0.428345
C29	C	0.590359	-0.464660	-0.378226
C30	C	1.134350	-0.715261	-0.378187
C31	C	1.134397	-0.822475	-0.378204
C32	C	1.134480	-1.018770	-0.378253
C33	C	1.134432	-0.909537	-0.378228
C34	C	1.339152	-0.464665	-0.378232
C35	C	1.426401	-0.464673	-0.378242
C36	C	1.134446	-0.464568	-0.582954
C37	C	1.134463	-0.464535	-0.670204
C38	C	1.134486	-0.213054	-0.378250
C39	C	1.134520	-0.105840	-0.378267
C40	C	1.184721	-0.526121	-1.046017
C41	C	1.184701	-0.526149	-0.964036
C42	C	1.134513	-0.464467	-0.923053
C43	C	1.084337	-0.402760	-0.964055
C44	C	1.084353	-0.402737	-1.046034
C45	C	1.084307	-0.402809	-0.793185
C46	C	1.084292	-0.402831	-0.711200
C47	C	1.184655	-0.526221	-0.711187
C48	C	1.184671	-0.526199	-0.793166
C49	C	1.134496	-0.464490	-0.834162
C50	C	1.134414	-0.464655	-0.174262
C51	C	1.134550	-0.464416	-0.087013
H52	H	0.835606	-0.576709	-0.469114
H53	H	1.043427	-0.352601	-0.677834
H54	H	0.686888	-0.576713	-0.469134
H55	H	0.582759	-0.576730	-0.469142
H56	H	0.582729	-0.352587	-0.287314
H57	H	1.225510	-0.576467	-0.677804
H58	H	0.686847	-0.352587	-0.287305
H59	H	0.835579	-0.352570	-0.287287
O60	O	0.427687	-0.586401	-0.477150
C61	C	0.447743	-0.565433	-0.555415
H62	H	0.507272	-0.528348	-0.557089
H63	H	0.450553	-0.635107	-0.590507
H64	H	0.401625	-0.515892	-0.581937
O65	O	1.035678	-0.342816	-0.833095
C66	C	1.080405	-0.280495	-0.880517
H67	H	1.139881	-0.314525	-0.892796
H68	H	1.048448	-0.267543	-0.938164
H69	H	1.089052	-0.209024	-0.848938
O70	O	0.427674	-0.342815	-0.279432
C71	C	0.481420	-0.288302	-0.235185
H72	H	0.539872	-0.285005	-0.267334
H73	H	0.457741	-0.212293	-0.226930
H74	H	0.490108	-0.323523	-0.175513
H75	H	1.225593	-0.576345	-1.079379
O76	O	1.233319	-0.586151	-0.833070
C77	C	1.188620	-0.648445	-0.880463
H78	H	1.129141	-0.614423	-0.892737
H79	H	1.220598	-0.661340	-0.938116
H80	H	1.179976	-0.719945	-0.848863
H81	H	1.225545	-0.576407	-0.930661
H82	H	1.043470	-0.352542	-0.930680
O83	O	1.035509	-0.342843	-1.085773
C84	C	0.957262	-0.363936	-1.065742
H85	H	0.955612	-0.401031	-1.006210
H86	H	0.922086	-0.294317	-1.062950
H87	H	0.930815	-0.413513	-1.111865
