data_functionalizedCrystal
_audit_creation_method	'MofGen! by Chris Wilmer'
_symmetry_space_group_name_H-M	'P1'
_symmetry_Int_Tables_number	1
_symmetry_cell_setting	triclinic
loop_
_symmetry_equiv_pos_as_xyz
  x,y,z
_cell_length_a	21.606444
_cell_length_b	14.560438
_cell_length_c	14.560438
_cell_angle_alpha	60.005799
_cell_angle_beta	89.998722
_cell_angle_gamma	60.000494
loop_
_atom_site_label
_atom_site_type_symbol
_atom_site_fract_x
_atom_site_fract_y
_atom_site_fract_z
Zr1	Zr	0.596248	1.005232	-0.120411
O2	O	0.497431	1.196813	-0.267026
O3	O	0.626537	0.813648	-0.075485
O4	O	0.626542	1.005236	-0.267061
O5	O	0.497426	1.005222	0.075691
O6	O	0.728392	1.005242	-0.267066
O7	O	0.497426	1.005224	-0.075450
O8	O	0.728383	0.662526	0.075628
O9	O	0.497435	1.347938	-0.267004
O10	O	0.715469	0.892455	-0.056305
O11	O	0.639460	0.892448	0.056494
O12	O	0.639466	1.118018	-0.169062
O13	O	0.563457	1.118012	-0.056264
Zr14	Zr	0.758687	1.005238	0.120633
Zr15	Zr	0.758687	1.005242	-0.120419
Zr16	Zr	0.596248	1.005227	0.120641
Zr17	Zr	0.596255	1.246259	-0.120375
Zr18	Zr	0.758680	0.764210	0.120597
O19	O	0.728398	1.196821	0.075707
O20	O	0.728397	1.196827	-0.267038
O21	O	0.497431	1.196807	0.075719
O22	O	0.857504	0.813657	0.267248
O23	O	0.857504	0.813663	-0.075497
O24	O	0.626538	0.813642	0.267260
O25	O	0.857509	1.005247	-0.075469
O26	O	0.728393	1.005233	0.267283
O27	O	0.626543	1.005227	0.267288
O28	O	0.857509	1.005245	0.075672
O29	O	0.626552	1.347946	-0.267011
O30	O	0.728383	0.662523	0.267233
O31	O	0.857500	0.662531	0.267226
O32	O	0.857500	0.662535	0.075621
O33	O	0.497435	1.347935	-0.075399
O34	O	0.626552	1.347943	-0.075406
O35	O	0.715469	0.892451	0.169284
O36	O	0.791478	0.892458	0.056486
O37	O	0.715475	1.118021	-0.056272
O38	O	0.639466	1.118014	0.056527
C39	C	0.677459	0.703746	0.000067
C40	C	0.677457	0.601423	0.000052
C41	C	0.621351	0.636548	-0.083167
C42	C	0.621363	0.540359	-0.083111
C43	C	0.733589	0.373922	0.083393
C44	C	0.733580	0.470110	0.083331
C45	C	0.556556	0.732638	-0.179294
C46	C	0.556569	0.636449	-0.179238
C47	C	0.474282	1.005222	0.000122
C48	C	0.405322	1.005217	0.000126
C49	C	0.412596	0.887476	0.058980
C50	C	0.347799	0.887480	0.058981
C51	C	0.275728	1.005226	0.000120
C52	C	0.268456	1.122976	-0.058736
C53	C	0.333253	1.122971	-0.058729
C54	C	0.007138	1.122998	-0.058761
C55	C	-0.057660	1.122994	-0.058765
C56	C	0.021684	0.887507	0.058950
C57	C	0.086480	0.887503	0.058956
C58	C	0.079203	1.005252	0.000105
C59	C	0.149464	1.005246	0.000106
C60	C	0.205468	1.005233	0.000112
C61	C	0.880653	1.005248	0.000100
C62	C	0.949613	1.005252	0.000096
C63	C	0.677467	1.005240	-0.301409
C64	C	0.677467	1.005242	-0.403741
C65	C	0.677476	1.306723	0.000155
C66	C	0.677478	1.409046	0.000170
C67	C	0.637791	1.122981	-0.510676
C68	C	0.637793	1.122975	-0.606825
C69	C	0.717149	0.887479	-0.489091
C70	C	0.717150	0.887487	-0.392944
C71	C	0.591973	1.258943	-0.578650
C72	C	0.591976	1.258937	-0.674799
C73	C	0.677468	1.005230	0.301630
C74	C	0.677468	1.005228	0.403963
C75	C	0.880645	0.703759	0.000056
C76	C	0.949602	0.601441	0.000037
C77	C	0.677460	0.703741	0.301586
C78	C	0.677457	0.601416	0.403904
C79	C	0.880645	0.703754	0.301575
C80	C	0.949602	0.601434	0.403890
C81	C	0.474290	1.306716	-0.301353
C82	C	0.405333	1.409036	-0.403668
C83	C	0.474290	1.306711	0.000166
C84	C	0.405333	1.409029	0.000185
C85	C	0.677475	1.306729	-0.301364
C86	C	0.677478	1.409053	-0.403682
C87	C	0.942309	0.553389	-0.058857
C88	C	1.007094	0.457264	-0.058897
C89	C	1.079173	0.409185	-0.000036
C90	C	1.086465	0.457246	0.058860
C91	C	1.021680	0.553376	0.058893
C92	C	1.021668	0.553387	0.393058
C93	C	1.086466	0.457260	0.489184
C94	C	1.079197	0.409175	0.596140
C95	C	1.007124	0.457231	0.606970
C96	C	0.942327	0.553363	0.510845
C97	C	0.333267	1.457094	-0.392836
C98	C	0.268469	1.553251	-0.488962
C99	C	0.275738	1.601341	-0.595918
C100	C	0.347811	1.553278	-0.606748
C101	C	0.412608	1.457130	-0.510623
C102	C	0.412626	1.457090	0.059069
C103	C	0.347841	1.553242	0.059083
C104	C	0.275762	1.601324	0.000218
C105	C	0.268470	1.553259	-0.058674
C106	C	0.333255	1.457115	-0.058693
C107	C	0.717133	0.553341	0.510849
C108	C	0.717124	0.457201	0.606984
C109	C	0.637763	0.457218	0.489215
C110	C	0.637767	0.553362	0.393083
C111	C	0.762954	0.553327	0.578843
C112	C	0.762946	0.457187	0.674977
H113	H	0.505025	0.792308	-0.162495
O114	O	0.190726	1.249979	-0.122236
H115	H	0.146889	1.230205	-0.112368
O116	O	0.563945	0.816060	-0.288083
H117	H	0.563923	0.892299	-0.288067
H118	H	0.883624	0.592534	-0.106803
O119	O	0.759957	0.760498	-0.277604
H120	H	0.719910	0.754853	-0.230961
H121	H	0.223016	1.679611	0.000243
O122	O	0.483280	0.650746	-0.168222
H123	H	0.477881	0.640242	-0.088272
O124	O	0.999288	0.405346	0.722333
H125	H	1.056456	0.330414	0.787345
H126	H	0.327306	1.417987	-0.106641
O127	O	0.325443	1.249935	-0.122281
H128	H	0.353068	1.255617	-0.062884
O129	O	-0.135399	1.249995	-0.122250
H130	H	-0.141995	1.306446	-0.088201
O131	O	0.999214	0.405437	-0.122418
H132	H	1.026816	0.423914	-0.187518
H133	H	1.027601	0.592523	0.305977
O134	O	0.571557	0.636396	-0.280512
H135	H	0.579489	0.714161	-0.334255
H136	H	0.779272	0.441500	0.151087
O137	O	0.594982	0.605076	0.277788
H138	H	0.551093	0.711126	0.231100
H139	H	1.131919	0.330908	-0.000071
H140	H	0.471276	0.791594	0.106916
O141	O	0.325420	1.405235	-0.277480
H142	H	0.293972	1.485938	-0.267683
O143	O	-0.000712	1.249992	-0.122248
H144	H	-0.061713	1.331865	-0.163189
H145	H	0.471311	1.417948	0.107012
H146	H	0.209775	1.592423	-0.106600
O147	O	1.164203	0.405452	0.477511
H148	H	1.195642	0.299391	0.518502
H149	H	0.353728	0.791603	0.106908
O150	O	0.759943	0.760474	-0.477445
H151	H	0.753273	0.780247	-0.562266
H152	H	0.145161	0.791622	0.106882
H153	H	1.145160	0.418086	0.106783
H154	H	0.353793	1.592360	0.107044
H155	H	0.617458	1.311156	-0.578666
H156	H	0.353720	1.592446	-0.693844
H157	H	0.779283	0.266998	0.151197
O158	O	0.029537	0.760498	0.122438
H159	H	-0.027625	0.780275	0.112560
O160	O	0.514276	1.314826	-0.567062
H161	H	0.473081	1.344453	-0.638677
O162	O	0.594974	0.405362	0.477543
H163	H	0.601643	0.330418	0.562356
O164	O	0.631998	1.314854	-0.742276
H165	H	0.653213	1.344510	-0.700298
H166	H	0.531309	1.311130	-0.726982
H167	H	1.027629	0.592487	0.106859
O168	O	0.190743	1.605053	-0.477253
H169	H	0.159322	1.711101	-0.518190
H170	H	0.732720	0.493313	0.725908
O171	O	0.729197	0.672559	0.578863
H172	H	0.712658	0.654689	0.655107
O173	O	1.149088	0.305475	0.699816
H174	H	1.200419	0.280139	0.674303
H175	H	0.883651	0.592471	0.519681
H176	H	0.222970	1.679631	-0.674180
O177	O	0.490336	1.405280	-0.522312
H178	H	0.484497	1.454869	-0.612837
H179	H	0.821614	0.517200	0.570105
H180	H	0.823611	0.367175	0.727159
