data_functionalizedCrystal
_audit_creation_method	'MofGen! by Chris Wilmer'
_symmetry_space_group_name_H-M	'P1'
_symmetry_Int_Tables_number	1
_symmetry_cell_setting	triclinic
loop_
_symmetry_equiv_pos_as_xyz
  x,y,z
_cell_length_a	13.897449
_cell_length_b	21.295417
_cell_length_c	13.897441
_cell_angle_alpha	90.036423
_cell_angle_beta	90.020733
_cell_angle_gamma	90.031786
loop_
_atom_site_label
_atom_site_type_symbol
_atom_site_fract_x
_atom_site_fract_y
_atom_site_fract_z
Zn1	Zn	1.474617	-0.250568	0.545342
Zn2	Zn	1.474475	-0.355847	0.384027
Zn3	Zn	1.313306	-0.250598	0.384060
Zn4	Zn	1.313252	-0.355805	0.545280
O5	O	1.393912	-0.303204	0.464677
O6	O	1.609579	-0.264538	0.523955
O7	O	1.453059	-0.341915	0.249050
O8	O	1.334786	-0.162504	0.405495
O9	O	1.609475	-0.341886	0.405438
O10	O	1.453301	-0.162482	0.523988
O11	O	1.334649	-0.264589	0.249074
O12	O	1.178317	-0.264549	0.405434
O13	O	1.334694	-0.341815	0.680270
O14	O	1.178277	-0.341844	0.523881
O15	O	1.453248	-0.264498	0.680316
O16	O	1.453006	-0.443931	0.405378
O17	O	1.334556	-0.443900	0.523849
C18	C	1.143298	-0.303196	0.464655
C19	C	1.036084	-0.303207	0.464669
C20	C	0.839789	-0.303210	0.464694
C21	C	0.949021	-0.303207	0.464677
C22	C	1.393786	-0.466756	0.464624
C23	C	1.393820	-0.536724	0.464633
C24	C	1.455552	-0.569586	0.403008
C25	C	1.455597	-0.635328	0.403030
C26	C	1.393893	-0.668207	0.464667
C27	C	1.332157	-0.635337	0.526304
C28	C	1.332120	-0.569596	0.526287
N29	N	1.309512	-0.771473	0.472013
N30	N	1.309550	-0.833925	0.472023
C31	C	1.394001	-0.866281	0.464722
N32	N	1.478416	-0.833827	0.457392
N33	N	1.478377	-0.771370	0.457376
C34	C	1.393926	-0.739492	0.464692
C35	C	1.455787	-0.970428	0.403117
C36	C	1.455834	-1.036172	0.403146
C37	C	1.332386	-1.036180	0.526414
C38	C	1.332347	-0.970437	0.526391
C39	C	1.394047	-0.937565	0.464737
C40	C	1.645505	-0.303213	0.464700
C41	C	1.752719	-0.303217	0.464710
C42	C	1.393981	-0.303149	0.716270
C43	C	1.394010	-0.303125	0.823484
C44	C	1.394065	-0.139014	0.464752
C45	C	1.394131	-0.069046	0.464784
C46	C	1.393900	-0.303214	0.214063
C47	C	1.394057	-0.303061	0.106850
C48	C	1.394036	-0.303082	1.019780
C49	C	1.394018	-0.303108	0.910547
H50	H	1.505793	-0.542823	0.352809
H51	H	1.282075	-0.943680	0.576567
O52	O	1.272351	-0.667341	0.586224
C53	C	1.327257	-0.705293	0.648596
H54	H	1.400380	-0.715116	0.614642
H55	H	1.337805	-0.679915	0.720083
C56	C	1.184400	-0.755699	0.707730
C57	C	1.274207	-0.767768	0.666024
H58	H	1.151675	-0.794235	0.718485
H59	H	1.147407	-0.730129	0.665711
H60	H	1.193202	-0.734549	0.767298
H61	H	1.265403	-0.788910	0.606452
H62	H	1.311197	-0.793343	0.708033
O63	O	1.272415	-1.068012	0.586380
C64	C	1.217896	-1.024906	0.640748
H65	H	1.257376	-0.978017	0.644110
H66	H	1.144653	-1.017978	0.605356
C67	C	1.155463	-1.108106	0.739275
C68	C	1.203957	-1.050518	0.743410
H69	H	1.146860	-1.123905	0.802601
H70	H	1.192190	-1.137148	0.702644
H71	H	1.094432	-1.102325	0.709777
H72	H	1.264991	-1.056301	0.772896
H73	H	1.167240	-1.021477	0.780049
O74	O	1.515774	-0.938424	0.343371
C75	C	1.578037	-0.900339	0.398333
H76	H	1.543970	-0.890470	0.471397
H77	H	1.649529	-0.925626	0.409007
C78	C	1.637338	-0.850034	0.255515
C79	C	1.595493	-0.837907	0.345251
H80	H	1.648110	-0.811524	0.222771
H81	H	1.595393	-0.875694	0.218485
H82	H	1.696910	-0.871108	0.264423
H83	H	1.535917	-0.816841	0.336342
H84	H	1.637428	-0.812242	0.382279
H85	H	1.281850	-0.542839	0.576471
O86	O	1.515592	-0.667162	0.343070
C87	C	1.570060	-0.624051	0.288670
H88	H	1.530532	-0.577211	0.285287
H89	H	1.643301	-0.617000	0.324048
C90	C	1.632564	-0.707284	0.190182
C91	C	1.584012	-0.649757	0.186020
H92	H	1.641175	-0.723141	0.126864
H93	H	1.595872	-0.736329	0.226835
H94	H	1.693593	-0.701401	0.219668
H95	H	1.522980	-0.655642	0.156546
H96	H	1.620694	-0.620713	0.149360
H97	H	1.506109	-1.062927	0.352965
