data_functionalizedCrystal
_audit_creation_method	'MofGen! by Chris Wilmer'
_symmetry_space_group_name_H-M	'P1'
_symmetry_Int_Tables_number	1
_symmetry_cell_setting	triclinic
loop_
_symmetry_equiv_pos_as_xyz
  x,y,z
_cell_length_a	14.519709
_cell_length_b	10.065875
_cell_length_c	10.908937
_cell_angle_alpha	96.607309
_cell_angle_beta	108.116950
_cell_angle_gamma	98.757930
loop_
_atom_site_label
_atom_site_type_symbol
_atom_site_fract_x
_atom_site_fract_y
_atom_site_fract_z
O1	O	1.214219	0.113313	-0.149462
O2	O	1.714219	0.613313	0.350538
O3	O	0.942686	0.113355	-0.169271
O4	O	1.442686	0.613355	0.330729
O5	O	1.114445	0.113324	0.027480
O6	O	1.614445	0.613324	0.527480
O7	O	1.042459	0.113344	-0.346212
O8	O	1.542459	0.613344	0.153788
O9	O	1.081670	-0.113658	-0.010189
O10	O	1.581670	0.386342	0.489811
O11	O	0.909910	-0.113628	-0.206939
O12	O	1.409910	0.386372	0.293061
O13	O	1.181443	-0.113670	-0.187130
O14	O	1.681443	0.386330	0.312870
Zn15	Zn	1.040473	-0.149687	-0.203016
Zn16	Zn	1.540473	0.350313	0.296984
Zn17	Zn	1.083656	0.149373	-0.153386
Zn18	Zn	1.583656	0.649373	0.346614
O19	O	1.009684	-0.113639	-0.383881
O20	O	1.509684	0.386361	0.116119
C21	C	0.892082	-0.000131	-0.187181
C22	C	1.392082	0.499869	0.312819
C23	C	0.790130	-0.000115	-0.184411
C24	C	1.290130	0.499885	0.315589
N25	N	1.011009	-0.353787	-0.236886
N26	N	1.511009	0.146213	0.263114
C27	C	1.073400	-0.421577	-0.165162
C28	C	1.573400	0.078423	0.334838
C29	C	1.050729	-0.578741	-0.191239
C30	C	1.550729	-0.078741	0.308761
C31	C	0.416800	-0.000178	-0.174233
C32	C	0.916800	0.499822	0.325767
C33	C	0.520673	-0.000160	-0.177059
C34	C	1.020673	0.499840	0.322941
C35	C	0.603462	-0.000145	-0.179321
C36	C	1.103462	0.499855	0.320679
C37	C	0.707341	-0.000130	-0.182149
C38	C	1.207341	0.499870	0.317851
C39	C	1.232048	-0.000180	-0.169220
C40	C	1.732048	0.499820	0.330780
C41	C	1.334000	-0.000187	-0.171988
C42	C	1.834000	0.499813	0.328012
N43	N	1.113129	0.353473	-0.119505
N44	N	1.613129	0.853473	0.380495
C45	C	1.104785	-0.000166	0.056471
C46	C	1.604785	0.499834	0.556471
C47	C	1.124821	-0.000164	0.198977
C48	C	1.624821	0.499836	0.698977
C49	C	1.019344	-0.000145	-0.412872
C50	C	1.519344	0.499855	0.087128
C51	C	0.999310	-0.000139	-0.555376
C52	C	1.499310	0.499861	-0.055376
C53	C	1.072415	-0.000151	0.395441
C54	C	1.572415	0.499849	0.895441
C55	C	1.051706	-0.000151	0.248154
C56	C	1.551706	0.499849	0.748154
H57	H	1.143597	-0.363266	-0.084446
H58	H	1.643597	0.136734	0.415554
C59	C	1.228807	0.000035	0.288088
C60	C	1.728807	0.500035	0.788088
C61	C	1.293218	0.116788	0.284071
C62	C	1.793218	0.616788	0.784071
C63	C	1.389018	0.117009	0.366128
C64	C	1.889018	0.617009	0.866128
H65	H	1.229070	0.000106	0.375278
H66	H	1.729070	0.500106	0.875278
H67	H	1.249847	-0.079083	0.259266
H68	H	1.749847	0.420917	0.759266
H69	H	1.272184	0.195886	0.312900
H70	H	1.772184	0.695886	0.812900
H71	H	1.292986	0.116742	0.196902
H72	H	1.792986	0.616742	0.696902
H73	H	1.410057	0.037892	0.337306
H74	H	1.910057	0.537892	0.837306
H75	H	1.389270	0.117077	0.453312
H76	H	1.889270	0.617077	0.953312
H77	H	1.432733	0.196218	0.363404
H78	H	1.932733	0.696218	0.863404
H79	H	0.980522	-0.637049	-0.271951
H80	H	1.480522	-0.137049	0.228049
H81	H	1.183331	-0.588219	-0.038784
H82	H	1.683331	-0.088219	0.461216
H83	H	0.940806	-0.412101	-0.317593
H84	H	1.440806	0.087899	0.182407
C85	C	0.895486	-0.000053	0.355186
C86	C	1.395486	0.499947	0.855186
C87	C	0.895594	-0.000022	0.226887
C88	C	1.395594	0.499978	0.726887
C89	C	0.799970	0.000076	0.144468
C90	C	1.299970	0.500076	0.644468
H91	H	0.851551	-0.079178	0.357562
H92	H	1.351551	0.420822	0.857562
H93	H	0.874488	0.079140	0.383921
H94	H	1.374488	0.579140	0.883921
H95	H	0.916579	-0.079208	0.198159
H96	H	1.416579	0.420792	0.698159
H97	H	0.939509	0.079097	0.224469
H98	H	1.439509	0.579097	0.724469
H99	H	0.778972	0.079269	0.173204
H100	H	1.278972	0.579269	0.673204
H101	H	0.756042	-0.079051	0.146856
H102	H	1.256042	0.420949	0.646856
H103	H	0.800032	0.000109	0.057411
H104	H	1.300032	0.500109	0.557411
H105	H	1.150333	-0.000170	0.462374
H106	H	1.650333	0.499830	0.962374
H107	H	0.973780	-0.000149	0.181223
H108	H	1.473780	0.499851	0.681223
