data_functionalizedCrystal
_audit_creation_method	'MofGen! by Chris Wilmer'
_symmetry_space_group_name_H-M	'P1'
_symmetry_Int_Tables_number	1
_symmetry_cell_setting	triclinic
loop_
_symmetry_equiv_pos_as_xyz
  x,y,z
_cell_length_a	18.215407
_cell_length_b	18.050590
_cell_length_c	18.215399
_cell_angle_alpha	90.028735
_cell_angle_beta	90.019833
_cell_angle_gamma	90.019000
loop_
_atom_site_label
_atom_site_type_symbol
_atom_site_fract_x
_atom_site_fract_y
_atom_site_fract_z
Zn1	Zn	1.125104	-0.295658	0.416112
Zn2	Zn	1.125026	-0.419853	0.293044
Zn3	Zn	1.002037	-0.295682	0.293059
Zn4	Zn	1.002016	-0.419812	0.416069
O5	O	1.063546	-0.357751	0.354571
O6	O	1.228078	-0.312140	0.399798
O7	O	1.108687	-0.403409	0.190062
O8	O	1.018403	-0.191755	0.309407
O9	O	1.228021	-0.403386	0.309381
O10	O	1.108820	-0.191737	0.399813
O11	O	1.018328	-0.312181	0.190073
O12	O	0.899050	-0.312141	0.309365
O13	O	1.018368	-0.403315	0.519059
O14	O	0.899035	-0.403339	0.399740
O15	O	1.108801	-0.312100	0.519090
O16	O	1.108668	-0.523772	0.309339
O17	O	1.018293	-0.523742	0.399725
C18	C	0.872340	-0.357739	0.354550
C19	C	0.790541	-0.357751	0.354558
C20	C	1.063489	-0.550704	0.354542
C21	C	1.063533	-0.633249	0.354554
C22	C	0.602358	-0.405312	0.401557
C23	C	0.525500	-0.405315	0.401566
C24	C	0.525486	-0.310204	0.307601
C25	C	0.602343	-0.310199	0.307596
C26	C	0.640777	-0.357757	0.354573
C27	C	0.487061	-0.357765	0.354587
C28	C	0.403728	-0.357767	0.354597
C29	C	0.724116	-0.357754	0.354565
C30	C	1.112781	-0.832689	0.305470
C31	C	1.130758	-0.882022	0.372637
C32	C	1.063574	-0.784380	0.354583
C33	C	1.045672	-0.882129	0.287446
C34	C	1.063616	-0.930365	0.354605
C35	C	1.081586	-0.832624	0.421785
C36	C	0.996469	-0.832728	0.336549
C37	C	1.014421	-0.882038	0.403762
C38	C	1.063552	-0.700281	0.354569
C39	C	1.063638	-1.014461	0.354627
C40	C	1.255499	-0.357765	0.354593
C41	C	1.337298	-0.357770	0.354602
C42	C	1.063591	-0.357700	0.546524
C43	C	1.063610	-0.357678	0.628323
C44	C	1.063623	-0.164046	0.354616
C45	C	1.063656	-0.081500	0.354636
C46	C	1.063544	-0.357749	0.163365
C47	C	1.063667	-0.357561	0.081566
C48	C	1.110715	-0.310138	0.816535
C49	C	1.110724	-0.310117	0.893393
C50	C	1.016557	-0.405104	0.893349
C51	C	1.016545	-0.405121	0.816492
C52	C	1.063628	-0.357639	0.778086
C53	C	1.063649	-0.357600	0.931803
C54	C	1.063658	-0.357577	1.015136
C55	C	1.063618	-0.357661	0.694747
H56	H	0.494222	-0.444038	0.439827
H57	H	0.978225	-0.443763	0.924628
C58	C	1.162499	-0.257905	0.774287
C59	C	1.130622	-0.199612	0.721458
C60	C	1.182405	-0.147375	0.679214
C61	C	1.266067	-0.153431	0.689798
C62	C	1.297948	-0.211726	0.742629
C63	C	1.246165	-0.263963	0.784874
H64	H	1.068687	-0.195127	0.713621
H65	H	1.158804	-0.104221	0.640104
H66	H	1.304400	-0.114762	0.658526
H67	H	1.359883	-0.216211	0.750466
H68	H	1.269766	-0.307117	0.823983
H69	H	1.149065	-0.271435	0.924694
H70	H	0.633649	-0.444035	0.439811
C71	C	0.919804	-0.803444	0.315897
C72	C	0.905591	-0.719412	0.312768
C73	C	0.828926	-0.690126	0.292106
C74	C	0.766473	-0.744873	0.274574
C75	C	0.780684	-0.828911	0.277703
C76	C	0.857349	-0.858196	0.298364
H77	H	0.951824	-0.678880	0.325747
H78	H	0.818406	-0.627916	0.289790
H79	H	0.709721	-0.723195	0.259279
H80	H	0.734451	-0.869442	0.264724
H81	H	0.867868	-0.920407	0.300680
C82	C	1.025185	-0.911501	0.210734
C83	C	1.073322	-0.892029	0.143991
C84	C	1.052842	-0.921397	0.067277
C85	C	0.984224	-0.970238	0.057307
C86	C	0.936083	-0.989712	0.124052
C87	C	0.956563	-0.960344	0.200765
H88	H	1.124121	-0.855872	0.151370
H89	H	1.088479	-0.906981	0.017868
H90	H	0.969063	-0.991978	0.000519
H91	H	0.885284	-1.025869	0.116673
H92	H	0.920926	-0.974761	0.250174
C93	C	0.964747	-0.457377	0.774193
C94	C	0.912964	-0.509611	0.816434
C95	C	0.861166	-0.561862	0.774134
C96	C	0.861151	-0.561877	0.689594
C97	C	0.912936	-0.509640	0.647349
C98	C	0.964734	-0.457390	0.689648
H99	H	0.912973	-0.509602	0.879019
H100	H	0.822831	-0.600531	0.805408
H101	H	0.822808	-0.600556	0.658282
H102	H	0.912927	-0.509650	0.584763
H103	H	1.003069	-0.418721	0.658375
H104	H	0.494183	-0.271485	0.269352
C105	C	0.644608	-0.257886	0.255906
C106	C	0.634066	-0.173469	0.262054
C107	C	0.676331	-0.121158	0.210368
C108	C	0.729138	-0.153264	0.152533
C109	C	0.739682	-0.237686	0.146383
C110	C	0.697417	-0.289997	0.198069
H111	H	0.594973	-0.149697	0.304868
H112	H	0.668525	-0.058663	0.214921
H113	H	0.760424	-0.114541	0.114272
H114	H	0.778775	-0.261458	0.103568
H115	H	0.705224	-0.352492	0.193516
C116	C	1.169010	-0.803408	0.249420
C117	C	1.250887	-0.822866	0.257823
C118	C	1.307117	-0.793584	0.201777
C119	C	1.281469	-0.744844	0.137328
C120	C	1.199588	-0.725384	0.128923
C121	C	1.143358	-0.754666	0.184968
H122	H	1.269876	-0.858948	0.305534
H123	H	1.367731	-0.807989	0.208000
H124	H	1.323094	-0.723167	0.095840
H125	H	1.180598	-0.689301	0.081211
H126	H	1.082744	-0.740260	0.178746
C127	C	1.207444	-0.911281	0.393264
C128	C	1.221336	-0.995307	0.397706
C129	C	1.298024	-1.024562	0.418326
C130	C	1.360820	-0.969791	0.434503
C131	C	1.346930	-0.885759	0.430061
C132	C	1.270242	-0.856504	0.409441
H133	H	1.174849	-1.035856	0.385730
H134	H	1.308307	-1.086767	0.421614
H135	H	1.417590	-0.991447	0.449767
H136	H	1.393417	-0.845210	0.442036
H137	H	1.259960	-0.794298	0.406153
C138	C	1.102159	-0.803381	0.498522
C139	C	1.105970	-0.719353	0.512681
C140	C	1.126546	-0.690108	0.589416
C141	C	1.143312	-0.744890	0.651991
C142	C	1.139501	-0.828923	0.637833
C143	C	1.118925	-0.858168	0.561099
H144	H	1.093559	-0.678795	0.466358
H145	H	1.129367	-0.627901	0.599896
H146	H	1.158543	-0.723241	0.708794
H147	H	1.151912	-0.869481	0.684156
H148	H	1.116105	-0.920375	0.550619
H149	H	0.972826	-0.903569	0.445353
