data_functionalizedCrystal
_audit_creation_method	'MofGen! by Chris Wilmer'
_symmetry_space_group_name_H-M	'P1'
_symmetry_Int_Tables_number	1
_symmetry_cell_setting	triclinic
loop_
_symmetry_equiv_pos_as_xyz
  x,y,z
_cell_length_a	14.971486
_cell_length_b	17.666332
_cell_length_c	14.971486
_cell_angle_alpha	89.993323
_cell_angle_beta	96.385871
_cell_angle_gamma	90.004393
loop_
_atom_site_label
_atom_site_type_symbol
_atom_site_fract_x
_atom_site_fract_y
_atom_site_fract_z
O1	O	1.186951	0.062862	-0.116564
O2	O	1.686951	0.562862	0.383436
O3	O	0.926551	0.062882	-0.130523
O4	O	1.426551	0.562882	0.369477
O5	O	1.063730	0.062866	0.006656
O6	O	1.563730	0.562866	0.506656
O7	O	1.049771	0.062878	-0.253744
O8	O	1.549771	0.562878	0.246256
O9	O	1.063706	-0.063031	0.006664
O10	O	1.563706	0.436969	0.506664
O11	O	0.926527	-0.063014	-0.130516
O12	O	1.426527	0.436986	0.369484
O13	O	1.186927	-0.063035	-0.116557
O14	O	1.686927	0.436965	0.383443
Cu15	Cu	1.056724	-0.074520	-0.123536
Cu16	Cu	1.556724	0.425480	0.376464
Cu17	Cu	1.056753	0.074367	-0.123544
Cu18	Cu	1.556753	0.574367	0.376456
O19	O	1.049747	-0.063019	-0.253736
O20	O	1.549747	0.436981	0.246264
C21	C	0.893214	-0.000063	-0.129895
C22	C	1.393214	0.499937	0.370105
C23	C	0.793917	-0.000056	-0.128024
C24	C	1.293917	0.499944	0.371976
N25	N	1.056711	-0.179240	-0.123529
N26	N	1.556711	0.320760	0.376471
C27	C	0.736691	-0.000053	-0.208614
C28	C	1.236691	0.499947	0.291386
C29	C	0.643392	-0.000064	-0.206850
C30	C	1.143392	0.499936	0.293150
C31	C	0.607320	-0.000073	-0.124497
C32	C	1.107320	0.499927	0.375503
C33	C	0.664552	-0.000078	-0.043902
C34	C	1.164552	0.499922	0.456098
C35	C	0.757850	-0.000072	-0.045666
C36	C	1.257850	0.499928	0.454334
C37	C	0.470090	-0.000089	-0.040231
C38	C	0.970090	0.499911	0.459769
C39	C	0.376786	-0.000093	-0.038466
C40	C	0.876786	0.499907	0.461534
C41	C	0.355632	-0.000081	-0.201415
C42	C	0.855632	0.499919	0.298585
C43	C	0.448930	-0.000075	-0.203179
C44	C	0.948930	0.499925	0.296821
C45	C	0.506156	-0.000079	-0.122584
C46	C	1.006156	0.499921	0.377416
C47	C	1.117474	-0.218857	-0.062816
C48	C	1.617474	0.281143	0.437184
C49	C	1.117479	-0.298104	-0.062811
C50	C	1.617479	0.201896	0.437189
C51	C	1.056730	-0.337732	-0.123536
C52	C	1.556730	0.162268	0.376464
C53	C	0.995956	-0.298105	-0.184254
C54	C	1.495956	0.201895	0.315746
C55	C	0.995946	-0.218859	-0.184250
C56	C	1.495946	0.281141	0.315750
N57	N	1.045429	-0.462146	-0.202669
N58	N	1.545429	0.037854	0.297331
N59	N	1.045443	-0.537427	-0.202670
N60	N	1.545443	-0.037427	0.297330
C61	C	1.056753	-0.576496	-0.123548
C62	C	1.556753	-0.076496	0.376452
N63	N	1.068066	-0.537440	-0.044424
N64	N	1.568066	-0.037440	0.455576
N65	N	1.068057	-0.462153	-0.044424
N66	N	1.568057	0.037847	0.455576
C67	C	1.056733	-0.423661	-0.123546
C68	C	1.556733	0.076339	0.376454
C69	C	1.117525	-0.702042	-0.062825
C70	C	1.617525	-0.202042	0.437175
C71	C	1.117524	-0.781291	-0.062820
C72	C	1.617524	-0.281291	0.437180
C73	C	0.996005	-0.781291	-0.184270
C74	C	1.496005	-0.281291	0.315730
C75	C	0.996002	-0.702043	-0.184268
C76	C	1.496002	-0.202043	0.315732
C77	C	1.056767	-0.662424	-0.123546
C78	C	1.556767	-0.162424	0.376454
C79	C	1.220263	-0.000088	-0.117185
C80	C	1.720263	0.499912	0.382815
C81	C	1.319561	-0.000090	-0.119056
C82	C	1.819561	0.499910	0.380944
C83	C	1.063094	-0.000082	0.039985
C84	C	1.563094	0.499918	0.539985
C85	C	1.061223	-0.000081	0.139282
C86	C	1.561223	0.499919	0.639282
N87	N	1.056774	0.179087	-0.123544
N88	N	1.556774	0.679087	0.376456
C89	C	1.050384	-0.000069	-0.287065
C90	C	1.550384	0.499931	0.212935
C91	C	1.052254	-0.000065	-0.386362
C92	C	1.552254	0.499935	0.113638
C93	C	1.141812	-0.000088	0.196507
C94	C	1.641812	0.499912	0.696507
C95	C	1.140049	-0.000080	0.289807
C96	C	1.640049	0.499920	0.789807
C97	C	1.057696	-0.000071	0.325879
C98	C	1.557696	0.499929	0.825879
C99	C	0.977101	-0.000062	0.268646
C100	C	1.477101	0.499938	0.768646
C101	C	0.978865	-0.000064	0.175349
C102	C	1.478865	0.499936	0.675349
C103	C	0.973430	-0.000059	0.463109
C104	C	1.473430	0.499941	0.963109
C105	C	0.971665	-0.000058	0.556413
C106	C	1.471665	0.499942	1.056413
C107	C	1.134614	-0.000075	0.577567
C108	C	1.634614	0.499925	1.077567
C109	C	1.136378	-0.000077	0.484269
C110	C	1.636378	0.499923	0.984269
C111	C	1.055782	-0.000070	0.427043
C112	C	1.555782	0.499930	0.927043
H113	H	0.766054	-0.000046	-0.275675
H114	H	1.266054	0.499954	0.224325
H115	H	0.596802	-0.000061	-0.272474
H116	H	1.096802	0.499939	0.227526
Cl117	Cl	1.193910	-0.652233	0.013514
Cl118	Cl	1.693910	-0.152233	0.513514
H119	H	0.516682	-0.000092	0.025399
H120	H	1.016682	0.499908	0.525399
Cl121	Cl	0.494276	-0.000056	-0.306711
Cl122	Cl	0.994276	0.499944	0.193289
Cl123	Cl	0.829791	-0.000079	0.055651
Cl124	Cl	1.329791	0.499921	0.555651
H125	H	0.907800	-0.000051	0.416517
H126	H	1.407800	0.499949	0.916517
Cl127	Cl	0.331439	-0.000129	0.065065
Cl128	Cl	0.831439	0.499871	0.565065
Cl129	Cl	0.919581	-0.347921	-0.260590
Cl130	Cl	1.419581	0.152079	0.239410
Cl131	Cl	0.868134	-0.000047	0.601760
Cl132	Cl	1.368134	0.499953	1.101760
Cl133	Cl	0.619204	-0.000093	0.059629
Cl134	Cl	1.119204	0.499907	0.559629
H135	H	0.913240	-0.000058	0.128756
H136	H	1.413240	0.499942	0.628756
H137	H	0.309033	-0.000082	-0.267039
H138	H	0.809033	0.499918	0.232961
H139	H	0.946465	-0.186602	-0.233691
H140	H	1.446465	0.313398	0.266309
Cl141	Cl	1.193913	-0.831098	0.013517
Cl142	Cl	1.693913	-0.331098	0.513517
H143	H	1.203437	-0.000090	0.454903
H144	H	1.703437	0.499910	0.954903
Cl145	Cl	0.919628	-0.831103	-0.260603
Cl146	Cl	1.419628	-0.331103	0.239397
H147	H	0.946527	-0.669785	-0.233710
H148	H	1.446527	-0.169785	0.266290
H149	H	0.910047	-0.000050	0.298024
H150	H	1.410047	0.499950	0.798024
H151	H	1.208874	-0.000100	0.167145
H152	H	1.708874	0.499900	0.667145
Cl153	Cl	1.193857	-0.169050	0.013522
Cl154	Cl	1.693857	0.330950	0.513522
H155	H	1.205673	-0.000088	0.336396
H156	H	1.705673	0.499912	0.836396
Cl157	Cl	1.193874	-0.347917	0.013520
Cl158	Cl	1.693874	0.152083	0.513520
H159	H	1.200238	-0.000079	0.624165
H160	H	1.700238	0.499921	1.124165
