data_functionalizedCrystal
_audit_creation_method	'MofGen! by Chris Wilmer'
_symmetry_space_group_name_H-M	'P1'
_symmetry_Int_Tables_number	1
_symmetry_cell_setting	triclinic
loop_
_symmetry_equiv_pos_as_xyz
  x,y,z
_cell_length_a	10.654550
_cell_length_b	9.065218
_cell_length_c	9.730223
_cell_angle_alpha	90.000469
_cell_angle_beta	89.996251
_cell_angle_gamma	84.750394
loop_
_atom_site_label
_atom_site_type_symbol
_atom_site_fract_x
_atom_site_fract_y
_atom_site_fract_z
O1	O	1.668655	0.207228	-0.114397
O2	O	1.303254	0.226972	-0.114374
O3	O	1.493507	0.002417	-0.114383
O4	O	1.478402	0.431784	-0.114388
O5	O	1.493505	0.002422	0.114197
O6	O	1.303252	0.226978	0.114206
O7	O	1.668653	0.207234	0.114183
Zn8	Zn	1.485952	0.217107	0.150486
Zn9	Zn	1.485955	0.217099	-0.150678
O10	O	1.478400	0.431790	0.114192
C11	C	1.256450	0.225525	-0.000082
C12	C	1.116989	0.221188	-0.000073
C13	C	1.038027	0.353403	-0.000095
C14	C	0.906990	0.349319	-0.000118
C15	C	0.933890	0.080793	-0.000105
C16	C	1.064925	0.084879	-0.000071
C17	C	1.022496	0.508434	-0.000108
C18	C	0.891459	0.504350	-0.000132
C19	C	1.492055	-0.052559	-0.000096
C20	C	1.487714	-0.216378	-0.000102
C21	C	1.715457	0.208681	-0.000113
C22	C	1.854918	0.213018	-0.000130
C23	C	1.479852	0.486766	-0.000099
C24	C	1.484193	0.650585	-0.000102
N25	N	1.485959	0.217111	0.356023
N26	N	1.485958	0.217084	-0.356214
C27	C	1.570225	0.117712	0.427945
C28	C	1.570222	0.117694	0.571828
C29	C	1.401682	0.316488	0.571854
C30	C	1.401681	0.316497	0.427973
C31	C	1.667534	0.002944	0.427931
C32	C	1.667531	0.002926	0.571814
H33	H	1.052066	0.569069	0.095557
C34	C	0.767027	0.458119	0.198357
C35	C	0.830055	0.567577	0.133097
H36	H	0.729130	0.497142	0.280614
H37	H	0.703732	0.427134	0.138983
H38	H	0.825483	0.375855	0.219754
H39	H	0.771598	0.649836	0.111690
H40	H	0.893358	0.598583	0.192483
C41	C	1.722921	-0.210289	0.713076
C42	C	1.625786	-0.141738	0.632089
H43	H	1.697146	-0.299587	0.750301
H44	H	1.795956	-0.231977	0.658111
H45	H	1.741521	-0.145797	0.785756
H46	H	1.607192	-0.206225	0.559402
H47	H	1.552729	-0.120055	0.687056
C48	C	1.330800	0.571103	0.616174
C49	C	1.309046	0.425734	0.650941
H50	H	1.273602	0.638546	0.664991
H51	H	1.414787	0.588039	0.639764
H52	H	1.318744	0.585317	0.520187
H53	H	1.321111	0.411517	0.746927
H54	H	1.225039	0.408792	0.627360
C55	C	0.932500	0.635094	-0.207584
C56	C	0.835422	0.583198	-0.129275
H57	H	0.897903	0.683763	-0.287309
H58	H	0.975255	0.702736	-0.154429
H59	H	0.990167	0.553970	-0.234140
H60	H	0.777760	0.664323	-0.102710
H61	H	0.792647	0.515551	-0.182440
H62	H	1.058348	0.557796	-0.098796
C63	C	1.376683	0.517017	0.266190
C64	C	1.309049	0.425757	0.348917
H65	H	1.319492	0.584467	0.217381
H66	H	1.429548	0.570657	0.322322
H67	H	1.426863	0.457816	0.202747
H68	H	1.258876	0.484958	0.412368
H69	H	1.256163	0.372113	0.292780
C70	C	1.519301	-0.181183	0.423187
C71	C	1.637965	-0.150141	0.375205
H72	H	1.501043	-0.275685	0.390631
H73	H	1.519313	-0.181183	0.520803
H74	H	1.457067	-0.107742	0.390647
H75	H	1.700200	-0.223576	0.407754
H76	H	1.637962	-0.150153	0.277569
C77	C	1.871790	0.083286	0.474835
C78	C	1.790820	0.051442	0.367664
H79	H	1.947903	0.113219	0.437624
H80	H	1.832438	0.160862	0.529777
H81	H	1.889957	-0.002642	0.529771
H82	H	1.772646	0.137374	0.312734
H83	H	1.830180	-0.026141	0.312699
H84	H	1.129212	-0.022783	-0.000034
H85	H	1.764142	0.028206	0.610858
H86	H	0.891483	-0.030185	-0.000124
