data_functionalizedCrystal
_audit_creation_method	'MofGen! by Chris Wilmer'
_symmetry_space_group_name_H-M	'P1'
_symmetry_Int_Tables_number	1
_symmetry_cell_setting	triclinic
loop_
_symmetry_equiv_pos_as_xyz
  x,y,z
_cell_length_a	19.188930
_cell_length_b	16.974800
_cell_length_c	17.666332
_cell_angle_alpha	93.650238
_cell_angle_beta	89.993235
_cell_angle_gamma	83.267966
loop_
_atom_site_label
_atom_site_type_symbol
_atom_site_fract_x
_atom_site_fract_y
_atom_site_fract_z
O1	O	0.088938	1.048841	0.001320
O2	O	0.588938	1.548841	0.501320
O3	O	0.100283	0.818595	-0.012793
O4	O	0.600283	1.318595	0.487207
O5	O	-0.007034	0.940362	-0.005314
O6	O	0.492966	1.440362	0.494686
O7	O	0.196255	0.927074	-0.006159
O8	O	0.696255	1.427074	0.493841
O9	O	-0.007030	0.940346	0.120581
O10	O	0.492970	1.440346	0.620581
O11	O	0.100287	0.818579	0.113103
O12	O	0.600287	1.318579	0.613103
O13	O	0.088942	1.048825	0.127216
O14	O	0.588942	1.548825	0.627216
Cu15	Cu	0.094615	0.933700	0.131654
Cu16	Cu	0.594615	1.433700	0.631654
Cu17	Cu	0.094610	0.933720	-0.017232
Cu18	Cu	0.594610	1.433720	0.482768
O19	O	0.196259	0.927058	0.119737
O20	O	0.696259	1.427058	0.619737
C21	C	0.099855	0.789130	0.048350
C22	C	0.599855	1.289130	0.548350
C23	C	0.098566	0.701358	0.042970
C24	C	0.598566	1.201358	0.542970
C25	C	0.097961	0.660119	0.109070
C26	C	0.597961	1.160119	0.609070
C27	C	0.096738	0.577649	0.104018
C28	C	0.596738	1.077649	0.604018
C29	C	0.096126	0.536420	0.032865
C30	C	0.596126	1.036420	0.532865
C31	C	0.096729	0.577666	-0.033240
C32	C	0.596729	1.077666	0.466760
C33	C	0.097947	0.660134	-0.028187
C34	C	0.597947	1.160134	0.471813
C35	C	0.092480	0.289776	0.010394
C36	C	0.592480	0.789776	0.510394
C37	C	0.091265	0.207301	0.005346
C38	C	0.591265	0.707301	0.505346
C39	C	0.091272	0.207291	0.142605
C40	C	0.591272	0.707291	0.642605
C41	C	0.092494	0.289761	0.147651
C42	C	0.592494	0.789761	0.647651
C43	C	0.093093	0.330999	0.081546
C44	C	0.593093	0.830999	0.581546
N45	N	0.094879	0.452123	0.027699
N46	N	0.594879	0.952123	0.527699
N47	N	0.094336	0.415296	0.086713
N48	N	0.594336	0.915296	0.586713
C49	C	-0.033044	0.939924	0.057609
C50	C	0.466956	1.439924	0.557609
C51	C	-0.110550	0.938632	0.057537
C52	C	0.389450	1.438632	0.557537
C53	C	-0.155353	1.010081	0.061920
C54	C	0.344647	1.510081	0.561920
C55	C	-0.228179	1.008868	0.061833
C56	C	0.271821	1.508868	0.561833
C57	C	-0.256199	0.936201	0.057378
C58	C	0.243801	1.436201	0.557378
C59	C	-0.211386	0.864743	0.052990
C60	C	0.288614	1.364743	0.552990
C61	C	-0.138562	0.865958	0.053070
C62	C	0.361438	1.365958	0.553070
N63	N	-0.364296	0.880650	0.096819
N64	N	0.135704	1.380650	0.596819
N65	N	-0.433477	0.879500	0.096745
N66	N	0.066523	1.379500	0.596745
C67	C	-0.475614	0.932534	0.057138
C68	C	0.024386	1.432534	0.557138
N69	N	-0.445958	0.986773	0.017618
N70	N	0.054042	1.486773	0.517618
N71	N	-0.376771	0.987925	0.017694
N72	N	0.123229	1.487925	0.517694
C73	C	-0.335163	0.934875	0.057292
C74	C	0.164837	1.434875	0.557292
C75	C	-0.599383	1.002672	0.061427
C76	C	-0.099383	1.502672	0.561427
C77	C	-0.672210	1.001455	0.061335
C78	C	-0.172210	1.501455	0.561335
C79	C	-0.655415	0.857328	0.052500
C80	C	-0.155415	1.357328	0.552500
C81	C	-0.582590	0.858547	0.052584
C82	C	-0.082590	1.358547	0.552584
C83	C	-0.554579	0.931221	0.057051
C84	C	-0.054579	1.431221	0.557051
C85	C	0.222269	0.927496	0.056812
C86	C	0.722269	1.427496	0.556812
C87	C	0.299775	0.928788	0.056879
C88	C	0.799775	1.428788	0.556879
C89	C	0.089370	1.078290	0.066071
C90	C	0.589370	1.578290	0.566071
C91	C	0.090659	1.166062	0.071446
C92	C	0.590659	1.666062	0.571446
N93	N	0.094617	0.933693	0.236373
N94	N	0.594617	1.433693	0.736373
N95	N	0.094602	0.933733	-0.121950
N96	N	0.594602	1.433733	0.378050
C97	C	0.136919	0.981540	0.841349
C98	C	0.636919	1.481540	1.341349
C99	C	0.136926	0.981532	0.762101
C100	C	0.636926	1.481532	1.262101
C101	C	0.094603	0.933727	0.719557
C102	C	0.594603	1.433727	1.219557
C103	C	0.052284	0.885911	0.756267
C104	C	0.552284	1.385911	1.256267
C105	C	0.052284	0.885914	0.835513
C106	C	0.552284	1.385914	1.335513
N107	N	0.033440	0.931812	0.595024
N108	N	0.533440	1.431812	1.095024
N109	N	0.033442	0.931814	0.519744
N110	N	0.533442	1.431814	1.019744
C111	C	0.094603	0.933713	0.480792
C112	C	0.594603	1.433713	0.980792
N113	N	0.155763	0.935626	0.519966
N114	N	0.655763	1.435626	1.019966
N115	N	0.155760	0.935629	0.595253
N116	N	0.655760	1.435629	1.095253
C117	C	0.094599	0.933718	0.633627
C118	C	0.594599	1.433718	1.133627
C119	C	0.136931	0.981513	0.358162
C120	C	0.636931	1.481513	0.858162
C121	C	0.136939	0.981500	0.278912
C122	C	0.636939	1.481500	0.778912
C123	C	0.052291	0.885883	0.273079
C124	C	0.552291	1.385883	0.773079
C125	C	0.052289	0.885892	0.352327
C126	C	0.552289	1.385892	0.852327
C127	C	0.094608	0.933711	0.394864
C128	C	0.594608	1.433711	0.894864
H129	H	0.096233	0.544077	0.157844
H130	H	0.596233	1.044077	0.657844
Cl131	Cl	0.190116	1.041650	0.715954
Cl132	Cl	0.690116	1.541650	1.215954
H133	H	0.017826	0.846985	0.721622
H134	H	0.517826	1.346985	1.221622
Cl135	Cl	-0.690633	0.765974	0.046896
Cl136	Cl	-0.190633	1.265974	0.546896
H137	H	0.098465	0.693681	0.167011
H138	H	0.598465	1.193681	0.667011
H139	H	0.096226	0.544091	-0.091175
H140	H	0.596226	1.044091	0.408825
Cl141	Cl	-0.526263	0.768720	0.047077
Cl142	Cl	-0.026263	1.268720	0.547077
Cl143	Cl	0.190158	1.041587	0.232773
Cl144	Cl	0.690158	1.541587	0.732773
H145	H	0.098441	0.693710	-0.082013
H146	H	0.598441	1.193710	0.417987
Cl147	Cl	-0.000919	0.825809	0.881653
Cl148	Cl	0.499081	1.325809	1.381653
Cl149	Cl	0.093268	0.341585	0.237105
Cl150	Cl	0.593268	0.841585	0.737105
H151	H	0.171393	1.020447	0.392797
H152	H	0.671393	1.520447	0.892797
H153	H	-0.132552	1.069258	0.065554
H154	H	0.367448	1.569258	0.565554
H155	H	0.090783	0.173705	0.196424
H156	H	0.590783	0.673705	0.696424
H157	H	0.092966	0.323343	-0.043434
H158	H	0.592966	0.823343	0.456566
Cl159	Cl	-0.284514	1.098696	0.067343
Cl160	Cl	0.215486	1.598696	0.567343
Cl161	Cl	-0.246609	0.773390	0.047384
Cl162	Cl	0.253391	1.273390	0.547384
H163	H	0.017835	0.846954	0.238441
H164	H	0.517835	1.346954	0.738441
Cl165	Cl	0.090497	0.155471	-0.084111
Cl166	Cl	0.590497	0.655471	0.415889
Cl167	Cl	-0.082234	0.776129	0.047559
Cl168	Cl	0.417766	1.276129	0.547559
H169	H	0.017827	0.846966	0.382209
H170	H	0.517827	1.346966	0.882209
H171	H	-0.576575	1.061847	0.065061
H172	H	-0.076575	1.561847	0.565061
Cl173	Cl	-0.728536	1.091285	0.066841
Cl174	Cl	-0.228536	1.591285	0.566841
Cl175	Cl	0.190125	1.041650	0.894819
Cl176	Cl	0.690125	1.541650	1.394819
