data_functionalizedCrystal
_audit_creation_method	'MofGen! by Chris Wilmer'
_symmetry_space_group_name_H-M	'P1'
_symmetry_Int_Tables_number	1
_symmetry_cell_setting	triclinic
loop_
_symmetry_equiv_pos_as_xyz
  x,y,z
_cell_length_a	12.759401
_cell_length_b	29.839132
_cell_length_c	12.759386
_cell_angle_alpha	89.929029
_cell_angle_beta	90.041242
_cell_angle_gamma	89.954310
loop_
_atom_site_label
_atom_site_type_symbol
_atom_site_fract_x
_atom_site_fract_y
_atom_site_fract_z
Zn1	Zn	1.606267	0.178685	0.593923
Zn2	Zn	1.605998	0.253864	0.418217
Zn3	Zn	1.430500	0.178749	0.418262
Zn4	Zn	1.430464	0.253789	0.593858
O5	O	1.518307	0.216272	0.506065
O6	O	1.753252	0.188662	0.570624
O7	O	1.582620	0.243958	0.271201
O8	O	1.453943	0.115874	0.441610
O9	O	1.753055	0.243896	0.441533
O10	O	1.583079	0.115826	0.570667
O11	O	1.453682	0.188772	0.271235
O12	O	1.283474	0.188699	0.441547
O13	O	1.453882	0.243768	0.740888
O14	O	1.283448	0.243831	0.570557
O15	O	1.583044	0.188589	0.740936
O16	O	1.582586	0.316721	0.441470
O17	O	1.453622	0.316666	0.570513
C18	C	1.245340	0.216264	0.506050
C19	C	1.128563	0.216272	0.506069
C20	C	1.073805	0.187563	0.573390
C21	C	0.964081	0.187568	0.573397
C22	C	0.963883	0.244993	0.438759
C23	C	1.073605	0.244986	0.438747
C24	C	1.518099	0.332994	0.506002
C25	C	1.518106	0.382929	0.506011
C26	C	1.585506	0.692588	0.438927
C27	C	1.585607	0.880261	0.438951
O28	O	1.642800	0.904539	0.381896
N29	N	1.518417	0.903714	0.506082
C30	C	1.451203	0.880245	0.573217
O31	O	1.394064	0.904500	0.630324
C32	C	1.451109	0.692573	0.573197
C33	C	1.518295	0.669123	0.506055
C34	C	1.652688	0.669138	0.371791
C35	C	1.652658	0.622222	0.371782
C36	C	1.585447	0.598757	0.438909
C37	C	1.518265	0.622208	0.506045
C38	C	1.383900	0.669106	0.640336
C39	C	1.383885	0.622185	0.640327
C40	C	1.451071	0.598734	0.573185
C41	C	1.451024	0.551827	0.573163
N42	N	1.518213	0.528374	0.506032
C43	C	1.585425	0.551839	0.438905
C44	C	1.451256	0.978776	0.573220
C45	C	1.451278	1.025694	0.573224
C46	C	1.585683	1.025706	0.438960
C47	C	1.585655	0.978788	0.438952
C48	C	1.518445	0.955323	0.506090
C49	C	1.585356	0.453314	0.438890
C50	C	1.585318	0.406394	0.438884
C51	C	1.450917	0.406386	0.573151
C52	C	1.450951	0.453301	0.573154
C53	C	1.518180	0.476764	0.506020
O54	O	1.393869	0.527520	0.630196
O55	O	1.642571	0.527577	0.381823
C56	C	1.585536	0.739504	0.438937
C57	C	1.518354	0.762954	0.506073
C58	C	1.451143	0.739489	0.573200
C59	C	1.518376	0.809872	0.506077
C60	C	1.585588	0.833337	0.438950
C61	C	1.652777	0.809884	0.371819
C62	C	1.652748	0.762969	0.371810
C63	C	1.383954	0.762941	0.640331
C64	C	1.383988	0.809857	0.640334
C65	C	1.451200	0.833322	0.573207
C66	C	1.792340	0.216280	0.506080
C67	C	1.909117	0.216283	0.506087
C68	C	1.518505	1.099093	0.506128
C69	C	1.518489	1.049159	0.506097
C70	C	1.518186	0.216347	0.233097
C71	C	1.518313	0.216267	0.116321
C72	C	1.450757	0.187708	0.061526
C73	C	1.450886	0.187631	-0.048198
C74	C	1.586130	0.244678	-0.048321
C75	C	1.586005	0.244751	0.061400
C76	C	1.518489	0.216163	0.780099
C77	C	1.518567	0.216117	0.896876
H78	H	1.640103	0.472411	0.384225
H79	H	1.395876	0.164375	-0.092807
N80	N	1.655016	0.273920	0.117397
N81	N	1.721651	0.257945	0.178852
H82	H	1.770390	0.278543	0.218403
N83	N	1.381622	0.158603	0.117610
N84	N	1.387988	0.117121	0.105634
H85	H	1.339161	0.096563	0.145239
H86	H	1.640029	0.387302	0.384204
N87	N	1.655265	0.273770	-0.104440
N88	N	1.655366	0.273701	-0.202405
H89	H	1.704192	0.294249	-0.242039
N90	N	1.129563	0.274306	0.369975
N91	N	1.190758	0.258473	0.303095
H92	H	1.230281	0.279178	0.254524
H93	H	0.919123	0.268371	0.383949
H94	H	1.396191	0.387273	0.627802
H95	H	1.329155	0.603082	0.695003
N96	N	1.721281	0.598278	0.303178
N97	N	1.714321	0.603586	0.206231
H98	H	1.762790	0.586680	0.157772
N99	N	1.129928	0.158224	0.642144
N100	N	1.117725	0.116769	0.635351
H101	H	1.157359	0.096045	0.683908
N102	N	0.908163	0.158238	0.642165
N103	N	0.957249	0.132602	0.702260
H104	H	0.917759	0.111886	0.750830
H105	H	1.640409	1.044820	0.384303
H106	H	1.707500	0.828998	0.317159
H107	H	1.707425	0.688238	0.317128
H108	H	1.640364	0.959697	0.384279
N109	N	1.382625	1.049638	0.641798
N110	N	1.322623	1.028675	0.701724
H111	H	1.274136	1.045584	0.750161
H112	H	1.396523	0.959674	0.627894
H113	H	1.329185	0.688191	0.695006
H114	H	1.396246	0.472395	0.627830
H115	H	1.707457	0.743879	0.317136
N116	N	1.315338	0.833801	0.708922
N117	N	1.255337	0.812838	0.768849
H118	H	1.206858	0.829747	0.817294
H119	H	1.329223	0.743840	0.694995
