data_functionalizedCrystal
_audit_creation_method	'MofGen! by Chris Wilmer'
_symmetry_space_group_name_H-M	'P1'
_symmetry_Int_Tables_number	1
_symmetry_cell_setting	triclinic
loop_
_symmetry_equiv_pos_as_xyz
  x,y,z
_cell_length_a	13.635800
_cell_length_b	11.891525
_cell_length_c	12.530034
_cell_angle_alpha	94.267301
_cell_angle_beta	89.998792
_cell_angle_gamma	148.207213
loop_
_atom_site_label
_atom_site_type_symbol
_atom_site_fract_x
_atom_site_fract_y
_atom_site_fract_z
V1	V	-2.123360	-0.291700	-0.331764
O2	O	-1.923504	0.017521	-0.326216
O3	O	-2.282562	-0.581762	-0.328756
O4	O	-2.063090	-0.285675	-0.476794
O5	O	-2.144496	-0.280615	-0.177153
V6	V	-2.346083	-0.254895	-0.313361
O7	O	-2.295751	-0.372434	-0.372132
O8	O	-2.398790	-0.174161	-0.272993
O9	O	-2.075278	0.035167	-0.316368
O10	O	-2.604637	-0.564116	-0.318908
O11	O	-2.383646	-0.265980	-0.467971
O12	O	-2.294750	-0.260919	-0.168330
V13	V	-1.623360	-0.291700	-0.331764
O14	O	-1.423504	0.017521	-0.326216
O15	O	-1.782562	-0.581762	-0.328756
O16	O	-1.563090	-0.285675	-0.476794
O17	O	-1.644496	-0.280615	-0.177153
V18	V	-1.846083	-0.254895	-0.313361
O19	O	-1.795751	-0.372434	-0.372132
O20	O	-1.898790	-0.174161	-0.272993
O21	O	-1.575278	0.035167	-0.316368
O22	O	-2.104637	-0.564116	-0.318908
O23	O	-1.883646	-0.265980	-0.467971
O24	O	-1.794750	-0.260919	-0.168330
C25	C	-1.754334	0.347480	-0.323331
C26	C	-1.938677	0.105906	-0.321799
C27	C	-2.250855	-0.652523	-0.323337
C28	C	-2.424630	-0.894100	-0.321819
C29	C	-2.218621	-0.271768	-0.132951
C30	C	-2.215606	-0.274828	-0.012164
C31	C	-1.970887	-0.274823	-0.512168
C32	C	-1.963323	-0.271757	-0.632955
V33	V	-2.088155	-0.291713	0.168241
O34	O	-2.050588	-0.280625	0.322851
O35	O	-2.139493	-0.285693	0.023210
O36	O	-2.358958	-0.581778	0.171249
O37	O	-1.829603	0.017510	0.173787
V38	V	-1.810860	-0.254894	0.186641
O39	O	-2.035442	-0.372441	0.127871
O40	O	-1.638464	-0.174153	0.227008
O41	O	-1.871130	-0.260920	0.331672
O42	O	-1.789726	-0.265979	0.032030
O43	O	-2.010711	-0.564113	0.181094
O44	O	-1.651664	0.035165	0.183634
C45	C	-1.470887	-0.274823	-0.512168
C46	C	-1.463323	-0.271757	-0.632955
C47	C	-1.718621	-0.271768	-0.132951
C48	C	-1.715606	-0.274828	-0.012164
C49	C	-2.495560	-0.652531	0.176672
C50	C	-2.679911	-0.894107	0.178192
V51	V	-1.588128	-0.291678	0.168240
O52	O	-1.550705	-0.280771	0.322842
O53	O	-1.639331	-0.285486	0.023219
O54	O	-1.858954	-0.581769	0.171159
O55	O	-1.329561	0.017563	0.173878
V56	V	-1.310852	-0.254882	0.186666
O57	O	-1.535386	-0.372367	0.127857
O58	O	-1.138489	-0.174184	0.227061
O59	O	-1.371256	-0.261079	0.331679
O60	O	-1.289575	-0.265786	0.032066
O61	O	-1.510719	-0.564121	0.181030
O62	O	-1.151632	0.035205	0.183740
C63	C	-1.995565	-0.652533	0.176555
C64	C	-2.179934	-0.894131	0.178004
