data_functionalizedCrystal
_audit_creation_method	'MofGen! by Chris Wilmer'
_symmetry_space_group_name_H-M	'P1'
_symmetry_Int_Tables_number	1
_symmetry_cell_setting	triclinic
loop_
_symmetry_equiv_pos_as_xyz
  x,y,z
_cell_length_a	14.853569
_cell_length_b	23.532407
_cell_length_c	13.930277
_cell_angle_alpha	89.990782
_cell_angle_beta	89.994756
_cell_angle_gamma	83.242121
loop_
_atom_site_label
_atom_site_type_symbol
_atom_site_fract_x
_atom_site_fract_y
_atom_site_fract_z
O1	O	1.195554	0.074357	-0.079797
O2	O	0.932998	0.083213	-0.079810
O3	O	1.072194	-0.004112	-0.079786
O4	O	1.056359	0.161682	-0.079821
O5	O	1.072174	-0.004114	0.079876
O6	O	0.932979	0.083211	0.079852
O7	O	1.195535	0.074355	0.079865
Zn8	Zn	1.064254	0.078783	0.105208
Zn9	Zn	1.064279	0.078785	-0.105153
O10	O	1.056340	0.161680	0.079840
C11	C	0.899404	0.082811	0.000020
C12	C	0.799334	0.081608	0.000016
C13	C	1.071781	-0.025331	0.000048
C14	C	1.070568	-0.088553	0.000055
C15	C	0.763531	0.029170	0.000024
C16	C	0.741106	0.132915	0.000012
C17	C	0.647085	0.131787	0.000013
C18	C	0.611282	0.079349	0.000021
C19	C	0.669500	0.028040	0.000028
C20	C	0.588859	0.183095	0.000016
C21	C	0.494831	0.181968	0.000019
C22	C	0.459026	0.129530	0.000020
C23	C	0.517251	0.078219	0.000025
C24	C	0.481448	0.025782	0.000033
C25	C	0.539672	-0.025530	0.000032
C26	C	0.633696	-0.024398	0.000029
C27	C	0.365002	0.128398	0.000023
C28	C	0.387418	0.024651	0.000038
C29	C	1.145337	-0.487330	0.000006
C30	C	1.144211	-0.546735	-0.000001
O31	O	1.213523	-0.583177	-0.000033
N32	N	1.061459	-0.569722	-0.000004
C33	C	0.979829	-0.533301	-0.000010
O34	O	0.909339	-0.558309	-0.000015
C35	C	0.980956	-0.473897	-0.000010
C36	C	1.063713	-0.450913	0.000003
C37	C	1.228088	-0.464345	0.000018
C38	C	1.229213	-0.404944	0.000027
C39	C	1.147589	-0.368527	0.000024
C40	C	1.064839	-0.391512	0.000012
C41	C	0.899326	-0.437478	-0.000022
C42	C	0.900460	-0.378070	-0.000023
C43	C	0.983217	-0.355086	-0.000010
C44	C	0.984340	-0.295695	0.000019
N45	N	1.067092	-0.272707	0.000022
C46	C	1.148716	-0.309123	0.000025
C47	C	0.977468	-0.658054	-0.000013
C48	C	0.976340	-0.717457	-0.000007
C49	C	1.140723	-0.730886	0.000001
C50	C	1.141850	-0.671482	0.000001
C51	C	1.060220	-0.635067	-0.000010
C52	C	1.151074	-0.184376	0.000045
C53	C	1.152193	-0.124969	0.000058
C54	C	0.987811	-0.111545	0.000046
C55	C	0.986691	-0.170947	0.000038
C56	C	1.068331	-0.207362	0.000034
O57	O	0.915065	-0.259218	0.000047
O58	O	1.219195	-0.284108	0.000017
C59	C	1.229129	0.074757	0.000033
C60	C	1.329199	0.075960	0.000031
C61	C	1.056752	0.182899	0.000005
C62	C	1.057965	0.246121	-0.000009
N63	N	1.064243	0.078781	0.248774
N64	N	1.064297	0.078783	-0.248719
C65	C	1.002641	0.117438	0.701033
C66	C	1.125942	0.040129	0.701024
C67	C	1.125931	0.040127	0.600528
C68	C	1.064276	0.078782	0.550280
C69	C	1.002630	0.117438	0.600528
C70	C	1.187581	0.001475	0.550273
C71	C	1.187574	0.001472	0.449771
C72	C	1.125913	0.040124	0.399521
C73	C	1.064265	0.078782	0.449775
C74	C	1.002609	0.117437	0.399527
C75	C	0.940956	0.156093	0.449779
C76	C	0.940970	0.156091	0.550278
C77	C	1.125899	0.040126	0.299022
C78	C	1.002598	0.117438	0.299022
H79	H	0.358275	-0.018050	0.000039
Cl80	Cl	0.863472	0.204684	0.613454
Cl81	Cl	0.863454	0.204689	0.386599
H82	H	0.618017	0.225787	0.000016
Cl83	Cl	1.245891	-0.642595	0.000016
Cl84	Cl	1.203405	-0.008463	0.235855
Cl85	Cl	1.253708	-0.230146	0.000042
H86	H	0.510509	-0.068225	0.000032
H87	H	0.952441	0.148909	0.741950
H88	H	0.681109	-0.066173	0.000030
Cl89	Cl	1.330716	-0.510116	0.000023
Cl90	Cl	0.421645	0.246473	0.000012
Cl91	Cl	0.797832	-0.332293	-0.000037
H92	H	0.317601	0.170175	0.000032
H93	H	1.219586	-0.106259	0.000071
Cl94	Cl	1.243337	-0.776678	-0.000002
Cl95	Cl	1.265094	-0.047115	0.613439
Cl96	Cl	0.925078	0.166032	0.235861
H97	H	0.908951	-0.736165	-0.000001
Cl98	Cl	1.203455	-0.008461	0.764190
H99	H	0.770263	0.175607	0.000012
H100	H	1.296603	-0.386236	0.000034
H101	H	0.810940	-0.012606	0.000019
Cl102	Cl	1.265075	-0.047124	0.386603
H103	H	0.910990	-0.628407	-0.000013
H104	H	0.831937	-0.456180	-0.000039
H105	H	0.919304	-0.189661	0.000054
H106	H	0.921354	-0.081885	0.000047
