data_functionalizedCrystal
_audit_creation_method	'MofGen! by Chris Wilmer'
_symmetry_space_group_name_H-M	'P1'
_symmetry_Int_Tables_number	1
_symmetry_cell_setting	triclinic
loop_
_symmetry_equiv_pos_as_xyz
  x,y,z
_cell_length_a	9.065218
_cell_length_b	9.016244
_cell_length_c	10.540539
_cell_angle_alpha	90.004647
_cell_angle_beta	95.229278
_cell_angle_gamma	89.995482
loop_
_atom_site_label
_atom_site_type_symbol
_atom_site_fract_x
_atom_site_fract_y
_atom_site_fract_z
O1	O	-1.959467	0.123408	0.186150
O2	O	-1.530106	0.123394	0.201419
O3	O	-1.754582	0.123400	0.009114
O4	O	-1.734990	0.123403	0.378455
O5	O	-1.754572	-0.123281	0.009100
O6	O	-1.530096	-0.123287	0.201404
O7	O	-1.959457	-0.123272	0.186136
Cu8	Cu	-1.744776	-0.145803	0.193769
Cu9	Cu	-1.744787	0.145925	0.193786
O10	O	-1.734981	-0.123278	0.378440
C11	C	-1.475121	0.000052	0.199944
C12	C	-1.311301	0.000047	0.195556
N13	N	-1.744778	-0.350990	0.193756
C14	C	-1.865307	-0.585973	0.091244
C15	C	-1.864982	-0.414082	0.090850
C16	C	-1.590538	-0.413420	0.163055
C17	C	-1.591255	-0.585365	0.162335
C18	C	-1.777139	-0.585491	0.327323
C19	C	-1.780620	-0.413535	0.326465
C20	C	-1.014441	0.000064	0.187610
C21	C	-1.178262	0.000051	0.191998
C22	C	-1.753108	0.000062	-0.038201
C23	C	-1.748712	0.000070	-0.179166
N24	N	-1.744796	0.351111	0.193789
C25	C	-1.580278	0.000618	-0.363215
C26	C	-1.584734	0.000063	-0.216581
C27	C	-1.827620	-0.140794	-0.240540
C28	C	-1.822024	-0.140913	-0.387105
C29	C	-1.825370	0.139609	-0.387594
C30	C	-1.826880	0.141472	-0.240607
C31	C	-1.736455	0.000063	0.425756
C32	C	-1.740850	0.000065	0.566720
H33	H	-1.979590	-0.371870	0.109393
H34	H	-1.562961	-0.625487	0.064895
N35	N	-1.754612	0.272240	-0.189522
N36	N	-1.697742	0.361257	-0.261819
H37	H	-1.646717	0.453618	-0.225730
N38	N	-1.915307	-0.639851	0.363827
N39	N	-1.918847	-0.713772	0.463822
H40	H	-2.016433	-0.752164	0.489595
N41	N	-1.976871	0.152168	-0.209703
N42	N	-2.055994	0.258365	-0.250824
H43	H	-2.161933	0.265911	-0.229003
H44	H	-1.522201	-0.101087	-0.175062
N45	N	-2.009563	-0.637810	0.114191
N46	N	-2.025244	-0.721735	0.206384
H47	H	-2.127129	-0.758350	0.222597
N48	N	-1.973956	0.140776	-0.446277
N49	N	-2.017588	0.039391	-0.521435
H50	H	-2.122525	0.040199	-0.562880
H51	H	-1.698638	-0.370584	0.406481
N52	N	-1.839578	-0.640199	-0.032322
N53	N	-1.841128	-0.776592	-0.053658
H54	H	-1.822949	-0.814890	-0.140925
H55	H	-1.894092	-0.372731	0.349720
N56	N	-1.475272	-0.637567	0.252340
N57	N	-1.394051	-0.547005	0.315480
H58	H	-1.312128	-0.583866	0.379036
N59	N	-1.839021	-0.362511	-0.033463
N60	N	-1.821070	-0.453509	-0.120198
H61	H	-1.802786	-0.417090	-0.208013
H62	H	-1.498641	-0.372555	0.235677
N63	N	-1.499033	0.127339	-0.399410
N64	N	-1.476690	0.146524	-0.513535
H65	H	-1.419314	0.236027	-0.539107
N66	N	-1.758798	0.273537	-0.427434
N67	N	-1.648239	0.267761	-0.489991
H68	H	-1.601210	0.362341	-0.518131
H69	H	-1.515762	-0.099836	-0.393667
N70	N	-1.554179	-0.359443	0.042194
N71	N	-1.439614	-0.283940	0.034948
H72	H	-1.413939	-0.245822	-0.050413
H73	H	-1.689276	-0.626186	0.403656
H74	H	-1.772799	-0.245625	-0.198149
N75	N	-1.506855	0.126742	-0.163411
N76	N	-1.548814	0.254315	-0.196084
H77	H	-1.493804	0.343786	-0.158539
N78	N	-1.748854	-0.273017	-0.422749
N79	N	-1.702267	-0.364483	-0.339415
H80	H	-1.650587	-0.457785	-0.364581
H81	H	-1.939955	-0.147300	-0.434638
H82	H	-1.948041	-0.146028	-0.217741
