data_functionalizedCrystal
_audit_creation_method	'MofGen! by Chris Wilmer'
_symmetry_space_group_name_H-M	'P1'
_symmetry_Int_Tables_number	1
_symmetry_cell_setting	triclinic
loop_
_symmetry_equiv_pos_as_xyz
  x,y,z
_cell_length_a	8.597187
_cell_length_b	12.811415
_cell_length_c	7.681481
_cell_angle_alpha	78.833607
_cell_angle_beta	88.166928
_cell_angle_gamma	83.958126
loop_
_atom_site_label
_atom_site_type_symbol
_atom_site_fract_x
_atom_site_fract_y
_atom_site_fract_z
O1	O	2.034533	0.189113	-0.485285
O2	O	1.584438	0.196647	-0.418207
O3	O	1.823253	0.038699	-0.429206
O4	O	1.795718	0.347061	-0.474285
O5	O	1.852647	0.019213	-0.137695
O6	O	1.613832	0.177161	-0.126695
O7	O	2.063928	0.169627	-0.193774
Zn8	Zn	1.843547	0.170300	-0.113951
Zn9	Zn	1.804818	0.195974	-0.498029
O10	O	1.825112	0.327575	-0.182774
C11	C	1.541566	0.185009	-0.263415
C12	C	1.370027	0.179350	-0.236488
C13	C	1.837308	-0.010590	-0.277040
C14	C	1.835378	-0.128424	-0.257937
C15	C	1.799673	-0.328591	-0.539876
C16	C	1.797859	-0.439307	-0.521935
C17	C	1.829923	-0.460572	-0.204113
C18	C	1.831738	-0.349857	-0.222054
C19	C	1.816615	-0.283870	-0.389942
C20	C	1.818440	-0.173153	-0.407883
C21	C	1.850493	-0.194420	-0.090061
C22	C	1.848679	-0.305135	-0.072119
C23	C	2.106799	0.181265	-0.348569
C24	C	2.278336	0.186925	-0.375507
C25	C	1.811056	0.376864	-0.334944
C26	C	1.812985	0.494699	-0.354059
N27	N	1.869990	0.152778	0.148171
N28	N	1.778388	0.213488	-0.760151
H29	H	1.331075	0.197741	-0.515126
F30	F	1.301103	0.165229	-0.054005
F31	F	1.864761	-0.375373	0.106550
F32	F	1.779824	-0.486898	-0.681516
H33	H	1.806131	-0.119428	-0.544586
H34	H	1.963513	0.090815	0.219086
F35	F	1.783599	-0.258362	-0.718554
F36	F	1.868538	-0.146818	0.069519
F37	F	1.845979	-0.530814	-0.025444
H38	H	1.684881	0.275454	0.168939
