data_functionalizedCrystal
_audit_creation_method	'MofGen! by Chris Wilmer'
_symmetry_space_group_name_H-M	'P1'
_symmetry_Int_Tables_number	1
_symmetry_cell_setting	triclinic
loop_
_symmetry_equiv_pos_as_xyz
  x,y,z
_cell_length_a	12.594516
_cell_length_b	12.594517
_cell_length_c	13.897441
_cell_angle_alpha	90.026693
_cell_angle_beta	89.973623
_cell_angle_gamma	89.989009
loop_
_atom_site_label
_atom_site_type_symbol
_atom_site_fract_x
_atom_site_fract_y
_atom_site_fract_z
Zn1	Zn	-0.423852	-1.627276	-0.545563
Zn2	Zn	-0.601863	-1.627164	-0.384276
Zn3	Zn	-0.423883	-1.449277	-0.384264
Zn4	Zn	-0.601773	-1.449262	-0.545512
O5	O	-0.512843	-1.538245	-0.464904
O6	O	-0.447490	-1.776207	-0.524194
O7	O	-0.578304	-1.603527	-0.249293
O8	O	-0.274933	-1.472942	-0.405677
O9	O	-0.578274	-1.776125	-0.405697
O10	O	-0.274910	-1.603717	-0.524183
O11	O	-0.447543	-1.472834	-0.249284
O12	O	-0.447456	-1.300330	-0.405628
O13	O	-0.578121	-1.472917	-0.680500
O14	O	-0.578151	-1.300319	-0.524096
O15	O	-0.447403	-1.603703	-0.680538
O16	O	-0.750797	-1.603512	-0.405648
O17	O	-0.750731	-1.472808	-0.524107
C18	C	-0.512798	-1.261704	-0.464856
C19	C	-0.512804	-1.143399	-0.464858
C20	C	-0.441616	-1.074121	-0.400541
C21	C	-0.538699	-1.003309	-0.376814
C22	C	-0.415751	-1.003411	-0.488587
C23	C	-0.609938	-1.074145	-0.441085
C24	C	-0.486925	-1.074253	-0.552899
C25	C	-0.584075	-1.003474	-0.529205
C26	C	-0.789384	-1.538175	-0.464894
C27	C	-0.907689	-1.538243	-0.464923
C28	C	-0.976945	-1.467146	-0.529307
C29	C	-1.047808	-1.441211	-0.441288
C30	C	-1.047625	-1.564275	-0.552957
C31	C	-0.976994	-1.512257	-0.376857
C32	C	-0.976804	-1.635365	-0.488585
C33	C	-1.047636	-1.609467	-0.400505
C34	C	-0.235222	-1.538344	-0.464934
C35	C	-0.116916	-1.538386	-0.464947
C36	C	-0.512749	-1.538321	-0.716497
C37	C	-0.512708	-1.538353	-0.823711
C38	C	-0.512867	-0.815866	-0.464935
C39	C	-0.512823	-0.934171	-0.464902
C40	C	-0.512636	-1.538382	-1.020006
C41	C	-0.512679	-1.538362	-0.910774
C42	C	-0.512859	-1.538231	-0.214289
C43	C	-0.512600	-1.538405	-0.107076
H44	H	-0.333678	-0.972284	-0.508605
H45	H	-1.078479	-1.669653	-0.346005
Cl46	Cl	-0.928614	-1.762044	-0.519519
H47	H	-0.464991	-1.105439	-0.627312
Cl48	Cl	-0.929298	-1.478207	-0.261894
H49	H	-1.079020	-1.359143	-0.421294
H50	H	-0.692047	-1.105087	-0.420951
Cl51	Cl	-0.677136	-0.955877	-0.613210
Cl52	Cl	-0.929017	-1.374159	-0.613250
Cl53	Cl	-1.095530	-1.598179	-0.667884
Cl54	Cl	-0.348772	-1.122019	-0.316478
Cl55	Cl	-0.572519	-0.955196	-0.261894
