data_functionalizedCrystal
_audit_creation_method	'MofGen! by Chris Wilmer'
_symmetry_space_group_name_H-M	'P1'
_symmetry_Int_Tables_number	1
_symmetry_cell_setting	triclinic
loop_
_symmetry_equiv_pos_as_xyz
  x,y,z
_cell_length_a	13.033293
_cell_length_b	12.759400
_cell_length_c	13.032268
_cell_angle_alpha	82.849813
_cell_angle_beta	90.920818
_cell_angle_gamma	97.184613
loop_
_atom_site_label
_atom_site_type_symbol
_atom_site_fract_x
_atom_site_fract_y
_atom_site_fract_z
Zn1	Zn	1.498478	-0.326864	0.781492
Zn2	Zn	1.520228	-0.477844	0.609524
Zn3	Zn	1.348338	-0.321316	0.587668
Zn4	Zn	1.326480	-0.521641	0.759565
O5	O	1.423381	-0.411916	0.684562
O6	O	1.645281	-0.330884	0.777004
O7	O	1.515676	-0.436429	0.462716
O8	O	1.368299	-0.175029	0.613409
O9	O	1.661260	-0.441809	0.650659
O10	O	1.478606	-0.179105	0.755811
O11	O	1.389389	-0.321428	0.446658
O12	O	1.201520	-0.363896	0.592147
O13	O	1.331046	-0.516455	0.906383
O14	O	1.185462	-0.511075	0.718439
O15	O	1.457412	-0.373352	0.922493
O16	O	1.494482	-0.630677	0.629397
O17	O	1.352136	-0.662855	0.739632
C18	C	1.156175	-0.441637	0.650543
C19	C	1.041860	-0.454381	0.636013
C20	C	0.982975	-0.405292	0.692145
C21	C	0.864825	-0.418462	0.677130
C22	C	1.423322	-0.684887	0.684533
C23	C	1.423387	-0.801660	0.684567
C24	C	1.497570	-0.839735	0.627250
C25	C	1.497629	-0.949456	0.627289
C26	C	1.349313	-0.983020	0.741965
C27	C	1.349260	-0.873301	0.741931
C28	C	1.571698	-0.768094	0.569886
C29	C	1.645886	-0.806167	0.512563
C30	C	1.645945	-0.915889	0.512603
C31	C	1.571816	-0.987537	0.569965
C32	C	1.691630	-0.382080	0.718715
C33	C	1.805942	-0.369366	0.733269
C34	C	1.389365	-0.450408	0.952795
C35	C	1.374869	-0.466811	1.067100
C36	C	1.423464	-0.137879	0.684618
C37	C	1.423500	-0.021101	0.684641
C38	C	1.457323	-0.373492	0.417380
C39	C	1.472018	-0.356771	0.303102
C40	C	1.430930	-0.403319	1.126032
C41	C	1.415950	-0.420271	1.244172
H42	H	1.004802	-0.506155	0.576838
H43	H	1.356853	-0.487177	1.281176
N44	N	1.296592	-0.555426	1.116120
H45	H	1.332757	-0.605815	1.166007
H46	H	1.261253	-0.595390	1.060505
N47	N	0.855009	-0.300766	0.811652
H48	H	0.932457	-0.301077	0.811268
H49	H	0.826989	-0.329840	0.882710
H50	H	1.706245	-0.747826	0.465867
N51	N	1.269353	-1.060294	0.803813
H52	H	1.222348	-1.019524	0.840118
H53	H	1.305157	-1.107947	0.856777
N54	N	1.725963	-0.956959	0.450790
H55	H	1.772911	-0.894923	0.414448
H56	H	1.690199	-1.000361	0.397858
H57	H	1.571877	-1.076879	0.570002
H58	H	0.827772	-0.470239	0.617951
H59	H	1.288854	-0.842301	0.788605
N60	N	1.509223	-0.314711	1.077026
H61	H	1.508839	-0.315173	0.999578
H62	H	1.580299	-0.325595	1.105110
H63	H	1.020033	-0.353510	0.751314
N64	N	1.550285	-0.268130	1.254099
H65	H	1.549893	-0.268580	1.176650
H66	H	1.621375	-0.278978	1.282168
H67	H	1.571655	-0.678751	0.569844
