data_functionalizedCrystal
_audit_creation_method	'MofGen! by Chris Wilmer'
_symmetry_space_group_name_H-M	'P1'
_symmetry_Int_Tables_number	1
_symmetry_cell_setting	triclinic
loop_
_symmetry_equiv_pos_as_xyz
  x,y,z
_cell_length_a	10.489741
_cell_length_b	19.188930
_cell_length_c	8.965430
_cell_angle_alpha	89.995304
_cell_angle_beta	89.998843
_cell_angle_gamma	83.841978
loop_
_atom_site_label
_atom_site_type_symbol
_atom_site_fract_x
_atom_site_fract_y
_atom_site_fract_z
O1	O	1.691851	0.098497	-0.123966
O2	O	2.191851	0.598497	0.376034
O3	O	1.320449	0.107743	-0.123991
O4	O	1.820449	0.607743	0.376009
O5	O	1.516868	0.001536	-0.123949
O6	O	2.016868	0.501536	0.376051
O7	O	1.495432	0.204704	-0.124008
O8	O	1.995432	0.704704	0.375992
O9	O	1.516851	0.001543	0.124130
O10	O	2.016851	0.501543	0.624130
O11	O	1.320432	0.107750	0.124088
O12	O	1.820432	0.607750	0.624088
O13	O	1.691834	0.098504	0.124113
O14	O	2.191834	0.598504	0.624113
Cu15	Cu	1.506132	0.103128	0.146752
Cu16	Cu	2.006132	0.603128	0.646752
Cu17	Cu	1.506151	0.103120	-0.146630
Cu18	Cu	2.006151	0.603120	0.353370
O19	O	1.495415	0.204711	0.124070
O20	O	1.995415	0.704711	0.624070
C21	C	1.272924	0.107048	0.000046
C22	C	1.772924	0.607048	0.500046
C23	C	1.131341	0.104959	0.000037
C24	C	1.631341	0.604959	0.500037
C25	C	1.064712	0.037383	0.000071
C26	C	1.564712	0.537383	0.500071
C27	C	0.971880	0.069302	-0.122251
C28	C	1.471880	0.569302	0.377749
C29	C	0.971897	0.069325	0.122336
C30	C	1.471897	0.569325	0.622336
C31	C	1.040374	0.136906	-0.122386
C32	C	1.540374	0.636906	0.377614
C33	C	1.040401	0.136919	0.122310
C34	C	1.540401	0.636919	0.622310
C35	C	0.947595	0.168887	-0.000041
C36	C	1.447595	0.668887	0.499959
C37	C	1.516165	-0.024476	0.000095
C38	C	2.016165	0.475524	0.500095
C39	C	1.514081	-0.101994	0.000108
C40	C	2.014081	0.398006	0.500108
C41	C	1.629334	-0.146146	0.000123
C42	C	2.129334	0.353854	0.500123
C43	C	1.627376	-0.218983	0.000099
C44	C	2.127376	0.281017	0.500099
C45	C	1.510159	-0.247665	0.000090
C46	C	2.010159	0.252335	0.500090
C47	C	1.394892	-0.203503	0.000066
C48	C	1.894892	0.296497	0.500066
C49	C	1.396853	-0.130668	0.000075
C50	C	1.896853	0.369332	0.500075
N51	N	1.420556	-0.356268	0.084510
N52	N	1.920556	0.143732	0.584510
N53	N	1.418701	-0.425459	0.084504
N54	N	1.918701	0.074541	0.584504
C55	C	1.504244	-0.467113	0.000059
C56	C	2.004244	0.032887	0.500059
N57	N	1.591732	-0.436964	-0.084362
N58	N	2.091732	0.063036	0.415638
N59	N	1.593591	-0.367767	-0.084350
N60	N	2.093591	0.132233	0.415650
C61	C	1.508020	-0.326642	0.000079
C62	C	2.008020	0.173358	0.500079
C63	C	1.617382	-0.590244	0.000046
C64	C	2.117382	-0.090244	0.500046
C65	C	1.615419	-0.663081	0.000012
C66	C	2.115419	-0.163081	0.500012
C67	C	1.382932	-0.647600	-0.000005
C68	C	1.882932	-0.147600	0.499995
C69	C	1.384898	-0.574764	0.000013
C70	C	1.884898	-0.074764	0.500013
C71	C	1.502126	-0.546090	0.000046
C72	C	2.002126	-0.046090	0.500046
C73	C	1.739359	0.099199	0.000073
C74	C	2.239359	0.599199	0.500073
C75	C	1.880941	0.101288	0.000071
C76	C	2.380941	0.601288	0.500071
C77	C	1.496118	0.230723	0.000023
C78	C	1.996118	0.730723	0.500023
C79	C	1.498202	0.308242	0.000001
C80	C	1.998202	0.808242	0.500001
N81	N	1.506127	0.103133	0.353101
N82	N	2.006127	0.603133	0.853101
N83	N	1.506166	0.103109	-0.352979
N84	N	2.006166	0.603109	0.147021
C85	C	1.415262	0.152234	0.450387
C86	C	1.915262	0.652234	0.950387
C87	C	1.530443	0.166361	0.549804
C88	C	2.030443	0.666361	1.049804
C89	C	1.390995	0.089012	0.549812
C90	C	1.890995	0.589012	1.049812
C91	C	1.621366	0.117292	0.450329
C92	C	2.121366	0.617292	0.950329
C93	C	1.481842	0.039916	0.450328
C94	C	1.981842	0.539916	0.950328
C95	C	1.597106	0.054016	0.549700
C96	C	2.097106	0.554016	1.049700
H97	H	0.941552	0.040722	0.225750
H98	H	1.441552	0.540722	0.725750
F99	F	1.754099	-0.115634	0.000125
F100	F	2.254099	0.384366	0.500125
F101	F	0.932188	0.031927	-0.257405
F102	F	1.432188	0.531927	0.242595
F103	F	1.750048	-0.265981	0.000112
F104	F	2.250048	0.234019	0.500112
F105	F	1.131234	-0.035239	-0.000063
F106	F	1.631234	0.464761	0.499937
F107	F	1.697671	-0.000273	0.606346
F108	F	2.197671	0.499727	1.106346
H109	H	1.287492	-0.670952	-0.000019
H110	H	1.787492	-0.170952	0.499981
F111	F	1.454913	-0.029927	0.393167
F112	F	1.954913	0.470073	0.893167
H113	H	1.070570	0.165474	-0.225917
H114	H	1.570570	0.665474	0.274083
H115	H	1.291047	-0.538814	0.000010
H116	H	1.791047	-0.038814	0.500010
H117	H	1.293614	0.077080	0.593514
H118	H	1.793614	0.577080	1.093514
F119	F	1.748680	0.132971	0.393458
F120	F	2.248680	0.632971	0.893458
H121	H	1.709275	-0.699030	0.000016
H122	H	2.209275	-0.199030	0.500016
H123	H	1.070801	0.165492	0.225715
H124	H	1.570801	0.665492	0.725715
H125	H	0.896927	0.224498	-0.000124
H126	H	1.396927	0.724498	0.499876
H127	H	1.299453	-0.226861	0.000056
H128	H	1.799453	0.273139	0.500056
H129	H	1.302998	-0.094719	0.000064
H130	H	1.802998	0.405281	0.500064
H131	H	1.712836	-0.566896	0.000065
H132	H	2.212836	-0.066896	0.500065
H133	H	1.551010	0.219812	0.593498
H134	H	2.051010	0.719812	1.093498
H135	H	1.338490	0.193796	0.406782
H136	H	1.838490	0.693796	0.906782
