data_functionalizedCrystal
_audit_creation_method	'MofGen! by Chris Wilmer'
_symmetry_space_group_name_H-M	'P1'
_symmetry_Int_Tables_number	1
_symmetry_cell_setting	triclinic
loop_
_symmetry_equiv_pos_as_xyz
  x,y,z
_cell_length_a	29.839131
_cell_length_b	16.120530
_cell_length_c	16.120297
_cell_angle_alpha	89.871860
_cell_angle_beta	92.867727
_cell_angle_gamma	92.863258
loop_
_atom_site_label
_atom_site_type_symbol
_atom_site_fract_x
_atom_site_fract_y
_atom_site_fract_z
Zn1	Zn	-0.227600	-1.247310	-0.534529
Zn2	Zn	-0.299116	-1.254220	-0.395460
Zn3	Zn	-0.220008	-1.115305	-0.388448
Zn4	Zn	-0.298702	-1.108176	-0.527429
O5	O	-0.261356	-1.181253	-0.461466
O6	O	-0.240437	-1.364591	-0.521987
O7	O	-0.285618	-1.241667	-0.278165
O8	O	-0.158152	-1.132907	-0.407863
O9	O	-0.292979	-1.369668	-0.419813
O10	O	-0.163729	-1.229891	-0.515187
O11	O	-0.227498	-1.139607	-0.273013
O12	O	-0.227097	-0.997995	-0.400978
O13	O	-0.292274	-1.120758	-0.644736
O14	O	-0.284913	-0.992758	-0.503087
O15	O	-0.240035	-1.222979	-0.649952
O16	O	-0.361925	-1.234755	-0.412929
O17	O	-0.361621	-1.127458	-0.509886
C18	C	-0.255137	-0.965204	-0.450502
C19	C	-0.252487	-0.872777	-0.445831
C20	C	-0.378074	-1.181105	-0.461418
C21	C	-0.428009	-1.181116	-0.461428
C22	C	-0.266955	-1.170302	-0.678360
C23	C	-0.269341	-1.165636	-0.770787
C24	C	-0.737807	-1.237215	-0.411063
C25	C	-0.925484	-1.237316	-0.411101
O26	O	-0.949877	-1.284896	-0.368241
N27	N	-0.948805	-1.181422	-0.461538
C28	C	-0.925204	-1.125502	-0.511973
O29	O	-0.949347	-1.077969	-0.554880
C30	C	-0.737528	-1.125406	-0.511940
C31	C	-0.714210	-1.181298	-0.461493
C32	C	-0.714488	-1.293104	-0.360622
C33	C	-0.667572	-1.293075	-0.360609
C34	C	-0.643974	-1.237158	-0.411039
C35	C	-0.667293	-1.181269	-0.461481
C36	C	-0.713929	-1.069491	-0.562379
C37	C	-0.667007	-1.069473	-0.562367
C38	C	-0.643688	-1.125365	-0.511921
C39	C	-0.596779	-1.125323	-0.511898
N40	N	-0.573458	-1.181217	-0.461461
C41	C	-0.597055	-1.237135	-0.411031
C42	C	-1.023737	-1.125556	-0.511986
C43	C	-1.070655	-1.125579	-0.511994
C44	C	-1.070932	-1.237394	-0.411122
C45	C	-1.024012	-1.237366	-0.411111
C46	C	-1.000416	-1.181450	-0.461549
C47	C	-0.498527	-1.237069	-0.411009
C48	C	-0.451606	-1.237033	-0.410999
C49	C	-0.451334	-1.125221	-0.511873
C50	C	-0.498251	-1.125254	-0.511880
C51	C	-0.521846	-1.181185	-0.461446
O52	O	-0.572358	-1.077774	-0.554742
O53	O	-0.572905	-1.284673	-0.368145
C54	C	-0.784724	-1.237244	-0.411076
C55	C	-0.808043	-1.181356	-0.461517
C56	C	-0.784445	-1.125439	-0.511947
C57	C	-0.854961	-1.181379	-0.461525
C58	C	-0.878559	-1.237296	-0.411095
C59	C	-0.855238	-1.293190	-0.360658
C60	C	-0.808322	-1.293161	-0.360646
C61	C	-0.807766	-1.069544	-0.562384
C62	C	-0.854683	-1.069577	-0.562391
C63	C	-0.878280	-1.125494	-0.511962
C64	C	-0.144185	-1.181423	-0.461535
C65	C	-0.094253	-1.181496	-0.461564
C66	C	-0.267601	-1.398145	-0.472474
C67	C	-0.270262	-1.490571	-0.477165
C68	C	-0.247640	-0.703550	-0.437311
C69	C	-0.275108	-0.659793	-0.485683
C70	C	-0.272411	-0.565629	-0.480942
C71	C	-0.250336	-0.797722	-0.442050
C72	C	-0.273687	-1.157086	-0.940011
C73	C	-0.248896	-1.205584	-0.983782
C74	C	-0.251314	-1.200826	-1.077944
C75	C	-0.271269	-1.161842	-0.845840
C76	C	-0.255748	-1.192208	-0.245419
C77	C	-0.253240	-1.197036	-0.153001
H78	H	-0.517733	-1.282615	-0.369942
H79	H	-1.089637	-1.080058	-0.553064
O80	O	-0.217133	-0.664012	-0.383634
C81	C	-0.157607	-0.678289	-0.278722
C82	C	-0.192125	-0.723183	-0.339489
H83	H	-0.137386	-0.726110	-0.243002
H84	H	-0.133964	-0.635753	-0.314930
H85	H	-0.175943	-0.639761	-0.233205
H86	H	-0.173827	-0.761755	-0.385020
H87	H	-0.215767	-0.765670	-0.303226
O88	O	-0.644995	-1.347457	-0.311592
C89	C	-0.650237	-1.458342	-0.211519
C90	C	-0.675858	-1.396804	-0.267004
H91	H	-0.675178	-1.498243	-0.175442
H92	H	-0.630491	-1.499910	-0.251899
H93	H	-0.626068	-1.422383	-0.166095
H94	H	-0.700050	-1.432695	-0.312436
H95	H	-0.695575	-1.355236	-0.226573
O96	O	-0.305569	-0.699595	-0.539264
C97	C	-0.336033	-0.831100	-0.592955
C98	C	-0.301524	-0.786127	-0.532230
H99	H	-0.332768	-0.901068	-0.587301
H100	H	-0.371398	-0.814839	-0.577385
H101	H	-0.329460	-0.810676	-0.659184
H102	H	-0.308055	-0.806526	-0.465980
H103	H	-0.266170	-0.802389	-0.547871
O104	O	-0.221443	-1.259351	-0.943999
C105	C	-0.193931	-1.313099	-0.812506
C106	C	-0.225051	-1.252194	-0.857460
H107	H	-0.196830	-1.307320	-0.742531
H108	H	-0.204172	-1.379322	-0.832865
H109	H	-0.157724	-1.297701	-0.828850
H110	H	-0.261266	-1.267515	-0.841137
H111	H	-0.214772	-1.185988	-0.837098
H112	H	-0.296725	-1.111997	-0.973252
H113	H	-0.432622	-1.282547	-0.369916
H114	H	-1.005029	-1.282879	-0.370033
O115	O	-0.737420	-1.347554	-0.311781
C116	C	-0.793244	-1.460478	-0.306454
C117	C	-0.767312	-1.398843	-0.361856
H118	H	-0.817424	-1.501949	-0.346915
H119	H	-0.768516	-1.500468	-0.270460
H120	H	-0.813011	-1.424598	-0.260956
H121	H	-0.747543	-1.434656	-0.407400
H122	H	-0.792062	-1.358853	-0.397791
H123	H	-1.004527	-1.080020	-0.553060
O124	O	-1.093873	-1.291843	-0.362288
C125	C	-1.149715	-1.404741	-0.357017
C126	C	-1.123764	-1.343108	-0.412390
H127	H	-1.173895	-1.446193	-0.397500
H128	H	-1.125001	-1.444751	-0.321016
H129	H	-1.169486	-1.368860	-0.311526
H130	H	-1.103992	-1.378922	-0.457928
H131	H	-1.148501	-1.303098	-0.448333
O132	O	-0.736505	-1.015168	-0.611464
C133	C	-0.731257	-0.904242	-0.711490
C134	C	-0.705636	-0.965733	-0.655951
H135	H	-0.706310	-0.864246	-0.747460
H136	H	-0.755400	-0.940157	-0.756998
H137	H	-0.751033	-0.862760	-0.671077
H138	H	-0.685834	-1.007231	-0.696298
H139	H	-0.681520	-0.929767	-0.610438
H140	H	-0.647797	-1.023940	-0.603443
O141	O	-0.520837	-1.070929	-0.560957
C142	C	-0.515603	-0.959995	-0.660978
C143	C	-0.489973	-1.021479	-0.605443
H144	H	-0.490661	-0.919987	-0.696946
H145	H	-0.539742	-0.995916	-0.706487
H146	H	-0.535384	-0.918524	-0.620561
H147	H	-0.470167	-1.062964	-0.645793
H148	H	-0.465861	-0.985506	-0.559929
O149	O	-0.428390	-1.071025	-0.560955
C150	C	-0.377946	-1.054085	-0.672590
C151	C	-0.403916	-1.115546	-0.617069
H152	H	-0.358145	-1.090056	-0.717959
H153	H	-0.402649	-1.014149	-0.708715
H154	H	-0.353793	-1.012539	-0.632151
H155	H	-0.428069	-1.157145	-0.657446
H156	H	-0.379187	-1.155424	-0.580938
O157	O	-0.878237	-1.347498	-0.311769
C158	C	-0.950649	-1.397093	-0.267112
C159	C	-0.924655	-1.335547	-0.322510
H160	H	-0.988182	-1.387440	-0.275763
H161	H	-0.943718	-1.463395	-0.285200
H162	H	-0.939283	-1.385968	-0.199306
H163	H	-0.936006	-1.346595	-0.390331
H164	H	-0.931587	-1.269266	-0.304351
O165	O	-0.785719	-1.347425	-0.311528
C166	C	-0.768873	-1.395011	-0.172158
C167	C	-0.794498	-1.333519	-0.227690
H168	H	-0.775955	-1.383779	-0.104363
H169	H	-0.780375	-1.461330	-0.190156
H170	H	-0.731288	-1.385410	-0.180848
H171	H	-0.832088	-1.343045	-0.219030
H172	H	-0.782959	-1.267223	-0.209680
H173	H	-0.873665	-1.024056	-0.603470
H174	H	-0.788557	-1.024011	-0.603451
