data_functionalizedCrystal
_audit_creation_method	'MofGen! by Chris Wilmer'
_symmetry_space_group_name_H-M	'P1'
_symmetry_Int_Tables_number	1
_symmetry_cell_setting	triclinic
loop_
_symmetry_equiv_pos_as_xyz
  x,y,z
_cell_length_a	12.759401
_cell_length_b	16.625545
_cell_length_c	12.759393
_cell_angle_alpha	89.966096
_cell_angle_beta	89.981504
_cell_angle_gamma	90.025719
loop_
_atom_site_label
_atom_site_type_symbol
_atom_site_fract_x
_atom_site_fract_y
_atom_site_fract_z
Zn1	Zn	1.606176	-0.320951	-0.593964
Zn2	Zn	1.606037	-0.455807	-0.418277
Zn3	Zn	1.430478	-0.320993	-0.418304
Zn4	Zn	1.430433	-0.455745	-0.593919
O5	O	1.518281	-0.388374	-0.506116
O6	O	1.753179	-0.338848	-0.570667
O7	O	1.582709	-0.437968	-0.271260
O8	O	1.453862	-0.208155	-0.441636
O9	O	1.753077	-0.437927	-0.441590
O10	O	1.582946	-0.208124	-0.570693
O11	O	1.453727	-0.338920	-0.271279
O12	O	1.283451	-0.338860	-0.441591
O13	O	1.453786	-0.437821	-0.740946
O14	O	1.283418	-0.437862	-0.570615
O15	O	1.582903	-0.338788	-0.740979
O16	O	1.582666	-0.568632	-0.441546
O17	O	1.453651	-0.568586	-0.570589
C18	C	1.245314	-0.388359	-0.506102
C19	C	1.128537	-0.388372	-0.506120
C20	C	1.518167	-0.597865	-0.506083
C21	C	1.518214	-0.687486	-0.506104
C22	C	1.073686	-0.440005	-0.573192
C23	C	0.963962	-0.440015	-0.573203
C24	C	0.963950	-0.336758	-0.439063
C25	C	1.073672	-0.336744	-0.439058
C26	C	1.073691	-0.499623	-0.650634
C27	C	0.963967	-0.499633	-0.650645
C28	C	1.518255	-0.760268	-0.506125
C29	C	1.518316	-0.851577	-0.506148
C30	C	1.518371	-0.924353	-0.506161
C31	C	1.518431	-1.015668	-0.506183
C32	C	1.792314	-0.388390	-0.506131
C33	C	1.909091	-0.388396	-0.506137
C34	C	1.518355	-0.388293	-0.780149
C35	C	1.518386	-0.388258	-0.896926
C36	C	1.518424	-0.178065	-0.506172
C37	C	1.518485	-0.088444	-0.506196
C38	C	1.585627	-0.336687	-0.951807
C39	C	1.585652	-0.336657	-1.061531
C40	C	1.451192	-0.439778	-1.061484
C41	C	1.451163	-0.439803	-0.951761
C42	C	1.663259	-0.277153	-0.951836
C43	C	1.663284	-0.277124	-1.061560
C44	C	1.518268	-0.388397	-0.233149
C45	C	1.518441	-0.388204	-0.116372
H46	H	0.919266	-0.294723	-0.384463
O47	O	1.126793	-0.286554	-0.373816
C48	C	1.054837	-0.240976	-0.314650
H49	H	0.976611	-0.274010	-0.310929
H50	H	1.086513	-0.232282	-0.231894
H51	H	1.043200	-0.179781	-0.353281
O52	O	1.637177	-0.202724	-0.916206
C53	C	1.545493	-0.207918	-0.854857
H54	H	1.536580	-0.271807	-0.823600
H55	H	1.551241	-0.164142	-0.786362
H56	H	1.474523	-0.192006	-0.904998
H57	H	0.934156	-0.562065	-0.628710
H58	H	1.107691	-0.558911	-0.621346
H59	H	1.396460	-0.481742	-1.106144
H60	H	0.929975	-0.477343	-0.727998
O61	O	1.760268	-0.297168	-1.097227
C62	C	1.753478	-0.367495	-1.158552
H63	H	1.670241	-0.374284	-1.189769
H64	H	1.810552	-0.363071	-1.227075
H65	H	1.774151	-0.421998	-1.108406
H66	H	1.103503	-0.482970	-0.732041
H67	H	1.396405	-0.481794	-0.907081
H68	H	1.740525	-0.299539	-0.917799
O69	O	1.628432	-0.206342	-1.102063
C70	C	1.524990	-0.192198	-1.067851
H71	H	1.509954	-0.227168	-0.992449
H72	H	1.513810	-0.125186	-1.052647
H73	H	1.467560	-0.212800	-1.130791
