data_functionalizedCrystal
_audit_creation_method	'MofGen! by Chris Wilmer'
_symmetry_space_group_name_H-M	'P1'
_symmetry_Int_Tables_number	1
_symmetry_cell_setting	triclinic
loop_
_symmetry_equiv_pos_as_xyz
  x,y,z
_cell_length_a	12.645331
_cell_length_b	21.395361
_cell_length_c	21.395355
_cell_angle_alpha	89.978489
_cell_angle_beta	90.024737
_cell_angle_gamma	89.970313
loop_
_atom_site_label
_atom_site_type_symbol
_atom_site_fract_x
_atom_site_fract_y
_atom_site_fract_z
Zn1	Zn	1.620657	0.249528	0.354251
Zn2	Zn	2.120657	0.749528	0.854251
Zn3	Zn	1.620492	0.354288	0.249468
Zn4	Zn	2.120492	0.854288	0.749468
Zn5	Zn	1.443365	0.249526	0.249488
Zn6	Zn	1.943365	0.749526	0.749488
Zn7	Zn	1.443313	0.354270	0.354208
Zn8	Zn	1.943313	0.854270	0.854208
O9	O	1.531957	0.301903	0.301854
O10	O	2.031957	0.801903	0.801854
O11	O	1.768982	0.263433	0.340362
O12	O	2.268982	0.763433	0.840362
O13	O	1.596948	0.340398	0.161793
O14	O	2.096948	0.840398	0.661793
O15	O	1.466974	0.161849	0.263411
O16	O	1.966974	0.661849	0.763411
O17	O	1.768861	0.340400	0.263378
O18	O	2.268861	0.840400	0.763378
O19	O	1.597230	0.161850	0.340380
O20	O	2.097230	0.661850	0.840380
O21	O	1.466814	0.263430	0.161807
O22	O	1.966814	0.763430	0.661807
O23	O	1.295011	0.263413	0.263369
O24	O	1.795011	0.763413	0.763369
O25	O	1.466885	0.340369	0.441892
O26	O	1.966885	0.840369	0.941892
O27	O	1.294973	0.340367	0.340307
O28	O	1.794973	0.840367	0.840307
O29	O	1.597179	0.263416	0.441924
O30	O	2.097179	0.763416	0.941924
O31	O	1.596898	0.441964	0.263336
O32	O	2.096898	0.941964	0.763336
O33	O	1.466725	0.441950	0.340288
O34	O	1.966725	0.941950	0.840288
C35	C	1.256527	0.301888	0.301836
C36	C	1.756527	0.801888	0.801836
C37	C	1.138697	0.301897	0.301843
C38	C	1.638697	0.801897	0.801843
C39	C	1.531817	0.464691	0.301819
C40	C	2.031817	0.964691	0.801819
C41	C	1.531854	0.534332	0.301825
C42	C	2.031854	1.034332	0.801825
C43	C	1.532045	0.301890	0.465277
C44	C	2.032045	0.801890	0.965277
C45	C	1.532082	0.301885	0.534919
C46	C	2.032082	0.801885	1.034919
C47	C	0.971122	0.253262	0.253709
C48	C	1.471122	0.753262	0.753709
C49	C	1.093681	0.253388	0.253496
C50	C	1.593681	0.753388	0.753496
C51	C	1.094150	0.367896	0.283797
C52	C	1.594150	0.867896	0.783797
C53	C	0.971552	0.367630	0.283469
C54	C	1.471552	0.867630	0.783469
C55	C	0.971558	0.285161	0.368209
C56	C	1.471558	0.785161	0.868209
C57	C	1.094164	0.283687	0.367841
C58	C	1.594164	0.783687	0.867841
C59	C	1.808462	0.301919	0.301873
C60	C	2.308462	0.801919	0.801873
C61	C	1.926292	0.301925	0.301880
C62	C	2.426292	0.801925	0.801880
C63	C	1.532126	0.138480	0.301903
C64	C	2.032126	0.638480	0.801903
C65	C	1.532198	0.068839	0.301923
C66	C	2.032198	0.568839	0.801923
C67	C	1.599695	0.567031	0.261797
C68	C	2.099695	1.067031	0.761797
C69	C	1.599744	0.632467	0.261811
C70	C	2.099744	1.132467	0.761811
C71	C	1.531934	0.665200	0.301847
C72	C	2.031934	1.165200	0.801847
C73	C	1.464088	0.632493	0.341882
C74	C	1.964088	1.132493	0.841882
C75	C	1.464048	0.567059	0.341872
C76	C	1.964048	1.067059	0.841872
C77	C	1.436482	0.768914	0.306756
C78	C	1.936482	1.268914	0.806756
C79	C	1.436520	0.834347	0.306763
C80	C	1.936520	1.334347	0.806763
C81	C	1.532057	0.867021	0.301883
C82	C	2.032057	1.367021	0.801883
C83	C	1.627559	0.834254	0.296985
C84	C	2.127559	1.334254	0.796985
C85	C	1.627519	0.768820	0.296974
C86	C	2.127519	1.268820	0.796974
C87	C	1.531970	0.736153	0.301863
C88	C	2.031970	1.236153	0.801863
C89	C	1.599957	0.970673	0.261869
C90	C	2.099957	1.470673	0.761869
C91	C	1.600008	1.036109	0.261887
C92	C	2.100008	1.536109	0.761887
C93	C	1.464343	1.036135	0.341955
C94	C	1.964343	1.536135	0.841955
C95	C	1.464301	0.970699	0.341940
C96	C	1.964301	1.470699	0.841940
C97	C	1.532107	0.937972	0.301893
C98	C	2.032107	1.437972	0.801893
C99	C	1.531930	0.301871	0.139066
C100	C	2.031930	0.801871	0.639066
C101	C	1.532098	0.301699	0.069426
C102	C	2.032098	0.801699	0.569426
C103	C	1.599923	0.261814	0.567649
C104	C	2.099923	0.761814	1.067649
C105	C	1.599922	0.261787	0.633085
C106	C	2.099922	0.761787	1.133085
C107	C	1.532090	0.301842	0.665787
C108	C	2.032090	0.801842	1.165787
C109	C	1.464236	0.341916	0.633049
C110	C	1.964236	0.841916	1.133049
C111	C	1.464232	0.341938	0.567614
C112	C	1.964232	0.841938	1.067614
C113	C	1.523671	0.358258	0.769450
C114	C	2.023671	0.858258	1.269450
C115	C	1.523683	0.358237	0.834883
C116	C	2.023683	0.858237	1.334883
C117	C	1.532097	0.301776	0.867608
C118	C	2.032097	0.801776	1.367608
C119	C	1.540522	0.245334	0.834892
C120	C	2.040522	0.745334	1.334892
C121	C	1.540518	0.245355	0.769458
C122	C	2.040518	0.745355	1.269458
C123	C	1.532087	0.301823	0.736739
C124	C	2.032087	0.801823	1.236739
C125	C	1.599940	0.261672	0.971291
C126	C	2.099940	0.761672	1.471291
C127	C	1.599931	0.261644	1.036728
C128	C	2.099931	0.761644	1.536728
C129	C	1.464251	0.341780	1.036690
C130	C	1.964251	0.841780	1.536690
C131	C	1.464255	0.341802	0.971255
C132	C	1.964255	0.841802	1.471255
C133	C	1.532105	0.301749	0.938559
C134	C	2.032105	0.801749	1.438559
H135	H	1.123802	0.204447	0.264809
H136	H	1.623802	0.704447	0.764809
F137	F	1.729155	0.733948	0.291764
F138	F	2.229155	1.233948	0.791764
F139	F	1.672153	0.219000	1.071562
F140	F	2.172153	0.719000	1.571562
F141	F	1.671872	0.532204	0.219183
F142	F	2.171872	1.032204	0.719183
F143	F	1.671952	0.667275	0.219206
F144	F	2.171952	1.167275	0.719206
H145	H	1.655164	0.229153	0.659739
H146	H	2.155164	0.729153	1.159739
H147	H	1.655172	0.944025	0.229262
H148	H	2.155172	1.444025	0.729262
H149	H	1.409054	0.944074	0.374531
H150	H	1.909054	1.444074	0.874531
F151	F	1.392042	0.384544	0.667853
F152	F	1.892042	0.884544	1.167853
H153	H	0.941895	0.405114	0.317025
H154	H	1.441895	0.905114	0.817025
F155	F	1.392051	0.384405	1.071490
F156	F	1.892051	0.884405	1.571490
F157	F	1.392023	0.384589	0.532779
F158	F	1.892023	0.884589	1.032779
H159	H	1.124812	0.316546	0.405653
H160	H	1.624812	0.816546	0.905653
H161	H	1.123307	0.405122	0.317782
H162	H	1.623307	0.905122	0.817782
F163	F	0.933666	0.331488	0.415124
F164	F	1.433666	0.831488	0.915124
H165	H	1.705354	0.860855	0.293012
H166	H	2.205354	1.360855	0.793012
F167	F	1.672225	1.070910	0.219286
F168	F	2.172225	1.570910	0.719286
H169	H	1.124797	0.382359	0.235828
H170	H	1.624797	0.882359	0.735828
H171	H	1.409134	1.062786	0.374555
H172	H	1.909134	1.562786	0.874555
H173	H	1.547375	0.199397	0.742823
H174	H	2.047375	0.699397	1.242823
F175	F	0.932637	0.189098	0.268334
F176	F	1.432637	0.689098	0.768334
H177	H	1.547375	0.199358	0.861536
H178	H	2.047375	0.699358	1.361536
F179	F	0.931203	0.223355	0.389657
F180	F	1.431203	0.723355	0.889657
F181	F	1.672147	0.219043	0.936492
F182	F	2.172147	0.719043	1.436492
H183	H	1.358757	0.861022	0.310745
H184	H	1.858757	1.361022	0.810745
F185	F	1.132244	0.220209	0.385633
F186	F	1.632244	0.720209	0.885633
H187	H	1.408803	0.540435	0.374468
H188	H	1.908803	1.040435	0.874468
H189	H	0.940267	0.264218	0.204846
H190	H	1.440267	0.764218	0.704846
H191	H	1.655171	0.229199	0.541032
H192	H	2.155171	0.729199	1.041032
H193	H	1.122952	0.264467	0.204344
H194	H	1.622952	0.764467	0.704344
H195	H	1.409017	0.374436	0.944605
H196	H	1.909017	0.874436	1.444605
H197	H	1.516829	0.404196	0.861515
H198	H	2.016829	0.904196	1.361515
F199	F	0.934096	0.386213	0.220089
F200	F	1.434096	0.886213	0.720089
F201	F	1.514740	0.418357	0.734627
F202	F	2.014740	0.918357	1.234627
F203	F	1.334792	0.734147	0.311951
F204	F	1.834792	1.234147	0.811951
H205	H	1.408878	0.659149	0.374480
H206	H	1.908878	1.159149	0.874480
