data_functionalizedCrystal
_audit_creation_method	'MofGen! by Chris Wilmer'
_symmetry_space_group_name_H-M	'P1'
_symmetry_Int_Tables_number	1
_symmetry_cell_setting	triclinic
loop_
_symmetry_equiv_pos_as_xyz
  x,y,z
_cell_length_a	18.215407
_cell_length_b	19.077068
_cell_length_c	19.077314
_cell_angle_alpha	90.121627
_cell_angle_beta	87.718516
_cell_angle_gamma	92.327501
loop_
_atom_site_label
_atom_site_type_symbol
_atom_site_fract_x
_atom_site_fract_y
_atom_site_fract_z
Zn1	Zn	1.096804	-0.263804	0.408541
Zn2	Zn	1.430137	0.069530	0.741874
Zn3	Zn	1.763471	0.402863	1.075208
Zn4	Zn	1.096313	-0.386032	0.295748
Zn5	Zn	1.429647	-0.052699	0.629081
Zn6	Zn	1.762980	0.280634	0.962414
Zn7	Zn	0.978476	-0.268542	0.291048
Zn8	Zn	1.311810	0.064791	0.624381
Zn9	Zn	1.645143	0.398124	0.957714
Zn10	Zn	0.968566	-0.381279	0.413214
Zn11	Zn	1.301899	-0.047945	0.746547
Zn12	Zn	1.635232	0.285388	1.079880
O13	O	1.035040	-0.324914	0.352138
O14	O	1.368373	0.008419	0.685471
O15	O	1.701707	0.341753	1.018804
O16	O	1.199723	-0.280024	0.393590
O17	O	1.533056	0.053310	0.726923
O18	O	1.866389	0.386643	1.060257
O19	O	1.084624	-0.374420	0.196793
O20	O	1.417958	-0.041086	0.530126
O21	O	1.751291	0.292247	0.863460
O22	O	0.998526	-0.169580	0.302711
O23	O	1.331859	0.163753	0.636044
O24	O	1.665192	0.497087	0.969378
O25	O	1.199362	-0.369825	0.310721
O26	O	1.532695	-0.036491	0.644055
O27	O	1.866029	0.296842	0.977388
O28	O	1.085461	-0.166098	0.389033
O29	O	1.418794	0.167235	0.722366
O30	O	1.752127	0.500568	1.055699
O31	O	0.998050	-0.288100	0.193340
O32	O	1.331383	0.045233	0.526673
O33	O	1.664717	0.378567	0.860007
O34	O	0.874178	-0.283491	0.307242
O35	O	1.207511	0.049843	0.640575
O36	O	1.540845	0.383176	0.973909
O37	O	0.981634	-0.361723	0.510925
O38	O	1.314968	-0.028389	0.844259
O39	O	1.648301	0.304944	1.177592
O40	O	0.866897	-0.366318	0.396997
O41	O	1.200230	-0.032984	0.730330
O42	O	1.533563	0.300349	1.063664
O43	O	1.075851	-0.275414	0.507492
O44	O	1.409184	0.057919	0.840825
O45	O	1.742517	0.391252	1.174159
O46	O	1.075014	-0.483735	0.315252
O47	O	1.408348	-0.150402	0.648586
O48	O	1.741681	0.182931	0.981919
O49	O	0.981159	-0.480243	0.401554
O50	O	1.314492	-0.146910	0.734888
O51	O	1.647825	0.186424	1.068221
C52	C	0.843835	-0.324903	0.352117
C53	C	1.177168	0.008430	0.685450
C54	C	1.510502	0.341764	1.018784
C55	C	0.762035	-0.324914	0.352125
C56	C	1.095369	0.008419	0.685459
C57	C	1.428702	0.341752	1.018792
C58	C	0.570068	-0.368115	0.398807
C59	C	0.903402	-0.034782	0.732141
C60	C	1.236735	0.298551	1.065474
C61	C	0.493209	-0.368117	0.398816
C62	C	0.826543	-0.034784	0.732149
C63	C	1.159876	0.298550	1.065483
C64	C	0.500762	-0.281725	0.305484
C65	C	0.834096	0.051608	0.638817
C66	C	1.167429	0.384942	0.972150
C67	C	0.577620	-0.281720	0.305479
C68	C	0.910953	0.051613	0.638812
C69	C	1.244287	0.384947	0.972146
C70	C	0.612271	-0.324919	0.352140
C71	C	0.945604	0.008414	0.685473
C72	C	1.278938	0.341747	1.018806
C73	C	0.458554	-0.324926	0.352153
C74	C	0.791887	0.008407	0.685487
C75	C	1.125221	0.341741	1.018820
C76	C	0.375220	-0.324928	0.352163
C77	C	0.708553	0.008406	0.685496
C78	C	1.041887	0.341739	1.018829
C79	C	0.695610	-0.324917	0.352132
C80	C	1.028944	0.008417	0.685465
C81	C	1.362277	0.341750	1.018798
C82	C	1.026977	-0.507485	0.359436
C83	C	1.360311	-0.174152	0.692769
C84	C	1.693644	0.159181	1.026102
C85	C	1.023594	-0.585589	0.362581
C86	C	1.356928	-0.252256	0.695915
C87	C	1.690261	0.081078	1.029248
C88	C	1.070906	-0.624076	0.319164
C89	C	1.404239	-0.290743	0.652497
C90	C	1.737573	0.042591	0.985830
C91	C	1.067728	-0.697462	0.322127
C92	C	1.401062	-0.364129	0.655460
C93	C	1.734395	-0.030796	0.988793
C94	C	1.017235	-0.732361	0.368504
C95	C	1.350569	-0.399028	0.701837
C96	C	1.683902	-0.065694	1.035171
C97	C	0.969922	-0.693869	0.411926
C98	C	1.303255	-0.360535	0.745260
C99	C	1.636588	-0.027202	1.078593
C100	C	0.973103	-0.620483	0.408967
C101	C	1.306437	-0.287150	0.742300
C102	C	1.639770	0.046183	1.075633
C103	C	1.002479	-0.951647	0.382173
C104	C	1.335812	-0.618314	0.715507
C105	C	1.669146	-0.284980	1.048840
C106	C	0.999300	-1.025038	0.385128
C107	C	1.332633	-0.691704	0.718462
C108	C	1.665966	-0.358371	1.051795
C109	C	1.097107	-1.028626	0.295329
C110	C	1.430441	-0.695293	0.628663
C111	C	1.763774	-0.361960	0.961996
C112	C	1.100282	-0.955239	0.292371
C113	C	1.433615	-0.621906	0.625704
C114	C	1.766948	-0.288573	0.959037
C115	C	1.052971	-0.916754	0.335796
C116	C	1.386304	-0.583420	0.669129
C117	C	1.719637	-0.250087	1.002462
N118	N	1.013984	-0.807374	0.371532
N119	N	1.347318	-0.474040	0.704865
N120	N	1.680651	-0.140707	1.038199
N121	N	1.056226	-0.841742	0.332771
N122	N	1.389559	-0.508409	0.666104
N123	N	1.722892	-0.175075	0.999437
C124	C	1.226991	-0.324926	0.352159
C125	C	1.560325	0.008407	0.685492
C126	C	1.893658	0.341741	1.018825
C127	C	1.308790	-0.324931	0.352168
C128	C	1.642123	0.008402	0.685501
C129	C	1.975456	0.341736	1.018834
C130	C	1.027692	-0.317510	0.535418
C131	C	1.361025	0.015824	0.868751
C132	C	1.694358	0.349157	1.202084
C133	C	1.024560	-0.314354	0.613521
C134	C	1.357894	0.018979	0.946854
C135	C	1.691227	0.352312	1.280188
C136	C	1.043153	-0.141629	0.344826
C137	C	1.376487	0.191704	0.678160
C138	C	1.709820	0.525037	1.011493
C139	C	1.046611	-0.063524	0.341711
C140	C	1.379944	0.269809	0.675044
C141	C	1.713278	0.603142	1.008377
C142	C	1.042404	-0.332239	0.169568
C143	C	1.375737	0.001094	0.502902
C144	C	1.709071	0.334428	0.836235
C145	C	1.045687	-0.335196	0.091458
C146	C	1.379020	-0.001863	0.424791
C147	C	1.712353	0.331470	0.758124
C148	C	1.068160	-0.357811	0.652014
C149	C	1.401494	-0.024478	0.985348
C150	C	1.734827	0.308855	1.318681
C151	C	1.065219	-0.354838	0.725400
C152	C	1.398552	-0.021505	1.058734
C153	C	1.731885	0.311829	1.392067
C154	C	1.018672	-0.308411	0.760291
C155	C	1.352006	0.024923	1.093625
C156	C	1.685339	0.358256	1.426958
C157	C	0.975071	-0.264949	0.721792
C158	C	1.308404	0.068385	1.055126
C159	C	1.641737	0.401718	1.388459
C160	C	0.978017	-0.267919	0.648408
C161	C	1.311350	0.065414	0.981741
C162	C	1.644684	0.398748	1.315074
C163	C	1.005031	-0.294705	0.979574
C164	C	1.338364	0.038628	1.312908
C165	C	1.671698	0.371962	1.646241
C166	C	1.002087	-0.291739	1.052964
C167	C	1.335420	0.041594	1.386298
C168	C	1.668753	0.374927	1.719631
C169	C	1.092236	-0.381628	1.056567
C170	C	1.425569	-0.048295	1.389900
C171	C	1.758903	0.285039	1.723234
C172	C	1.095175	-0.384597	0.983181
C173	C	1.428508	-0.051264	1.316514
C174	C	1.761841	0.282069	1.649848
C175	C	1.051576	-0.341133	0.944688
C176	C	1.384909	-0.007799	1.278022
C177	C	1.718243	0.325534	1.611355
N178	N	1.015662	-0.305372	0.835303
N179	N	1.348996	0.027961	1.168637
N180	N	1.682329	0.361295	1.501970
N181	N	1.054590	-0.344169	0.869678
N182	N	1.387924	-0.010835	1.203011
N183	N	1.721257	0.322498	1.536344
H184	H	1.112020	-0.595667	0.281395
H185	H	1.445353	-0.262333	0.614729
H186	H	1.778686	0.071000	0.948062
H187	H	0.472540	-0.246555	0.267493
H188	H	0.805873	0.086778	0.600827
H189	H	1.139207	0.420112	0.934160
F190	F	0.622538	-0.235739	0.255810
F191	F	0.955871	0.097595	0.589143
F192	F	1.289205	0.430928	0.922476
H193	H	1.135626	-1.059969	0.259976
H194	H	1.468960	-0.726636	0.593309
H195	H	1.802293	-0.393302	0.926643
H196	H	0.958190	-1.053449	0.422907
H197	H	1.291524	-0.720116	0.756240
H198	H	1.624857	-0.386782	1.089573
H199	H	0.458851	-0.403291	0.436818
H200	H	0.792184	-0.069957	0.770152
H201	H	1.125518	0.263376	1.103485
H202	H	1.106254	-0.728795	0.286771
H203	H	1.439587	-0.395462	0.620104
H204	H	1.772920	-0.062129	0.953437
H205	H	1.141397	-0.926827	0.254607
H206	H	1.474730	-0.593493	0.587940
H207	H	1.808064	-0.260160	0.921273
H208	H	0.942515	-0.232530	0.617067
H209	H	1.275849	0.100804	0.950400
H210	H	1.609182	0.434137	1.283734
H211	H	0.969527	-0.259316	0.948243
H212	H	1.302860	0.074018	1.281576
H213	H	1.636193	0.407351	1.614909
H214	H	0.598279	-0.403289	0.436803
H215	H	0.931612	-0.069956	0.770137
H216	H	1.264945	0.263378	1.103470
F217	F	0.952126	-0.910697	0.428390
F218	F	1.285459	-0.577363	0.761723
F219	F	1.618792	-0.244030	1.095056
F220	F	0.916187	-0.731012	0.461289
F221	F	1.249520	-0.397679	0.794622
F222	F	1.582854	-0.064345	1.127955
H223	H	0.934578	-0.589148	0.444323
H224	H	1.267912	-0.255815	0.777656
H225	H	1.601245	0.077519	1.110989
H226	H	1.106066	-0.395616	0.623611
H227	H	1.439399	-0.062282	0.956945
H228	H	1.772733	0.271051	1.290278
F229	F	1.111620	-0.401095	0.766365
F230	F	1.444954	-0.067762	1.099698
F231	F	1.778287	0.265572	1.433032
F232	F	1.144717	-0.434010	0.946053
F233	F	1.478051	-0.100677	1.279386
F234	F	1.811384	0.232656	1.612719
F235	F	1.138635	-0.427882	1.097538
F236	F	1.471968	-0.094548	1.430872
F237	F	1.805302	0.238785	1.764205
H238	H	0.937175	-0.227144	0.750206
H239	H	1.270508	0.106190	1.083540
H240	H	1.603842	0.439523	1.416873
H241	H	0.964185	-0.253927	1.081370
H242	H	1.297518	0.079406	1.414703
H243	H	1.630852	0.412740	1.748037
