data_functionalizedCrystal
_audit_creation_method	'MofGen! by Chris Wilmer'
_symmetry_space_group_name_H-M	'P1'
_symmetry_Int_Tables_number	1
_symmetry_cell_setting	triclinic
loop_
_symmetry_equiv_pos_as_xyz
  x,y,z
_cell_length_a	11.792254
_cell_length_b	10.654546
_cell_length_c	9.730223
_cell_angle_alpha	89.998853
_cell_angle_beta	89.996917
_cell_angle_gamma	95.658960
loop_
_atom_site_label
_atom_site_type_symbol
_atom_site_fract_x
_atom_site_fract_y
_atom_site_fract_z
O1	O	-0.159395	1.667394	-0.114305
O2	O	-0.174588	1.301872	-0.114300
O3	O	-0.001842	1.493495	-0.114309
O4	O	-0.332141	1.475771	-0.114296
O5	O	-0.001847	1.493493	0.114271
O6	O	-0.174592	1.301870	0.114280
O7	O	-0.159400	1.667391	0.114275
Zn8	Zn	-0.166996	1.484630	0.150569
Zn9	Zn	-0.166991	1.484633	-0.150595
O10	O	-0.332145	1.475769	0.114284
C11	C	-0.173475	1.255076	-0.000010
C12	C	-0.170140	1.115642	-0.000008
C13	C	-0.168560	1.050153	-0.124613
C14	C	-0.165417	0.919141	-0.124625
C15	C	-0.165431	0.919120	0.124586
C16	C	-0.168582	1.050128	0.124596
C17	C	-0.170118	1.115667	-0.249217
C18	C	-0.168536	1.050178	-0.373833
C19	C	-0.165394	0.919166	-0.373844
C20	C	-0.163833	0.853643	-0.249240
C21	C	-0.374436	1.476887	-0.000005
C22	C	-0.500457	1.480228	-0.000000
C23	C	-0.602800	1.482944	-0.000008
C24	C	-0.731194	1.486339	-0.000024
C25	C	0.040449	1.492377	-0.000024
C26	C	0.166470	1.489036	-0.000037
C27	C	-0.160512	1.714188	-0.000019
C28	C	-0.163847	1.853622	-0.000029
N29	N	-0.167000	1.484638	0.356106
N30	N	-0.166979	1.484636	-0.356131
C31	C	-0.090534	1.569510	0.428028
C32	C	-0.090520	1.569507	0.571911
C33	C	-0.243448	1.399755	0.571937
C34	C	-0.243455	1.399753	0.428057
C35	C	-0.014079	1.654395	0.356077
C36	C	0.062392	1.739275	0.427999
C37	C	0.062406	1.739272	0.571882
C38	C	-0.014051	1.654388	0.643843
H39	H	-0.164159	0.865761	0.226032
H40	H	-0.305719	1.330641	0.369497
Br41	Br	-0.014015	1.654375	0.839114
H42	H	-0.164117	0.865847	-0.475311
Br43	Br	-0.159586	0.675837	-0.249258
H44	H	-0.172675	1.222344	-0.249222
H45	H	-0.169875	1.103450	0.226060
H46	H	-0.169817	1.103534	-0.475280
H47	H	-0.014085	1.654408	0.238920
H48	H	0.124679	1.808376	0.630440
Br49	Br	0.166164	1.854453	0.330344
H50	H	-0.305697	1.330647	0.630537
