data_functionalizedCrystal
_audit_creation_method	'MofGen! by Chris Wilmer'
_symmetry_space_group_name_H-M	'P1'
_symmetry_Int_Tables_number	1
_symmetry_cell_setting	triclinic
loop_
_symmetry_equiv_pos_as_xyz
  x,y,z
_cell_length_a	31.640172
_cell_length_b	14.560438
_cell_length_c	14.560438
_cell_angle_alpha	90.000844
_cell_angle_beta	60.007218
_cell_angle_gamma	59.999297
loop_
_atom_site_label
_atom_site_type_symbol
_atom_site_fract_x
_atom_site_fract_y
_atom_site_fract_z
Zr1	Zr	0.462592	-0.120519	0.884890
O2	O	0.550757	-0.267162	0.738269
O3	O	0.374426	-0.075567	0.929819
O4	O	0.462591	-0.267166	0.929844
O5	O	0.462592	0.075575	0.738245
O6	O	0.462592	-0.267167	1.080982
O7	O	0.462591	-0.075563	0.738244
O8	O	0.304881	0.075569	1.080937
O9	O	0.620304	-0.267160	0.738290
O10	O	0.410691	-0.056394	1.061795
O11	O	0.410691	0.056399	0.949003
O12	O	0.514495	-0.169184	0.949033
O13	O	0.514495	-0.056390	0.836241
Zr14	Zr	0.462596	0.120527	1.125939
Zr15	Zr	0.462594	-0.120521	1.125938
Zr16	Zr	0.462594	0.120529	0.884891
Zr17	Zr	0.573512	-0.120517	0.884923
Zr18	Zr	0.351676	0.120524	1.125906
O19	O	0.550762	0.075575	1.081011
O20	O	0.550759	-0.267165	1.081009
O21	O	0.550759	0.075577	0.738271
O22	O	0.374431	0.267170	1.272560
O23	O	0.374429	-0.075569	1.272558
O24	O	0.374429	0.267173	0.929821
O25	O	0.462595	-0.075567	1.272585
O26	O	0.462597	0.267174	1.080985
O27	O	0.462595	0.267175	0.929847
O28	O	0.462597	0.075571	1.272585
O29	O	0.620306	-0.267162	0.929891
O30	O	0.304882	0.267170	1.080938
O31	O	0.304884	0.267168	1.272539
O32	O	0.304882	0.075567	1.272538
O33	O	0.620306	-0.075559	0.738291
O34	O	0.620307	-0.075561	0.929892
O35	O	0.410693	0.169191	1.061797
O36	O	0.410693	0.056398	1.174589
O37	O	0.514496	-0.056392	1.061826
O38	O	0.514496	0.056402	0.949034
C39	C	0.323850	0.000001	1.005373
C40	C	0.276761	-0.000001	1.005359
C41	C	0.462592	0.000006	0.703900
C42	C	0.462591	0.000007	0.601569
C43	C	0.462596	0.301518	1.005416
C44	C	0.462597	0.403850	1.005417
C45	C	-0.015281	-0.058863	1.064314
C46	C	-0.192277	-0.058862	1.064337
O47	O	-0.215181	-0.108895	1.114450
N48	N	-0.214406	0.000013	1.005459
C49	C	-0.192286	0.058898	0.946577
O50	O	-0.215174	0.108984	0.896508
C51	C	-0.015294	0.058903	0.946562
C52	C	0.006837	0.000015	1.005434
C53	C	0.006850	-0.117745	1.123182
C54	C	0.051098	-0.117750	1.123171
C55	C	0.073216	-0.058872	1.064291
C56	C	0.051086	0.000010	1.005422
C57	C	0.006822	0.117794	0.887687
C58	C	0.051072	0.117792	0.887691
C59	C	0.073203	0.058904	0.946563
C60	C	0.117452	0.058883	0.946531
N61	N	0.139581	0.000008	1.005409
C62	C	0.117463	-0.058869	1.064289
C63	C	-0.285208	0.058889	0.946588
C64	C	-0.329455	0.058886	0.946590
C65	C	-0.329444	-0.058872	1.064352
C66	C	-0.285193	-0.058875	1.064342
C67	C	-0.263079	0.000014	1.005466
C68	C	0.210389	-0.058875	1.064260
C69	C	0.254643	-0.058878	1.064239
C70	C	0.254626	0.058884	0.946483
C71	C	0.210377	0.058883	0.946498
C72	C	0.188259	0.000001	1.005395
O73	O	0.140380	0.108900	0.896454
O74	O	0.140349	-0.108927	1.114371
C75	C	-0.059529	-0.058858	1.064325
C76	C	-0.081660	0.000024	1.005457
C77	C	-0.059542	0.058902	0.946577
C78	C	-0.125907	0.000021	1.005459
C79	C	-0.148025	-0.058856	1.064339
C80	C	-0.125896	-0.117731	1.123216
C81	C	-0.081647	-0.117736	1.123205
C82	C	-0.081671	0.117776	0.887699
C83	C	-0.125919	0.117775	0.887714
C84	C	-0.148037	0.058898	0.946594
C85	C	0.601338	0.000007	1.005456
C86	C	0.648427	0.000008	1.005470
C87	C	0.462592	-0.301510	1.005413
C88	C	0.462591	-0.403842	1.005413
C89	C	0.516780	0.393053	0.946558
C90	C	0.516778	0.489208	0.946552
C91	C	0.408403	0.606953	1.064274
C92	C	0.408407	0.510799	1.064272
C93	C	0.408408	0.058878	0.612352
C94	C	0.408410	0.058878	0.516197
C95	C	0.516785	-0.058872	0.398480
C96	C	0.516781	-0.058865	0.494634
C97	C	0.462596	0.000002	1.306929
C98	C	0.462597	0.000001	1.409260
C99	C	0.323852	-0.000002	1.306888
C100	C	0.276764	-0.000004	1.409205
C101	C	0.323852	0.301515	1.005375
C102	C	0.276764	0.403845	1.005361
C103	C	0.323854	0.301513	1.306889
C104	C	0.276767	0.403842	1.409207
C105	C	0.601334	-0.301505	0.703940
C106	C	0.648421	-0.403834	0.601622
C107	C	0.601336	0.000010	0.703942
C108	C	0.648424	0.000011	0.601625
C109	C	0.601336	-0.301507	1.005455
C110	C	0.648424	-0.403837	1.005468
C111	C	0.254650	-0.058891	1.398377
C112	C	0.210413	-0.058915	1.494506
C113	C	0.188286	-0.000045	1.601461
C114	C	0.210405	0.058844	1.612287
C115	C	0.254645	0.058861	1.516159
C116	C	0.254652	0.510787	1.064232
C117	C	0.210415	0.606946	1.064215
C118	C	0.188287	0.596161	1.005333
C119	C	0.210403	0.489208	0.946456
C120	C	0.254643	0.393051	0.946467
C121	C	0.254655	0.393020	1.516143
C122	C	0.210418	0.489160	1.612291
C123	C	0.188291	0.596121	1.601500
C124	C	0.210408	0.606941	1.494553
C125	C	0.254647	0.510802	1.398407
C126	C	0.670538	-0.393012	0.494686
C127	C	0.714789	-0.489152	0.398539
C128	C	0.736918	-0.596113	0.409330
C129	C	0.714799	-0.606933	0.516277
C130	C	0.670552	-0.510794	0.612422
C131	C	0.670542	0.058889	0.612452
C132	C	0.714792	0.058886	0.516324
C133	C	0.736920	0.000013	0.409368
C134	C	0.714800	-0.058872	0.398543
C135	C	0.670553	-0.058875	0.494670
C136	C	0.670538	-0.393016	1.064361
C137	C	0.714776	-0.489157	1.064396
C138	C	0.736902	-0.596118	1.005530
C139	C	0.714784	-0.606936	0.946635
C140	C	0.670543	-0.510797	0.946608
H141	H	0.272662	-0.106836	1.112179
Br142	Br	0.590325	-0.138766	0.253352
H143	H	0.732780	-0.480326	1.112353
Br144	Br	0.744824	-0.752106	0.866740
Br145	Br	0.744798	-0.474441	0.253411
H146	H	0.364282	0.106827	0.699419
H147	H	0.772948	0.000025	0.331104
H148	H	0.192386	0.694042	1.485783
Br149	Br	-0.023156	-0.197668	1.203095
H150	H	0.272646	0.519629	1.311339
H151	H	0.652546	-0.106817	0.485838
H152	H	0.652543	-0.519623	0.898645
Br153	Br	0.334873	0.138787	0.530837
Br154	Br	0.180403	-0.138839	1.479787
Br155	Br	0.180368	0.138738	1.757450
Br156	Br	0.796969	-0.726578	0.278834
H157	H	0.272664	0.519589	1.112181
Br158	Br	0.180376	-0.138782	1.144196
Br159	Br	0.128246	-0.000080	1.731910
H160	H	0.192380	0.480443	0.898516
H161	H	0.652523	-0.305928	0.485879
Br162	Br	0.284677	0.247870	1.530819
Br163	Br	-0.155919	-0.197643	1.203118
Br164	Br	0.590315	0.474549	0.866651
H165	H	0.152269	0.674394	1.679797
Br166	Br	0.334867	0.525451	1.144147
H167	H	0.192415	0.480330	1.699363
Br168	Br	0.081125	-0.197670	1.203077
Br169	Br	0.796944	-0.726583	1.005577
H170	H	0.272644	0.106821	1.524991
Br171	Br	0.334863	0.752100	1.144147
Br172	Br	0.640523	0.138794	0.757594
Br173	Br	0.744836	-0.752104	0.530903
Br174	Br	0.590321	-0.138756	0.480001
Br175	Br	0.744802	0.138810	0.531042
Br176	Br	0.744835	-0.138763	0.253380
Br177	Br	0.284671	-0.138799	1.253236
Br178	Br	0.180408	0.752081	1.144128
Br179	Br	0.640537	-0.525502	0.757546
H180	H	0.272641	0.305978	0.898531
Br181	Br	-0.255163	-0.138797	1.144243
Br182	Br	-0.359469	-0.138777	1.144260
Br183	Br	0.640519	-0.247867	1.144260
H184	H	0.152264	0.674467	1.005333
H185	H	-0.347464	0.106824	0.898636
Br186	Br	0.081079	0.197722	0.807786
H187	H	-0.011190	0.165748	0.839748
Br188	Br	-0.255205	0.138821	0.866679
H189	H	0.272644	0.106817	0.898541
Br190	Br	0.180350	0.138783	0.866580
H191	H	-0.143931	0.165725	0.839762
Br192	Br	-0.051664	0.197696	0.807788
H193	H	-0.063631	-0.165688	1.171145
H194	H	0.560906	0.305974	0.898631
