data_functionalizedCrystal
_audit_creation_method	'MofGen! by Chris Wilmer'
_symmetry_space_group_name_H-M	'P1'
_symmetry_Int_Tables_number	1
_symmetry_cell_setting	triclinic
loop_
_symmetry_equiv_pos_as_xyz
  x,y,z
_cell_length_a	15.944551
_cell_length_b	23.532407
_cell_length_c	15.021413
_cell_angle_alpha	89.999348
_cell_angle_beta	89.997174
_cell_angle_gamma	83.173708
loop_
_atom_site_label
_atom_site_type_symbol
_atom_site_fract_x
_atom_site_fract_y
_atom_site_fract_z
O1	O	1.113910	0.073442	-0.073949
O2	O	0.869284	0.082498	-0.073972
O3	O	0.998974	-0.004933	-0.073943
O4	O	0.984220	0.160873	-0.073977
O5	O	0.998953	-0.004921	0.074121
O6	O	0.869263	0.082510	0.074092
O7	O	1.113889	0.073455	0.074116
Zn8	Zn	0.991573	0.077985	0.097612
Zn9	Zn	0.991600	0.077968	-0.097469
O10	O	0.984200	0.160886	0.074087
C11	C	0.837983	0.082128	0.000057
C12	C	0.744746	0.081001	0.000049
C13	C	0.530369	0.024113	0.000078
C14	C	0.469137	0.050524	-0.072931
C15	C	0.574038	0.078962	0.000060
C16	C	0.469138	0.050549	0.073049
C17	C	0.409142	0.076989	0.000075
C18	C	0.514033	0.105388	-0.073009
C19	C	0.514041	0.105405	0.073036
C20	C	0.452826	0.131856	0.000010
C21	C	0.669030	0.080097	0.000051
C22	C	0.314150	0.075858	0.000077
C23	C	0.998588	-0.026144	0.000091
C24	C	0.997458	-0.089366	0.000098
C25	C	1.067121	-0.488199	0.000056
C26	C	1.066072	-0.547603	0.000049
O27	O	1.130650	-0.584098	0.000022
N28	N	0.988971	-0.570528	0.000042
C29	C	0.912915	-0.534045	0.000033
O30	O	0.847239	-0.558999	0.000026
C31	C	0.913965	-0.474642	0.000034
C32	C	0.991071	-0.451721	0.000049
C33	C	1.144220	-0.465277	0.000070
C34	C	1.145269	-0.405877	0.000079
C35	C	1.069219	-0.369399	0.000073
C36	C	0.992120	-0.392320	0.000058
C37	C	0.837910	-0.438160	0.000018
C38	C	0.838967	-0.378754	0.000018
C39	C	0.916072	-0.355832	0.000034
C40	C	0.917118	-0.296442	0.000060
N41	N	0.994219	-0.273517	0.000067
C42	C	1.070269	-0.309995	0.000073
C43	C	0.910716	-0.658796	0.000031
C44	C	0.909664	-0.718198	0.000037
C45	C	1.062821	-0.731752	0.000050
C46	C	1.063872	-0.672349	0.000051
C47	C	0.987816	-0.635871	0.000037
C48	C	1.072466	-0.185250	0.000092
C49	C	1.073508	-0.125844	0.000104
C50	C	0.920352	-0.112295	0.000085
C51	C	0.919309	-0.171696	0.000078
C52	C	0.995373	-0.208173	0.000078
O53	O	0.852574	-0.259913	0.000083
O54	O	1.135935	-0.285033	0.000069
C55	C	1.145190	0.073824	0.000084
C56	C	1.238427	0.074951	0.000087
C57	C	0.984586	0.182097	0.000051
C58	C	0.985715	0.245318	0.000038
N59	N	0.991561	0.077995	0.230750
N60	N	0.991619	0.077953	-0.230606
C61	C	0.931583	0.118404	0.470420
C62	C	1.007390	0.129461	0.529759
C63	C	0.991582	0.077981	0.412357
C64	C	0.915796	0.066938	0.529760
C65	C	0.991596	0.077969	0.587781
C66	C	1.067428	0.089063	0.470389
C67	C	0.975783	0.026518	0.470385
C68	C	1.051645	0.037552	0.529697
C69	C	0.991573	0.077990	0.311300
C70	C	0.991614	0.077960	0.688836
H71	H	1.136300	-0.107185	0.000119
C72	C	0.442258	0.019207	0.156431
H73	H	0.469096	-0.019063	0.156342
H74	H	0.382715	0.019020	0.156124
H75	H	0.458399	0.038324	0.208270
H76	H	1.208056	-0.387220	0.000088
H77	H	1.134405	-0.214943	0.000089
H78	H	1.126658	-0.653691	0.000063
C79	C	1.146476	-0.771886	0.000041
H80	H	1.134802	-0.810546	0.000026
H81	H	1.178117	-0.764944	0.051673
H82	H	1.178111	-0.764934	-0.051600
C83	C	0.957685	-0.032248	0.435114
H84	H	1.004142	-0.048629	0.400317
H85	H	0.908161	-0.027626	0.399426
H86	H	0.949596	-0.056748	0.483843
H87	H	0.858434	-0.082584	0.000084
C88	C	0.829211	0.054320	0.564991
H89	H	0.836169	0.020373	0.599784
H90	H	0.792812	0.049393	0.516249
H91	H	0.805240	0.085412	0.600690
C92	C	1.025465	0.188243	0.564998
H93	H	1.075579	0.183731	0.599778
H94	H	0.979466	0.204305	0.600694
H95	H	1.032513	0.212955	0.516252
H96	H	1.102446	0.003360	0.555561
C97	C	0.863113	0.164619	0.435247
H98	H	0.874487	0.201158	0.455577
H99	H	0.809375	0.157139	0.456445
H100	H	0.863252	0.164078	0.372009
C101	C	0.575911	-0.037380	-0.000020
H102	H	0.560663	-0.056779	-0.051956
H103	H	0.559915	-0.057067	0.051315
H104	H	0.635264	-0.036226	0.000498
C105	C	1.227883	-0.505395	0.000085
H106	H	1.273943	-0.483227	0.000100
H107	H	1.230679	-0.528854	-0.051545
H108	H	1.230650	-0.528846	0.051728
C109	C	0.442236	0.019179	-0.156297
H110	H	0.469059	-0.019095	-0.156201
H111	H	0.458362	0.038290	-0.208143
H112	H	0.382688	0.018994	-0.155963
H113	H	0.533834	0.128564	-0.134800
H114	H	1.131539	0.098450	0.444420
C115	C	0.540970	0.136728	0.156405
H116	H	0.567229	0.169145	0.138866
H117	H	0.579667	0.111551	0.190189
H118	H	0.492620	0.148819	0.191594
C119	C	0.755304	-0.338631	0.000007
H120	H	0.709238	-0.360794	0.000004
H121	H	0.752535	-0.315173	-0.051623
H122	H	0.752518	-0.315180	0.051650
H123	H	0.846878	-0.736855	0.000039
C124	C	0.407505	0.193409	-0.000056
H125	H	0.422859	0.212794	-0.051966
H126	H	0.423558	0.213041	0.051306
H127	H	0.348128	0.192364	0.000430
H128	H	0.848778	-0.629098	0.000027
C129	C	0.753093	-0.463361	-0.000006
H130	H	0.707958	-0.433120	-0.000022
H131	H	0.749477	-0.486254	0.051622
H132	H	0.749508	-0.486248	-0.051651
H133	H	0.856524	-0.190359	0.000090
