data_functionalizedCrystal
_audit_creation_method	'MofGen! by Chris Wilmer'
_symmetry_space_group_name_H-M	'P1'
_symmetry_Int_Tables_number	1
_symmetry_cell_setting	triclinic
loop_
_symmetry_equiv_pos_as_xyz
  x,y,z
_cell_length_a	16.992694
_cell_length_b	17.699083
_cell_length_c	16.176319
_cell_angle_alpha	89.999648
_cell_angle_beta	89.998387
_cell_angle_gamma	86.975618
loop_
_atom_site_label
_atom_site_type_symbol
_atom_site_fract_x
_atom_site_fract_y
_atom_site_fract_z
O1	O	1.040089	0.160469	-0.068623
O2	O	1.373422	0.493803	0.264710
O3	O	1.706755	0.827136	0.598043
O4	O	0.811807	0.158709	-0.068648
O5	O	1.145140	0.492042	0.264685
O6	O	1.478473	0.825376	0.598019
O7	O	0.932397	0.049802	-0.068643
O8	O	1.265731	0.383135	0.264690
O9	O	1.599064	0.716468	0.598024
O10	O	0.919498	0.269377	-0.068628
O11	O	1.252832	0.602710	0.264705
O12	O	1.586165	0.936044	0.598038
O13	O	0.932381	0.049793	0.068850
O14	O	1.265714	0.383127	0.402183
O15	O	1.599047	0.716460	0.735517
O16	O	0.811790	0.158701	0.068845
O17	O	1.145123	0.492034	0.402179
O18	O	1.478457	0.825367	0.735512
O19	O	1.040072	0.160461	0.068870
O20	O	1.373405	0.493794	0.402203
O21	O	1.706739	0.827128	0.735536
Cu22	Cu	0.925930	0.159580	0.081412
Cu23	Cu	1.259263	0.492913	0.414745
Cu24	Cu	1.592596	0.826247	0.748078
Cu25	Cu	0.925949	0.159590	-0.081190
Cu26	Cu	1.259283	0.492923	0.252143
Cu27	Cu	1.592616	0.826257	0.585477
O28	O	0.919482	0.269368	0.068865
O29	O	1.252815	0.602702	0.402198
O30	O	1.586148	0.936035	0.735532
C31	C	0.782590	0.156440	0.000095
C32	C	1.115924	0.489773	0.333429
C33	C	1.449257	0.823107	0.666762
C34	C	0.695559	0.149683	0.000085
C35	C	1.028892	0.483016	0.333419
C36	C	1.362226	0.816350	0.666752
C37	C	0.931927	0.021572	0.000100
C38	C	1.265260	0.354905	0.333433
C39	C	1.598593	0.688238	0.666766
C40	C	0.930540	-0.062533	0.000088
C41	C	1.263873	0.270801	0.333421
C42	C	1.597207	0.604134	0.666755
N43	N	0.925922	0.159573	0.195777
N44	N	1.259255	0.492906	0.529110
N45	N	1.592588	0.826240	0.862444
C46	C	0.645194	0.214881	0.000090
C47	C	0.978528	0.548214	0.333424
C48	C	1.311861	0.881547	0.666757
C49	C	0.563420	0.208527	0.000101
C50	C	0.896753	0.541860	0.333435
C51	C	1.230086	0.875194	0.666768
C52	C	0.532012	0.136975	0.000101
C53	C	0.865345	0.470308	0.333435
C54	C	1.198678	0.803642	0.666768
C55	C	0.582383	0.071772	0.000099
C56	C	0.915716	0.405106	0.333432
C57	C	1.249049	0.738439	0.666765
C58	C	0.664156	0.078127	0.000094
C59	C	0.997489	0.411460	0.333427
C60	C	1.330822	0.744793	0.666760
C61	C	0.288464	0.110639	0.000122
C62	C	0.621797	0.443972	0.333455
C63	C	0.955131	0.777306	0.666788
C64	C	0.206685	0.104290	0.000124
C65	C	0.540018	0.437623	0.333458
C66	C	0.873351	0.770956	0.666791
C67	C	0.187727	0.241045	0.000128
C68	C	0.521061	0.574378	0.333462
C69	C	0.854394	0.907711	0.666795
C70	C	0.269503	0.247393	0.000118
C71	C	0.602836	0.580726	0.333452
C72	C	0.936169	0.914059	0.666785
C73	C	0.319867	0.182190	0.000120
C74	C	0.653200	0.515524	0.333453
C75	C	0.986533	0.848857	0.666787
N76	N	0.448425	0.130479	0.000110
N77	N	0.781758	0.463812	0.333443
N78	N	1.115092	0.797146	0.666777
N79	N	0.403451	0.188687	0.000117
N80	N	0.736785	0.522020	0.333451
N81	N	1.070118	0.855354	0.666784
C82	C	1.069289	0.162730	0.000125
C83	C	1.402622	0.496063	0.333458
C84	C	1.735955	0.829397	0.666791
C85	C	1.156320	0.169487	0.000129
C86	C	1.489653	0.502821	0.333463
C87	C	1.822987	0.836154	0.666796
C88	C	0.919952	0.297598	0.000120
C89	C	1.253285	0.630932	0.333454
C90	C	1.586619	0.964265	0.666787
C91	C	0.921339	0.381703	0.000127
C92	C	1.254672	0.715036	0.333460
C93	C	1.588005	1.048370	0.666793
C94	C	0.850555	0.425917	0.000119
C95	C	1.183888	0.759250	0.333452
C96	C	1.517221	1.092583	0.666786
C97	C	0.851862	0.504942	0.000109
C98	C	1.185195	0.838275	0.333443
C99	C	1.518529	1.171608	0.666776
C100	C	0.923955	0.539751	0.000113
C101	C	1.257288	0.873084	0.333447
C102	C	1.590621	1.206417	0.666780
C103	C	0.994744	0.495531	0.000118
C104	C	1.328077	0.828864	0.333452
C105	C	1.661411	1.162198	0.666785
C106	C	0.993436	0.416508	0.000122
C107	C	1.326769	0.749841	0.333455
C108	C	1.660102	1.083174	0.666789
C109	C	1.000022	0.814223	0.000103
C110	C	1.333355	1.147556	0.333436
C111	C	1.666689	1.480889	0.666769
C112	C	1.001325	0.893252	0.000101
C113	C	1.334658	1.226585	0.333435
C114	C	1.667992	1.559918	0.666768
C115	C	0.858449	0.902656	0.000090
C116	C	1.191782	1.235990	0.333423
C117	C	1.525115	1.569323	0.666757
C118	C	0.857140	0.823633	0.000094
C119	C	1.190473	1.156966	0.333427
C120	C	1.523807	1.490300	0.666760
C121	C	0.927929	0.779420	0.000094
C122	C	1.261263	1.112754	0.333428
C123	C	1.594596	1.446087	0.666761
C124	C	0.926511	0.693733	0.000103
C125	C	1.259844	1.027066	0.333436
C126	C	1.593177	1.360399	0.666770
C127	C	0.925374	0.625437	0.000110
C128	C	1.258707	0.958770	0.333444
C129	C	1.592041	1.292103	0.666777
N130	N	0.925963	0.159592	-0.195555
N131	N	1.259297	0.492925	0.137778
N132	N	1.592630	0.826258	0.471112
C133	C	0.979335	0.111371	0.239043
C134	C	1.312668	0.444704	0.572377
C135	C	1.646002	0.778037	0.905710
C136	C	0.979339	0.111370	0.325590
C137	C	1.312672	0.444704	0.658924
C138	C	1.646006	0.778037	0.992257
C139	C	0.925933	0.159576	0.368870
C140	C	1.259266	0.492910	0.702203
C141	C	1.592599	0.826243	1.035536
C142	C	0.872513	0.207781	0.325597
C143	C	1.205847	0.541114	0.658930
C144	C	1.539180	0.874447	0.992264
C145	C	0.872506	0.207777	0.239052
C146	C	1.205840	0.541110	0.572385
C147	C	1.539173	0.874443	0.905718
C148	C	0.872540	0.207796	0.674625
C149	C	1.205874	0.541130	1.007959
C150	C	1.539207	0.874463	1.341292
C151	C	0.872553	0.207798	0.761177
C152	C	1.205886	0.541131	1.094510
C153	C	1.539220	0.874465	1.427844
C154	C	0.979373	0.111390	0.761164
C155	C	1.312706	0.444723	1.094497
C156	C	1.646040	0.778057	1.427831
C157	C	0.979366	0.111386	0.674619
C158	C	1.312699	0.444719	1.007952
C159	C	1.646033	0.778053	1.341285
C160	C	0.925944	0.159587	0.631354
C161	C	1.259278	0.492920	0.964687
C162	C	1.592611	0.826254	1.298020
C163	C	0.925940	0.159586	0.537510
C164	C	1.259273	0.492919	0.870843
C165	C	1.592606	0.826253	1.204176
C166	C	0.925940	0.159582	0.462712
C167	C	1.259274	0.492915	0.796045
C168	C	1.592607	0.826248	1.129379
H169	H	0.670760	0.273146	0.000090
H170	H	1.004093	0.606479	0.333423
H171	H	1.337427	0.939812	0.666756
H172	H	0.522415	0.261618	0.000104
H173	H	0.855749	0.594951	0.333438
H174	H	1.189082	0.928285	0.666771
H175	H	0.791849	0.397581	0.000125
H176	H	1.125182	0.730915	0.333459
H177	H	1.458515	1.064248	0.666792
H178	H	1.022828	0.072119	0.203811
H179	H	1.356161	0.405453	0.537144
H180	H	1.689495	0.738786	0.870478
H181	H	0.829060	0.247055	0.796413
H182	H	1.162394	0.580388	1.129747
H183	H	1.495727	0.913721	1.463080
H184	H	0.556804	0.013513	0.000111
H185	H	0.890137	0.346847	0.333444
H186	H	1.223470	0.680180	0.666777
F187	F	0.776524	0.551994	0.000095
F188	F	1.109857	0.885327	0.333428
F189	F	1.443190	1.218661	0.666762
H190	H	0.798435	0.795296	0.000095
H191	H	1.131768	1.128629	0.333428
H192	H	1.465102	1.461962	0.666761
H193	H	1.022857	0.072135	0.639383
H194	H	1.356190	0.405468	0.972717
H195	H	1.689523	0.738802	1.306050
H196	H	0.800809	0.938664	0.000086
H197	H	1.134142	1.271998	0.333420
H198	H	1.467475	1.605331	0.666753
F199	F	0.302923	0.323548	0.000114
F200	F	0.636256	0.656881	0.333447
F201	F	0.969590	0.990215	0.666781
F202	F	0.134121	0.310433	0.000128
F203	F	0.467455	0.643766	0.333462
F204	F	0.800788	0.977099	0.666795
F205	F	0.173260	0.028131	0.000139
F206	F	0.506594	0.361464	0.333472
F207	F	0.839927	0.694797	0.666805
F208	F	0.342055	0.041244	0.000123
F209	F	0.675388	0.374577	0.333457
F210	F	1.008721	0.707910	0.666790
H211	H	0.705162	0.025036	0.000089
H212	H	1.038496	0.358369	0.333422
H213	H	1.371829	0.691702	0.666756
F214	F	1.078060	0.930296	0.000104
F215	F	1.411393	1.263630	0.333437
F216	F	1.744726	1.596963	0.666770
H217	H	1.057663	0.778234	0.000108
H218	H	1.390997	1.111567	0.333442
H219	H	1.724330	1.444900	0.666775
H220	H	1.022870	0.072139	0.796400
H221	H	1.356203	0.405473	1.129733
H222	H	1.689536	0.738806	1.463066
F223	F	1.071471	0.532580	0.000116
F224	F	1.404804	0.865913	0.333450
F225	F	1.738137	1.199246	0.666783
H226	H	1.051076	0.380509	0.000125
H227	H	1.384409	0.713843	0.333458
H228	H	1.717742	1.047176	0.666791
H229	H	1.022832	0.072120	0.360817
H230	H	1.356165	0.405453	0.694151
H231	H	1.689498	0.738787	1.027484
F232	F	0.815688	0.259097	0.628586
F233	F	1.149021	0.592430	0.961920
F234	F	1.482355	0.925764	1.295253
F235	F	0.815670	0.259082	0.371659
F236	F	1.149003	0.592415	0.704992
F237	F	1.482336	0.925749	1.038325
F238	F	0.815654	0.259078	0.193006
F239	F	1.148987	0.592411	0.526339
F240	F	1.482321	0.925745	0.859672
