data_functionalizedCrystal
_audit_creation_method	'MofGen! by Chris Wilmer'
_symmetry_space_group_name_H-M	'P1'
_symmetry_Int_Tables_number	1
_symmetry_cell_setting	triclinic
loop_
_symmetry_equiv_pos_as_xyz
  x,y,z
_cell_length_a	12.837943
_cell_length_b	10.540510
_cell_length_c	11.295483
_cell_angle_alpha	94.138442
_cell_angle_beta	85.461227
_cell_angle_gamma	89.671125
loop_
_atom_site_label
_atom_site_type_symbol
_atom_site_fract_x
_atom_site_fract_y
_atom_site_fract_z
O1	O	1.384794	0.322577	-0.098991
O2	O	1.082869	0.306261	-0.098999
O3	O	1.240736	0.130469	-0.098994
O4	O	1.226927	0.498370	-0.098996
O5	O	1.226870	0.145883	0.099056
O6	O	1.069003	0.321675	0.099052
O7	O	1.370928	0.337991	0.099059
Cu8	Cu	1.218700	0.331241	0.117139
Cu9	Cu	1.235098	0.313012	-0.117078
O10	O	1.213061	0.513784	0.099055
C11	C	1.037276	0.308457	0.000025
C12	C	0.922078	0.292018	0.000022
C13	C	0.682565	0.489638	0.000039
C14	C	0.574326	0.474199	0.000037
C15	C	0.597360	0.245701	0.000025
C16	C	0.705599	0.261141	0.000027
C17	C	0.748197	0.383113	0.000032
C18	C	0.856438	0.398551	0.000025
C19	C	0.879469	0.170055	0.000022
C20	C	0.771231	0.154615	0.000020
C21	C	1.232774	0.090759	0.000029
C22	C	1.229696	-0.050530	0.000021
C23	C	1.339333	-0.255900	0.000478
C24	C	1.342649	-0.108979	0.000025
C25	C	1.179793	-0.110443	-0.113074
C26	C	1.177315	-0.257484	-0.113163
C27	C	1.159195	-0.240022	0.112057
C28	C	1.164448	-0.092976	0.113546
C29	C	1.416522	0.335796	0.000033
C30	C	1.531720	0.352234	0.000028
C31	C	1.221023	0.553493	0.000030
C32	C	1.224102	0.694781	0.000029
N33	N	1.207174	0.344062	0.281875
N34	N	1.246632	0.300182	-0.281814
C35	C	1.329602	0.207817	0.531168
C36	C	1.320899	0.217516	0.655831
C37	C	1.181061	0.373151	0.655868
C38	C	1.189764	0.363452	0.531204
C39	C	1.264038	0.280784	0.468859
C40	C	1.272745	0.271092	0.344193
C41	C	1.132902	0.426720	0.344231
C42	C	1.124199	0.436419	0.468895
H43	H	0.520891	0.560944	0.000045
O44	O	1.062172	0.505422	0.277030
H45	H	1.080694	0.484786	0.179869
H46	H	0.932920	0.083313	0.000009
H47	H	1.382215	-0.068355	0.081095
H48	H	1.390085	0.140514	0.480406
O49	O	1.100956	0.462310	0.723119
H50	H	1.105926	0.456795	0.820273
H51	H	1.063724	0.503723	0.519671
O52	O	1.352843	0.181925	0.276940
H53	H	1.396962	0.132805	0.341217
O54	O	1.070034	-0.060213	-0.118651
H55	H	1.036559	-0.104023	-0.199333
O56	O	0.902391	0.530100	0.000047
H57	H	0.838562	0.601580	0.000068
O58	O	0.551406	0.114154	0.000037
H59	H	0.465114	0.121321	0.000039
H60	H	0.717249	0.588953	0.000041
H61	H	1.374286	0.158097	0.706560
O62	O	1.198539	-0.282189	0.225611
H63	H	1.191160	-0.386927	0.227241
H64	H	0.736531	0.055309	0.000029
O65	O	1.390104	-0.296665	0.107930
H66	H	1.333760	-0.352528	0.162159
O67	O	1.240729	-0.072638	-0.224684
H68	H	1.271640	-0.159382	-0.277762
H69	H	1.388731	-0.300876	-0.080168
O70	O	1.410438	-0.073083	-0.107553
H71	H	1.440970	-0.160718	-0.159463
H72	H	1.093191	-0.290159	-0.118289
O73	O	1.237914	-0.313444	-0.224978
H74	H	1.201498	-0.282378	-0.304139
H75	H	1.200663	-0.053230	0.197213
O76	O	1.054589	-0.039248	0.122603
H77	H	1.014992	-0.073547	0.042669
O78	O	1.046791	-0.281634	0.113088
H79	H	1.037146	-0.348420	0.034244
