data_functionalizedCrystal
_audit_creation_method	'MofGen! by Chris Wilmer'
_symmetry_space_group_name_H-M	'P1'
_symmetry_Int_Tables_number	1
_symmetry_cell_setting	triclinic
loop_
_symmetry_equiv_pos_as_xyz
  x,y,z
_cell_length_a	8.634740
_cell_length_b	8.597304
_cell_length_c	7.681481
_cell_angle_alpha	76.508647
_cell_angle_beta	96.618670
_cell_angle_gamma	92.879752
loop_
_atom_site_label
_atom_site_type_symbol
_atom_site_fract_x
_atom_site_fract_y
_atom_site_fract_z
O1	O	2.031468	0.532548	-0.227214
O2	O	1.582517	0.488969	-0.220606
O3	O	1.819271	0.280604	-0.188989
O4	O	1.794714	0.740913	-0.258830
O5	O	1.848412	0.254890	0.107770
O6	O	1.611658	0.463255	0.076154
O7	O	2.060609	0.506833	0.069545
Zn8	Zn	1.840760	0.480962	0.119967
Zn9	Zn	1.802366	0.514841	-0.271027
O10	O	1.823855	0.715198	0.037929
C11	C	1.539637	0.466240	-0.070729
C12	C	1.368455	0.436805	-0.066264
C13	C	1.832828	0.208206	-0.031579
C14	C	1.829790	0.030789	-0.004672
C15	C	2.103488	0.529563	-0.080336
C16	C	2.274670	0.558999	-0.084812
C17	C	1.810297	0.787597	-0.119485
C18	C	1.813335	0.965015	-0.146404
N19	N	1.866974	0.457840	0.386809
N20	N	1.776164	0.537952	-0.537868
H21	H	1.317776	0.309667	-0.047024
H22	H	1.325338	0.686132	-0.104085
H23	H	1.801566	0.044434	-0.288343
H24	H	1.841537	-0.048639	0.137276
C25	C	1.992223	0.347375	0.505153
C26	C	2.165349	0.379064	0.475127
C27	C	2.290595	0.268601	0.593471
C28	C	2.242715	0.126448	0.741840
C29	C	2.069580	0.094752	0.771873
C30	C	1.944334	0.205215	0.653530
H31	H	2.200800	0.484300	0.365289
H32	H	2.418761	0.292066	0.571237
H33	H	2.335429	0.044677	0.829445
H34	H	2.034129	-0.010484	0.881711
H35	H	1.816168	0.181751	0.675763
C36	C	1.650922	0.648412	0.343796
C37	C	1.520687	0.579247	0.227063
C38	C	1.395443	0.689708	0.108714
C39	C	1.400433	0.869335	0.107099
C40	C	1.530673	0.938509	0.223837
C41	C	1.655918	0.828048	0.342186
H42	H	1.516988	0.446268	0.228254
H43	H	1.299030	0.638500	0.022296
H44	H	1.307720	0.951105	0.019490
H45	H	1.534372	1.071488	0.222645
H46	H	1.752330	0.879256	0.428603
