data_functionalizedCrystal
_audit_creation_method	'MofGen! by Chris Wilmer'
_symmetry_space_group_name_H-M	'P1'
_symmetry_Int_Tables_number	1
_symmetry_cell_setting	triclinic
loop_
_symmetry_equiv_pos_as_xyz
  x,y,z
_cell_length_a	15.944499
_cell_length_b	15.944551
_cell_length_c	17.766277
_cell_angle_alpha	89.992686
_cell_angle_beta	89.988049
_cell_angle_gamma	83.488174
loop_
_atom_site_label
_atom_site_type_symbol
_atom_site_fract_x
_atom_site_fract_y
_atom_site_fract_z
O1	O	1.114557	0.108127	-0.062641
O2	O	0.870001	0.121528	-0.062633
O3	O	0.998957	-0.007449	-0.062630
O4	O	0.985601	0.237103	-0.062643
O5	O	0.998935	-0.007455	0.062558
O6	O	0.869979	0.121522	0.062556
O7	O	1.114534	0.108120	0.062548
Cu8	Cu	0.992254	0.114820	0.073982
Cu9	Cu	0.992281	0.114828	-0.074068
O10	O	0.985578	0.237097	0.062545
C11	C	0.838695	0.120976	-0.000037
C12	C	0.745447	0.119331	-0.000034
C13	C	0.453911	0.194263	-0.000049
C14	C	0.514951	0.155315	-0.061773
C15	C	0.409810	0.113355	-0.000051
C16	C	0.514915	0.155287	0.061653
C17	C	0.574719	0.116296	-0.000041
C18	C	0.469623	0.074384	-0.061826
C19	C	0.469580	0.074367	0.061656
C20	C	0.530603	0.035360	-0.000083
C21	C	0.314810	0.111663	-0.000057
C22	C	0.669718	0.117981	-0.000041
C23	C	0.998392	-0.038746	-0.000036
C24	C	0.996729	-0.131992	-0.000035
C25	C	0.912823	-0.346833	-0.000043
C26	C	0.951775	-0.407860	0.061681
C27	C	0.993722	-0.302717	-0.000041
C28	C	0.951817	-0.407837	-0.061745
C29	C	0.990811	-0.467629	-0.000050
C30	C	1.032696	-0.362517	0.061734
C31	C	1.032726	-0.362487	-0.061747
C32	C	1.071737	-0.423497	-0.000008
C33	C	0.995397	-0.207715	-0.000035
C34	C	0.989143	-0.562630	-0.000050
C35	C	1.145840	0.108672	-0.000049
C36	C	1.239089	0.110317	-0.000058
C37	C	0.986144	0.268394	-0.000051
C38	C	0.987806	0.361640	-0.000056
N39	N	0.992242	0.114814	0.178113
N40	N	0.992301	0.114827	-0.178198
C41	C	1.049362	0.057731	0.217501
C42	C	1.049367	0.057727	0.296303
C43	C	0.992259	0.114821	0.335713
C44	C	0.935128	0.171908	0.296316
C45	C	0.935120	0.171905	0.217515
C46	C	0.981258	0.191321	0.460547
C47	C	0.981273	0.191326	0.539346
C48	C	0.992282	0.114831	0.578760
C49	C	1.003294	0.038329	0.539364
C50	C	1.003285	0.038325	0.460564
C51	C	0.992262	0.114830	0.421159
C52	C	1.049411	0.057739	0.703594
C53	C	1.049410	0.057734	0.782397
C54	C	0.935175	0.171922	0.782409
C55	C	0.935172	0.171920	0.703607
C56	C	0.992294	0.114829	0.664204
H57	H	0.535059	0.189542	-0.113956
H58	H	1.066924	-0.342360	-0.113935
H59	H	0.888604	0.218389	0.185445
H60	H	0.888629	0.218393	0.328408
H61	H	0.972311	0.253618	0.571416
H62	H	1.066875	-0.342535	0.113974
H63	H	1.138946	-0.456668	0.000024
H64	H	0.420581	0.261409	-0.000113
H65	H	1.095920	0.011250	0.671511
H66	H	0.917598	-0.427905	-0.113931
C67	C	0.442652	0.028205	-0.132401
H68	H	0.383160	0.027450	-0.131988
H69	H	0.469602	-0.028072	-0.132580
H70	H	0.458543	0.056765	-0.176180
C71	C	1.112185	-0.005075	0.174162
H72	H	1.146199	-0.039077	0.208911
H73	H	1.147146	0.025152	0.143404
H74	H	1.081959	-0.040060	0.143440
H75	H	1.012259	-0.023961	0.571453
C76	C	0.575435	-0.055422	-0.000124
H77	H	0.559940	-0.084021	-0.044008
H78	H	0.559213	-0.084376	0.043309
H79	H	0.634820	-0.053872	0.000287
H80	H	0.449454	0.040172	0.113844
C81	C	0.872356	0.234726	0.660274
H82	H	0.880528	0.226546	0.607700
H83	H	0.881487	0.290787	0.673181
H84	H	0.816294	0.225581	0.673201
H85	H	0.917548	-0.427965	0.113866
H86	H	0.972278	0.253616	0.428464
H87	H	0.534981	0.189519	0.113834
C88	C	0.822115	-0.301813	0.000041
H89	H	0.793498	-0.317233	0.043955
H90	H	0.793095	-0.317978	-0.043361
H91	H	0.823795	-0.242448	-0.000402
H92	H	1.012250	-0.023965	0.428492
C93	C	1.112203	-0.005065	0.339639
H94	H	1.146223	-0.039063	0.304885
H95	H	1.081995	-0.040044	0.370395
H96	H	1.147169	0.025180	0.370362
H97	H	1.095921	0.011246	0.814467
C98	C	0.872358	0.234724	0.825751
H99	H	0.880546	0.226554	0.878323
H100	H	0.816299	0.225577	0.812853
H101	H	0.881485	0.290791	0.812826
