data_functionalizedCrystal
_audit_creation_method	'MofGen! by Chris Wilmer'
_symmetry_space_group_name_H-M	'P1'
_symmetry_Int_Tables_number	1
_symmetry_cell_setting	triclinic
loop_
_symmetry_equiv_pos_as_xyz
  x,y,z
_cell_length_a	21.295411
_cell_length_b	21.295418
_cell_length_c	21.295417
_cell_angle_alpha	90.046319
_cell_angle_beta	90.021644
_cell_angle_gamma	90.043738
loop_
_atom_site_label
_atom_site_type_symbol
_atom_site_fract_x
_atom_site_fract_y
_atom_site_fract_z
Zn1	Zn	-0.356234	-0.962356	0.250415
Zn2	Zn	0.143766	-0.462356	0.750415
Zn3	Zn	-0.250959	-0.962258	0.355667
Zn4	Zn	0.249041	-0.462258	0.855667
Zn5	Zn	-0.250943	-0.857079	0.250445
Zn6	Zn	0.249057	-0.357079	0.750445
Zn7	Zn	-0.356155	-0.857048	0.355680
Zn8	Zn	0.143845	-0.357048	0.855680
O9	O	-0.303573	-0.909685	0.303052
O10	O	0.196427	-0.409685	0.803052
O11	O	-0.342308	-1.050432	0.264360
O12	O	0.157692	-0.550432	0.764360
O13	O	-0.162867	-0.948278	0.341716
O14	O	0.337133	-0.448278	0.841716
O15	O	-0.264937	-0.871098	0.162351
O16	O	0.235063	-0.371098	0.662351
O17	O	-0.264963	-1.050361	0.341688
O18	O	0.235037	-0.550361	0.841688
O19	O	-0.342293	-0.948444	0.162330
O20	O	0.157707	-0.448444	0.662330
O21	O	-0.162856	-0.871003	0.264410
O22	O	0.337144	-0.371003	0.764410
O23	O	-0.264861	-0.768985	0.264422
O24	O	0.235139	-0.268985	0.764422
O25	O	-0.444255	-0.871046	0.341709
O26	O	0.055745	-0.371046	0.841709
O27	O	-0.342160	-0.768963	0.341738
O28	O	0.157840	-0.268963	0.841738
O29	O	-0.444313	-0.948415	0.264372
O30	O	0.055687	-0.448415	0.764372
O31	O	-0.264887	-0.948248	0.443758
O32	O	0.235113	-0.448248	0.943758
O33	O	-0.342175	-0.870951	0.443767
O34	O	0.157825	-0.370951	0.943767
C35	C	-0.303500	-0.746134	0.303085
C36	C	0.196500	-0.246134	0.803085
C37	C	-0.303484	-0.676166	0.303114
C38	C	0.196516	-0.176166	0.803114
C39	C	-0.303538	-0.909603	0.466603
C40	C	0.196462	-0.409603	0.966603
C41	C	-0.303544	-0.909625	0.536571
C42	C	0.196456	-0.409625	1.036571
C43	C	-0.467763	-0.909738	0.303038
C44	C	0.032237	-0.409738	0.803038
C45	C	-0.537731	-0.909760	0.303033
C46	C	-0.037731	-0.409760	0.803033
C47	C	-0.570629	-0.950044	0.262761
C48	C	-0.070629	-0.450044	0.762761
C49	C	-0.636371	-0.950043	0.262734
C50	C	-0.136371	-0.450043	0.762734
C51	C	-0.669214	-0.909765	0.302989
C52	C	-0.169214	-0.409765	0.802989
C53	C	-0.636308	-0.869473	0.343263
C54	C	-0.136308	-0.369473	0.843263
C55	C	-0.570567	-0.869470	0.343285
C56	C	-0.070567	-0.369470	0.843285
N57	N	-0.772428	-0.904908	0.358058
N58	N	-0.272428	-0.404908	0.858058
N59	N	-0.834879	-0.904914	0.358036
N60	N	-0.334879	-0.404914	0.858036
C61	C	-0.867289	-0.909769	0.302926
C62	C	-0.367289	-0.409769	0.802926
N63	N	-0.834888	-0.914629	0.247837
N64	N	-0.334888	-0.414629	0.747837
N65	N	-0.772430	-0.914627	0.247860
N66	N	-0.272430	-0.414627	0.747860
C67	C	-0.740499	-0.909763	0.302970
C68	C	-0.240499	-0.409763	0.802970
C69	C	-0.971472	-0.950054	0.262621
C70	C	-0.471472	-0.450054	0.762621
C71	C	-1.037216	-0.950049	0.262593
C72	C	-0.537216	-0.450049	0.762593
C73	C	-1.037151	-0.869482	0.343128
C74	C	-0.537151	-0.369482	0.843128
C75	C	-0.971409	-0.869484	0.343151
C76	C	-0.471409	-0.369484	0.843151
C77	C	-0.938573	-0.909773	0.302898
C78	C	-0.438573	-0.409773	0.802898
C79	C	-0.140021	-0.909670	0.303019
C80	C	0.359979	-0.409670	0.803019
C81	C	-0.070054	-0.909769	0.302848
C82	C	0.429946	-0.409769	0.802848
C83	C	-0.303646	-1.073876	0.303019
C84	C	0.196354	-0.573876	0.803019
C85	C	-0.303677	-1.143844	0.303005
C86	C	0.196323	-0.643844	0.803005
C87	C	-0.343674	-0.643304	0.343426
C88	C	0.156326	-0.143304	0.843426
C89	C	-0.343702	-0.577561	0.343410
C90	C	0.156298	-0.077561	0.843410
C91	C	-0.303530	-0.544683	0.303090
C92	C	0.196470	-0.044683	0.803090
C93	C	-0.263337	-0.577553	0.262770
C94	C	0.236663	-0.077553	0.762770
C95	C	-0.263315	-0.643294	0.262783
C96	C	0.236685	-0.143294	0.762783
N97	N	-0.248472	-0.441407	0.298163
N98	N	0.251528	0.058593	0.798163
N99	N	-0.248495	-0.378956	0.298155
N100	N	0.251505	0.121044	0.798155
C101	C	-0.303596	-0.346608	0.303050
C102	C	0.196404	0.153392	0.803050
N103	N	-0.358675	-0.379072	0.307965
N104	N	0.141325	0.120928	0.807965
N105	N	-0.358650	-0.441529	0.307976
N106	N	0.141350	0.058471	0.807976
C107	C	-0.303550	-0.473398	0.303072
C108	C	0.196450	0.026602	0.803072
C109	C	-0.343820	-0.242461	0.343346
C110	C	0.156180	0.257539	0.843346
C111	C	-0.343849	-0.176717	0.343326
C112	C	0.156151	0.323283	0.843326
C113	C	-0.263479	-0.176710	0.262690
C114	C	0.236521	0.323290	0.762690
C115	C	-0.263455	-0.242453	0.262707
C116	C	0.236545	0.257547	0.762707
C117	C	-0.303625	-0.275324	0.303038
C118	C	0.196375	0.224676	0.803038
C119	C	-0.303622	-0.909785	0.138861
C120	C	0.196378	-0.409785	0.638861
C121	C	-0.303642	-0.909828	0.068893
C122	C	0.196358	-0.409828	0.568893
C123	C	-0.263342	-0.949910	0.569412
C124	C	0.236658	-0.449910	1.069412
C125	C	-0.263356	-0.949939	0.635155
C126	C	0.236644	-0.449939	1.135155
C127	C	-0.303566	-0.909673	0.668054
C128	C	0.196434	-0.409673	1.168054
C129	C	-0.343776	-0.869386	0.635205
C130	C	0.156224	-0.369386	1.135205
C131	C	-0.343765	-0.869362	0.569464
C132	C	0.156235	-0.369362	1.069464
N133	N	-0.308340	-0.854606	0.771336
N134	N	0.191660	-0.354606	1.271336
N135	N	-0.308347	-0.854630	0.833787
N136	N	0.191653	-0.354630	1.333787
C137	C	-0.303602	-0.909743	0.866129
C138	C	0.196398	-0.409743	1.366129
N139	N	-0.298838	-0.964832	0.833659
N140	N	0.201162	-0.464832	1.333659
N141	N	-0.298828	-0.964807	0.771202
N142	N	0.201172	-0.464807	1.271202
C143	C	-0.303582	-0.909695	0.739339
C144	C	0.196418	-0.409695	1.239339
C145	C	-0.263413	-0.950063	0.970255
C146	C	0.236587	-0.450063	1.470255
C147	C	-0.263431	-0.950094	1.035999
C148	C	0.236569	-0.450094	1.535999
C149	C	-0.343848	-0.869535	1.036048
C150	C	0.156152	-0.369535	1.536048
C151	C	-0.343833	-0.869510	0.970305
C152	C	0.156167	-0.369510	1.470305
C153	C	-0.303612	-0.909773	0.937413
C154	C	0.196388	-0.409773	1.437413
H155	H	-0.663162	-0.982846	0.229937
H156	H	-0.163162	-0.482846	0.729937
H157	H	-0.230773	-0.149942	0.229857
H158	H	0.269227	0.350058	0.729857
H159	H	-0.376384	-0.670063	0.376266
H160	H	0.123616	-0.170063	0.876266
O161	O	-0.224351	-0.274281	0.223532
O162	O	0.275649	0.225719	0.723532
C163	C	-0.188910	-0.231167	0.187928
C164	C	0.311090	0.268833	0.687928
H165	H	-0.186699	-0.184276	0.213699
H166	H	0.313301	0.315724	0.713699
H167	H	-0.139319	-0.250114	0.181143
H168	H	0.360681	0.249886	0.681143
H169	H	-0.212054	-0.224249	0.140152
H170	H	0.287946	0.275751	0.640152
O171	O	-0.382767	-0.545727	0.382627
O172	O	0.117233	-0.045727	0.882627
C173	C	-0.418231	-0.588838	0.418211
C174	C	0.081769	-0.088838	0.918211
H175	H	-0.392428	-0.635670	0.420366
H176	H	0.107572	-0.135670	0.920366
H177	H	-0.424862	-0.569797	0.467812
H178	H	0.075138	-0.069797	0.967812
H179	H	-0.466079	-0.595907	0.395229
H180	H	0.033921	-0.095907	0.895229
O181	O	-0.382925	-0.830338	0.667132
O182	O	0.117075	-0.330338	1.167132
C183	C	-0.445679	-0.844050	0.651008
C184	C	0.054321	-0.344050	1.151008
H185	H	-0.448916	-0.894331	0.632876
H186	H	0.051084	-0.394331	1.132876
H187	H	-0.476777	-0.838628	0.694232
H188	H	0.023223	-0.338628	1.194232
H189	H	-0.462087	-0.810280	0.612878
H190	H	0.037913	-0.310280	1.112878
H191	H	-0.944736	-0.982857	0.229842
H192	H	-0.444736	-0.482857	0.729842
O193	O	-0.668236	-0.830438	0.382437
O194	O	-0.168236	-0.330438	0.882437
C195	C	-0.706297	-0.866254	0.423066
C196	C	-0.206297	-0.366254	0.923066
H197	H	-0.686519	-0.915829	0.426950
H198	H	-0.186519	-0.415829	0.926950
H199	H	-0.707022	-0.843457	0.471515
H200	H	-0.207022	-0.343457	0.971515
H201	H	-0.756124	-0.868437	0.403588
H202	H	-0.256124	-0.368437	0.903588
H203	H	-0.230593	-0.982696	0.542633
H204	H	0.269407	-0.482696	1.042633
H205	H	-0.376591	-0.836752	1.062833
H206	H	0.123409	-0.336752	1.562833
H207	H	-0.543782	-0.836663	0.376078
H208	H	-0.043782	-0.336663	0.876078
O209	O	-0.224293	-0.545716	0.223545
O210	O	0.275707	-0.045716	0.723545
C211	C	-0.188802	-0.588822	0.187978
C212	C	0.311198	-0.088822	0.687978
H213	H	-0.214575	-0.635714	0.185844
H214	H	0.285425	-0.135714	0.685844
H215	H	-0.182185	-0.569867	0.138368
H216	H	0.317815	-0.069867	0.638368
H217	H	-0.140948	-0.595740	0.210960
H218	H	0.359052	-0.095740	0.710960
H219	H	-0.230619	-0.982746	0.661899
H220	H	0.269381	-0.482746	1.161899
O221	O	-1.069246	-0.989209	0.223555
O222	O	-0.569246	-0.489209	0.723555
C223	C	-1.107297	-1.029852	0.259373
C224	C	-0.607297	-0.529852	0.759373
H225	H	-1.117125	-1.007621	0.307079
H226	H	-0.617125	-0.507621	0.807079
H227	H	-1.153534	-1.038298	0.233714
H228	H	-0.653534	-0.538298	0.733714
H229	H	-1.082001	-1.076500	0.266289
H230	H	-0.582001	-0.576500	0.766289
H231	H	-0.230664	-0.982850	0.943473
H232	H	0.269336	-0.482850	1.443473
H233	H	-1.063891	-0.836680	0.375898
H234	H	-0.563891	-0.336680	0.875898
O235	O	-0.939546	-0.830334	0.382333
O236	O	-0.439546	-0.330334	0.882333
C237	C	-0.982628	-0.794769	0.417847
C238	C	-0.482628	-0.294769	0.917847
H239	H	-1.029509	-0.820554	0.420008
H240	H	-0.529509	-0.320554	0.920008
H241	H	-0.963625	-0.788021	0.467451
H242	H	-0.463625	-0.288021	0.967451
H243	H	-0.989587	-0.746976	0.394799
H244	H	-0.489587	-0.246976	0.894799
O245	O	-0.382754	-0.274424	0.382584
O246	O	0.117246	0.225576	0.882584
C247	C	-0.346828	-0.312380	0.423190
C248	C	0.153172	0.187620	0.923190
H249	H	-0.297250	-0.292508	0.427002
H250	H	0.202750	0.207492	0.927002
H251	H	-0.369508	-0.313100	0.471667
H252	H	0.130492	0.186900	0.971667
H253	H	-0.344677	-0.362222	0.403735
H254	H	0.155323	0.137778	0.903735
O255	O	-0.382730	-0.830194	0.537490
O256	O	0.117270	-0.330194	1.037490
C257	C	-0.346831	-0.789528	0.499545
C258	C	0.153169	-0.289528	0.999545
H259	H	-0.299151	-0.811749	0.489698
H260	H	0.200849	-0.311749	0.989698
H261	H	-0.372451	-0.781062	0.453310
H262	H	0.127549	-0.281062	0.953310
H263	H	-0.339863	-0.742892	0.524941
H264	H	0.160137	-0.242892	1.024941
H265	H	-0.230588	-0.670050	0.229954
H266	H	0.269412	-0.170050	0.729954
O267	O	-0.382910	-0.144890	0.382548
O268	O	0.117090	0.355110	0.882548
C269	C	-0.418367	-0.188004	0.418135
C270	C	0.081633	0.311996	0.918135
H271	H	-0.392562	-0.234836	0.420283
H272	H	0.107438	0.265164	0.920283
H273	H	-0.424990	-0.168967	0.467739
H274	H	0.075010	0.331033	0.967739
H275	H	-0.466219	-0.195074	0.395162
H276	H	0.033781	0.304926	0.895162
O277	O	-0.224318	-0.989249	1.067805
O278	O	0.275682	-0.489249	1.567805
C279	C	-0.188829	-1.024789	1.024673
C280	C	0.311171	-0.524789	1.524673
H281	H	-0.186610	-0.998987	0.977843
H282	H	0.313390	-0.498987	1.477843
H283	H	-0.139244	-1.031532	1.043688
H284	H	0.360756	-0.531532	1.543688
H285	H	-0.211935	-1.072586	1.017609
H286	H	0.288065	-0.572586	1.517609
H287	H	-0.376567	-0.836704	0.943564
H288	H	0.123433	-0.336704	1.443564
H289	H	-0.543898	-0.982850	0.229984
H290	H	-0.043898	-0.482850	0.729984
