data_functionalizedCrystal
_audit_creation_method	'MofGen! by Chris Wilmer'
_symmetry_space_group_name_H-M	'P1'
_symmetry_Int_Tables_number	1
_symmetry_cell_setting	triclinic
loop_
_symmetry_equiv_pos_as_xyz
  x,y,z
_cell_length_a	27.440280
_cell_length_b	27.440280
_cell_length_c	14.446369
_cell_angle_alpha	59.991108
_cell_angle_beta	90.003285
_cell_angle_gamma	60.007024
loop_
_atom_site_label
_atom_site_type_symbol
_atom_site_fract_x
_atom_site_fract_y
_atom_site_fract_z
Zr1	Zr	0.469578	0.533360	-0.121457
O2	O	0.391773	0.635039	-0.269302
O3	O	0.493419	0.431690	-0.076123
O4	O	0.493432	0.533362	-0.269261
O5	O	0.391761	0.533364	0.076173
O6	O	0.573635	0.533352	-0.269242
O7	O	0.391760	0.533368	-0.076164
O8	O	0.573612	0.351481	0.076246
O9	O	0.391784	0.715235	-0.269315
O10	O	0.563454	0.473498	-0.056789
O11	O	0.503601	0.473502	0.056885
O12	O	0.503616	0.593207	-0.170510
O13	O	0.443763	0.593211	-0.056837
Zr14	Zr	0.597495	0.533338	0.121533
Zr15	Zr	0.597492	0.533345	-0.121427
Zr16	Zr	0.469580	0.533353	0.121503
Zr17	Zr	0.469597	0.661263	-0.121479
Zr18	Zr	0.597476	0.405435	0.121555
O19	O	0.573653	0.635008	0.076199
O20	O	0.573650	0.635018	-0.269259
O21	O	0.391776	0.635029	0.076156
O22	O	0.675300	0.431659	0.269378
O23	O	0.675297	0.431669	-0.076080
O24	O	0.493423	0.431680	0.269335
O25	O	0.675312	0.533335	-0.076097
O26	O	0.573640	0.533337	0.269337
O27	O	0.493438	0.533346	0.269318
O28	O	0.675313	0.533330	0.076240
O29	O	0.493459	0.715223	-0.269291
O30	O	0.573614	0.351475	0.269367
O31	O	0.675288	0.351463	0.269392
O32	O	0.675287	0.351469	0.076271
O33	O	0.391786	0.715230	-0.076195
O34	O	0.493461	0.715218	-0.076170
O35	O	0.563456	0.473492	0.170586
O36	O	0.623310	0.473488	0.056913
O37	O	0.563472	0.593197	-0.056809
O38	O	0.503618	0.593200	0.056865
C39	C	0.533513	0.373362	0.000065
C40	C	0.533505	0.319064	0.000074
C41	C	0.373535	0.533368	-0.000000
C42	C	0.319232	0.533374	-0.000013
C43	C	0.577721	0.040173	0.083985
C44	C	0.577715	0.091195	0.083989
O45	O	0.615296	0.080012	0.155356
N46	N	0.533531	0.160894	0.000051
C47	C	0.489352	0.179570	-0.083903
O48	O	0.451769	0.243540	-0.155299
C49	C	0.489360	0.128549	-0.083911
C50	C	0.533544	0.058850	0.000039
C51	C	0.621902	-0.029522	0.167927
C52	C	0.621907	-0.080541	0.167924
C53	C	0.577730	-0.061863	0.083978
C54	C	0.533549	0.007832	0.000035
C55	C	0.445184	0.147226	-0.167869
C56	C	0.445197	0.096197	-0.167871
C57	C	0.489381	0.026499	-0.083921
C58	C	0.489377	-0.024509	-0.083914
N59	N	0.533562	-0.094208	0.000024
C60	C	0.577739	-0.112885	0.083970
C61	C	0.489338	0.286716	-0.083881
C62	C	0.489326	0.337737	-0.083869
C63	C	0.577691	0.249358	0.084022
C64	C	0.577700	0.198336	0.084014
C65	C	0.533523	0.217017	0.000057
C66	C	0.577745	-0.220024	0.083956
C67	C	0.577744	-0.271043	0.083948
C68	C	0.489382	-0.182659	-0.083946
C69	C	0.489380	-0.131645	-0.083935
C70	C	0.533567	-0.150332	0.000022
O71	O	0.451818	-0.013378	-0.155247
O72	O	0.615320	-0.176854	0.155345
C73	C	0.013769	0.470851	0.059431
C74	C	-0.037249	0.470847	0.059441
O75	O	-0.037073	0.417705	0.109960
N76	N	-0.094001	0.533333	0.000078
C77	C	-0.099733	0.595827	-0.059289
O78	O	-0.152689	0.648976	-0.109780
C79	C	-0.048715	0.595830	-0.059292
C80	C	0.008036	0.533340	0.000065
C81	C	0.070518	0.408366	0.118784
C82	C	0.121533	0.408370	0.118772
C83	C	0.115799	0.470859	0.059407
C84	C	0.059051	0.533344	0.000053
C85	C	-0.054448	0.658323	-0.118652
C86	C	-0.003424	0.658321	-0.118648
C87	C	0.053327	0.595831	-0.059291
C88	C	0.104332	0.595837	-0.059324
N89	N	0.161083	0.533351	0.000039
C90	C	0.166817	0.470862	0.059404
C91	C	-0.206872	0.595816	-0.059277
C92	C	-0.257889	0.595814	-0.059282
C93	C	-0.195401	0.470833	0.059450
C94	C	-0.144383	0.470837	0.059447
C95	C	-0.150120	0.533330	0.000086
C96	C	0.273949	0.470876	0.059374
C97	C	0.324966	0.470885	0.059352
C98	C	0.262474	0.595865	-0.059374
C99	C	0.211462	0.595856	-0.059358
C100	C	0.217203	0.533356	0.000024
O101	O	0.104202	0.648953	-0.109814
O102	O	0.219775	0.417722	0.109899
C103	C	0.693537	0.533330	0.000076
C104	C	0.747840	0.533324	0.000089
C105	C	0.533533	0.533358	-0.303868
C106	C	0.533532	0.533361	-0.407011
C107	C	0.533560	0.693336	0.000011
C108	C	0.533568	0.747634	0.000002
C109	C	0.495610	0.608853	-0.625401
C110	C	0.495771	0.608904	-0.518170
C111	C	0.598565	0.495854	-0.410313
C112	C	0.598362	0.496333	-0.518082
C113	C	0.506960	0.494789	-0.516740
C114	C	0.505640	0.496212	-0.410771
C115	C	0.533539	0.533340	0.303944
C116	C	0.533540	0.533337	0.407087
C117	C	0.693514	0.373343	0.000103
C118	C	0.747809	0.319039	0.000125
C119	C	0.533516	0.373353	0.303971
C120	C	0.533509	0.319052	0.407123
C121	C	0.693517	0.373335	0.304009
C122	C	0.747813	0.319027	0.407174
C123	C	0.373556	0.693364	-0.303933
C124	C	0.319260	0.747671	-0.407098
C125	C	0.373559	0.693355	-0.000027
C126	C	0.319264	0.747660	-0.000049
C127	C	0.533557	0.693345	-0.303895
C128	C	0.533564	0.747646	-0.407047
C129	C	0.742063	0.293542	-0.059226
C130	C	0.793074	0.242524	-0.059228
C131	C	0.849831	0.217001	0.000128
C132	C	0.855576	0.242502	0.059481
C133	C	0.804565	0.293523	0.059475
C134	C	0.564750	0.293546	0.514925
C135	C	0.564741	0.242532	0.611857
C136	C	0.533495	0.217021	0.600983
C137	C	0.502250	0.242531	0.493169
C138	C	0.502256	0.293548	0.396240
C139	C	0.804559	0.293522	0.396285
C140	C	0.855581	0.242501	0.493210
C141	C	0.849855	0.216983	0.601023
C142	C	0.793103	0.242494	0.611910
C143	C	0.742083	0.293517	0.514986
C144	C	0.262514	0.773183	-0.396209
C145	C	0.211492	0.824219	-0.493134
C146	C	0.217218	0.849740	-0.600947
C147	C	0.273970	0.824226	-0.611833
C148	C	0.324990	0.773194	-0.514909
C149	C	0.325010	0.773162	0.059292
C150	C	0.273999	0.824193	0.059268
C151	C	0.217242	0.849719	-0.000092
C152	C	0.211497	0.824215	-0.059440
C153	C	0.262507	0.773187	-0.059422
C154	C	0.564816	0.773141	-0.396137
C155	C	0.564834	0.824156	-0.493050
C156	C	0.533596	0.849679	-0.600871
C157	C	0.502343	0.824178	-0.611779
C158	C	0.502329	0.773161	-0.514867
H159	H	0.613725	-0.327796	0.152315
C160	C	0.076838	0.339617	0.184085
N161	N	0.081605	0.287831	0.233262
H162	H	0.891362	0.175456	0.000124
H163	H	0.901794	0.221713	0.107806
H164	H	0.533613	0.891221	-0.679774
C165	C	0.679663	0.321566	0.526983
N166	N	0.632649	0.342691	0.536027
H167	H	0.167738	0.357484	0.167102
C168	C	0.786740	0.214476	-0.124512
N169	N	0.781969	0.193350	-0.173680
H170	H	0.613726	-0.235249	0.152322
C171	C	0.440914	0.533156	-0.411491
N172	N	0.392163	0.560983	-0.412029
H173	H	0.590254	0.752369	-0.308352
H174	H	0.533495	0.175479	0.679919
H175	H	0.459798	0.518957	-0.566778
C176	C	0.670527	-0.157207	0.260251
N177	N	0.707155	-0.214951	0.329787
C178	C	0.626310	0.121669	0.176355
N179	N	0.662928	0.063924	0.245907
C180	C	0.599120	0.214473	0.730441
N181	N	0.625017	0.193339	0.819756
C182	C	0.467884	0.214458	0.481227
N183	N	0.442004	0.193307	0.472236
C184	C	0.810897	0.321557	0.124783
N185	N	0.815670	0.342669	0.173978
H186	H	0.809233	0.314291	0.308507
H187	H	0.175669	0.891293	-0.679859
C188	C	0.638626	0.421486	-0.482056
N189	N	0.668958	0.365111	-0.454919
H190	H	0.278689	0.844950	0.107600
H191	H	0.590194	0.314312	0.523801
C192	C	0.467894	0.321592	0.277659
N193	N	0.442011	0.342710	0.188345
C194	C	0.627511	0.531042	-0.407444
N195	N	0.649308	0.557552	-0.405292
C196	C	0.670503	-0.050083	0.260285
N197	N	0.707109	-0.065576	0.329861
C198	C	0.468008	0.852236	-0.730394
N199	N	0.442154	0.873364	-0.819738
C200	C	0.431075	0.648667	-0.520381
N201	N	0.382344	0.678623	-0.522058
H202	H	0.257840	0.752407	-0.308431
C203	C	0.918002	0.214443	0.481209
N204	N	0.965017	0.193309	0.472167
C205	C	0.599214	0.852200	-0.481026
N206	N	0.625107	0.873322	-0.471966
C207	C	0.280258	0.852300	-0.730439
N208	N	0.284993	0.873442	-0.819775
C209	C	0.396595	0.116755	-0.260229
N210	N	0.359987	0.132239	-0.329790
C211	C	0.905985	0.160851	0.707632
N212	N	0.948265	0.118570	0.787926
H213	H	0.371194	0.752423	-0.523789
H214	H	0.788450	0.221710	0.699704
H215	H	0.371220	0.752382	0.107637
C216	C	0.626290	0.228821	0.176359
N217	N	0.662892	0.213357	0.245901
C218	C	0.467937	0.745131	-0.526887
N219	N	0.442030	0.724023	-0.535949
C220	C	0.149070	0.852274	-0.481133
N221	N	0.102056	0.873403	-0.472091
C222	C	0.161134	0.905848	-0.000095
N223	N	0.118876	0.948122	-0.000090
C224	C	0.149058	0.852291	-0.124713
N225	N	0.102028	0.873434	-0.173866
H226	H	0.257820	0.752425	-0.107741
H227	H	0.695853	0.314323	-0.107575
H228	H	0.534456	0.439159	-0.489276
H229	H	0.453341	0.394486	-0.152217
H230	H	0.409209	0.203971	-0.236238
C231	C	0.440772	-0.054973	-0.176277
N232	N	0.404163	0.002773	-0.245838
C233	C	0.440791	-0.162127	-0.176284
N234	N	0.404195	-0.146663	-0.245840
C235	C	0.440728	0.307276	-0.176230
N236	N	0.404114	0.322765	-0.245786
H237	H	0.371175	0.419996	0.107692
H238	H	0.278633	0.419982	0.107729
C239	C	-0.081960	0.402093	0.124753
N240	N	-0.034944	0.350313	0.173947
H241	H	-0.304094	0.646699	-0.107631
C242	C	-0.213191	0.664568	-0.124603
N243	N	-0.217954	0.716352	-0.173809
H244	H	-0.190741	0.419951	0.107785
C245	C	0.430751	0.648903	-0.698332
N246	N	0.381897	0.679070	-0.753271
C247	C	-0.116866	0.727069	-0.183947
N248	N	-0.163880	0.778852	-0.233129
H249	H	-0.008102	0.709212	-0.166974
H250	H	0.165252	0.646740	-0.107706
H251	H	0.257816	0.646742	-0.107712
H252	H	0.513876	0.638342	-0.680382
H253	H	0.619639	0.522981	-0.568427
C254	C	0.520683	0.648896	-0.521476
N255	N	0.539451	0.679017	-0.523965
C256	C	0.539092	0.421749	-0.303826
N257	N	0.564296	0.365658	-0.223276
C258	C	0.638402	0.420816	-0.304553
N259	N	0.668407	0.364297	-0.224893
