data_functionalizedCrystal
_audit_creation_method	'MofGen! by Chris Wilmer'
_symmetry_space_group_name_H-M	'P1'
_symmetry_Int_Tables_number	1
_symmetry_cell_setting	triclinic
loop_
_symmetry_equiv_pos_as_xyz
  x,y,z
_cell_length_a	6.817900
_cell_length_b	11.102288
_cell_length_c	17.329378
_cell_angle_alpha	90.444385
_cell_angle_beta	103.025558
_cell_angle_gamma	108.605689
loop_
_atom_site_label
_atom_site_type_symbol
_atom_site_fract_x
_atom_site_fract_y
_atom_site_fract_z
V1	V	-4.032529	-0.149862	-0.245029
O2	O	-3.993065	0.033932	-0.240365
O3	O	-4.009846	-0.322860	-0.243353
O4	O	-3.974855	-0.135828	-0.351895
O5	O	-4.028299	-0.154395	-0.131072
V6	V	-4.514026	-0.129264	-0.231399
O7	O	-4.298231	-0.195046	-0.274928
O8	O	-4.698521	-0.084081	-0.201500
O9	O	-4.313502	0.043734	-0.233075
O10	O	-4.670887	-0.313059	-0.236063
O11	O	-4.635653	-0.124732	-0.345356
O12	O	-4.348494	-0.143298	-0.124533
C13	C	-3.861403	-0.365400	-0.239488
C14	C	-3.924083	-0.506752	-0.238830
C15	C	-4.136273	-0.579218	-0.242442
C16	C	-4.195158	-0.712034	-0.241830
C17	C	-3.829640	-0.699907	-0.233991
C18	C	-3.770760	-0.567094	-0.234609
C19	C	-3.816767	-0.126820	-0.377942
C20	C	-3.851066	-0.116491	-0.465305
C21	C	-3.923724	-0.226833	-0.517572
C22	C	-3.955959	-0.217125	-0.599659
C23	C	-3.915520	-0.097073	-0.629477
C24	C	-3.842861	0.013278	-0.577205
C25	C	-3.810642	0.003568	-0.495120
C26	C	-4.009986	-0.061993	-0.876760
C27	C	-4.042205	-0.052292	-0.958851
C28	C	-4.155305	-0.282695	-0.981300
C29	C	-4.123067	-0.292394	-0.899212
C30	C	-4.050422	-0.182044	-0.846947
C31	C	-3.948462	-0.087147	-0.713383
C32	C	-4.017497	-0.191972	-0.763043
C33	C	-4.125288	0.086267	-0.236938
C34	C	-4.041847	0.227618	-0.237601
C35	C	-4.169924	-0.152311	-0.098482
C36	C	-4.114863	-0.162634	-0.011118
H37	H	-4.261121	-0.530092	-0.245878
C38	C	-4.428578	-0.791740	-0.245800
N39	N	-4.604399	-0.851774	-0.248791
C40	C	-3.997732	0.079780	-0.991649
N41	N	-3.964239	0.179251	-1.016353
C42	C	-3.537323	-0.487377	-0.230634
N43	N	-3.361505	-0.427334	-0.227641
C44	C	-3.930042	0.059398	-0.819278
N45	N	-3.869812	0.150836	-0.775979
H46	H	-3.704817	-0.749053	-0.230553
C47	C	-4.235234	-0.404073	-1.038798
N48	N	-4.295449	-0.495500	-1.082106
C49	C	-3.798368	0.145337	-0.610008
N50	N	-3.764842	0.244807	-0.634714
C51	C	-3.730707	0.124954	-0.437626
N52	N	-3.670502	0.216386	-0.394323
H53	H	-4.050429	-0.289718	-0.738761
C54	C	-3.968217	-0.358901	-0.484780
N55	N	-4.001742	-0.458378	-0.460084
H56	H	-4.015130	-0.306978	-0.642211
C57	C	-4.167577	-0.424461	-0.866419
N58	N	-4.201102	-0.523936	-0.841719
H59	H	-3.915535	0.010600	-0.737671
