data_functionalizedCrystal
_audit_creation_method	'MofGen! by Chris Wilmer'
_symmetry_space_group_name_H-M	'P1'
_symmetry_Int_Tables_number	1
_symmetry_cell_setting	triclinic
loop_
_symmetry_equiv_pos_as_xyz
  x,y,z
_cell_length_a	16.625546
_cell_length_b	12.759401
_cell_length_c	12.759393
_cell_angle_alpha	90.020566
_cell_angle_beta	89.964881
_cell_angle_gamma	89.979323
loop_
_atom_site_label
_atom_site_type_symbol
_atom_site_fract_x
_atom_site_fract_y
_atom_site_fract_z
Zn1	Zn	-0.321001	-1.606210	-0.593976
Zn2	Zn	-0.455855	-1.606077	-0.418282
Zn3	Zn	-0.321036	-1.430508	-0.418312
Zn4	Zn	-0.455791	-1.430476	-0.593920
O5	O	-0.388421	-1.518318	-0.506123
O6	O	-0.338902	-1.753213	-0.570680
O7	O	-0.438013	-1.582745	-0.271265
O8	O	-0.208199	-1.453884	-0.441650
O9	O	-0.437979	-1.753116	-0.441599
O10	O	-0.208173	-1.582971	-0.570710
O11	O	-0.338962	-1.453756	-0.271287
O12	O	-0.338900	-1.283483	-0.441596
O13	O	-0.437870	-1.453830	-0.740949
O14	O	-0.437904	-1.283460	-0.570615
O15	O	-0.338840	-1.582940	-0.740990
O16	O	-0.568679	-1.582714	-0.441545
O17	O	-0.568632	-1.453701	-0.570585
C18	C	-0.388399	-1.245350	-0.506103
C19	C	-0.388409	-1.128574	-0.506120
C20	C	-0.336911	-1.073763	-0.573436
C21	C	-0.336916	-0.964039	-0.573441
C22	C	-0.439924	-0.963946	-0.438812
C23	C	-0.439914	-1.073668	-0.438802
C24	C	-0.597912	-1.518218	-0.506079
C25	C	-0.687533	-1.518272	-0.506095
C26	C	-1.015709	-1.518455	-0.506204
C27	C	-0.924400	-1.518401	-0.506177
C28	C	-0.851624	-1.518363	-0.506149
C29	C	-0.760309	-1.518310	-0.506123
C30	C	-0.178112	-1.518446	-0.506190
C31	C	-0.088491	-1.518501	-0.506218
C32	C	-0.388344	-1.518396	-0.780156
C33	C	-0.388311	-1.518430	-0.896933
C34	C	-0.388436	-0.792351	-0.506138
C35	C	-0.388424	-0.909128	-0.506135
C36	C	-0.336738	-1.585663	-0.951818
C37	C	-0.336703	-1.585681	-1.061542
C38	C	-0.439821	-1.451230	-1.061486
C39	C	-0.439851	-1.451208	-0.951764
C40	C	-0.388440	-1.518300	-0.233155
C41	C	-0.388246	-1.518470	-0.116379
H42	H	-0.294980	-0.919417	-0.628255
H43	H	-0.481858	-0.919228	-0.384005
Br44	Br	-0.509841	-1.359947	-0.877270
Br45	Br	-0.509798	-1.148061	-0.347424
H46	H	-0.481785	-1.396502	-1.106144
Br47	Br	-0.266714	-1.676937	-1.136025
Br48	Br	-0.267010	-1.148275	-0.664792
Br49	Br	-0.266789	-1.676890	-0.877406
