data_functionalizedCrystal
_audit_creation_method	'MofGen! by Chris Wilmer'
_symmetry_space_group_name_H-M	'P1'
_symmetry_Int_Tables_number	1
_symmetry_cell_setting	triclinic
loop_
_symmetry_equiv_pos_as_xyz
  x,y,z
_cell_length_a	16.053802
_cell_length_b	16.992697
_cell_length_c	16.992695
_cell_angle_alpha	89.331663
_cell_angle_beta	92.741074
_cell_angle_gamma	92.750118
loop_
_atom_site_label
_atom_site_type_symbol
_atom_site_fract_x
_atom_site_fract_y
_atom_site_fract_z
O1	O	-0.069309	-1.053958	0.163818
O2	O	0.264025	-0.720625	0.497151
O3	O	0.597358	-0.387292	0.830485
O4	O	-0.069337	-0.825560	0.161985
O5	O	0.263997	-0.492226	0.495318
O6	O	0.597330	-0.158893	0.828652
O7	O	-0.069316	-0.938843	0.048702
O8	O	0.264017	-0.605510	0.382035
O9	O	0.597350	-0.272176	0.715368
O10	O	-0.069329	-0.940675	0.277101
O11	O	0.264004	-0.607341	0.610434
O12	O	0.597337	-0.274008	0.943768
O13	O	0.069542	-0.932606	0.054910
O14	O	0.402875	-0.599273	0.388243
O15	O	0.736208	-0.265939	0.721576
O16	O	0.069521	-0.819322	0.168193
O17	O	0.402854	-0.485989	0.501526
O18	O	0.736188	-0.152656	0.834860
O19	O	0.069549	-1.047721	0.170026
O20	O	0.402883	-0.714388	0.503359
O21	O	0.736216	-0.381054	0.836693
Zn22	Zn	0.091582	-0.932531	0.170095
Zn23	Zn	0.424915	-0.599198	0.503428
Zn24	Zn	0.758248	-0.265865	0.836762
Zn25	Zn	-0.091369	-0.940749	0.161916
Zn26	Zn	0.241964	-0.607416	0.495249
Zn27	Zn	0.575297	-0.274083	0.828582
O28	O	0.069529	-0.934438	0.283309
O29	O	0.402862	-0.601104	0.616642
O30	O	0.736195	-0.267771	0.949976
C31	C	0.000089	-0.793081	0.162733
C32	C	0.333422	-0.459748	0.496066
C33	C	0.666755	-0.126414	0.829400
C34	C	0.000078	-0.705597	0.155704
C35	C	0.333411	-0.372264	0.489037
C36	C	0.666745	-0.038930	0.822370
N37	N	0.216441	-0.926929	0.175677
N38	N	0.549774	-0.593596	0.509010
N39	N	0.883108	-0.260262	0.842344
C40	C	0.000112	-0.933369	0.022445
C41	C	0.333446	-0.600035	0.355779
C42	C	0.666779	-0.266702	0.689112
C43	C	0.000111	-0.926340	-0.065039
C44	C	0.333445	-0.593007	0.268294
C45	C	0.666778	-0.259673	0.601627
N46	N	-0.216229	-0.946358	0.156328
N47	N	0.117105	-0.613024	0.489661
N48	N	0.450438	-0.279691	0.822995
C49	C	0.260144	-0.975151	0.127494
C50	C	0.593477	-0.641818	0.460828
C51	C	0.926810	-0.308484	0.794161
C52	C	0.347550	-0.971240	0.131407
C53	C	0.680883	-0.637906	0.464740
C54	C	1.014216	-0.304573	0.798074
C55	C	0.391252	-0.919110	0.183507
C56	C	0.724585	-0.585776	0.516840
C57	C	1.057918	-0.252443	0.850174
C58	C	0.347543	-0.870882	0.231692
C59	C	0.680876	-0.537549	0.565025
C60	C	1.014209	-0.204215	0.898358
C61	C	0.260138	-0.874790	0.227774
C62	C	0.593472	-0.541457	0.561108
C63	C	0.926805	-0.208123	0.894441
C64	C	0.652658	-0.902038	0.200595
C65	C	0.985991	-0.568705	0.533929
C66	C	1.319325	-0.235371	0.867262
C67	C	0.740069	-0.898136	0.204511
C68	C	1.073402	-0.564802	0.537844
C69	C	1.406735	-0.231469	0.871177
C70	C	0.740070	-0.998492	0.104224
C71	C	1.073403	-0.665159	0.437558
C72	C	1.406736	-0.331826	0.770891
C73	C	0.652664	-1.002399	0.100315
C74	C	0.985997	-0.669066	0.433649
C75	C	1.319330	-0.335732	0.766982
C76	C	0.608962	-0.954169	0.148497
C77	C	0.942296	-0.620835	0.481830
C78	C	1.275629	-0.287502	0.815164
N79	N	0.480595	-0.915112	0.187509
N80	N	0.813928	-0.581779	0.520843
N81	N	1.147261	-0.248445	0.854176
N82	N	0.519621	-0.958163	0.144490
N83	N	0.852954	-0.624829	0.477823
N84	N	1.186288	-0.291496	0.811157
C85	C	0.000074	-0.659606	0.223521
C86	C	0.333407	-0.326273	0.556855
C87	C	0.666741	0.007061	0.890188
C88	C	0.000085	-0.577405	0.216913
C89	C	0.333418	-0.244072	0.550246
C90	C	0.666751	0.089262	0.883579
C91	C	0.000093	-0.541196	0.142485
C92	C	0.333427	-0.207863	0.475819
C93	C	0.666760	0.125470	0.809152
C94	C	0.000100	-0.587193	0.074663
C95	C	0.333433	-0.253860	0.407996
C96	C	0.666766	0.079474	0.741329
C97	C	0.000095	-0.669392	0.081272
C98	C	0.333428	-0.336059	0.414606
C99	C	0.666762	-0.002726	0.747939
C100	C	0.000113	-0.295881	0.115091
C101	C	0.333447	0.037452	0.448425
C102	C	0.666780	0.370786	0.781758
C103	C	0.000115	-0.213676	0.108487
C104	C	0.333449	0.119658	0.441820
C105	C	0.666782	0.452991	0.775153
C106	C	0.000102	-0.203893	0.250737
C107	C	0.333435	0.129440	0.584071
C108	C	0.666769	0.462773	0.917404
C109	C	0.000092	-0.286095	0.257340
C110	C	0.333426	0.047238	0.590674
C111	C	0.666759	0.380572	0.924007
C112	C	0.000103	-0.332084	0.189518
C113	C	0.333437	0.001249	0.522851
C114	C	0.666770	0.334582	0.856184
N115	N	0.000101	-0.457174	0.135728
N116	N	0.333435	-0.123840	0.469062
N117	N	0.666768	0.209493	0.802395
N118	N	0.000101	-0.416105	0.196276
N119	N	0.333434	-0.082772	0.529609
N120	N	0.666768	0.250562	0.862942
C121	C	0.000118	-0.080200	0.169277
C122	C	0.333451	0.253133	0.502610
C123	C	0.666785	0.586467	0.835944
C124	C	0.000112	-0.167685	0.176304
C125	C	0.333445	0.165648	0.509638
C126	C	0.666778	0.498982	0.842971
C127	C	0.000120	-0.994158	-0.111029
C128	C	0.333454	-0.660824	0.222304
C129	C	0.666787	-0.327491	0.555637
C130	C	0.000112	-0.987549	-0.193231
C131	C	0.333445	-0.654216	0.140103
C132	C	0.666778	-0.320882	0.473436
C133	C	0.000100	-0.913122	-0.229440
C134	C	0.333433	-0.579789	0.103894
C135	C	0.666766	-0.246455	0.437227
C136	C	0.000088	-0.845299	-0.183443
C137	C	0.333421	-0.511966	0.149890
C138	C	0.666755	-0.178633	0.483223
C139	C	0.000091	-0.851909	-0.101244
C140	C	0.333424	-0.518576	0.232089
C141	C	0.666757	-0.185242	0.565423
C142	C	0.000085	-0.885728	-0.474755
C143	C	0.333418	-0.552395	-0.141421
C144	C	0.666752	-0.219061	0.191912
C145	C	0.000085	-0.879123	-0.556960
C146	C	0.333418	-0.545790	-0.223627
C147	C	0.666751	-0.212457	0.109707
C148	C	0.000107	-1.021374	-0.566742
C149	C	0.333440	-0.688041	-0.233408
C150	C	0.666773	-0.354707	0.099925
C151	C	0.000115	-1.027977	-0.484540
C152	C	0.333448	-0.694643	-0.151207
C153	C	0.666781	-0.361310	0.182126
C154	C	0.000098	-0.960154	-0.438551
C155	C	0.333432	-0.626821	-0.105218
C156	C	0.666765	-0.293488	0.228115
N157	N	0.000093	-0.906365	-0.313462
N158	N	0.333427	-0.573032	0.019871
N159	N	0.666760	-0.239698	0.353204
N160	N	0.000099	-0.966912	-0.354531
N161	N	0.333432	-0.633579	-0.021197
N162	N	0.666765	-0.300246	0.312136
C163	C	0.000098	-0.939912	0.309565
C164	C	0.333432	-0.606579	0.642899
C165	C	0.666765	-0.273245	0.976232
C166	C	0.000094	-0.946941	0.397050
C167	C	0.333427	-0.613608	0.730383
C168	C	0.666761	-0.280274	1.063716
H169	H	0.224567	-1.017604	0.085073
H170	H	0.557901	-0.684271	0.418406
H171	H	0.891234	-0.350938	0.751739
H172	H	0.000122	-0.184198	0.047876
H173	H	0.333455	0.149136	0.381209
H174	H	0.666788	0.482469	0.714543
Cl175	Cl	0.402492	-1.031862	0.070833
Cl176	Cl	0.735825	-0.698529	0.404166
Cl177	Cl	1.069159	-0.365195	0.737499
H178	H	0.383130	-0.828433	0.274110
H179	H	0.716463	-0.495099	0.607443
H180	H	1.049796	-0.161766	0.940776
H181	H	0.224556	-0.835521	0.267009
H182	H	0.557890	-0.502188	0.600342
H183	H	0.891223	-0.168855	0.933676
Cl184	Cl	0.597724	-1.067936	0.034819
Cl185	Cl	0.931057	-0.734602	0.368152
Cl186	Cl	1.264391	-0.401269	0.701485
Cl187	Cl	0.795012	-1.059118	0.043654
Cl188	Cl	1.128345	-0.725785	0.376987
Cl189	Cl	1.461679	-0.392452	0.710320
H190	H	0.000095	-0.166440	0.305954
H191	H	0.333428	0.166893	0.639288
H192	H	0.666762	0.500227	0.972621
H193	H	0.000118	-1.076591	-0.604195
H194	H	0.333452	-0.743257	-0.270861
H195	H	0.666785	-0.409924	0.062472
H196	H	0.000066	-0.689081	0.284128
H197	H	0.333400	-0.355748	0.617461
H198	H	0.666733	-0.022414	0.950795
H199	H	0.000135	-1.054764	-0.081554
H200	H	0.333469	-0.721430	0.251779
H201	H	0.666802	-0.388097	0.585112
H202	H	0.000123	-0.333316	0.059865
H203	H	0.333456	0.000017	0.393198
H204	H	0.666790	0.333351	0.726532
H205	H	0.000072	-0.830502	-0.437320
H206	H	0.333405	-0.497169	-0.103987
H207	H	0.666739	-0.163835	0.229347
H208	H	0.000088	-0.818512	-0.586438
H209	H	0.333422	-0.485179	-0.253104
H210	H	0.666755	-0.151846	0.080229
Cl211	Cl	0.000063	-0.751734	-0.228964
Cl212	Cl	0.333396	-0.418400	0.104370
Cl213	Cl	0.666729	-0.085067	0.437703
H214	H	0.000121	-1.042773	-0.230673
H215	H	0.333454	-0.709440	0.102661
H216	H	0.666788	-0.376107	0.435994
Cl217	Cl	0.000075	-0.519591	0.302174
Cl218	Cl	0.333408	-0.186258	0.635507
Cl219	Cl	0.666741	0.147075	0.968840
H220	H	0.000124	-1.088583	-0.455065
H221	H	0.333458	-0.755250	-0.121732
H222	H	0.666791	-0.421916	0.211602
H223	H	0.775647	-0.855683	0.246940
H224	H	1.108980	-0.522349	0.580273
H225	H	1.442313	-0.189016	0.913606
Cl226	Cl	0.597725	-0.841410	0.261168
Cl227	Cl	0.931059	-0.508077	0.594502
Cl228	Cl	1.264392	-0.174744	0.927835
H229	H	0.000083	-0.796684	-0.063799
H230	H	0.333416	-0.463351	0.269534
H231	H	0.666750	-0.130018	0.602867
Cl232	Cl	0.000076	-0.331608	0.350910
Cl233	Cl	0.333409	0.001725	0.684243
Cl234	Cl	0.666743	0.335058	1.017576
H235	H	0.000119	-0.557705	0.014063
H236	H	0.333452	-0.224372	0.347396
H237	H	0.666785	0.108962	0.680729
Cl238	Cl	0.000104	-0.727210	-0.003988
Cl239	Cl	0.333437	-0.393876	0.329345
Cl240	Cl	0.666770	-0.060543	0.662679
