data_functionalizedCrystal
_audit_creation_method	'MofGen! by Chris Wilmer'
_symmetry_space_group_name_H-M	'P1'
_symmetry_Int_Tables_number	1
_symmetry_cell_setting	triclinic
loop_
_symmetry_equiv_pos_as_xyz
  x,y,z
_cell_length_a	17.640112
_cell_length_b	16.120484
_cell_length_c	17.640968
_cell_angle_alpha	97.807442
_cell_angle_beta	87.860920
_cell_angle_gamma	103.499326
loop_
_atom_site_label
_atom_site_type_symbol
_atom_site_fract_x
_atom_site_fract_y
_atom_site_fract_z
Zn1	Zn	1.246898	-0.023860	0.196404
Zn2	Zn	1.746898	0.476140	0.696404
Zn3	Zn	1.214806	-0.195187	0.078925
Zn4	Zn	1.714806	0.304813	0.578925
Zn5	Zn	1.092236	-0.077878	0.098046
Zn6	Zn	1.592236	0.422122	0.598046
Zn7	Zn	1.113950	-0.184256	0.230901
Zn8	Zn	1.613950	0.315744	0.730901
O9	O	1.166972	-0.120295	0.151069
O10	O	1.666972	0.379705	0.651069
O11	O	1.349575	-0.028555	0.158380
O12	O	1.849575	0.471445	0.658380
O13	O	1.176029	-0.206807	-0.023304
O14	O	1.676029	0.293193	0.476696
O15	O	1.117096	0.045508	0.104658
O16	O	1.617096	0.545508	0.604658
O17	O	1.325997	-0.154428	0.072070
O18	O	1.825997	0.345572	0.572070
O19	O	1.230725	0.085195	0.176921
O20	O	1.730725	0.585195	0.676921
O21	O	1.085978	-0.120621	-0.009256
O22	O	1.585978	0.379379	0.490744
O23	O	0.988182	-0.110021	0.138109
O24	O	1.488182	0.389979	0.638109
O25	O	1.154104	-0.135798	0.331090
O26	O	1.654104	0.364202	0.831090
O27	O	1.004135	-0.188177	0.235717
O28	O	1.504135	0.311823	0.735717
O29	O	1.251780	-0.017955	0.305745
O30	O	1.751780	0.482045	0.805745
O31	O	1.197083	-0.309958	0.105520
O32	O	1.697083	0.190042	0.605520
O33	O	1.122985	-0.301927	0.217176
O34	O	1.622985	0.198073	0.717176
C35	C	0.968432	-0.153775	0.192732
C36	C	1.468432	0.346225	0.692732
C37	C	0.883498	-0.168113	0.210574
C38	C	1.383498	0.331887	0.710574
C39	C	1.158932	-0.336069	0.163028
C40	C	1.658932	0.163931	0.663028
C41	C	1.155568	-0.428360	0.168155
C42	C	1.655568	0.071640	0.668155
C43	C	0.562620	-0.011353	0.015528
C44	C	1.062620	0.488647	0.515528
C45	C	0.482814	-0.024840	0.032305
C46	C	0.982814	0.475160	0.532305
C47	C	0.499439	-0.106413	0.133786
C48	C	0.999439	0.393587	0.633786
C49	C	0.579249	-0.092929	0.117021
C50	C	1.079249	0.407071	0.617021
C51	C	0.610833	-0.045399	0.057890
C52	C	1.110833	0.454601	0.557890
C53	C	0.627462	-0.126975	0.159383
C54	C	1.127462	0.373025	0.659383
C55	C	0.707264	-0.113496	0.142616
C56	C	1.207264	0.386504	0.642616
C57	C	0.738854	-0.065971	0.083486
C58	C	1.238854	0.434029	0.583486
C59	C	0.690635	-0.031920	0.041123
C60	C	1.190635	0.468080	0.541123
C61	C	0.595875	-0.174510	0.218510
C62	C	1.095875	0.325490	0.718510
C63	C	0.644088	-0.208556	0.260872
C64	C	1.144088	0.291444	0.760872
C65	C	0.723893	-0.195072	0.244108
C66	C	1.223893	0.304928	0.744108
C67	C	0.755483	-0.147546	0.184979
C68	C	1.255483	0.352454	0.684979
C69	C	0.772112	-0.229122	0.286472
C70	C	1.272112	0.270878	0.786472
C71	C	0.851914	-0.215643	0.269705
C72	C	1.351914	0.284357	0.769705
C73	C	0.835285	-0.134067	0.168212
C74	C	1.335285	0.365933	0.668212
C75	C	1.149433	-0.597332	0.177530
C76	C	1.649433	-0.097332	0.677530
C77	C	1.184651	-0.642392	0.124592
C78	C	1.684651	-0.142392	0.624592
C79	C	1.181238	-0.736414	0.129808
C80	C	1.681238	-0.236414	0.629808
C81	C	1.152846	-0.503302	0.172315
C82	C	1.652846	-0.003302	0.672315
C83	C	1.366289	-0.086685	0.109244
C84	C	1.866289	0.413315	0.609244
C85	C	1.451225	-0.072363	0.091421
C86	C	1.951225	0.427637	0.591421
C87	C	1.208944	-0.069632	0.346341
C88	C	1.708944	0.430368	0.846341
C89	C	1.226829	-0.048042	0.429555
C90	C	1.726829	0.451958	0.929555
C91	C	1.175068	0.096329	0.139075
C92	C	1.675068	0.596329	0.639075
C93	C	1.178518	0.188641	0.133963
C94	C	1.678518	0.688641	0.633963
C95	C	1.125211	-0.170694	-0.043456
C96	C	1.625211	0.329306	0.456544
C97	C	1.107482	-0.192025	-0.126714
C98	C	1.607482	0.307975	0.373286
C99	C	1.031408	-0.283809	0.769207
C100	C	1.531408	0.216191	1.269207
C101	C	1.048230	-0.263509	0.847394
C102	C	1.548230	0.236491	1.347394
C103	C	1.149932	-0.140810	0.820995
C104	C	1.649932	0.359190	1.320995
C105	C	1.133115	-0.161098	0.742803
C106	C	1.633115	0.338902	1.242803
C107	C	1.073853	-0.232599	0.716916
C108	C	1.573853	0.267401	1.216916
C109	C	1.175560	-0.109887	0.690513
C110	C	1.675560	0.390113	1.190513
C111	C	1.158747	-0.130176	0.612328
C112	C	1.658747	0.369824	1.112328
C113	C	1.099489	-0.201675	0.586434
C114	C	1.599489	0.298325	1.086434
C115	C	1.057040	-0.252888	0.638731
C116	C	1.557040	0.247112	1.138731
C117	C	1.234826	-0.038390	0.716401
C118	C	1.734826	0.461610	1.216401
C119	C	1.277271	0.012820	0.664110
C120	C	1.777271	0.512820	1.164110
C121	C	1.260455	-0.007464	0.585924
C122	C	1.760455	0.492536	1.085924
C123	C	1.201197	-0.078964	0.560030
C124	C	1.701197	0.421036	1.060030
C125	C	1.302904	0.043748	0.533627
C126	C	1.802904	0.543748	1.033627
C127	C	1.286092	0.023459	0.455442
C128	C	1.786092	0.523459	0.955442
C129	C	1.184384	-0.099252	0.481846
C130	C	1.684384	0.400748	0.981846
H131	H	0.861005	-0.095349	0.120072
H132	H	1.361005	0.404651	0.620072
H133	H	1.198185	-0.082596	0.842083
H134	H	1.698185	0.417404	1.342083
C135	C	0.966215	-0.362464	0.740727
C136	C	1.466215	0.137536	1.240727
N137	N	0.917116	-0.421706	0.719275
N138	N	1.417116	0.078294	1.219275
H139	H	1.325525	0.071035	0.685199
H140	H	1.825525	0.571035	1.185199
C141	C	0.429781	0.012618	-0.014301
C142	C	0.929781	0.512618	0.485699
N143	N	0.389837	0.040831	-0.049405
N144	N	0.889837	0.540831	0.450595
H145	H	1.217365	-0.610356	0.075352
H146	H	1.717365	-0.110356	0.575352
C147	C	1.105231	-0.640613	0.244039
C148	C	1.605231	-0.140613	0.744039
N149	N	1.071934	-0.673223	0.294131
N150	N	1.571934	-0.173223	0.794131
C151	C	1.119191	-0.177907	0.453366
C152	C	1.619191	0.322093	0.953366
N153	N	1.070092	-0.237149	0.431914
N154	N	1.570092	0.262851	0.931914
C155	C	0.464687	-0.158692	0.198830
C156	C	0.964687	0.341308	0.698830
N157	N	0.438514	-0.198067	0.247823
N158	N	0.938514	0.301933	0.747823
H159	H	1.008765	-0.311094	0.617656
H160	H	1.508765	0.188906	1.117656
C161	C	0.826640	-0.051141	0.065044
C162	C	1.326640	0.448859	0.565044
N163	N	0.892761	-0.039969	0.051154
N164	N	1.392761	0.460031	0.551154
C165	C	0.904952	-0.253091	0.316308
C166	C	1.404952	0.246909	0.816308
N167	N	0.944900	-0.281299	0.351411
N168	N	1.444900	0.218701	0.851411
C169	C	1.001530	-0.319849	0.904914
C170	C	1.501530	0.180151	1.404914
N171	N	0.966357	-0.362284	0.948237
N172	N	1.466357	0.137716	1.448237
H173	H	1.085804	-0.218196	0.522770
H174	H	1.585804	0.281804	1.022770
H175	H	1.248515	-0.021875	0.780065
H176	H	1.748515	0.478125	1.280065
H177	H	1.320654	0.065161	0.412865
H178	H	1.820654	0.565161	0.912865
C179	C	0.725382	0.020369	-0.023922
C180	C	1.225382	0.520369	0.476078
N181	N	0.751554	0.059749	-0.072912
N182	N	1.251554	0.559749	0.427088
C183	C	0.597367	0.040936	-0.049516
C184	C	1.097367	0.540936	0.450484
N185	N	0.623539	0.080316	-0.098507
N186	N	1.123539	0.580316	0.401493
C187	C	1.368090	0.122397	0.562115
C188	C	1.868090	0.622397	1.062115
N189	N	1.417187	0.181639	0.583572
N190	N	1.917187	0.681639	1.083572
C191	C	0.737357	-0.281408	0.351510
C192	C	1.237357	0.218592	0.851510
N193	N	0.711180	-0.320790	0.400498
N194	N	1.211180	0.179210	0.900498
C195	C	0.609336	-0.260835	0.325915
C196	C	1.109336	0.239165	0.825915
N197	N	0.583163	-0.300210	0.374909
N198	N	1.083163	0.199790	0.874909
H199	H	0.530894	-0.185483	0.232159
H200	H	1.030894	0.314517	0.732159
