data_functionalizedCrystal
_audit_creation_method	'MofGen! by Chris Wilmer'
_symmetry_space_group_name_H-M	'P1'
_symmetry_Int_Tables_number	1
_symmetry_cell_setting	triclinic
loop_
_symmetry_equiv_pos_as_xyz
  x,y,z
_cell_length_a	20.299480
_cell_length_b	20.298645
_cell_length_c	20.294903
_cell_angle_alpha	60.007695
_cell_angle_beta	60.015306
_cell_angle_gamma	59.991039
loop_
_atom_site_label
_atom_site_type_symbol
_atom_site_fract_x
_atom_site_fract_y
_atom_site_fract_z
O1	O	0.091305	-0.962534	0.804873
O2	O	0.034397	-0.749399	0.648508
O3	O	0.169355	-0.884263	0.648401
O4	O	-0.043654	-0.827670	0.804979
O5	O	0.214132	-0.839502	0.693072
O6	O	0.079173	-0.704639	0.693178
O7	O	0.136081	-0.917774	0.849544
Zn8	Zn	0.114736	-0.804099	0.778453
Zn9	Zn	0.055742	-0.863073	0.719598
O10	O	0.001122	-0.782910	0.849650
N11	N	0.155000	-0.763857	0.818624
N12	N	0.015485	-0.903322	0.679427
C13	C	0.179343	-0.615641	0.842971
C14	C	0.179443	-0.739552	0.966834
C15	C	0.303264	-0.739536	0.842917
C16	C	0.179356	-0.739528	0.842952
C17	C	0.210353	-0.708565	0.873918
C18	C	-0.132622	-0.927446	0.654695
C19	C	-0.008595	-0.927622	0.530981
C20	C	-0.008820	-1.051459	0.654914
C21	C	-0.008800	-0.927618	0.654995
C22	C	-0.039709	-0.958538	0.623897
N23	N	0.376268	-0.763873	0.818558
O24	O	0.652281	-0.777347	0.619856
O25	O	0.652556	-0.934198	0.832777
O26	O	0.652445	-0.933836	0.697731
O27	O	0.652392	-0.777709	0.754902
O28	O	0.518259	-0.889182	0.742556
O29	O	0.518369	-0.889544	0.877602
O30	O	0.518095	-0.732693	0.664680
Zn31	Zn	0.496927	-0.804029	0.778258
Zn32	Zn	0.673724	-0.862862	0.719200
O33	O	0.518205	-0.733055	0.799726
N34	N	0.794383	-0.903019	0.678891
N35	N	0.154981	-0.542636	0.818657
O36	O	-0.043628	-0.266455	0.805024
O37	O	0.169291	-0.266451	0.648191
O38	O	0.034217	-0.266468	0.648577
O39	O	0.091446	-0.266438	0.804638
O40	O	0.078998	-0.400670	0.693303
O41	O	0.214071	-0.400653	0.692918
O42	O	0.001152	-0.400657	0.849750
Zn43	Zn	0.114722	-0.421963	0.778435
Zn44	Zn	0.055722	-0.245145	0.719506
O45	O	0.136226	-0.400640	0.849364
N46	N	0.015453	-0.124472	0.679286
N47	N	0.155155	-0.763898	1.039838
O48	O	0.141555	-0.962488	1.315987
O49	O	-0.015254	-0.749480	1.316022
O50	O	-0.014890	-0.884527	1.315962
O51	O	0.141192	-0.827441	1.316047
O52	O	0.029815	-0.839777	1.181768
O53	O	0.029452	-0.704730	1.181828
O54	O	0.186261	-0.917739	1.181793
Zn55	Zn	0.114954	-0.804130	1.160504
Zn56	Zn	0.056053	-0.863089	1.337311
O57	O	0.185897	-0.782692	1.181853
N58	N	0.015850	-0.903330	1.457977
C59	C	0.051451	-0.700162	0.649301
C60	C	0.218580	-0.867175	0.649169
C61	C	0.119026	-0.967011	0.848750
C62	C	-0.048103	-0.799998	0.848882
C63	C	0.585495	-0.933471	0.882014
C64	C	0.585361	-0.933023	0.714775
C65	C	0.585151	-0.733419	0.615444
C66	C	0.585291	-0.733869	0.782682
C67	C	0.218449	-0.333386	0.648902
C68	C	0.051232	-0.333573	0.649435
C69	C	-0.048061	-0.333556	0.848984
C70	C	0.119212	-0.333537	0.848507
C71	C	-0.014496	-0.700269	1.248929
C72	C	-0.014037	-0.867500	1.248828
C73	C	0.185503	-0.966949	1.248886
C74	C	0.185054	-0.799709	1.248957
H75	H	0.039295	-0.638935	0.600193
O76	O	0.243657	-0.785204	1.248866
C77	C	0.311671	-0.794155	1.179354
H78	H	0.311033	-0.834621	1.156164
H79	H	0.368944	-0.822637	1.194989
H80	H	0.310035	-0.732448	1.130699
O81	O	-0.073330	-0.627356	1.249045
C82	C	-0.141299	-0.637978	1.318544
H83	H	-0.140383	-0.702361	1.341696
H84	H	-0.198609	-0.593752	1.302905
H85	H	-0.139866	-0.626410	1.367228
O86	O	-0.072413	-0.882158	1.248694
C87	C	-0.043023	-0.961476	1.248668
H88	H	0.025703	-0.982735	1.223314
H89	H	-0.067551	-0.962605	1.209640
H90	H	-0.063454	-1.003226	1.313027
O91	O	-0.121124	-0.785698	0.907521
C92	C	-0.156890	-0.841116	0.929252
H93	H	-0.130203	-0.864660	0.877490
H94	H	-0.224773	-0.809792	0.942506
H95	H	-0.144615	-0.893707	0.985330
O96	O	0.291507	-0.881439	0.590404
C97	C	0.291577	-0.812037	0.520890
H98	H	0.226876	-0.773602	0.521765
H99	H	0.327452	-0.830822	0.464788
H100	H	0.320458	-0.775569	0.519904
H101	H	0.234736	-1.028122	1.248866
O102	O	0.133643	-1.040107	0.907240
C103	C	0.212943	-1.090156	0.877975
H104	H	0.234223	-1.068169	0.809247
H105	H	0.214041	-1.154832	0.902619
H106	H	0.254688	-1.087939	0.898396
O107	O	0.036603	-0.333445	0.590877
C108	C	0.045543	-0.263957	0.522821
H109	H	0.036814	-0.215366	0.542115
H110	H	-0.001487	-0.240641	0.494220
H111	H	0.108528	-0.279675	0.477096
H112	H	-0.109209	-0.333558	0.898221
O113	O	0.585620	-0.992143	0.954999
C114	C	0.585618	-0.963085	1.005224
H115	H	0.610962	-0.911262	0.966433
H116	H	0.624636	-1.013784	1.043847
H117	H	0.521255	-0.940711	1.046005
H118	H	0.585383	-0.982069	0.702538
O119	O	0.585082	-0.674765	0.542442
C120	C	0.585034	-0.703807	0.492233
H121	H	0.610507	-0.772539	0.514049
H122	H	0.623918	-0.679031	0.427586
H123	H	0.520640	-0.683334	0.494464
H124	H	0.585279	-0.684826	0.794916
O125	O	0.291277	-0.332901	0.590087
C126	C	0.341468	-0.332757	0.619074
H127	H	0.302662	-0.307613	0.671058
H128	H	0.379805	-0.293485	0.568409
H129	H	0.382523	-0.397056	0.641193
O130	O	0.133974	-0.333578	0.906928
C131	C	0.213280	-0.333557	0.877523
H132	H	0.251428	-0.358956	0.825720
H133	H	0.240461	-0.372528	0.928047
H134	H	0.212079	-0.269175	0.855024
