data_functionalizedCrystal
_audit_creation_method	'MofGen! by Chris Wilmer'
_symmetry_space_group_name_H-M	'P1'
_symmetry_Int_Tables_number	1
_symmetry_cell_setting	triclinic
loop_
_symmetry_equiv_pos_as_xyz
  x,y,z
_cell_length_a	6.817900
_cell_length_b	14.125469
_cell_length_c	10.992410
_cell_angle_alpha	94.598388
_cell_angle_beta	108.764651
_cell_angle_gamma	100.398878
loop_
_atom_site_label
_atom_site_type_symbol
_atom_site_fract_x
_atom_site_fract_y
_atom_site_fract_z
V1	V	-4.071585	-0.133114	-0.400097
O2	O	-4.074426	0.006397	-0.392991
O3	O	-4.007233	-0.263943	-0.396869
O4	O	-4.049833	-0.131066	-0.574817
O5	O	-4.031531	-0.127399	-0.213812
V6	V	-4.553827	-0.116427	-0.377875
O7	O	-4.335653	-0.169718	-0.448842
O8	O	-4.739956	-0.079822	-0.329131
O9	O	-4.394972	0.014402	-0.381103
O10	O	-4.668382	-0.255937	-0.384981
O11	O	-4.711278	-0.122141	-0.564160
O12	O	-4.352372	-0.118474	-0.203155
C13	C	-3.847491	-0.295836	-0.390431
C14	C	-3.876340	-0.402790	-0.388957
C15	C	-3.929229	-0.598615	-0.386276
C16	C	-4.115550	-0.650937	-0.391700
C17	C	-4.144980	-0.759901	-0.390209
C18	C	-3.899791	-0.489641	-0.387768
C19	C	-3.901831	-0.126338	-0.617419
C20	C	-3.965224	-0.125529	-0.760251
C21	C	-3.834708	-0.118163	-0.955401
C22	C	-3.768761	-0.119403	-0.806913
C23	C	-4.132836	-0.220392	-0.837001
C24	C	-4.197419	-0.219553	-0.985571
C25	C	-4.134058	-0.035864	-0.948224
C26	C	-4.063493	-0.035415	-0.799212
C27	C	-4.218055	0.046290	-0.387538
C28	C	-4.168446	0.153243	-0.389020
C29	C	-4.163715	-0.123206	-0.160546
C30	C	-4.079560	-0.124010	-0.017714
H31	H	-3.791828	-0.635653	-0.380512
H32	H	-3.942730	0.034761	-0.747116
F33	F	-4.295159	-0.602526	-0.399231
H34	H	-3.642167	-0.051192	-0.753827
F35	F	-3.710274	-0.028319	-0.980175
F36	F	-3.775575	-0.200946	-1.017815
F37	F	-4.249702	-0.033951	-0.756713
F38	F	-3.667134	-0.203338	-0.774161
F39	F	-4.366555	-0.040367	-1.001591
H40	H	-4.376777	-0.227802	-1.028171
F41	F	-4.149121	-0.306790	-1.045728
F42	F	-4.045002	-0.307845	-0.803208
F43	F	-4.326082	-0.230732	-0.799321
H44	H	-4.054231	0.036172	-0.968851
