data_functionalizedCrystal
_audit_creation_method	'MofGen! by Chris Wilmer'
_symmetry_space_group_name_H-M	'P1'
_symmetry_Int_Tables_number	1
_symmetry_cell_setting	triclinic
loop_
_symmetry_equiv_pos_as_xyz
  x,y,z
_cell_length_a	21.395362
_cell_length_b	17.640280
_cell_length_c	21.395364
_cell_angle_alpha	101.209491
_cell_angle_beta	90.034975
_cell_angle_gamma	78.812025
loop_
_atom_site_label
_atom_site_type_symbol
_atom_site_fract_x
_atom_site_fract_y
_atom_site_fract_z
Zn1	Zn	1.008275	-0.314416	0.304286
Zn2	Zn	1.508275	0.185584	0.804286
Zn3	Zn	1.029403	-0.446545	0.178371
Zn4	Zn	1.529403	0.053455	0.678371
Zn5	Zn	0.903510	-0.314444	0.199483
Zn6	Zn	1.403510	0.185556	0.699483
Zn7	Zn	0.924672	-0.446571	0.283071
Zn8	Zn	1.424672	0.053429	0.783071
O9	O	0.966465	-0.380494	0.241303
O10	O	1.466465	0.119506	0.741303
O11	O	1.098752	-0.331921	0.287626
O12	O	1.598752	0.168079	0.787626
O13	O	1.012689	-0.429023	0.093493
O14	O	1.512689	0.070977	0.593493
O15	O	0.899709	-0.203848	0.231099
O16	O	1.399709	0.296152	0.731099
O17	O	1.114275	-0.428996	0.195116
O18	O	1.614275	0.071004	0.695116
O19	O	0.976679	-0.203827	0.308097
O20	O	1.476679	0.296173	0.808097
O21	O	0.920196	-0.331968	0.109004
O22	O	1.420196	0.168032	0.609004
O23	O	0.818643	-0.331993	0.210528
O24	O	1.318643	0.168007	0.710528
O25	O	0.935776	-0.429039	0.373563
O26	O	1.435776	0.070961	0.873563
O27	O	0.834191	-0.429066	0.271940
O28	O	1.334191	0.070934	0.771940
O29	O	0.997199	-0.331945	0.389150
O30	O	1.497199	0.168055	0.889150
O31	O	1.033209	-0.557141	0.174545
O32	O	1.533209	-0.057141	0.674545
O33	O	0.956264	-0.557160	0.251468
O34	O	1.456264	-0.057160	0.751468
C35	C	0.803684	-0.380536	0.241223
C36	C	1.303684	0.119464	0.741223
C37	C	0.734049	-0.380573	0.241201
C38	C	1.234049	0.119427	0.741201
C39	C	0.999343	-0.585826	0.208428
C40	C	1.499343	-0.085826	0.708428
C41	C	1.013465	-0.673668	0.194385
C42	C	1.513465	-0.173668	0.694385
C43	C	0.709458	-0.431186	0.273108
C44	C	1.209458	0.068814	0.773108
C45	C	0.644020	-0.431166	0.273139
C46	C	1.144020	0.068834	0.773139
C47	C	0.603176	-0.380542	0.241251
C48	C	1.103176	0.119458	0.741251
C49	C	0.627772	-0.329919	0.209343
C50	C	1.127772	0.170081	0.709343
C51	C	0.693209	-0.329935	0.209318
C52	C	1.193209	0.170065	0.709318
C53	C	0.498437	-0.374171	0.185865
C54	C	0.998437	0.125829	0.685865
C55	C	0.433002	-0.374161	0.185887
C56	C	0.933002	0.125839	0.685887
C57	C	0.401347	-0.380491	0.241328
C58	C	0.901347	0.119509	0.741328
C59	C	0.435136	-0.386846	0.296745
C60	C	0.935136	0.113154	0.796745
C61	C	0.500573	-0.386862	0.296720
C62	C	1.000573	0.113138	0.796720
C63	C	0.532220	-0.380520	0.241274
C64	C	1.032220	0.119480	0.741274
C65	C	0.305801	-0.431085	0.273271
C66	C	0.805801	0.068915	0.773271
C67	C	0.240360	-0.431060	0.273304
C68	C	0.740360	0.068940	0.773304
C69	C	0.224114	-0.329818	0.209502
C70	C	0.724114	0.170182	0.709502
C71	C	0.289553	-0.329838	0.209475
C72	C	0.789553	0.170162	0.709475
C73	C	0.330393	-0.380476	0.241358
C74	C	0.830393	0.119524	0.741358
C75	C	0.859435	-0.962754	0.348214
C76	C	1.359435	-0.462754	0.848214
C77	C	0.872707	-1.045295	0.334999
C78	C	1.372707	-0.545295	0.834999
C79	C	0.952880	-1.045210	0.254980
C80	C	1.452880	-0.545210	0.754980
C81	C	0.939617	-0.962668	0.268191
C82	C	1.439617	-0.462668	0.768191
C83	C	0.892894	-0.921446	0.314808
C84	C	1.392894	-0.421446	0.814808
C85	C	0.973075	-0.921360	0.234785
C86	C	1.473075	-0.421360	0.734785
C87	C	0.959811	-0.838825	0.247992
C88	C	1.459811	-0.338825	0.747992
C89	C	0.913089	-0.797597	0.294606
C90	C	1.413089	-0.297597	0.794606
C91	C	0.879630	-0.838911	0.328016
C92	C	1.379630	-0.338911	0.828016
C93	C	1.019795	-0.962583	0.188164
C94	C	1.519795	-0.462583	0.688164
C95	C	1.053254	-0.921275	0.154758
C96	C	1.553254	-0.421275	0.654758
C97	C	1.039993	-0.838738	0.167969
C98	C	1.539993	-0.338738	0.667969
C99	C	0.993271	-0.797511	0.214583
C100	C	1.493271	-0.297511	0.714583
C101	C	1.073452	-0.797424	0.134559
C102	C	1.573452	-0.297424	0.634559
C103	C	1.060188	-0.714889	0.147767
C104	C	1.560188	-0.214889	0.647767
C105	C	0.980007	-0.714976	0.227791
C106	C	1.480007	-0.214976	0.727791
C107	C	1.129882	-0.380453	0.241382
C108	C	1.629882	0.119547	0.741382
C109	C	1.199520	-0.380435	0.241417
C110	C	1.699520	0.119565	0.741417
C111	C	0.966491	-0.380492	0.404726
C112	C	1.466491	0.119508	0.904726
C113	C	0.966502	-0.380491	0.474368
C114	C	1.466502	0.119509	0.974368
C115	C	0.933476	-0.174360	0.274320
C116	C	1.433476	0.325640	0.774320
C117	C	0.919418	-0.086518	0.288390
C118	C	1.419418	0.413482	0.788390
C119	C	0.918348	-0.329958	0.515147
C120	C	1.418348	0.170042	1.015147
C121	C	0.918337	-0.329963	0.580582
C122	C	1.418337	0.170037	1.080582
C123	C	0.966491	-0.380491	0.605236
C124	C	1.466491	0.119509	1.105236
C125	C	1.014650	-0.431034	0.564447
C126	C	1.514650	0.068966	1.064447
C127	C	1.014655	-0.431034	0.499013
C128	C	1.514655	0.068966	0.999013
C129	C	1.023927	-0.386714	0.707946
C130	C	1.523927	0.113286	1.207946
C131	C	1.023922	-0.386709	0.773379
C132	C	1.523922	0.113291	1.273379
C133	C	0.966474	-0.380496	0.807056
C134	C	1.466474	0.119504	1.307056
C135	C	0.909027	-0.374271	0.775293
C136	C	1.409027	0.125729	1.275293
C137	C	0.909033	-0.374271	0.709859
C138	C	1.409033	0.125729	1.209859
C139	C	0.966490	-0.380497	0.676187
C140	C	1.466490	0.119503	1.176187
C141	C	0.918304	-0.329965	0.918787
C142	C	1.418304	0.170035	1.418787
C143	C	0.918293	-0.329975	0.984222
C144	C	1.418293	0.170025	1.484222
C145	C	1.014611	-0.431041	0.968087
C146	C	1.514611	0.068959	1.468087
C147	C	1.014616	-0.431036	0.902653
C148	C	1.514616	0.068964	1.402653
C149	C	0.966463	-0.380493	0.878008
C150	C	1.466463	0.119507	1.378008
C151	C	0.966442	-0.380511	1.078512
C152	C	1.466442	0.119489	1.578512
C153	C	0.966447	-0.380505	1.008872
C154	C	1.466447	0.119495	1.508872
H155	H	0.742707	-0.472418	0.299070
H156	H	1.242707	0.027582	0.799070
O157	O	0.213890	-0.485704	0.307710
O158	O	0.713890	0.014296	0.807710
H159	H	0.178475	-0.450447	0.345327
H160	H	0.678475	0.049553	0.845327
O161	O	0.401006	-0.393661	0.356553
O162	O	0.901006	0.106339	0.856553
H163	H	0.379733	-0.447182	0.346940
H164	H	0.879733	0.052818	0.846940
O165	O	0.583727	-0.275333	0.174931
O166	O	1.083727	0.224667	0.674931
H167	H	0.534095	-0.283837	0.180297
H168	H	1.034095	0.216163	0.680297
O169	O	0.537013	-0.393707	0.356490
O170	O	1.037013	0.106293	0.856490
H171	H	0.587833	-0.392657	0.347154
H172	H	1.087833	0.107343	0.847154
H173	H	0.902286	-0.730392	0.305355
H174	H	1.402286	-0.230392	0.805355
H175	H	0.623994	-0.472381	0.299123
H176	H	1.123994	0.027619	0.799123
H177	H	0.713229	-0.288717	0.183336
H178	H	1.213229	0.211283	0.683336
H179	H	0.190859	-0.288595	0.183542
H180	H	0.690859	0.211405	0.683542
H181	H	0.339054	-0.472314	0.299236
H182	H	0.839054	0.027686	0.799236
H183	H	0.309575	-0.288628	0.183490
H184	H	0.809575	0.211372	0.683490
O185	O	0.829235	-0.794439	0.378296
O186	O	1.329235	-0.294439	0.878296
H187	H	0.808194	-0.837027	0.399308
H188	H	1.308194	-0.337027	0.899308
H189	H	0.990920	-1.078784	0.217022
H190	H	1.490920	-0.578784	0.717022
H191	H	0.405497	-0.368991	0.140763
H192	H	0.905497	0.131009	0.640763
O193	O	0.532579	-0.367345	0.126064
O194	O	1.032579	0.132655	0.626064
H195	H	0.498094	-0.362937	0.087533
H196	H	0.998094	0.137063	0.587533
H197	H	1.053856	-0.472174	0.584525
H198	H	1.553856	0.027826	1.084525
O199	O	1.066599	-0.485539	0.455028
O200	O	1.566599	0.014461	0.955028
H201	H	1.058512	-0.477051	0.405386
H202	H	1.558512	0.022949	0.905386
H203	H	0.879136	-0.288806	0.495085
H204	H	1.379136	0.211194	0.995085
H205	H	0.941964	-0.681411	0.265756
H206	H	1.441964	-0.181411	0.765756
H207	H	0.821393	-0.929190	0.386180
H208	H	1.321393	-0.429190	0.886180
H209	H	0.845465	-1.078925	0.362213
H210	H	1.345465	-0.578925	0.862213
O211	O	1.085878	-0.393413	0.807637
O212	O	1.585878	0.106587	1.307637
H213	H	1.118249	-0.449640	0.786095
H214	H	1.618249	0.050360	1.286095
O215	O	0.847079	-0.367565	0.675597
O216	O	1.347079	0.132435	1.175597
H217	H	0.839510	-0.314023	0.654367
H218	H	1.339510	0.185977	1.154367
O219	O	0.866403	-0.275451	0.624579
O220	O	1.366403	0.224549	1.124579
H221	H	0.832923	-0.240302	0.596449
H222	H	1.332923	0.259698	1.096449
H223	H	1.030595	-1.029788	0.177414
H224	H	1.530595	-0.529788	0.677414
O225	O	0.847062	-0.367572	0.811610
O226	O	1.347062	0.132428	1.311610
H227	H	0.814692	-0.311345	0.808049
H228	H	1.314692	0.188655	1.308049
H229	H	1.091294	-0.954849	0.116800
H230	H	1.591294	-0.454849	0.616800
H231	H	1.111490	-0.830999	0.096599
H232	H	1.611490	-0.330999	0.596599
H233	H	1.087433	-0.681256	0.120564
H234	H	1.587433	-0.181256	0.620564
O235	O	0.866367	-0.275463	0.892196
O236	O	1.366367	0.224537	1.392196
H237	H	0.832873	-0.240333	0.931547
H238	H	1.332873	0.259667	1.431547
O239	O	0.866355	-0.275466	1.028212
O240	O	1.366355	0.224534	1.528212
H241	H	0.832879	-0.240317	1.000079
H242	H	1.332879	0.259683	1.500079
O243	O	1.066551	-0.485542	0.994668
O244	O	1.566551	0.014458	1.494668
H245	H	1.058460	-0.477050	1.047020
H246	H	1.558460	0.022950	1.547020
H247	H	1.053830	-0.472183	0.869450
H248	H	1.553830	0.027817	1.369450
O249	O	1.085892	-0.393410	0.671625
O250	O	1.585892	0.106590	1.171625
H251	H	1.125834	-0.397724	0.704705
H252	H	1.625834	0.102276	1.204705
