data_functionalizedCrystal
_audit_creation_method	'MofGen! by Chris Wilmer'
_symmetry_space_group_name_H-M	'P1'
_symmetry_Int_Tables_number	1
_symmetry_cell_setting	triclinic
loop_
_symmetry_equiv_pos_as_xyz
  x,y,z
_cell_length_a	29.839131
_cell_length_b	19.805407
_cell_length_c	19.805399
_cell_angle_alpha	90.021064
_cell_angle_beta	89.970435
_cell_angle_gamma	89.959595
loop_
_atom_site_label
_atom_site_type_symbol
_atom_site_fract_x
_atom_site_fract_y
_atom_site_fract_z
Zn1	Zn	-0.178876	-1.034665	-0.382737
Zn2	Zn	-0.254003	-1.034550	-0.269545
Zn3	Zn	-0.178887	-0.921480	-0.269559
Zn4	Zn	-0.253978	-0.921414	-0.382689
O5	O	-0.216436	-0.978027	-0.326132
O6	O	-0.188848	-1.129366	-0.367736
O7	O	-0.244054	-1.019531	-0.174830
O8	O	-0.116018	-0.936570	-0.284598
O9	O	-0.244044	-1.129282	-0.284575
O10	O	-0.116010	-1.019727	-0.367750
O11	O	-0.188867	-0.936458	-0.174840
O12	O	-0.188842	-0.826754	-0.284551
O13	O	-0.244001	-0.936457	-0.477412
O14	O	-0.244011	-0.826706	-0.367667
O15	O	-0.188823	-1.019662	-0.477447
O16	O	-0.316867	-1.019467	-0.284528
O17	O	-0.316849	-0.936346	-0.367654
C18	C	-0.216425	-0.802171	-0.326106
C19	C	-0.216432	-0.726939	-0.326111
C20	C	-0.245201	-0.691587	-0.369318
C21	C	-0.245201	-0.620899	-0.369326
C22	C	-0.216434	-0.585564	-0.326122
C23	C	-0.187661	-0.620920	-0.282913
C24	C	-0.187659	-0.691607	-0.282909
C25	C	-0.187668	-0.335847	-0.282928
C26	C	-0.187673	-0.265155	-0.282933
C27	C	-0.245210	-0.265139	-0.369345
C28	C	-0.245208	-0.335826	-0.369341
C29	C	-0.216434	-0.371176	-0.326134
C30	C	-0.216433	-0.447825	-0.326127
C31	C	-0.216436	-0.508916	-0.326125
C32	C	-0.333159	-0.977905	-0.326099
C33	C	-0.383093	-0.977915	-0.326107
C34	C	-0.692734	-1.021387	-0.282912
C35	C	-0.880407	-1.021471	-0.282938
O36	O	-0.904669	-1.058335	-0.246186
N37	N	-0.903878	-0.978168	-0.326184
C38	C	-0.880429	-0.934844	-0.369429
O39	O	-0.904699	-0.898019	-0.406217
C40	C	-0.692757	-0.934764	-0.369405
C41	C	-0.669287	-0.978065	-0.326152
C42	C	-0.669264	-1.064685	-0.239663
C43	C	-0.622349	-1.064661	-0.239654
C44	C	-0.598903	-1.021339	-0.282894
C45	C	-0.622372	-0.978041	-0.326143
C46	C	-0.669308	-0.891444	-0.412653
C47	C	-0.622387	-0.891429	-0.412645
C48	C	-0.598918	-0.934730	-0.369392
C49	C	-0.552010	-0.934695	-0.369375
N50	N	-0.528539	-0.977998	-0.326130
C51	C	-0.551985	-1.021320	-0.282889
C52	C	-0.978959	-0.934888	-0.369437
C53	C	-1.025877	-0.934907	-0.369442
C54	C	-1.025852	-1.021534	-0.282952
C55	C	-0.978933	-1.021512	-0.282944
C56	C	-0.955488	-0.978191	-0.326191
C57	C	-0.453459	-1.021266	-0.282874
C58	C	-0.406539	-1.021236	-0.282867
C59	C	-0.406569	-0.934611	-0.369359
C60	C	-0.453484	-0.934638	-0.369363
C61	C	-0.476928	-0.977971	-0.326119
O62	O	-0.527719	-0.897855	-0.406113
O63	O	-0.527706	-1.058150	-0.246117
C64	C	-0.739649	-1.021411	-0.282921
C65	C	-0.763118	-0.978113	-0.326170
C66	C	-0.739672	-0.934791	-0.369410
C67	C	-0.810036	-0.978132	-0.326175
C68	C	-0.833482	-1.021454	-0.282934
C69	C	-0.810011	-1.064757	-0.239689
C70	C	-0.763095	-1.064733	-0.239680
C71	C	-0.763144	-0.891488	-0.412655
C72	C	-0.810059	-0.891515	-0.412660
C73	C	-0.833505	-0.934837	-0.369420
C74	C	-0.099258	-0.978168	-0.326181
C75	C	-0.049323	-0.978228	-0.326202
C76	C	-0.216408	-0.978065	-0.502675
C77	C	-0.216396	-0.978081	-0.577907
C78	C	-0.216444	-0.154570	-0.326153
C79	C	-0.216440	-0.229802	-0.326145
C80	C	-0.187664	-1.021407	-0.613271
C81	C	-0.187650	-1.021414	-0.683960
C82	C	-0.216372	-0.978098	-0.719283
C83	C	-0.245106	-0.934767	-0.683914
C84	C	-0.245116	-0.934757	-0.613227
C85	C	-0.245064	-0.934806	-0.968988
C86	C	-0.245052	-0.934820	-1.039680
C87	C	-0.187598	-1.021462	-1.039720
C88	C	-0.187609	-1.021453	-0.969033
C89	C	-0.216340	-0.978120	-0.933670
C90	C	-0.216353	-0.978112	-0.857022
C91	C	-0.216362	-0.978109	-0.795930
C92	C	-0.216432	-0.978028	-0.150277
C93	C	-0.216317	-0.978143	-0.075045
H94	H	-0.164230	-0.720390	-0.247728
O95	O	-0.383811	-1.063366	-0.240828
C96	C	-0.414570	-1.101596	-0.202656
H97	H	-0.448001	-1.103937	-0.230391
H98	H	-0.400983	-1.154923	-0.195484
H99	H	-0.419600	-1.076843	-0.151228
O100	O	-0.476281	-1.063268	-0.240841
C101	C	-0.503461	-1.024782	-0.197078
H102	H	-0.510517	-0.973475	-0.220894
H103	H	-0.536437	-1.052379	-0.188046
H104	H	-0.485407	-1.017372	-0.146905
O105	O	-0.159771	-0.230724	-0.240980
C106	C	-0.165941	-0.160754	-0.250257
H107	H	-0.200630	-0.151082	-0.272335
H108	H	-0.162857	-0.133873	-0.199565
H109	H	-0.139325	-0.140727	-0.286369
O110	O	-0.159703	-0.370076	-0.240895
C111	C	-0.134306	-0.323727	-0.202777
H112	H	-0.152711	-0.273323	-0.200382
H113	H	-0.129461	-0.344133	-0.149462
H114	H	-0.100210	-0.316248	-0.227663
O115	O	-0.740350	-1.106766	-0.197573
C116	C	-0.751848	-1.092008	-0.130102
H117	H	-0.785929	-1.065997	-0.128684
H118	H	-0.753440	-1.140876	-0.099801
H119	H	-0.725473	-1.057217	-0.107261
O120	O	-0.159621	-1.063519	-1.073998
C121	C	-0.114847	-1.048769	-1.056749
H122	H	-0.113924	-1.022743	-1.005420
H123	H	-0.094707	-1.097643	-1.054348
H124	H	-0.099704	-1.013996	-1.096530
H125	H	-0.164236	-0.592145	-0.247738
H126	H	-1.044950	-1.056809	-0.247744
O127	O	-0.599624	-1.106795	-0.197623
C128	C	-0.630387	-1.145022	-0.159456
H129	H	-0.663818	-1.147351	-0.187191
H130	H	-0.616805	-1.198353	-0.152291
H131	H	-0.635413	-1.120274	-0.108025
O132	O	-0.692041	-1.106882	-0.197773
C133	C	-0.719126	-1.150582	-0.236375
H134	H	-0.704970	-1.154665	-0.289695
H135	H	-0.719599	-1.202705	-0.211985
H136	H	-0.754709	-1.129713	-0.238661
H137	H	-0.959827	-1.056771	-0.247724
H138	H	-0.164276	-1.056683	-0.584516
H139	H	-0.268442	-0.899544	-1.068438
O140	O	-1.048603	-0.892817	-0.411516
C141	C	-1.017842	-0.854568	-0.449666
H142	H	-0.984379	-0.882280	-0.452027
H143	H	-1.031378	-0.847322	-0.502991
H144	H	-1.012894	-0.803176	-0.424830
O145	O	-0.272908	-0.892647	-0.934605
C146	C	-0.247330	-0.848969	-0.893709
H147	H	-0.211945	-0.844835	-0.915032
H148	H	-0.263574	-0.796860	-0.892883
H149	H	-0.245788	-0.869893	-0.840143
O150	O	-0.956138	-0.892766	-0.411352
C151	C	-0.929051	-0.849048	-0.372771
H152	H	-0.922022	-0.872950	-0.321502
H153	H	-0.896056	-0.839939	-0.400332
H154	H	-0.947172	-0.798905	-0.365282
H155	H	-0.688408	-0.856180	-0.447871
O156	O	-0.273069	-0.892723	-0.718152
C157	C	-0.317848	-0.907469	-0.700874
H158	H	-0.318788	-0.933478	-0.649555
H159	H	-0.337990	-0.858595	-0.698437
H160	H	-0.332976	-0.942256	-0.740657
O161	O	-0.273161	-0.725805	-0.411351
C162	C	-0.298560	-0.679440	-0.449478
H163	H	-0.280162	-0.629072	-0.451873
H164	H	-0.303397	-0.699880	-0.502793
H165	H	-0.332659	-0.671878	-0.424600
O166	O	-0.273087	-0.586532	-0.411368
C167	C	-0.247554	-0.545676	-0.455154
H168	H	-0.212174	-0.567012	-0.459436
H169	H	-0.263852	-0.544887	-0.507196
H170	H	-0.245991	-0.492094	-0.434240
O171	O	-0.599682	-0.849284	-0.454680
C172	C	-0.630462	-0.811088	-0.492867
H173	H	-0.663918	-0.808775	-0.465143
H174	H	-0.616940	-0.757750	-0.500042
H175	H	-0.635416	-0.835853	-0.544293
H176	H	-0.472594	-0.899381	-0.404586
O177	O	-0.383766	-0.892631	-0.411434
C178	C	-0.356577	-0.931141	-0.455162
H179	H	-0.370685	-0.984450	-0.459391
H180	H	-0.356032	-0.906637	-0.507231
H181	H	-0.321027	-0.933476	-0.434225
O182	O	-0.832805	-1.106929	-0.197791
C183	C	-0.859898	-1.150616	-0.236395
H184	H	-0.845730	-1.154733	-0.289704
H185	H	-0.860401	-1.202730	-0.211986
H186	H	-0.895472	-1.129714	-0.238709
O187	O	-0.832785	-0.849426	-0.454743
C188	C	-0.802024	-0.811177	-0.492891
H189	H	-0.768560	-0.838885	-0.495245
H190	H	-0.815557	-0.803936	-0.546219
H191	H	-0.797081	-0.759781	-0.468059
O192	O	-0.273050	-0.892769	-0.578794
C193	C	-0.302080	-0.931269	-0.537914
H194	H	-0.286239	-0.982581	-0.527349
H195	H	-0.308104	-0.903689	-0.488195
H196	H	-0.335370	-0.938668	-0.565140
H197	H	-0.268635	-0.364592	-0.404520
H198	H	-0.744057	-0.856211	-0.447868
O199	O	-0.159727	-1.063568	-0.718207
C200	C	-0.134374	-1.101789	-0.671872
H201	H	-0.152784	-1.104101	-0.621477
H202	H	-0.129585	-1.155127	-0.692310
H203	H	-0.100252	-1.077048	-0.664362
O204	O	-0.159744	-1.063498	-0.934616
C205	C	-0.165903	-1.054181	-0.864642
H206	H	-0.200577	-1.031985	-0.854965
H207	H	-0.162850	-1.104874	-0.837783
H208	H	-0.139262	-1.018150	-0.844596
O209	O	-0.273116	-0.230693	-0.411301
C210	C	-0.266958	-0.160726	-0.402034
H211	H	-0.232268	-0.151094	-0.379966
H212	H	-0.270052	-0.133882	-0.452727
H213	H	-0.293574	-0.140623	-0.365917
