data_functionalizedCrystal
_audit_creation_method	'MofGen! by Chris Wilmer'
_symmetry_space_group_name_H-M	'P1'
_symmetry_Int_Tables_number	1
_symmetry_cell_setting	triclinic
loop_
_symmetry_equiv_pos_as_xyz
  x,y,z
_cell_length_a	9.065215
_cell_length_b	8.597304
_cell_length_c	8.140239
_cell_angle_alpha	97.703054
_cell_angle_beta	90.000939
_cell_angle_gamma	85.172303
loop_
_atom_site_label
_atom_site_type_symbol
_atom_site_fract_x
_atom_site_fract_y
_atom_site_fract_z
O1	O	1.960826	0.230146	0.169162
O2	O	1.531576	0.249030	0.171842
O3	O	1.754649	0.011241	0.138178
O4	O	1.737753	0.467935	0.202826
O5	O	1.754642	0.011239	-0.135049
O6	O	1.531569	0.249028	-0.101386
O7	O	1.960819	0.230144	-0.104065
Zn8	Zn	1.746193	0.239586	-0.146106
Zn9	Zn	1.746202	0.239588	0.213883
O10	O	1.737746	0.467933	-0.070402
C11	C	1.476582	0.247215	0.034972
C12	C	1.312729	0.241792	0.034207
C13	C	1.752831	-0.047257	-0.006713
C14	C	1.747407	-0.221561	-0.031376
C15	C	2.015813	0.231959	0.032808
C16	C	2.179666	0.237382	0.033583
C17	C	1.739564	0.526431	0.074493
C18	C	1.744988	0.700735	0.099167
N19	N	1.746197	0.239583	-0.391789
N20	N	1.746210	0.239578	0.459564
H21	H	1.747062	-0.232444	0.229808
H22	H	1.745311	-0.288387	-0.162025
