data_functionalizedCrystal
_audit_creation_method	'MofGen! by Chris Wilmer'
_symmetry_space_group_name_H-M	'P1'
_symmetry_Int_Tables_number	1
_symmetry_cell_setting	triclinic
loop_
_symmetry_equiv_pos_as_xyz
  x,y,z
_cell_length_a	17.640112
_cell_length_b	17.640280
_cell_length_c	19.805399
_cell_angle_alpha	101.223110
_cell_angle_beta	78.823320
_cell_angle_gamma	92.184069
loop_
_atom_site_label
_atom_site_type_symbol
_atom_site_fract_x
_atom_site_fract_y
_atom_site_fract_z
Zn1	Zn	1.221963	-0.067382	0.159851
Zn2	Zn	1.247568	-0.194374	0.020282
Zn3	Zn	1.094995	-0.093099	0.064176
Zn4	Zn	1.120643	-0.220019	0.150935
O5	O	1.171292	-0.143719	0.098811
O6	O	1.331615	-0.062733	0.126699
O7	O	1.227311	-0.180970	-0.068614
O8	O	1.090388	0.016575	0.098969
O9	O	1.350427	-0.156033	0.024158
O10	O	1.183671	0.035469	0.169261
O11	O	1.115216	-0.106564	-0.036365
O12	O	0.992142	-0.131431	0.090323
O13	O	1.134101	-0.199741	0.246836
O14	O	1.010985	-0.224678	0.154065
O15	O	1.208540	-0.087600	0.253387
O16	O	1.252181	-0.304039	0.015512
O17	O	1.158929	-0.322880	0.111502
C18	C	0.974013	-0.183628	0.125990
C19	C	0.889619	-0.200720	0.137629
C20	C	0.562831	-0.013861	0.010396
C21	C	0.483534	-0.029936	0.021339
C22	C	0.503236	-0.127168	0.087536
C23	C	0.582537	-0.111098	0.076601
C24	C	0.612327	-0.054444	0.038030
C25	C	0.632033	-0.151682	0.104235
C26	C	0.711326	-0.135615	0.093298
C27	C	0.741124	-0.078966	0.054727
C28	C	0.691621	-0.038378	0.027093
C29	C	0.602241	-0.208339	0.142802
C30	C	0.651738	-0.248923	0.170436
C31	C	0.731032	-0.232853	0.159503
C32	C	0.760829	-0.176203	0.120932
C33	C	0.780535	-0.273441	0.187137
C34	C	0.859829	-0.257374	0.176200
C35	C	0.840123	-0.160137	0.109995
C36	C	1.211137	-0.341008	0.057789
C37	C	1.228253	-0.425395	0.040252
C38	C	1.041580	-0.752161	0.232237
C39	C	1.057664	-0.831455	0.215737
C40	C	1.154827	-0.811758	0.115862
C41	C	1.138754	-0.732460	0.132356
C42	C	1.082129	-0.702668	0.190544
C43	C	1.179303	-0.682968	0.090662
C44	C	1.163228	-0.603677	0.107153
C45	C	1.106604	-0.573879	0.165337
C46	C	1.066054	-0.623378	0.207034
C47	C	1.235924	-0.712762	0.032472
C48	C	1.276473	-0.663269	-0.009222
C49	C	1.260402	-0.583976	0.007271
C50	C	1.203778	-0.554178	0.065455
C51	C	1.300953	-0.534478	-0.034426
C52	C	1.284878	-0.455187	-0.017936
C53	C	1.187703	-0.474888	0.081946
C54	C	1.369342	-0.103654	0.071527
C55	C	1.453739	-0.086580	0.059900
C56	C	1.171325	-0.143662	0.275358
C57	C	1.171339	-0.143638	0.350592
C58	C	1.131312	0.054345	0.140006
C59	C	1.114275	0.138748	0.157560
C60	C	1.171292	-0.143711	-0.077044
C61	C	1.171382	-0.143492	-0.152253
C62	C	1.210100	-0.085244	0.389348
C63	C	1.210104	-0.085220	0.460040
C64	C	1.171350	-0.143595	0.491973
C65	C	1.132584	-0.201993	0.453212
C66	C	1.132576	-0.202013	0.382523
C67	C	1.132612	-0.201913	0.738294
C68	C	1.132625	-0.201890	0.808988
C69	C	1.210140	-0.085121	0.815812
C70	C	1.210132	-0.085140	0.745123
C71	C	1.171363	-0.143536	0.706369
C72	C	1.171359	-0.143560	0.629717
C73	C	1.171358	-0.143574	0.568622
H74	H	0.587086	0.032284	-0.021000
H75	H	1.093512	-0.509316	0.178758
Cl76	Cl	0.994874	-0.585918	0.280192
H77	H	0.900130	-0.290421	0.198704
H78	H	1.101064	-0.249428	0.834986
H79	H	0.715875	0.007767	-0.004303
Cl80	Cl	1.258876	-0.011706	0.864537
Cl81	Cl	1.226013	-0.849219	0.042716
Cl82	Cl	1.372130	-0.571942	-0.107577
H83	H	1.249012	-0.777326	0.019049
Cl84	Cl	1.335847	-0.392965	-0.070356
H85	H	0.478970	-0.173298	0.118938
Cl86	Cl	0.970400	-0.714701	0.305395
Cl87	Cl	1.083861	-0.275377	0.493357
H88	H	1.322575	-0.687537	-0.056600
H89	H	1.141599	-0.450630	0.129333
Cl90	Cl	1.258856	-0.011754	0.704982
Cl91	Cl	0.502558	-0.228546	0.156540
H92	H	1.024649	-0.871749	0.249701
Cl93	Cl	1.258875	-0.011833	0.508748
Cl94	Cl	0.614280	-0.320151	0.218913
Cl95	Cl	0.743076	-0.344674	0.235608
H96	H	1.101057	-0.249471	0.706745
H97	H	1.241661	-0.037710	0.363353
H98	H	0.864378	-0.113992	0.078599
Cl99	Cl	0.840809	-0.058770	0.040973
Cl100	Cl	1.083843	-0.275425	0.333800
H101	H	0.443234	0.003121	-0.001161
