data_functionalizedCrystal
_audit_creation_method	'MofGen! by Chris Wilmer'
_symmetry_space_group_name_H-M	'P1'
_symmetry_Int_Tables_number	1
_symmetry_cell_setting	triclinic
loop_
_symmetry_equiv_pos_as_xyz
  x,y,z
_cell_length_a	14.044191
_cell_length_b	10.489741
_cell_length_c	13.101039
_cell_angle_alpha	93.396862
_cell_angle_beta	86.337551
_cell_angle_gamma	88.865475
loop_
_atom_site_label
_atom_site_type_symbol
_atom_site_fract_x
_atom_site_fract_y
_atom_site_fract_z
O1	O	1.264977	0.301339	-0.085164
O2	O	0.988932	0.290224	-0.085177
O3	O	1.133235	0.110821	-0.085164
O4	O	1.120673	0.480741	-0.085176
O5	O	1.122882	0.123716	0.085265
O6	O	0.978579	0.303119	0.085252
O7	O	1.254623	0.314234	0.085265
Zn8	Zn	1.114957	0.310724	0.112318
Zn9	Zn	1.128598	0.293734	-0.112229
O10	O	1.110320	0.493637	0.085252
C11	C	0.948408	0.291809	0.000036
C12	C	0.843083	0.277305	0.000031
C13	C	0.593317	0.353651	0.000039
C14	C	0.650244	0.250811	0.000041
C15	C	0.757550	0.265556	0.000036
C16	C	0.486002	0.338909	0.000044
C17	C	1.127110	0.069641	0.000050
C18	C	1.124271	-0.072277	0.000048
C19	C	1.032455	-0.149733	0.000036
C20	C	1.070724	-0.231097	0.084069
C21	C	1.080953	-0.243783	-0.083961
C22	C	1.162573	-0.151766	0.084150
C23	C	1.172794	-0.164450	-0.083955
C24	C	1.211128	-0.245778	0.000098
C25	C	1.295148	0.312649	0.000050
C26	C	1.400473	0.327152	0.000048
C27	C	1.116446	0.534817	0.000036
C28	C	1.119285	0.676734	0.000032
N29	N	1.105654	0.322319	0.265566
N30	N	1.137908	0.282129	-0.265477
C31	C	1.092998	0.338106	0.474607
C32	C	1.150562	0.266346	0.525488
C33	C	1.143520	0.275130	0.641806
C34	C	1.100039	0.329324	0.358279
H35	H	0.625168	0.452761	0.000033
H36	H	0.618396	0.151688	-0.000028
Br37	Br	0.906626	-0.079736	0.000161
H38	H	1.205134	0.198314	0.481691
Br39	Br	0.998784	-0.280394	0.202476
H40	H	1.197068	-0.111614	0.155272
Br41	Br	1.002047	0.451497	0.547599
H42	H	1.215927	-0.134842	-0.154999
Br43	Br	1.023367	-0.310962	-0.202362
H44	H	1.286684	-0.287532	0.000148
