data_functionalizedCrystal
_audit_creation_method	'MofGen! by Chris Wilmer'
_symmetry_space_group_name_H-M	'P1'
_symmetry_Int_Tables_number	1
_symmetry_cell_setting	triclinic
loop_
_symmetry_equiv_pos_as_xyz
  x,y,z
_cell_length_a	23.532357
_cell_length_b	14.519731
_cell_length_c	13.596369
_cell_angle_alpha	90.005416
_cell_angle_beta	90.011519
_cell_angle_gamma	83.258572
loop_
_atom_site_label
_atom_site_type_symbol
_atom_site_fract_x
_atom_site_fract_y
_atom_site_fract_z
O1	O	0.074713	1.222951	0.081806
O2	O	0.083492	0.954370	0.081809
O3	O	-0.003794	1.096783	0.081787
O4	O	0.161999	1.080537	0.081828
O5	O	-0.003799	1.096769	-0.081796
O6	O	0.083488	0.954356	-0.081774
O7	O	0.074709	1.222937	-0.081777
Zn8	Zn	0.079097	1.088644	-0.107748
Zn9	Zn	0.079104	1.088663	0.107780
O10	O	0.161995	1.080523	-0.081755
C11	C	0.083079	0.920009	0.000018
C12	C	0.081846	0.817643	0.000018
C13	C	0.080844	0.734511	0.000021
C14	C	0.079593	0.630218	0.000022
C15	C	0.078600	0.547091	0.000021
C16	C	0.077348	0.442790	0.000023
C17	C	-0.025015	1.096370	-0.000007
C18	C	-0.088239	1.095148	-0.000017
C19	C	-0.480282	1.087486	0.089206
C20	C	-0.539687	1.086324	0.089211
O21	O	-0.570404	1.085699	0.165046
N22	N	-0.569404	1.085741	0.000043
C23	C	-0.539711	1.086309	-0.089136
O24	O	-0.570442	1.085705	-0.164980
C25	C	-0.480307	1.087464	-0.089140
C26	C	-0.450595	1.088057	0.000033
C27	C	-0.450570	1.088078	0.178372
C28	C	-0.391169	1.089241	0.178366
C29	C	-0.361481	1.089812	0.089194
C30	C	-0.391194	1.089220	0.000027
C31	C	-0.450616	1.088026	-0.178319
C32	C	-0.391207	1.089180	-0.178316
C33	C	-0.361495	1.089773	-0.089142
C34	C	-0.302106	1.090954	-0.089151
N35	N	-0.272389	1.091538	0.000017
C36	C	-0.302077	1.090967	0.089189
C37	C	-0.664464	1.083883	-0.089119
C38	C	-0.723868	1.082735	-0.089116
C39	C	-0.723839	1.082748	0.089232
C40	C	-0.664435	1.083903	0.089227
C41	C	-0.634748	1.084466	0.000048
C42	C	-0.177332	1.093410	0.089170
C43	C	-0.117927	1.094577	0.089156
C44	C	-0.117960	1.094559	-0.089191
C45	C	-0.177360	1.093397	-0.089178
C46	C	-0.207045	1.092819	0.000011
O47	O	-0.271351	1.091577	-0.164947
O48	O	-0.271338	1.091559	0.165020
C49	C	0.183216	1.080937	0.000042
C50	C	0.246440	1.082158	0.000057
C51	C	0.075122	1.257298	0.000017
C52	C	0.076355	1.359663	0.000023
N53	N	0.079093	1.088638	-0.254840
C54	C	0.079104	1.088661	-0.656131
C55	C	0.079103	1.088652	-0.544479
C56	C	0.079099	1.088650	-0.455489
C57	C	0.079097	1.088640	-0.343830
N58	N	0.079104	1.088676	0.254872
H59	H	-0.093737	1.095062	0.161775
N60	N	-0.209346	1.092813	0.185363
H61	H	-0.181503	1.093375	0.241841
H62	H	-0.238546	1.149518	0.189232
N63	N	-0.359130	1.089894	0.274549
H64	H	-0.316992	1.090725	0.261029
H65	H	-0.374079	1.146880	0.313466
N66	N	-0.755858	1.082174	0.185425
H67	H	-0.740962	1.025220	0.224441
H68	H	-0.750048	1.139609	0.224290
H69	H	-0.640247	1.084384	0.161840
N70	N	-0.482577	1.087515	0.274571
H71	H	-0.467677	1.030564	0.313588
H72	H	-0.476756	1.144952	0.313421
N73	N	-0.359184	1.089791	-0.274500
H74	H	-0.364968	1.032409	-0.313480
H75	H	-0.374104	1.146797	-0.313408
H76	H	-0.201554	1.092922	-0.161790
N77	N	-0.085934	1.095183	-0.185367
H78	H	-0.043794	1.096007	-0.171831
H79	H	-0.091760	1.037799	-0.224304
H80	H	-0.748056	1.082266	-0.161730
N81	N	-0.632447	1.084501	-0.185311
H82	H	-0.660290	1.083959	-0.241791
H83	H	-0.612360	1.142159	-0.189200
H84	H	-0.474797	1.087545	-0.250934
