data_functionalizedCrystal
_audit_creation_method	'MofGen! by Chris Wilmer'
_symmetry_space_group_name_H-M	'P1'
_symmetry_Int_Tables_number	1
_symmetry_cell_setting	triclinic
loop_
_symmetry_equiv_pos_as_xyz
  x,y,z
_cell_length_a	14.519731
_cell_length_b	14.519709
_cell_length_c	13.330367
_cell_angle_alpha	89.994415
_cell_angle_beta	89.992354
_cell_angle_gamma	83.684499
loop_
_atom_site_label
_atom_site_type_symbol
_atom_site_fract_x
_atom_site_fract_y
_atom_site_fract_z
O1	O	1.223860	0.120984	-0.083428
O2	O	1.723860	0.620984	0.416572
O3	O	0.955385	0.135200	-0.083430
O4	O	1.455385	0.635200	0.416570
O5	O	1.096741	-0.006146	-0.083420
O6	O	1.596741	0.493854	0.416580
O7	O	1.082504	0.262330	-0.083438
O8	O	1.582504	0.762330	0.416562
O9	O	1.096720	-0.006149	0.083427
O10	O	1.596720	0.493851	0.583427
O11	O	0.955365	0.135197	0.083417
O12	O	1.455365	0.635197	0.583417
O13	O	1.223839	0.120981	0.083419
O14	O	1.723839	0.620981	0.583419
Cu15	Cu	1.089600	0.128089	0.098653
Cu16	Cu	1.589600	0.628089	0.598653
Cu17	Cu	1.089624	0.128092	-0.098663
Cu18	Cu	1.589624	0.628092	0.401337
O19	O	1.082484	0.262327	0.083409
O20	O	1.582484	0.762327	0.583409
C21	C	0.921016	0.134532	-0.000006
C22	C	1.421016	0.634532	0.499994
C23	C	0.818635	0.132536	-0.000007
C24	C	1.318635	0.632536	0.499993
C25	C	1.096067	-0.040507	0.000004
C26	C	1.596067	0.459493	0.500004
C27	C	1.094079	-0.142889	0.000005
C28	C	1.594079	0.357111	0.500005
C29	C	0.735491	0.130915	-0.000011
C30	C	1.235491	0.630915	0.499989
C31	C	0.631182	0.128888	-0.000011
C32	C	1.131182	0.628888	0.499989
C33	C	0.548043	0.127280	-0.000011
C34	C	1.048043	0.627280	0.499989
C35	C	0.443728	0.125253	-0.000013
C36	C	0.943728	0.625253	0.499987
C37	C	1.086759	-0.517785	-0.000022
C38	C	1.586759	-0.017785	0.499978
C39	C	1.088792	-0.413477	-0.000014
C40	C	1.588792	0.086523	0.499986
C41	C	1.090419	-0.330340	-0.000008
C42	C	1.590419	0.169660	0.499992
C43	C	1.092452	-0.226025	-0.000002
C44	C	1.592452	0.273975	0.499998
C45	C	1.258209	0.121649	-0.000006
C46	C	1.758209	0.621649	0.499994
C47	C	1.360589	0.123645	-0.000013
C48	C	1.860589	0.623645	0.499987
C49	C	1.083157	0.296688	-0.000017
C50	C	1.583157	0.796688	0.499983
C51	C	1.085146	0.399070	-0.000024
C52	C	1.585146	0.899070	0.499976
N53	N	1.089590	0.128085	0.237434
N54	N	1.589590	0.628085	0.737434
N55	N	1.089642	0.128088	-0.237445
N56	N	1.589642	0.628088	0.262555
C57	C	1.027029	0.190656	0.710053
C58	C	1.527029	0.690656	1.210053
C59	C	1.152244	0.065522	0.710030
C60	C	1.652244	0.565522	1.210030
C61	C	1.152234	0.065519	0.605011
C62	C	1.652234	0.565519	1.105011
C63	C	1.089621	0.128086	0.552509
C64	C	1.589621	0.628086	1.052509
C65	C	1.027019	0.190657	0.605025
C66	C	1.527019	0.690657	1.105025
C67	C	1.214841	0.002956	0.552488
C68	C	1.714841	0.502956	1.052488
C69	C	1.214834	0.002952	0.447463
C70	C	1.714834	0.502952	0.947463
C71	C	1.152216	0.065515	0.394958
C72	C	1.652216	0.565515	0.894958
C73	C	1.089611	0.128087	0.447481
C74	C	1.589611	0.628087	0.947481
C75	C	1.026998	0.190655	0.394978
C76	C	1.526998	0.690655	0.894978
C77	C	0.964387	0.253223	0.447499
C78	C	1.464387	0.753223	0.947499
C79	C	0.964401	0.253220	0.552520
C80	C	1.464401	0.753220	1.052520
C81	C	1.152202	0.065518	0.289937
C82	C	1.652202	0.565518	0.789937
C83	C	1.026988	0.190656	0.289950
C84	C	1.526988	0.690656	0.789950
H85	H	0.975997	0.241603	0.247209
H86	H	1.475997	0.741603	0.747209
H87	H	0.913427	0.304162	0.595289
H88	H	1.413427	0.804162	1.095289
H89	H	1.265823	-0.047980	0.595238
H90	H	1.765823	0.452020	1.095238
H91	H	0.913412	0.304170	0.404739
H92	H	1.413412	0.804170	0.904739
H93	H	1.265813	-0.047995	0.404707
H94	H	1.765813	0.452005	0.904707
C95	C	1.221114	-0.003298	0.767786
C96	C	1.721114	0.496702	1.267786
N97	N	1.272988	-0.055138	0.811292
N98	N	1.772988	0.444862	1.311292
C99	C	0.958155	0.259471	0.767825
C100	C	1.458155	0.759471	1.267825
N101	N	0.906276	0.311302	0.811341
N102	N	1.406276	0.811302	1.311341
C103	C	1.221070	-0.003302	0.232169
C104	C	1.721070	0.496698	0.732169
N105	N	1.272943	-0.055143	0.188660
N106	N	1.772943	0.444857	0.688660
