data_functionalizedCrystal
_audit_creation_method	'MofGen! by Chris Wilmer'
_symmetry_space_group_name_H-M	'P1'
_symmetry_Int_Tables_number	1
_symmetry_cell_setting	triclinic
loop_
_symmetry_equiv_pos_as_xyz
  x,y,z
_cell_length_a	15.944551
_cell_length_b	15.944551
_cell_length_c	15.021413
_cell_angle_alpha	90.003065
_cell_angle_beta	89.997174
_cell_angle_gamma	83.498738
loop_
_atom_site_label
_atom_site_type_symbol
_atom_site_fract_x
_atom_site_fract_y
_atom_site_fract_z
O1	O	1.114529	0.108321	-0.073941
O2	O	1.614529	0.608321	0.426059
O3	O	0.869979	0.121677	-0.073964
O4	O	1.369979	0.621677	0.426036
O5	O	0.998932	-0.007276	-0.073944
O6	O	1.498932	0.492724	0.426056
O7	O	0.985576	0.237274	-0.073961
O8	O	1.485576	0.737274	0.426039
O9	O	0.998912	-0.007257	0.074121
O10	O	1.498912	0.492743	0.574121
O11	O	0.869959	0.121695	0.074101
O12	O	1.369959	0.621695	0.574101
O13	O	1.114508	0.108339	0.074123
O14	O	1.614508	0.608339	0.574123
Zn15	Zn	0.992230	0.115020	0.097620
Zn16	Zn	1.492230	0.615020	0.597620
Zn17	Zn	0.992257	0.114996	-0.097461
Zn18	Zn	1.492257	0.614996	0.402539
O19	O	0.985555	0.237292	0.074103
O20	O	1.485555	0.737292	0.574103
C21	C	0.838675	0.121132	0.000066
C22	C	1.338675	0.621132	0.500066
C23	C	0.745429	0.119470	0.000057
C24	C	1.245429	0.619470	0.500057
C25	C	0.530572	0.035565	0.000081
C26	C	1.030572	0.535565	0.500081
C27	C	0.469562	0.074518	-0.072926
C28	C	0.969562	0.574518	0.427074
C29	C	0.574703	0.116462	0.000068
C30	C	1.074703	0.616462	0.500068
C31	C	0.469564	0.074556	0.073054
C32	C	0.969564	0.574556	0.573054
C33	C	0.409790	0.113551	0.000083
C34	C	0.909790	0.613551	0.500083
C35	C	0.514921	0.155438	-0.072998
C36	C	1.014921	0.655438	0.427002
C37	C	0.514930	0.155464	0.073047
C38	C	1.014930	0.655464	0.573047
C39	C	0.453937	0.194476	0.000023
C40	C	0.953937	0.694476	0.500023
C41	C	0.669705	0.118137	0.000059
C42	C	1.169705	0.618137	0.500059
C43	C	0.314789	0.111883	0.000085
C44	C	0.814789	0.611883	0.500085
C45	C	0.998367	-0.038561	0.000089
C46	C	1.498367	0.461439	0.500089
C47	C	0.996705	-0.131807	0.000089
C48	C	1.496705	0.368193	0.500089
C49	C	0.912801	-0.346663	0.000069
C50	C	1.412801	0.153337	0.500069
C51	C	0.951753	-0.407672	0.073077
C52	C	1.451753	0.092328	0.573077
C53	C	0.993698	-0.302533	0.000082
C54	C	1.493698	0.197467	0.500082
C55	C	0.951792	-0.407673	-0.072903
C56	C	1.451792	0.092327	0.427097
C57	C	0.990787	-0.467445	0.000071
C58	C	1.490787	0.032555	0.500071
C59	C	1.032672	-0.362313	0.073150
C60	C	1.532672	0.137687	0.573150
C61	C	1.032700	-0.362308	-0.072895
C62	C	1.532700	0.137692	0.427105
C63	C	1.071711	-0.423298	0.000131
C64	C	1.571711	0.076702	0.500131
C65	C	0.995372	-0.207530	0.000089
C66	C	1.495372	0.292470	0.500089
C67	C	0.989119	-0.562446	0.000070
C68	C	1.489119	-0.062446	0.500070
C69	C	1.145813	0.108885	0.000092
C70	C	1.645813	0.608885	0.500092
C71	C	1.239059	0.110547	0.000094
C72	C	1.739059	0.610547	0.500094
C73	C	0.986120	0.268577	0.000069
C74	C	1.486120	0.768577	0.500069
C75	C	0.987782	0.361823	0.000063
C76	C	1.487782	0.861823	0.500063
N77	N	0.992218	0.115036	0.230758
N78	N	1.492218	0.615036	0.730758
N79	N	0.992276	0.114973	-0.230598
N80	N	1.492276	0.614973	0.269402
C81	C	0.932581	0.174636	0.470432
C82	C	1.432581	0.674636	0.970432
C83	C	1.008481	0.190943	0.529772
C84	C	1.508481	0.690943	1.029772
C85	C	0.992239	0.115015	0.412365
C86	C	1.492239	0.615015	0.912365
C87	C	0.916360	0.098727	0.529766
C88	C	1.416360	0.598727	1.029766
C89	C	0.992253	0.114997	0.587789
C90	C	1.492253	0.614997	1.087789
C91	C	1.068178	0.131360	0.470398
C92	C	1.568178	0.631360	0.970398
C93	C	0.976006	0.039111	0.470387
C94	C	1.476006	0.539111	0.970387
C95	C	1.051962	0.055386	0.529701
C96	C	1.551962	0.555386	1.029701
C97	C	0.992230	0.115028	0.311307
C98	C	1.492230	0.615028	0.811307
C99	C	0.992271	0.114984	0.688844
C100	C	1.492271	0.614984	1.188844
H101	H	0.449461	0.040295	-0.134642
H102	H	0.949461	0.540295	0.365358
O103	O	1.160759	-0.467159	0.000147
O104	O	1.660759	0.032841	0.500147
H105	H	1.170934	-0.506778	-0.060499
H106	H	1.670934	-0.006778	0.439501
H107	H	0.917528	-0.427772	0.134794
H108	H	1.417528	0.072228	0.634794
O109	O	0.823863	-0.302527	0.000163
O110	O	1.323863	0.197473	0.500163
H111	H	0.813767	-0.262904	-0.060482
H112	H	1.313767	0.237096	0.439518
H113	H	0.882181	0.225096	0.444409
H114	H	1.382181	0.725096	0.944409
O115	O	1.077943	-0.335835	0.155005
O116	O	1.577943	0.164165	0.655005
H117	H	1.078787	-0.266325	0.154385
H118	H	1.578787	0.233675	0.654385
H119	H	0.535052	0.189659	0.134767
H120	H	1.035052	0.689659	0.634767
H121	H	0.852184	0.084959	0.555847
H122	H	1.352184	0.584959	1.055847
O123	O	1.118868	-0.011409	0.563973
O124	O	1.618868	0.488591	1.063973
H125	H	1.152413	-0.044167	0.506844
H126	H	1.652413	0.455833	1.006844
O127	O	0.410011	0.283497	-0.000035
O128	O	0.910011	0.783497	0.499965
H129	H	0.370370	0.293662	0.060596
H130	H	0.870370	0.793662	0.560596
O131	O	0.906468	-0.434303	-0.154656
O132	O	1.406468	0.065697	0.345344
H133	H	0.939456	-0.415252	-0.215192
H134	H	1.439456	0.084748	0.284808
H135	H	0.962240	-0.025051	0.444283
H136	H	1.462240	0.474949	0.944283
H137	H	0.563905	-0.031573	-0.000005
H138	H	1.063905	0.468427	0.499995
H139	H	1.022224	0.255126	0.555856
H140	H	1.522224	0.755126	1.055856
H141	H	0.449470	0.040332	0.134773
H142	H	0.949470	0.540332	0.634773
H143	H	0.534918	0.189621	-0.134787
H144	H	1.034918	0.689621	0.365213
O145	O	1.077997	-0.335638	-0.154644
O146	O	1.577997	0.164362	0.345356
H147	H	1.044294	-0.353592	-0.215162
H148	H	1.544294	0.146408	0.284838
O149	O	1.153207	0.149706	0.436014
O150	O	1.653207	0.649706	0.936014
H151	H	1.152523	0.149603	0.362127
H152	H	1.652523	0.649603	0.862127
