data_functionalizedCrystal
_audit_creation_method	'MofGen! by Chris Wilmer'
_symmetry_space_group_name_H-M	'P1'
_symmetry_Int_Tables_number	1
_symmetry_cell_setting	triclinic
loop_
_symmetry_equiv_pos_as_xyz
  x,y,z
_cell_length_a	17.038278
_cell_length_b	17.038272
_cell_length_c	15.500227
_cell_angle_alpha	93.033254
_cell_angle_beta	86.950586
_cell_angle_gamma	91.111028
loop_
_atom_site_label
_atom_site_type_symbol
_atom_site_fract_x
_atom_site_fract_y
_atom_site_fract_z
O1	O	1.052165	0.167124	-0.071953
O2	O	0.824354	0.164418	-0.071953
O3	O	0.936905	0.051866	-0.071946
O4	O	0.939614	0.279676	-0.071959
O5	O	0.930073	0.058667	0.071942
O6	O	0.817522	0.171219	0.071936
O7	O	1.045333	0.173925	0.071936
Cu8	Cu	0.930804	0.173193	0.085074
Cu9	Cu	0.938883	0.165150	-0.085091
O10	O	0.932782	0.286478	0.071929
C11	C	0.791645	0.165356	-0.000009
C12	C	0.704361	0.158009	-0.000008
C13	C	0.210936	0.112871	-0.000009
C14	C	0.292947	0.119781	-0.000004
C15	C	0.329347	0.194154	-0.000013
C16	C	0.283731	0.261622	-0.000017
C17	C	0.201721	0.254712	-0.000016
C18	C	0.576735	0.218567	-0.000012
C19	C	0.658751	0.225472	-0.000015
C20	C	0.667962	0.083630	-0.000001
C21	C	0.585950	0.076726	-0.000005
C22	C	0.540340	0.144194	-0.000005
C23	C	0.413176	0.201219	-0.000010
C24	C	0.456513	0.137129	-0.000001
C25	C	0.931026	0.025973	-0.000002
C26	C	0.923678	-0.061310	-0.000002
C27	C	0.991142	-0.106920	-0.000001
C28	C	0.984233	-0.188932	-0.000009
C29	C	0.909860	-0.225333	-0.000012
C30	C	0.842392	-0.179717	-0.000016
C31	C	0.849301	-0.097706	-0.000014
C32	C	0.885450	-0.472721	-0.000024
C33	C	0.878545	-0.554737	-0.000024
C34	C	1.020388	-0.563947	-0.000019
C35	C	1.027291	-0.481934	-0.000011
C36	C	0.959822	-0.436326	-0.000020
C37	C	0.902797	-0.309162	-0.000018
C38	C	0.966887	-0.352498	-0.000020
C39	C	1.078042	0.172987	-0.000010
C40	C	1.165326	0.180334	-0.000016
C41	C	0.938661	0.312370	-0.000017
C42	C	0.946009	0.399653	-0.000023
N43	N	0.925127	0.178850	0.204758
N44	N	0.944566	0.159487	-0.204775
C45	C	0.972838	0.131178	0.250038
C46	C	0.968552	0.135464	0.340611
C47	C	0.916559	0.187427	0.385902
C48	C	0.868843	0.235101	0.340616
C49	C	0.873125	0.230811	0.250045
C50	C	0.901132	0.202871	0.659368
C51	C	0.896855	0.207160	0.749945
C52	C	0.996564	0.107521	0.749933
C53	C	1.000845	0.103238	0.659361
C54	C	0.953125	0.150909	0.614083
C55	C	0.912179	0.191811	0.478482
C56	C	0.957502	0.146521	0.521505
H57	H	0.705105	0.028701	-0.000000
H58	H	1.051704	-0.077289	0.000007
H59	H	0.999832	0.104209	0.484626
H60	H	0.869846	0.234122	0.515365
H61	H	1.043182	0.060925	0.622486
H62	H	0.330080	0.064845	0.000005
H63	H	1.039169	-0.226064	-0.000007
H64	H	0.688385	0.286039	-0.000010
H65	H	0.539610	0.273504	-0.000016
H66	H	1.035413	0.068708	0.786807
H67	H	0.781835	-0.209361	-0.000024
H68	H	0.556319	0.016164	0.000002
H69	H	0.164586	0.309648	-0.000018
H70	H	1.087853	-0.452303	-0.000009
H71	H	0.817978	-0.584371	-0.000012
H72	H	0.313374	0.322179	-0.000019
H73	H	0.830512	-0.435596	-0.000030
H74	H	0.426872	0.076574	-0.000004
H75	H	0.834272	0.269630	0.213179
H76	H	0.181305	0.052308	-0.000008
H77	H	0.442823	0.261774	-0.000020
H78	H	1.075316	-0.601090	-0.000014
H79	H	0.794365	-0.060572	-0.000015
H80	H	1.027442	-0.322858	-0.000037
H81	H	1.007401	0.096645	0.377477
H82	H	0.842241	-0.338809	-0.000018
H83	H	1.015179	0.088868	0.213168
H84	H	0.826504	0.277408	0.377497
H85	H	0.854514	0.249477	0.786817
H86	H	0.862278	0.241688	0.622510
