data_functionalizedCrystal
_audit_creation_method	'MofGen! by Chris Wilmer'
_symmetry_space_group_name_H-M	'P1'
_symmetry_Int_Tables_number	1
_symmetry_cell_setting	triclinic
loop_
_symmetry_equiv_pos_as_xyz
  x,y,z
_cell_length_a	10.685880
_cell_length_b	19.077105
_cell_length_c	19.077068
_cell_angle_alpha	89.884684
_cell_angle_beta	96.799122
_cell_angle_gamma	96.507081
loop_
_atom_site_label
_atom_site_type_symbol
_atom_site_fract_x
_atom_site_fract_y
_atom_site_fract_z
Zn1	Zn	-0.818184	-1.096551	-0.359252
Zn2	Zn	-0.318184	-0.596551	0.140748
Zn3	Zn	-0.614027	-1.083364	-0.467710
Zn4	Zn	-0.114027	-0.583364	0.032290
Zn5	Zn	-0.597050	-0.969973	-0.344743
Zn6	Zn	-0.097050	-0.469973	0.155257
Zn7	Zn	-0.817421	-0.974255	-0.471960
Zn8	Zn	-0.317421	-0.474255	0.028040
O9	O	-0.711671	-1.031036	-0.410917
O10	O	-0.211671	-0.531036	0.089083
O11	O	-0.798526	-1.193438	-0.377933
O12	O	-0.298526	-0.693438	0.122067
O13	O	-0.434109	-1.061011	-0.443548
O14	O	0.065891	-0.561011	0.056452
O15	O	-0.619599	-0.990490	-0.248037
O16	O	-0.119599	-0.490490	0.251963
O17	O	-0.648533	-1.183749	-0.457617
O18	O	-0.148533	-0.683749	0.042383
O19	O	-0.782064	-1.083487	-0.258697
O20	O	-0.282064	-0.583487	0.241303
O21	O	-0.421636	-0.977703	-0.353205
O22	O	0.078364	-0.477703	0.146795
O23	O	-0.618859	-0.871905	-0.357325
O24	O	-0.118859	-0.371905	0.142675
O25	O	-0.995188	-0.997789	-0.464860
O26	O	-0.495188	-0.497789	0.035140
O27	O	-0.780764	-0.875051	-0.450791
O28	O	-0.280764	-0.375051	0.049209
O29	O	-0.995749	-1.087639	-0.382054
O30	O	-0.495749	-0.587639	0.117946
O31	O	-0.647793	-1.065163	-0.566905
O32	O	-0.147793	-0.565163	-0.066905
O33	O	-0.797226	-0.985001	-0.570027
O34	O	-0.297226	-0.485001	-0.070027
C35	C	-0.697888	-0.847903	-0.402945
C36	C	-0.197888	-0.347903	0.097055
C37	C	-0.692022	-0.769558	-0.399554
C38	C	-0.192022	-0.269558	0.100446
C39	C	-0.724298	-1.024136	-0.594042
C40	C	-0.224298	-0.524136	-0.094042
C41	C	-0.729748	-1.021251	-0.672388
C42	C	-0.229748	-0.521251	-0.172388
C43	C	-1.042823	-1.044663	-0.425549
C44	C	-0.542823	-0.544663	0.074451
C45	C	-1.183941	-1.050470	-0.431785
C46	C	-0.683941	-0.550470	0.068215
C47	C	-0.381806	-1.017504	-0.396292
C48	C	0.118194	-0.517504	0.103708
C49	C	-0.240685	-1.011841	-0.389864
C50	C	0.259315	-0.511841	0.110136
C51	C	-0.725508	-1.214884	-0.418919
C52	C	-0.225508	-0.714884	0.081081
C53	C	-0.731405	-1.293229	-0.422330
C54	C	-0.231405	-0.793229	0.077670
C55	C	-0.773439	-0.734400	-0.446685
C56	C	-0.273439	-0.234400	0.053315
C57	C	-0.767934	-0.660788	-0.443489
C58	C	-0.267934	-0.160788	0.056511
C59	C	-0.681004	-0.622334	-0.393165
C60	C	-0.181004	-0.122334	0.106835
C61	C	-0.599584	-0.657497	-0.346028
C62	C	-0.099584	-0.157497	0.153972
C63	C	-0.605096	-0.731109	-0.349222
C64	C	-0.105096	-0.231109	0.150778
C65	C	-0.655497	-0.402003	-0.378386
C66	C	-0.155497	0.097997	0.121614
C67	C	-0.649988	-0.328386	-0.375198
C68	C	-0.149988	0.171614	0.124802
C69	C	-0.818341	-0.331682	-0.472659
C70	C	-0.318341	0.168318	0.027341
C71	C	-0.823840	-0.405295	-0.475850
C72	C	-0.323840	0.094705	0.024150
C73	C	-0.742424	-0.440452	-0.428711
C74	C	-0.242424	0.059548	0.071289
N75	N	-0.675372	-0.547090	-0.389898
N76	N	-0.175372	-0.047090	0.110102
N77	N	-0.748064	-0.515694	-0.431975
N78	N	-0.248064	-0.015694	0.068025
C79	C	-0.654576	-1.061669	-0.707551
C80	C	-0.154576	-0.561669	-0.207551
C81	C	-0.659710	-1.058960	-0.781167
C82	C	-0.159710	-0.558960	-0.281167
C83	C	-0.740009	-1.015828	-0.819617
C84	C	-0.240009	-0.515828	-0.319617
C85	C	-0.815188	-0.975408	-0.784450
C86	C	-0.315188	-0.475408	-0.284450
C87	C	-0.810061	-0.978122	-0.710836
C88	C	-0.310061	-0.478122	-0.210836
C89	C	-0.763685	-1.003236	-1.039956
C90	C	-0.263685	-0.503236	-0.539956
C91	C	-0.768804	-1.000524	-1.113574
C92	C	-0.268804	-0.500524	-0.613574
C93	C	-0.613327	-1.084077	-1.110286
C94	C	-0.113327	-0.584077	-0.610286
C95	C	-0.608201	-1.086783	-1.036671
C96	C	-0.108201	-0.586783	-0.536671
C97	C	-0.683386	-1.046367	-1.001510
C98	C	-0.183386	-0.546367	-0.501510
N99	N	-0.745255	-1.013056	-0.894864
N100	N	-0.245255	-0.513056	-0.394864
N101	N	-0.678145	-1.049143	-0.926265
N102	N	-0.178145	-0.549143	-0.426265
C103	C	-0.699023	-1.037982	-0.227078
C104	C	-0.199023	-0.537982	0.272922
C105	C	-0.693633	-1.040942	-0.148737
C106	C	-0.193633	-0.540942	0.351263
H107	H	-1.181307	-0.974320	-0.349205
H108	H	-0.681307	-0.474320	0.150795
F109	F	-0.843703	-0.960220	-1.002544
F110	F	-0.343703	-0.460220	-0.502544
H111	H	-0.880575	-0.940293	-0.815763
H112	H	-0.380575	-0.440293	-0.315763
H113	H	-0.884627	-0.303050	-0.511035
H114	H	-0.384627	0.196950	-0.011035
F115	F	-1.261556	-1.099509	-0.484940
F116	F	-0.761556	-0.599509	0.015060
H117	H	-0.894625	-0.436599	-0.516831
H118	H	-0.394625	0.063401	-0.016831
F119	F	-0.890072	-0.935105	-0.673414
F120	F	-0.390072	-0.435105	-0.173414
H121	H	-0.844223	-0.765704	-0.487667
H122	H	-0.344223	-0.265704	0.012333
H123	H	-0.834231	-0.632166	-0.481869
H124	H	-0.334231	-0.132166	0.018131
F125	F	-0.557454	-0.287462	-0.321637
F126	F	-0.057454	0.212538	0.178363
H127	H	-0.589193	-0.430618	-0.340008
H128	H	-0.089193	0.069382	0.159992
H129	H	-0.528809	-0.626183	-0.305050
H130	H	-0.028809	-0.126183	0.194950
F131	F	-0.518443	-0.768526	-0.299057
F132	F	-0.018443	-0.268526	0.200943
F133	F	-0.569102	-1.107572	-0.666635
F134	F	-0.069102	-0.607572	-0.166635
F135	F	-0.579705	-1.101981	-0.818587
F136	F	-0.079705	-0.601981	-0.318587
F137	F	-0.522750	-1.132698	-0.995755
F138	F	-0.022750	-0.632698	-0.495755
F139	F	-0.854260	-0.954607	-1.154494
F140	F	-0.354260	-0.454607	-0.654494
H141	H	-0.552118	-1.116983	-1.138923
H142	H	-0.052118	-0.616983	-0.638923
