data_functionalizedCrystal
_audit_creation_method	'MofGen! by Chris Wilmer'
_symmetry_space_group_name_H-M	'P1'
_symmetry_Int_Tables_number	1
_symmetry_cell_setting	triclinic
loop_
_symmetry_equiv_pos_as_xyz
  x,y,z
_cell_length_a	12.827893
_cell_length_b	14.908520
_cell_length_c	12.827885
_cell_angle_alpha	93.263516
_cell_angle_beta	89.980728
_cell_angle_gamma	93.320575
loop_
_atom_site_label
_atom_site_type_symbol
_atom_site_fract_x
_atom_site_fract_y
_atom_site_fract_z
Zn1	Zn	1.573615	-0.359115	-0.614817
Zn2	Zn	1.563402	-0.509998	-0.450147
Zn3	Zn	1.398853	-0.359159	-0.440093
Zn4	Zn	1.388739	-0.509931	-0.624843
O5	O	1.481152	-0.434551	-0.532475
O6	O	1.718495	-0.379139	-0.592984
O7	O	1.541533	-0.490036	-0.302580
O8	O	1.430542	-0.232908	-0.454867
O9	O	1.710992	-0.489993	-0.472002
O10	O	1.558939	-0.232876	-0.583236
O11	O	1.420640	-0.379214	-0.295194
O12	O	1.251276	-0.379149	-0.464589
O13	O	1.413304	-0.489879	-0.769746
O14	O	1.243845	-0.489921	-0.600323
O15	O	1.549132	-0.379074	-0.762380
O16	O	1.531726	-0.636234	-0.481724
O17	O	1.403401	-0.636184	-0.610072
C18	C	1.209643	-0.434533	-0.532454
C19	C	1.093489	-0.434548	-0.532471
C20	C	1.038049	-0.489447	-0.599545
C21	C	0.917998	-0.489463	-0.599564
C22	C	1.465386	-0.668943	-0.548100
C23	C	1.458737	-0.769217	-0.554820
C24	C	1.580004	-0.957632	-0.433905
C25	C	1.573760	-1.051849	-0.440215
C26	C	1.440011	-1.051867	-0.573755
C27	C	1.446255	-0.957651	-0.567444
C28	C	1.516253	-0.910537	-0.497516
C29	C	1.522491	-0.816319	-0.491201
C30	C	1.388748	-0.816339	-0.624745
C31	C	1.382504	-0.910555	-0.631056
C32	C	1.753721	-0.434569	-0.532497
C33	C	1.869874	-0.434576	-0.532506
C34	C	1.481229	-0.434464	-0.805039
C35	C	1.481262	-0.434427	-0.921190
C36	C	1.497008	-0.199243	-0.516811
C37	C	1.503765	-0.098969	-0.510137
C38	C	1.548481	-0.379587	-0.969329
C39	C	1.548517	-0.379547	-1.089377
C40	C	1.481140	-0.434572	-0.260966
C41	C	1.481327	-0.434355	-0.144799
H42	H	1.052076	-0.387555	-0.475065
H43	H	1.336834	-0.777983	-0.676539
O44	O	0.861185	-0.545665	-0.667975
C45	C	0.817361	-0.699147	-0.728673
C46	C	0.881742	-0.635601	-0.651119
H47	H	0.833974	-0.771872	-0.715086
H48	H	0.730652	-0.689249	-0.716486
H49	H	0.839851	-0.683353	-0.811922
H50	H	0.859342	-0.651356	-0.567839
H51	H	0.968435	-0.645510	-0.663396
H52	H	1.079463	-0.536433	-0.656958
O53	O	1.617276	-0.323503	-1.138609
C54	C	1.757528	-0.209012	-1.119715
C55	C	1.679729	-0.272454	-1.063827
H56	H	1.808026	-0.167709	-1.059278
H57	H	1.809420	-0.250413	-1.173547
H58	H	1.712674	-0.161900	-1.167706
H59	H	1.724497	-0.319578	-1.015780
H60	H	1.627837	-0.230996	-1.010058
H61	H	1.625675	-1.090190	-0.388418
O62	O	0.926612	-0.378375	-0.464033
C63	C	0.970537	-0.224887	-0.403425
C64	C	0.906196	-0.288432	-0.481013
H65	H	0.954071	-0.152154	-0.417141
H66	H	0.948022	-0.240557	-0.320144
H67	H	1.057220	-0.234911	-0.415598
H68	H	0.819497	-0.278443	-0.468936
H69	H	0.928799	-0.272747	-0.564266
O70	O	1.590396	-0.770410	-0.423303
C71	C	1.659342	-0.625259	-0.354443
C72	C	1.582373	-0.677134	-0.431364
H73	H	1.652897	-0.549836	-0.360950
H74	H	1.639818	-0.643784	-0.271378
H75	H	1.742355	-0.643763	-0.374107
H76	H	1.499333	-0.658658	-0.411796
H77	H	1.601987	-0.658604	-0.514406
O78	O	1.648076	-0.912000	-0.365950
C79	C	1.780013	-0.921921	-0.234097
C80	C	1.702987	-0.973710	-0.311032
H81	H	1.824413	-0.971791	-0.189660
H82	H	1.837627	-0.877762	-0.279110
H83	H	1.734960	-0.877860	-0.176511
H84	H	1.747952	-1.017820	-0.368636
H85	H	1.645373	-1.017812	-0.265950
O86	O	1.372047	-1.097782	-0.641589
C87	C	1.303212	-1.242941	-0.710535
C88	C	1.380211	-1.191056	-0.633651
H89	H	1.309802	-1.318362	-0.704159
H90	H	1.220152	-1.224567	-0.690871
H91	H	1.322732	-1.224296	-0.793557
H92	H	1.360787	-1.209673	-0.550603
H93	H	1.463248	-1.209434	-0.653406
H94	H	1.325517	-0.948929	-0.687992
H95	H	1.606000	-0.332662	-0.921668
O96	O	1.412809	-0.490417	-1.095296
C97	C	1.390636	-0.612196	-0.980090
C98	C	1.468343	-0.548749	-1.036084
H99	H	1.435505	-0.659386	-0.932221
H100	H	1.338835	-0.570800	-0.926156
H101	H	1.340031	-0.653415	-1.040509
H102	H	1.519017	-0.507516	-0.975739
H103	H	1.520072	-0.590197	-1.090037
O104	O	1.412493	-0.490312	-0.977988
C105	C	1.231829	-0.534097	-1.014449
C106	C	1.309596	-0.470735	-0.950077
H107	H	1.148621	-0.518304	-0.991891
H108	H	1.243996	-0.524086	-1.101151
H109	H	1.245309	-0.606860	-0.997911
H110	H	1.296163	-0.397948	-0.966527
H111	H	1.297410	-0.480824	-0.863396
