data_functionalizedCrystal
_audit_creation_method	'MofGen! by Chris Wilmer'
_symmetry_space_group_name_H-M	'P1'
_symmetry_Int_Tables_number	1
_symmetry_cell_setting	triclinic
loop_
_symmetry_equiv_pos_as_xyz
  x,y,z
_cell_length_a	18.215407
_cell_length_b	18.215404
_cell_length_c	18.215399
_cell_angle_alpha	90.027515
_cell_angle_beta	89.983101
_cell_angle_gamma	89.978718
loop_
_atom_site_label
_atom_site_type_symbol
_atom_site_fract_x
_atom_site_fract_y
_atom_site_fract_z
Zn1	Zn	1.125077	0.293042	-0.416060
Zn2	Zn	1.625077	0.793042	0.083940
Zn3	Zn	1.124988	0.416113	-0.292995
Zn4	Zn	1.624988	0.916113	0.207005
Zn5	Zn	1.002010	0.293059	-0.293014
Zn6	Zn	1.502010	0.793059	0.206986
Zn7	Zn	1.001978	0.416066	-0.416026
Zn8	Zn	1.501978	0.916066	0.083974
O9	O	1.063513	0.354570	-0.354524
O10	O	1.563513	0.854570	0.145476
O11	O	1.228050	0.309380	-0.399742
O12	O	1.728050	0.809380	0.100258
O13	O	1.108651	0.399817	-0.190013
O14	O	1.608651	0.899817	0.309987
O15	O	1.018386	0.190073	-0.309359
O16	O	1.518386	0.690073	0.190641
O17	O	1.227984	0.399800	-0.309326
O18	O	1.727984	0.899800	0.190674
O19	O	1.108803	0.190060	-0.399760
O20	O	1.608803	0.690060	0.100240
O21	O	1.018299	0.309410	-0.190027
O22	O	1.518299	0.809410	0.309973
O23	O	0.899021	0.309364	-0.309326
O24	O	1.399021	0.809364	0.190674
O25	O	1.018332	0.399719	-0.519015
O26	O	1.518332	0.899719	-0.019015
O27	O	0.898998	0.399736	-0.399702
O28	O	1.398998	0.899736	0.100298
O29	O	1.108772	0.309334	-0.519040
O30	O	1.608772	0.809334	-0.019040
O31	O	1.108620	0.519091	-0.309293
O32	O	1.608620	1.019091	0.190707
O33	O	1.018245	0.519056	-0.399684
O34	O	1.518245	1.019056	0.100316
C35	C	0.872307	0.354547	-0.354513
C36	C	1.372307	0.854547	0.145487
C37	C	0.790508	0.354555	-0.354525
C38	C	1.290508	0.854555	0.145475
C39	C	0.525458	0.401704	-0.401518
C40	C	1.025458	0.901704	0.098482
C41	C	0.602316	0.401698	-0.401515
C42	C	1.102316	0.901698	0.098485
C43	C	0.602310	0.307452	-0.307542
C44	C	1.102310	0.807452	0.192458
C45	C	0.525453	0.307463	-0.307543
C46	C	1.025453	0.807463	0.192457
C47	C	0.487029	0.354588	-0.354535
C48	C	0.987029	0.854588	0.145465
C49	C	0.640745	0.354571	-0.354531
C50	C	1.140745	0.854571	0.145469
C51	C	0.724078	0.354564	-0.354527
C52	C	1.224078	0.854564	0.145473
C53	C	0.403690	0.354596	-0.354538
C54	C	0.903690	0.854596	0.145462
C55	C	1.063439	0.545776	-0.354499
C56	C	1.563439	1.045776	0.145501
C57	C	1.063475	0.627575	-0.354513
C58	C	1.563475	1.127575	0.145487
C59	C	1.063558	0.354519	-0.546477
C60	C	1.563558	0.854519	-0.046477
C61	C	1.063577	0.354498	-0.628276
C62	C	1.563577	0.854498	-0.128276
C63	C	1.255466	0.354593	-0.354536
C64	C	1.755466	0.854593	0.145464
C65	C	1.337265	0.354603	-0.354541
C66	C	1.837265	0.854603	0.145459
C67	C	1.110647	0.815763	-0.307543
C68	C	1.610647	1.315763	0.192457
C69	C	1.110681	0.892621	-0.307565
C70	C	1.610681	1.392621	0.192435
C71	C	1.016492	0.892625	-0.401611
C72	C	1.516492	1.392625	0.098389
C73	C	1.016462	0.815768	-0.401592
C74	C	1.516462	1.315768	0.098408
C75	C	1.063539	0.777339	-0.354554
C76	C	1.563539	1.277339	0.145446
C77	C	1.063603	0.931055	-0.354595
C78	C	1.563603	1.431055	0.145405
C79	C	1.063640	1.014388	-0.354619
C80	C	1.563640	1.514388	0.145381
C81	C	1.063503	0.694000	-0.354531
C82	C	1.563503	1.194000	0.145469
C83	C	1.063613	1.162617	-0.354579
C84	C	1.563613	1.662617	0.145421
C85	C	1.063667	1.080818	-0.354636
C86	C	1.563667	1.580818	0.145364
C87	C	1.110687	0.307390	-0.816484
C88	C	1.610687	0.807390	-0.316484
C89	C	1.110695	0.307369	-0.893343
C90	C	1.610695	0.807369	-0.393343
C91	C	1.016520	0.401491	-0.893306
C92	C	1.516520	0.901491	-0.393306
C93	C	1.016508	0.401509	-0.816448
C94	C	1.516508	0.901509	-0.316448
C95	C	1.063596	0.354459	-0.778040
C96	C	1.563596	0.854459	-0.278040
C97	C	1.063616	0.354420	-0.931756
C98	C	1.563616	0.854420	-0.431756
C99	C	1.063625	0.354397	-1.015089
C100	C	1.563625	0.854397	-0.515089
C101	C	1.063586	0.354481	-0.694701
C102	C	1.563586	0.854481	-0.194701
C103	C	1.063511	0.354567	-0.163318
C104	C	1.563511	0.854567	0.336682
C105	C	1.063635	0.354382	-0.081519
C106	C	1.563635	0.854382	0.418481
H107	H	0.633605	0.269084	-0.269284
H108	H	1.133605	0.769084	0.230716
O109	O	0.965740	0.452240	-0.934735
O110	O	1.465740	0.952240	-0.434735
H111	H	0.907985	0.439609	-0.919982
H112	H	1.407985	0.939609	-0.419982
H113	H	1.149043	0.923903	-0.269284
H114	H	1.649043	1.423903	0.230716
H115	H	1.148980	0.784475	-0.269242
H116	H	1.648980	1.284475	0.230758
O117	O	0.483996	0.256640	-0.256868
O118	O	0.983996	0.756640	0.243132
H119	H	0.523625	0.223861	-0.224200
H120	H	1.023625	0.723861	0.275800
O121	O	0.965704	0.934072	-0.452330
O122	O	1.465704	1.434072	0.047670
H123	H	0.973630	0.993972	-0.444438
H124	H	1.473630	1.493972	0.055562
H125	H	0.978101	0.784481	-0.439878
H126	H	1.478101	1.284481	0.060122
H127	H	1.149026	0.269077	-0.785214
H128	H	1.649026	0.769077	-0.285214
H129	H	0.978156	0.439837	-0.785146
H130	H	1.478156	0.939837	-0.285146
O131	O	1.161483	0.256603	-0.934816
O132	O	1.661483	0.756603	-0.434816
H133	H	1.219236	0.269238	-0.920080
H134	H	1.719236	0.769238	-0.420080
O135	O	0.484011	0.452586	-0.452142
O136	O	0.984011	0.952586	0.047858
H137	H	0.523648	0.485371	-0.484788
H138	H	1.023648	0.985371	0.015212
H139	H	0.633602	0.440065	-0.439773
H140	H	1.133602	0.940065	0.060227
