data_functionalizedCrystal
_audit_creation_method	'MofGen! by Chris Wilmer'
_symmetry_space_group_name_H-M	'P1'
_symmetry_Int_Tables_number	1
_symmetry_cell_setting	triclinic
loop_
_symmetry_equiv_pos_as_xyz
  x,y,z
_cell_length_a	16.109301
_cell_length_b	8.965430
_cell_length_c	16.109301
_cell_angle_alpha	89.998998
_cell_angle_beta	96.538519
_cell_angle_gamma	90.001088
loop_
_atom_site_label
_atom_site_type_symbol
_atom_site_fract_x
_atom_site_fract_y
_atom_site_fract_z
O1	O	1.103132	0.123950	-0.106861
O2	O	0.861070	0.123974	-0.120160
O3	O	0.988750	0.123946	0.007520
O4	O	0.975451	0.123978	-0.234542
O5	O	0.988740	-0.124133	0.007512
O6	O	0.861059	-0.124105	-0.120169
O7	O	1.103121	-0.124129	-0.106869
Cu8	Cu	0.982089	-0.146768	-0.113520
Cu9	Cu	0.982102	0.146614	-0.113510
O10	O	0.975440	-0.124101	-0.234550
C11	C	0.830090	-0.000062	-0.119626
C12	C	0.737794	-0.000054	-0.118011
C13	C	0.515522	-0.000061	-0.190018
C14	C	0.428801	-0.000071	-0.188494
C15	C	0.448676	-0.000085	-0.037006
C16	C	0.535394	-0.000086	-0.038530
C17	C	0.568815	-0.000067	-0.115039
C18	C	0.395376	-0.000075	-0.111990
C19	C	0.301350	-0.000086	-0.110337
C20	C	0.662847	-0.000059	-0.116693
N21	N	0.982086	-0.353118	-0.113526
C22	C	0.923020	-0.450411	-0.172555
C23	C	0.998145	-0.549829	-0.188668
C24	C	0.906992	-0.549826	-0.097421
C25	C	1.057249	-0.450348	-0.129676
C26	C	0.966047	-0.450336	-0.038397
C27	C	1.041227	-0.549710	-0.054477
C28	C	1.134101	-0.000089	-0.107404
C29	C	1.226397	-0.000088	-0.109019
C30	C	0.988206	-0.000094	0.038491
C31	C	0.986591	-0.000096	0.130786
N32	N	0.982111	0.352963	-0.113497
C33	C	0.975984	-0.000058	-0.265521
C34	C	0.977600	-0.000046	-0.357816
C35	C	1.058599	-0.000080	0.353059
C36	C	1.057075	-0.000067	0.439779
C37	C	0.905586	-0.000058	0.419905
C38	C	0.907111	-0.000060	0.333186
C39	C	0.983620	-0.000078	0.299766
C40	C	0.980571	-0.000064	0.473205
C41	C	0.978918	-0.000050	0.567231
C42	C	0.985273	-0.000089	0.205734
H43	H	0.873115	-0.406811	-0.222519
C44	C	0.821431	-0.000043	0.456667
H45	H	0.776995	-0.000025	0.412505
H46	H	0.817681	-0.086550	0.490085
H47	H	0.817694	0.086482	0.490079
C48	C	1.016500	-0.608880	-0.274474
H49	H	1.066071	-0.667149	-0.267869
H50	H	0.971099	-0.668692	-0.297936
H51	H	1.023667	-0.527210	-0.310552
C52	C	0.824632	-0.000050	0.274556
H53	H	0.836500	-0.000035	0.218124
H54	H	0.793253	-0.086555	0.284680
H55	H	0.793268	0.086477	0.284686
C56	C	0.552282	-0.000056	-0.274174
H57	H	0.508119	-0.000068	-0.318610
H58	H	0.585700	0.086453	-0.277920
H59	H	0.585696	-0.086579	-0.277917
C60	C	1.143070	-0.391578	-0.148173
H61	H	1.142527	-0.285616	-0.148102
H62	H	1.185056	-0.426368	-0.106482
H63	H	1.154562	-0.426473	-0.201364
C64	C	1.139550	-0.000063	0.498402
H65	H	1.127687	-0.000041	0.554836
H66	H	1.170922	-0.086574	0.488278
H67	H	1.170918	0.086458	0.488266
H68	H	0.385413	-0.000070	-0.249550
C69	C	1.108788	-0.608257	0.012976
H70	H	1.162084	-0.574010	0.001406
H71	H	1.097839	-0.572685	0.066198
H72	H	1.108132	-0.714214	0.012922
C73	C	1.142752	-0.000088	0.316294
H74	H	1.132924	-0.000104	0.257015
H75	H	1.173626	0.086421	0.334587
H76	H	1.173620	-0.086611	0.334592
H77	H	0.578788	-0.000094	0.022530
H78	H	0.421454	-0.000110	0.025285
C79	C	0.821190	-0.608841	-0.079025
H80	H	0.779283	-0.574820	-0.121026
H81	H	0.821959	-0.714786	-0.078636
H82	H	0.809386	-0.573290	-0.026067
H83	H	0.952440	-0.406599	0.025105
