data_functionalizedCrystal
_audit_creation_method	'MofGen! by Chris Wilmer'
_symmetry_space_group_name_H-M	'P1'
_symmetry_Int_Tables_number	1
_symmetry_cell_setting	triclinic
loop_
_symmetry_equiv_pos_as_xyz
  x,y,z
_cell_length_a	6.817900
_cell_length_b	15.185442
_cell_length_c	17.110486
_cell_angle_alpha	96.143116
_cell_angle_beta	99.060439
_cell_angle_gamma	104.264065
loop_
_atom_site_label
_atom_site_type_symbol
_atom_site_fract_x
_atom_site_fract_y
_atom_site_fract_z
V1	V	-3.980762	-0.125486	-0.246958
O2	O	-3.965179	0.006309	-0.242012
O3	O	-3.936414	-0.249085	-0.245504
O4	O	-3.910557	-0.123434	-0.354557
O5	O	-3.991215	-0.120213	-0.132204
V6	V	-4.466691	-0.109736	-0.233204
O7	O	-4.236744	-0.160034	-0.277128
O8	O	-4.660906	-0.075188	-0.203033
O9	O	-4.287832	0.013863	-0.234657
O10	O	-4.599671	-0.241531	-0.238150
O11	O	-4.573634	-0.115009	-0.347957
O12	O	-4.313690	-0.111789	-0.125604
C13	C	-3.783106	-0.279220	-0.241669
C14	C	-3.827988	-0.380263	-0.241198
C15	C	-3.750122	-0.118937	-0.380776
C16	C	-3.774032	-0.118077	-0.468740
C17	C	-3.836289	-0.802871	-0.235231
C18	C	-4.199213	-0.812114	-0.243147
C19	C	-4.157049	-0.717179	-0.243595
C20	C	-3.954500	-0.665086	-0.239859
C21	C	-3.794115	-0.707927	-0.235676
C22	C	-4.317425	-0.674329	-0.247769
C23	C	-4.275265	-0.579389	-0.248216
C24	C	-4.072715	-0.527295	-0.244487
C25	C	-3.912326	-0.570142	-0.240305
C26	C	-3.709777	-0.518049	-0.236570
C27	C	-3.549387	-0.560895	-0.232393
C28	C	-3.591565	-0.655833	-0.231947
C29	C	-4.030537	-0.432357	-0.244933
C30	C	-3.667603	-0.423105	-0.237015
C31	C	-3.966700	-0.122209	-0.514106
C32	C	-3.989154	-0.121400	-0.596758
C33	C	-3.818940	-0.116466	-0.634043
C34	C	-3.626254	-0.112331	-0.588671
C35	C	-3.603800	-0.113133	-0.506020
C36	C	-3.877657	-0.113810	-0.883393
C37	C	-3.900128	-0.113011	-0.966050
C38	C	-4.263026	-0.122079	-0.974131
C39	C	-4.240557	-0.122887	-0.891479
C40	C	-4.047873	-0.118747	-0.846113
C41	C	-3.841888	-0.115642	-0.718527
C42	C	-4.024924	-0.119564	-0.761630
C43	C	-4.104483	0.043993	-0.238490
C44	C	-4.038838	0.145036	-0.238966
C45	C	-4.137468	-0.116288	-0.099381
C46	C	-4.092796	-0.117143	-0.011416
H47	H	-3.502668	-0.380697	-0.233979
H48	H	-3.460989	-0.690727	-0.228545
H49	H	-4.161122	-0.397474	-0.248324
H50	H	-4.146039	-0.124760	-0.633690
H51	H	-3.761507	-0.108990	-0.996405
H52	H	-4.419903	-0.125449	-1.011076
Br53	Br	-3.618628	-0.861016	-0.229570
Br54	Br	-3.342305	-0.107512	-0.444449
H55	H	-4.163508	-0.123579	-0.731269
Br56	Br	-3.395244	-0.105632	-0.639271
Br57	Br	-4.474082	-0.882808	-0.248196
Br58	Br	-4.197726	-0.128916	-0.463514
Br59	Br	-3.616171	-0.108216	-0.821839
H60	H	-3.703304	-0.111628	-0.748894
Br61	Br	-4.471577	-0.129591	-0.840884
Br62	Br	-3.274498	-0.490183	-0.227310
Br63	Br	-4.592290	-0.745025	-0.252813
H64	H	-4.405870	-0.544512	-0.251619
