data_functionalizedCrystal
_audit_creation_method	'MofGen! by Chris Wilmer'
_symmetry_space_group_name_H-M	'P1'
_symmetry_Int_Tables_number	1
_symmetry_cell_setting	triclinic
loop_
_symmetry_equiv_pos_as_xyz
  x,y,z
_cell_length_a	10.686220
_cell_length_b	16.625546
_cell_length_c	10.685880
_cell_angle_alpha	94.335175
_cell_angle_beta	89.641569
_cell_angle_gamma	94.404440
loop_
_atom_site_label
_atom_site_type_symbol
_atom_site_fract_x
_atom_site_fract_y
_atom_site_fract_z
Zn1	Zn	1.972202	-0.251696	-0.562343
Zn2	Zn	1.955958	-0.377078	-0.352575
Zn3	Zn	1.746331	-0.253339	-0.368665
Zn4	Zn	1.762371	-0.397573	-0.578345
O5	O	1.859215	-0.319921	-0.465482
O6	O	2.145592	-0.259063	-0.521086
O7	O	1.914639	-0.352774	-0.179170
O8	O	1.776379	-0.140287	-0.394394
O9	O	2.133657	-0.351181	-0.366971
O10	O	1.942325	-0.139079	-0.536688
O11	O	1.760627	-0.261864	-0.190991
O12	O	1.572914	-0.281737	-0.409910
O13	O	1.803716	-0.386111	-0.751762
O14	O	1.584698	-0.387705	-0.563961
O15	O	1.957878	-0.278936	-0.740006
O16	O	1.930192	-0.492631	-0.382488
O17	O	1.787965	-0.507689	-0.548359
C18	C	1.533289	-0.337124	-0.490419
C19	C	1.393859	-0.344504	-0.501116
C20	C	1.859093	-0.529416	-0.465439
C21	C	1.859158	-0.619035	-0.465453
C22	C	1.859387	-0.947205	-0.465567
C23	C	1.859319	-0.855898	-0.465539
C24	C	1.859271	-0.783123	-0.465510
C25	C	1.859206	-0.691810	-0.465483
C26	C	2.186414	-0.302653	-0.440449
C27	C	2.325846	-0.295294	-0.429781
C28	C	1.884398	-0.334627	-0.792672
C29	C	1.895130	-0.340893	-0.932101
C30	C	1.859375	-0.109608	-0.465551
C31	C	1.859443	-0.019985	-0.465580
C32	C	1.834202	-0.305212	-0.139559
C33	C	1.823714	-0.298705	-0.000113
H34	H	1.754352	-0.257795	-0.951673
C35	C	1.987787	-0.395309	-0.996736
C36	C	2.073971	-0.348747	-1.065791
C37	C	2.159355	-0.398843	-1.125332
H38	H	1.943826	-0.435261	-1.051604
H39	H	2.031226	-0.420917	-0.935403
H40	H	2.030536	-0.323153	-1.127116
H41	H	2.117962	-0.308797	-1.010951
H42	H	2.202794	-0.424450	-1.064000
H43	H	2.115383	-0.438792	-1.180195
H44	H	2.217848	-0.367257	-1.172184
H45	H	1.345413	-0.392287	-0.570371
C46	C	1.390582	-0.231704	-0.337349
C47	C	1.459601	-0.269724	-0.251140
C48	C	1.519274	-0.211170	-0.165981
H49	H	1.329355	-0.201789	-0.293898
H50	H	1.445491	-0.196113	-0.381517
H51	H	1.404697	-0.305300	-0.206976
H52	H	1.520848	-0.299635	-0.294554
H53	H	1.574183	-0.175580	-0.210150
H54	H	1.458039	-0.181258	-0.122540
H55	H	1.566120	-0.236958	-0.107486
