data_functionalizedCrystal
_audit_creation_method	'MofGen! by Chris Wilmer'
_symmetry_space_group_name_H-M	'P1'
_symmetry_Int_Tables_number	1
_symmetry_cell_setting	triclinic
loop_
_symmetry_equiv_pos_as_xyz
  x,y,z
_cell_length_a	9.065218
_cell_length_b	17.038272
_cell_length_c	8.140239
_cell_angle_alpha	89.996147
_cell_angle_beta	89.997198
_cell_angle_gamma	88.063721
loop_
_atom_site_label
_atom_site_type_symbol
_atom_site_fract_x
_atom_site_fract_y
_atom_site_fract_z
O1	O	1.971908	0.114742	-0.136620
O2	O	2.471908	0.614742	0.363380
O3	O	1.543567	0.124153	-0.136623
O4	O	2.043567	0.624153	0.363377
O5	O	1.755192	0.005614	-0.136608
O6	O	2.255192	0.505614	0.363392
O7	O	1.760283	0.233281	-0.136634
O8	O	2.260283	0.733281	0.363366
O9	O	1.755179	0.005612	0.136619
O10	O	2.255179	0.505612	0.636619
O11	O	1.543555	0.124152	0.136605
O12	O	2.043555	0.624152	0.636605
O13	O	1.971895	0.114740	0.136607
O14	O	2.471895	0.614740	0.636607
Zn15	Zn	1.757723	0.119446	0.179986
Zn16	Zn	2.257723	0.619446	0.679986
Zn17	Zn	1.757740	0.119448	-0.180002
Zn18	Zn	2.257740	0.619448	0.319998
O19	O	1.760271	0.233280	0.136593
O20	O	2.260271	0.733280	0.636593
C21	C	1.488484	0.123248	-0.000009
C22	C	1.988484	0.623248	0.499991
C23	C	1.324369	0.120544	-0.000010
C24	C	1.824369	0.620544	0.499990
C25	C	1.750555	-0.023549	0.000005
C26	C	2.250555	0.476451	0.500005
C27	C	1.736739	-0.110441	0.000005
C28	C	2.236739	0.389559	0.500005
C29	C	1.863587	-0.159639	0.000007
C30	C	2.363587	0.340361	0.500007
C31	C	1.850596	-0.241284	-0.000009
C32	C	2.350596	0.258716	0.499991
C33	C	1.710756	-0.273728	-0.000015
C34	C	2.210756	0.226272	0.499985
C35	C	1.583899	-0.224524	-0.000022
C36	C	2.083899	0.275476	0.499978
C37	C	1.596891	-0.142881	-0.000019
C38	C	2.096891	0.357119	0.499981
C39	C	1.664859	-0.519818	-0.000038
C40	C	2.164859	-0.019818	0.499962
C41	C	1.651876	-0.601467	-0.000037
C42	C	2.151876	-0.101467	0.499963
C43	C	1.918575	-0.618221	-0.000026
C44	C	2.418575	-0.118221	0.499974
C45	C	1.931554	-0.536576	-0.000012
C46	C	2.431554	-0.036576	0.499988
C47	C	1.804697	-0.487379	-0.000028
C48	C	2.304697	0.012621	0.499972
C49	C	1.697475	-0.357182	-0.000026
C50	C	2.197475	0.142818	0.499974
C51	C	1.817980	-0.403927	-0.000029
C52	C	2.317980	0.096073	0.499971
C53	C	2.026979	0.115646	-0.000010
C54	C	2.526979	0.615646	0.499990
C55	C	2.191093	0.118350	-0.000020
C56	C	2.691093	0.618350	0.499980
C57	C	1.764908	0.262442	-0.000024
C58	C	2.264908	0.762442	0.499976
C59	C	1.778724	0.349335	-0.000034
C60	C	2.278724	0.849335	0.499966
N61	N	1.757722	0.119444	0.425669
N62	N	2.257722	0.619444	0.925669
N63	N	1.757751	0.119443	-0.425685
N64	N	2.257751	0.619443	0.074315
H65	H	1.977459	-0.133230	0.000022
H66	H	2.477459	0.366770	0.500022
H67	H	1.583616	-0.383607	-0.000027
H68	H	2.083616	0.116393	0.499973
Cl69	Cl	1.993772	-0.363138	-0.000030
Cl70	Cl	2.493772	0.136862	0.499970
H71	H	1.953890	-0.281338	-0.000003
H72	H	2.453890	0.218662	0.499997
Cl73	Cl	1.476064	-0.642252	-0.000035
Cl74	Cl	1.976064	-0.142252	0.499965
H75	H	2.021854	-0.658286	-0.000016
H76	H	2.521854	-0.158286	0.499984
Cl77	Cl	1.437418	-0.081031	-0.000028
Cl78	Cl	1.937418	0.418969	0.499972
Cl79	Cl	1.505378	-0.457980	-0.000062
Cl80	Cl	2.005378	0.042020	0.499938
Cl81	Cl	2.107360	-0.495795	-0.000058
Cl82	Cl	2.607360	0.004205	0.499942
H83	H	1.470038	-0.250946	-0.000038
H84	H	1.970038	0.249054	0.499962
