data_functionalizedCrystal
_audit_creation_method	'MofGen! by Chris Wilmer'
_symmetry_space_group_name_H-M	'P1'
_symmetry_Int_Tables_number	1
_symmetry_cell_setting	triclinic
loop_
_symmetry_equiv_pos_as_xyz
  x,y,z
_cell_length_a	17.699077
_cell_length_b	17.699092
_cell_length_c	18.366186
_cell_angle_alpha	89.995439
_cell_angle_beta	89.991511
_cell_angle_gamma	83.283472
loop_
_atom_site_label
_atom_site_type_symbol
_atom_site_fract_x
_atom_site_fract_y
_atom_site_fract_z
O1	O	1.004086	0.095690	-0.060537
O2	O	1.337420	0.429024	0.272796
O3	O	1.670753	0.762357	0.606129
O4	O	0.783708	0.108148	-0.060540
O5	O	1.117041	0.441481	0.272793
O6	O	1.450374	0.774814	0.606126
O7	O	0.900120	-0.008270	-0.060537
O8	O	1.233453	0.325063	0.272796
O9	O	1.566787	0.658397	0.606130
O10	O	0.887674	0.212108	-0.060541
O11	O	1.221007	0.545441	0.272793
O12	O	1.554341	0.878775	0.606126
O13	O	0.900100	-0.008276	0.060562
O14	O	1.233434	0.325058	0.393896
O15	O	1.566767	0.658391	0.727229
O16	O	0.783688	0.108142	0.060559
O17	O	1.117021	0.441475	0.393892
O18	O	1.450355	0.774808	0.727226
O19	O	1.004067	0.095685	0.060562
O20	O	1.337400	0.429018	0.393895
O21	O	1.670733	0.762351	0.727229
Zn22	Zn	0.893874	0.101912	0.079788
Zn23	Zn	1.227207	0.435246	0.413121
Zn24	Zn	1.560541	0.768579	0.746454
Zn25	Zn	0.893900	0.101920	-0.079766
Zn26	Zn	1.227233	0.435253	0.253567
Zn27	Zn	1.560567	0.768587	0.586901
O28	O	0.887654	0.212102	0.060559
O29	O	1.220988	0.545435	0.393892
O30	O	1.554321	0.878769	0.727225
C31	C	0.755501	0.107699	0.000009
C32	C	1.088834	0.441032	0.333342
C33	C	1.422167	0.774366	0.666675
C34	C	0.671482	0.106362	0.000007
C35	C	1.004816	0.439696	0.333341
C36	C	1.338149	0.773029	0.666674
C37	C	0.632004	0.105729	0.066020
C38	C	0.965338	0.439063	0.399353
C39	C	1.298671	0.772396	0.732686
C40	C	0.553062	0.104461	0.066020
C41	C	0.886395	0.437794	0.399354
C42	C	1.219728	0.771128	0.732687
C43	C	0.513598	0.103831	0.000008
C44	C	0.846931	0.437165	0.333342
C45	C	1.180265	0.770498	0.666675
C46	C	0.553082	0.104462	-0.066009
C47	C	0.886415	0.437796	0.267324
C48	C	1.219749	0.771129	0.600658
C49	C	0.632024	0.105725	-0.066009
C50	C	0.965357	0.439058	0.267324
C51	C	1.298690	0.772392	0.600658
C52	C	0.234718	0.099369	-0.066010
C53	C	0.568052	0.432702	0.267323
C54	C	0.901385	0.766036	0.600656
C55	C	0.155771	0.098108	-0.066005
C56	C	0.489104	0.431442	0.267328
C57	C	0.822437	0.764775	0.600662
C58	C	0.155756	0.098105	0.066019
C59	C	0.489090	0.431438	0.399352
C60	C	0.822423	0.764772	0.732686
C61	C	0.234698	0.099368	0.066019
C62	C	0.568032	0.432701	0.399352
C63	C	0.901365	0.766034	0.732686
C64	C	0.274176	0.099994	0.000002
C65	C	0.607509	0.433328	0.333336
C66	C	0.940842	0.766661	0.666669
C67	C	0.359774	0.101368	0.000002
C68	C	0.693108	0.434701	0.333336
C69	C	1.026441	0.768035	0.666669
C70	C	0.428000	0.102463	0.000008
C71	C	0.761333	0.435797	0.333341
C72	C	1.094667	0.769130	0.666674
C73	C	0.899663	-0.036470	0.000011
C74	C	1.232996	0.296864	0.333345
C75	C	1.566330	0.630197	0.666678
C76	C	0.898322	-0.120487	0.000008
C77	C	1.231655	0.212846	0.333341
C78	C	1.564989	0.546179	0.666675
C79	C	0.897705	-0.159952	-0.066004
C80	C	1.231038	0.173382	0.267329
C81	C	1.564371	0.506715	0.600663
C82	C	0.896440	-0.238895	-0.066005
C83	C	1.229773	0.094439	0.267328
C84	C	1.563106	0.427772	0.600662
C85	C	0.895798	-0.278373	0.000007
C86	C	1.229131	0.054961	0.333340
C87	C	1.562464	0.388294	0.666674
C88	C	0.896413	-0.238902	0.066024
C89	C	1.229746	0.094431	0.399358
C90	C	1.563080	0.427764	0.732691
C91	C	0.897672	-0.159960	0.066024
C92	C	1.231006	0.173373	0.399358
C93	C	1.564339	0.506706	0.732691
C94	C	0.891333	-0.557267	0.066025
C95	C	1.224666	-0.223934	0.399359
C96	C	1.557999	0.109399	0.732692
C97	C	0.890075	-0.636215	0.066020
C98	C	1.223409	-0.302882	0.399353
C99	C	1.556742	0.030451	0.732687
C100	C	0.890100	-0.636202	-0.066004
C101	C	1.223433	-0.302868	0.267329
C102	C	1.556766	0.030465	0.600663
C103	C	0.891359	-0.557260	-0.066004
C104	C	1.224692	-0.223926	0.267329
C105	C	1.558026	0.109407	0.600663
C106	C	0.891970	-0.517796	0.000013
C107	C	1.225304	-0.184462	0.333346
C108	C	1.558637	0.148871	0.666679
C109	C	0.893341	-0.432197	0.000013
C110	C	1.226674	-0.098863	0.333346
C111	C	1.560007	0.234470	0.666680
C112	C	0.894433	-0.363971	0.000008
C113	C	1.227766	-0.030638	0.333341
C114	C	1.561100	0.302696	0.666674
C115	C	1.032274	0.096133	0.000011
C116	C	1.365607	0.429466	0.333345
C117	C	1.698940	0.762800	0.666678
C118	C	1.116292	0.097470	0.000008
C119	C	1.449625	0.430803	0.333341
C120	C	1.782959	0.764137	0.666674
C121	C	0.888111	0.240302	0.000009
C122	C	1.221444	0.573635	0.333342
C123	C	1.554778	0.906969	0.666675
C124	C	0.889452	0.324320	0.000007
C125	C	1.222786	0.657653	0.333341
C126	C	1.556119	0.990986	0.666674
N127	N	0.893862	0.101907	0.188679
N128	N	1.227195	0.435240	0.522012
N129	N	1.560529	0.768573	0.855345
N130	N	0.893918	0.101919	-0.188657
N131	N	1.227252	0.435253	0.144676
N132	N	1.560585	0.768586	0.478010
C133	C	0.945426	0.050382	0.226781
C134	C	1.278759	0.383716	0.560114
C135	C	1.612093	0.717049	0.893447
C136	C	0.945431	0.050379	0.303008
C137	C	1.278764	0.383712	0.636342
C138	C	1.612098	0.717046	0.969675
C139	C	0.893879	0.101913	0.341132
C140	C	1.227212	0.435246	0.674465
C141	C	1.560545	0.768580	1.007798
C142	C	0.842305	0.153441	0.303020
C143	C	1.175638	0.486775	0.636354
C144	C	1.508971	0.820108	0.969687
C145	C	0.842296	0.153438	0.226794
C146	C	1.175630	0.486771	0.560127
C147	C	1.508963	0.820105	0.893461
C148	C	0.883838	0.170862	0.461891
C149	C	1.217171	0.504195	0.795224
C150	C	1.550504	0.837529	1.128557
C151	C	0.883851	0.170866	0.538116
C152	C	1.217185	0.504199	0.871449
C153	C	1.550518	0.837533	1.204782
C154	C	0.893900	0.101922	0.576239
C155	C	1.227234	0.435256	0.909572
C156	C	1.560567	0.768589	1.242906
C157	C	0.903951	0.032972	0.538128
C158	C	1.237285	0.366305	0.871461
C159	C	1.570618	0.699638	1.204795
C160	C	0.903943	0.032969	0.461902
C161	C	1.237276	0.366302	0.795235
C162	C	1.570610	0.699635	1.128568
C163	C	0.893882	0.101922	0.423786
C164	C	1.227215	0.435255	0.757120
C165	C	1.560548	0.768588	1.090453
C166	C	0.945472	0.050390	0.696996
C167	C	1.278806	0.383724	1.030329
C168	C	1.612139	0.717057	1.363663
C169	C	0.945472	0.050386	0.773225
C170	C	1.278805	0.383719	1.106558
C171	C	1.612139	0.717052	1.439892
C172	C	0.842349	0.153455	0.773236
C173	C	1.175683	0.486788	1.106569
C174	C	1.509016	0.820121	1.439902
C175	C	0.842346	0.153452	0.697008
C176	C	1.175680	0.486786	1.030341
C177	C	1.509013	0.820119	1.363674
C178	C	0.893912	0.101921	0.658893
C179	C	1.227245	0.435254	0.992226
C180	C	1.560579	0.768588	1.325559
H181	H	0.898231	-0.127815	-0.119759
H182	H	1.231565	0.205518	0.213575
H183	H	1.564898	0.538852	0.546908
C184	C	0.112363	0.097407	-0.138627
C185	C	0.445697	0.430741	0.194706
C186	C	0.779030	0.764074	0.528040
N187	N	0.079669	0.096878	-0.193323
N188	N	0.413003	0.430211	0.140010
N189	N	0.746336	0.763544	0.473344
C190	C	0.889361	-0.679638	0.138642
C191	C	1.222695	-0.346305	0.471975
C192	C	1.556028	-0.012972	0.805309
N193	N	0.888823	-0.712345	0.193338
N194	N	1.222156	-0.379011	0.526671
N195	N	1.555489	-0.045678	0.860005
H196	H	0.891885	-0.525121	-0.119758
H197	H	1.225219	-0.191788	0.213576
H198	H	1.558552	0.141546	0.546909
C199	C	0.509669	0.103767	-0.138623
C200	C	0.843003	0.437101	0.194710
C201	C	1.176336	0.770434	0.528044
N202	N	0.476971	0.103247	-0.193318
N203	N	0.810305	0.436580	0.140016
N204	N	1.143638	0.769913	0.473349
C205	C	1.002143	-0.006311	0.184858
C206	C	1.335476	0.327022	0.518192
C207	C	1.668809	0.660355	0.851525
N208	N	1.044860	-0.049016	0.153281
N209	N	1.378193	0.284318	0.486614
N210	N	1.711526	0.617651	0.819948
H211	H	0.664129	0.106248	0.119774
H212	H	0.997462	0.439582	0.453108
H213	H	1.330796	0.772915	0.786441
C214	C	0.895701	-0.282330	0.138638
C215	C	1.229035	0.051003	0.471972
C216	C	1.562368	0.384336	0.805305
N217	N	0.895167	-0.315040	0.193333
N218	N	1.228500	0.018294	0.526666
N219	N	1.561833	0.351627	0.860000
H220	H	0.266852	0.099877	-0.119765
H221	H	0.600185	0.433210	0.213568
H222	H	0.933519	0.766543	0.546902
C223	C	0.675449	0.106423	-0.138627
C224	C	1.008782	0.439756	0.194706
C225	C	1.342116	0.773090	0.528039
N226	N	0.708156	0.106947	-0.193326
N227	N	1.041490	0.440280	0.140007
N228	N	1.374823	0.773613	0.473341
C229	C	0.278104	0.100059	0.138637
C230	C	0.611437	0.433392	0.471971
C231	C	0.944771	0.766725	0.805304
N232	N	0.310797	0.100575	0.193335
N233	N	0.644130	0.433908	0.526668
N234	N	0.977463	0.767241	0.860002
H235	H	0.889598	-0.668342	-0.119758
H236	H	1.222931	-0.335009	0.213575
H237	H	1.556265	-0.001675	0.546909
C238	C	1.002187	-0.006311	0.815137
C239	C	1.335520	0.327022	1.148470
C240	C	1.668854	0.660356	1.481804
N241	N	1.044903	-0.049020	0.846706
N242	N	1.378236	0.284314	1.180039
N243	N	1.711569	0.617647	1.513372
H244	H	0.800372	0.195412	0.804275
H245	H	1.133705	0.528745	1.137608
H246	H	1.467038	0.862078	1.470941
H247	H	0.895940	-0.271023	-0.119759
H248	H	1.229273	0.062310	0.213575
H249	H	1.562607	0.395643	0.546908
H250	H	0.891845	-0.525147	0.119780
H251	H	1.225179	-0.191814	0.453113
H252	H	1.558512	0.141519	0.786447
H253	H	0.898165	-0.127828	0.119778
H254	H	1.231498	0.205505	0.453112
H255	H	1.564831	0.538839	0.786445
C256	C	1.002165	-0.006297	0.344929
C257	C	1.335499	0.327037	0.678262
C258	C	1.668832	0.660370	1.011596
N259	N	1.044901	-0.048982	0.376501
N260	N	1.378234	0.284352	0.709835
N261	N	1.711568	0.617685	1.043168
H262	H	0.800361	0.195412	0.665983
H263	H	1.133694	0.528745	0.999316
H264	H	1.467028	0.862078	1.332650
H265	H	0.912125	-0.023173	0.430875
H266	H	1.245458	0.310160	0.764208
H267	H	1.578792	0.643493	1.097542
H268	H	0.875672	0.227010	0.569140
H269	H	1.209005	0.560343	0.902473
H270	H	1.542339	0.893676	1.235806
H271	H	0.520924	0.103933	0.119774
H272	H	0.854257	0.437266	0.453107
H273	H	1.187590	0.770600	0.786441
C274	C	0.112325	0.097407	0.138640
C275	C	0.445658	0.430740	0.471973
C276	C	0.778992	0.764073	0.805306
N277	N	0.079614	0.096882	0.193336
N278	N	0.412947	0.430215	0.526669
N279	N	0.746280	0.763549	0.860002
C280	C	1.002188	-0.006302	0.655066
C281	C	1.335521	0.327032	0.988400
C282	C	1.668855	0.660365	1.321733
N283	N	1.044905	-0.049004	0.623487
N284	N	1.378239	0.284329	0.956821
N285	N	1.711572	0.617663	1.290154
C286	C	0.872783	0.246710	0.419962
C287	C	1.206116	0.580044	0.753296
C288	C	1.539450	0.913377	1.086629
N289	N	0.864457	0.303838	0.388383
N290	N	1.197790	0.637171	0.721717
N291	N	1.531124	0.970504	1.055050
C292	C	0.785594	0.210126	0.344957
C293	C	1.118927	0.543459	0.678291
C294	C	1.452261	0.876792	1.011624
N295	N	0.742875	0.252819	0.376544
N296	N	1.076208	0.586153	0.709877
N297	N	1.409541	0.919486	1.043211
H298	H	0.912134	-0.023169	0.569167
H299	H	1.245467	0.310165	0.902500
H300	H	1.578800	0.643498	1.235833
H301	H	0.800306	0.195396	0.195771
H302	H	1.133639	0.528730	0.529104
H303	H	1.466972	0.862063	0.862437
