data_functionalizedCrystal
_audit_creation_method	'MofGen! by Chris Wilmer'
_symmetry_space_group_name_H-M	'P1'
_symmetry_Int_Tables_number	1
_symmetry_cell_setting	triclinic
loop_
_symmetry_equiv_pos_as_xyz
  x,y,z
_cell_length_a	14.519709
_cell_length_b	14.519709
_cell_length_c	9.482900
_cell_angle_alpha	99.350820
_cell_angle_beta	80.698649
_cell_angle_gamma	83.680145
loop_
_atom_site_label
_atom_site_type_symbol
_atom_site_fract_x
_atom_site_fract_y
_atom_site_fract_z
O1	O	1.238195	0.106498	-0.120706
O2	O	0.969724	0.120729	-0.120751
O3	O	1.111076	-0.020624	-0.120714
O4	O	1.096843	0.247850	-0.120743
O5	O	1.082364	0.008204	0.121071
O6	O	0.941012	0.149556	0.121034
O7	O	1.209483	0.135325	0.121079
Cu8	Cu	1.072626	0.145073	0.143133
Cu9	Cu	1.106581	0.110981	-0.142806
O10	O	1.068131	0.276677	0.121042
C11	C	0.921009	0.134478	0.000136
C12	C	0.818629	0.132488	0.000119
C13	C	0.443726	0.125177	0.000186
C14	C	0.548036	0.127207	0.000167
C15	C	0.631174	0.128832	0.000151
C16	C	0.735491	0.130863	0.000135
C17	C	1.096057	-0.040570	0.000178
C18	C	1.094068	-0.142951	0.000179
C19	C	1.086753	-0.517851	0.000140
C20	C	1.088785	-0.413542	0.000151
C21	C	1.090410	-0.330404	0.000161
C22	C	1.092443	-0.226089	0.000169
C23	C	1.258199	0.121575	0.000189
C24	C	1.360579	0.123564	0.000196
C25	C	1.083151	0.296623	0.000146
C26	C	1.085140	0.399003	0.000136
N27	N	1.048751	0.169050	0.344247
N28	N	1.130464	0.086996	-0.343920
C29	C	1.099532	0.118048	0.416460
C30	C	1.079674	0.138005	0.583872
H31	H	1.021490	0.196445	0.645981
H32	H	1.188641	0.028550	0.593971
O33	O	0.979405	0.238761	0.418562
C34	C	0.896321	0.322147	0.653176
C35	C	0.974899	0.243185	0.569202
H36	H	0.892639	0.325737	0.774983
H37	H	0.912176	0.392478	0.623440
H38	H	0.825924	0.306637	0.623259
H39	H	1.045328	0.258605	0.599074
H40	H	0.958963	0.172879	0.598946
H41	H	1.157707	0.059606	0.354347
