data_functionalizedCrystal
_audit_creation_method	'MofGen! by Chris Wilmer'
_symmetry_space_group_name_H-M	'P1'
_symmetry_Int_Tables_number	1
_symmetry_cell_setting	triclinic
loop_
_symmetry_equiv_pos_as_xyz
  x,y,z
_cell_length_a	10.654545
_cell_length_b	16.974813
_cell_length_c	9.730223
_cell_angle_alpha	86.341041
_cell_angle_beta	89.997167
_cell_angle_gamma	83.938073
loop_
_atom_site_label
_atom_site_type_symbol
_atom_site_fract_x
_atom_site_fract_y
_atom_site_fract_z
O1	O	1.666114	0.111039	-0.126624
O2	O	1.300471	0.121623	-0.127806
O3	O	1.493486	0.001283	-0.114413
O4	O	1.473099	0.231379	-0.140017
O5	O	1.493473	0.001280	0.114168
O6	O	1.300458	0.121620	0.100774
O7	O	1.666102	0.111035	0.101957
Zn8	Zn	1.483278	0.116327	0.137657
Zn9	Zn	1.483294	0.116331	-0.163507
O10	O	1.473087	0.231375	0.088563
C11	C	1.253678	0.120845	-0.013431
C12	C	1.114271	0.118522	-0.013174
C13	C	1.048777	0.117427	0.111547
C14	C	0.917791	0.115231	0.111792
C15	C	0.917806	0.115229	-0.137418
C16	C	1.048790	0.117419	-0.137661
C17	C	1.492704	-0.028181	0.003153
C18	C	1.490378	-0.115971	0.012913
C19	C	1.489295	-0.157208	-0.107099
C20	C	1.487102	-0.239695	-0.097924
C21	C	1.486000	-0.280944	0.031265
C22	C	1.487080	-0.239700	0.151287
C23	C	1.489264	-0.157214	0.142110
C24	C	1.479458	-0.527641	0.072070
C25	C	1.477277	-0.610133	0.081238
C26	C	1.477297	-0.610122	-0.167974
C27	C	1.479489	-0.527635	-0.177139
C28	C	1.480562	-0.486398	-0.057118
N29	N	1.483762	-0.365259	0.040646
N30	N	1.482791	-0.402084	-0.066501
C31	C	1.712894	0.111813	-0.012422
C32	C	1.852302	0.114136	-0.012688
C33	C	1.473869	0.260840	-0.029006
C34	C	1.476194	0.348629	-0.038775
N35	N	1.483276	0.116324	0.343194
N36	N	1.483306	0.116329	-0.369043
C37	C	1.568772	0.063060	0.421048
C38	C	1.568785	0.063060	0.564931
C39	C	1.397801	0.169595	0.553092
C40	C	1.397784	0.169590	0.409213
H41	H	0.864472	0.114339	0.213353
C42	C	0.845762	0.114023	-0.274347
N43	N	0.791500	0.113117	-0.377485
H44	H	1.102117	0.118309	-0.239230
H45	H	1.328197	0.212965	0.606859
C46	C	1.490507	-0.111842	-0.249219
N47	N	1.491413	-0.077674	-0.356268
C48	C	1.303784	0.228224	0.323564
N49	N	1.233005	0.272397	0.259051
H50	H	1.638384	0.019686	0.367300
C51	C	1.486026	-0.285061	-0.229948
N52	N	1.485256	-0.319234	-0.329394
C53	C	1.120804	0.118630	0.248487
N54	N	1.175051	0.119533	0.351635
C55	C	1.490459	-0.111854	0.274134
N56	N	1.491356	-0.077689	0.373579
H57	H	1.480388	-0.494056	-0.282339
H58	H	1.476374	-0.643715	0.186444
H59	H	1.638402	0.019687	0.628317
C60	C	1.480644	-0.482292	0.204099
N61	N	1.481538	-0.448132	0.303550
C62	C	1.485859	-0.285076	0.293397
N63	N	1.484943	-0.319253	0.400437
C64	C	1.476103	-0.655488	-0.299989
N65	N	1.475197	-0.689658	-0.399428
