data_functionalizedCrystal
_audit_creation_method	'MofGen! by Chris Wilmer'
_symmetry_space_group_name_H-M	'P1'
_symmetry_Int_Tables_number	1
_symmetry_cell_setting	triclinic
loop_
_symmetry_equiv_pos_as_xyz
  x,y,z
_cell_length_a	27.732025
_cell_length_b	27.732048
_cell_length_c	26.210047
_cell_angle_alpha	90.003465
_cell_angle_beta	90.019000
_cell_angle_gamma	97.361939
loop_
_atom_site_label
_atom_site_type_symbol
_atom_site_fract_x
_atom_site_fract_y
_atom_site_fract_z
O1	O	0.057511	-0.640926	-0.042348
O2	O	0.066256	-0.500132	-0.042361
O3	O	-0.008514	-0.574908	-0.042370
O4	O	0.132281	-0.566151	-0.042339
O5	O	-0.008502	-0.574893	0.042488
O6	O	0.066268	-0.500118	0.042497
O7	O	0.057522	-0.640912	0.042510
Cu8	Cu	0.061896	-0.570514	0.050252
Cu9	Cu	0.061882	-0.570531	-0.050103
O10	O	0.132293	-0.566137	0.042519
C11	C	0.066079	-0.482118	0.000066
C12	C	0.065526	-0.428463	0.000060
N13	N	0.061906	-0.570505	0.120836
C14	C	-0.026515	-0.574719	0.000054
C15	C	-0.080171	-0.574170	0.000039
C16	C	-0.463343	-0.570281	-0.046188
C17	C	-0.261683	-0.572334	-0.046204
O18	O	-0.235621	-0.572625	-0.085544
N19	N	-0.236456	-0.572582	0.000051
C20	C	-0.261646	-0.572321	0.046313
O21	O	-0.235562	-0.572585	0.085655
C22	C	-0.463305	-0.570272	0.046329
C23	C	-0.488530	-0.570019	0.000071
C24	C	-0.488567	-0.570028	-0.092442
C25	C	-0.538979	-0.569512	-0.092437
C26	C	-0.564166	-0.569250	-0.046179
C27	C	-0.538941	-0.569503	0.000075
C28	C	-0.488496	-0.570014	0.092590
C29	C	-0.538914	-0.569503	0.092590
C30	C	-0.564138	-0.569250	0.046332
C31	C	-0.614540	-0.568724	0.046339
N32	N	-0.639767	-0.568476	0.000084
C33	C	-0.614580	-0.568738	-0.046175
C34	C	-0.155772	-0.573396	0.046301
C35	C	-0.105358	-0.573907	0.046298
C36	C	-0.105398	-0.573921	-0.046219
C37	C	-0.155813	-0.573406	-0.046215
C38	C	-0.181000	-0.573147	0.000047
C39	C	-0.720448	-0.567655	-0.046162
C40	C	-0.770864	-0.567137	-0.046153
C41	C	-0.770819	-0.567126	0.046364
C42	C	-0.720408	-0.567641	0.046355
C43	C	-0.695223	-0.567907	0.000088
O44	O	-0.640634	-0.568438	0.085658
O45	O	-0.640675	-0.568485	-0.085511
C46	C	-0.412931	-0.570797	-0.046192
C47	C	-0.387707	-0.571050	0.000062
C48	C	-0.412894	-0.570787	0.046320
C49	C	-0.337292	-0.571561	0.000058
C50	C	-0.312105	-0.571824	-0.046201
C51	C	-0.337333	-0.571575	-0.092455
C52	C	-0.387744	-0.571060	-0.092451
C53	C	-0.387666	-0.571036	0.092575
C54	C	-0.337255	-0.571551	0.092567
C55	C	-0.312068	-0.571814	0.046308
C56	C	0.150294	-0.566326	0.000094
C57	C	0.203949	-0.566874	0.000105
C58	C	0.057700	-0.658926	0.000082
C59	C	0.058253	-0.712581	0.000085
C60	C	0.106230	-0.089645	0.000091
C61	C	0.104179	0.112014	0.000095
O62	O	0.141400	0.143273	0.000125
N63	N	0.059843	0.131135	0.000085
C64	C	0.016017	0.099836	0.000076
O65	O	-0.021740	0.120726	0.000073
C66	C	0.018069	-0.101822	0.000076
C67	C	0.062407	-0.120939	0.000081
C68	C	0.150565	-0.108763	0.000097
C69	C	0.151077	-0.159175	0.000093
C70	C	0.107255	-0.190469	0.000083
C71	C	0.062920	-0.171351	0.000077
C72	C	-0.025757	-0.133119	0.000072
C73	C	-0.025240	-0.183537	0.000073
C74	C	0.019099	-0.202654	0.000078
C75	C	0.019609	-0.253057	0.000064
N76	N	0.063945	-0.272177	0.000074
C77	C	0.107768	-0.240883	0.000084
C78	C	0.014943	0.205710	0.000076
C79	C	0.014430	0.256125	0.000075
C80	C	0.102592	0.268299	0.000094
C81	C	0.103105	0.217884	0.000092
C82	C	0.059279	0.186590	0.000086
C83	C	0.108840	-0.346752	0.000076
C84	C	0.109348	-0.397169	0.000070
C85	C	0.021187	-0.409339	0.000053
C86	C	0.020678	-0.358927	0.000056
C87	C	0.064509	-0.327634	0.000069
O88	O	-0.017592	-0.284344	0.000040
O89	O	0.145519	-0.261783	0.000099
C90	C	0.105718	-0.039233	0.000095
C91	C	0.061383	-0.020115	0.000089
C92	C	0.017560	-0.051410	0.000079
C93	C	0.060870	0.030299	0.000088
C94	C	0.104692	0.061593	0.000098
C95	C	0.149028	0.042473	0.000108
C96	C	0.149540	-0.007939	0.000104
C97	C	-0.026776	-0.032289	0.000069
C98	C	-0.027284	0.018123	0.000072
C99	C	0.016538	0.049417	0.000082
N100	N	0.061869	-0.570543	-0.120687
C101	C	0.028782	-0.603638	0.473346
C102	C	0.028775	-0.603649	0.687005
O103	O	0.000614	-0.631801	0.714623
N104	N	0.061872	-0.570533	0.713730
C105	C	0.094971	-0.537411	0.687037
O106	O	0.123118	-0.509241	0.714671
C107	C	0.094975	-0.537398	0.473379
C108	C	0.061879	-0.570519	0.446657
C109	C	-0.004312	-0.636756	0.446624
C110	C	-0.004308	-0.636754	0.393212
C111	C	0.028789	-0.603635	0.366523
C112	C	0.061883	-0.570518	0.393245
C113	C	0.128071	-0.504274	0.446687
C114	C	0.128068	-0.504273	0.393269
C115	C	0.094972	-0.537394	0.366547
C116	C	0.094984	-0.537398	0.313145
N117	N	0.061887	-0.570513	0.286420
C118	C	0.028789	-0.603632	0.313109
C119	C	0.094967	-0.537421	0.799210
C120	C	0.094967	-0.537424	0.852624
C121	C	0.028770	-0.603661	0.852588
C122	C	0.028773	-0.603660	0.799173
C123	C	0.061870	-0.570536	0.772485
C124	C	0.028800	-0.603627	0.200941
C125	C	0.028808	-0.603624	0.147525
C126	C	0.095003	-0.537385	0.147565
C127	C	0.094997	-0.537390	0.200977
C128	C	0.061891	-0.570512	0.227663
O129	O	0.123126	-0.509257	0.285493
O130	O	0.000639	-0.631790	0.285466
C131	C	0.028778	-0.603639	0.526757
C132	C	0.061871	-0.570522	0.553480
C133	C	0.094969	-0.537403	0.526791
C134	C	0.061871	-0.570525	0.606894
C135	C	0.028774	-0.603644	0.633583
C136	C	-0.004323	-0.636759	0.606858
C137	C	-0.004320	-0.636758	0.553446
C138	C	0.128066	-0.504287	0.553516
C139	C	0.128060	-0.504292	0.606927
C140	C	0.094962	-0.537411	0.633616
H141	H	-0.791399	-0.566929	-0.083823
H142	H	-0.021675	0.271685	0.000063
O143	O	-0.080874	-0.574089	-0.091131
C144	C	-0.045952	-0.532487	-0.093895
H145	H	-0.036451	-0.518614	-0.053728
H146	H	-0.011809	-0.542245	-0.113492
H147	H	-0.061358	-0.502962	-0.116699
O148	O	-0.463955	-0.570331	0.137492
C149	C	-0.440591	-0.612516	0.140260
H150	H	-0.434979	-0.626554	0.100096
H151	H	-0.403833	-0.603462	0.159841
H152	H	-0.464068	-0.641644	0.163082
O153	O	-0.696060	-0.567888	-0.091150
C154	C	-0.729144	-0.567566	-0.131969
H155	H	-0.762959	-0.551890	-0.118397
H156	H	-0.711353	-0.544239	-0.164324
H157	H	-0.739873	-0.606306	-0.146193
O158	O	-0.003450	-0.635812	0.878463
C159	C	-0.051247	-0.628304	0.865407
H160	H	-0.051059	-0.609674	0.826624
H161	H	-0.075309	-0.664815	0.863573
H162	H	-0.066024	-0.604352	0.895464
H163	H	-0.316816	-0.571786	-0.130121
H164	H	-0.014493	-0.434828	0.000043
H165	H	0.121921	-0.510459	0.874378
H166	H	0.155019	-0.477298	0.371542
O167	O	0.127169	-0.505226	0.773368
C168	C	0.156369	-0.475995	0.808416
H169	H	0.156772	-0.495816	0.846487
H170	H	0.195028	-0.468327	0.793004
H171	H	0.140922	-0.440207	0.814098
H172	H	-0.020747	0.180235	0.000071
O173	O	-0.036512	-0.668865	0.472567
C174	C	-0.066156	-0.643218	0.503469
H175	H	-0.066712	-0.605100	0.487385
H176	H	-0.104713	-0.663235	0.504050
H177	H	-0.051015	-0.640579	0.543958
O178	O	0.160287	-0.472163	0.527619
C179	C	0.208081	-0.479656	0.540708
H180	H	0.208044	-0.518356	0.555384
H181	H	0.232389	-0.473909	0.505597
H182	H	0.222459	-0.452762	0.571727
O183	O	0.160165	-0.472050	0.632859
C184	C	0.152638	-0.424264	0.619791
H185	H	0.113936	-0.424328	0.605093
H186	H	0.158362	-0.399959	0.654919
H187	H	0.179529	-0.409864	0.588796
H188	H	0.155020	-0.477304	0.468437
H189	H	-0.060929	-0.209014	0.000069
H190	H	-0.408169	-0.570824	0.130245
O191	O	0.127164	-0.505170	0.226859
C192	C	0.156385	-0.475948	0.191846
H193	H	0.136575	-0.475559	0.153760
H194	H	0.164018	-0.437288	0.207280
H195	H	0.192191	-0.491364	0.186185
H196	H	-0.061862	-0.117563	0.000068
O197	O	0.145207	0.298635	0.000084
C198	C	0.184454	0.270956	0.000110
H199	H	0.171903	0.233232	-0.015961
H200	H	0.215133	0.289785	-0.024514
H201	H	0.198062	0.267469	0.040826
H202	H	-0.559512	-0.569309	-0.130105
O203	O	0.193151	-0.078388	0.000013
C204	C	0.220085	-0.087025	-0.043926
H205	H	0.194423	-0.104446	-0.074645
H206	H	0.239747	-0.051115	-0.058678
H207	H	0.247863	-0.112498	-0.033985
H208	H	-0.063393	0.033683	0.000064
H209	H	-0.031271	-0.663728	0.628597
H210	H	-0.084823	-0.574105	0.083965
H211	H	0.001823	-0.630629	0.777419
O212	O	-0.003437	-0.635750	0.121622
C213	C	-0.051215	-0.628228	0.134713
H214	H	-0.051148	-0.589518	0.149377
H215	H	-0.075550	-0.633981	0.099605
H216	H	-0.065581	-0.655102	0.165741
H217	H	-0.176275	-0.573186	0.083976
H218	H	-0.408277	-0.570853	-0.130119
O219	O	0.194138	-0.177760	0.000005
C220	C	0.197066	-0.206564	-0.043941
H221	H	0.171884	-0.194836	-0.074658
H222	H	0.236054	-0.201738	-0.058690
H223	H	0.185628	-0.246410	-0.034009
O224	O	-0.069392	-0.062616	0.000035
C225	C	-0.108628	-0.034924	0.000040
H226	H	-0.096066	0.002798	-0.016018
H227	H	-0.139314	-0.053743	-0.024607
H228	H	-0.122233	-0.031433	0.040748
H229	H	-0.015426	-0.343361	0.000044
O230	O	0.192654	-0.026425	0.000135
C231	C	0.231217	0.012015	0.000132
H232	H	0.217925	0.046165	0.016195
H233	H	0.262200	0.001714	0.024775
H234	H	0.244711	0.019248	-0.040576
O235	O	-0.563302	-0.569230	0.137576
C236	C	-0.530225	-0.569576	0.178398
H237	H	-0.492179	-0.554636	0.164832
H238	H	-0.541532	-0.545948	0.210754
H239	H	-0.530217	-0.608424	0.192620
H240	H	0.001842	-0.630598	0.222663
H241	H	0.144531	-0.321279	0.000088
O242	O	0.152464	-0.415658	0.000099
C243	C	0.191031	-0.377222	0.000097
H244	H	0.177743	-0.343071	0.016162
H245	H	0.222013	-0.387528	0.024739
H246	H	0.204525	-0.369988	-0.040610
O247	O	-0.464177	-0.570259	-0.137427
C248	C	-0.497263	-0.569939	-0.178244
H249	H	-0.531079	-0.554267	-0.164671
H250	H	-0.479475	-0.546611	-0.210600
H251	H	-0.507988	-0.608680	-0.192468
H252	H	-0.176347	-0.573198	-0.083882
O253	O	-0.695977	-0.567890	0.091334
C254	C	-0.729018	-0.567524	0.132164
H255	H	-0.767074	-0.582477	0.118611
H256	H	-0.717678	-0.591132	0.164526
H257	H	-0.729018	-0.528669	0.146370
O258	O	-0.036518	-0.668948	0.527571
C259	C	-0.065719	-0.698184	0.562591
H260	H	-0.066125	-0.678368	0.600666
H261	H	-0.104377	-0.705852	0.547148
H262	H	-0.050271	-0.733972	0.568275
O263	O	-0.795337	-0.566810	0.091264
C264	C	-0.818706	-0.524630	0.094042
H265	H	-0.824339	-0.510588	0.053881
H266	H	-0.855455	-0.533692	0.113613
H267	H	-0.795224	-0.495502	0.116877
H268	H	-0.031259	-0.663723	0.371458
H269	H	-0.316721	-0.571753	0.130238
H270	H	0.139209	0.202323	0.000099
H271	H	0.184710	0.067962	0.000114
H272	H	0.121952	-0.510422	0.125827
