data_functionalizedCrystal
_audit_creation_method	'MofGen! by Chris Wilmer'
_symmetry_space_group_name_H-M	'P1'
_symmetry_Int_Tables_number	1
_symmetry_cell_setting	triclinic
loop_
_symmetry_equiv_pos_as_xyz
  x,y,z
_cell_length_a	12.594517
_cell_length_b	16.625546
_cell_length_c	16.625539
_cell_angle_alpha	90.028532
_cell_angle_beta	89.982613
_cell_angle_gamma	89.977732
loop_
_atom_site_label
_atom_site_type_symbol
_atom_site_fract_x
_atom_site_fract_y
_atom_site_fract_z
Zn1	Zn	1.627178	0.321019	-0.455905
Zn2	Zn	1.960511	0.654353	-0.122571
Zn3	Zn	2.293845	0.987686	0.210762
Zn4	Zn	1.627061	0.455858	-0.321067
Zn5	Zn	1.960395	0.789191	0.012266
Zn6	Zn	2.293728	1.122525	0.345600
Zn7	Zn	1.449194	0.321043	-0.321084
Zn8	Zn	1.782528	0.654376	0.012249
Zn9	Zn	2.115861	0.987709	0.345582
Zn10	Zn	1.449144	0.455813	-0.455856
Zn11	Zn	1.782478	0.789147	-0.122523
Zn12	Zn	2.115811	1.122480	0.210811
O13	O	1.538144	0.388433	-0.388478
O14	O	1.871478	0.721767	-0.055145
O15	O	2.204811	1.055100	0.278189
O16	O	1.776108	0.338915	-0.438031
O17	O	2.109442	0.672248	-0.104698
O18	O	2.442775	1.005582	0.228635
O19	O	1.603439	0.438003	-0.208237
O20	O	1.936772	0.771336	0.125096
O21	O	2.270105	1.104670	0.458430
O22	O	1.472874	0.208207	-0.338996
O23	O	1.806207	0.541540	-0.005663
O24	O	2.139541	0.874874	0.327670
O25	O	1.776023	0.437980	-0.338967
O26	O	2.109356	0.771314	-0.005633
O27	O	2.442689	1.104647	0.327700
O28	O	1.603638	0.208190	-0.438048
O29	O	1.936971	0.541523	-0.104715
O30	O	2.270305	0.874857	0.228618
O31	O	1.472761	0.338955	-0.208250
O32	O	1.806094	0.672288	0.125084
O33	O	2.139427	1.005621	0.458417
O34	O	1.300242	0.338911	-0.338949
O35	O	1.633575	0.672245	-0.005616
O36	O	1.966908	1.005578	0.327717
O37	O	1.472789	0.437904	-0.568695
O38	O	1.806122	0.771237	-0.235362
O39	O	2.139455	1.104571	0.097972
O40	O	1.300205	0.437927	-0.437965
O41	O	1.633538	0.771260	-0.104632
O42	O	1.966872	1.104593	0.228701
O43	O	1.603590	0.338871	-0.568731
O44	O	1.936923	0.672205	-0.235397
O45	O	2.270256	1.005538	0.097936
O46	O	1.603390	0.568685	-0.338919
O47	O	1.936724	0.902018	-0.005586
O48	O	2.270057	1.235351	0.327747
O49	O	1.472676	0.568652	-0.437948
O50	O	1.806009	0.901985	-0.104615
O51	O	2.139342	1.235318	0.228718
C52	C	1.261603	0.388417	-0.388454
C53	C	1.594937	0.721750	-0.055121
C54	C	1.928270	1.055084	0.278212
C55	C	1.143298	0.388430	-0.388463
C56	C	1.476631	0.721763	-0.055130
C57	C	1.809965	1.055096	0.278203
C58	C	1.538044	0.597924	-0.388444
C59	C	1.871377	0.931258	-0.055111
C60	C	2.204710	1.264591	0.278222
C61	C	1.538098	0.687545	-0.388457
C62	C	1.871431	1.020879	-0.055124
C63	C	2.204765	1.354212	0.278210
C64	C	1.538197	0.388380	-0.598787
C65	C	1.871530	0.721713	-0.265454
C66	C	2.204863	1.055047	0.067880
C67	C	1.538219	0.388357	-0.688408
C68	C	1.871552	0.721691	-0.355075
C69	C	2.204886	1.055024	-0.021742
C70	C	1.074034	0.334502	-0.334711
C71	C	1.407367	0.667835	-0.001378
C72	C	1.740701	1.001168	0.331956
C73	C	1.003214	0.408049	-0.314872
C74	C	1.336547	0.741382	0.018461
C75	C	1.669881	1.074715	0.351794
C76	C	1.003319	0.314919	-0.408316
C77	C	1.336652	0.648252	-0.074983
C78	C	1.669986	0.981585	0.258351
C79	C	1.074036	0.462015	-0.368586
C80	C	1.407370	0.795349	-0.035253
C81	C	1.740703	1.128682	0.298081
C82	C	1.074148	0.368836	-0.462064
C83	C	1.407481	0.702169	-0.128731
C84	C	1.740814	1.035502	0.204603
C85	C	1.003360	0.442433	-0.442253
C86	C	1.336693	0.775767	-0.108920
C87	C	1.670026	1.109100	0.224414
C88	C	1.815765	0.388450	-0.388502
C89	C	2.149099	0.721783	-0.055169
C90	C	2.482432	1.055117	0.278164
C91	C	1.934071	0.388457	-0.388513
C92	C	2.267404	0.721791	-0.055179
C93	C	2.600737	1.055124	0.278154
C94	C	1.538275	0.178124	-0.388530
C95	C	1.871608	0.511458	-0.055196
C96	C	2.204941	0.844791	0.278137
C97	C	1.538330	0.088503	-0.388552
C98	C	1.871663	0.421837	-0.055218
C99	C	2.204997	0.755170	0.278115
C100	C	1.538284	1.015721	-0.388541
C101	C	1.871617	1.349054	-0.055208
C102	C	2.204950	1.682388	0.278126
C103	C	1.538229	0.924412	-0.388520
C104	C	1.871562	1.257746	-0.055186
C105	C	2.204895	1.591079	0.278147
C106	C	1.538190	0.851636	-0.388498
C107	C	1.871523	1.184969	-0.055165
C108	C	2.204857	1.518303	0.278168
C109	C	1.538137	0.760322	-0.388478
C110	C	1.871470	1.093655	-0.055145
C111	C	2.204803	1.426988	0.278189
C112	C	1.538236	0.388340	-0.761191
C113	C	1.871570	0.721673	-0.427857
C114	C	2.204903	1.055006	-0.094524
C115	C	1.538261	0.388310	-0.852499
C116	C	1.871594	0.721643	-0.519166
C117	C	2.204928	1.054976	-0.185833
C118	C	1.538286	0.388281	-0.925276
C119	C	1.871619	0.721615	-0.591942
C120	C	2.204953	1.054948	-0.258609
C121	C	1.538313	0.388252	-1.016590
C122	C	1.871646	0.721585	-0.683257
C123	C	2.204979	1.054919	-0.349923
C124	C	1.538154	0.388428	-0.178987
C125	C	1.871487	0.721761	0.154346
C126	C	2.204820	1.055095	0.487679
C127	C	1.538338	0.388224	-0.089367
C128	C	1.871671	0.721557	0.243967
C129	C	2.205004	1.054890	0.577300
H130	H	0.972058	0.424639	-0.252651
H131	H	1.305392	0.757972	0.080682
H132	H	1.638725	1.091305	0.414016
C133	C	1.047640	0.542409	-0.540876
C134	C	1.380974	0.875742	-0.207542
C135	C	1.714307	1.209075	0.125791
C136	C	0.961721	0.504083	-0.503644
C137	C	1.295054	0.837416	-0.170311
C138	C	1.628387	1.170750	0.163023
H139	H	1.021930	0.580473	-0.578769
H140	H	1.355264	0.913807	-0.245436
H141	H	1.688597	1.247140	0.087898
H142	H	1.090131	0.503550	-0.567714
H143	H	1.423465	0.836884	-0.234381
H144	H	1.756798	1.170217	0.098952
H145	H	1.089119	0.569207	-0.501393
H146	H	1.422452	0.902540	-0.168059
H147	H	1.755786	1.235873	0.165274
H148	H	0.920246	0.477280	-0.543127
H149	H	1.253579	0.810613	-0.209793
H150	H	1.586913	1.143947	0.123540
H151	H	0.919212	0.542948	-0.476805
H152	H	1.252545	0.876281	-0.143471
H153	H	1.585879	1.209614	0.189862
C154	C	0.850214	0.232076	-0.431448
C155	C	1.183547	0.565409	-0.098115
C156	C	1.516881	0.898742	0.235219
C157	C	0.961381	0.230982	-0.430959
C158	C	1.294715	0.564315	-0.097626
C159	C	1.628048	0.897648	0.235708
H160	H	0.824328	0.180254	-0.445416
H161	H	1.157661	0.513587	-0.112083
H162	H	1.490994	0.846920	0.221250
H163	H	0.826025	0.270324	-0.469707
H164	H	1.159358	0.603658	-0.136374
H165	H	1.492692	0.936991	0.196959
H166	H	0.824898	0.246379	-0.379545
H167	H	1.158231	0.579712	-0.046212
H168	H	1.491564	0.913045	0.287122
H169	H	0.986698	0.216684	-0.482864
H170	H	1.320031	0.550018	-0.149530
H171	H	1.653364	0.883351	0.183803
H172	H	0.985580	0.192720	-0.392698
H173	H	1.318914	0.526054	-0.059364
H174	H	1.652247	0.859387	0.273969
C175	C	1.227421	0.347360	-0.545263
C176	C	1.560755	0.680694	-0.211929
C177	C	1.894088	1.014027	0.121404
C178	C	1.116256	0.346410	-0.546033
C179	C	1.449589	0.679744	-0.212699
C180	C	1.782922	1.013077	0.120634
H181	H	1.253417	0.333513	-0.597103
H182	H	1.586750	0.666846	-0.263770
H183	H	1.920084	1.000179	0.069564
H184	H	1.252660	0.309578	-0.506929
H185	H	1.585993	0.642911	-0.173595
H186	H	1.919327	0.976245	0.159738
H187	H	1.251577	0.399641	-0.531247
H188	H	1.584910	0.732974	-0.197913
H189	H	1.918244	1.066308	0.135420
H190	H	1.092100	0.294128	-0.560043
H191	H	1.425433	0.627461	-0.226709
H192	H	1.758766	0.960795	0.106624
H193	H	1.091007	0.384194	-0.584379
H194	H	1.424340	0.717527	-0.251046
H195	H	1.757674	1.050861	0.082288
H196	H	1.104970	0.524212	-0.351746
H197	H	1.438303	0.857546	-0.018413
H198	H	1.771637	1.190879	0.314920
C199	C	1.080122	0.293729	-0.196265
C200	C	1.413455	0.627063	0.137068
C201	C	1.746789	0.960396	0.470401
C202	C	1.115937	0.272997	-0.273276
C203	C	1.449270	0.606330	0.060057
C204	C	1.782603	0.939663	0.393390
H205	H	1.105997	0.255763	-0.158339
H206	H	1.439331	0.589096	0.174995
H207	H	1.772664	0.922430	0.508328
H208	H	1.004713	0.293655	-0.195526
H209	H	1.338046	0.626988	0.137807
H210	H	1.671379	0.960322	0.471140
H211	H	1.105384	0.345828	-0.182699
H212	H	1.438717	0.679161	0.150634
H213	H	1.772050	1.012494	0.483968
H214	H	1.090668	0.220901	-0.286845
H215	H	1.424002	0.554234	0.046488
H216	H	1.757335	0.887567	0.379821
H217	H	1.191362	0.273063	-0.274017
H218	H	1.524695	0.606396	0.059316
H219	H	1.858028	0.939729	0.392649
