data_functionalizedCrystal
_audit_creation_method	'MofGen! by Chris Wilmer'
_symmetry_space_group_name_H-M	'P1'
_symmetry_Int_Tables_number	1
_symmetry_cell_setting	triclinic
loop_
_symmetry_equiv_pos_as_xyz
  x,y,z
_cell_length_a	12.759401
_cell_length_b	13.897449
_cell_length_c	12.759400
_cell_angle_alpha	90.008487
_cell_angle_beta	90.013728
_cell_angle_gamma	90.004016
loop_
_atom_site_label
_atom_site_type_symbol
_atom_site_fract_x
_atom_site_fract_y
_atom_site_fract_z
Zn1	Zn	1.606105	0.545342	-0.418470
Zn2	Zn	1.606044	0.384049	-0.594119
Zn3	Zn	1.430451	0.384066	-0.418451
Zn4	Zn	1.430395	0.545307	-0.594105
O5	O	1.518249	0.464691	-0.506286
O6	O	1.753118	0.523954	-0.441784
O7	O	1.582749	0.249069	-0.570814
O8	O	1.453801	0.405482	-0.271433
O9	O	1.753073	0.405452	-0.570832
O10	O	1.582853	0.523971	-0.271447
O11	O	1.453742	0.249082	-0.441752
O12	O	1.283423	0.405448	-0.441738
O13	O	1.453706	0.680293	-0.570809
O14	O	1.283382	0.523910	-0.570790
O15	O	1.582798	0.680319	-0.441771
O16	O	1.582695	0.405418	-0.741138
O17	O	1.453646	0.523893	-0.741128
C18	C	1.245281	0.464678	-0.506262
C19	C	1.128505	0.464695	-0.506276
C20	C	1.073659	0.526494	-0.439208
C21	C	0.963935	0.526500	-0.439228
C22	C	0.963912	0.402905	-0.573394
C23	C	1.073634	0.402895	-0.573368
C24	C	1.128530	0.588294	-0.372117
C25	C	1.073684	0.650099	-0.305044
C26	C	0.963960	0.650105	-0.305064
C27	C	0.909082	0.588306	-0.372157
C28	C	1.518253	0.716284	-0.506291
C29	C	1.518254	0.823498	-0.506293
C30	C	1.518228	1.019793	-0.506297
C31	C	1.518239	0.910560	-0.506298
C32	C	1.792282	0.464705	-0.506312
C33	C	1.909059	0.464711	-0.506323
C34	C	1.518235	1.214077	-0.506303
C35	C	1.518226	1.106863	-0.506295
C36	C	1.518186	0.464671	-0.779254
C37	C	1.518256	0.464694	-0.896030
C38	C	1.585526	0.403072	-0.950863
C39	C	1.585590	0.403102	-1.060587
C40	C	1.451106	0.526379	-1.060636
C41	C	1.451047	0.526353	-0.950914
C42	C	1.652734	0.341414	-0.895979
C43	C	1.720008	0.279786	-0.950811
C44	C	1.720073	0.279816	-1.060535
C45	C	1.652863	0.341473	-1.115427
C46	C	1.518340	0.464732	-0.232253
C47	C	1.518379	0.464750	-0.115476
H48	H	1.217872	0.588296	-0.372092
C49	C	0.904143	0.335925	-0.646202
C50	C	0.796314	0.349182	-0.631891
C51	C	0.741225	0.287508	-0.698958
H52	H	0.921983	0.271097	-0.630780
H53	H	0.922068	0.349940	-0.716835
H54	H	0.778397	0.335160	-0.561274
H55	H	0.778444	0.413997	-0.647320
H56	H	0.759150	0.301523	-0.769591
H57	H	0.759073	0.222684	-0.683530
H58	H	0.668058	0.296501	-0.689264
H59	H	1.118373	0.700408	-0.250413
H60	H	0.819737	0.588296	-0.372145
H61	H	1.774735	0.229592	-0.906113
C62	C	1.793153	0.212807	-1.119880
C63	C	1.851976	0.158791	-1.048326
C64	C	1.919296	0.097038	-1.102953
H65	H	1.839019	0.249641	-1.162632
H66	H	1.753044	0.170708	-1.162712
H67	H	1.892082	0.200885	-1.005512
H68	H	1.806138	0.121937	-1.005571
H69	H	1.879187	0.054939	-1.145785
H70	H	1.965155	0.133880	-1.145704
H71	H	1.959209	0.060375	-1.054412
H72	H	1.652929	0.341500	-1.204771
H73	H	1.396271	0.576532	-0.906269
C74	C	0.904601	0.717307	-0.232203
C75	C	0.976143	0.771439	-0.173464
C76	C	0.921503	0.833370	-0.106345
H77	H	0.861789	0.680596	-0.186275
H78	H	0.861826	0.759325	-0.272453
H79	H	1.018899	0.729427	-0.133216
H80	H	1.018956	0.808170	-0.219364
H81	H	0.878728	0.875388	-0.146596
H82	H	0.878693	0.796651	-0.060425
H83	H	0.970035	0.870112	-0.066490
C84	C	1.133137	0.335925	-0.646365
C85	C	1.106476	0.356783	-0.750359
C86	C	1.161282	0.295117	-0.817632
H87	H	1.115193	0.271104	-0.631024
H88	H	1.206351	0.344780	-0.636806
H89	H	1.033279	0.347919	-0.759913
H90	H	1.124423	0.421592	-0.765732
H91	H	1.234496	0.303972	-0.808073
H92	H	1.143334	0.230299	-0.802282
H93	H	1.143208	0.309266	-0.888200
C94	C	1.378172	0.593206	-1.120419
C95	C	1.392601	0.580019	-1.228245
C96	C	1.325420	0.641552	-1.283348
H97	H	1.393414	0.658064	-1.102527
H98	H	1.307562	0.579018	-1.102558
H99	H	1.463196	0.594213	-1.246099
H100	H	1.377352	0.515174	-1.246169
H101	H	1.254809	0.627365	-1.265487
H102	H	1.340668	0.706407	-1.265447
H103	H	1.335194	0.632607	-1.356513
H104	H	1.652686	0.341380	-0.806636
