data_functionalizedCrystal
_audit_creation_method	'MofGen! by Chris Wilmer'
_symmetry_space_group_name_H-M	'P1'
_symmetry_Int_Tables_number	1
_symmetry_cell_setting	triclinic
loop_
_symmetry_equiv_pos_as_xyz
  x,y,z
_cell_length_a	10.723024
_cell_length_b	14.044220
_cell_length_c	9.198806
_cell_angle_alpha	89.995861
_cell_angle_beta	89.996352
_cell_angle_gamma	88.828373
loop_
_atom_site_label
_atom_site_type_symbol
_atom_site_fract_x
_atom_site_fract_y
_atom_site_fract_z
O1	O	1.670498	0.133040	-0.120888
O2	O	1.308620	0.145774	-0.120893
O3	O	1.484127	0.001387	-0.120876
O4	O	1.494991	0.277427	-0.120905
O5	O	1.484112	0.001387	0.120909
O6	O	1.308604	0.145774	0.120892
O7	O	1.670483	0.133039	0.120898
Cu8	Cu	1.489542	0.139407	0.142972
Cu9	Cu	1.489560	0.139407	-0.142967
O10	O	1.494975	0.277427	0.120881
C11	C	1.262020	0.144847	-0.000001
C12	C	1.123188	0.142075	-0.000003
C13	C	1.056288	0.222866	-0.000012
C14	C	0.912798	0.220002	-0.000013
C15	C	1.479364	-0.033958	0.000017
C16	C	1.465180	-0.139276	0.000019
C17	C	1.439248	-0.332106	-0.000003
C18	C	1.539849	-0.389085	-0.000006
C19	C	1.525420	-0.496383	-0.000017
C20	C	1.453675	-0.224799	0.000009
C21	C	1.717083	0.133966	0.000002
C22	C	1.855914	0.136739	-0.000006
C23	C	1.499738	0.312772	-0.000016
C24	C	1.513923	0.418090	-0.000027
N25	N	1.489539	0.139406	0.344086
N26	N	1.489573	0.139401	-0.344081
C27	C	1.563202	0.078514	0.416290
C28	C	1.563221	0.078511	0.583702
H29	H	0.913420	0.067571	-0.000007
C30	C	1.669251	-0.346873	-0.000053
C31	C	1.759233	-0.420533	-0.000085
C32	C	1.878445	-0.381679	-0.000141
H33	H	1.679209	-0.308719	0.084248
H34	H	1.679130	-0.308714	-0.084395
H35	H	1.749359	-0.458676	0.084248
H36	H	1.749316	-0.458693	-0.084380
H37	H	1.888324	-0.343520	-0.084483
H38	H	1.888390	-0.343525	0.084162
H39	H	1.939512	-0.431651	-0.000176
H40	H	1.342291	-0.363906	-0.000008
C41	C	1.647123	0.008870	0.333510
C42	C	1.616203	-0.084452	0.370371
C43	C	1.693477	-0.148625	0.294116
H44	H	1.731715	0.019434	0.358286
H45	H	1.635903	0.018069	0.231991
H46	H	1.627434	-0.093647	0.471867
H47	H	1.531624	-0.095046	0.345590
H48	H	1.682257	-0.139426	0.192597
H49	H	1.778064	-0.138053	0.318898
H50	H	1.672501	-0.211951	0.319105
H51	H	1.074234	0.070786	-0.000032
C52	C	1.647529	0.009101	0.666405
C53	C	1.772041	0.025061	0.629484
C54	C	1.849742	-0.038857	0.705656
H55	H	1.626868	-0.054308	0.641601
H56	H	1.636451	0.018341	0.767936
H57	H	1.783113	0.015813	0.527976
H58	H	1.792740	0.088457	0.654291
H59	H	1.838664	-0.029617	0.807187
H60	H	1.829070	-0.102262	0.680847
H61	H	1.934232	-0.028031	0.680627
H62	H	1.105243	0.294155	-0.000011
C63	C	0.835968	0.312158	-0.000253
C64	C	0.760755	0.315622	-0.124631
C65	C	0.689948	0.400498	-0.124892
H66	H	0.890122	0.364844	-0.000332
H67	H	0.784779	0.314687	0.084017
H68	H	0.811939	0.313102	-0.208879
H69	H	0.706577	0.262955	-0.124578
H70	H	0.638759	0.403027	-0.040622
H71	H	0.744111	0.453178	-0.124967
H72	H	0.638900	0.402856	-0.209273
C73	C	1.405678	0.208969	0.572962
C74	C	1.478929	0.267272	0.485534
C75	C	1.401689	0.331361	0.409068
H76	H	1.359451	0.247261	0.639821
H77	H	1.349832	0.174596	0.513512
H78	H	1.534754	0.301642	0.544978
H79	H	1.525155	0.229006	0.418648
H80	H	1.345843	0.296988	0.349619
H81	H	1.355465	0.369646	0.475938
H82	H	1.451377	0.370921	0.349730
H83	H	1.426481	0.191531	0.406208
