data_functionalizedCrystal
_audit_creation_method	'MofGen! by Chris Wilmer'
_symmetry_space_group_name_H-M	'P1'
_symmetry_Int_Tables_number	1
_symmetry_cell_setting	triclinic
loop_
_symmetry_equiv_pos_as_xyz
  x,y,z
_cell_length_a	19.805407
_cell_length_b	19.805405
_cell_length_c	11.169409
_cell_angle_alpha	89.962829
_cell_angle_beta	89.975883
_cell_angle_gamma	90.026726
loop_
_atom_site_label
_atom_site_type_symbol
_atom_site_fract_x
_atom_site_fract_y
_atom_site_fract_z
Zn1	Zn	1.034765	-0.269408	-0.678640
Zn2	Zn	1.034670	-0.382618	-0.477940
Zn3	Zn	0.921570	-0.269448	-0.477959
Zn4	Zn	0.921542	-0.382561	-0.678570
O5	O	0.978137	-0.326009	-0.578277
O6	O	1.129469	-0.284433	-0.652038
O7	O	1.019639	-0.367646	-0.309993
O8	O	0.936637	-0.174726	-0.504617
O9	O	1.129399	-0.367607	-0.504584
O10	O	1.019801	-0.174697	-0.652057
O11	O	0.936545	-0.284500	-0.310007
O12	O	0.826850	-0.284445	-0.504549
O13	O	0.936589	-0.367511	-0.846529
O14	O	0.826829	-0.367549	-0.651937
O15	O	1.019773	-0.284378	-0.846580
O16	O	1.019612	-0.477327	-0.504516
O17	O	0.936497	-0.477285	-0.651918
C18	C	0.802281	-0.325996	-0.578238
C19	C	0.727049	-0.326006	-0.578250
C20	C	0.691711	-0.369344	-0.654871
C21	C	0.621023	-0.369345	-0.654888
C22	C	0.585673	-0.326012	-0.578277
C23	C	0.621015	-0.282670	-0.501653
C24	C	0.691702	-0.282666	-0.501643
C25	C	0.335942	-0.282685	-0.501693
C26	C	0.265250	-0.282694	-0.501706
C27	C	0.265263	-0.369364	-0.654937
C28	C	0.335950	-0.369360	-0.654927
C29	C	0.371286	-0.326016	-0.578308
C30	C	0.447934	-0.326014	-0.578293
C31	C	0.509026	-0.326016	-0.578286
C32	C	0.978060	-0.501865	-0.578234
C33	C	0.978088	-0.577097	-0.578255
C34	C	1.021366	-0.612367	-0.655087
C35	C	1.021390	-0.683056	-0.655109
C36	C	0.978140	-0.718472	-0.578293
C37	C	0.934858	-0.683196	-0.501458
C38	C	0.934831	-0.612509	-0.501442
C39	C	0.934967	-0.968270	-0.501519
C40	C	0.934999	-1.038962	-0.501538
C41	C	1.021527	-1.038816	-0.655186
C42	C	1.021499	-0.968129	-0.655171
C43	C	0.978215	-0.932860	-0.578341
C44	C	0.978188	-0.856211	-0.578319
C45	C	0.978170	-0.795119	-0.578308
C46	C	1.154679	-0.326022	-0.578317
C47	C	1.229911	-0.326028	-0.578334
C48	C	0.978189	-0.325933	-0.891320
C49	C	0.978211	-0.325901	-1.024720
C50	C	0.978233	-0.149466	-0.578347
C51	C	0.978273	-0.074234	-0.578377
C52	C	0.978124	-0.326035	-0.266452
C53	C	0.978233	-0.325876	-0.133053
H54	H	0.364728	-0.404648	-0.717307
C55	C	0.226746	-0.235723	-0.418559
C56	C	0.157279	-0.245025	-0.434938
C57	C	0.121788	-0.201782	-0.358349
H58	H	0.238264	-0.190225	-0.436180
H59	H	0.238269	-0.245587	-0.337864
H60	H	0.145760	-0.235156	-0.515615
H61	H	0.145741	-0.290513	-0.417309
H62	H	0.133311	-0.211646	-0.277654
H63	H	0.133311	-0.156287	-0.375977
H64	H	0.074651	-0.208091	-0.369444
H65	H	1.056769	-1.067541	-0.717749
H66	H	1.056588	-0.583536	-0.717634
H67	H	0.720488	-0.404633	-0.717252
C68	C	0.226774	-0.416346	-0.738092
C69	C	0.157303	-0.407064	-0.721736
C70	C	0.121829	-0.450325	-0.798323
H71	H	0.238253	-0.461838	-0.720455
H72	H	0.238350	-0.406485	-0.818786
H73	H	0.145733	-0.416929	-0.641060
H74	H	0.145804	-0.361580	-0.739382
H75	H	0.133405	-0.440465	-0.879018
H76	H	0.133314	-0.495815	-0.780679
H77	H	0.074690	-0.444029	-0.787244
C78	C	0.582516	-0.235691	-0.418526
C79	C	0.513047	-0.244981	-0.434910
C80	C	0.477562	-0.201722	-0.358342
H81	H	0.594043	-0.190198	-0.436163
H82	H	0.594034	-0.245548	-0.337826
H83	H	0.501533	-0.235120	-0.515592
H84	H	0.501500	-0.290466	-0.417265
H85	H	0.489080	-0.211579	-0.277642
H86	H	0.489094	-0.156231	-0.375985
H87	H	0.430424	-0.208024	-0.369440
C88	C	0.887960	-1.077294	-0.418094
C89	C	0.850033	-1.031277	-0.350830
C90	C	0.806691	-1.066564	-0.273965
H91	H	0.913801	-1.104871	-0.365740
H92	H	0.858435	-1.104861	-0.463944
H93	H	0.879554	-1.003722	-0.304983
H94	H	0.824178	-1.003699	-0.403152
H95	H	0.777166	-1.094131	-0.319815
H96	H	0.832537	-1.094140	-0.221619
H97	H	0.780948	-1.035348	-0.228325
C98	C	0.582779	-0.416481	-0.738106
C99	C	0.628866	-0.454448	-0.805161
C100	C	0.593661	-0.497887	-0.881820
H101	H	0.555224	-0.390709	-0.790600
H102	H	0.555196	-0.445976	-0.692118
H103	H	0.656438	-0.424956	-0.851145
H104	H	0.656423	-0.480234	-0.752697
H105	H	0.566078	-0.527383	-0.835832
H106	H	0.566108	-0.472110	-0.934307
H107	H	0.624926	-0.523658	-0.927318
C108	C	0.374179	-0.235601	-0.418379
C109	C	0.328089	-0.197667	-0.351270
C110	C	0.363290	-0.154289	-0.274496
H111	H	0.401778	-0.206076	-0.464250
H112	H	0.401717	-0.261436	-0.365931
H113	H	0.300562	-0.171833	-0.403710
H114	H	0.300488	-0.227174	-0.305374
H115	H	0.390829	-0.180125	-0.222049
H116	H	0.390888	-0.124769	-0.320377
H117	H	0.332024	-0.128550	-0.228946
C118	C	0.730037	-0.235701	-0.418248
C119	C	0.712818	-0.250378	-0.299455
C120	C	0.748125	-0.207133	-0.222599
H121	H	0.718507	-0.190211	-0.435795
H122	H	0.777205	-0.241911	-0.429135
H123	H	0.665661	-0.244163	-0.288573
H124	H	0.724350	-0.295861	-0.281871
H125	H	0.795292	-0.213343	-0.233486
H126	H	0.736592	-0.161645	-0.240157
H127	H	0.736452	-0.217089	-0.141990
H128	H	1.056637	-0.711770	-0.717664
C129	C	0.887952	-0.574127	-0.417953
C130	C	0.926278	-0.533531	-0.341100
C131	C	0.883113	-0.498159	-0.264187
H132	H	0.862183	-0.605266	-0.372091
H133	H	0.858448	-0.546520	-0.463779
H134	H	0.955771	-0.561136	-0.295278
H135	H	0.952046	-0.502380	-0.386929
H136	H	0.853608	-0.470552	-0.310013
H137	H	0.857346	-0.529303	-0.218333
H138	H	0.909110	-0.470606	-0.212041
H139	H	1.056720	-0.939295	-0.717718
H140	H	0.899724	-0.939559	-0.438959
H141	H	0.899640	-0.712038	-0.438917
