data_functionalizedCrystal
_audit_creation_method	'MofGen! by Chris Wilmer'
_symmetry_space_group_name_H-M	'P1'
_symmetry_Int_Tables_number	1
_symmetry_cell_setting	triclinic
loop_
_symmetry_equiv_pos_as_xyz
  x,y,z
_cell_length_a	10.654554
_cell_length_b	15.944493
_cell_length_c	9.130313
_cell_angle_alpha	90.004626
_cell_angle_beta	89.998999
_cell_angle_gamma	83.980943
loop_
_atom_site_label
_atom_site_type_symbol
_atom_site_fract_x
_atom_site_fract_y
_atom_site_fract_z
O1	O	1.666267	0.117995	-0.121804
O2	O	1.300641	0.129231	-0.121800
O3	O	1.493476	0.001393	-0.121814
O4	O	1.473432	0.245833	-0.121790
O5	O	1.493474	0.001396	0.121785
O6	O	1.300638	0.129234	0.121799
O7	O	1.666265	0.117998	0.121794
Cu8	Cu	1.483451	0.123616	0.144039
Cu9	Cu	1.483454	0.123612	-0.144044
O10	O	1.473429	0.245836	0.121809
C11	C	1.253852	0.128407	0.000000
C12	C	1.114442	0.125936	0.000001
C13	C	0.932939	0.046021	-0.000026
C14	C	1.063930	0.048342	-0.000011
C15	C	1.033956	0.201214	0.000013
C16	C	0.902968	0.198892	0.000008
C17	C	0.950246	-0.042239	-0.000046
C18	C	1.081237	-0.039918	-0.000031
C19	C	1.492656	-0.029905	-0.000021
C20	C	1.490200	-0.123168	-0.000040
C21	C	1.603707	-0.358270	-0.000013
C22	C	1.542498	-0.409194	-0.120119
C23	C	1.485648	-0.293915	-0.000022
C24	C	1.542468	-0.409167	0.120051
C25	C	1.481261	-0.458851	0.000002
C26	C	1.424471	-0.343612	-0.120226
C27	C	1.424459	-0.343581	0.120051
C28	C	1.363163	-0.394473	-0.000084
C29	C	1.488179	-0.198901	-0.000037
C30	C	1.478721	-0.553862	0.000007
C31	C	1.713053	0.118822	-0.000008
C32	C	1.852463	0.121293	-0.000019
C33	C	1.474250	0.277134	0.000013
C34	C	1.476706	0.370397	0.000022
N35	N	1.483458	0.123619	0.346662
N36	N	1.483457	0.123603	-0.346667
C37	C	1.568868	0.067032	0.423307
C38	C	1.568864	0.067021	0.576644
C39	C	1.398039	0.180193	0.576677
C40	C	1.398037	0.180199	0.423343
C41	C	1.667497	0.001695	0.423290
C42	C	1.667493	0.001685	0.576627
H43	H	1.127227	-0.066587	0.105151
N44	N	1.361983	-0.307846	-0.247772
N45	N	1.315507	-0.354459	-0.338602
H46	H	1.271380	-0.329200	-0.428684
N47	N	1.134168	-0.081644	-0.127918
N48	N	1.064040	-0.112938	-0.218037
H49	H	1.101421	-0.142406	-0.308354
H50	H	1.758409	0.022154	0.375733
N51	N	1.731268	-0.337905	-0.000140
N52	N	1.770665	-0.296269	0.103022
H53	H	1.860753	-0.281884	0.102930
N54	N	1.085527	0.280483	0.000018
N55	N	1.013655	0.347685	0.000020
H56	H	1.050073	0.403671	0.000022
N57	N	1.630210	-0.074840	0.636297
N58	N	1.535289	-0.072861	0.717178
H59	H	1.508948	-0.126903	0.759322
H60	H	1.592357	-0.437852	-0.221662
H61	H	1.261391	-0.410530	-0.000148
N62	N	0.913945	-0.085537	0.127815
N63	N	0.859266	-0.150797	0.115218
H64	H	0.833625	-0.181374	0.205518
H65	H	1.328490	0.226259	0.639127
N66	N	1.641627	-0.079291	0.371080
N67	N	1.623393	-0.136353	0.460040
H68	H	1.605105	-0.193545	0.423168
H69	H	1.763814	0.016078	0.618244
H70	H	0.914991	-0.070345	-0.105231
H71	H	1.592350	-0.437808	0.221584
N72	N	0.820780	0.275789	0.000046
N73	N	0.865894	0.345064	0.000073
H74	H	0.807850	0.399376	0.000102
N75	N	1.361973	-0.307618	0.247451
N76	N	1.402250	-0.328787	0.372072
H77	H	1.358127	-0.303389	0.462061
H78	H	1.328479	0.226269	0.360939
