data_functionalizedCrystal
_audit_creation_method	'MofGen! by Chris Wilmer'
_symmetry_space_group_name_H-M	'P1'
_symmetry_Int_Tables_number	1
_symmetry_cell_setting	triclinic
loop_
_symmetry_equiv_pos_as_xyz
  x,y,z
_cell_length_a	14.519709
_cell_length_b	14.519709
_cell_length_c	14.048226
_cell_angle_alpha	89.992623
_cell_angle_beta	89.999158
_cell_angle_gamma	83.680145
loop_
_atom_site_label
_atom_site_type_symbol
_atom_site_fract_x
_atom_site_fract_y
_atom_site_fract_z
O1	O	1.223870	0.120893	-0.079039
O2	O	1.723870	0.620893	0.420961
O3	O	0.955393	0.135130	-0.079068
O4	O	1.455393	0.635130	0.420932
O5	O	1.096750	-0.006227	-0.079044
O6	O	1.596750	0.493773	0.420956
O7	O	1.082513	0.262250	-0.079063
O8	O	1.582513	0.762250	0.420937
O9	O	1.096733	-0.006235	0.079277
O10	O	1.596733	0.493765	0.579277
O11	O	0.955376	0.135121	0.079253
O12	O	1.455376	0.635121	0.579253
O13	O	1.223853	0.120885	0.079283
O14	O	1.723853	0.620885	0.579283
Zn15	Zn	1.089612	0.128002	0.104405
Zn16	Zn	1.589612	0.628002	0.604405
Zn17	Zn	1.089634	0.128013	-0.104190
Zn18	Zn	1.589634	0.628013	0.395810
O19	O	1.082496	0.262242	0.079259
O20	O	1.582496	0.762242	0.579259
C21	C	1.096078	-0.040591	0.000117
C22	C	1.596078	0.459409	0.500117
C23	C	1.094090	-0.142972	0.000117
C24	C	1.594090	0.357028	0.500117
C25	C	0.921025	0.134462	0.000089
C26	C	1.421025	0.634462	0.500089
C27	C	0.818643	0.132474	0.000078
C28	C	1.318643	0.632474	0.500078
C29	C	1.086770	-0.517868	0.000091
C30	C	1.586770	-0.017868	0.500091
C31	C	1.088803	-0.413560	0.000099
C32	C	1.588803	0.086440	0.500099
C33	C	1.090430	-0.330423	0.000105
C34	C	1.590430	0.169577	0.500105
C35	C	1.092463	-0.226109	0.000111
C36	C	1.592463	0.273891	0.500111
C37	C	0.443748	0.125154	0.000122
C38	C	0.943748	0.625154	0.500122
C39	C	0.548056	0.127187	0.000109
C40	C	1.048056	0.627187	0.500109
C41	C	0.631192	0.128814	0.000099
C42	C	1.131192	0.628814	0.500099
C43	C	0.735507	0.130847	0.000088
C44	C	1.235507	0.630847	0.500088
C45	C	1.258221	0.121553	0.000124
C46	C	1.758221	0.621553	0.500124
C47	C	1.360602	0.123541	0.000128
C48	C	1.860602	0.623541	0.500128
C49	C	1.083168	0.296605	0.000096
C50	C	1.583168	0.796605	0.500096
C51	C	1.085156	0.398987	0.000089
C52	C	1.585156	0.898987	0.500089
N53	N	1.089603	0.127994	0.246766
N54	N	1.589603	0.627994	0.746766
N55	N	1.089650	0.128014	-0.246551
N56	N	1.589650	0.628014	0.253449
C57	C	1.152216	0.065427	0.296594
C58	C	1.652216	0.565427	0.796594
C59	C	1.152222	0.065426	0.396252
C60	C	1.652222	0.565426	0.896252
C61	C	1.089619	0.127998	0.446079
C62	C	1.589619	0.627998	0.946079
C63	C	1.027000	0.190568	0.396243
C64	C	1.527000	0.690568	0.896243
C65	C	1.026990	0.190563	0.296588
C66	C	1.526990	0.690563	0.796588
C67	C	1.027027	0.190574	0.603958
C68	C	1.527027	0.690574	1.103958
C69	C	1.027038	0.190580	0.703620
C70	C	1.527038	0.690580	1.203620
C71	C	1.152258	0.065438	0.703622
C72	C	1.652258	0.565438	1.203622
C73	C	1.152248	0.065433	0.603966
C74	C	1.652248	0.565433	1.103966
C75	C	1.089630	0.128004	0.554137
C76	C	1.589630	0.628004	1.054137
H77	H	1.203198	0.014478	0.256031
H78	H	1.703198	0.514478	0.756031
C79	C	1.220100	-0.002466	0.549685
C80	C	1.720100	0.497534	1.049685
C81	C	1.276656	0.046614	0.492318
C82	C	1.776656	0.546614	0.992318
C83	C	1.339078	-0.015957	0.442252
C84	C	1.839078	0.484043	0.942252
H85	H	1.186734	-0.040825	0.510834
H86	H	1.686734	0.459175	1.010834
H87	H	1.257460	-0.039837	0.593496
H88	H	1.757460	0.460163	1.093496
H89	H	1.239301	0.083969	0.448512
H90	H	1.739301	0.583969	0.948512
H91	H	1.310043	0.084970	0.531145
H92	H	1.810043	0.584970	1.031145
H93	H	1.376438	-0.053328	0.486063
H94	H	1.876438	0.446672	0.986063
H95	H	1.305704	-0.054312	0.403407
H96	H	1.805704	0.445688	0.903407
H97	H	1.377464	0.017335	0.403329
H98	H	1.877464	0.517335	0.903329
H99	H	0.976033	0.241524	0.563390
H100	H	1.476033	0.741524	1.063390
C101	C	0.959119	0.258645	0.242534
C102	C	1.459119	0.758645	0.742534
C103	C	0.974235	0.349306	0.266734
C104	C	1.474235	0.849306	0.766734
C105	C	0.911734	0.412046	0.216951
C106	C	1.411734	0.912046	0.716951
H107	H	0.897519	0.248616	0.258835
H108	H	1.397519	0.748616	0.758835
H109	H	0.968081	0.249742	0.176038
H110	H	1.468081	0.749742	0.676038
H111	H	0.965265	0.358205	0.333216
H112	H	1.465265	0.858205	0.833216
H113	H	1.035823	0.359364	0.250430
H114	H	1.535823	0.859364	0.750430
H115	H	0.920696	0.403143	0.150455
H116	H	1.420696	0.903143	0.650455
H117	H	0.850137	0.402009	0.233256
H118	H	1.350137	0.902009	0.733256
H119	H	0.921987	0.473567	0.233357
H120	H	1.421987	0.973567	0.733357
C121	C	1.220096	-0.002609	0.757764
C122	C	1.720096	0.497391	1.257764
C123	C	1.170895	-0.059197	0.814971
C124	C	1.670895	0.440803	1.314971
C125	C	1.233356	-0.121895	0.864852
C126	C	1.733356	0.378105	1.364852
H127	H	1.258563	0.030545	0.796708
H128	H	1.758563	0.530545	1.296708
H129	H	1.257366	-0.039923	0.713843
H130	H	1.757366	0.460077	1.213843
H131	H	1.133640	-0.021888	0.858886
H132	H	1.633640	0.478112	1.358886
H133	H	1.132431	-0.092372	0.776050
H134	H	1.632431	0.407628	1.276050
H135	H	1.270627	-0.159209	0.820931
H136	H	1.770627	0.340791	1.320931
H137	H	1.271821	-0.088733	0.903791
H138	H	1.771821	0.411267	1.403791
H139	H	1.199983	-0.160303	0.903666
H140	H	1.699983	0.339697	1.403666
H141	H	0.976023	0.241512	0.436818
H142	H	1.476023	0.741512	0.936818
C143	C	0.958951	0.258540	0.757549
C144	C	1.458951	0.758540	1.257549
C145	C	0.904084	0.313310	0.692584
C146	C	1.404084	0.813310	1.192584
C147	C	0.841339	0.375911	0.742228
C148	C	1.341339	0.875911	1.242228
H149	H	0.992068	0.297102	0.796422
H150	H	1.492068	0.797102	1.296422
H151	H	0.920476	0.225285	0.796411
H152	H	1.420476	0.725285	1.296411
H153	H	0.942554	0.346562	0.653738
H154	H	1.442554	0.846562	1.153738
H155	H	0.870946	0.274773	0.653709
H156	H	1.370946	0.774773	1.153709
H157	H	0.802864	0.342656	0.781090
H158	H	1.302864	0.842656	1.281090
H159	H	0.874464	0.414466	0.781099
H160	H	1.374464	0.914466	1.281099
H161	H	0.804099	0.413074	0.698157
H162	H	1.304099	0.913074	1.198157
H163	H	1.203205	0.014479	0.436822
H164	H	1.703205	0.514479	0.936822
