data_functionalizedCrystal
_audit_creation_method	'MofGen! by Chris Wilmer'
_symmetry_space_group_name_H-M	'P1'
_symmetry_Int_Tables_number	1
_symmetry_cell_setting	triclinic
loop_
_symmetry_equiv_pos_as_xyz
  x,y,z
_cell_length_a	16.625546
_cell_length_b	16.625548
_cell_length_c	12.759387
_cell_angle_alpha	89.975346
_cell_angle_beta	90.035560
_cell_angle_gamma	89.977673
loop_
_atom_site_label
_atom_site_type_symbol
_atom_site_fract_x
_atom_site_fract_y
_atom_site_fract_z
Zn1	Zn	-0.320962	-1.232699	0.594087
Zn2	Zn	-0.455817	-1.232597	0.418392
Zn3	Zn	-0.321002	-1.097855	0.418411
Zn4	Zn	-0.455756	-1.097831	0.594019
O5	O	-0.388384	-1.165245	0.506227
O6	O	-0.338860	-1.345518	0.570801
O7	O	-0.437976	-1.214690	0.271374
O8	O	-0.208164	-1.115795	0.441750
O9	O	-0.437937	-1.345443	0.441719
O10	O	-0.208135	-1.214864	0.570819
O11	O	-0.338928	-1.115696	0.271387
O12	O	-0.338869	-0.985020	0.441685
O13	O	-0.437833	-1.115754	0.741049
O14	O	-0.437872	-0.985002	0.570703
O15	O	-0.338800	-1.214841	0.741099
O16	O	-0.568642	-1.214667	0.441654
O17	O	-0.568597	-1.115655	0.570685
C18	C	-0.388368	-0.955755	0.506189
C19	C	-0.388381	-0.866133	0.506198
C20	C	-0.388379	-0.537958	0.506230
C21	C	-0.388378	-0.629266	0.506217
C22	C	-0.388381	-0.702043	0.506213
C23	C	-0.388378	-0.793357	0.506202
C24	C	-0.597875	-1.165169	0.506183
C25	C	-0.687496	-1.165210	0.506199
C26	C	-1.015672	-1.165351	0.506309
C27	C	-0.924364	-1.165309	0.506281
C28	C	-0.851587	-1.165280	0.506254
C29	C	-0.760273	-1.165240	0.506227
C30	C	-0.178075	-1.165344	0.506294
C31	C	-0.088454	-1.165386	0.506323
C32	C	-0.388305	-1.165306	0.780261
C33	C	-0.388272	-1.165332	0.897037
C34	C	-0.388396	-0.375554	0.506256
C35	C	-0.388387	-0.465175	0.506242
C36	C	-0.388405	-1.165231	0.233260
C37	C	-0.388211	-1.165361	0.116483
C38	C	-0.285156	-1.268518	0.897109
C39	C	-0.233586	-1.320123	0.952006
C40	C	-0.233557	-1.320142	1.061727
C41	C	-0.285101	-1.268550	1.116555
C42	C	-0.336671	-1.216946	1.061658
C43	C	-0.336696	-1.216934	0.951934
C44	C	-0.439781	-1.113757	1.061587
C45	C	-0.439816	-1.113740	0.951865
C46	C	-0.491326	-1.062165	1.116414
C47	C	-0.542901	-1.010564	1.061518
C48	C	-0.542929	-1.010547	0.951789
C49	C	-0.491386	-1.062136	0.896968
H50	H	-0.285182	-1.268515	0.807768
O51	O	-0.183598	-1.370216	0.898584
C52	C	-0.194667	-1.359125	0.789968
H53	H	-0.256889	-1.332674	0.774952
H54	H	-0.146837	-1.316215	0.758832
C55	C	-0.110894	-1.473193	0.752111
C56	C	-0.187319	-1.440712	0.733667
H57	H	-0.106359	-1.523518	0.717380
H58	H	-0.103434	-1.480664	0.825287
H59	H	-0.071045	-1.437427	0.726164
H60	H	-0.227167	-1.476473	0.759625
H61	H	-0.194786	-1.433249	0.660493
H62	H	-0.191559	-1.362158	1.106424
H63	H	-0.584860	-0.968558	1.106167
H64	H	-0.584915	-0.968516	0.907099
H65	H	-0.285066	-1.268564	1.205896
H66	H	-0.491295	-1.062182	1.205756
H67	H	-0.491407	-1.062131	0.807627
