data_functionalizedCrystal
_audit_creation_method	'MofGen! by Chris Wilmer'
_symmetry_space_group_name_H-M	'P1'
_symmetry_Int_Tables_number	1
_symmetry_cell_setting	triclinic
loop_
_symmetry_equiv_pos_as_xyz
  x,y,z
_cell_length_a	27.731994
_cell_length_b	26.210047
_cell_length_c	27.732046
_cell_angle_alpha	89.987412
_cell_angle_beta	97.368744
_cell_angle_gamma	90.018354
loop_
_atom_site_label
_atom_site_type_symbol
_atom_site_fract_x
_atom_site_fract_y
_atom_site_fract_z
O1	O	0.640958	0.042363	-0.057392
O2	O	0.890958	0.292363	0.192608
O3	O	1.140958	0.542363	0.442608
O4	O	1.390958	0.792363	0.692608
O5	O	0.500161	0.042381	-0.066164
O6	O	0.750161	0.292381	0.183836
O7	O	1.000161	0.542381	0.433836
O8	O	1.250161	0.792381	0.683836
O9	O	0.574933	0.042360	0.008620
O10	O	0.824933	0.292360	0.258620
O11	O	1.074933	0.542360	0.508620
O12	O	1.324933	0.792360	0.758620
O13	O	0.566186	0.042384	-0.132176
O14	O	0.816186	0.292384	0.117824
O15	O	1.066186	0.542384	0.367824
O16	O	1.316186	0.792384	0.617824
O17	O	0.574898	-0.042498	0.008620
O18	O	0.824898	0.207502	0.258620
O19	O	1.074898	0.457502	0.508620
O20	O	1.324898	0.707502	0.758620
O21	O	0.500126	-0.042477	-0.066164
O22	O	0.750126	0.207523	0.183836
O23	O	1.000126	0.457523	0.433836
O24	O	1.250126	0.707523	0.683836
O25	O	0.640924	-0.042495	-0.057391
O26	O	0.890924	0.207505	0.192609
O27	O	1.140924	0.457505	0.442609
O28	O	1.390924	0.707505	0.692609
Cu29	Cu	0.570522	-0.050234	-0.061777
Cu30	Cu	0.820522	0.199766	0.188223
Cu31	Cu	1.070522	0.449766	0.438223
Cu32	Cu	1.320522	0.699766	0.688223
Cu33	Cu	0.570563	0.050120	-0.061778
Cu34	Cu	0.820563	0.300120	0.188222
Cu35	Cu	1.070563	0.550120	0.438222
Cu36	Cu	1.320563	0.800120	0.688222
O37	O	0.566152	-0.042474	-0.132175
O38	O	0.816152	0.207526	0.117825
O39	O	1.066152	0.457526	0.367825
O40	O	1.316152	0.707526	0.617825
C41	C	0.482136	-0.000046	-0.065984
C42	C	0.732136	0.249954	0.184016
C43	C	0.982136	0.499954	0.434016
C44	C	1.232136	0.749954	0.684016
C45	C	0.428480	-0.000039	-0.065442
C46	C	0.678480	0.249961	0.184558
C47	C	0.928480	0.499961	0.434558
C48	C	1.178480	0.749961	0.684558
C49	C	0.095743	-0.046316	-0.062025
C50	C	0.345743	0.203684	0.187975
C51	C	0.595743	0.453684	0.437975
C52	C	0.845743	0.703684	0.687975
C53	C	-0.105916	-0.046322	-0.059964
C54	C	0.144084	0.203678	0.190036
C55	C	0.394084	0.453678	0.440036
C56	C	0.644084	0.703678	0.690036
O57	O	-0.132004	-0.085661	-0.059676
O58	O	0.117996	0.164339	0.190324
O59	O	0.367996	0.414339	0.440324
O60	O	0.617996	0.664339	0.690324
N61	N	-0.131112	-0.000066	-0.059708
N62	N	0.118888	0.249934	0.190292
N63	N	0.368888	0.499934	0.440292
N64	N	0.618888	0.749934	0.690292
C65	C	-0.105890	0.046195	-0.059965
C66	C	0.144110	0.296195	0.190035
C67	C	0.394110	0.546195	0.440035
C68	C	0.644110	0.796195	0.690035
O69	O	-0.131947	0.085538	-0.059695
O70	O	0.118053	0.335538	0.190305
O71	O	0.368053	0.585538	0.440305
O72	O	0.618053	0.835538	0.690305
C73	C	0.095768	0.046200	-0.062023
C74	C	0.345768	0.296200	0.187977
C75	C	0.595768	0.546200	0.437977
C76	C	0.845768	0.796200	0.687977
C77	C	0.120961	-0.000059	-0.062284
C78	C	0.370961	0.249941	0.187716
C79	C	0.620961	0.499941	0.437716
C80	C	0.870961	0.749941	0.687716
C81	C	0.120935	-0.092571	-0.062285
C82	C	0.370935	0.157429	0.187715
C83	C	0.620935	0.407429	0.437715
C84	C	0.870935	0.657429	0.687715
C85	C	0.171347	-0.092569	-0.062803
C86	C	0.421347	0.157431	0.187197
C87	C	0.671347	0.407431	0.437197
C88	C	0.921347	0.657431	0.687197
C89	C	0.196565	-0.046312	-0.063061
C90	C	0.446565	0.203688	0.186939
C91	C	0.696565	0.453688	0.436939
C92	C	0.946565	0.703688	0.686939
C93	C	0.171372	-0.000057	-0.062802
C94	C	0.421372	0.249943	0.187198
C95	C	0.671372	0.499943	0.437198
C96	C	0.921372	0.749943	0.687198
C97	C	0.120990	0.092461	-0.062276
C98	C	0.370990	0.342461	0.187724
C99	C	0.620990	0.592461	0.437724
C100	C	0.870990	0.842461	0.687724
C101	C	0.171408	0.092458	-0.062790
C102	C	0.421408	0.342458	0.187210
C103	C	0.671408	0.592458	0.437210
C104	C	0.921408	0.842458	0.687210
C105	C	0.196600	0.046199	-0.063050
C106	C	0.446600	0.296199	0.186950
C107	C	0.696600	0.546199	0.436950
C108	C	0.946600	0.796199	0.686950
C109	C	0.247001	0.046203	-0.063578
C110	C	0.497001	0.296203	0.186422
C111	C	0.747001	0.546203	0.436422
C112	C	0.997001	0.796203	0.686422
N113	N	0.272197	-0.000053	-0.063833
N114	N	0.522197	0.249947	0.186167
N115	N	0.772197	0.499947	0.436167
N116	N	1.022197	0.749947	0.686167
C117	C	0.246979	-0.046311	-0.063575
C118	C	0.496979	0.203689	0.186425
C119	C	0.746979	0.453689	0.436425
C120	C	0.996979	0.703689	0.686425
C121	C	-0.211763	0.046189	-0.058885
C122	C	0.038237	0.296189	0.191115
C123	C	0.288237	0.546189	0.441115
C124	C	0.538237	0.796189	0.691115
C125	C	-0.262177	0.046187	-0.058372
C126	C	-0.012177	0.296187	0.191628
C127	C	0.237823	0.546187	0.441628
C128	C	0.487823	0.796187	0.691628
C129	C	-0.262200	-0.046330	-0.058370
C130	C	-0.012200	0.203670	0.191630
C131	C	0.237800	0.453670	0.441630
C132	C	0.487800	0.703670	0.691630
C133	C	-0.211785	-0.046328	-0.058887
C134	C	0.038215	0.203672	0.191113
C135	C	0.288215	0.453672	0.441113
C136	C	0.538215	0.703672	0.691113
C137	C	-0.186567	-0.000067	-0.059141
C138	C	0.063433	0.249933	0.190859
C139	C	0.313433	0.499933	0.440859
C140	C	0.563433	0.749933	0.690859
C141	C	0.352846	-0.046303	-0.064663
C142	C	0.602846	0.203697	0.185337
C143	C	0.852846	0.453697	0.435337
C144	C	1.102846	0.703697	0.685337
C145	C	0.403262	-0.046297	-0.065184
C146	C	0.653262	0.203703	0.184816
C147	C	0.903262	0.453703	0.434816
C148	C	1.153262	0.703703	0.684816
C149	C	0.403280	0.046220	-0.065183
C150	C	0.653280	0.296220	0.184817
C151	C	0.903280	0.546220	0.434817
C152	C	1.153280	0.796220	0.684817
C153	C	0.352869	0.046214	-0.064665
C154	C	0.602869	0.296214	0.185335
C155	C	0.852869	0.546214	0.435335
C156	C	1.102869	0.796214	0.685335
C157	C	0.327653	-0.000051	-0.064404
C158	C	0.577653	0.249949	0.185596
C159	C	0.827653	0.499949	0.435596
C160	C	1.077653	0.749949	0.685596
O161	O	0.273122	0.085521	-0.063860
O162	O	0.523122	0.335521	0.186140
O163	O	0.773122	0.585521	0.436140
O164	O	1.023122	0.835521	0.686140
O165	O	0.273047	-0.085648	-0.063834
O166	O	0.523047	0.164352	0.186166
O167	O	0.773047	0.414352	0.436166
O168	O	1.023047	0.664352	0.686166
C169	C	0.045331	-0.046318	-0.061507
C170	C	0.295331	0.203682	0.188493
C171	C	0.545331	0.453682	0.438493
C172	C	0.795331	0.703682	0.688493
C173	C	0.020139	-0.000063	-0.061247
C174	C	0.270139	0.249937	0.188753
C175	C	0.520139	0.499937	0.438753
C176	C	0.770139	0.749937	0.688753
C177	C	0.045357	0.046195	-0.061506
C178	C	0.295357	0.296195	0.188494
C179	C	0.545357	0.546195	0.438494
C180	C	0.795357	0.796195	0.688494
C181	C	-0.030276	-0.000064	-0.060734
C182	C	0.219724	0.249936	0.189266
C183	C	0.469724	0.499936	0.439266
C184	C	0.719724	0.749936	0.689266
C185	C	-0.055494	-0.046321	-0.060476
C186	C	0.194506	0.203679	0.189524
C187	C	0.444506	0.453679	0.439524
C188	C	0.694506	0.703679	0.689524
C189	C	-0.030298	-0.092577	-0.060731
C190	C	0.219702	0.157423	0.189269
C191	C	0.469702	0.407423	0.439269
C192	C	0.719702	0.657423	0.689269
C193	C	0.020113	-0.092575	-0.061249
C194	C	0.270113	0.157425	0.188751
C195	C	0.520113	0.407425	0.438751
C196	C	0.770113	0.657425	0.688751
C197	C	0.020161	0.092451	-0.061250
C198	C	0.270161	0.342451	0.188750
C199	C	0.520161	0.592451	0.438750
C200	C	0.770161	0.842451	0.688750
C201	C	-0.030250	0.092445	-0.060732
C202	C	0.219750	0.342445	0.189268
C203	C	0.469750	0.592445	0.439268
C204	C	0.719750	0.842445	0.689268
C205	C	-0.055469	0.046188	-0.060474
C206	C	0.194531	0.296188	0.189526
C207	C	0.444531	0.546188	0.439526
C208	C	0.694531	0.796188	0.689526
N209	N	0.570497	-0.120818	-0.061776
N210	N	0.820497	0.129182	0.188224
N211	N	1.070497	0.379182	0.438224
N212	N	1.320497	0.629182	0.688224
C213	C	0.537422	-0.526776	-0.094877
C214	C	0.787422	-0.276776	0.155123
C215	C	1.037422	-0.026776	0.405123
C216	C	1.287422	0.223224	0.655123
C217	C	0.537399	-0.313118	-0.094877
C218	C	0.787399	-0.063118	0.155123
C219	C	1.037399	0.186882	0.405123
C220	C	1.287399	0.436882	0.655123
O221	O	0.509220	-0.285491	-0.123016
O222	O	0.759220	-0.035491	0.126984
O223	O	1.009220	0.214509	0.376984
O224	O	1.259220	0.464509	0.626984
N225	N	0.570512	-0.286402	-0.061774
N226	N	0.820512	-0.036402	0.188226
N227	N	1.070512	0.213598	0.438226
N228	N	1.320512	0.463598	0.688226
C229	C	0.603631	-0.313104	-0.028667
C230	C	0.853631	-0.063104	0.221333
C231	C	1.103631	0.186896	0.471333
C232	C	1.353631	0.436896	0.721333
O233	O	0.631792	-0.285478	-0.000508
O234	O	0.881792	-0.035478	0.249492
O235	O	1.131792	0.214522	0.499492
O236	O	1.381792	0.464522	0.749492
C237	C	0.603652	-0.526762	-0.028665
C238	C	0.853652	-0.276762	0.221335
C239	C	1.103652	-0.026762	0.471335
C240	C	1.353652	0.223238	0.721335
C241	C	0.570540	-0.553475	-0.061773
C242	C	0.820540	-0.303475	0.188227
C243	C	1.070540	-0.053475	0.438227
C244	C	1.320540	0.196525	0.688227
C245	C	0.504312	-0.553489	-0.127982
C246	C	0.754312	-0.303489	0.122018
C247	C	1.004312	-0.053489	0.372018
C248	C	1.254312	0.196511	0.622018
C249	C	0.504320	-0.606901	-0.127983
C250	C	0.754320	-0.356901	0.122017
C251	C	1.004320	-0.106901	0.372017
C252	C	1.254320	0.143099	0.622017
C253	C	0.537438	-0.633599	-0.094880
C254	C	0.787438	-0.383599	0.155120
C255	C	1.037438	-0.133599	0.405120
C256	C	1.287438	0.116401	0.655120
C257	C	0.570548	-0.606886	-0.061775
C258	C	0.820548	-0.356886	0.188225
C259	C	1.070548	-0.106886	0.438225
C260	C	1.320548	0.143114	0.688225
C261	C	0.636769	-0.553463	0.004444
C262	C	0.886769	-0.303463	0.254444
C263	C	1.136769	-0.053463	0.504444
C264	C	1.386769	0.196537	0.754444
C265	C	0.636770	-0.606881	0.004442
C266	C	0.886770	-0.356881	0.254442
C267	C	1.136770	-0.106881	0.504442
C268	C	1.386770	0.143119	0.754442
C269	C	0.603658	-0.633594	-0.028666
C270	C	0.853658	-0.383594	0.221334
C271	C	1.103658	-0.133594	0.471334
C272	C	1.353658	0.116406	0.721334
C273	C	0.603673	-0.686996	-0.028672
C274	C	0.853673	-0.436996	0.221328
C275	C	1.103673	-0.186996	0.471328
C276	C	1.353673	0.063004	0.721328
N277	N	0.570560	-0.713712	-0.061775
N278	N	0.820560	-0.463712	0.188225
N279	N	1.070560	-0.213712	0.438225
N280	N	1.320560	0.036288	0.688225
C281	C	0.537442	-0.687013	-0.094879
C282	C	0.787442	-0.437013	0.155121
C283	C	1.037442	-0.187013	0.405121
C284	C	1.287442	0.062987	0.655121
C285	C	0.603619	-0.200931	-0.028671
C286	C	0.853619	0.049069	0.221329
C287	C	1.103619	0.299069	0.471329
C288	C	1.353619	0.549069	0.721329
C289	C	0.603614	-0.147517	-0.028672
C290	C	0.853614	0.102483	0.221328
C291	C	1.103614	0.352483	0.471328
C292	C	1.353614	0.602483	0.721328
C293	C	0.537381	-0.147534	-0.094882
C294	C	0.787381	0.102466	0.155118
C295	C	1.037381	0.352466	0.405118
C296	C	1.287381	0.602466	0.655118
C297	C	0.537388	-0.200949	-0.094883
C298	C	0.787388	0.049051	0.155117
C299	C	1.037388	0.299051	0.405117
C300	C	1.287388	0.549051	0.655117
C301	C	0.570506	-0.227646	-0.061774
C302	C	0.820506	0.022354	0.188226
C303	C	1.070506	0.272354	0.438226
C304	C	1.320506	0.522354	0.688226
C305	C	0.537462	-0.799181	-0.094879
C306	C	0.787462	-0.549181	0.155121
C307	C	1.037462	-0.299181	0.405121
C308	C	1.287462	-0.049181	0.655121
C309	C	0.537474	-0.852597	-0.094879
C310	C	0.787474	-0.602597	0.155121
C311	C	1.037474	-0.352597	0.405121
C312	C	1.287474	-0.102597	0.655121
C313	C	0.603705	-0.852575	-0.028668
C314	C	0.853705	-0.602575	0.221332
C315	C	1.103705	-0.352575	0.471332
C316	C	1.353705	-0.102575	0.721332
C317	C	0.603695	-0.799164	-0.028670
C318	C	0.853695	-0.549164	0.221330
C319	C	1.103695	-0.299164	0.471330
C320	C	1.353695	-0.049164	0.721330
C321	C	0.570569	-0.772468	-0.061777
C322	C	0.820569	-0.522468	0.188223
C323	C	1.070569	-0.272468	0.438223
C324	C	1.320569	-0.022468	0.688223
O325	O	0.631834	-0.714655	-0.000544
O326	O	0.881834	-0.464655	0.249456
O327	O	1.131834	-0.214655	0.499456
O328	O	1.381834	0.035345	0.749456
O329	O	0.509278	-0.714648	-0.123026
O330	O	0.759278	-0.464648	0.126974
O331	O	1.009278	-0.214648	0.376974
O332	O	1.259278	0.035352	0.626974
C333	C	0.537414	-0.473365	-0.094876
C334	C	0.787414	-0.223365	0.155124
C335	C	1.037414	0.026635	0.405124
C336	C	1.287414	0.276635	0.655124
C337	C	0.570524	-0.446652	-0.061770
C338	C	0.820524	-0.196652	0.188230
C339	C	1.070524	0.053348	0.438230
C340	C	1.320524	0.303348	0.688230
C341	C	0.603642	-0.473350	-0.028667
C342	C	0.853642	-0.223350	0.221333
C343	C	1.103642	0.026650	0.471333
C344	C	1.353642	0.276650	0.721333
C345	C	0.570519	-0.393238	-0.061772
C346	C	0.820519	-0.143238	0.188228
C347	C	1.070519	0.106762	0.438228
C348	C	1.320519	0.356762	0.688228
C349	C	0.537402	-0.366539	-0.094875
C350	C	0.787402	-0.116539	0.155125
C351	C	1.037402	0.133461	0.405125
C352	C	1.287402	0.383461	0.655125
C353	C	0.504288	-0.393255	-0.127978
C354	C	0.754288	-0.143255	0.122022
C355	C	1.004288	0.106745	0.372022
C356	C	1.254288	0.356745	0.622022
C357	C	0.504296	-0.446666	-0.127979
C358	C	0.754296	-0.196666	0.122021
C359	C	1.004296	0.053334	0.372021
C360	C	1.254296	0.303334	0.622021
C361	C	0.636755	-0.446634	0.004436
C362	C	0.886755	-0.196634	0.254436
C363	C	1.136755	0.053366	0.504436
C364	C	1.386755	0.303366	0.754436
C365	C	0.636745	-0.393223	0.004434
C366	C	0.886745	-0.143223	0.254434
C367	C	1.136745	0.106777	0.504434
C368	C	1.386745	0.356777	0.754434
C369	C	0.603627	-0.366524	-0.028670
C370	C	0.853627	-0.116524	0.221330
C371	C	1.103627	0.133476	0.471330
C372	C	1.353627	0.383476	0.721330
C373	C	0.658948	-0.000067	-0.057571
C374	C	0.908948	0.249933	0.192429
C375	C	1.158948	0.499933	0.442429
C376	C	1.408948	0.749933	0.692429
C377	C	0.712605	-0.000070	-0.058114
C378	C	0.962605	0.249930	0.191886
C379	C	1.212605	0.499930	0.441886
C380	C	1.462605	0.749930	0.691886
C381	C	0.574732	-0.000071	0.026627
C382	C	0.824732	0.249929	0.276627
C383	C	1.074732	0.499929	0.526627
C384	C	1.324732	0.749929	0.776627
C385	C	0.574179	-0.000076	0.080282
C386	C	0.824179	0.249924	0.330282
C387	C	1.074179	0.499924	0.580282
C388	C	1.324179	0.749924	0.830282
N389	N	0.570592	0.120704	-0.061775
N390	N	0.820592	0.370704	0.188225
N391	N	1.070592	0.620704	0.438225
N392	N	1.320592	0.870704	0.688225
C393	C	0.614886	-0.000064	0.419105
C394	C	0.864886	0.249936	0.669105
C395	C	1.114886	0.499936	0.919105
C396	C	1.364886	0.749936	1.169105
C397	C	0.612837	-0.000061	0.620764
C398	C	0.862837	0.249939	0.870764
C399	C	1.112837	0.499939	1.120764
C400	C	1.362837	0.749939	1.370764
O401	O	0.650058	-0.000044	0.652027
O402	O	0.900058	0.249956	0.902027
O403	O	1.150058	0.499956	1.152027
O404	O	1.400058	0.749956	1.402027
N405	N	0.568500	-0.000057	0.639880
N406	N	0.818500	0.249943	0.889880
N407	N	1.068500	0.499943	1.139880
N408	N	1.318500	0.749943	1.389880
C409	C	0.524673	-0.000049	0.608576
C410	C	0.774673	0.249951	0.858576
C411	C	1.024673	0.499951	1.108576
C412	C	1.274673	0.749951	1.358576
O413	O	0.486916	-0.000040	0.629462
O414	O	0.736916	0.249960	0.879462
O415	O	0.986916	0.499960	1.129462
O416	O	1.236916	0.749960	1.379462
C417	C	0.526724	-0.000048	0.406918
C418	C	0.776724	0.249952	0.656918
C419	C	1.026724	0.499952	0.906918
C420	C	1.276724	0.749952	1.156918
C421	C	0.571063	-0.000058	0.387806
C422	C	0.821063	0.249942	0.637806
C423	C	1.071063	0.499942	0.887806
C424	C	1.321063	0.749942	1.137806
C425	C	0.659222	-0.000073	0.399992
C426	C	0.909222	0.249927	0.649992
C427	C	1.159222	0.499927	0.899992
C428	C	1.409222	0.749927	1.149992
C429	C	0.659734	-0.000076	0.349580
C430	C	0.909734	0.249924	0.599580
C431	C	1.159734	0.499924	0.849580
C432	C	1.409734	0.749924	1.099580
C433	C	0.615910	-0.000070	0.318281
C434	C	0.865910	0.249930	0.568281
C435	C	1.115910	0.499930	0.818281
C436	C	1.365910	0.749930	1.068281
C437	C	0.571575	-0.000061	0.337394
C438	C	0.821575	0.249939	0.587394
C439	C	1.071575	0.499939	0.837394
C440	C	1.321575	0.749939	1.087394
C441	C	0.482897	-0.000037	0.375616
C442	C	0.732897	0.249963	0.625616
C443	C	0.982897	0.499963	0.875616
C444	C	1.232897	0.749963	1.125616
C445	C	0.483414	-0.000035	0.325198
C446	C	0.733414	0.249965	0.575198
C447	C	0.983414	0.499965	0.825198
C448	C	1.233414	0.749965	1.075198
C449	C	0.527753	-0.000045	0.306086
C450	C	0.777753	0.249955	0.556086
C451	C	1.027753	0.499955	0.806086
C452	C	1.277753	0.749955	1.056086
C453	C	0.528263	-0.000059	0.255683
C454	C	0.778263	0.249941	0.505683
C455	C	1.028263	0.499941	0.755683
C456	C	1.278263	0.749941	1.005683
N457	N	0.572599	-0.000063	0.236568
N458	N	0.822599	0.249937	0.486568
N459	N	1.072599	0.499937	0.736568
N460	N	1.322599	0.749937	0.986568
C461	C	0.616423	-0.000069	0.267867
C462	C	0.866423	0.249931	0.517867
C463	C	1.116423	0.499931	0.767867
C464	C	1.366423	0.749931	1.017867
C465	C	0.523600	-0.000051	0.714450
C466	C	0.773600	0.249949	0.964450
C467	C	1.023600	0.499949	1.214450
C468	C	1.273600	0.749949	1.464450
C469	C	0.523087	-0.000052	0.764865
C470	C	0.773087	0.249948	1.014865
C471	C	1.023087	0.499948	1.264865
C472	C	1.273087	0.749948	1.514865
C473	C	0.611251	-0.000063	0.777049
C474	C	0.861251	0.249937	1.027049
C475	C	1.111251	0.499937	1.277049
C476	C	1.361251	0.749937	1.527049
C477	C	0.611763	-0.000066	0.726634
C478	C	0.861763	0.249934	0.976634
C479	C	1.111763	0.499934	1.226634
C480	C	1.361763	0.749934	1.476634
C481	C	0.567936	-0.000056	0.695335
C482	C	0.817936	0.249944	0.945335
C483	C	1.067936	0.499944	1.195335
C484	C	1.317936	0.749944	1.445335
C485	C	0.617495	-0.000077	0.161998
C486	C	0.867495	0.249923	0.411998
C487	C	1.117495	0.499923	0.661998
C488	C	1.367495	0.749923	0.911998
C489	C	0.618003	-0.000082	0.111581
C490	C	0.868003	0.249918	0.361581
C491	C	1.118003	0.499918	0.611581
C492	C	1.368003	0.749918	0.861581
C493	C	0.529840	-0.000068	0.099401
C494	C	0.779840	0.249932	0.349401
C495	C	1.029840	0.499932	0.599401
C496	C	1.279840	0.749932	0.849401
C497	C	0.529332	-0.000066	0.149813
C498	C	0.779332	0.249934	0.399813
C499	C	1.029332	0.499934	0.649813
C500	C	1.279332	0.749934	0.899813
C501	C	0.573163	-0.000068	0.181111
C502	C	0.823163	0.249932	0.431111
C503	C	1.073163	0.499932	0.681111
C504	C	1.323163	0.749932	0.931111
O505	O	0.491061	-0.000070	0.224392
O506	O	0.741061	0.249930	0.474392
O507	O	0.991061	0.499930	0.724392
O508	O	1.241061	0.749930	0.974392
O509	O	0.654175	-0.000067	0.246972
O510	O	0.904175	0.249933	0.496972
O511	O	1.154175	0.499933	0.746972
O512	O	1.404175	0.749933	0.996972
C513	C	0.614374	-0.000060	0.469517
C514	C	0.864374	0.249940	0.719517
C515	C	1.114374	0.499940	0.969517
C516	C	1.364374	0.749940	1.219517
C517	C	0.570039	-0.000051	0.488630
C518	C	0.820039	0.249949	0.738630
C519	C	1.070039	0.499949	0.988630
C520	C	1.320039	0.749949	1.238630
C521	C	0.526215	-0.000045	0.457330
C522	C	0.776215	0.249955	0.707330
C523	C	1.026215	0.499955	0.957330
C524	C	1.276215	0.749955	1.207330
C525	C	0.569526	-0.000052	0.539044
C526	C	0.819526	0.249948	0.789044
C527	C	1.069526	0.499948	1.039044
C528	C	1.319526	0.749948	1.289044
C529	C	0.613350	-0.000058	0.570343
C530	C	0.863350	0.249942	0.820343
C531	C	1.113350	0.499942	1.070343
C532	C	1.363350	0.749942	1.320343
C533	C	0.657686	-0.000063	0.551228
C534	C	0.907686	0.249937	0.801228
C535	C	1.157686	0.499937	1.051228
C536	C	1.407686	0.749937	1.301228
C537	C	0.658198	-0.000066	0.500816
C538	C	0.908198	0.249934	0.750816
C539	C	1.158198	0.499934	1.000816
C540	C	1.408198	0.749934	1.250816
C541	C	0.481879	-0.000041	0.476445
C542	C	0.731879	0.249959	0.726445
C543	C	0.981879	0.499959	0.976445
C544	C	1.231879	0.749959	1.226445
C545	C	0.481371	-0.000038	0.526858
C546	C	0.731371	0.249962	0.776858
C547	C	0.981371	0.499962	1.026858
C548	C	1.231371	0.749962	1.276858
C549	C	0.525194	-0.000044	0.558157
C550	C	0.775194	0.249956	0.808157
C551	C	1.025194	0.499956	1.058157
C552	C	1.275194	0.749956	1.308157
C553	C	0.566354	-0.000048	0.849818
C554	C	0.816354	0.249952	1.099818
C555	C	1.066354	0.499952	1.349818
C556	C	1.316354	0.749952	1.599818
C557	C	0.566911	-0.000058	0.796164
C558	C	0.816911	0.249942	1.046164
C559	C	1.066911	0.499942	1.296164
C560	C	1.316911	0.749942	1.546164
H561	H	0.100487	0.130130	-0.062063
H562	H	0.350487	0.380130	0.187937
H563	H	0.600487	0.630130	0.437937
H564	H	0.850487	0.880130	0.687937
Br565	Br	0.469157	-0.000064	0.175752
Br566	Br	0.719157	0.249936	0.425752
Br567	Br	0.969157	0.499936	0.675752
Br568	Br	1.219157	0.749936	0.925752
Br569	Br	0.459360	-0.517265	-0.172914
Br570	Br	0.709360	-0.267265	0.077086
Br571	Br	0.959360	-0.017265	0.327086
Br572	Br	1.209360	0.232735	0.577086
Br573	Br	0.681708	-0.517220	0.049379
Br574	Br	0.931708	-0.267220	0.299379
Br575	Br	1.181708	-0.017220	0.549379
Br576	Br	1.431708	0.232780	0.799379
H577	H	0.191937	0.130130	-0.062997
H578	H	0.441937	0.380130	0.187003
H579	H	0.691937	0.630130	0.437003
H580	H	0.941937	0.880130	0.687003
H581	H	0.494160	-0.000065	0.073908
H582	H	0.744160	0.249935	0.323908
H583	H	0.994160	0.499935	0.573908
H584	H	1.244160	0.749935	0.823908
Br585	Br	0.437448	-0.109081	-0.065540
Br586	Br	0.687448	0.140919	0.184460
Br587	Br	0.937448	0.390919	0.434460
Br588	Br	1.187448	0.640919	0.684460
H589	H	0.332355	0.083882	-0.064461
H590	H	0.582355	0.333882	0.185539
H591	H	0.832355	0.583882	0.435539
H592	H	1.082355	0.833882	0.685539
Br593	Br	0.492436	-0.111289	-0.139808
Br594	Br	0.742436	0.138711	0.110192
Br595	Br	0.992436	0.388711	0.360192
Br596	Br	1.242436	0.638711	0.610192
Br597	Br	0.648562	-0.111269	0.016254
Br598	Br	0.898562	0.138731	0.266254
Br599	Br	1.148562	0.388731	0.516254
Br600	Br	1.398562	0.638731	0.766254
H601	H	0.040689	0.130120	-0.061459
H602	H	0.290689	0.380120	0.188541
H603	H	0.540689	0.630120	0.438541
H604	H	0.790689	0.880120	0.688541
Br605	Br	0.648569	-0.237157	0.016265
Br606	Br	0.898569	0.012843	0.266265
Br607	Br	1.148569	0.262843	0.516265
Br608	Br	1.398569	0.512843	0.766265
Br609	Br	0.459345	-0.357011	-0.172906
Br610	Br	0.709345	-0.107011	0.077094
Br611	Br	0.959345	0.142989	0.327094
Br612	Br	1.209345	0.392989	0.577094
Br613	Br	0.678182	-0.000096	0.085647
Br614	Br	0.928182	0.249904	0.335647
Br615	Br	1.178182	0.499904	0.585647
Br616	Br	1.428182	0.749904	0.835647
H617	H	0.653187	-0.000077	0.187475
H618	H	0.903187	0.249923	0.437475
H619	H	1.153187	0.499923	0.687475
H620	H	1.403187	0.749923	0.937475
H621	H	0.630671	-0.874322	-0.001717
H622	H	0.880671	-0.624322	0.248283
H623	H	1.130671	-0.374322	0.498283
H624	H	1.380671	-0.124322	0.748283
Br625	Br	0.422398	-0.000030	0.433975
Br626	Br	0.672398	0.249970	0.683975
Br627	Br	0.922398	0.499970	0.933975
Br628	Br	1.172398	0.749970	1.183975
H629	H	0.445262	-0.000034	0.542414
H630	H	0.695262	0.249966	0.792414
H631	H	0.945262	0.499966	1.042414
H632	H	1.195262	0.749966	1.292414
Br633	Br	0.719912	-0.000075	0.323651
Br634	Br	0.969912	0.249925	0.573651
Br635	Br	1.219912	0.499925	0.823651
Br636	Br	1.469912	0.749925	1.073651
H637	H	0.477333	-0.468412	-0.154939
H638	H	0.727333	-0.218412	0.095061
H639	H	0.977333	0.031588	0.345061
H640	H	1.227333	0.281588	0.595061
H641	H	0.694303	-0.000074	0.485260
H642	H	0.944303	0.249926	0.735260
H643	H	1.194303	0.499926	0.985260
H644	H	1.444303	0.749926	1.235260
Br645	Br	0.492504	-0.762960	-0.139811
Br646	Br	0.742504	-0.512960	0.110189
Br647	Br	0.992504	-0.262960	0.360189
Br648	Br	1.242504	-0.012960	0.610189
Br649	Br	0.718705	-0.000080	0.442462
Br650	Br	0.968705	0.249920	0.692462
Br651	Br	1.218705	0.499920	0.942462
Br652	Br	1.468705	0.749920	1.192462
H653	H	0.446792	-0.000026	0.391168
H654	H	0.696792	0.249974	0.641168
H655	H	0.946792	0.499974	0.891168
H656	H	1.196792	0.749974	1.141168
Br657	Br	0.648641	-0.762912	0.016258
Br658	Br	0.898641	-0.512912	0.266258
Br659	Br	1.148641	-0.262912	0.516258
Br660	Br	1.398641	-0.012912	0.766258
H661	H	0.447724	-0.000026	0.299717
H662	H	0.697724	0.249974	0.549717
H663	H	0.947724	0.499974	0.799717
H664	H	1.197724	0.749974	1.049717
H665	H	-0.191235	0.083862	-0.059092
H666	H	0.058765	0.333862	0.190908
H667	H	0.308765	0.583862	0.440908
H668	H	0.558765	0.833862	0.690908
Br669	Br	0.681716	-0.643109	0.049381
Br670	Br	0.931716	-0.393109	0.299381
Br671	Br	1.181716	-0.143109	0.549381
Br672	Br	1.431716	0.106891	0.799381
H673	H	-0.191276	-0.083996	-0.059099
H674	H	0.058724	0.166004	0.190901
H675	H	0.308724	0.416004	0.440901
H676	H	0.558724	0.666004	0.690901
H677	H	0.663713	-0.371477	0.031394
H678	H	0.913713	-0.121477	0.281394
H679	H	1.163713	0.128523	0.531394
H680	H	1.413713	0.378523	0.781394
Br681	Br	-0.064533	-0.155354	-0.060385
Br682	Br	0.185467	0.094646	0.189615
Br683	Br	0.435467	0.344646	0.439615
Br684	Br	0.685467	0.594646	0.689615
Br685	Br	0.717160	-0.000075	0.593716
Br686	Br	0.967160	0.249925	0.843716
Br687	Br	1.217160	0.499925	1.093716
Br688	Br	1.467160	0.749925	1.343716
H689	H	0.663723	-0.468368	0.031394
H690	H	0.913723	-0.218368	0.281394
H691	H	1.163723	0.031632	0.531394
H692	H	1.413723	0.281632	0.781394
Br693	Br	0.492535	-0.888848	-0.139816
Br694	Br	0.742535	-0.638848	0.110184
Br695	Br	0.992535	-0.388848	0.360184
Br696	Br	1.242535	-0.138848	0.610184
H697	H	0.477356	-0.628647	-0.154941
H698	H	0.727356	-0.378647	0.095059
H699	H	0.977356	-0.128647	0.345059
H700	H	1.227356	0.121353	0.595059
Br701	Br	0.437515	0.108995	-0.065531
Br702	Br	0.687515	0.358995	0.184469
Br703	Br	0.937515	0.608995	0.434469
Br704	Br	1.187515	0.858995	0.684469
Br705	Br	0.464115	-0.000036	0.671980
Br706	Br	0.714115	0.249964	0.921980
Br707	Br	0.964115	0.499964	1.171980
Br708	Br	1.214115	0.749964	1.421980
H709	H	0.332321	-0.083977	-0.064455
H710	H	0.582321	0.166023	0.185545
H711	H	0.832321	0.416023	0.435545
H712	H	1.082321	0.666023	0.685545
H713	H	0.191854	-0.130238	-0.063013
H714	H	0.441854	0.119762	0.186987
H715	H	0.691854	0.369762	0.436987
H716	H	0.941854	0.619762	0.686987
Br717	Br	0.671939	-0.000080	0.700702
Br718	Br	0.921939	0.249920	0.950702
Br719	Br	1.171939	0.499920	1.200702
Br720	Br	1.421939	0.749920	1.450702
Br721	Br	0.670725	-0.000070	0.819536
Br722	Br	0.920725	0.249930	1.069536
Br723	Br	1.170725	0.499930	1.319536
Br724	Br	1.420725	0.749930	1.569536
H725	H	-0.282686	0.083856	-0.058167
H726	H	-0.032686	0.333856	0.191833
H727	H	0.217314	0.583856	0.441833
H728	H	0.467314	0.833856	0.691833
H729	H	-0.050759	0.130118	-0.060524
H730	H	0.199241	0.380118	0.189476
H731	H	0.449241	0.630118	0.439476
H732	H	0.699241	0.880118	0.689476
H733	H	0.486982	-0.000053	0.780421
H734	H	0.736982	0.249947	1.030421
H735	H	0.986982	0.499947	1.280421
H736	H	1.236982	0.749947	1.530421
H737	H	-0.282741	-0.083994	-0.058161
H738	H	-0.032741	0.166006	0.191839
H739	H	0.217259	0.416006	0.441839
H740	H	0.467259	0.666006	0.691839
Br741	Br	0.054295	-0.155359	-0.061604
Br742	Br	0.304295	0.094641	0.188396
Br743	Br	0.554295	0.344641	0.438396
Br744	Br	0.804295	0.594641	0.688396
Br745	Br	0.492449	-0.237196	-0.139817
Br746	Br	0.742449	0.012804	0.110183
Br747	Br	0.992449	0.262804	0.360183
Br748	Br	1.242449	0.512804	0.610183
H749	H	0.100408	-0.130242	-0.062074
H750	H	0.350408	0.119758	0.187926
H751	H	0.600408	0.369758	0.437926
H752	H	0.850408	0.619758	0.687926
