data_functionalizedCrystal
_audit_creation_method	'MofGen! by Chris Wilmer'
_symmetry_space_group_name_H-M	'P1'
_symmetry_Int_Tables_number	1
_symmetry_cell_setting	triclinic
loop_
_symmetry_equiv_pos_as_xyz
  x,y,z
_cell_length_a	19.805404
_cell_length_b	25.639243
_cell_length_c	19.805399
_cell_angle_alpha	89.978810
_cell_angle_beta	89.972890
_cell_angle_gamma	90.032317
loop_
_atom_site_label
_atom_site_type_symbol
_atom_site_fract_x
_atom_site_fract_y
_atom_site_fract_z
Zn1	Zn	-0.269430	0.799285	-0.382751
Zn2	Zn	0.230570	1.299285	0.117249
Zn3	Zn	-0.382618	0.799214	-0.269564
Zn4	Zn	0.117382	1.299214	0.230436
Zn5	Zn	-0.269454	0.711853	-0.269572
Zn6	Zn	0.230546	1.211853	0.230428
Zn7	Zn	-0.382587	0.711820	-0.382707
Zn8	Zn	0.117413	1.211820	0.117293
O9	O	-0.326022	0.755543	-0.326149
O10	O	0.173978	1.255543	0.173851
O11	O	-0.284447	0.872441	-0.367751
O12	O	0.215553	1.372441	0.132249
O13	O	-0.367629	0.787610	-0.174848
O14	O	0.132371	1.287610	0.325152
O15	O	-0.174734	0.723495	-0.284608
O16	O	0.325266	1.223495	0.215392
O17	O	-0.367606	0.872389	-0.284593
O18	O	0.132394	1.372389	0.215407
O19	O	-0.174716	0.787731	-0.367760
O20	O	0.325284	1.287731	0.132240
O21	O	-0.284488	0.723426	-0.174855
O22	O	0.215512	1.223426	0.325145
O23	O	-0.284458	0.638684	-0.284565
O24	O	0.215542	1.138684	0.215435
O25	O	-0.367554	0.723439	-0.477430
O26	O	0.132446	1.223439	0.022570
O27	O	-0.367577	0.638660	-0.367685
O28	O	0.132423	1.138660	0.132315
O29	O	-0.284417	0.787698	-0.477462
O30	O	0.215583	1.287698	0.022538
O31	O	-0.477331	0.787578	-0.284551
O32	O	0.022669	1.287578	0.215449
O33	O	-0.477308	0.723370	-0.367677
O34	O	0.022692	1.223370	0.132323
C35	C	-0.326018	0.619701	-0.326122
C36	C	0.173982	1.119701	0.173878
C37	C	-0.326032	0.561587	-0.326126
C38	C	0.173968	1.061587	0.173874
C39	C	-0.282789	0.201245	-0.369521
C40	C	0.217211	0.701245	0.130479
C41	C	-0.282789	0.146641	-0.369526
C42	C	0.217211	0.646641	0.130474
O43	O	-0.246010	0.118422	-0.406388
O44	O	0.253990	0.618422	0.093612
N45	N	-0.326020	0.119304	-0.326167
N46	N	0.173980	0.619304	0.173833
C47	C	-0.369250	0.146575	-0.282797
C48	C	0.130750	0.646575	0.217203
O49	O	-0.406022	0.118309	-0.245917
O50	O	0.093978	0.618309	0.254083
C51	C	-0.369247	0.201178	-0.282790
C52	C	0.130753	0.701178	0.217210
C53	C	-0.326017	0.228512	-0.326156
C54	C	0.173983	0.728512	0.173844
C55	C	-0.239563	0.228579	-0.412883
C56	C	0.260437	0.728579	0.087117
C57	C	-0.239565	0.283179	-0.412880
C58	C	0.260435	0.783179	0.087120
C59	C	-0.282793	0.310446	-0.369514
C60	C	0.217207	0.810446	0.130486
C61	C	-0.326019	0.283112	-0.326152
C62	C	0.173981	0.783112	0.173848
C63	C	-0.412473	0.228448	-0.239417
C64	C	0.087527	0.728448	0.260583
C65	C	-0.412466	0.283055	-0.239413
C66	C	0.087534	0.783055	0.260587
C67	C	-0.369236	0.310389	-0.282779
C68	C	0.130764	0.810389	0.217221
C69	C	-0.369249	0.364980	-0.282784
C70	C	0.130751	0.864980	0.217216
N71	N	-0.326017	0.392316	-0.326142
N72	N	0.173983	0.892316	0.173858
C73	C	-0.282789	0.365050	-0.369507
C74	C	0.217211	0.865050	0.130493
C75	C	-0.369253	0.031904	-0.282814
C76	C	0.130747	0.531904	0.217186
C77	C	-0.369260	-0.022698	-0.282824
C78	C	0.130740	0.477302	0.217176
C79	C	-0.282798	-0.022628	-0.369552
C80	C	0.217202	0.477372	0.130448
C81	C	-0.282795	0.031975	-0.369545
C82	C	0.217205	0.531975	0.130455
C83	C	-0.326022	0.059241	-0.326173
C84	C	0.173978	0.559241	0.173827
C85	C	-0.282796	0.479715	-0.369497
C86	C	0.217204	0.979715	0.130503
C87	C	-0.282804	0.534320	-0.369492
C88	C	0.217196	1.034320	0.130508
C89	C	-0.369264	0.534246	-0.282762
C90	C	0.130736	1.034246	0.217238
C91	C	-0.369259	0.479645	-0.282769
C92	C	0.130741	0.979645	0.217231
C93	C	-0.326020	0.452381	-0.326139
C94	C	0.173980	0.952381	0.173861
O95	O	-0.406007	0.393233	-0.245938
O96	O	0.093993	0.893233	0.254062
O97	O	-0.246018	0.393322	-0.406374
O98	O	0.253982	0.893322	0.093626
C99	C	-0.501878	0.755477	-0.326123
C100	C	-0.001878	1.255477	0.173877
C101	C	-0.577110	0.755496	-0.326134
C102	C	-0.077110	1.255496	0.173866
C103	C	-1.038890	0.789105	-0.282960
C104	C	-0.538890	1.289105	0.217040
C105	C	-0.968202	0.789080	-0.282946
C106	C	-0.468202	1.289080	0.217054
C107	C	-0.932872	0.755612	-0.326185
C108	C	-0.432872	1.255612	0.173815
C109	C	-0.968234	0.722162	-0.369434
C110	C	-0.468234	1.222162	0.130566
C111	C	-1.038921	0.722184	-0.369443
C112	C	-0.538921	1.222184	0.130557
C113	C	-0.683161	0.722071	-0.369397
C114	C	-0.183161	1.222071	0.130603
C115	C	-0.612469	0.722052	-0.369385
C116	C	-0.112469	1.222052	0.130615
C117	C	-0.612442	0.788967	-0.282900
C118	C	-0.112442	1.288967	0.217100
C119	C	-0.683129	0.788989	-0.282909
C120	C	-0.183129	1.288989	0.217091
C121	C	-0.718485	0.755538	-0.326156
C122	C	-0.218485	1.255538	0.173844
C123	C	-0.795133	0.755564	-0.326169
C124	C	-0.295133	1.255564	0.173831
C125	C	-0.856225	0.755588	-0.326176
C126	C	-0.356225	1.255588	0.173824
C127	C	-0.149479	0.755624	-0.326190
C128	C	0.350521	1.255624	0.173810
C129	C	-0.074247	0.755659	-0.326207
C130	C	0.425753	1.255659	0.173793
C131	C	-0.325980	0.755573	-0.502691
C132	C	0.174020	1.255573	-0.002691
C133	C	-0.325961	0.755585	-0.577923
C134	C	0.174039	1.255585	-0.077923
C135	C	-0.326027	0.891916	-0.326176
C136	C	0.173973	1.391916	0.173824
C137	C	-0.326029	0.950030	-0.326188
C138	C	0.173971	1.450030	0.173812
C139	C	-0.282670	0.789046	-0.613285
C140	C	0.217330	1.289046	-0.113285
C141	C	-0.282650	0.789051	-0.683974
C142	C	0.217350	1.289051	-0.183974
C143	C	-0.325926	0.755598	-0.719299
C144	C	0.174074	1.255598	-0.219299
C145	C	-0.369219	0.722134	-0.683932
C146	C	0.130781	1.222134	-0.183932
C147	C	-0.369235	0.722126	-0.613245
C148	C	0.130765	1.222126	-0.113245
C149	C	-0.369156	0.722163	-0.969006
C150	C	0.130844	1.222163	-0.469006
C151	C	-0.369139	0.722174	-1.039698
C152	C	0.130861	1.222174	-0.539698
C153	C	-0.282572	0.789089	-1.039735
C154	C	0.217428	1.289089	-0.539735
C155	C	-0.282587	0.789081	-0.969047
C156	C	0.217413	1.289081	-0.469047
C157	C	-0.325878	0.755615	-0.933687
C158	C	0.174122	1.255615	-0.433687
C159	C	-0.325898	0.755609	-0.857038
C160	C	0.174102	1.255609	-0.357038
C161	C	-0.325910	0.755607	-0.795946
C162	C	0.174090	1.255607	-0.295946
C163	C	-0.326016	0.755544	-0.150293
C164	C	0.173984	1.255544	0.349707
C165	C	-0.325843	0.755633	-0.075061
C166	C	0.174157	1.255633	0.424939
H167	H	-0.247585	0.457523	-0.404811
H168	H	0.252415	0.957523	0.095189
H169	H	-0.247601	0.556573	-0.404808
H170	H	0.252399	1.056573	0.095192
H171	H	-0.939464	0.694909	-0.404637
H172	H	-0.439464	1.194909	0.095363
C173	C	-0.460020	0.198393	-0.191707
C174	C	0.039980	0.698393	0.308293
H175	H	-0.485753	0.222459	-0.165877
H176	H	0.014247	0.722459	0.334123
H177	H	-0.489553	0.177085	-0.217535
H178	H	0.010447	0.677085	0.282465
H179	H	-0.434082	0.177097	-0.162261
H180	H	0.065918	0.677097	0.337739
C181	C	-0.573552	0.825761	-0.235323
C182	C	-0.073552	1.325761	0.264677
H183	H	-0.604718	0.845700	-0.209580
H184	H	-0.104718	1.345700	0.290420
H185	H	-0.546020	0.805769	-0.205800
H186	H	-0.046020	1.305769	0.294200
H187	H	-0.545933	0.848523	-0.261244
H188	H	-0.045933	1.348523	0.238756
H189	H	-0.583704	0.694796	-0.404596
H190	H	-0.083704	1.194796	0.095404
H191	H	-0.939415	0.816314	-0.247731
H192	H	-0.439415	1.316314	0.252269
C193	C	-0.721988	0.825803	-0.235346
C194	C	-0.221988	1.325803	0.264654
H195	H	-0.690806	0.845716	-0.209581
H196	H	-0.190806	1.345716	0.290419
H197	H	-0.749521	0.848580	-0.261266
H198	H	-0.249521	1.348580	0.238734
H199	H	-0.749604	0.805819	-0.205832
H200	H	-0.249604	1.305819	0.294168
H201	H	-0.204358	0.206384	-0.448197
H202	H	0.295642	0.706384	0.051803
H203	H	-0.711939	0.694829	-0.404605
H204	H	-0.211939	1.194829	0.095395
C205	C	-0.235242	-0.052626	-0.417252
C206	C	0.264758	0.447374	0.082748
H207	H	-0.209496	-0.028530	-0.443081
H208	H	0.290504	0.471470	0.056919
H209	H	-0.205722	-0.073924	-0.391411
H210	H	0.294278	0.426076	0.108589
H211	H	-0.261179	-0.073928	-0.446700
H212	H	0.238821	0.426072	0.053300
C213	C	-1.077814	0.685396	-0.417018
C214	C	-0.577814	1.185396	0.082982
H215	H	-1.046650	0.665464	-0.442773
H216	H	-0.546650	1.165464	0.057227
H217	H	-1.105434	0.662636	-0.391103
H218	H	-0.605434	1.162636	0.108897
H219	H	-1.105345	0.705395	-0.446541
H220	H	-0.605345	1.205395	0.053459
H221	H	-0.404460	0.054101	-0.247497
H222	H	0.095540	0.554101	0.252503
C223	C	-0.460023	0.313044	-0.191708
C224	C	0.039977	0.813044	0.308292
H225	H	-0.485770	0.288942	-0.165890
H226	H	0.014230	0.788942	0.334110
H227	H	-0.434098	0.334349	-0.162261
H228	H	0.065902	0.834349	0.337739
H229	H	-0.489552	0.334337	-0.217552
H230	H	0.010448	0.834337	0.282448
H231	H	-0.404470	-0.044949	-0.247519
H232	H	0.095530	0.455051	0.252481
C233	C	-0.235063	0.825843	-0.574434
C234	C	0.264937	1.325843	-0.074434
H235	H	-0.209272	0.845767	-0.605621
H236	H	0.290728	1.345767	-0.105621
H237	H	-0.260957	0.848610	-0.546857
H238	H	0.239043	1.348610	-0.046857
H239	H	-0.205575	0.805847	-0.546863
H240	H	0.294425	1.305847	-0.046863
C241	C	-0.235033	0.825861	-0.722869
C242	C	0.264967	1.325861	-0.222869
H243	H	-0.209269	0.845788	-0.691707
H244	H	0.290731	1.345788	-0.191707
H245	H	-0.205532	0.805880	-0.750446
H246	H	0.294468	1.305880	-0.250446
H247	H	-0.260926	0.848633	-0.750444
H248	H	0.239074	1.348633	-0.250444
C249	C	-0.234982	0.825878	-0.930193
C250	C	0.265018	1.325878	-0.430193
H251	H	-0.209191	0.845803	-0.961378
H252	H	0.290809	1.345803	-0.461378
H253	H	-0.260878	0.848644	-0.902616
H254	H	0.239122	1.348644	-0.402616
H255	H	-0.205495	0.805882	-0.902622
H256	H	0.294505	1.305882	-0.402622
C257	C	-0.416807	0.564246	-0.235060
C258	C	0.083193	1.064246	0.264940
H259	H	-0.410607	0.600680	-0.241267
H260	H	0.089393	1.100680	0.258733
H261	H	-0.462300	0.555286	-0.244876
H262	H	0.037700	1.055286	0.255124
H263	H	-0.406832	0.555287	-0.189600
H264	H	0.093168	1.055287	0.310400
C265	C	-0.234948	0.825898	-1.078633
C266	C	0.265052	1.325898	-0.578633
H267	H	-0.241129	0.821109	-1.125791
H268	H	0.258871	1.321109	-0.625791
H269	H	-0.244860	0.861021	-1.067056
H270	H	0.255140	1.361021	-0.567056
H271	H	-0.189470	0.818264	-1.067055
H272	H	0.310530	1.318264	-0.567055
C273	C	-0.416739	0.685370	-1.078555
C274	C	0.083261	1.185370	-0.578555
H275	H	-0.442519	0.665434	-1.047372
H276	H	0.057481	1.165434	-0.547372
H277	H	-0.446227	0.705358	-1.106128
H278	H	0.053773	1.205358	-0.606128
H279	H	-0.390831	0.662606	-1.106129
H280	H	0.109169	1.162606	-0.606129
C281	C	-1.077747	0.825920	-0.235396
C282	C	-0.577747	1.325920	0.264604
H283	H	-1.046563	0.845831	-0.209633
H284	H	-0.546563	1.345831	0.290367
H285	H	-1.105280	0.848698	-0.261316
H286	H	-0.605280	1.348698	0.238684
H287	H	-1.105363	0.805937	-0.205881
H288	H	-0.605363	1.305937	0.294119
C289	C	-0.416760	0.685341	-0.930118
C290	C	0.083240	1.185341	-0.430118
H291	H	-0.442529	0.665420	-0.961282
H292	H	0.057471	1.165420	-0.461282
H293	H	-0.390858	0.662572	-0.902552
H294	H	0.109142	1.162572	-0.402552
H295	H	-0.446268	0.705314	-0.902532
H296	H	0.053732	1.205314	-0.402532
H297	H	-0.204362	0.305430	-0.448192
H298	H	0.295638	0.805430	0.051808
H299	H	-0.404453	0.694893	-0.712700
H300	H	0.095547	1.194893	-0.212700
C301	C	-0.235238	0.062037	-0.417242
C302	C	0.264762	0.562037	0.082758
H303	H	-0.209494	0.037973	-0.443066
H304	H	0.290506	0.537973	0.056934
H305	H	-0.261163	0.083340	-0.446686
H306	H	0.238837	0.583340	0.053314
H307	H	-0.205706	0.083338	-0.391397
H308	H	0.294294	0.583338	0.108603
C309	C	-0.416872	0.685332	-0.574347
C310	C	0.083128	1.185332	-0.074347
H311	H	-0.442652	0.665416	-0.605508
H312	H	0.057348	1.165416	-0.105508
H313	H	-0.391000	0.662557	-0.546763
H314	H	0.109000	1.162557	-0.046763
H315	H	-0.446368	0.705330	-0.546779
H316	H	0.053632	1.205330	-0.046779
H317	H	-0.404468	0.457389	-0.247465
H318	H	0.095532	0.957389	0.252535
