data_functionalizedCrystal
_audit_creation_method	'MofGen! by Chris Wilmer'
_symmetry_space_group_name_H-M	'P1'
_symmetry_Int_Tables_number	1
_symmetry_cell_setting	triclinic
loop_
_symmetry_equiv_pos_as_xyz
  x,y,z
_cell_length_a	11.792241
_cell_length_b	10.654583
_cell_length_c	9.130313
_cell_angle_alpha	89.994699
_cell_angle_beta	90.002721
_cell_angle_gamma	95.654027
loop_
_atom_site_label
_atom_site_type_symbol
_atom_site_fract_x
_atom_site_fract_y
_atom_site_fract_z
O1	O	0.159597	-1.667357	0.121994
O2	O	0.659597	-1.167357	0.621994
O3	O	0.174746	-1.301841	0.121954
O4	O	0.674746	-0.801841	0.621954
O5	O	0.002022	-1.493469	0.121965
O6	O	0.502022	-0.993469	0.621965
O7	O	0.332321	-1.475729	0.121983
O8	O	0.832321	-0.975729	0.621983
O9	O	0.002023	-1.493469	-0.121634
O10	O	0.502023	-0.993469	0.378366
O11	O	0.174746	-1.301841	-0.121645
O12	O	0.674746	-0.801841	0.378355
O13	O	0.159597	-1.667357	-0.121605
O14	O	0.659597	-1.167357	0.378395
Cu15	Cu	0.167172	-1.484599	-0.143867
Cu16	Cu	0.667172	-0.984599	0.356133
Cu17	Cu	0.167171	-1.484599	0.144217
Cu18	Cu	0.667171	-0.984599	0.644217
O19	O	0.332321	-1.475729	-0.121616
O20	O	0.832321	-0.975729	0.378384
C21	C	0.173626	-1.255047	0.000150
C22	C	0.673626	-0.755047	0.500150
C23	C	0.170274	-1.115615	0.000134
C24	C	0.670274	-0.615615	0.500134
C25	C	0.168711	-1.050090	-0.132644
C26	C	0.668711	-0.550090	0.367356
C27	C	0.165571	-0.919078	-0.132627
C28	C	0.665571	-0.419078	0.367373
C29	C	0.165562	-0.919127	0.132958
C30	C	0.665562	-0.419127	0.632958
C31	C	0.168694	-1.050138	0.132939
C32	C	0.668694	-0.550138	0.632939
C33	C	0.168721	-1.050059	-0.285977
C34	C	0.668721	-0.550059	0.214023
C35	C	0.165581	-0.919047	-0.285961
C36	C	0.665581	-0.419047	0.214039
C37	C	-0.040271	-1.492355	0.000166
C38	C	0.459729	-0.992355	0.500166
C39	C	-0.166293	-1.489019	0.000167
C40	C	0.333707	-0.989019	0.500167
C41	C	-0.397020	-1.482886	0.000190
C42	C	0.102980	-0.982886	0.500190
C43	C	-0.268627	-1.486294	0.000178
C44	C	0.231373	-0.986294	0.500178
C45	C	0.374614	-1.476843	0.000187
C46	C	0.874614	-0.976843	0.500187
C47	C	0.500636	-1.480179	0.000195
C48	C	1.000636	-0.980179	0.500195
C49	C	0.160700	-0.714154	0.000188
C50	C	0.660700	-0.214154	0.500188
C51	C	0.164002	-0.853592	0.000169
C52	C	0.664002	-0.353592	0.500169
N53	N	0.167171	-1.484609	-0.346490
N54	N	0.667171	-0.984609	0.153510
C55	C	0.236652	-1.561233	-0.576493
C56	C	0.736652	-1.061233	-0.076493
C57	C	0.236659	-1.561235	-0.423156
C58	C	0.736659	-1.061235	0.076844
C59	C	0.097680	-1.407966	-0.423169
C60	C	0.597680	-0.907966	0.076831
C61	C	0.097679	-1.407959	-0.576503
C62	C	0.597679	-0.907959	-0.076503
C63	C	0.316887	-1.649726	-0.576484
C64	C	0.816887	-1.149726	-0.076484
C65	C	0.316894	-1.649728	-0.423147
C66	C	0.816894	-1.149728	0.076853
N67	N	0.167163	-1.484599	0.346839
N68	N	0.667163	-0.984599	0.846839
H69	H	0.169949	-1.103486	0.241060
H70	H	0.669949	-0.603486	0.741060
H71	H	0.164276	-0.865800	0.241083
H72	H	0.664276	-0.365800	0.741083
Cl73	Cl	0.286679	-0.847234	-0.376836
Cl74	Cl	0.786679	-0.347234	0.123164
H75	H	0.281220	-1.744403	-0.624042
H76	H	0.781220	-1.244403	-0.124042
H77	H	0.090284	-1.096541	-0.344862
H78	H	0.590284	-0.596541	0.155138
H79	H	0.041105	-1.345544	-0.638920
H80	H	0.541105	-0.845544	-0.138920
H81	H	0.406390	-1.618545	-0.618092
H82	H	0.906390	-1.118545	-0.118092
Cl83	Cl	0.296525	-1.095369	-0.359422
Cl84	Cl	0.796525	-0.595369	0.140578
H85	H	0.082801	-0.889694	-0.333547
H86	H	0.582801	-0.389694	0.166453
H87	H	0.041110	-1.345567	-0.360735
H88	H	0.541110	-0.845567	0.139265
Cl89	Cl	0.448795	-1.588200	-0.349709
Cl90	Cl	0.948795	-1.088200	0.150291
H91	H	0.289007	-1.748861	-0.381529
H92	H	0.789007	-1.248861	0.118471
