data_functionalizedCrystal
_audit_creation_method	'MofGen! by Chris Wilmer'
_symmetry_space_group_name_H-M	'P1'
_symmetry_Int_Tables_number	1
_symmetry_cell_setting	triclinic
loop_
_symmetry_equiv_pos_as_xyz
  x,y,z
_cell_length_a	17.699077
_cell_length_b	15.944493
_cell_length_c	16.776229
_cell_angle_alpha	89.999222
_cell_angle_beta	89.993415
_cell_angle_gamma	83.377810
loop_
_atom_site_label
_atom_site_type_symbol
_atom_site_fract_x
_atom_site_fract_y
_atom_site_fract_z
O1	O	1.004243	0.106201	-0.066267
O2	O	1.504243	0.606201	0.433733
O3	O	0.783885	0.120026	-0.066270
O4	O	1.283885	0.620026	0.433730
O5	O	0.900104	-0.009177	-0.066275
O6	O	1.400104	0.490823	0.433725
O7	O	0.888023	0.235405	-0.066262
O8	O	1.388023	0.735405	0.433738
O9	O	0.900089	-0.009185	0.066301
O10	O	1.400089	0.490815	0.566301
O11	O	0.783869	0.120018	0.066307
O12	O	1.283869	0.620018	0.566307
O13	O	1.004227	0.106193	0.066309
O14	O	1.504227	0.606193	0.566309
Zn15	Zn	0.894046	0.113104	0.087357
Zn16	Zn	1.394046	0.613104	0.587357
Zn17	Zn	0.894066	0.113115	-0.087318
Zn18	Zn	1.394066	0.613115	0.412682
O19	O	0.888008	0.235397	0.066314
O20	O	1.388008	0.735397	0.566314
C21	C	0.755679	0.119528	0.000018
C22	C	1.255679	0.619528	0.500018
C23	C	0.671659	0.118044	0.000016
C24	C	1.171659	0.618044	0.500016
C25	C	0.632182	0.117341	0.072285
C26	C	1.132182	0.617341	0.572285
C27	C	0.553237	0.115933	0.072285
C28	C	1.053237	0.615933	0.572285
C29	C	0.513770	0.115235	0.000017
C30	C	1.013770	0.615235	0.500017
C31	C	0.553253	0.115936	-0.072257
C32	C	1.053253	0.615936	0.427743
C33	C	0.632197	0.117338	-0.072257
C34	C	1.132197	0.617338	0.427743
C35	C	0.234881	0.110283	-0.072259
C36	C	0.734881	0.610283	0.427741
C37	C	0.155931	0.108885	-0.072253
C38	C	0.655931	0.608885	0.427747
C39	C	0.155921	0.108879	0.072284
C40	C	0.655921	0.608879	0.572284
C41	C	0.234865	0.110281	0.072284
C42	C	0.734865	0.610281	0.572284
C43	C	0.274342	0.110977	0.000010
C44	C	0.774342	0.610977	0.500010
C45	C	0.359943	0.112501	0.000010
C46	C	0.859943	0.612501	0.500010
C47	C	0.428170	0.113717	0.000016
C48	C	0.928170	0.613717	0.500016
C49	C	0.899603	-0.040475	0.000010
C50	C	1.399603	0.459525	0.500010
C51	C	0.898122	-0.133721	-0.000000
C52	C	1.398122	0.366279	0.500000
C53	C	0.966532	-0.369626	0.000015
C54	C	1.466532	0.130374	0.500015
C55	C	0.929649	-0.420112	-0.065352
C56	C	1.429649	0.079888	0.434648
C57	C	0.895379	-0.304436	0.000009
C58	C	1.395379	0.195564	0.500009
C59	C	0.929617	-0.420096	0.065358
C60	C	1.429617	0.079904	0.565358
C61	C	0.892735	-0.469340	0.000022
C62	C	1.392735	0.030660	0.500022
C63	C	0.858516	-0.353693	-0.065412
C64	C	1.358516	0.146307	0.434588
C65	C	0.858494	-0.353674	0.065357
C66	C	1.358494	0.146326	0.565357
C67	C	0.821559	-0.404126	-0.000026
C68	C	1.321559	0.095874	0.499974
C69	C	0.896905	-0.209439	0.000001
C70	C	1.396905	0.290561	0.500001
C71	C	0.891204	-0.564334	0.000025
C72	C	1.391204	-0.064334	0.500025
C73	C	1.032433	0.106691	0.000020
C74	C	1.532433	0.606691	0.500020
C75	C	1.116453	0.108175	0.000016
C76	C	1.616453	0.608175	0.500016
C77	C	0.888509	0.266694	0.000028
C78	C	1.388509	0.766694	0.500028
C79	C	0.889990	0.359940	0.000033
C80	C	1.389990	0.859940	0.500033
N81	N	0.894038	0.113097	0.206569
N82	N	1.394038	0.613097	0.706569
N83	N	0.894081	0.113116	-0.206529
N84	N	1.394081	0.613116	0.293471
C85	C	0.945515	0.055909	0.248283
C86	C	1.445515	0.555909	0.748283
C87	C	0.945519	0.055908	0.331735
C88	C	1.445519	0.555908	0.831735
C89	C	0.894049	0.113100	0.373471
C90	C	1.394049	0.613100	0.873471
C91	C	0.842566	0.170291	0.331751
C92	C	1.342566	0.670291	0.831751
C93	C	0.842559	0.170287	0.248300
C94	C	1.342559	0.670287	0.748300
C95	C	0.842593	0.170307	0.668298
C96	C	1.342593	0.670307	1.168298
C97	C	0.842606	0.170308	0.751755
C98	C	1.342606	0.670308	1.251755
C99	C	0.945554	0.055929	0.751733
C100	C	1.445554	0.555929	1.251733
C101	C	0.945547	0.055925	0.668283
C102	C	1.445547	0.555925	1.168283
C103	C	0.894061	0.113112	0.626569
C104	C	1.394061	0.613112	1.126569
C105	C	0.894056	0.113111	0.536081
C106	C	1.394056	0.613111	1.036081
C107	C	0.894057	0.113106	0.463958
C108	C	1.394057	0.613106	0.963958
H109	H	0.664309	0.117916	0.131134
H110	H	1.164309	0.617916	0.631134
H111	H	0.828491	-0.324806	-0.120734
H112	H	1.328491	0.175194	0.379266
N113	N	0.115609	0.108167	0.146119
N114	N	0.615609	0.608167	0.646119
N115	N	0.117435	0.167512	0.194508
N116	N	0.617435	0.667512	0.694508
H117	H	0.088967	0.167013	0.246654
H118	H	0.588967	0.667013	0.746654
N119	N	0.967354	-0.456522	-0.134668
N120	N	1.467354	0.043478	0.365332
N121	N	0.971737	-0.534408	-0.146044
N122	N	1.471737	-0.034408	0.353956
H123	H	0.998372	-0.560123	-0.194995
H124	H	1.498372	-0.060123	0.305005
N125	N	0.789989	0.228700	0.374393
N126	N	1.289989	0.728700	0.874393
N127	N	0.790001	0.228697	0.448901
N128	N	1.290001	0.728697	0.948901
H129	H	0.752869	0.269950	0.479017
H130	H	1.252869	0.769950	0.979017
H131	H	0.521113	0.115362	-0.131099
H132	H	1.021113	0.615362	0.368901
H133	H	1.027820	-0.354128	-0.000050
H134	H	1.527820	0.145872	0.499950
N135	N	0.790012	0.228726	0.794376
N136	N	1.290012	0.728726	1.294376
N137	N	0.720059	0.227663	0.785074
N138	N	1.220059	0.727663	1.285074
H139	H	0.682915	0.268918	0.815175
H140	H	1.182915	0.768918	1.315175
N141	N	0.789997	0.228723	0.625708
N142	N	1.289997	0.728723	1.125708
N143	N	0.744046	0.279780	0.662985
N144	N	1.244046	0.779780	1.162985
H145	H	0.706896	0.321039	0.632904
H146	H	1.206896	0.821039	1.132904
N147	N	0.789967	0.228705	0.205699
N148	N	1.289967	0.728705	0.705699
N149	N	0.744014	0.279765	0.242970
N150	N	1.244014	0.779765	0.742970
H151	H	0.706867	0.321024	0.212885
H152	H	1.206867	0.821024	0.712885
N153	N	0.744612	-0.423359	-0.000076
N154	N	1.244612	0.076641	0.499924
N155	N	0.701185	-0.398860	-0.056252
N156	N	1.201185	0.101140	0.443748
H157	H	0.646841	-0.412444	-0.056291
H158	H	1.146841	0.087556	0.443709
N159	N	0.275177	0.111009	0.146104
N160	N	0.775177	0.611009	0.646104
N161	N	0.259370	0.170038	0.194497
N162	N	0.759370	0.670038	0.694497
H163	H	0.287839	0.170551	0.246634
H164	H	0.787839	0.670551	0.746634
H165	H	0.521100	0.115346	0.131133
H166	H	1.021100	0.615346	0.631133
N167	N	0.998105	-0.002517	0.374333
N168	N	1.498105	0.497483	0.874333
N169	N	1.044058	-0.053575	0.337060
N170	N	1.544058	0.446425	0.837060
H171	H	1.081199	-0.094842	0.367144
H172	H	1.581199	0.405158	0.867144
H173	H	0.123799	0.108315	-0.131106
H174	H	0.623799	0.608315	0.368894
H175	H	0.267013	0.110848	-0.131108
H176	H	0.767013	0.610848	0.368892
H177	H	0.664338	0.117912	-0.131105
H178	H	1.164338	0.617912	0.368895
N179	N	0.820828	-0.317274	0.134692
N180	N	1.320828	0.182726	0.634692
N181	N	0.845095	-0.338734	0.202517
N182	N	1.345095	0.161266	0.702517
H183	H	0.818498	-0.313027	0.251492
H184	H	1.318498	0.186973	0.751492
H185	H	0.959674	-0.449094	0.120618
H186	H	1.459674	0.050906	0.620618
H187	H	0.987461	0.009356	0.634304
H188	H	1.487461	0.509356	1.134304
N189	N	0.998057	-0.002563	0.205667
N190	N	1.498057	0.497437	0.705667
N191	N	1.043984	-0.053654	0.242927
N192	N	1.543984	0.446346	0.742927
H193	H	1.081075	-0.094972	0.212832
H194	H	1.581075	0.405028	0.712832
N195	N	0.998138	-0.002487	0.794356
N196	N	1.498138	0.497513	1.294356
N197	N	0.998139	-0.002483	0.868865
N198	N	1.498139	0.497517	1.368865
H199	H	1.035276	-0.043737	0.898967
H200	H	1.535276	0.456263	1.398967
