data_functionalizedCrystal
_audit_creation_method	'MofGen! by Chris Wilmer'
_symmetry_space_group_name_H-M	'P1'
_symmetry_Int_Tables_number	1
_symmetry_cell_setting	triclinic
loop_
_symmetry_equiv_pos_as_xyz
  x,y,z
_cell_length_a	27.435584
_cell_length_b	27.434948
_cell_length_c	27.431174
_cell_angle_alpha	60.005483
_cell_angle_beta	60.011353
_cell_angle_gamma	59.993028
loop_
_atom_site_label
_atom_site_type_symbol
_atom_site_fract_x
_atom_site_fract_y
_atom_site_fract_z
O1	O	0.067437	-0.712144	0.595551
O2	O	0.025356	-0.554453	0.479848
O3	O	0.125206	-0.654236	0.479781
O4	O	-0.032412	-0.612361	0.595618
O5	O	0.158328	-0.621117	0.512835
O6	O	0.058479	-0.521333	0.512902
O7	O	0.100560	-0.679025	0.628605
Zn8	Zn	0.084778	-0.594921	0.576001
Zn9	Zn	0.041138	-0.638557	0.532452
O10	O	0.000710	-0.579241	0.628672
N11	N	0.114563	-0.565144	0.605726
N12	N	0.011358	-0.668338	0.502727
C13	C	0.156385	-0.523520	0.904506
C14	C	0.413419	-0.523497	0.647322
C15	C	0.156253	-0.523488	0.647384
C16	C	0.156238	-0.266354	0.647407
C17	C	0.197637	-0.390463	0.688753
C18	C	0.197646	-0.482126	0.688741
C19	C	0.220575	-0.459215	0.711654
C20	C	0.320555	-0.441991	0.659023
C21	C	0.383051	-0.462825	0.638179
C22	C	0.383069	-0.563942	0.676737
C23	C	0.320575	-0.543107	0.697583
C24	C	0.212704	-0.359206	0.627313
C25	C	0.191849	-0.296705	0.606496
C26	C	0.140866	-0.296722	0.708562
C27	C	0.161721	-0.359223	0.729379
C28	C	0.136200	-0.467030	0.703858
C29	C	0.115361	-0.487857	0.683021
C30	C	0.217408	-0.538877	0.631968
C31	C	0.238249	-0.518050	0.652796
C32	C	0.136259	-0.467047	0.811668
C33	C	0.115461	-0.487892	0.874167
C34	C	0.217537	-0.538923	0.874131
C35	C	0.238333	-0.518080	0.811631
C36	C	0.197693	-0.482140	0.780401
C37	C	0.289320	-0.482131	0.688723
C38	C	0.132699	-0.546027	0.973247
C39	C	0.482158	-0.545613	0.624075
C40	C	0.132521	-0.546006	0.624886
C41	C	0.132917	-0.197607	0.625310
C42	C	-0.098217	-0.686189	0.484419
C43	C	-0.006438	-0.686322	0.392891
C44	C	-0.006621	-0.777944	0.484592
C45	C	-0.006606	-0.686315	0.484649
C46	C	-0.029470	-0.709193	0.461638
N47	N	0.538410	-0.565162	0.605628
O48	O	0.742647	-0.575135	0.458625
O49	O	0.742821	-0.691181	0.616169
O50	O	0.742757	-0.690917	0.516248
O51	O	0.742711	-0.575399	0.558546
O52	O	0.643472	-0.657878	0.549405
O53	O	0.643536	-0.658142	0.649326
O54	O	0.643362	-0.542096	0.491782
Zn55	Zn	0.627685	-0.594873	0.575818
Zn56	Zn	0.758498	-0.638404	0.532133
O57	O	0.643426	-0.542360	0.591702
N58	N	0.847774	-0.668115	0.502317
N59	N	0.114542	-0.141354	0.605766
O60	O	-0.032397	0.062987	0.595660
O61	O	0.125155	0.062987	0.479633
O62	O	0.025219	0.062974	0.479910
O63	O	0.067539	0.063001	0.595383
O64	O	0.058343	-0.036320	0.513009
O65	O	0.158279	-0.036306	0.512732
O66	O	0.000728	-0.036306	0.628759
Zn67	Zn	0.084763	-0.052071	0.576000
Zn68	Zn	0.041120	0.078752	0.532392
O69	O	0.100664	-0.036292	0.628482
N70	N	0.011333	0.168036	0.502628
N71	N	0.114782	-0.565197	1.029501
O72	O	0.104681	-0.712124	1.233827
O73	O	-0.011334	-0.554523	1.233839
O74	O	-0.011066	-0.654443	1.233797
O75	O	0.104414	-0.612204	1.233869
O76	O	0.022028	-0.621336	1.134509
O77	O	0.021760	-0.521417	1.134551
O78	O	0.137775	-0.679018	1.134539
Zn79	Zn	0.085022	-0.594961	1.118780
Zn80	Zn	0.041420	-0.638580	1.249597
O81	O	0.137508	-0.579098	1.134580
N82	N	0.011658	-0.668350	1.338876
C83	C	0.037974	-0.518023	0.480435
C84	C	0.161625	-0.641592	0.480351
C85	C	0.087941	-0.715455	0.628017
C86	C	-0.035710	-0.591885	0.628101
C87	C	0.693199	-0.690642	0.652596
C88	C	0.693122	-0.690315	0.528855
C89	C	0.692981	-0.542634	0.455356
C90	C	0.693062	-0.542961	0.579095
C91	C	0.161524	0.013463	0.480164
C92	C	0.037807	0.013324	0.480547
C93	C	-0.035683	0.013341	0.628188
C94	C	0.088076	0.013357	0.627845
C95	C	-0.010764	-0.518114	1.184196
C96	C	-0.010426	-0.641846	1.184125
C97	C	0.137205	-0.715426	1.184182
C98	C	0.136875	-0.591687	1.184231
H99	H	0.103160	-0.437777	0.786243
C100	C	0.221766	0.013700	0.431492
C101	C	0.248167	-0.037286	0.415404
C102	C	0.303667	-0.037097	0.370579
H103	H	0.216417	0.048357	0.397621
H104	H	0.246859	0.013748	0.445875
H105	H	0.223079	-0.037329	0.401019
H106	H	0.253531	-0.071951	0.449261
H107	H	0.328761	-0.037049	0.384962
H108	H	0.298313	-0.002438	0.336712
H109	H	0.321590	-0.071693	0.359661
C110	C	0.025634	0.013263	0.432267
C111	C	-0.032640	0.013235	0.453925
C112	C	-0.043869	0.013162	0.409473
H113	H	0.030025	0.047870	0.398278
H114	H	0.053154	-0.021386	0.421418
H115	H	-0.060152	0.047880	0.464766
H116	H	-0.037045	-0.021369	0.487908
H117	H	-0.016349	-0.021487	0.398623
H118	H	-0.039475	0.047770	0.375487
H119	H	-0.083406	0.013137	0.424163
H120	H	-0.080930	0.013340	0.664614
H121	H	0.408481	-0.430137	0.613993
H122	H	0.693140	-0.726605	0.519802
H123	H	0.692924	-0.506199	0.410112
H124	H	0.693242	-0.727072	0.697844
H125	H	-0.046689	-0.650868	1.184063
H126	H	0.097136	0.013366	0.664120
H127	H	0.206895	-0.650521	0.443974
H128	H	-0.047187	-0.472851	1.184199
H129	H	0.096930	-0.760753	0.664356
H130	H	0.693053	-0.506675	0.588146
C131	C	0.185690	-0.775826	1.184206
C132	C	0.164295	-0.812671	1.184193
C133	C	0.208940	-0.868318	1.184221
H134	H	0.219640	-0.770684	1.149598
H135	H	0.196530	-0.793729	1.218851
H136	H	0.153464	-0.794773	1.149551
H137	H	0.130351	-0.817831	1.218798
H138	H	0.219780	-0.886220	1.218866
H139	H	0.242887	-0.863169	1.149613
H140	H	0.194428	-0.893326	1.184218
C141	C	0.025921	-0.457655	0.431958
C142	C	-0.022071	-0.447132	0.418337
C143	C	-0.033187	-0.391532	0.373678
H144	H	0.016427	-0.427252	0.445637
H145	H	0.060430	-0.457485	0.397218
H146	H	-0.056573	-0.447297	0.453071
H147	H	-0.012590	-0.477521	0.404648
H148	H	0.001322	-0.391362	0.338937
H149	H	-0.042679	-0.361134	0.387362
H150	H	-0.065746	-0.384387	0.364426
C151	C	0.185187	-0.579518	1.184219
C152	C	0.163547	-0.521225	1.184217
C153	C	0.208038	-0.509992	1.184198
H154	H	0.196093	-0.607009	1.218835
H155	H	0.219138	-0.583939	1.149583
H156	H	0.129607	-0.516810	1.218850
H157	H	0.152645	-0.493722	1.149603
H158	H	0.241989	-0.514413	1.149561
H159	H	0.218942	-0.537486	1.218814
H160	H	0.193364	-0.470438	1.184190
H161	H	0.250633	-0.568176	0.899553
C162	C	0.048733	-0.471404	0.908000
C163	C	0.017598	-0.435454	0.867269
C164	C	-0.043871	-0.420248	0.898415
H165	H	0.038412	-0.506693	0.932381
H166	H	0.038474	-0.450173	0.932369
H167	H	0.027853	-0.456685	0.842910
H168	H	0.027901	-0.400157	0.842886
H169	H	-0.054130	-0.399017	0.922785
H170	H	-0.054185	-0.455540	0.922796
H171	H	-0.065003	-0.395850	0.870784
C172	C	0.048643	-0.471558	0.699550
C173	C	0.022960	-0.492836	0.761719
C174	C	-0.038497	-0.477842	0.776967
H175	H	0.030994	-0.429397	0.685250
H176	H	0.042026	-0.489126	0.682029
H177	H	0.029573	-0.475266	0.779233
H178	H	0.040592	-0.534996	0.776034
H179	H	-0.045114	-0.495410	0.759446
H180	H	-0.056140	-0.435680	0.762663
H181	H	-0.055929	-0.492281	0.819149
C182	C	0.305061	-0.534510	0.777794
C183	C	0.336197	-0.570429	0.818523
C184	C	0.397666	-0.585570	0.787375
H185	H	0.315379	-0.555742	0.753408
H186	H	0.315321	-0.499179	0.753429
H187	H	0.325941	-0.605755	0.842878
H188	H	0.325898	-0.549209	0.842910
H189	H	0.407926	-0.550239	0.763010
H190	H	0.407977	-0.606800	0.762990
H191	H	0.418799	-0.609938	0.815005
H192	H	0.250475	-0.568133	0.602707
C193	C	0.304985	-0.534507	0.636329
C194	C	0.336086	-0.570429	0.600395
C195	C	0.397562	-0.585599	0.585213
H196	H	0.315280	-0.499203	0.615098
H197	H	0.315296	-0.555747	0.671642
H198	H	0.325779	-0.549189	0.565088
H199	H	0.325808	-0.605741	0.621615
H200	H	0.407873	-0.606839	0.620526
H201	H	0.407851	-0.550292	0.563983
H202	H	0.418671	-0.609978	0.560834
C203	C	-0.096041	-0.579915	0.676629
C204	C	-0.106585	-0.531941	0.690289
C205	C	-0.162152	-0.520903	0.734996
H206	H	-0.126463	-0.570430	0.662979
H207	H	-0.096156	-0.614455	0.711346
H208	H	-0.106475	-0.497408	0.655579
H209	H	-0.076177	-0.541413	0.703949
H210	H	-0.162267	-0.555443	0.769713
H211	H	-0.192569	-0.511420	0.721342
H212	H	-0.169310	-0.488355	0.744274
C213	C	0.286768	-0.586780	0.729788
C214	C	0.327519	-0.644636	0.733066
C215	C	0.296399	-0.684882	0.762722
H216	H	0.262403	-0.585265	0.768966
H217	H	0.262387	-0.576353	0.708494
H218	H	0.351891	-0.655060	0.754360
H219	H	0.351886	-0.646170	0.693896
H220	H	0.272018	-0.674455	0.741429
H221	H	0.272035	-0.683362	0.801899
H222	H	0.324044	-0.724141	0.764945
H223	H	0.103135	-0.437780	0.733124
H224	H	0.295112	-0.392340	0.651807
C225	C	0.251663	-0.393017	0.583113
C226	C	0.260374	-0.352264	0.524849
C227	C	0.296252	-0.383388	0.484114
H228	H	0.289165	-0.417401	0.589022
H229	H	0.232581	-0.417385	0.589089
H230	H	0.279457	-0.327906	0.518876
H231	H	0.222882	-0.327880	0.518921
H232	H	0.277170	-0.407756	0.490090
H233	H	0.333752	-0.407771	0.490029
H234	H	0.302163	-0.355742	0.444578
C235	C	0.417117	-0.630120	0.686268
C236	C	0.478533	-0.639772	0.661642
C237	C	0.509915	-0.700725	0.670404
H238	H	0.406966	-0.651975	0.727810
H239	H	0.406900	-0.643062	0.667361
H240	H	0.488746	-0.626836	0.680550
H241	H	0.488701	-0.617931	0.620099
H242	H	0.499698	-0.713667	0.651498
H243	H	0.499760	-0.722575	0.711948
H244	H	0.551589	-0.707281	0.653693
H245	H	0.111630	-0.271286	0.741644
C246	C	0.208116	-0.262657	0.539809
C247	C	0.182155	-0.201235	0.530273
C248	C	0.197121	-0.169852	0.468850
H249	H	0.250269	-0.272824	0.522180
H250	H	0.193713	-0.272860	0.522240
H251	H	0.196560	-0.191037	0.547834
H252	H	0.140002	-0.191050	0.547888
H253	H	0.182719	-0.180055	0.451281
H254	H	0.239275	-0.180024	0.451227
H255	H	0.179505	-0.128175	0.462372
C256	C	0.145324	-0.393056	0.796112
C257	C	0.109416	-0.352320	0.827235
C258	C	0.094305	-0.383464	0.888708
H259	H	0.124095	-0.417440	0.806439
H260	H	0.180663	-0.417424	0.806375
H261	H	0.074083	-0.327962	0.816976
H262	H	0.130633	-0.327934	0.816925
H263	H	0.129645	-0.407832	0.898972
H264	H	0.073079	-0.407847	0.899030
H265	H	0.069946	-0.355829	0.909833
