data_functionalizedCrystal
_audit_creation_method	'MofGen! by Chris Wilmer'
_symmetry_space_group_name_H-M	'P1'
_symmetry_Int_Tables_number	1
_symmetry_cell_setting	triclinic
loop_
_symmetry_equiv_pos_as_xyz
  x,y,z
_cell_length_a	12.645330
_cell_length_b	17.077404
_cell_length_c	17.077396
_cell_angle_alpha	90.019501
_cell_angle_beta	89.975931
_cell_angle_gamma	89.982083
loop_
_atom_site_label
_atom_site_type_symbol
_atom_site_fract_x
_atom_site_fract_y
_atom_site_fract_z
Zn1	Zn	-0.422033	-1.200083	-0.443867
Zn2	Zn	0.077967	-0.700083	0.056133
Zn3	Zn	-0.599318	-1.200002	-0.312611
Zn4	Zn	-0.099318	-0.700002	0.187389
Zn5	Zn	-0.422070	-1.068815	-0.312615
Zn6	Zn	0.077930	-0.568815	0.187385
Zn7	Zn	-0.599256	-1.068795	-0.443834
Zn8	Zn	-0.099256	-0.568795	0.056166
O9	O	-0.510669	-1.134424	-0.378232
O10	O	-0.010669	-0.634424	0.121768
O11	O	-0.445561	-1.309919	-0.426467
O12	O	0.054439	-0.809919	0.073533
O13	O	-0.575848	-1.182574	-0.202764
O14	O	-0.075848	-0.682574	0.297236
O15	O	-0.273718	-1.086270	-0.330041
O16	O	0.226282	-0.586270	0.169959
O17	O	-0.575812	-1.309860	-0.330034
O18	O	-0.075812	-0.809860	0.169966
O19	O	-0.273691	-1.182712	-0.426471
O20	O	0.226309	-0.682712	0.073529
O21	O	-0.445624	-1.086192	-0.202767
O22	O	0.054376	-0.586192	0.297233
O23	O	-0.445563	-0.958965	-0.330009
O24	O	0.054437	-0.458965	0.169991
O25	O	-0.575705	-1.086236	-0.553686
O26	O	-0.075705	-0.586236	-0.053686
O27	O	-0.575741	-0.958950	-0.426416
O28	O	-0.075741	-0.458950	0.073584
O29	O	-0.445500	-1.182693	-0.553709
O30	O	0.054500	-0.682693	-0.053709
O31	O	-0.747657	-1.182555	-0.330003
O32	O	-0.247657	-0.682555	0.169997
O33	O	-0.747611	-1.086157	-0.426412
O34	O	-0.247611	-0.586157	0.073588
C35	C	-0.786099	-1.134366	-0.378221
C36	C	-0.286099	-0.634366	0.121779
C37	C	-0.903929	-1.134414	-0.378242
C38	C	-0.403929	-0.634414	0.121758
C39	C	-0.510650	-0.930476	-0.378210
C40	C	-0.010650	-0.430476	0.121790
C41	C	-0.510667	-0.843226	-0.378219
C42	C	-0.010667	-0.343226	0.121781
C43	C	-0.510591	-1.134471	-0.582976
C44	C	-0.010591	-0.634471	-0.082976
C45	C	-0.510558	-1.134491	-0.670226
C46	C	-0.010558	-0.634491	-0.170226
C47	C	-1.071508	-1.074020	-0.439080
C48	C	-0.571508	-0.574020	0.060920
C49	C	-0.948949	-1.073711	-0.438885
C50	C	-0.448949	-0.573711	0.061115
C51	C	-0.948522	-1.112022	-0.295515
C52	C	-0.448522	-0.612022	0.204485
C53	C	-1.071120	-1.111653	-0.295885
C54	C	-0.571120	-0.611653	0.204115
C55	C	-1.071018	-1.217568	-0.399460
C56	C	-0.571018	-0.717568	0.100540
C57	C	-0.948411	-1.217059	-0.401269
C58	C	-0.448411	-0.717059	0.098731
C59	C	-0.234164	-1.134502	-0.378260
C60	C	0.265836	-0.634502	0.121740
C61	C	-0.116334	-1.134536	-0.378272
C62	C	0.383666	-0.634536	0.121728
C63	C	-0.510689	-1.339168	-0.378254
C64	C	-0.010689	-0.839168	0.121746
C65	C	-0.510698	-1.426418	-0.378263
C66	C	-0.010698	-0.926418	0.121737
C67	C	-0.578553	-0.802249	-0.428338
C68	C	-0.078553	-0.302249	0.071662
C69	C	-0.578555	-0.720268	-0.428350
C70	C	-0.078555	-0.220268	0.071650
C71	C	-0.510677	-0.679267	-0.378240
C72	C	-0.010677	-0.179267	0.121760
C73	C	-0.442783	-0.720250	-0.328119
C74	C	0.057217	-0.220250	0.171881
C75	C	-0.442777	-0.802229	-0.328111
C76	C	0.057223	-0.302229	0.171889
C77	C	-0.442804	-0.549380	-0.328138
C78	C	0.057196	-0.049380	0.171862
C79	C	-0.442812	-0.467395	-0.328145
C80	C	0.057188	0.032605	0.171855
C81	C	-0.578583	-0.467419	-0.428377
C82	C	-0.078583	0.032581	0.071623
C83	C	-0.578576	-0.549398	-0.428369
C84	C	-0.078576	-0.049398	0.071631
C85	C	-0.510684	-0.590376	-0.378247
C86	C	-0.010684	-0.090376	0.121753
C87	C	-0.442755	-1.184718	-0.711230
C88	C	0.057245	-0.684718	-0.211230
C89	C	-0.442719	-1.184728	-0.793210
C90	C	0.057281	-0.684728	-0.293210
C91	C	-0.510493	-1.134514	-0.834185
C92	C	-0.010493	-0.634514	-0.334185
C93	C	-0.578300	-1.084281	-0.793176
C94	C	-0.078300	-0.584281	-0.293176
C95	C	-0.578329	-1.084268	-0.711197
C96	C	-0.078329	-0.584268	-0.211197
C97	C	-0.578236	-1.084313	-0.964046
C98	C	-0.078236	-0.584313	-0.464046
C99	C	-0.578208	-1.084326	-1.046031
C100	C	-0.078208	-0.584326	-0.546031
C101	C	-0.442627	-1.184772	-1.046059
C102	C	0.057373	-0.684772	-0.546059
C103	C	-0.442656	-1.184759	-0.964080
C104	C	0.057344	-0.684759	-0.464080
C105	C	-0.510464	-1.134528	-0.923076
C106	C	-0.010464	-0.634528	-0.423076
C107	C	-0.510671	-1.134421	-0.174284
C108	C	-0.010671	-0.634421	0.325716
C109	C	-0.510405	-1.134553	-0.087034
C110	C	-0.010405	-0.634553	0.412966
H111	H	-0.918796	-1.087720	-0.500226
H112	H	-0.418796	-0.587720	-0.000226
H113	H	-0.387492	-0.835591	-0.287304
H114	H	0.112508	-0.335591	0.212696
H115	H	-0.387568	-1.225611	-0.677874
H116	H	0.112432	-0.725611	-0.177874
H117	H	-0.633860	-0.434051	-0.469191
H118	H	-0.133860	0.065949	0.030809
H119	H	-0.633831	-0.835626	-0.469141
H120	H	-0.133831	-0.335626	0.030859
H121	H	-0.387510	-1.225629	-0.826592
H122	H	0.112490	-0.725629	-0.326592
H123	H	-0.387511	-0.686860	-0.287322
H124	H	0.112489	-0.186860	0.212678
H125	H	-0.387413	-1.225671	-1.079449
H126	H	0.112587	-0.725671	-0.579449
H127	H	-0.633836	-0.686908	-0.469161
H128	H	-0.133836	-0.186908	0.030839
F129	F	-1.111333	-1.244268	-0.476968
F130	F	-0.611333	-0.744268	0.023032
H131	H	-0.387474	-1.225653	-0.930721
H132	H	0.112526	-0.725653	-0.430721
F133	F	-0.650332	-1.030876	-1.089638
F134	F	-0.150332	-0.530876	-0.589638
F135	F	-0.910313	-1.239133	-0.480847
F136	F	-0.410313	-0.739133	0.019153
H137	H	-0.633479	-1.043393	-0.826544
H138	H	-0.133479	-0.543393	-0.326544
F139	F	-1.109955	-1.092159	-0.519523
F140	F	-0.609955	-0.592159	-0.019523
F141	F	-1.111916	-0.994066	-0.420981
F142	F	-0.611916	-0.494066	0.079019
H143	H	-0.633855	-0.582779	-0.469169
H144	H	-0.133855	-0.082779	0.030831
H145	H	-0.917760	-1.264520	-0.360204
H146	H	-0.417760	-0.764520	0.139796
F147	F	-0.910732	-0.993252	-0.420541
F148	F	-0.410732	-0.493252	0.079459
H149	H	-0.633436	-1.043396	-0.930663
H150	H	-0.133436	-0.543396	-0.430663
H151	H	-1.099811	-1.050956	-0.277936
H152	H	-0.599811	-0.550956	0.222064
F153	F	-0.370572	-0.423759	-0.274809
F154	F	0.129428	0.076241	0.225191
H155	H	-1.100776	-1.153818	-0.249033
H156	H	-0.600776	-0.653818	0.250967
H157	H	-0.387510	-0.582741	-0.287331
H158	H	0.112490	-0.082741	0.212669
F159	F	-0.650492	-1.030808	-0.667558
F160	F	-0.150492	-0.530808	-0.167558
H161	H	-0.917910	-1.051958	-0.277242
H162	H	-0.417910	-0.551958	0.222758
F163	F	-1.108923	-1.276502	-0.341581
F164	F	-0.608923	-0.776502	0.158419
F165	F	-0.910411	-1.167806	-0.234675
F166	F	-0.410411	-0.667806	0.265325
