data_functionalizedCrystal
_audit_creation_method	'MofGen! by Chris Wilmer'
_symmetry_space_group_name_H-M	'P1'
_symmetry_Int_Tables_number	1
_symmetry_cell_setting	triclinic
loop_
_symmetry_equiv_pos_as_xyz
  x,y,z
_cell_length_a	11.792241
_cell_length_b	8.559649
_cell_length_c	10.868271
_cell_angle_alpha	89.996286
_cell_angle_beta	90.001559
_cell_angle_gamma	103.013960
loop_
_atom_site_label
_atom_site_type_symbol
_atom_site_fract_x
_atom_site_fract_y
_atom_site_fract_z
O1	O	-0.038480	-2.119795	0.102301
O2	O	0.294853	-1.786462	0.435635
O3	O	0.628187	-1.453128	0.768968
O4	O	0.020091	-1.655099	0.102309
O5	O	0.353424	-1.321765	0.435642
O6	O	0.686757	-0.988432	0.768975
O7	O	-0.175397	-1.898724	0.102296
O8	O	0.157936	-1.565390	0.435629
O9	O	0.491269	-1.232057	0.768963
O10	O	0.157008	-1.876170	0.102314
O11	O	0.490341	-1.542837	0.435647
O12	O	0.823675	-1.209503	0.768980
O13	O	-0.175390	-1.898702	-0.102349
O14	O	0.157943	-1.565368	0.230985
O15	O	0.491277	-1.232035	0.564318
O16	O	0.020098	-1.655077	-0.102336
O17	O	0.353431	-1.321743	0.230997
O18	O	0.686765	-0.988410	0.564331
O19	O	-0.038472	-2.119773	-0.102343
O20	O	0.294861	-1.786440	0.230990
O21	O	0.628194	-1.453106	0.564323
Zn22	Zn	-0.009186	-1.887421	-0.134831
Zn23	Zn	0.324147	-1.554088	0.198502
Zn24	Zn	0.657481	-1.220755	0.531835
Zn25	Zn	-0.009196	-1.887450	0.134797
Zn26	Zn	0.324137	-1.554117	0.468130
Zn27	Zn	0.657471	-1.220784	0.801463
O28	O	0.157016	-1.876148	-0.102331
O29	O	0.490349	-1.542815	0.231002
O30	O	0.823682	-1.209481	0.564336
C31	C	-0.217555	-1.897296	-0.000026
C32	C	0.115778	-1.563963	0.333308
C33	C	0.449112	-1.230629	0.666641
C34	C	-0.343180	-1.893056	-0.000025
C35	C	-0.009847	-1.559722	0.333309
C36	C	0.323486	-1.226389	0.666642
C37	C	0.024533	-1.595596	-0.000013
C38	C	0.357866	-1.262263	0.333320
C39	C	0.691200	-0.928930	0.666654
C40	C	0.037745	-1.418331	-0.000010
C41	C	0.371078	-1.084997	0.333323
C42	C	0.704412	-0.751664	0.666656
C43	C	-0.042915	-2.179275	-0.000019
C44	C	0.290419	-1.845942	0.333314
C45	C	0.623752	-1.512609	0.666648
C46	C	-0.056127	-2.356541	-0.000014
C47	C	0.277206	-2.023208	0.333320
C48	C	0.610540	-1.689874	0.666653
C49	C	-0.573179	-1.885258	-0.000004
C50	C	-0.239846	-1.551925	0.333330
C51	C	0.093488	-1.218592	0.666663
C52	C	-0.445190	-1.889591	-0.000015
C53	C	-0.111857	-1.556257	0.333318
C54	C	0.221476	-1.222924	0.666652
C55	C	0.199173	-1.877576	-0.000006
C56	C	0.532507	-1.544242	0.333327
C57	C	0.865840	-1.210909	0.666660
C58	C	0.324799	-1.881816	0.000001
C59	C	0.658132	-1.548483	0.333334
C60	C	0.991465	-1.215149	0.666667
N61	N	-0.009181	-1.887413	-0.318846
N62	N	0.324153	-1.554080	0.014488
N63	N	0.657486	-1.220746	0.347821
C64	C	-0.009181	-1.887425	-0.430183
C65	C	0.324152	-1.554092	-0.096850
C66	C	0.657485	-1.220759	0.236483
C67	C	-0.009194	-1.887446	-0.569861
C68	C	0.324139	-1.554113	-0.236527
C69	C	0.657473	-1.220780	0.096806
N70	N	-0.009211	-1.887471	0.318811
N71	N	0.324122	-1.554138	0.652144
N72	N	0.657456	-1.220805	0.985477
H73	H	-0.146602	-1.439254	-0.000012
H74	H	0.186731	-1.105921	0.333321
H75	H	0.520064	-0.772588	0.666654
C76	C	0.159984	-1.306582	-0.000003
C77	C	0.493317	-0.973249	0.333331
C78	C	0.826650	-0.639916	0.666664
N79	N	0.252052	-1.222413	0.000000
N80	N	0.585385	-0.889079	0.333334
N81	N	0.918719	-0.555746	0.666667
