data_functionalizedCrystal
_audit_creation_method	'MofGen! by Chris Wilmer'
_symmetry_space_group_name_H-M	'P1'
_symmetry_Int_Tables_number	1
_symmetry_cell_setting	triclinic
loop_
_symmetry_equiv_pos_as_xyz
  x,y,z
_cell_length_a	16.992694
_cell_length_b	16.992695
_cell_length_c	15.455425
_cell_angle_alpha	92.813861
_cell_angle_beta	87.179027
_cell_angle_gamma	89.331777
loop_
_atom_site_label
_atom_site_type_symbol
_atom_site_fract_x
_atom_site_fract_y
_atom_site_fract_z
O1	O	-1.054114	0.170165	0.072022
O2	O	-0.825715	0.168335	0.072047
O3	O	-0.938998	0.055049	0.072028
O4	O	-0.940830	0.283450	0.072041
O5	O	-0.932452	0.048539	-0.072232
O6	O	-0.819168	0.161824	-0.072212
O7	O	-1.047567	0.163654	-0.072238
Cu8	Cu	-0.932770	0.162145	-0.085397
Cu9	Cu	-0.940512	0.169844	0.085207
O10	O	-0.934283	0.276940	-0.072218
C11	C	-0.933369	0.022434	-0.000102
C12	C	-0.926341	-0.065051	-0.000101
C13	C	-0.793081	0.162724	-0.000079
C14	C	-0.705597	0.155696	-0.000070
C15	C	-1.080200	0.169265	-0.000109
C16	C	-1.167685	0.176294	-0.000113
C17	C	-0.994158	-0.111042	-0.000109
C18	C	-0.987550	-0.193242	-0.000100
C19	C	-0.913122	-0.229450	-0.000089
C20	C	-0.845300	-0.183452	-0.000078
C21	C	-0.851910	-0.101253	-0.000081
C22	C	-0.885729	-0.474764	-0.000074
C23	C	-0.879124	-0.556969	-0.000074
C24	C	-1.021375	-0.566753	-0.000094
C25	C	-1.027977	-0.484552	-0.000102
C26	C	-0.960155	-0.438561	-0.000087
N27	N	-0.906366	-0.313472	-0.000082
N28	N	-0.966913	-0.354541	-0.000087
C29	C	-0.659607	0.223514	-0.000066
C30	C	-0.577405	0.216904	-0.000079
C31	C	-0.541197	0.142476	-0.000088
C32	C	-0.587193	0.074653	-0.000094
C33	C	-0.669393	0.081263	-0.000088
C34	C	-0.295881	0.115080	-0.000113
C35	C	-0.213676	0.108476	-0.000116
C36	C	-0.203893	0.250728	-0.000103
C37	C	-0.286095	0.257331	-0.000091
C38	C	-0.332084	0.189508	-0.000102
N39	N	-0.457174	0.135718	-0.000098
N40	N	-0.416105	0.196266	-0.000098
C41	C	-0.939913	0.309555	-0.000087
C42	C	-0.946942	0.397040	-0.000082
N43	N	-0.927330	0.156729	-0.205390
C44	C	-0.897283	0.126554	-0.749386
C45	C	-0.901394	0.130679	-0.658580
C46	C	-0.954176	0.183509	-0.613189
C47	C	-1.002856	0.232211	-0.658610
C48	C	-0.998748	0.228081	-0.749414
C49	C	-0.971903	0.201301	-0.341615
C50	C	-0.976005	0.205429	-0.250804
C51	C	-0.874543	0.103896	-0.250781
C52	C	-0.870437	0.099774	-0.341587
C53	C	-0.919120	0.148473	-0.386999
N54	N	-0.958377	0.187729	-0.520371
N55	N	-0.914922	0.144248	-0.479816
N56	N	-0.945958	0.175254	0.205200
H57	H	-1.042774	-0.230685	-0.000109
O58	O	-1.019272	0.248496	-0.385756
C59	C	-1.067600	0.201510	-0.438272
H60	H	-1.073368	0.140649	-0.410888
H61	H	-1.128425	0.230373	-0.439296
H62	H	-1.040089	0.195516	-0.507096
O63	O	-0.178408	0.036208	-0.000247
C64	C	-0.127786	0.024757	-0.074973
H65	H	-0.110096	0.084398	-0.099871
H66	H	-0.072814	-0.009235	-0.058176
H67	H	-0.159510	-0.010152	-0.127295
O68	O	-0.159140	0.316555	0.000016
C69	C	-0.114693	0.320372	0.074736
H70	H	-0.107753	0.258755	0.099642
H71	H	-0.054060	0.345069	0.057928
H72	H	-0.146324	0.360380	0.127057
H73	H	-0.333316	0.059853	-0.000122
H74	H	-0.796685	-0.063808	-0.000073
O75	O	-0.772952	-0.218536	-0.000180
C76	C	-0.727913	-0.198863	-0.074897
H77	H	-0.751805	-0.141699	-0.099811
H78	H	-0.663837	-0.190811	-0.058083
H79	H	-0.731674	-0.248168	-0.127215
H80	H	-0.830502	-0.437328	-0.000061
O81	O	-1.054086	0.283636	-0.614615
C82	C	-1.036255	0.361149	-0.636820
H83	H	-1.002956	0.359595	-0.702754
H84	H	-1.093245	0.396737	-0.639934
H85	H	-0.998148	0.389793	-0.585729
H86	H	-1.076591	-0.604207	-0.000106
H87	H	-0.827458	0.056753	-0.378538
H88	H	-0.818513	-0.586447	-0.000079
O89	O	-0.854212	0.083313	-0.614414
C90	C	-0.901207	0.035035	-0.561837
H91	H	-0.962076	0.029268	-0.589195
H92	H	-0.872364	-0.025795	-0.560766
H93	H	-0.907182	0.062590	-0.493034
H94	H	-0.834909	0.064247	-0.213796
H95	H	-1.038385	0.267738	-0.786389
H96	H	-0.689081	0.284121	-0.000058
O97	O	-0.532849	0.282865	-0.000036
C98	C	-0.582433	0.349973	-0.000043
H99	H	-0.643696	0.335063	0.027275
H100	H	-0.557154	0.399695	0.041842
H101	H	-0.586544	0.369425	-0.069248
H102	H	-1.088584	-0.455078	-0.000112
O103	O	-0.321137	0.329690	-0.000126
C104	C	-0.262918	0.388134	-0.000104
H105	H	-0.204521	0.361340	-0.027421
H106	H	-0.281352	0.437897	-0.041981
H107	H	-0.255802	0.412423	0.069105
H108	H	-0.557705	0.014051	-0.000114
H109	H	-0.706838	0.026038	-0.000090
O110	O	-1.027239	0.256853	-0.206803
C111	C	-1.009418	0.334369	-0.229003
H112	H	-0.976126	0.332823	-0.294941
H113	H	-1.066411	0.369953	-0.232106
H114	H	-0.971308	0.363013	-0.177914
O115	O	-1.066520	-0.075998	-0.000079
C116	C	-1.124958	-0.134223	-0.000104
H117	H	-1.100633	-0.190148	0.027209
H118	H	-1.178511	-0.112005	0.041776
H119	H	-1.142987	-0.147597	-0.069313
H120	H	-0.854298	0.083538	-0.786336
