data_functionalizedCrystal
_audit_creation_method	'MofGen! by Chris Wilmer'
_symmetry_space_group_name_H-M	'P1'
_symmetry_Int_Tables_number	1
_symmetry_cell_setting	triclinic
loop_
_symmetry_equiv_pos_as_xyz
  x,y,z
_cell_length_a	15.298208
_cell_length_b	15.298709
_cell_length_c	11.169406
_cell_angle_alpha	99.635940
_cell_angle_beta	80.360167
_cell_angle_gamma	72.620699
loop_
_atom_site_label
_atom_site_type_symbol
_atom_site_fract_x
_atom_site_fract_y
_atom_site_fract_z
Zn1	Zn	0.123712	1.357847	-0.395014
Zn2	Zn	0.279303	1.330841	-0.236377
Zn3	Zn	0.150749	1.202291	-0.236323
Zn4	Zn	0.306095	1.175475	-0.478896
O5	O	0.214965	1.266613	-0.336653
O6	O	0.121824	1.484387	-0.338889
O7	O	0.262352	1.313709	-0.068462
O8	O	0.017035	1.245450	-0.222246
O9	O	0.236136	1.464546	-0.222339
O10	O	-0.002829	1.359736	-0.338836
O11	O	0.167905	1.219264	-0.068422
O12	O	0.193884	1.068611	-0.303583
O13	O	0.281799	1.199746	-0.635677
O14	O	0.308015	1.048910	-0.481800
O15	O	0.147803	1.333734	-0.574050
O16	O	0.412984	1.287707	-0.303676
O17	O	0.432668	1.173560	-0.481853
C18	C	0.256791	1.025021	-0.401789
C19	C	0.274707	0.921663	-0.429689
C20	C	0.342637	0.862860	-0.535485
C21	C	0.359465	0.765751	-0.561709
C22	C	0.308371	0.727434	-0.482133
C23	C	0.240445	0.786236	-0.376330
C24	C	0.223610	0.883356	-0.350109
C25	C	0.189344	0.747930	-0.296757
C26	C	0.121418	0.806733	-0.190953
C27	C	0.104587	0.903842	-0.164737
C28	C	0.155681	0.942159	-0.244312
C29	C	0.206180	0.650810	-0.322978
C30	C	0.087153	0.671306	-0.137602
C31	C	0.070324	0.768416	-0.111378
C32	C	-0.027581	1.308597	-0.271178
C33	C	-0.130940	1.326488	-0.243277
C34	C	-0.381290	1.139186	-0.535695
C35	C	-0.284179	1.122372	-0.561908
C36	C	-0.245864	1.173399	-0.482253
C37	C	-0.304671	1.241244	-0.376379
C38	C	-0.401791	1.258054	-0.350158
C39	C	-0.266365	1.292268	-0.296716
C40	C	-0.325171	1.360112	-0.190842
C41	C	-0.422281	1.376920	-0.164627
C42	C	-0.460596	1.325892	-0.244282
C43	C	-0.169245	1.275457	-0.322937
C44	C	-0.189745	1.394326	-0.137400
C45	C	-0.286856	1.411140	-0.111187
C46	C	0.456563	1.224819	-0.401892
C47	C	0.559904	1.207024	-0.429819
C48	C	0.214773	1.266762	-0.649617
C49	C	0.214692	1.266825	-0.782984
C50	C	0.172975	1.509149	-0.271263
C51	C	0.155082	1.612503	-0.243398
C52	C	0.215079	1.266531	-0.024873
C53	C	0.214867	1.266693	0.108613
H54	H	0.261484	0.602942	-0.409125
H55	H	0.384225	0.894068	-0.600269
H56	H	0.141986	1.021232	-0.222963
C57	C	0.244040	0.603629	-0.526582
C58	C	0.326869	0.620689	-0.510950
H59	H	0.255467	0.537725	-0.544380
H60	H	0.196285	0.633162	-0.452187
H61	H	0.224204	0.628416	-0.593798
H62	H	0.346702	0.595908	-0.443728
H63	H	0.374640	0.591144	-0.585354
C64	C	-0.521065	1.112184	-0.577864
C65	C	-0.423408	1.083101	-0.623241
H66	H	-0.547065	1.077559	-0.631922
H67	H	-0.534564	1.101292	-0.496627
H68	H	-0.547799	1.177425	-0.574291
H69	H	-0.396673	1.017861	-0.626806
H70	H	-0.409902	1.093986	-0.704501
H71	H	-0.121374	1.220222	-0.409145
H72	H	0.414770	0.717880	-0.647854
H73	H	0.049272	0.951719	-0.078590
H74	H	0.015018	0.816306	-0.025232
C75	C	-0.049997	1.421434	-0.095301
C76	C	-0.147650	1.450484	-0.049897
H77	H	-0.024011	1.456122	-0.041303
H78	H	-0.023233	1.356217	-0.098804
H79	H	-0.036523	1.432277	-0.176582
H80	H	-0.161125	1.439634	0.031381
H81	H	-0.174423	1.515716	-0.046379
H82	H	0.045546	0.640110	-0.072807
H83	H	-0.166792	1.159706	-0.503603
C84	C	-0.459893	1.427307	0.058835
C85	C	-0.486918	1.451492	-0.048245
H86	H	-0.499793	1.473350	0.130682
H87	H	-0.464989	1.367588	0.063849
H88	H	-0.396570	1.424600	0.054602
H89	H	-0.550239	1.454193	-0.044016
H90	H	-0.481831	1.511228	-0.053259
H91	H	-0.236305	1.067126	-0.648104
H92	H	-0.539671	1.339582	-0.222948
H93	H	-0.334748	1.466379	-0.024983
