data_functionalizedCrystal
_audit_creation_method	'MofGen! by Chris Wilmer'
_symmetry_space_group_name_H-M	'P1'
_symmetry_Int_Tables_number	1
_symmetry_cell_setting	triclinic
loop_
_symmetry_equiv_pos_as_xyz
  x,y,z
_cell_length_a	16.992694
_cell_length_b	14.519731
_cell_length_c	16.053802
_cell_angle_alpha	92.569546
_cell_angle_beta	87.249047
_cell_angle_gamma	87.178538
loop_
_atom_site_label
_atom_site_type_symbol
_atom_site_fract_x
_atom_site_fract_y
_atom_site_fract_z
O1	O	1.043976	0.191935	-0.069328
O2	O	1.543976	0.691935	0.430672
O3	O	0.815689	0.189788	-0.069352
O4	O	1.315689	0.689788	0.430648
O5	O	0.935876	0.057059	-0.069332
O6	O	1.435876	0.557059	0.430668
O7	O	0.923789	0.324665	-0.069348
O8	O	1.423789	0.824665	0.430652
O9	O	0.929260	0.064332	0.069526
O10	O	1.429260	0.564332	0.569526
O11	O	0.809073	0.197062	0.069506
O12	O	1.309073	0.697062	0.569506
O13	O	1.037360	0.199209	0.069530
O14	O	1.537360	0.699209	0.569530
Zn15	Zn	0.922166	0.199290	0.091565
Zn16	Zn	1.422166	0.699290	0.591565
Zn17	Zn	0.930883	0.189707	-0.091386
Zn18	Zn	1.430883	0.689707	0.408614
O19	O	0.917173	0.331938	0.069510
O20	O	1.417173	0.831938	0.569510
C21	C	0.783164	0.190665	0.000074
C22	C	1.283164	0.690665	0.500074
C23	C	0.696109	0.182429	0.000065
C24	C	1.196109	0.682429	0.500065
C25	C	0.645985	0.261888	0.000060
C26	C	1.145985	0.761888	0.500060
C27	C	0.564186	0.254145	0.000072
C28	C	1.064186	0.754145	0.500072
C29	C	0.532513	0.166942	0.000083
C30	C	1.032513	0.666942	0.500083
C31	C	0.582643	0.087477	0.000089
C32	C	1.082643	0.587477	0.500089
C33	C	0.664440	0.095221	0.000083
C34	C	1.164440	0.595221	0.500083
C35	C	0.288867	0.134847	0.000107
C36	C	0.788867	0.634847	0.500107
C37	C	0.207065	0.127108	0.000110
C38	C	0.707065	0.627108	0.500110
C39	C	0.188613	0.293778	0.000095
C40	C	0.688613	0.793778	0.500095
C41	C	0.270412	0.301514	0.000084
C42	C	0.770412	0.801514	0.500084
C43	C	0.320535	0.222049	0.000095
C44	C	0.820535	0.722049	0.500095
N45	N	0.448903	0.159026	0.000092
N46	N	0.948903	0.659026	0.500092
N47	N	0.404144	0.229967	0.000091
N48	N	0.904144	0.729967	0.500091
C49	C	0.932002	0.026295	0.000097
C50	C	1.432002	0.526295	0.500097
C51	C	0.930305	-0.076207	0.000098
C52	C	1.430305	0.423793	0.500098
C53	C	0.928926	-0.159450	0.000096
C54	C	1.428926	0.340550	0.500096
C55	C	0.927203	-0.263883	0.000089
C56	C	1.427203	0.236117	0.500089
C57	C	0.925835	-0.347120	0.000084
C58	C	1.425835	0.152880	0.500084
C59	C	0.924112	-0.451559	0.000079
C60	C	1.424112	0.048441	0.500079
C61	C	1.069885	0.198332	0.000103
C62	C	1.569885	0.698332	0.500103
C63	C	1.156941	0.206568	0.000106
C64	C	1.656941	0.706568	0.500106
C65	C	0.921047	0.362701	0.000079
C66	C	1.421047	0.862701	0.500079
C67	C	0.922745	0.465203	0.000073
C68	C	1.422745	0.965203	0.500073
N69	N	0.916224	0.205830	0.216424
N70	N	1.416224	0.705830	0.716424
N71	N	0.936832	0.183160	-0.216246
N72	N	1.436832	0.683160	0.283754
C73	C	0.967382	0.149377	0.260127
C74	C	1.467382	0.649377	0.760127
C75	C	0.963232	0.153961	0.347533
C76	C	1.463232	0.653961	0.847533
C77	C	0.907927	0.215004	0.391234
C78	C	1.407927	0.715004	0.891234
C79	C	0.856763	0.271460	0.347526
C80	C	1.356763	0.771460	0.847526
C81	C	0.860910	0.266871	0.260121
C82	C	1.360910	0.766871	0.760121
C83	C	0.889814	0.235026	0.652641
C84	C	1.389814	0.735026	1.152641
C85	C	0.885673	0.239614	0.740052
C86	C	1.385673	0.739614	1.240052
C87	C	0.992142	0.122112	0.740053
C88	C	1.492142	0.622112	1.240053
C89	C	0.996287	0.117532	0.652646
C90	C	1.496287	0.617532	1.152646
C91	C	0.945120	0.173985	0.608945
C92	C	1.445120	0.673985	1.108945
N93	N	0.903686	0.219694	0.480578
N94	N	1.403686	0.719694	0.980578
N95	N	0.949358	0.169290	0.519604
N96	N	1.449358	0.669290	1.019604
H97	H	0.296194	0.372523	0.000066
H98	H	0.796194	0.872523	0.500066
Br99	Br	0.120586	0.401617	0.000081
Br100	Br	0.620586	0.901617	0.500081
Br101	Br	0.791472	0.343484	0.200810
Br102	Br	1.291472	0.843484	0.700810
Br103	Br	0.164080	0.008754	0.000142
Br104	Br	0.664080	0.508754	0.500142
Br105	Br	0.356881	0.027000	0.000124
Br106	Br	0.856881	0.527000	0.500124
H107	H	0.671766	0.332898	0.000051
H108	H	1.171766	0.832898	0.500051
H109	H	0.556848	0.016475	0.000110
H110	H	1.056848	0.516475	0.500110
Br111	Br	1.061578	0.045500	0.799364
Br112	Br	1.561578	0.545500	1.299364
H113	H	0.811729	0.321160	0.383113
H114	H	1.311729	0.821160	0.883113
H115	H	0.705251	0.030517	0.000086
H116	H	1.205251	0.530517	0.500086
Br117	Br	0.496164	0.361988	0.000064
Br118	Br	0.996164	0.861988	0.500064
Br119	Br	1.042449	0.066535	0.200826
Br120	Br	1.542449	0.566535	0.700826
H121	H	1.004889	0.107991	0.383115
H122	H	1.504889	0.607991	0.883115
H123	H	1.041321	0.067826	0.617066
H124	H	1.541321	0.567826	1.117066
Br125	Br	0.810613	0.322470	0.799356
Br126	Br	1.310613	0.822470	1.299356
H127	H	0.848154	0.280994	0.617066
H128	H	1.348154	0.780994	1.117066
