data_functionalizedCrystal
_audit_creation_method	'MofGen! by Chris Wilmer'
_symmetry_space_group_name_H-M	'P1'
_symmetry_Int_Tables_number	1
_symmetry_cell_setting	triclinic
loop_
_symmetry_equiv_pos_as_xyz
  x,y,z
_cell_length_a	23.532407
_cell_length_b	23.532407
_cell_length_c	13.101039
_cell_angle_alpha	93.336507
_cell_angle_beta	86.668910
_cell_angle_gamma	82.848678
loop_
_atom_site_label
_atom_site_type_symbol
_atom_site_fract_x
_atom_site_fract_y
_atom_site_fract_z
O1	O	0.758406	0.065978	-0.085096
O2	O	1.008406	0.315978	0.164904
O3	O	1.258406	0.565978	0.414904
O4	O	1.508406	0.815978	0.664904
O5	O	0.592544	0.075980	-0.085128
O6	O	0.842544	0.325980	0.164872
O7	O	1.092544	0.575980	0.414872
O8	O	1.342544	0.825980	0.664872
O9	O	0.680476	-0.011952	-0.085092
O10	O	0.930476	0.238048	0.164908
O11	O	1.180476	0.488048	0.414908
O12	O	1.430476	0.738048	0.664908
O13	O	0.670474	0.153910	-0.085132
O14	O	0.920474	0.403910	0.164868
O15	O	1.170474	0.653910	0.414868
O16	O	1.420474	0.903910	0.664868
O17	O	0.674167	-0.005632	0.085335
O18	O	0.924167	0.244368	0.335335
O19	O	1.174167	0.494368	0.585335
O20	O	1.424167	0.744368	0.835335
O21	O	0.586235	0.082300	0.085300
O22	O	0.836235	0.332300	0.335300
O23	O	1.086235	0.582300	0.585300
O24	O	1.336235	0.832300	0.835300
O25	O	0.752097	0.072298	0.085331
O26	O	1.002097	0.322298	0.335331
O27	O	1.252097	0.572298	0.585331
O28	O	1.502097	0.822298	0.835331
Zn29	Zn	0.668164	0.078302	0.112375
Zn30	Zn	0.918164	0.328302	0.362375
Zn31	Zn	1.168164	0.578302	0.612375
Zn32	Zn	1.418164	0.828302	0.862375
Zn33	Zn	0.676477	0.069976	-0.112171
Zn34	Zn	0.926477	0.319976	0.137829
Zn35	Zn	1.176477	0.569976	0.387829
Zn36	Zn	1.426477	0.819976	0.637829
O37	O	0.664165	0.160230	0.085296
O38	O	0.914165	0.410230	0.335296
O39	O	1.164165	0.660230	0.585296
O40	O	1.414165	0.910230	0.835296
C41	C	0.568173	0.078885	0.000082
C42	C	0.818173	0.328885	0.250082
C43	C	1.068173	0.578885	0.500082
C44	C	1.318173	0.828885	0.750082
C45	C	0.504957	0.078119	0.000071
C46	C	0.754957	0.328119	0.250071
C47	C	1.004957	0.578119	0.500071
C48	C	1.254957	0.828119	0.750071
C49	C	0.105852	0.125353	0.000106
C50	C	0.355852	0.375353	0.250106
C51	C	0.605852	0.625353	0.500106
C52	C	0.855852	0.875353	0.750106
C53	C	0.046452	0.124642	0.000113
C54	C	0.296452	0.374642	0.250113
C55	C	0.546452	0.624642	0.500113
C56	C	0.796452	0.874642	0.750113
O57	O	0.009706	0.168429	0.000140
O58	O	0.259706	0.418429	0.250140
O59	O	0.509706	0.668429	0.500140
O60	O	0.759706	0.918429	0.750140
N61	N	0.023825	0.072366	0.000123
N62	N	0.273825	0.322366	0.250123
N63	N	0.523825	0.572366	0.500123
N64	N	0.773825	0.822366	0.750123
C65	C	0.060602	0.020799	0.000138
C66	C	0.310602	0.270799	0.250138
C67	C	0.560602	0.520799	0.500138
C68	C	0.810602	0.770799	0.750138
O69	O	0.035902	-0.023731	0.000149
O70	O	0.285902	0.226269	0.250149
O71	O	0.535902	0.476269	0.500149
O72	O	0.785902	0.726269	0.750149
C73	C	0.120001	0.021511	0.000139
C74	C	0.370001	0.271511	0.250139
C75	C	0.620001	0.521511	0.500139
C76	C	0.870001	0.771511	0.750139
C77	C	0.142625	0.073790	0.000118
C78	C	0.392625	0.323790	0.250118
C79	C	0.642625	0.573790	0.500118
C80	C	0.892625	0.823790	0.750118
C81	C	0.128476	0.177628	0.000086
C82	C	0.378476	0.427628	0.250086
C83	C	0.628476	0.677628	0.500086
C84	C	0.878476	0.927628	0.750086
C85	C	0.187873	0.178339	0.000078
C86	C	0.437873	0.428339	0.250078
C87	C	0.687873	0.678339	0.500078
C88	C	0.937873	0.928339	0.750078
C89	C	0.224645	0.126775	0.000090
C90	C	0.474645	0.376775	0.250090
C91	C	0.724645	0.626775	0.500090
C92	C	0.974645	0.876775	0.750090
C93	C	0.202021	0.074501	0.000110
C94	C	0.452021	0.324501	0.250110
C95	C	0.702021	0.574501	0.500110
C96	C	0.952021	0.824501	0.750110
C97	C	0.156777	-0.030056	0.000161
C98	C	0.406777	0.219944	0.250161
C99	C	0.656777	0.469944	0.500161
C100	C	0.906777	0.719944	0.750161
C101	C	0.216179	-0.029339	0.000163
C102	C	0.466179	0.220661	0.250163
C103	C	0.716179	0.470661	0.500163
C104	C	0.966179	0.720661	0.750163
C105	C	0.238803	0.022940	0.000142
C106	C	0.488803	0.272940	0.250142
C107	C	0.738803	0.522940	0.500142
C108	C	0.988803	0.772940	0.750142
C109	C	0.298190	0.023648	0.000113
C110	C	0.548190	0.273648	0.250113
C111	C	0.798190	0.523648	0.500113
C112	C	1.048190	0.773648	0.750113
N113	N	0.320817	0.075924	0.000102
N114	N	0.570817	0.325924	0.250102
N115	N	0.820817	0.575924	0.500102
N116	N	1.070817	0.825924	0.750102
C117	C	0.284044	0.127487	0.000090
C118	C	0.534044	0.377487	0.250090
C119	C	0.784044	0.627487	0.500090
C120	C	1.034044	0.877487	0.750090
C121	C	-0.064140	0.019307	0.000138
C122	C	0.185860	0.269307	0.250138
C123	C	0.435860	0.519307	0.500138
C124	C	0.685860	0.769307	0.750138
C125	C	-0.123538	0.018594	0.000130
C126	C	0.126462	0.268594	0.250130
C127	C	0.376462	0.518594	0.500130
C128	C	0.626462	0.768594	0.750130
C129	C	-0.137684	0.122438	0.000106
C130	C	0.112316	0.372438	0.250106
C131	C	0.362316	0.622438	0.500106
C132	C	0.612316	0.872438	0.750106
C133	C	-0.078285	0.123150	0.000107
C134	C	0.171715	0.373150	0.250107
C135	C	0.421715	0.623150	0.500107
C136	C	0.671715	0.873150	0.750107
C137	C	-0.041514	0.071583	0.000127
C138	C	0.208486	0.321583	0.250127
C139	C	0.458486	0.571583	0.500127
C140	C	0.708486	0.821583	0.750127
C141	C	0.408782	0.128976	0.000072
C142	C	0.658782	0.378976	0.250072
C143	C	0.908782	0.628976	0.500072
C144	C	1.158782	0.878976	0.750072
C145	C	0.468184	0.129683	0.000059
C146	C	0.718184	0.379683	0.250059
C147	C	0.968184	0.629683	0.500059
C148	C	1.218184	0.879683	0.750059
C149	C	0.482325	0.025839	0.000088
C150	C	0.732325	0.275839	0.250088
C151	C	0.982325	0.525839	0.500088
C152	C	1.232325	0.775839	0.750088
C153	C	0.422928	0.025132	0.000096
C154	C	0.672928	0.275132	0.250096
C155	C	0.922928	0.525132	0.500096
C156	C	1.172928	0.775132	0.750096
C157	C	0.386157	0.076706	0.000091
C158	C	0.636157	0.326706	0.250091
C159	C	0.886157	0.576706	0.500091
C160	C	1.136157	0.826706	0.750091
O161	O	0.334970	-0.020116	0.000090
O162	O	0.584970	0.229884	0.250090
O163	O	0.834970	0.479884	0.500090
O164	O	1.084970	0.729884	0.750090
O165	O	0.308752	0.172011	0.000093
O166	O	0.558752	0.422011	0.250093
O167	O	0.808752	0.672011	0.500093
O168	O	1.058752	0.922011	0.750093
C169	C	0.677066	-0.030008	0.000124
C170	C	0.927066	0.219992	0.250124
C171	C	1.177066	0.469992	0.500124
C172	C	1.427066	0.719992	0.750124
C173	C	0.676300	-0.093225	0.000132
C174	C	0.926300	0.156775	0.250132
C175	C	1.176300	0.406775	0.500132
C176	C	1.426300	0.656775	0.750132
C177	C	0.723535	-0.492330	0.000085
C178	C	0.973535	-0.242330	0.250085
C179	C	1.223535	0.007670	0.500085
C180	C	1.473535	0.257670	0.750085
C181	C	0.722824	-0.551730	0.000077
C182	C	0.972824	-0.301730	0.250077
C183	C	1.222824	-0.051730	0.500077
C184	C	1.472824	0.198270	0.750077
O185	O	0.766611	-0.588476	0.000047
O186	O	1.016611	-0.338476	0.250047
O187	O	1.266611	-0.088476	0.500047
O188	O	1.516611	0.161524	0.750047
N189	N	0.670548	-0.574357	0.000068
N190	N	0.920548	-0.324357	0.250068
N191	N	1.170548	-0.074357	0.500068
N192	N	1.420548	0.175643	0.750068
C193	C	0.618980	-0.537579	0.000056
C194	C	0.868980	-0.287579	0.250056
C195	C	1.118980	-0.037579	0.500056
C196	C	1.368980	0.212421	0.750056
O197	O	0.574450	-0.562280	0.000046
O198	O	0.824450	-0.312280	0.250046
O199	O	1.074450	-0.062280	0.500046
O200	O	1.324450	0.187720	0.750046
C201	C	0.619692	-0.478180	0.000056
C202	C	0.869692	-0.228180	0.250056
C203	C	1.119692	0.021820	0.500056
C204	C	1.369692	0.271820	0.750056
C205	C	0.671971	-0.455557	0.000076
C206	C	0.921971	-0.205557	0.250076
C207	C	1.171971	0.044443	0.500076
C208	C	1.421971	0.294443	0.750076
C209	C	0.775810	-0.469706	0.000103
C210	C	1.025810	-0.219706	0.250103
C211	C	1.275810	0.030294	0.500103
C212	C	1.525810	0.280294	0.750103
C213	C	0.776521	-0.410309	0.000113
C214	C	1.026521	-0.160309	0.250113
C215	C	1.276521	0.089691	0.500113
C216	C	1.526521	0.339691	0.750113
C217	C	0.724957	-0.373537	0.000104
C218	C	0.974957	-0.123537	0.250104
C219	C	1.224957	0.126463	0.500104
C220	C	1.474957	0.376463	0.750104
C221	C	0.672682	-0.396161	0.000086
C222	C	0.922682	-0.146161	0.250086
C223	C	1.172682	0.103839	0.500086
C224	C	1.422682	0.353839	0.750086
C225	C	0.568126	-0.441405	0.000037
C226	C	0.818126	-0.191405	0.250037
C227	C	1.068126	0.058595	0.500037
C228	C	1.318126	0.308595	0.750037
C229	C	0.568842	-0.382002	0.000037
C230	C	0.818842	-0.132002	0.250037
C231	C	1.068842	0.117998	0.500037
C232	C	1.318842	0.367998	0.750037
C233	C	0.621121	-0.359379	0.000057
C234	C	0.871121	-0.109379	0.250057
C235	C	1.121121	0.140621	0.500057
C236	C	1.371121	0.390621	0.750057
C237	C	0.621829	-0.299991	0.000087
C238	C	0.871829	-0.049991	0.250087
C239	C	1.121829	0.200009	0.500087
C240	C	1.371829	0.450009	0.750087
N241	N	0.674105	-0.277365	0.000096
N242	N	0.924105	-0.027365	0.250096
N243	N	1.174105	0.222635	0.500096
N244	N	1.424105	0.472635	0.750096
C245	C	0.725669	-0.314138	0.000105
C246	C	0.975669	-0.064138	0.250105
C247	C	1.225669	0.185862	0.500105
C248	C	1.475669	0.435862	0.750105
C249	C	0.617489	-0.662322	0.000053
C250	C	0.867489	-0.412322	0.250053
C251	C	1.117489	-0.162322	0.500053
C252	C	1.367489	0.087678	0.750053
C253	C	0.616776	-0.721720	0.000060
C254	C	0.866776	-0.471720	0.250060
C255	C	1.116776	-0.221720	0.500060
C256	C	1.366776	0.028280	0.750060
C257	C	0.720620	-0.735866	0.000079
C258	C	0.970620	-0.485866	0.250079
C259	C	1.220620	-0.235866	0.500079
C260	C	1.470620	0.014134	0.750079
C261	C	0.721332	-0.676467	0.000079
C262	C	0.971332	-0.426467	0.250079
C263	C	1.221332	-0.176467	0.500079
C264	C	1.471332	0.073533	0.750079
C265	C	0.669765	-0.639696	0.000062
C266	C	0.919765	-0.389696	0.250062
C267	C	1.169765	-0.139696	0.500062
C268	C	1.419765	0.110304	0.750062
C269	C	0.727158	-0.189400	0.000126
C270	C	0.977158	0.060600	0.250126
C271	C	1.227158	0.310600	0.500126
C272	C	1.477158	0.560600	0.750126
C273	C	0.727864	-0.129997	0.000141
C274	C	0.977864	0.120003	0.250141
C275	C	1.227864	0.370003	0.500141
C276	C	1.477864	0.620003	0.750141
C277	C	0.624021	-0.115856	0.000116
C278	C	0.874021	0.134144	0.250116
C279	C	1.124021	0.384144	0.500116
C280	C	1.374021	0.634144	0.750116
C281	C	0.623314	-0.175253	0.000107
C282	C	0.873314	0.074747	0.250107
C283	C	1.123314	0.324747	0.500107
C284	C	1.373314	0.574747	0.750107
C285	C	0.674887	-0.212024	0.000109
C286	C	0.924887	0.037976	0.250109
C287	C	1.174887	0.287976	0.500109
C288	C	1.424887	0.537976	0.750109
O289	O	0.578065	-0.263211	0.000112
O290	O	0.828065	-0.013211	0.250112
O291	O	1.078065	0.236789	0.500112
O292	O	1.328065	0.486789	0.750112
O293	O	0.770192	-0.289430	0.000101
O294	O	1.020192	-0.039430	0.250101
O295	O	1.270192	0.210570	0.500101
O296	O	1.520192	0.460570	0.750101
C297	C	0.776467	0.069393	0.000119
C298	C	1.026467	0.319393	0.250119
C299	C	1.276467	0.569393	0.500119
C300	C	1.526467	0.819393	0.750119
C301	C	0.839684	0.070159	0.000124
C302	C	1.089684	0.320159	0.250124
C303	C	1.339684	0.570159	0.500124
C304	C	1.589684	0.820159	0.750124
C305	C	0.667574	0.178286	0.000077
C306	C	0.917574	0.428286	0.250077
C307	C	1.167574	0.678286	0.500077
C308	C	1.417574	0.928286	0.750077
C309	C	0.668341	0.241502	0.000063
C310	C	0.918341	0.491502	0.250063
C311	C	1.168341	0.741502	0.500063
C312	C	1.418341	0.991502	0.750063
N313	N	0.662495	0.083984	0.265621
N314	N	0.912495	0.333984	0.515621
N315	N	1.162495	0.583984	0.765621
N316	N	1.412495	0.833984	1.015621
N317	N	0.682150	0.064289	-0.265417
N318	N	0.932150	0.314289	-0.015417
N319	N	1.182150	0.564289	0.234583
N320	N	1.432150	0.814289	0.484583
C321	C	0.654782	0.091720	0.474660
C322	C	0.904782	0.341720	0.724660
C323	C	1.154782	0.591720	0.974660
C324	C	1.404782	0.841720	1.224660
C325	C	0.689861	0.056555	0.525550
C326	C	0.939861	0.306555	0.775550
C327	C	1.189861	0.556555	1.025550
C328	C	1.439861	0.806555	1.275550
C329	C	0.685569	0.060860	0.641867
C330	C	0.935569	0.310860	0.891867
C331	C	1.185569	0.560860	1.141867
C332	C	1.435569	0.810860	1.391867
C333	C	0.659073	0.087416	0.358333
C334	C	0.909073	0.337416	0.608333
C335	C	1.159073	0.587416	0.858333
C336	C	1.409073	0.837416	1.108333
H337	H	0.512276	-0.016143	0.000094
H338	H	0.762276	0.233857	0.250094
H339	H	1.012276	0.483857	0.500094
H340	H	1.262276	0.733857	0.750094
N341	N	0.255839	-0.084961	0.000174
N342	N	0.505839	0.165039	0.250174
N343	N	0.755839	0.415039	0.500174
N344	N	1.005839	0.665039	0.750174
H345	H	0.296902	-0.076582	0.000168
H346	H	0.546902	0.173418	0.250168
H347	H	0.796902	0.423418	0.500168
H348	H	1.046902	0.673418	0.750168
H349	H	0.246210	-0.105413	0.063363
H350	H	0.496210	0.144587	0.313363
H351	H	0.746210	0.394587	0.563363
H352	H	0.996210	0.644587	0.813363
N353	N	-0.024481	-0.036315	0.000155
N354	N	0.225519	0.213685	0.250155
N355	N	0.475519	0.463685	0.500155
N356	N	0.725519	0.713685	0.750155
H357	H	-0.047832	-0.069536	0.000161
H358	H	0.202168	0.180464	0.250161
H359	H	0.452168	0.430464	0.500161
H360	H	0.702168	0.680464	0.750161
H361	H	0.002809	-0.040628	-0.063024
H362	H	0.252809	0.209372	0.186976
H363	H	0.502809	0.459372	0.436976
H364	H	0.752809	0.709372	0.686976
N365	N	0.784252	-0.105597	0.000167
N366	N	1.034252	0.144403	0.250167
N367	N	1.284252	0.394403	0.500167
N368	N	1.534252	0.644403	0.750167
H369	H	0.816809	-0.137909	0.000169
H370	H	1.066809	0.112091	0.250169
H371	H	1.316809	0.362091	0.500169
H372	H	1.566809	0.612091	0.750169
H373	H	0.789151	-0.083594	-0.063007
H374	H	1.039151	0.166406	0.186993
H375	H	1.289151	0.416406	0.436993
H376	H	1.539151	0.666406	0.686993
H377	H	0.723116	0.023218	0.481761
H378	H	0.973116	0.273218	0.731761
H379	H	1.223116	0.523218	0.981761
H380	H	1.473116	0.773218	1.231761
H381	H	0.621530	0.125055	0.518444
H382	H	0.871530	0.375055	0.768444
H383	H	1.121530	0.625055	1.018444
H384	H	1.371530	0.875055	1.268444
N385	N	0.088822	0.233249	0.000059
N386	N	0.338822	0.483249	0.250059
N387	N	0.588822	0.733249	0.500059
N388	N	0.838822	0.983249	0.750059
H389	H	0.047757	0.224876	0.000058
H390	H	0.297757	0.474876	0.250058
H391	H	0.547757	0.724876	0.500058
H392	H	0.797757	0.974876	0.750058
H393	H	0.093782	0.258391	0.063228
H394	H	0.343782	0.508391	0.313228
H395	H	0.593782	0.758391	0.563228
H396	H	0.843782	1.008391	0.813228
N397	N	0.782782	-0.229055	0.000128
N398	N	1.032782	0.020945	0.250128
N399	N	1.282782	0.270945	0.500128
N400	N	1.532782	0.520945	0.750128
H401	H	0.816001	-0.205702	0.000144
H402	H	1.066001	0.044298	0.250144
H403	H	1.316001	0.294298	0.500144
H404	H	1.566001	0.544298	0.750144
H405	H	0.782411	-0.251672	0.063306
H406	H	1.032411	-0.001672	0.313306
H407	H	1.282411	0.248328	0.563306
H408	H	1.532411	0.498328	0.813306
N409	N	-0.147938	-0.037791	0.000150
N410	N	0.102062	0.212209	0.250150
N411	N	0.352062	0.462209	0.500150
N412	N	0.602062	0.712209	0.750150
H413	H	-0.169934	-0.042747	-0.063023
H414	H	0.080066	0.207253	0.186977
H415	H	0.330066	0.457253	0.436977
H416	H	0.580066	0.707253	0.686977
H417	H	-0.115596	-0.070312	0.000196
H418	H	0.134404	0.179688	0.250196
H419	H	0.384404	0.429688	0.500196
H420	H	0.634404	0.679688	0.750196
N421	N	0.492585	0.186071	0.000026
N422	N	0.742585	0.436071	0.250026
N423	N	0.992585	0.686071	0.500026
N424	N	1.242585	0.936071	0.750026
H425	H	0.460273	0.218627	0.000021
H426	H	0.710273	0.468627	0.250021
H427	H	0.960273	0.718627	0.500021
H428	H	1.210273	0.968627	0.750021
H429	H	0.514591	0.190974	0.063199
H430	H	0.764591	0.440974	0.313199
H431	H	1.014591	0.690974	0.563199
H432	H	1.264591	0.940974	0.813199
H433	H	0.404508	-0.017438	0.000098
H434	H	0.654508	0.232562	0.250098
H435	H	0.904508	0.482562	0.500098
H436	H	1.154508	0.732562	0.750098
N437	N	0.513220	-0.342342	0.000047
N438	N	0.763220	-0.092342	0.250047
N439	N	1.013220	0.157658	0.500047
N440	N	1.263220	0.407658	0.750047
H441	H	0.521598	-0.301278	0.000061
H442	H	0.771598	-0.051278	0.250061
H443	H	1.021598	0.198722	0.500061
H444	H	1.271598	0.448722	0.750061
H445	H	0.492756	-0.351968	-0.063134
H446	H	0.742756	-0.101968	0.186866
H447	H	0.992756	0.148032	0.436866
H448	H	1.242756	0.398032	0.686866
N449	N	0.832908	-0.385913	0.000130
N450	N	1.082908	-0.135913	0.250130
N451	N	1.332908	0.114087	0.500130
N452	N	1.582908	0.364087	0.750130
H453	H	0.865461	-0.418228	0.000132
H454	H	1.115461	-0.168228	0.250132
H455	H	1.365461	0.081772	0.500132
H456	H	1.615461	0.331772	0.750132
H457	H	0.837806	-0.363914	-0.063048
H458	H	1.087806	-0.113914	0.186952
H459	H	1.337806	0.136086	0.436952
H460	H	1.587806	0.386086	0.686952
N461	N	-0.177341	0.178067	0.000154
N462	N	0.072659	0.428067	0.250154
N463	N	0.322659	0.678067	0.500154
N464	N	0.572659	0.928067	0.750154
H465	H	-0.167773	0.198565	-0.063013
H466	H	0.082227	0.448565	0.186987
H467	H	0.332227	0.698565	0.436987
H468	H	0.582227	0.948565	0.686987
H469	H	-0.218392	0.169649	0.000216
H470	H	0.031608	0.419649	0.250216
H471	H	0.281608	0.669649	0.500216
H472	H	0.531608	0.919649	0.750216
H473	H	0.378849	0.170973	0.000071
H474	H	0.628849	0.420973	0.250071
H475	H	0.878849	0.670973	0.500071
H476	H	1.128849	0.920973	0.750071
N477	N	0.132387	-0.086444	0.000200
N478	N	0.382387	0.163556	0.250200
N479	N	0.632387	0.413556	0.500200
N480	N	0.882387	0.663556	0.750200
H481	H	0.089178	-0.079080	0.000201
H482	H	0.339178	0.170920	0.250201
H483	H	0.589178	0.420920	0.500201
H484	H	0.839178	0.670920	0.750201
H485	H	0.148197	-0.111338	-0.062969
H486	H	0.398197	0.138662	0.187031
H487	H	0.648197	0.388662	0.437031
H488	H	0.898197	0.638662	0.687031
H489	H	-0.059870	0.165721	0.000096
H490	H	0.190130	0.415721	0.250096
H491	H	0.440130	0.665721	0.500096
H492	H	0.690130	0.915721	0.750096
N493	N	0.212270	0.234726	0.000050
N494	N	0.462270	0.484726	0.250050
N495	N	0.712270	0.734726	0.500050
N496	N	0.962270	0.984726	0.750050
H497	H	0.179954	0.267278	0.000043
H498	H	0.429954	0.517278	0.250043
H499	H	0.679954	0.767278	0.500043
H500	H	0.929954	1.017278	0.750043
H501	H	0.234272	0.239631	0.063226
H502	H	0.484272	0.489631	0.313226
H503	H	0.734272	0.739631	0.563226
H504	H	0.984272	0.989631	0.813226
N505	N	0.831430	-0.509362	0.000114
N506	N	1.081430	-0.259362	0.250114
N507	N	1.331430	-0.009362	0.500114
N508	N	1.581430	0.240638	0.750114
H509	H	0.864649	-0.486008	0.000126
H510	H	1.114649	-0.236008	0.250126
H511	H	1.364649	0.013992	0.500126
H512	H	1.614649	0.263992	0.750126
H513	H	0.831059	-0.531975	0.063297
H514	H	1.081059	-0.281975	0.313297
H515	H	1.331059	-0.031975	0.563297
H516	H	1.581059	0.218025	0.813297
N517	N	0.777720	-0.652072	0.000097
N518	N	1.027720	-0.402072	0.250097
N519	N	1.277720	-0.152072	0.500097
N520	N	1.527720	0.097928	0.750097
H521	H	0.782674	-0.630081	-0.063079
H522	H	1.032674	-0.380081	0.186921
H523	H	1.282674	-0.130081	0.436921
H524	H	1.532674	0.119919	0.686921
H525	H	0.777955	-0.625432	0.063318
H526	H	1.027955	-0.375432	0.313318
H527	H	1.277955	-0.125432	0.563318
H528	H	1.527955	0.124568	0.813318
N529	N	0.776237	-0.775537	0.000074
N530	N	1.026237	-0.525537	0.250074
N531	N	1.276237	-0.275537	0.500074
N532	N	1.526237	-0.025537	0.750074
H533	H	0.809466	-0.752196	0.000082
H534	H	1.059466	-0.502196	0.250082
H535	H	1.309466	-0.252196	0.500082
H536	H	1.559466	-0.002196	0.750082
H537	H	0.775863	-0.798154	0.063251
H538	H	1.025863	-0.548154	0.313251
H539	H	1.275863	-0.298154	0.563251
H540	H	1.525863	-0.048154	0.813251
N541	N	0.560389	-0.746117	0.000066
N542	N	0.810389	-0.496117	0.250066
N543	N	1.060389	-0.246117	0.500066
N544	N	1.310389	0.003883	0.750066
H545	H	0.527834	-0.713803	0.000066
H546	H	0.777834	-0.463803	0.250066
H547	H	1.027834	-0.213803	0.500066
H548	H	1.277834	0.036197	0.750066
H549	H	0.560164	-0.772790	-0.063114
H550	H	0.810164	-0.522790	0.186886
H551	H	1.060164	-0.272790	0.436886
H552	H	1.310164	-0.022790	0.686886
N553	N	0.561866	-0.622662	0.000043
N554	N	0.811866	-0.372662	0.250043
N555	N	1.061866	-0.122662	0.500043
N556	N	1.311866	0.127338	0.750043
H557	H	0.528646	-0.646014	0.000039
H558	H	0.778646	-0.396014	0.250039
H559	H	1.028646	-0.146014	0.500039
H560	H	1.278646	0.103986	0.750039
H561	H	0.557559	-0.595372	0.063224
H562	H	0.807559	-0.345372	0.313224
H563	H	1.057559	-0.095372	0.563224
H564	H	1.307559	0.154628	0.813224
N565	N	0.511734	-0.465788	0.000023
N566	N	0.761734	-0.215788	0.250023
N567	N	1.011734	0.034212	0.500023
N568	N	1.261734	0.284212	0.750023
H569	H	0.491503	-0.454689	-0.063161
H570	H	0.741503	-0.204689	0.186839
H571	H	0.991503	0.045311	0.436839
H572	H	1.241503	0.295311	0.686839
H573	H	0.519138	-0.508992	0.000063
H574	H	0.769138	-0.258992	0.250063
H575	H	1.019138	-0.008992	0.500063
H576	H	1.269138	0.241008	0.750063
N577	N	0.566929	-0.199658	0.000101
N578	N	0.816929	0.050342	0.250101
N579	N	1.066929	0.300342	0.500101
N580	N	1.316929	0.550342	0.750101
H581	H	0.534372	-0.167347	0.000100
H582	H	0.784372	0.082653	0.250100
H583	H	1.034372	0.332653	0.500100
H584	H	1.284372	0.582653	0.750100
H585	H	0.566711	-0.226327	-0.063088
H586	H	0.816711	0.023673	0.186912
H587	H	1.066711	0.273673	0.436912
H588	H	1.316711	0.523673	0.686912
H589	H	0.582039	-0.085905	0.000113
H590	H	0.832039	0.164095	0.250113
H591	H	1.082039	0.414095	0.500113
H592	H	1.332039	0.664095	0.750113
