data_functionalizedCrystal
_audit_creation_method	'MofGen! by Chris Wilmer'
_symmetry_space_group_name_H-M	'P1'
_symmetry_Int_Tables_number	1
_symmetry_cell_setting	triclinic
loop_
_symmetry_equiv_pos_as_xyz
  x,y,z
_cell_length_a	12.645330
_cell_length_b	16.625547
_cell_length_c	16.625548
_cell_angle_alpha	89.985274
_cell_angle_beta	90.007257
_cell_angle_gamma	89.983122
loop_
_atom_site_label
_atom_site_type_symbol
_atom_site_fract_x
_atom_site_fract_y
_atom_site_fract_z
Zn1	Zn	-0.422238	-1.232609	0.456071
Zn2	Zn	-0.599472	-1.232553	0.321248
Zn3	Zn	-0.422220	-1.097800	0.321237
Zn4	Zn	-0.599458	-1.097753	0.456023
O5	O	-0.510847	-1.165179	0.388645
O6	O	-0.445762	-1.345434	0.438212
O7	O	-0.575957	-1.214674	0.208414
O8	O	-0.273875	-1.115726	0.339138
O9	O	-0.575975	-1.345392	0.339158
O10	O	-0.273889	-1.214770	0.438201
O11	O	-0.445731	-1.115671	0.208406
O12	O	-0.445718	-0.984961	0.339091
O13	O	-0.575951	-1.115645	0.568862
O14	O	-0.575933	-0.984926	0.438118
O15	O	-0.445748	-1.214724	0.568897
O16	O	-0.747817	-1.214628	0.339111
O17	O	-0.747807	-1.115591	0.438129
C18	C	-0.510823	-0.955688	0.388599
C19	C	-0.510838	-0.866067	0.388598
C20	C	-0.510839	-0.793284	0.388605
C21	C	-0.510843	-0.701976	0.388622
C22	C	-0.510851	-0.629199	0.388639
C23	C	-0.510857	-0.537885	0.388655
C24	C	-0.786277	-1.165120	0.388633
C25	C	-0.904107	-1.165168	0.388656
C26	C	-1.071708	-1.103121	0.451140
C27	C	-0.949149	-1.102804	0.450939
C28	C	-0.948666	-1.142185	0.303678
C29	C	-1.071265	-1.141806	0.304057
C30	C	-1.071206	-1.250579	0.410460
C31	C	-0.948600	-1.250055	0.412318
C32	C	-0.234342	-1.165260	0.388674
C33	C	-0.116512	-1.165294	0.388686
C34	C	-0.510850	-1.165186	0.598954
C35	C	-0.510851	-1.165189	0.688575
C36	C	-0.510868	-0.375487	0.388682
C37	C	-0.510865	-0.465109	0.388673
C38	C	-0.510861	-1.165155	1.016750
C39	C	-0.510861	-1.165162	0.925442
C40	C	-0.510857	-1.165172	0.852665
C41	C	-0.510856	-1.165179	0.761351
C42	C	-0.510865	-1.165164	1.179154
C43	C	-0.510858	-1.165156	1.089533
H44	H	-0.919021	-1.117181	0.513949
H45	H	-1.102075	-1.271548	0.471373
C46	C	-0.910356	-1.018458	0.431641
C47	C	-0.997305	-0.967583	0.420119
C48	C	-0.961611	-0.889878	0.402324
H49	H	-0.868673	-0.998967	0.474987
H50	H	-0.868856	-1.019749	0.384027
H51	H	-1.038788	-0.966290	0.467727
H52	H	-1.038997	-0.987048	0.376771
H53	H	-0.920112	-0.891169	0.354710
H54	H	-0.919928	-0.870396	0.445673
H55	H	-1.020600	-0.855352	0.394497
C56	C	-0.909991	-1.200746	0.239940
C57	C	-0.996926	-1.238442	0.203919
C58	C	-0.961347	-1.292415	0.145218
H59	H	-0.870929	-1.172394	0.200221
H60	H	-0.865958	-1.240152	0.264280
H61	H	-1.040941	-1.199043	0.179579
H62	H	-1.035997	-1.266810	0.243617
H63	H	-0.917314	-1.331821	0.169559
H64	H	-0.922285	-1.264057	0.105505
H65	H	-1.020325	-1.318004	0.120776
C66	C	-1.109889	-1.312456	0.349945
C67	C	-1.167874	-1.371991	0.389969
C68	C	-1.203519	-1.429004	0.334250
H69	H	-1.153681	-1.286890	0.311181
H70	H	-1.050935	-1.336324	0.323770
H71	H	-1.226821	-1.348125	0.416131
H72	H	-1.124105	-1.397577	0.428729
H73	H	-1.144564	-1.452872	0.308075
H74	H	-1.247306	-1.403431	0.295489
H75	H	-1.242857	-1.469409	0.361400
C76	C	-1.109583	-1.058741	0.279319
C77	C	-1.171212	-1.065073	0.209639
C78	C	-1.206512	-0.988567	0.186824
H79	H	-1.150871	-1.036225	0.321400
H80	H	-1.050428	-1.025065	0.269013
H81	H	-1.230359	-1.098736	0.219949
H82	H	-1.129947	-1.087575	0.167542
H83	H	-1.147357	-0.954891	0.176518
H84	H	-1.247795	-0.966057	0.228910
H85	H	-1.248323	-0.992852	0.139540
H86	H	-1.100903	-1.185126	0.255937
C87	C	-0.907925	-1.059949	0.278477
C88	C	-0.948440	-1.040436	0.202559
C89	C	-0.910924	-0.964690	0.179318
H90	H	-0.930043	-1.020757	0.316487
H91	H	-0.832867	-1.061001	0.276186
H92	H	-1.023481	-1.039378	0.204855
H93	H	-0.926325	-1.079608	0.164531
H94	H	-0.835866	-0.965742	0.177028
H95	H	-0.933044	-0.925505	0.217333
H96	H	-0.938400	-0.951444	0.127803
C97	C	-0.909993	-1.273110	0.495784
C98	C	-0.997012	-1.284611	0.546561
C99	C	-0.961492	-1.305819	0.623466
H100	H	-0.870190	-1.321474	0.492711
H101	H	-0.866684	-1.231318	0.516588
H102	H	-1.040303	-1.326399	0.525762
H103	H	-1.036824	-1.236256	0.549658
H104	H	-0.918184	-1.264028	0.644270
H105	H	-0.921689	-1.354182	0.620385
H106	H	-1.020528	-1.313618	0.657930
H107	H	-0.917934	-1.298815	0.370143
H108	H	-1.102602	-1.040290	0.436898
C109	C	-1.111122	-1.122210	0.535369
C110	C	-1.176371	-1.190181	0.532698
C111	C	-1.212720	-1.207783	0.610274
H112	H	-1.052532	-1.132519	0.569619
H113	H	-1.150129	-1.077734	0.555551
H114	H	-1.137366	-1.234648	0.512527
H115	H	-1.234977	-1.179891	0.498464
H116	H	-1.251726	-1.163307	0.630455
H117	H	-1.154124	-1.218088	0.644517
H118	H	-1.257003	-1.253898	0.608470
