data_functionalizedCrystal
_audit_creation_method	'MofGen! by Chris Wilmer'
_symmetry_space_group_name_H-M	'P1'
_symmetry_Int_Tables_number	1
_symmetry_cell_setting	triclinic
loop_
_symmetry_equiv_pos_as_xyz
  x,y,z
_cell_length_a	14.853566
_cell_length_b	14.853567
_cell_length_c	14.048226
_cell_angle_alpha	90.000185
_cell_angle_beta	89.997998
_cell_angle_gamma	83.634672
loop_
_atom_site_label
_atom_site_type_symbol
_atom_site_fract_x
_atom_site_fract_y
_atom_site_fract_z
O1	O	1.196366	0.117697	-0.079089
O2	O	0.933906	0.131720	-0.079104
O3	O	1.072147	-0.006521	-0.079099
O4	O	1.058126	0.255938	-0.079094
O5	O	1.072134	-0.006522	0.079222
O6	O	0.933893	0.131719	0.079217
O7	O	1.196353	0.117696	0.079232
Zn8	Zn	1.065121	0.124707	0.104361
Zn9	Zn	1.065138	0.124709	-0.104234
O10	O	1.058112	0.255937	0.079227
C11	C	1.071505	-0.040111	0.000059
C12	C	1.069601	-0.140194	0.000050
C13	C	0.900311	0.131084	0.000054
C14	C	0.800227	0.129181	0.000048
C15	C	0.979435	-0.552728	0.000063
C16	C	1.143668	-0.574009	0.000072
C17	C	1.145458	-0.479976	0.000067
C18	C	1.064236	-0.422313	0.000061
C19	C	0.981223	-0.458685	0.000061
C20	C	1.228470	-0.443597	0.000077
C21	C	1.230263	-0.349558	0.000072
C22	C	1.149040	-0.291894	0.000060
C23	C	1.066023	-0.328271	0.000058
C24	C	0.984801	-0.270608	0.000052
C25	C	0.901784	-0.306984	0.000044
C26	C	0.899999	-0.401021	0.000048
C27	C	1.150824	-0.197856	0.000056
C28	C	0.986588	-0.176566	0.000050
C29	C	0.377050	0.121131	-0.086236
C30	C	0.377057	0.121130	0.086372
C31	C	0.471091	0.122917	0.086369
C32	C	0.518108	0.123813	0.000062
C33	C	0.471092	0.122921	-0.086241
C34	C	0.518113	0.123819	0.172671
C35	C	0.612153	0.125607	0.172672
C36	C	0.659173	0.126496	0.086364
C37	C	0.612151	0.125603	0.000057
C38	C	0.659169	0.126499	-0.086250
C39	C	0.612149	0.125599	-0.172558
C40	C	0.518112	0.123810	-0.172549
C41	C	0.753210	0.128285	0.086355
C42	C	0.753211	0.128289	-0.086255
C43	C	1.229948	0.118332	0.000071
C44	C	1.330032	0.120235	0.000071
C45	C	1.058754	0.289526	0.000067
C46	C	1.060658	0.389610	0.000069
N47	N	1.065116	0.124706	0.246722
N48	N	1.065151	0.124703	-0.246594
C49	C	1.119858	0.179487	0.296540
C50	C	1.119870	0.179483	0.396198
C51	C	1.065133	0.124702	0.446036
C52	C	1.010389	0.069914	0.396210
C53	C	1.010383	0.069914	0.296555
C54	C	1.010404	0.069921	0.603925
C55	C	1.010408	0.069922	0.703587
C56	C	1.119891	0.179489	0.703568
C57	C	1.119885	0.179489	0.603912
C58	C	1.065139	0.124703	0.554094
H59	H	0.835653	-0.260023	0.000046
C60	C	1.240920	-0.158314	0.000261
C61	C	1.246745	-0.104960	0.081722
C62	C	1.329739	-0.068532	0.081947
H63	H	1.245130	-0.122015	-0.054887
H64	H	1.289062	-0.206100	0.000321
H65	H	1.198617	-0.057181	0.081653
H66	H	1.242552	-0.141239	0.136883
H67	H	1.377881	-0.116318	0.082007
H68	H	1.333942	-0.032237	0.026796
H69	H	1.333706	-0.032334	0.137222
C70	C	0.804087	0.129306	-0.180063
C71	C	0.742777	0.128158	-0.255639
C72	C	0.789609	0.129108	-0.342067
H73	H	0.847586	0.077491	-0.183790
H74	H	0.833934	0.182560	-0.183704
H75	H	0.712944	0.074911	-0.251999
H76	H	0.699277	0.179970	-0.251944
H77	H	0.819456	0.182362	-0.345708
H78	H	0.833106	0.077292	-0.345784
H79	H	0.748016	0.128338	-0.393355
C80	C	0.467194	0.122710	0.266438
C81	C	0.500128	0.045660	0.318522
C82	C	0.453246	0.044614	0.404911
H83	H	0.404450	0.121464	0.254208
H84	H	0.475812	0.175510	0.301950
H85	H	0.491503	-0.007126	0.283017
H86	H	0.562867	0.046889	0.330777
H87	H	0.461863	0.097414	0.440423
H88	H	0.390503	0.043371	0.392671
H89	H	0.475590	-0.007659	0.440264
H90	H	1.164452	0.224101	0.563337
C91	C	0.663224	0.126759	0.266344
C92	C	0.707154	0.205293	0.271402
C93	C	0.754203	0.206386	0.357682
H94	H	0.706779	0.074985	0.270017
H95	H	0.621777	0.126018	0.317773
H96	H	0.748598	0.206025	0.219986
H97	H	0.663620	0.257080	0.267745
H98	H	0.712755	0.205645	0.409112
H99	H	0.797753	0.154608	0.361348
H100	H	0.784008	0.259674	0.361129
H101	H	0.338768	0.120407	0.156639
H102	H	1.164426	0.224101	0.255970
C103	C	1.179329	0.239063	0.450114
C104	C	1.227239	0.287061	0.385139
C105	C	1.282014	0.341967	0.434771
H106	H	1.220855	0.202297	0.488989
H107	H	1.142452	0.280532	0.488974
H108	H	1.264113	0.245598	0.346296
H109	H	1.185735	0.323845	0.346262
H110	H	1.245137	0.383436	0.473630
H111	H	1.323535	0.305194	0.473644
H112	H	1.314521	0.374547	0.390693
H113	H	0.920446	-0.129622	0.000041
H114	H	1.164464	0.224102	0.744135
C115	C	0.951105	0.010282	0.757645
C116	C	0.975890	-0.080522	0.733423
C117	C	0.921287	-0.135490	0.783209
H118	H	0.889416	0.026793	0.741359
H119	H	0.958958	0.018068	0.824140
H120	H	0.968030	-0.088304	0.666942
H121	H	1.037570	-0.097061	0.749711
H122	H	0.929140	-0.127704	0.849705
H123	H	0.859601	-0.118971	0.766920
H124	H	0.938102	-0.197107	0.766789
H125	H	1.297861	-0.319950	0.000078
H126	H	0.479821	0.123077	-0.242817
H127	H	0.965826	0.025306	0.436796
H128	H	0.791487	0.129026	0.156626
H129	H	0.965825	0.025306	0.563366
H130	H	0.650442	0.126334	-0.242829
C131	C	0.809965	-0.440689	0.000098
C132	C	0.825787	-0.535385	0.000134
C133	C	0.742871	-0.571961	0.000197
H134	H	0.776448	-0.421013	-0.055098
H135	H	0.776508	-0.420952	0.055329
H136	H	0.859230	-0.555114	-0.055092
H137	H	0.859290	-0.555086	0.055326
H138	H	0.709413	-0.552224	0.055429
H139	H	0.709360	-0.552279	-0.055000
H140	H	0.753594	-0.636215	0.000230
C141	C	0.950848	0.010410	0.242634
C142	C	0.902894	-0.037547	0.307607
C143	C	0.848035	-0.092367	0.257972
H144	H	0.987643	-0.031089	0.203752
H145	H	0.909353	0.047260	0.203782
H146	H	0.944384	-0.074395	0.346443
H147	H	0.866082	0.003928	0.346491
H148	H	0.806540	-0.055517	0.219120
H149	H	0.884837	-0.133860	0.219092
H150	H	0.815485	-0.124906	0.302048
H151	H	0.911845	-0.582349	0.000053
C152	C	1.231819	-0.636656	-0.000114
C153	C	1.235604	-0.691256	-0.081574
C154	C	1.316803	-0.748973	-0.081786
H155	H	1.234616	-0.673863	0.055034
H156	H	1.281541	-0.601558	-0.000167
H157	H	1.185895	-0.726351	-0.081513
H158	H	1.232822	-0.654074	-0.136736
H159	H	1.366525	-0.713875	-0.081839
H160	H	1.319593	-0.786174	-0.026634
H161	H	1.319385	-0.786020	-0.137060
H162	H	1.294597	-0.490552	0.000091
C163	C	0.326174	0.120119	-0.180038
C164	C	0.387484	0.121269	-0.255619
C165	C	0.340651	0.120328	-0.342044
H166	H	0.282678	0.171937	-0.183757
H167	H	0.296323	0.066868	-0.183682
H168	H	0.417320	0.174514	-0.251977
H169	H	0.430981	0.069454	-0.251931
H170	H	0.310800	0.067077	-0.345687
H171	H	0.297156	0.172147	-0.345753
H172	H	0.382243	0.121099	-0.393335
