data_functionalizedCrystal
_audit_creation_method	'MofGen! by Chris Wilmer'
_symmetry_space_group_name_H-M	'P1'
_symmetry_Int_Tables_number	1
_symmetry_cell_setting	triclinic
loop_
_symmetry_equiv_pos_as_xyz
  x,y,z
_cell_length_a	14.853567
_cell_length_b	15.944551
_cell_length_c	13.930277
_cell_angle_alpha	89.994493
_cell_angle_beta	89.995755
_cell_angle_gamma	83.566834
loop_
_atom_site_label
_atom_site_type_symbol
_atom_site_fract_x
_atom_site_fract_y
_atom_site_fract_z
O1	O	1.196228	0.109664	-0.079767
O2	O	0.933751	0.122728	-0.079783
O3	O	1.072157	-0.006071	-0.079766
O4	O	1.057822	0.238463	-0.079784
O5	O	1.072138	-0.006073	0.079896
O6	O	0.933732	0.122725	0.079878
O7	O	1.196208	0.109662	0.079895
Zn8	Zn	1.064967	0.116193	0.105236
Zn9	Zn	1.064993	0.116197	-0.105125
O10	O	1.057803	0.238460	0.079878
C11	C	0.900154	0.122135	0.000045
C12	C	0.800072	0.120361	0.000039
C13	C	0.387646	0.036354	0.000067
C14	C	0.366169	0.189369	0.000055
C15	C	0.460201	0.191037	0.000051
C16	C	0.517960	0.115362	0.000055
C17	C	0.481687	0.038019	0.000061
C18	C	0.496480	0.268379	0.000035
C19	C	0.590517	0.270050	0.000031
C20	C	0.648278	0.194374	0.000041
C21	C	0.612000	0.117028	0.000049
C22	C	0.669759	0.041353	0.000052
C23	C	0.633483	-0.035994	0.000066
C24	C	0.539448	-0.037657	0.000071
C25	C	0.742313	0.196036	0.000036
C26	C	0.763800	0.043018	0.000046
C27	C	1.071552	-0.037367	0.000065
C28	C	1.069768	-0.130615	0.000065
C29	C	0.979713	-0.345572	0.000047
C30	C	1.021522	-0.406544	0.078772
C31	C	1.066541	-0.301344	0.000058
C32	C	1.021562	-0.406524	-0.078642
C33	C	1.063416	-0.466260	0.000046
C34	C	1.108373	-0.361088	0.078848
C35	C	1.108401	-0.361062	-0.078636
C36	C	1.150273	-0.422017	0.000109
C37	C	1.068338	-0.206340	0.000065
C38	C	1.061626	-0.561263	0.000046
C39	C	1.229806	0.110255	0.000064
C40	C	1.329887	0.112029	0.000064
C41	C	1.058407	0.269756	0.000044
C42	C	1.060191	0.363004	0.000038
N43	N	1.064957	0.116190	0.248803
N44	N	1.065010	0.116193	-0.248691
C45	C	1.003704	0.173206	0.701064
C46	C	1.126306	0.059181	0.701049
C47	C	1.126295	0.059178	0.600553
C48	C	1.064989	0.116191	0.550308
C49	C	1.003693	0.173207	0.600559
C50	C	1.187596	0.002169	0.550295
C51	C	1.187588	0.002164	0.449793
C52	C	1.126277	0.059174	0.399546
C53	C	1.064978	0.116192	0.449803
C54	C	1.003672	0.173205	0.399558
C55	C	0.942368	0.230220	0.449814
C56	C	0.942382	0.230217	0.550312
C57	C	1.126263	0.059177	0.299047
C58	C	1.003661	0.173206	0.299053
H59	H	0.358106	-0.026620	0.000082
O60	O	0.893678	-0.306061	0.000174
C61	C	0.831707	-0.366881	0.001059
H62	H	0.866102	-0.428628	0.031685
H63	H	0.770880	-0.343389	0.047521
H64	H	0.808025	-0.377807	-0.075312
H65	H	0.984790	-0.426694	0.145324
O66	O	1.152078	-0.337052	0.158310
C67	C	1.153216	-0.248753	0.157365
H68	H	1.095349	-0.218620	0.110706
H69	H	1.144682	-0.223314	0.233691
H70	H	1.220534	-0.232924	0.126935
O71	O	1.236375	-0.461367	0.000036
C72	C	1.282340	-0.437134	-0.082240
H73	H	1.248501	-0.373877	-0.109413
H74	H	1.355966	-0.431001	-0.063240
H75	H	1.279722	-0.486928	-0.140594
O76	O	0.309938	0.262798	0.000094
C77	C	0.219161	0.244743	0.000072
H78	H	0.215549	0.178761	0.030301
H79	H	0.176560	0.292968	0.046426
H80	H	0.191970	0.247900	-0.076525
H81	H	1.176224	0.012766	0.741962
H82	H	1.145102	-0.340890	-0.145191
H83	H	0.984834	-0.426641	-0.145203
H84	H	0.953734	0.219631	0.258150
O85	O	0.625865	0.345125	0.000141
C86	C	0.679599	0.350680	0.082837
H87	H	0.703004	0.284505	0.110420
H88	H	0.741184	0.384223	0.064225
H89	H	0.638061	0.387804	0.140734
H90	H	0.892456	0.276644	0.408893
O91	O	0.944120	0.228472	0.749983
C92	C	0.888494	0.183389	0.808109
H93	H	0.924400	0.117722	0.823165
H94	H	0.874236	0.218422	0.878780
H95	H	0.821865	0.177568	0.769387
O96	O	1.247015	-0.053292	0.599152
C97	C	1.198728	-0.105175	0.657312
H98	H	1.127637	-0.106717	0.627024
H99	H	1.235507	-0.171878	0.658468
H100	H	1.193996	-0.078888	0.733473
O101	O	0.440282	0.341827	-0.000095
C102	C	0.385256	0.345446	-0.082790
H103	H	0.380502	0.278769	-0.110351
H104	H	0.314582	0.376647	-0.064185
H105	H	0.416187	0.383849	-0.140701
O106	O	0.882805	0.285484	0.599239
C107	C	0.827186	0.240403	0.657376
H108	H	0.863092	0.174734	0.672425
H109	H	0.812942	0.275436	0.728049
H110	H	0.760550	0.234586	0.618667
O111	O	0.777447	0.271212	-0.000107
C112	C	0.747959	0.317337	-0.082816
H113	H	0.682738	0.294373	-0.110380
H114	H	0.734917	0.387272	-0.064230
H115	H	0.802376	0.307664	-0.140718
O116	O	0.689558	-0.109525	-0.000104
C117	C	0.673099	-0.156488	-0.082775
H118	H	0.640953	-0.112183	-0.140570
H119	H	0.739814	-0.190088	-0.110539
H120	H	0.625222	-0.205167	-0.064066
O121	O	1.247164	-0.053302	0.401129
C122	C	1.301292	-0.103607	0.467028
H123	H	1.264341	-0.104614	0.538678
H124	H	1.315038	-0.170666	0.438001
H125	H	1.368263	-0.076219	0.477695
H126	H	1.176179	0.012760	0.258134
H127	H	0.810822	-0.018607	0.000052
H128	H	0.509903	-0.100629	0.000105
