data_functionalizedCrystal
_audit_creation_method	'MofGen! by Chris Wilmer'
_symmetry_space_group_name_H-M	'P1'
_symmetry_Int_Tables_number	1
_symmetry_cell_setting	triclinic
loop_
_symmetry_equiv_pos_as_xyz
  x,y,z
_cell_length_a	21.295411
_cell_length_b	12.759401
_cell_length_c	21.295417
_cell_angle_alpha	89.967968
_cell_angle_beta	89.978356
_cell_angle_gamma	90.022735
loop_
_atom_site_label
_atom_site_type_symbol
_atom_site_fract_x
_atom_site_fract_y
_atom_site_fract_z
Zn1	Zn	-0.355881	-1.606170	-0.250655
Zn2	Zn	0.144119	-1.106170	0.249345
Zn3	Zn	-0.250606	-1.606007	-0.355907
Zn4	Zn	0.249394	-1.106007	0.144093
Zn5	Zn	-0.250629	-1.430463	-0.250659
Zn6	Zn	0.249371	-0.930463	0.249341
Zn7	Zn	-0.355841	-1.430412	-0.355893
Zn8	Zn	0.144159	-0.930412	0.144107
O9	O	-0.303239	-1.518263	-0.303279
O10	O	0.196761	-1.018263	0.196721
O11	O	-0.341923	-1.753169	-0.264622
O12	O	0.158077	-1.253169	0.235378
O13	O	-0.162520	-1.582674	-0.341953
O14	O	0.337480	-1.082674	0.158047
O15	O	-0.264617	-1.453860	-0.162569
O16	O	0.235383	-0.953860	0.337431
O17	O	-0.264578	-1.753049	-0.341950
O18	O	0.235422	-1.253049	0.158050
O19	O	-0.341945	-1.582951	-0.162566
O20	O	0.158055	-1.082951	0.337434
O21	O	-0.162537	-1.453702	-0.264627
O22	O	0.337463	-0.953702	0.235373
O23	O	-0.264579	-1.283435	-0.264614
O24	O	0.235421	-0.783435	0.235386
O25	O	-0.443936	-1.453773	-0.341926
O26	O	0.056064	-0.953773	0.158074
O27	O	-0.341878	-1.283397	-0.341929
O28	O	0.158122	-0.783397	0.158071
O29	O	-0.443965	-1.582902	-0.264608
O30	O	0.056035	-1.082902	0.235392
O31	O	-0.264540	-1.582624	-0.443995
O32	O	0.235460	-1.082624	0.056005
O33	O	-0.341855	-1.453615	-0.443985
O34	O	0.158145	-0.953615	0.056015
C35	C	-0.303227	-1.245295	-0.303271
C36	C	0.196773	-0.745295	0.196729
C37	C	-0.303236	-1.128519	-0.303283
C38	C	0.196764	-0.628519	0.196717
C39	C	-0.467430	-1.518350	-0.303265
C40	C	0.032570	-1.018350	0.196735
C41	C	-0.537398	-1.518387	-0.303260
C42	C	-0.037398	-1.018387	0.196740
C43	C	-0.303204	-1.518125	-0.466830
C44	C	0.196796	-1.018125	0.033170
C45	C	-0.303211	-1.518162	-0.536798
C46	C	0.196789	-1.018162	-0.036798
C47	C	-0.570281	-1.585621	-0.262998
C48	C	-0.070281	-1.085621	0.237002
C49	C	-0.636023	-1.585620	-0.262971
C50	C	-0.136023	-1.085620	0.237029
C51	C	-0.668880	-1.518395	-0.303216
C52	C	-0.168880	-1.018395	0.196784
C53	C	-0.635990	-1.451148	-0.343480
C54	C	-0.135990	-0.951148	0.156520
C55	C	-0.570248	-1.451144	-0.343502
C56	C	-0.070248	-0.951144	0.156498
N57	N	-0.772096	-1.510289	-0.358284
N58	N	-0.272096	-1.010289	0.141716
N59	N	-0.834547	-1.510299	-0.358262
N60	N	-0.334547	-1.010299	0.141738
C61	C	-0.866955	-1.518402	-0.303152
C62	C	-0.366955	-1.018402	0.196848
N63	N	-0.834552	-1.526514	-0.248065
N64	N	-0.334552	-1.026514	0.251935
N65	N	-0.772095	-1.526510	-0.248088
N66	N	-0.272095	-1.026510	0.251912
C67	C	-0.740166	-1.518392	-0.303197
C68	C	-0.240166	-1.018392	0.196803
C69	C	-0.971124	-1.585638	-0.262858
C70	C	-0.471124	-1.085638	0.237142
C71	C	-1.036867	-1.585629	-0.262830
C72	C	-0.536867	-1.085629	0.237170
C73	C	-1.036833	-1.451163	-0.343345
C74	C	-0.536833	-0.951163	0.156655
C75	C	-0.971090	-1.451166	-0.343368
C76	C	-0.471090	-0.951166	0.156632
C77	C	-0.938240	-1.518409	-0.303125
C78	C	-0.438240	-1.018409	0.196875
C79	C	-0.139688	-1.518236	-0.303246
C80	C	0.360312	-1.018236	0.196754
C81	C	-0.069720	-1.518403	-0.303075
C82	C	0.430280	-1.018403	0.196925
C83	C	-0.303252	-1.792296	-0.303287
C84	C	0.196748	-1.292296	0.196713
C85	C	-0.303258	-1.909073	-0.303290
C86	C	0.196742	-1.409073	0.196710
C87	C	-0.343423	-1.073665	-0.343602
C88	C	0.156577	-0.573665	0.156398
C89	C	-0.343435	-0.963941	-0.343605
C90	C	0.156565	-0.463941	0.156395
C91	C	-0.263070	-0.963934	-0.262966
C92	C	0.236930	-0.463934	0.237034
C93	C	-0.263061	-1.073656	-0.262961
C94	C	0.236939	-0.573656	0.237039
C95	C	-0.262994	-1.585397	-0.569649
C96	C	0.237006	-1.085397	-0.069649
C97	C	-0.263008	-1.585446	-0.635392
C98	C	0.236992	-1.085446	-0.135392
C99	C	-0.303232	-1.518242	-0.668281
C100	C	0.196768	-1.018242	-0.168281
C101	C	-0.343457	-1.451002	-0.635422
C102	C	0.156543	-0.951002	-0.135422
C103	C	-0.343446	-1.450963	-0.569681
C104	C	0.156554	-0.950963	-0.069681
N105	N	-0.308027	-1.426335	-0.771549
N106	N	0.191973	-0.926335	-0.271549
N107	N	-0.308034	-1.426376	-0.834000
N108	N	0.191966	-0.926376	-0.334000
C109	C	-0.303268	-1.518360	-0.866356
C110	C	0.196732	-1.018360	-0.366356
N111	N	-0.298484	-1.610303	-0.833900
N112	N	0.201516	-1.110303	-0.333900
N113	N	-0.298474	-1.610261	-0.771443
N114	N	0.201526	-1.110261	-0.271443
C115	C	-0.303249	-1.518278	-0.739566
C116	C	0.196751	-1.018278	-0.239566
C117	C	-0.263065	-1.585653	-0.970492
C118	C	0.236935	-1.085653	-0.470492
C119	C	-0.263083	-1.585704	-1.036236
C120	C	0.236917	-1.085704	-0.536236
C121	C	-0.343529	-1.451251	-1.036265
C122	C	0.156471	-0.951251	-0.536265
C123	C	-0.343514	-1.451210	-0.970522
C124	C	0.156486	-0.951210	-0.470522
C125	C	-0.303278	-1.518409	-0.937640
C126	C	0.196722	-1.018409	-0.437640
C127	C	-0.303288	-1.518430	-0.139088
C128	C	0.196712	-1.018430	0.360912
C129	C	-0.303309	-1.518501	-0.069120
C130	C	0.196691	-1.018501	0.430880
H131	H	-0.543538	-1.640375	-0.230229
H132	H	-0.043538	-1.140375	0.269771
H133	H	-0.230359	-0.919252	-0.230139
H134	H	0.269641	-0.419252	0.269861
H135	H	-0.230233	-1.640117	-0.542879
H136	H	0.269767	-1.140117	-0.042879
N137	N	-0.219706	-1.658225	-1.071674
N138	N	0.280294	-1.158225	-0.571674
H139	H	-0.229515	-1.733277	-1.060184
H140	H	0.270485	-1.233277	-0.560184
H141	H	-0.174736	-1.641839	-1.060256
H142	H	0.325264	-1.141839	-0.560256
N143	N	-0.671498	-1.658152	-0.219551
N144	N	-0.171498	-1.158152	0.280449
H145	H	-0.718130	-1.647951	-0.225646
H146	H	-0.218130	-1.147951	0.274354
H147	H	-0.660009	-1.641856	-0.174594
H148	H	-0.160009	-1.141856	0.325406
H149	H	-0.376209	-1.396286	-0.662204
H150	H	0.123791	-0.896286	-0.162204
N151	N	-0.935630	-1.378631	-0.386791
N152	N	-0.435630	-0.878631	0.113209
H153	H	-0.947071	-1.394891	-0.431767
H154	H	-0.447071	-0.894891	0.068233
H155	H	-0.889008	-1.388845	-0.380648
H156	H	-0.389008	-0.888845	0.119352
H157	H	-0.230258	-1.640200	-0.662144
H158	H	0.269742	-1.140200	-0.162144
N159	N	-0.386755	-1.132834	-0.387090
N160	N	0.113245	-0.632834	0.112910
H161	H	-0.431752	-1.113789	-0.377380
H162	H	0.068248	-0.613789	0.122620
H163	H	-0.380598	-1.210648	-0.380952
H164	H	0.119402	-0.710648	0.119048
H165	H	-0.662746	-1.396410	-0.376246
H166	H	-0.162746	-0.896410	0.123754
H167	H	-0.376160	-0.919283	-0.376436
H168	H	0.123840	-0.419283	0.123564
N169	N	-0.935680	-1.658159	-0.219461
N170	N	-0.435680	-1.158159	0.280539
H171	H	-0.947108	-1.641896	-0.174476
H172	H	-0.447108	-1.141896	0.325524
H173	H	-0.889056	-1.647919	-0.225649
H174	H	-0.389056	-1.147919	0.274351
H175	H	-0.230337	-1.118320	-0.230124
H176	H	0.269663	-0.618320	0.269876
N177	N	-0.386824	-1.378441	-0.534244
N178	N	0.113176	-0.878441	-0.034244
H179	H	-0.412311	-1.335874	-0.565052
H180	H	0.087689	-0.835874	-0.065052
H181	H	-0.361167	-1.329824	-0.507011
H182	H	0.138833	-0.829824	-0.007011
H183	H	-0.230304	-1.640375	-0.943718
H184	H	0.269696	-1.140375	-0.443718
N185	N	-0.386921	-1.378773	-1.071728
N186	N	0.113079	-0.878773	-0.571728
H187	H	-0.380827	-1.389002	-1.118360
H188	H	0.119173	-0.889002	-0.618360
H189	H	-0.377082	-1.303739	-1.060285
H190	H	0.122918	-0.803739	-0.560285
N191	N	-0.386887	-1.378684	-0.935085
N192	N	0.113113	-0.878684	-0.435085
H193	H	-0.412371	-1.336115	-0.965894
H194	H	0.087629	-0.836115	-0.465894
H195	H	-0.361230	-1.330070	-0.907850
H196	H	0.138770	-0.830070	-0.407850
H197	H	-0.543476	-1.396389	-0.376287
H198	H	-0.043476	-0.896389	0.123713
N199	N	-1.072337	-1.658131	-0.219392
N200	N	-0.572337	-1.158131	0.280608
H201	H	-1.041548	-1.700722	-0.193902
H202	H	-0.541548	-1.200722	0.306098
H203	H	-1.099630	-1.706725	-0.245002
H204	H	-0.599630	-1.206725	0.254998
N205	N	-1.072262	-1.378645	-0.386748
N206	N	-0.572262	-0.878645	0.113252
H207	H	-1.118899	-1.388846	-0.380624
H208	H	-0.618899	-0.888846	0.119376
H209	H	-1.060774	-1.394948	-0.431711
H210	H	-0.560774	-0.894948	0.068289
