data_functionalizedCrystal
_audit_creation_method	'MofGen! by Chris Wilmer'
_symmetry_space_group_name_H-M	'P1'
_symmetry_Int_Tables_number	1
_symmetry_cell_setting	triclinic
loop_
_symmetry_equiv_pos_as_xyz
  x,y,z
_cell_length_a	14.853567
_cell_length_b	19.188930
_cell_length_c	13.930277
_cell_angle_alpha	89.990320
_cell_angle_beta	89.995755
_cell_angle_gamma	83.389856
loop_
_atom_site_label
_atom_site_type_symbol
_atom_site_fract_x
_atom_site_fract_y
_atom_site_fract_z
O1	O	1.195862	0.091155	-0.079776
O2	O	1.695862	0.591155	0.420224
O3	O	0.933342	0.102014	-0.079794
O4	O	1.433342	0.602014	0.420206
O5	O	1.072177	-0.005046	-0.079766
O6	O	1.572177	0.494954	0.420234
O7	O	1.057026	0.198215	-0.079804
O8	O	1.557026	0.698215	0.420196
O9	O	1.072158	-0.005048	0.079896
O10	O	1.572158	0.494952	0.579896
O11	O	0.933322	0.102012	0.079868
O12	O	1.433322	0.602012	0.579868
O13	O	1.195842	0.091153	0.079886
O14	O	1.695842	0.591153	0.579886
Zn15	Zn	1.064579	0.096582	0.105227
Zn16	Zn	1.564579	0.596582	0.605227
Zn17	Zn	1.064605	0.096585	-0.105135
Zn18	Zn	1.564605	0.596585	0.394865
O19	O	1.057007	0.198213	0.079858
O20	O	1.557007	0.698213	0.579858
C21	C	0.899746	0.101521	0.000035
C22	C	1.399746	0.601521	0.500035
C23	C	0.799671	0.100046	0.000029
C24	C	1.299671	0.600046	0.500029
C25	C	0.387525	0.030218	0.000064
C26	C	0.887525	0.530218	0.500064
C27	C	0.365537	0.157407	0.000039
C28	C	0.865537	0.657407	0.500039
C29	C	0.459563	0.158794	0.000036
C30	C	0.959563	0.658794	0.500036
C31	C	0.517574	0.095891	0.000045
C32	C	1.017574	0.595891	0.500045
C33	C	0.481560	0.031602	0.000058
C34	C	0.981560	0.531602	0.500058
C35	C	0.495585	0.223081	0.000013
C36	C	0.995585	0.723081	0.500013
C37	C	0.589616	0.224470	0.000009
C38	C	1.089616	0.724470	0.500009
C39	C	0.647629	0.161567	0.000025
C40	C	1.147629	0.661567	0.500025
C41	C	0.611610	0.097276	0.000039
C42	C	1.111610	0.597276	0.500039
C43	C	0.669621	0.034373	0.000048
C44	C	1.169621	0.534373	0.500048
C45	C	0.633603	-0.029919	0.000069
C46	C	1.133603	0.470081	0.500069
C47	C	0.539574	-0.031301	0.000074
C48	C	1.039574	0.468699	0.500074
C49	C	0.741659	0.162949	0.000020
C50	C	1.241659	0.662949	0.500020
C51	C	0.763656	0.035757	0.000042
C52	C	1.263656	0.535757	0.500042
C53	C	1.071677	-0.031060	0.000068
C54	C	1.571677	0.468940	0.500068
C55	C	1.070204	-0.108569	0.000076
C56	C	1.570204	0.391431	0.500076
C57	C	1.151668	-0.153221	0.000086
C58	C	1.651668	0.346779	0.500086
C59	C	1.150285	-0.226050	0.000071
C60	C	1.650285	0.273950	0.500071
C61	C	1.067432	-0.254223	0.000065
C62	C	1.567432	0.245777	0.500065
C63	C	0.985957	-0.209561	0.000049
C64	C	1.485957	0.290439	0.500049
C65	C	0.987343	-0.136734	0.000055
C66	C	1.487343	0.363266	0.500055
N67	N	1.004095	-0.362440	0.054396
N68	N	1.504095	0.137560	0.554396
N69	N	1.002783	-0.431623	0.054393
N70	N	1.502783	0.068377	0.554393
C71	C	1.063251	-0.473645	0.000045
C72	C	1.563251	0.026355	0.500045
N73	N	1.125093	-0.443873	-0.054287
N74	N	1.625093	0.056127	0.445713
N75	N	1.126407	-0.374684	-0.054279
N76	N	1.626407	0.125316	0.445721
C77	C	1.065920	-0.333190	0.000058
C78	C	1.565920	0.166810	0.500058
C79	C	1.143220	-0.597267	0.000037
C80	C	1.643220	-0.097267	0.500037
C81	C	1.141833	-0.670096	0.000015
C82	C	1.641833	-0.170096	0.500015
C83	C	0.977503	-0.653606	0.000003
C84	C	1.477503	-0.153606	0.500003
C85	C	0.978893	-0.580778	0.000015
C86	C	1.478893	-0.080778	0.500015
C87	C	1.061754	-0.552613	0.000036
C88	C	1.561754	-0.052613	0.500036
C89	C	1.229438	0.091646	0.000055
C90	C	1.729438	0.591646	0.500055
C91	C	1.329513	0.093120	0.000055
C92	C	1.829513	0.593120	0.500055
C93	C	1.057507	0.224226	0.000022
C94	C	1.557507	0.724226	0.500022
C95	C	1.058980	0.301736	0.000008
C96	C	1.558980	0.801736	0.500008
N97	N	1.064569	0.096579	0.248793
N98	N	1.564569	0.596579	0.748793
N99	N	1.064623	0.096582	-0.248701
N100	N	1.564623	0.596582	0.251299
C101	C	1.003126	0.143972	0.701050
C102	C	1.503126	0.643972	1.201050
C103	C	1.126108	0.049192	0.701044
C104	C	1.626108	0.549192	1.201044
C105	C	1.126098	0.049190	0.600548
C106	C	1.626098	0.549190	1.100548
C107	C	1.064601	0.096580	0.550299
C108	C	1.564601	0.596580	1.050299
C109	C	1.003115	0.143973	0.600545
C110	C	1.503115	0.643973	1.100545
C111	C	1.187588	0.001803	0.550295
C112	C	1.687588	0.501803	1.050295
C113	C	1.187581	0.001799	0.449793
C114	C	1.687581	0.501799	0.949793
C115	C	1.126079	0.049187	0.399541
C116	C	1.626079	0.549187	0.899541
C117	C	1.064590	0.096581	0.449794
C118	C	1.564590	0.596581	0.949794
C119	C	1.003094	0.143971	0.399544
C120	C	1.503094	0.643971	0.899544
C121	C	0.941600	0.191363	0.449794
C122	C	1.441600	0.691363	0.949794
C123	C	0.941614	0.191361	0.550293
C124	C	1.441614	0.691361	1.050293
C125	C	1.126065	0.049189	0.299043
C126	C	1.626065	0.549189	0.799043
C127	C	1.003083	0.143972	0.299039
C128	C	1.503083	0.643972	0.799039
H129	H	0.318299	0.208620	0.000023
H130	H	0.818299	0.708620	0.500023
C131	C	0.431774	0.292267	0.000007
C132	C	0.931774	0.792267	0.500007
H133	H	0.370615	0.282233	0.000027
H134	H	0.870615	0.782233	0.500027
H135	H	0.442659	0.318628	-0.055676
H136	H	0.942659	0.818628	0.444324
H137	H	0.442669	0.318621	0.055686
H138	H	0.942669	0.818621	0.555686
H139	H	0.910043	-0.676543	-0.000007
H140	H	1.410043	-0.176543	0.499993
H141	H	0.770981	0.215294	0.000005
H142	H	1.270981	0.715294	0.500005
C143	C	0.873986	0.243491	0.605569
C144	C	1.373986	0.743491	1.105569
H145	H	0.882810	0.236708	0.672619
H146	H	1.382810	0.736708	1.172619
H147	H	0.813847	0.235827	0.589120
H148	H	1.313847	0.735827	1.089120
H149	H	0.883597	0.290104	0.589083
H150	H	1.383597	0.790104	1.089083
C151	C	0.935440	0.196103	0.243767
C152	C	1.435440	0.696103	0.743767
H153	H	0.944236	0.189317	0.176716
H154	H	1.444236	0.689317	0.676716
H155	H	0.945043	0.242715	0.260230
H156	H	1.445043	0.742715	0.760230
H157	H	0.875303	0.188430	0.260247
H158	H	1.375303	0.688430	0.760247
H159	H	0.912556	-0.544421	0.000012
H160	H	1.412556	-0.044421	0.500012
C161	C	0.873959	0.243490	0.394513
C162	C	1.373959	0.743490	0.894513
H163	H	0.882763	0.236698	0.327464
H164	H	1.382763	0.736698	0.827464
H165	H	0.883558	0.290103	0.410971
H166	H	1.383558	0.790103	0.910971
H167	H	0.813821	0.235816	0.410988
H168	H	1.313821	0.735816	0.910988
C169	C	1.242812	-0.122244	0.000093
C170	C	1.742812	0.377756	0.500093
H171	H	1.291131	-0.159272	0.000087
H172	H	1.791131	0.340728	0.500087
H173	H	1.246766	-0.094182	0.055769
H174	H	1.746766	0.405818	0.555769
H175	H	1.246772	-0.094172	-0.055593
H176	H	1.746772	0.405828	0.444407
H177	H	0.953056	0.182556	0.741966
H178	H	1.453056	0.682556	1.241966
C179	C	1.193748	-0.002936	0.756311
C180	C	1.693748	0.497064	1.256311
H181	H	1.230366	-0.031159	0.711991
H182	H	1.730366	0.468841	1.211991
H183	H	1.161436	-0.032043	0.795531
H184	H	1.661436	0.467957	1.295531
H185	H	1.231184	0.022236	0.795500
H186	H	1.731184	0.522236	1.295500
H187	H	1.216625	-0.262413	0.000075
H188	H	1.716625	0.237587	0.500075
H189	H	0.358195	-0.022127	0.000085
H190	H	0.858195	0.477873	0.500085
H191	H	0.618933	0.276821	-0.000008
H192	H	1.118933	0.776821	0.499992
H193	H	0.918498	-0.232504	0.000042
H194	H	1.418498	0.267496	0.500042
H195	H	1.237662	-0.036778	0.591211
H196	H	1.737662	0.463222	1.091211
C197	C	1.193699	-0.002932	0.243767
C198	C	1.693699	0.497068	0.743767
H199	H	1.184888	0.003857	0.176716
H200	H	1.684888	0.503857	0.676716
H201	H	1.184105	-0.049545	0.260252
H202	H	1.684105	0.450455	0.760252
H203	H	1.253837	0.004746	0.260221
H204	H	1.753837	0.504746	0.760221
C205	C	1.255212	-0.050334	0.394526
C206	C	1.755212	0.449666	0.894526
H207	H	1.291833	-0.078561	0.438848
H208	H	1.791833	0.421439	0.938848
H209	H	1.292634	-0.025169	0.355301
H210	H	1.792634	0.474831	0.855301
H211	H	1.222885	-0.079448	0.355342
H212	H	1.722885	0.420552	0.855342
H213	H	0.921003	-0.100377	0.000047
H214	H	1.421003	0.399623	0.500047
H215	H	0.810884	-0.015466	0.000053
H216	H	1.310884	0.484534	0.500053
H217	H	0.680849	-0.081134	0.000070
H218	H	1.180849	0.418866	0.500070
H219	H	0.510239	-0.083644	0.000114
H220	H	1.010239	0.416356	0.500114
H221	H	1.210691	-0.574334	0.000050
H222	H	1.710691	-0.074334	0.500050
C223	C	1.231449	-0.719215	0.000028
C224	C	1.731449	-0.219215	0.500028
H225	H	1.280992	-0.692007	0.000051
H226	H	1.780992	-0.192007	0.500051
H227	H	1.234339	-0.747959	-0.055652
H228	H	1.734339	-0.247959	0.444348
H229	H	1.234309	-0.747975	0.055711
H230	H	1.734309	-0.247975	0.555711
