data_functionalizedCrystal
_audit_creation_method	'MofGen! by Chris Wilmer'
_symmetry_space_group_name_H-M	'P1'
_symmetry_Int_Tables_number	1
_symmetry_cell_setting	triclinic
loop_
_symmetry_equiv_pos_as_xyz
  x,y,z
_cell_length_a	14.908993
_cell_length_b	21.295417
_cell_length_c	14.908308
_cell_angle_alpha	93.261727
_cell_angle_beta	96.370715
_cell_angle_gamma	93.331516
loop_
_atom_site_label
_atom_site_type_symbol
_atom_site_fract_x
_atom_site_fract_y
_atom_site_fract_z
Zn1	Zn	1.354190	-0.213421	-0.432025
Zn2	Zn	1.362805	-0.312255	-0.280663
Zn3	Zn	1.211564	-0.213451	-0.289404
Zn4	Zn	1.202773	-0.325107	-0.440692
O5	O	1.282833	-0.266058	-0.360696
O6	O	1.481997	-0.221140	-0.404661
O7	O	1.350027	-0.293782	-0.155162
O8	O	1.230557	-0.125356	-0.308354
O9	O	1.488326	-0.293753	-0.293456
O10	O	1.335344	-0.125334	-0.413137
O11	O	1.238910	-0.221191	-0.161584
O12	O	1.083734	-0.233653	-0.316758
O13	O	1.215575	-0.315658	-0.566203
O14	O	1.077276	-0.315687	-0.427909
O15	O	1.326820	-0.233602	-0.559835
O16	O	1.341503	-0.402051	-0.301860
O17	O	1.223929	-0.411493	-0.419433
C18	C	1.047662	-0.276068	-0.374223
C19	C	0.947054	-0.280367	-0.380031
C20	C	0.764664	-0.202908	-0.275365
C21	C	0.670134	-0.206945	-0.280820
C22	C	0.663462	-0.292479	-0.396389
C23	C	0.757992	-0.288442	-0.390934
C24	C	0.808590	-0.243655	-0.330422
C25	C	0.903122	-0.239616	-0.324972
C26	C	0.896448	-0.325152	-0.440536
C27	C	0.801918	-0.329189	-0.445991
C28	C	1.282720	-0.429613	-0.360657
C29	C	1.282753	-0.499580	-0.360665
C30	C	1.337280	-0.532381	-0.415270
C31	C	1.337311	-0.598123	-0.415290
C32	C	1.282825	-0.631061	-0.360690
C33	C	1.228287	-0.598252	-0.306082
C34	C	1.228251	-0.532512	-0.306070
N35	N	1.280562	-0.731243	-0.281869
N36	N	1.280601	-0.793694	-0.281883
C37	C	1.282928	-0.829133	-0.360725
N38	N	1.285232	-0.799761	-0.439552
N39	N	1.285198	-0.737305	-0.439537
C40	C	1.282857	-0.702345	-0.360697
C41	C	1.337492	-0.933219	-0.415356
C42	C	1.337516	-0.998963	-0.415378
C43	C	1.228497	-0.999089	-0.306162
C44	C	1.228467	-0.933347	-0.306148
C45	C	1.282970	-0.900416	-0.360743
C46	C	1.518922	-0.256010	-0.347117
C47	C	1.619529	-0.251728	-0.341330
C48	C	1.269256	-0.276060	-0.596779
C49	C	1.263470	-0.280322	-0.697384
C50	C	1.282970	-0.101865	-0.360754
C51	C	1.283028	-0.031895	-0.360778
C52	C	1.368435	-0.202873	-0.879802
C53	C	1.363002	-0.206875	-0.974329
C54	C	1.247166	-0.292326	-0.980966
C55	C	1.252600	-0.288324	-0.886439
C56	C	1.313237	-0.243596	-0.835860
C57	C	1.318675	-0.239597	-0.741332
C58	C	1.202835	-0.325045	-0.747971
C59	C	1.197401	-0.329047	-0.842498
C60	C	1.296409	-0.256048	-0.125528
C61	C	1.302371	-0.251601	-0.024914
H62	H	0.932222	-0.358328	-0.485372
H63	H	1.381918	-1.025668	-0.459847
O64	O	1.377474	-0.196065	-0.692245
C65	C	1.423178	-0.085888	-0.660876
C66	C	1.356517	-0.135124	-0.716506
H67	H	1.406270	-0.036608	-0.680484
H68	H	1.417582	-0.089965	-0.585755
H69	H	1.495083	-0.094649	-0.675250
H70	H	1.284584	-0.126395	-0.702209
H71	H	1.362192	-0.131036	-0.791609
H72	H	1.197798	-0.328741	-1.022164
H73	H	0.944317	-0.203144	-0.275705
O74	O	0.813685	-0.159388	-0.216509
C75	C	0.810328	-0.074951	-0.102493
C76	C	0.754705	-0.124217	-0.169096
H77	H	0.762665	-0.046493	-0.064156
H78	H	0.857260	-0.099876	-0.052481
H79	H	0.852245	-0.041980	-0.141589
H80	H	0.712735	-0.157202	-0.130077
H81	H	0.707829	-0.099250	-0.219108
H82	H	1.183847	-0.505804	-0.261604
O83	O	1.390442	-0.901325	-0.468483
C84	C	1.498599	-0.908135	-0.576786
C85	C	1.438665	-0.944330	-0.516675
H86	H	1.537618	-0.942887	-0.615751
H87	H	1.454301	-0.881163	-0.626520
H88	H	1.548300	-0.873546	-0.532534
H89	H	1.388956	-0.978951	-0.560855
H90	H	1.483020	-0.971259	-0.466936
H91	H	1.184127	-1.025907	-0.261711
H92	H	1.157891	-0.358207	-0.712184
H93	H	0.634373	-0.173764	-0.235988
H94	H	0.622249	-0.328948	-0.445647
H95	H	1.381657	-0.505571	-0.459727
O96	O	0.752625	-0.372637	-0.504750
C97	C	0.604042	-0.416789	-0.564334
C98	C	0.659752	-0.367546	-0.497762
H99	H	0.528944	-0.412698	-0.558694
H100	H	0.618379	-0.408109	-0.636296
H101	H	0.623572	-0.466052	-0.547252
H102	H	0.640254	-0.318264	-0.514762
H103	H	0.645409	-0.376281	-0.425819
O104	O	1.390221	-0.629939	-0.468466
C105	C	1.425139	-0.654684	-0.619953
C106	C	1.365177	-0.618609	-0.559834
H107	H	1.404900	-0.645548	-0.693838
H108	H	1.499056	-0.637934	-0.599996
H109	H	1.415810	-0.707320	-0.610530
H110	H	1.374428	-0.565967	-0.569226
H111	H	1.291283	-0.635411	-0.579805
H112	H	1.184070	-0.906639	-0.261680
O113	O	1.175308	-0.630320	-0.253171
C114	C	1.053824	-0.709285	-0.247943
C115	C	1.113780	-0.673025	-0.307966
H116	H	1.004051	-0.743811	-0.292222
H117	H	1.098104	-0.736318	-0.198277
H118	H	1.014887	-0.674531	-0.208889
H119	H	1.152728	-0.707736	-0.347078
H120	H	1.069451	-0.645982	-0.357575
H121	H	1.417813	-0.166456	-0.838619
O122	O	1.416717	-0.167288	-1.016869
C123	C	1.532144	-0.082084	-1.000309
C124	C	1.471379	-0.126890	-0.952016
H125	H	1.576340	-0.049402	-0.947898
H126	H	1.576970	-0.110808	-1.041802
H127	H	1.488052	-0.052841	-1.046991
H128	H	1.515400	-0.156142	-0.905289
H129	H	1.426546	-0.098129	-0.910580
O130	O	1.138579	-0.372475	-0.891769
C131	C	1.078829	-0.416486	-1.040336
C132	C	1.145499	-0.367283	-0.984649
H133	H	1.084388	-0.412296	-1.115441
H134	H	1.095754	-0.465798	-1.020890
H135	H	1.006933	-0.407760	-1.025896
H136	H	1.217418	-0.375950	-0.999060
H137	H	1.128496	-0.317987	-1.004104
