data_functionalizedCrystal
_audit_creation_method	'MofGen! by Chris Wilmer'
_symmetry_space_group_name_H-M	'P1'
_symmetry_Int_Tables_number	1
_symmetry_cell_setting	triclinic
loop_
_symmetry_equiv_pos_as_xyz
  x,y,z
_cell_length_a	18.100771
_cell_length_b	16.120530
_cell_length_c	16.120297
_cell_angle_alpha	90.128140
_cell_angle_beta	86.830971
_cell_angle_gamma	92.578108
loop_
_atom_site_label
_atom_site_type_symbol
_atom_site_fract_x
_atom_site_fract_y
_atom_site_fract_z
Zn1	Zn	0.375213	1.245212	-0.536747
Zn2	Zn	0.708547	1.578545	-0.203413
Zn3	Zn	1.041880	1.911878	0.129920
Zn4	Zn	0.493113	1.251462	-0.398375
Zn5	Zn	0.826446	1.584795	-0.065041
Zn6	Zn	1.159780	1.918129	0.268292
Zn7	Zn	0.362698	1.113276	-0.390592
Zn8	Zn	0.696032	1.446610	-0.057259
Zn9	Zn	1.029365	1.779943	0.276075
Zn10	Zn	0.492431	1.105422	-0.530340
Zn11	Zn	0.825764	1.438756	-0.197007
Zn12	Zn	1.159098	1.772089	0.136327
O13	O	0.430864	1.178843	-0.464013
O14	O	0.764197	1.512176	-0.130680
O15	O	1.097531	1.845510	0.202653
O16	O	0.396376	1.362374	-0.524330
O17	O	0.729709	1.695707	-0.190996
O18	O	1.063043	2.029041	0.142337
O19	O	0.470861	1.239034	-0.280948
O20	O	0.804194	1.572367	0.052385
O21	O	1.137528	1.905701	0.385719
O22	O	0.260724	1.131449	-0.409404
O23	O	0.594057	1.464782	-0.076070
O24	O	0.927390	1.798115	0.257263
O25	O	0.482996	1.366966	-0.422668
O26	O	0.816330	1.700300	-0.089335
O27	O	1.149663	2.033633	0.243998
O28	O	0.269918	1.228381	-0.516783
O29	O	0.603252	1.561714	-0.183450
O30	O	0.936585	1.895048	0.149884
O31	O	0.375046	1.137510	-0.275230
O32	O	0.708379	1.470843	0.058103
O33	O	1.041713	1.804176	0.391437
O34	O	0.374385	0.995901	-0.403192
O35	O	0.707718	1.329234	-0.069858
O36	O	1.041051	1.662568	0.263475
O37	O	0.481834	1.118063	-0.647584
O38	O	0.815167	1.451396	-0.314251
O39	O	1.148501	1.784730	0.019082
O40	O	0.469699	0.990131	-0.505864
O41	O	0.803032	1.323464	-0.172531
O42	O	1.136365	1.656797	0.160803
O43	O	0.395715	1.220766	-0.652291
O44	O	0.729048	1.554099	-0.318958
O45	O	1.062381	1.887432	0.014376
O46	O	0.596657	1.231418	-0.416456
O47	O	0.929991	1.564752	-0.083123
O48	O	1.263324	1.898085	0.250210
O49	O	0.596156	1.124124	-0.513411
O50	O	0.929490	1.457457	-0.180077
O51	O	1.262823	1.790791	0.153256
C52	C	0.420610	0.962852	-0.452988
C53	C	0.753944	1.296185	-0.119655
C54	C	1.087277	1.629519	0.213678
C55	C	0.416242	0.870449	-0.448292
C56	C	0.749576	1.203782	-0.114958
C57	C	1.082909	1.537115	0.218375
C58	C	0.237698	1.180094	-0.462940
C59	C	0.571031	1.513427	-0.129607
C60	C	0.904365	1.846760	0.203727
C61	C	0.155382	1.180627	-0.462482
C62	C	0.488716	1.513960	-0.129149
C63	C	0.822049	1.847293	0.204184
C64	C	0.408251	0.701267	-0.439724
C65	C	0.741584	1.034600	-0.106391
C66	C	1.074917	1.367933	0.226943
C67	C	0.453534	0.657256	-0.488364
C68	C	0.786868	0.990590	-0.155031
C69	C	1.120201	1.323923	0.178303
C70	C	0.449088	0.563118	-0.483597
C71	C	0.782421	0.896451	-0.150263
C72	C	1.115754	1.229784	0.183070
C73	C	0.412696	0.795414	-0.444490
C74	C	0.746030	1.128747	-0.111157
C75	C	1.079363	1.462081	0.222177
C76	C	-0.143696	1.178328	-0.464555
C77	C	0.189637	1.511661	-0.131221
C78	C	0.522970	1.844995	0.202112
C79	C	-0.106584	1.239324	-0.532103
C80	C	0.226749	1.572658	-0.198770
C81	C	0.560083	1.905991	0.134564
C82	C	-0.020970	1.240244	-0.531334
C83	C	0.312363	1.573578	-0.198001
C84	C	0.645697	1.906911	0.135332
C85	C	0.004680	1.179468	-0.463527
C86	C	0.338014	1.512802	-0.130194
C87	C	0.671347	1.846135	0.203139
C88	C	-0.030169	1.207463	-0.377315
C89	C	0.303165	1.540797	-0.043981
C90	C	0.636498	1.874130	0.289352
C91	C	-0.115773	1.207251	-0.378305
C92	C	0.217560	1.540585	-0.044972
C93	C	0.550893	1.873918	0.288362
C94	C	-0.114187	1.089461	-0.482223
C95	C	0.219146	1.422794	-0.148890
C96	C	0.552479	1.756128	0.184443
C97	C	-0.028421	1.090485	-0.483589
C98	C	0.304912	1.423818	-0.150256
C99	C	0.638246	1.757152	0.183077
C100	C	0.088536	1.180112	-0.462941
C101	C	0.421869	1.513445	-0.129608
C102	C	0.755203	1.846778	0.203725
C103	C	-0.227552	1.177687	-0.465135
C104	C	0.105781	1.511020	-0.131802
C105	C	0.439114	1.844354	0.201532
C106	C	0.623280	1.177619	-0.465102
C107	C	0.956613	1.510952	-0.131769
C108	C	1.289947	1.844285	0.201565
C109	C	0.705601	1.177170	-0.465599
C110	C	1.038935	1.510503	-0.132266
C111	C	1.372268	1.843836	0.201067
C112	C	0.440094	1.167841	-0.680961
C113	C	0.773427	1.501174	-0.347628
C114	C	1.106761	1.834508	-0.014295
C115	C	0.444028	1.163153	-0.773412
C116	C	0.777361	1.496486	-0.440078
C117	C	1.110694	1.829819	-0.106745
C118	C	0.441158	1.395678	-0.475082
C119	C	0.774492	1.729011	-0.141749
C120	C	1.107825	2.062344	0.191585
C121	C	0.445545	1.488080	-0.479799
C122	C	0.778878	1.821413	-0.146465
C123	C	1.112212	2.154746	0.186868
C124	C	0.451191	1.154562	-0.942678
C125	C	0.784524	1.487896	-0.609344
C126	C	1.117858	1.821229	-0.276011
C127	C	0.410323	1.203289	-0.986208
C128	C	0.743656	1.536622	-0.652875
C129	C	1.076989	1.869955	-0.319541
C130	C	0.414308	1.198509	-1.080393
C131	C	0.747642	1.531842	-0.747060
C132	C	1.080975	1.865176	-0.413727
C133	C	0.447206	1.159341	-0.848484
C134	C	0.780539	1.492674	-0.515150
C135	C	1.113873	1.826008	-0.181817
C136	C	0.421618	1.189850	-0.247912
C137	C	0.754952	1.523184	0.085422
C138	C	1.088285	1.856517	0.418755
C139	C	0.417484	1.194701	-0.155469
C140	C	0.750817	1.528034	0.177864
C141	C	1.084151	1.861368	0.511198
H142	H	0.495642	0.690279	-0.533587
H143	H	0.828975	1.023612	-0.200254
H144	H	1.162308	1.356945	0.133079
H145	H	0.489171	1.109261	-0.976144
H146	H	0.822504	1.442594	-0.642811
H147	H	1.155837	1.775928	-0.309477
H148	H	-0.005349	1.069431	-0.547030
H149	H	0.327984	1.402765	-0.213696
H150	H	0.661318	1.736098	0.119637
H151	H	-0.134383	1.272368	-0.362760
H152	H	0.198950	1.605701	-0.029427
H153	H	0.532283	1.939035	0.303906
H154	H	0.366146	0.668247	-0.394505
H155	H	0.699480	1.001580	-0.061171
H156	H	1.032813	1.334913	0.272162
F157	F	0.360690	1.262521	-0.942466
F158	F	0.694024	1.595855	-0.609132
F159	F	1.027357	1.929188	-0.275799
F160	F	0.010286	1.216732	-0.615108
F161	F	0.343620	1.550065	-0.281774
F162	F	0.676953	1.883398	0.051559
H163	H	-0.124264	1.221139	-0.596687
H164	H	0.209070	1.554472	-0.263354
H165	H	0.542403	1.887806	0.069979
H166	H	-0.126490	1.304712	-0.520929
H167	H	0.206843	1.638045	-0.187596
H168	H	0.540177	1.971378	0.145737
H169	H	0.001135	1.306334	-0.519707
H170	H	0.334469	1.639667	-0.186373
H171	H	0.667802	1.973000	0.146960
F172	F	-0.148460	1.152046	-0.310559
F173	F	0.184873	1.485379	0.022775
F174	F	0.518206	1.818712	0.356108
H175	H	-0.133261	1.064459	-0.544074
H176	H	0.200072	1.397793	-0.210741
H177	H	0.533405	1.731126	0.122593
H178	H	-0.007399	1.272211	-0.361114
H179	H	0.325934	1.605544	-0.027781
H180	H	0.659267	1.938878	0.305553
F181	F	-0.009160	1.151873	-0.309602
F182	F	0.324174	1.485206	0.023732
F183	F	0.657507	1.818540	0.357065
H184	H	-0.011189	1.042599	-0.437324
H185	H	0.322145	1.375932	-0.103991
H186	H	0.655478	1.709266	0.229343
H187	H	-0.138702	1.043983	-0.432953
H188	H	0.194632	1.377316	-0.099620
H189	H	0.527965	1.710649	0.233714
