data_functionalizedCrystal
_audit_creation_method	'MofGen! by Chris Wilmer'
_symmetry_space_group_name_H-M	'P1'
_symmetry_Int_Tables_number	1
_symmetry_cell_setting	triclinic
loop_
_symmetry_equiv_pos_as_xyz
  x,y,z
_cell_length_a	19.188928
_cell_length_b	18.266242
_cell_length_c	15.944551
_cell_angle_alpha	89.994552
_cell_angle_beta	83.321274
_cell_angle_gamma	89.977676
loop_
_atom_site_label
_atom_site_type_symbol
_atom_site_fract_x
_atom_site_fract_y
_atom_site_fract_z
O1	O	-0.926418	0.061166	-0.104856
O2	O	-0.723143	0.061105	-0.118975
O3	O	-0.830332	0.061131	0.010380
O4	O	-0.819230	0.061140	-0.234211
O5	O	-0.830320	-0.060631	0.010383
O6	O	-0.723131	-0.060657	-0.118972
O7	O	-0.926407	-0.060596	-0.104853
Zn8	Zn	-0.824767	-0.079959	-0.111912
Zn9	Zn	-0.824782	0.080468	-0.111916
O10	O	-0.819218	-0.060621	-0.234208
C11	C	-0.697125	0.000217	-0.118516
C12	C	-0.619617	0.000193	-0.117145
N13	N	-0.824762	-0.189446	-0.111909
C14	C	-0.872258	-0.771712	-0.054650
C15	C	-0.872258	-0.695067	-0.054652
C16	C	-0.824783	-0.656758	-0.111908
C17	C	-0.777315	-0.695101	-0.169182
C18	C	-0.777320	-0.771744	-0.169184
N19	N	-0.762999	-0.536450	-0.122794
N20	N	-0.762996	-0.463642	-0.122787
C21	C	-0.824766	-0.425836	-0.111907
N22	N	-0.886540	-0.463589	-0.101017
N23	N	-0.886542	-0.536403	-0.101020
C24	C	-0.824773	-0.573651	-0.111913
C25	C	-0.872235	-0.304395	-0.054643
C26	C	-0.872237	-0.227749	-0.054650
C27	C	-0.777288	-0.227785	-0.169177
C28	C	-0.777292	-0.304429	-0.169173
C29	C	-0.824765	-0.342730	-0.111902
C30	C	-0.574889	0.000206	-0.193046
C31	C	-0.502062	0.000210	-0.191758
C32	C	-0.473966	0.000216	-0.114564
C33	C	-0.518703	0.000200	-0.038652
C34	C	-0.591529	0.000188	-0.039943
N35	N	-0.365837	0.041679	-0.055560
N36	N	-0.296655	0.041691	-0.054339
C37	C	-0.254547	0.000250	-0.110670
N38	N	-0.284233	-0.041196	-0.168281
N39	N	-0.353420	-0.041205	-0.169504
C40	C	-0.395000	0.000228	-0.113156
C41	C	-0.130851	0.000266	-0.185179
C42	C	-0.058023	0.000265	-0.183888
C43	C	-0.074666	0.000263	-0.030781
C44	C	-0.147492	0.000256	-0.032074
C45	C	-0.175580	0.000261	-0.109276
C46	C	0.047576	0.000281	-0.105314
C47	C	-0.029932	0.000271	-0.106693
C48	C	-0.829865	0.000249	0.041674
C49	C	-0.828483	0.000249	0.134915
N50	N	-0.824793	0.189955	-0.111912
C51	C	-0.819685	0.000261	-0.265502
C52	C	-0.821066	0.000267	-0.358743
C53	C	-0.758740	0.000238	0.349510
C54	C	-0.791121	-0.059789	0.410650
C55	C	-0.825983	0.000253	0.305631
C56	C	-0.791148	0.060259	0.410631
C57	C	-0.823564	0.000261	0.470535
C58	C	-0.858383	-0.059823	0.365543
C59	C	-0.858401	0.060279	0.365518
C60	C	-0.890830	0.000238	0.426640
C61	C	-0.827375	0.000248	0.210634
C62	C	-0.822177	0.000261	0.565531
H63	H	-0.910911	-0.663850	-0.008020
C64	C	-0.752696	-0.128368	0.437679
C65	C	-0.791578	-0.183731	0.499188
C66	C	-0.753149	-0.252308	0.526211
C67	C	-0.675839	-0.265521	0.491725
C68	C	-0.636953	-0.210157	0.430212
C69	C	-0.675382	-0.141580	0.403189
H70	H	-0.848812	-0.173951	0.524720
H71	H	-0.781936	-0.293293	0.571747
H72	H	-0.647392	-0.316286	0.511729
H73	H	-0.579720	-0.219937	0.404680
H74	H	-0.646595	-0.100595	0.357653
H75	H	-0.910893	-0.335581	-0.008011
C76	C	-0.924481	-0.813844	0.008339
C77	C	-0.976711	-0.771676	0.071311
C78	C	-1.028936	-0.813812	0.134297
C79	C	-1.028931	-0.898117	0.134310
C80	C	-0.976699	-0.940290	0.071336
C81	C	-0.924475	-0.898154	0.008350
H82	H	-0.976716	-0.709264	0.071303
H83	H	-1.067601	-0.782592	0.180915
H84	H	-1.067591	-0.929308	0.180936
H85	H	-0.976694	-1.002702	0.071343
H86	H	-0.885810	-0.929374	-0.038268
C87	C	-0.924451	-0.185577	0.008342
C88	C	-0.897160	-0.132901	0.072491
C89	C	-0.949375	-0.090727	0.135484
C90	C	-1.028879	-0.101229	0.134328
C91	C	-1.056174	-0.153907	0.070176
C92	C	-1.003960	-0.196081	0.007183
H93	H	-0.838303	-0.125125	0.073349
H94	H	-0.929169	-0.051732	0.182973
H95	H	-1.067531	-0.070010	0.180959
H96	H	-1.115031	-0.161683	0.069318
H97	H	-1.024165	-0.235077	-0.040306
C98	C	-0.683341	0.000139	0.304223
C99	C	-0.670805	0.000771	0.207060
C100	C	-0.595408	0.000668	0.161773
C101	C	-0.532547	-0.000065	0.213648
C102	C	-0.545081	-0.000697	0.310816
C103	C	-0.620477	-0.000594	0.356104
H104	H	-0.717340	0.001314	0.168654
H105	H	-0.586130	0.001136	0.089842
H106	H	-0.476734	-0.000141	0.180123
H107	H	-0.498545	-0.001240	0.349222
H108	H	-0.629755	-0.001062	0.428035
C109	C	-0.487801	0.000208	0.046262
C110	C	-0.504641	-0.063026	0.109238
C111	C	-0.473739	-0.063022	0.194155
C112	C	-0.425997	0.000215	0.216097
C113	C	-0.409155	0.063453	0.153120
C114	C	-0.440056	0.063450	0.068202
H115	H	-0.539985	-0.109842	0.092996
H116	H	-0.486208	-0.109836	0.240775
H117	H	-0.403122	0.000218	0.278958
H118	H	-0.373811	0.110269	0.169361
H119	H	-0.427588	0.110263	0.021583
C120	C	-0.896764	-0.128458	0.338692
C121	C	-0.905132	-0.141161	0.244912
C122	C	-0.943509	-0.209797	0.218058
C123	C	-0.973518	-0.265728	0.284983
C124	C	-0.965151	-0.253027	0.378768
C125	C	-0.926774	-0.184391	0.405622
H126	H	-0.882916	-0.099756	0.195365
H127	H	-0.949703	-0.219199	0.148632
H128	H	-1.001927	-0.316536	0.265104
H129	H	-0.987366	-0.294432	0.428315
H130	H	-0.920580	-0.174989	0.475049
H131	H	-0.946694	0.000221	0.460009
H132	H	-0.738635	-0.196594	-0.215799
C133	C	-0.896797	0.128859	0.338455
C134	C	-0.868577	0.205598	0.355923
C135	C	-0.906966	0.274185	0.328857
C136	C	-0.973576	0.266033	0.284323
C137	C	-1.001800	0.189292	0.266852
C138	C	-0.963410	0.120705	0.293918
H139	H	-0.819265	0.211635	0.388892
H140	H	-0.886073	0.330994	0.341790
H141	H	-1.001994	0.316805	0.264287
H142	H	-1.051112	0.183254	0.233883
H143	H	-0.984304	0.063895	0.280985
H144	H	-0.738639	-0.335643	-0.215798
C145	C	-0.752724	0.128816	0.437622
C146	C	-0.744934	0.141722	0.531516
C147	C	-0.706505	0.210276	0.558503
C148	C	-0.675865	0.265924	0.491594
C149	C	-0.683653	0.253020	0.397693
C150	C	-0.722083	0.184466	0.370707
H151	H	-0.767617	0.100527	0.581051
H152	H	-0.700740	0.219828	0.628014
H153	H	-0.647418	0.316671	0.511571
H154	H	-0.660971	0.294215	0.348158
H155	H	-0.727848	0.174914	0.301195
C156	C	-0.725090	-0.652966	-0.232164
C157	C	-0.725078	-0.568661	-0.232162
C158	C	-0.672854	-0.526527	-0.295150
C159	C	-0.620641	-0.568698	-0.358141
C160	C	-0.620651	-0.653008	-0.358145
C161	C	-0.672876	-0.695142	-0.295157
H162	H	-0.763731	-0.537439	-0.185531
H163	H	-0.672846	-0.464116	-0.295147
H164	H	-0.581981	-0.537508	-0.404768
H165	H	-0.581999	-0.684230	-0.404777
H166	H	-0.672883	-0.757553	-0.295161
H167	H	-0.738669	-0.802956	-0.215815
H168	H	-0.597753	0.000211	-0.255910
H169	H	-0.627947	0.000179	0.021867
C170	C	-0.452848	0.000231	-0.275252
C171	C	-0.456028	0.063468	-0.338573
C172	C	-0.406816	0.063492	-0.422066
C173	C	-0.354424	0.000279	-0.442239
C174	C	-0.351242	-0.062963	-0.378916
C175	C	-0.400454	-0.062987	-0.295423
H176	H	-0.494814	0.110267	-0.323642
H177	H	-0.409172	0.110309	-0.468942
H178	H	-0.317994	0.000297	-0.504046
H179	H	-0.312456	-0.109761	-0.393848
H180	H	-0.398098	-0.109803	-0.248547
C181	C	-0.161754	0.000261	-0.270098
C182	C	-0.112550	0.000261	-0.353592
C183	C	-0.143450	0.000255	-0.438510
C184	C	-0.223555	0.000248	-0.439934
C185	C	-0.272764	0.000248	-0.356437
C186	C	-0.241864	0.000254	-0.271518
H187	H	-0.053247	0.000266	-0.352540
H188	H	-0.107022	0.000256	-0.500320
H189	H	-0.246430	0.000244	-0.502795
H190	H	-0.332067	0.000243	-0.357488
H191	H	-0.278292	0.000253	-0.209708
H192	H	-0.021605	0.000271	-0.245698
H193	H	-0.183911	0.000249	0.029733
H194	H	-0.051791	0.000313	0.032072
