data_functionalizedCrystal
_audit_creation_method	'MofGen! by Chris Wilmer'
_symmetry_space_group_name_H-M	'P1'
_symmetry_Int_Tables_number	1
_symmetry_cell_setting	triclinic
loop_
_symmetry_equiv_pos_as_xyz
  x,y,z
_cell_length_a	15.538191
_cell_length_b	15.995292
_cell_length_c	14.185292
_cell_angle_alpha	76.850065
_cell_angle_beta	97.879464
_cell_angle_gamma	65.370355
loop_
_atom_site_label
_atom_site_type_symbol
_atom_site_fract_x
_atom_site_fract_y
_atom_site_fract_z
O1	O	-1.228587	0.246478	0.083449
O2	O	-0.954307	0.149791	0.083442
O3	O	-1.098973	0.322313	0.083448
O4	O	-1.083922	0.073957	0.083444
O5	O	-1.141723	0.373282	-0.083393
O6	O	-0.997057	0.200761	-0.083398
O7	O	-1.271337	0.297448	-0.083392
Cu8	Cu	-1.138100	0.253758	-0.098629
Cu9	Cu	-1.087544	0.193481	0.098680
O10	O	-1.126671	0.124926	-0.083397
C11	C	-0.940585	0.165160	0.000021
C12	C	-0.836004	0.135027	0.000019
C13	C	-1.119735	0.378806	0.000030
C14	C	-1.117896	0.471198	0.000037
C15	C	-1.285059	0.282078	0.000032
C16	C	-1.389638	0.312209	0.000041
C17	C	-1.105909	0.068432	0.000023
C18	C	-1.107746	-0.023962	0.000023
C19	C	-0.548279	0.434385	0.000039
C20	C	-0.450006	0.406049	0.000039
C21	C	-0.427527	0.246668	0.000037
C22	C	-0.525801	0.274992	0.000031
C23	C	-0.586169	0.368851	0.000034
C24	C	-0.563691	0.209459	0.000026
C25	C	-0.661955	0.237779	0.000026
C26	C	-0.722329	0.331633	0.000031
C27	C	-0.684433	0.397172	0.000034
C28	C	-0.503319	0.115598	0.000031
C29	C	-0.541209	0.050064	0.000026
C30	C	-0.639476	0.078387	0.000019
C31	C	-0.699850	0.172241	0.000024
C32	C	-0.677372	0.012848	0.000017
C33	C	-0.775636	0.041168	0.000017
C34	C	-0.798114	0.200561	0.000024
N35	N	-1.173666	0.296157	-0.237405
C36	C	-1.111146	0.806888	0.000028
C37	C	-1.215658	0.815423	-0.000342
C38	C	-1.217545	0.719235	0.000037
C39	C	-1.114496	0.640349	0.000032
C40	C	-1.037881	0.624479	0.095302
C41	C	-1.036605	0.720864	0.095378
C42	C	-1.083087	0.778035	-0.094351
C43	C	-1.087278	0.683102	-0.095607
C44	C	-1.116382	0.546225	0.000038
C45	C	-1.109255	0.901008	0.000029
C46	C	-1.278123	0.420661	-0.394927
C47	C	-1.251186	0.388560	-0.289902
C48	C	-1.123050	0.235821	-0.289922
C49	C	-1.149973	0.267911	-0.394950
C50	C	-1.227511	0.360332	-0.447444
C51	C	-1.099361	0.207582	-0.447466
C52	C	-1.126286	0.239668	-0.552485
C53	C	-1.203823	0.332084	-0.604986
C54	C	-1.254436	0.392418	-0.552462
C55	C	-1.021828	0.115159	-0.394970
C56	C	-0.971216	0.054830	-0.447487
C57	C	-0.998136	0.086918	-0.552507
C58	C	-1.075673	0.179334	-0.605009
C59	C	-0.947523	0.026584	-0.605031
C60	C	-0.974448	0.058671	-0.710050
C61	C	-1.102598	0.211421	-0.710027
N62	N	-1.051986	0.151091	0.237456
H63	H	-0.847272	0.276992	0.000020
H64	H	-0.806488	-0.012193	0.000003
H65	H	-1.292408	0.437695	-0.247148
C66	C	-0.350316	-0.011759	0.000038
C67	C	-0.395304	0.084464	0.000031
H68	H	-0.283631	-0.030979	0.000043
H69	H	-0.383299	-0.017009	-0.058137
H70	H	-0.353493	-0.052549	0.058226
H71	H	-0.392133	0.125254	-0.058161
H72	H	-0.362311	0.089721	0.058212
H73	H	-0.597437	0.510816	0.000035
C74	C	-1.059388	0.064186	-0.257589
C75	C	-1.037822	0.134235	-0.232212
H76	H	-1.006772	0.001472	-0.221956
H77	H	-1.068172	0.074663	-0.327641
H78	H	-1.117841	0.068909	-0.240362
H79	H	-0.979373	0.129516	-0.249445
H80	H	-1.029027	0.123754	-0.162144
H81	H	-1.143349	0.697621	-0.166087
C82	C	-0.873035	-0.062179	-0.286510
C83	C	-0.885983	-0.046754	-0.389779
H84	H	-0.820409	-0.124890	-0.250887
H85	H	-0.931478	-0.057474	-0.269292
H86	H	-0.858421	-0.014641	-0.269313
H87	H	-0.900605	-0.094288	-0.406977
H88	H	-0.827527	-0.051469	-0.407004
H89	H	-0.999912	0.089036	-0.309457
H90	H	-1.317568	0.467680	-0.595205
H91	H	-1.275928	0.733499	-0.068254
H92	H	-1.341255	0.495923	-0.437670
H93	H	-0.419161	0.459421	0.000045
H94	H	-1.134473	0.838179	-0.166566
H95	H	-0.884397	-0.048669	-0.562277
C96	C	-0.993339	0.569258	0.275404
C97	C	-1.062289	0.583035	0.191024
H98	H	-1.008409	0.543669	0.334496
H99	H	-0.995199	0.629569	0.274413
H100	H	-0.929648	0.525176	0.274535
H101	H	-1.125979	0.627122	0.191889
H102	H	-1.060438	0.522715	0.192016
C103	C	-1.153654	0.368037	-0.755445
C104	C	-1.233423	0.367364	-0.720425
H105	H	-1.171932	0.389824	-0.826711
H106	H	-1.100246	0.304367	-0.731705
H107	H	-1.134697	0.410392	-0.731679
H108	H	-1.252375	0.325004	-0.744185
H109	H	-1.286848	0.431044	-0.744176
H110	H	-1.273411	0.876525	-0.068664
C111	C	-0.934053	0.460466	0.104306
C112	C	-0.934286	0.548877	0.100092
H113	H	-0.870097	0.413792	0.107268
H114	H	-0.979208	0.468957	0.046152
H115	H	-0.952681	0.438683	0.162369
H116	H	-0.915665	0.570664	0.042026
H117	H	-0.889116	0.540387	0.158253
H118	H	-0.802338	0.354686	0.000045
H119	H	-0.492043	-0.026357	0.000028
C120	C	-0.845058	-0.095527	-0.699531
C121	C	-0.918807	-0.007636	-0.767784
H122	H	-0.810704	-0.136459	-0.735177
H123	H	-0.873751	-0.126279	-0.658568
H124	H	-0.800692	-0.083448	-0.658572
H125	H	-0.963178	-0.019714	-0.808738
H126	H	-0.890113	0.023122	-0.808765
C127	C	-0.531848	-0.137666	0.085791
C128	C	-0.611003	-0.090320	0.000021
H129	H	-0.490873	-0.201356	0.085788
H130	H	-0.555752	-0.141079	0.143957
H131	H	-0.495227	-0.102678	0.085784
H132	H	-0.647629	-0.125304	0.000031
H133	H	-0.587099	-0.086912	-0.058161
C134	C	-0.696795	0.551891	0.000042
C135	C	-0.750799	0.500343	0.000039
H136	H	-0.737766	0.615578	0.000055
H137	H	-0.672914	0.555311	-0.058138
H138	H	-0.643087	0.519748	0.058225
H139	H	-0.804503	0.532482	-0.058147
H140	H	-0.774695	0.496928	0.058226
H141	H	-1.238273	0.835849	0.067598
C142	C	-0.923092	0.650307	-0.102205
C143	C	-0.987726	0.610113	-0.103381
H144	H	-0.861631	0.605244	-0.107003
H145	H	-0.914290	0.664846	-0.041401
H146	H	-0.949517	0.708083	-0.157426
H147	H	-0.961304	0.552341	-0.048155
H148	H	-0.996526	0.595561	-0.164191
H149	H	-1.241141	0.692429	0.068452
H150	H	-0.378361	0.170247	0.000039
H151	H	-0.958941	0.710828	0.099690
C152	C	-0.982407	0.747249	0.247647
C153	C	-1.060782	0.742536	0.191517
H154	H	-0.997334	0.760621	0.307002
H155	H	-0.971903	0.797303	0.208978
H156	H	-0.924833	0.687012	0.265041
H157	H	-1.118354	0.802776	0.174117
H158	H	-1.071298	0.692480	0.230194
H159	H	-1.006394	0.768863	-0.094997
H160	H	-1.165730	0.286682	-0.752770
