data_functionalizedCrystal
_audit_creation_method	'MofGen! by Chris Wilmer'
_symmetry_space_group_name_H-M	'P1'
_symmetry_Int_Tables_number	1
_symmetry_cell_setting	triclinic
loop_
_symmetry_equiv_pos_as_xyz
  x,y,z
_cell_length_a	18.050591
_cell_length_b	18.050582
_cell_length_c	17.638516
_cell_angle_alpha	101.180263
_cell_angle_beta	101.240668
_cell_angle_gamma	89.979078
loop_
_atom_site_label
_atom_site_type_symbol
_atom_site_fract_x
_atom_site_fract_y
_atom_site_fract_z
Zn1	Zn	1.075471	-0.479776	-0.314825
Zn2	Zn	1.575471	0.020224	0.185175
Zn3	Zn	1.050267	-0.380669	-0.447001
Zn4	Zn	1.550267	0.119331	0.052999
Zn5	Zn	0.951290	-0.355588	-0.314828
Zn6	Zn	1.451290	0.144412	0.185172
Zn7	Zn	0.926131	-0.504797	-0.446959
Zn8	Zn	1.426131	-0.004797	0.053041
O9	O	1.000790	-0.430207	-0.380903
O10	O	1.500790	0.069793	0.119097
O11	O	1.176050	-0.466655	-0.332374
O12	O	1.676050	0.033345	0.167626
O13	O	1.037118	-0.273421	-0.429487
O14	O	1.537118	0.226579	0.070513
O15	O	0.988840	-0.351093	-0.204213
O16	O	1.488840	0.148907	0.295787
O17	O	1.157532	-0.393841	-0.429484
O18	O	1.657532	0.106159	0.070516
O19	O	1.080076	-0.442334	-0.204211
O20	O	1.580076	0.057666	0.295789
O21	O	0.964400	-0.254994	-0.332380
O22	O	1.464400	0.245006	0.167620
O23	O	0.844031	-0.375355	-0.332339
O24	O	1.344031	0.124645	0.167661
O25	O	0.945961	-0.605399	-0.429413
O26	O	1.445961	-0.105399	0.070587
O27	O	0.825547	-0.484978	-0.429416
O28	O	1.325547	0.015022	0.070584
O29	O	1.055680	-0.587016	-0.332334
O30	O	1.555680	-0.087016	0.167666
O31	O	1.012723	-0.418103	-0.557609
O32	O	1.512723	0.081897	-0.057609
O33	O	0.921521	-0.509299	-0.557579
O34	O	1.421521	-0.009299	-0.057579
C35	C	0.807843	-0.430161	-0.380874
C36	C	1.307843	0.069839	0.119126
C37	C	0.725296	-0.430162	-0.380880
C38	C	1.225296	0.069838	0.119120
C39	C	0.535887	-0.370651	-0.328029
C40	C	1.035887	0.129349	0.171971
C41	C	0.472769	-0.366057	-0.400125
C42	C	0.972769	0.133943	0.099875
C43	C	0.574161	-0.430200	-0.380904
C44	C	1.074161	0.069800	0.119096
C45	C	0.490194	-0.434797	-0.308833
C46	C	0.990194	0.065203	0.191167
C47	C	0.428173	-0.430234	-0.380921
C48	C	0.928173	0.069766	0.119079
C49	C	0.512123	-0.425578	-0.453038
C50	C	1.012123	0.074422	0.046962
C51	C	0.529561	-0.494340	-0.361698
C52	C	1.029561	0.005660	0.138302
C53	C	0.466455	-0.489781	-0.433844
C54	C	0.966455	0.010219	0.066156
C55	C	0.658262	-0.430178	-0.380893
C56	C	1.158262	0.069822	0.119107
C57	C	0.344073	-0.430258	-0.380940
C58	C	0.844073	0.069742	0.119060
C59	C	1.000826	-0.623906	-0.380868
C60	C	1.500826	-0.123906	0.119132
C61	C	1.000841	-0.706449	-0.380853
C62	C	1.500841	-0.206449	0.119147
C63	C	0.941227	-0.915883	-0.433573
C64	C	1.441227	-0.415883	0.066427
C65	C	1.005310	-0.968949	-0.452900
C66	C	1.505310	-0.468949	0.047100
C67	C	1.000889	-0.857568	-0.380793
C68	C	1.500889	-0.357568	0.119207
C69	C	0.936847	-0.951580	-0.361444
C70	C	1.436847	-0.451580	0.138556
C71	C	1.000929	-1.003543	-0.380736
C72	C	1.500929	-0.503543	0.119264
C73	C	1.065000	-0.909554	-0.400158
C74	C	1.565000	-0.409554	0.099842
C75	C	0.996499	-0.892175	-0.308668
C76	C	1.496499	-0.392175	0.191332
C77	C	1.060633	-0.945213	-0.327968
C78	C	1.560633	-0.445213	0.172032
C79	C	1.000864	-0.773477	-0.380828
C80	C	1.500864	-0.273477	0.119172
C81	C	1.000961	-1.087633	-0.380701
C82	C	1.500961	-0.587633	0.119299
C83	C	1.194490	-0.430255	-0.380933
C84	C	1.694490	0.069745	0.119067
C85	C	1.277033	-0.430275	-0.380946
C86	C	1.777033	0.069725	0.119054
C87	C	0.961677	-0.469154	-0.586275
C88	C	1.461677	0.030846	-0.086275
C89	C	0.945012	-0.485840	-0.674134
C90	C	1.445012	0.014160	-0.174134
C91	C	1.000808	-0.237251	-0.380881
C92	C	1.500808	0.262749	0.119119
C93	C	1.000979	-0.154666	-0.380673
C94	C	1.500979	0.345334	0.119327
C95	C	1.127837	-0.303499	-0.963033
C96	C	1.627837	0.196501	-0.463033
C97	C	1.112165	-0.319191	-1.045590
C98	C	1.612165	0.180809	-0.545590
C99	C	1.017117	-0.414078	-1.045603
C100	C	1.517117	0.085922	-0.545603
C101	C	1.032778	-0.398392	-0.963044
C102	C	1.532778	0.101608	-0.463044
C103	C	1.088140	-0.343102	-0.921766
C104	C	1.588140	0.156898	-0.421766
C105	C	0.993081	-0.437995	-0.921777
C106	C	1.493081	0.062005	-0.421777
C107	C	1.008744	-0.422312	-0.839226
C108	C	1.508744	0.077688	-0.339226
C109	C	1.064105	-0.367027	-0.797942
C110	C	1.564105	0.132973	-0.297942
C111	C	1.103803	-0.327420	-0.839215
C112	C	1.603803	0.172580	-0.339215
C113	C	0.937723	-0.493288	-0.963057
C114	C	1.437723	0.006712	-0.463057
C115	C	0.898026	-0.532891	-0.921790
C116	C	1.398026	-0.032891	-0.421790
C117	C	0.913685	-0.517205	-0.839237
C118	C	1.413685	-0.017205	-0.339237
C119	C	0.969046	-0.461920	-0.797953
C120	C	1.469046	0.038080	-0.297953
C121	C	0.873987	-0.556812	-0.797964
C122	C	1.373987	-0.056812	-0.297964
C123	C	0.889650	-0.541130	-0.715412
C124	C	1.389650	-0.041130	-0.215412
C125	C	0.984709	-0.446237	-0.715401
C126	C	1.484709	0.053763	-0.215401
C127	C	1.040076	-0.391125	-0.174729
C128	C	1.540076	0.108875	0.325271
C129	C	1.056817	-0.374470	-0.086870
C130	C	1.556817	0.125530	0.413130
H131	H	0.436426	-0.540164	-0.478617
H132	H	0.936426	-0.040164	0.021383
H133	H	0.992738	-0.858890	-0.247716
H134	H	1.492738	-0.358890	0.252284
H135	H	1.111153	-0.958279	-0.283310
H136	H	1.611153	-0.458279	0.216690
H137	H	0.882672	-0.970167	-0.345102
H138	H	1.382672	-0.470167	0.154898
H139	H	0.828917	-0.601834	-0.831585
H140	H	1.328917	-0.101834	-0.331585
H141	H	0.554410	-0.548545	-0.345419
H142	H	1.054410	-0.048545	0.154581
Cl143	Cl	0.839746	-0.590918	-0.663529
Cl144	Cl	1.339746	-0.090918	-0.163529
H145	H	0.480067	-0.438649	-0.247885
H146	H	0.980067	0.061351	0.252115
Cl147	Cl	0.863374	-0.895505	-0.502570
Cl148	Cl	1.363374	-0.395505	-0.002570
Cl149	Cl	1.054294	-0.376715	-0.663502
Cl150	Cl	1.554294	0.123285	-0.163502
Cl151	Cl	1.083863	-0.347376	-0.694161
Cl152	Cl	1.583863	0.152624	-0.194161
Cl153	Cl	1.197422	-0.233977	-0.911134
Cl154	Cl	1.697422	0.266023	-0.411134
Cl155	Cl	0.434435	-0.282339	-0.425225
Cl156	Cl	0.934435	0.217661	0.074775
Cl157	Cl	0.582433	-0.292850	-0.259066
Cl158	Cl	1.082433	0.207150	0.240934
Cl159	Cl	0.947524	-0.483584	-1.097503
Cl160	Cl	1.447524	0.016416	-0.597503
H161	H	1.009047	-1.002220	-0.513869
H162	H	1.509047	-0.502220	-0.013869
Cl163	Cl	1.148645	-0.881026	-0.425504
Cl164	Cl	1.648645	-0.381026	0.074496
H165	H	1.148879	-0.282392	-0.805605
H166	H	1.648879	0.217608	-0.305605
Cl167	Cl	0.527545	-0.419495	-0.547178
Cl168	Cl	1.027545	0.080505	-0.047178
H169	H	1.144498	-0.286939	-1.079187
H170	H	1.644498	0.213061	-0.579187
Cl171	Cl	0.917723	-0.512692	-1.066836
Cl172	Cl	1.417723	-0.012692	-0.566836
Cl173	Cl	0.828434	-0.602397	-0.973690
Cl174	Cl	1.328434	-0.102397	-0.473690
