data_functionalizedCrystal
_audit_creation_method	'MofGen! by Chris Wilmer'
_symmetry_space_group_name_H-M	'P1'
_symmetry_Int_Tables_number	1
_symmetry_cell_setting	triclinic
loop_
_symmetry_equiv_pos_as_xyz
  x,y,z
_cell_length_a	13.032831
_cell_length_b	12.594516
_cell_length_c	13.032268
_cell_angle_alpha	82.848693
_cell_angle_beta	89.113023
_cell_angle_gamma	82.816889
loop_
_atom_site_label
_atom_site_type_symbol
_atom_site_fract_x
_atom_site_fract_y
_atom_site_fract_z
Zn1	Zn	1.498550	-0.718827	0.780858
Zn2	Zn	1.520308	-0.877413	0.608883
Zn3	Zn	1.348404	-0.674363	0.587098
Zn4	Zn	1.326556	-0.871658	0.759008
O5	O	1.423454	-0.785565	0.683962
O6	O	1.645359	-0.760881	0.776307
O7	O	1.515754	-0.834278	0.462076
O8	O	1.368359	-0.531324	0.612827
O9	O	1.661344	-0.877393	0.649958
O10	O	1.478671	-0.563992	0.755182
O11	O	1.389457	-0.685098	0.446070
O12	O	1.201583	-0.679517	0.591641
O13	O	1.331122	-0.867585	0.905824
O14	O	1.185531	-0.824469	0.717943
O15	O	1.457485	-0.755301	0.921877
O16	O	1.494568	-1.025587	0.628771
O17	O	1.352219	-1.021359	0.739067
C18	C	1.156239	-0.746545	0.650057
C19	C	1.041921	-0.729880	0.635577
C20	C	0.983051	-0.794263	0.691519
C21	C	0.864896	-0.777041	0.676555
C22	C	1.423409	-1.062097	0.683938
C23	C	1.423479	-1.180416	0.683974
C24	C	1.500973	-1.251950	0.624067
C25	C	1.514180	-1.336910	0.721120
C26	C	1.410394	-1.306281	0.586998
C27	C	1.436728	-1.263831	0.781082
C28	C	1.332906	-1.233181	0.646891
C29	C	1.346069	-1.318112	0.744004
C30	C	1.691713	-0.824739	0.718000
C31	C	1.806028	-0.841432	0.732505
C32	C	1.389439	-0.815761	0.952210
C33	C	1.374944	-0.828628	1.066522
C34	C	1.423525	-0.507960	0.684012
C35	C	1.423555	-0.389661	0.684033
C36	C	1.457397	-0.755419	0.416765
C37	C	1.472091	-0.742281	0.302479
C38	C	1.431004	-0.778809	1.125428
C39	C	1.416023	-0.792107	1.243575
H40	H	0.827828	-0.709161	0.617582
H41	H	1.531175	-0.689773	1.265449
O42	O	1.501368	-0.716097	1.081122
C43	C	1.450652	-0.631843	1.011581
H44	H	1.374710	-0.656207	0.985699
H45	H	1.434175	-0.555937	1.051498
C46	C	1.613369	-0.579510	0.948445
C47	C	1.520100	-0.609438	0.916650
H48	H	1.656209	-0.565685	0.889889
H49	H	1.647538	-0.636270	0.995298
H50	H	1.599625	-0.516258	0.981710
H51	H	1.533845	-0.672696	0.883398
H52	H	1.485935	-0.552688	0.869788
H53	H	1.280558	-1.347044	0.794757
H54	H	1.356928	-0.844600	1.280605
O55	O	1.450121	-1.241024	0.878925
C56	C	1.449936	-1.128902	0.877710
H57	H	1.471821	-1.092079	0.797215
H58	H	1.369486	-1.090884	0.898469
C59	C	1.501965	-1.152749	1.055938
C60	C	1.528853	-1.107524	0.957075
H61	H	1.550641	-1.139561	1.104897
H62	H	1.502086	-1.228287	1.056759
H63	H	1.434923	-1.121063	1.073223
H64	H	1.595889	-1.139220	0.939787
H65	H	1.528745	-1.031990	0.956253
H66	H	0.843094	-0.909303	0.791488
H67	H	1.315852	-0.881117	1.103556
H68	H	1.566510	-1.222844	0.573460
H69	H	1.020123	-0.862130	0.750496
H70	H	1.004847	-0.662005	0.576608
H71	H	1.256305	-1.188137	0.615470
O72	O	1.605676	-1.390570	0.758415
C73	C	1.687136	-1.356880	0.695021
H74	H	1.655789	-1.322676	0.614914
H75	H	1.723126	-1.292049	0.730681
C76	C	1.808345	-1.495869	0.784199
C77	C	1.769846	-1.453867	0.685808
H78	H	1.859368	-1.555693	0.778519
H79	H	1.753466	-1.518565	0.826912
H80	H	1.838330	-1.441833	0.813905
H81	H	1.739851	-1.507898	0.656109
H82	H	1.824723	-1.431183	0.643089
H83	H	1.399293	-1.325402	0.504961
