data_functionalizedCrystal
_audit_creation_method	'MofGen! by Chris Wilmer'
_symmetry_space_group_name_H-M	'P1'
_symmetry_Int_Tables_number	1
_symmetry_cell_setting	triclinic
loop_
_symmetry_equiv_pos_as_xyz
  x,y,z
_cell_length_a	19.805407
_cell_length_b	16.625545
_cell_length_c	19.805399
_cell_angle_alpha	89.976761
_cell_angle_beta	90.017803
_cell_angle_gamma	89.975733
loop_
_atom_site_label
_atom_site_type_symbol
_atom_site_fract_x
_atom_site_fract_y
_atom_site_fract_z
Zn1	Zn	1.034733	0.321078	0.382708
Zn2	Zn	1.034647	0.455915	0.269528
Zn3	Zn	0.921548	0.321094	0.269536
Zn4	Zn	0.921510	0.455866	0.382679
O5	O	0.978109	0.388488	0.326113
O6	O	1.129438	0.338978	0.367704
O7	O	1.019624	0.438058	0.174813
O8	O	0.936614	0.208259	0.284564
O9	O	1.129375	0.438043	0.284551
O10	O	1.019771	0.208248	0.367711
O11	O	0.936530	0.339006	0.174819
O12	O	0.826826	0.338958	0.284536
O13	O	0.936550	0.437959	0.477399
O14	O	0.826799	0.437974	0.367661
O15	O	1.019734	0.338931	0.477421
O16	O	1.019587	0.568741	0.284522
O17	O	0.936466	0.568705	0.367653
C18	C	0.802253	0.388463	0.326096
C19	C	0.727021	0.388472	0.326105
C20	C	0.691711	0.336980	0.369469
C21	C	0.621023	0.336984	0.369471
C22	C	0.585646	0.388485	0.326114
C23	C	0.620961	0.439979	0.282745
C24	C	0.691649	0.439970	0.282740
C25	C	0.335888	0.440015	0.282766
C26	C	0.265196	0.440022	0.282776
C27	C	0.265262	0.337030	0.369498
C28	C	0.335949	0.337021	0.369492
C29	C	0.371259	0.388511	0.326122
C30	C	0.447907	0.388505	0.326119
C31	C	0.508999	0.388496	0.326120
C32	C	0.978032	0.597979	0.326099
C33	C	0.978060	0.687600	0.326115
C34	C	0.978085	0.760383	0.326131
C35	C	0.978123	0.851691	0.326149
C36	C	0.978156	0.924468	0.326160
C37	C	0.978193	1.015782	0.326177
C38	C	1.154652	0.388514	0.326130
C39	C	1.229884	0.388525	0.326137
C40	C	0.978147	0.388438	0.502656
C41	C	0.978164	0.388416	0.577888
C42	C	0.978201	1.178179	0.326150
C43	C	0.978227	1.088558	0.326188
C44	C	0.978111	0.388481	0.150257
C45	C	0.978226	0.388275	0.075025
C46	C	1.021479	0.336849	0.613244
C47	C	1.021486	0.336826	0.683933
C48	C	0.978180	0.388374	0.719263
C49	C	0.934861	0.439943	0.683902
C50	C	0.934851	0.439961	0.613215
C51	C	0.934899	0.439867	0.968975
C52	C	0.934913	0.439846	1.039667
C53	C	1.021534	0.336732	1.039693
C54	C	1.021524	0.336751	0.969006
C55	C	0.978202	0.388316	0.933651
C56	C	0.978194	0.388340	0.857002
C57	C	0.978191	0.388355	0.795910
H58	H	0.592276	0.295056	0.404784
O59	O	0.888196	0.495437	1.077779
H60	H	0.858063	0.531291	1.041319
O61	O	0.373964	0.495547	0.235986
H62	H	0.360390	0.558850	0.247505
H63	H	0.592152	0.481907	0.247439
O64	O	1.068257	0.281110	1.077831
H65	H	1.098373	0.245277	1.041386
H66	H	0.720397	0.481899	0.247428
O67	O	0.374103	0.281464	0.416251
H68	H	0.360551	0.295367	0.469356
H69	H	1.056745	0.294876	0.584483
O70	O	0.227041	0.495565	0.236000
H71	H	0.194842	0.536648	0.266234
H72	H	0.720510	0.295045	0.404778
O73	O	0.227180	0.281478	0.416269
H74	H	0.172083	0.290124	0.408984
O75	O	1.068208	0.281213	0.722070
H76	H	1.098326	0.245381	0.685627
O77	O	1.068232	0.281155	0.930897
H78	H	1.098350	0.245287	0.967359
H79	H	0.899633	0.481867	0.940198
H80	H	0.899598	0.481911	0.712674
O81	O	0.888124	0.495568	0.575075
H82	H	0.858013	0.531410	0.611516
