data_functionalizedCrystal
_audit_creation_method	'MofGen! by Chris Wilmer'
_symmetry_space_group_name_H-M	'P1'
_symmetry_Int_Tables_number	1
_symmetry_cell_setting	triclinic
loop_
_symmetry_equiv_pos_as_xyz
  x,y,z
_cell_length_a	16.109301
_cell_length_b	17.038272
_cell_length_c	14.586319
_cell_angle_alpha	89.995924
_cell_angle_beta	89.999213
_cell_angle_gamma	87.286518
loop_
_atom_site_label
_atom_site_type_symbol
_atom_site_fract_x
_atom_site_fract_y
_atom_site_fract_z
O1	O	1.110268	0.100495	-0.076183
O2	O	0.869094	0.113001	-0.076198
O3	O	0.988248	-0.007067	-0.076183
O4	O	0.991114	0.220564	-0.076198
O5	O	0.988239	-0.007069	0.076298
O6	O	0.869085	0.113000	0.076283
O7	O	1.110259	0.100493	0.076298
Cu8	Cu	0.989671	0.106746	0.090213
Cu9	Cu	0.989682	0.106748	-0.090113
O10	O	0.991105	0.220562	0.076283
C11	C	0.838079	0.112494	0.000041
C12	C	0.745676	0.110975	0.000035
C13	C	0.528212	0.178690	0.000042
C14	C	0.441390	0.177257	0.000048
C15	C	0.451147	0.034799	0.000053
C16	C	0.537968	0.036233	0.000054
C17	C	0.576498	0.108181	0.000043
C18	C	0.402855	0.105314	0.000049
C19	C	0.308719	0.103759	0.000055
C20	C	0.670640	0.109736	0.000039
C21	C	0.985636	-0.036196	0.000057
C22	C	0.977857	-0.122989	0.000056
C23	C	1.049277	-0.173104	0.000062
C24	C	1.041963	-0.254654	0.000052
C25	C	0.963228	-0.286089	0.000044
C26	C	0.891802	-0.235967	0.000036
C27	C	0.899116	-0.154418	0.000039
C28	C	0.937385	-0.531846	0.000030
C29	C	0.930076	-0.613402	0.000031
C30	C	1.080238	-0.632083	0.000045
C31	C	1.087546	-0.550532	0.000053
C32	C	1.016120	-0.500418	0.000040
C33	C	0.955749	-0.369446	0.000038
C34	C	1.023599	-0.417062	0.000040
C35	C	1.141274	0.101001	0.000057
C36	C	1.233677	0.102519	0.000057
C37	C	0.993717	0.249691	0.000041
C38	C	1.001496	0.336484	0.000036
N39	N	0.989670	0.106744	0.217045
N40	N	0.989689	0.106744	-0.216945
C41	C	1.042451	0.053596	0.452058
C42	C	1.042453	0.053594	0.548039
C43	C	0.936902	0.159895	0.548036
C44	C	0.936896	0.159893	0.452056
C45	C	0.989675	0.106744	0.404070
C46	C	0.989684	0.106744	0.596030
C47	C	0.989686	0.106743	0.700098
C48	C	0.989672	0.106744	0.299996
H49	H	0.577284	-0.021187	0.000057
H50	H	0.891642	-0.395049	0.000034
O51	O	1.163967	-0.519869	0.000091
C52	C	1.241783	-0.402519	0.000035
C53	C	1.155186	-0.437139	0.000011
H54	H	1.234713	-0.335627	-0.000050
H55	H	1.277386	-0.423106	0.063862
H56	H	1.277365	-0.423202	-0.063764
H57	H	1.119535	-0.416471	0.063766
H58	H	1.119646	-0.416556	-0.063859
H59	H	0.402079	0.234672	0.000048
H60	H	0.879224	-0.491053	0.000020
H61	H	1.113392	-0.147517	0.000074
H62	H	1.100122	-0.295455	0.000059
H63	H	0.893916	0.203173	0.412982
H64	H	0.827693	-0.261567	0.000024
H65	H	0.893932	0.203169	0.587116
H66	H	0.559580	0.237274	0.000040
O67	O	1.093621	0.001841	0.405505
C68	C	1.132728	-0.134112	0.376263
C69	C	1.074714	-0.075573	0.429007
H70	H	1.117474	-0.196714	0.395260
H71	H	1.123673	-0.125077	0.299403
H72	H	1.200033	-0.123874	0.395126
H73	H	1.007386	-0.085776	0.410220
H74	H	1.083840	-0.084622	0.505854
H75	H	1.138389	-0.672894	0.000053
O76	O	1.093643	0.001997	0.594796
C77	C	1.140467	-0.045085	0.742657
C78	C	1.082438	0.013382	0.689820
H79	H	1.131441	-0.035889	0.819493
H80	H	1.125206	-0.107728	0.723859
H81	H	1.207766	-0.034884	0.723725
H82	H	1.015120	0.003253	0.708724
H83	H	1.097770	0.076005	0.708622
O84	O	0.413584	-0.035019	0.000015
C85	C	0.284157	-0.100364	0.000066
C86	C	0.326587	-0.021240	0.000091
H87	H	0.213814	-0.089252	0.000148
H88	H	0.303574	-0.135216	-0.063760
H89	H	0.303681	-0.135209	0.063866
H90	H	0.307084	0.013668	-0.063665
H91	H	0.307169	0.013552	0.063960
H92	H	0.865956	-0.638991	0.000039
O93	O	0.829654	-0.105846	0.000075
C94	C	0.679942	-0.095918	-0.000002
C95	C	0.758542	-0.151014	-0.000013
H96	H	0.622428	-0.132414	-0.000092
H97	H	0.679546	-0.057287	0.063824
H98	H	0.679668	-0.057254	-0.063801
H99	H	0.758867	-0.189727	0.063743
H100	H	0.758908	-0.189591	-0.063882
H101	H	1.087705	-0.391465	0.000026
