data_functionalizedCrystal
_audit_creation_method	'MofGen! by Chris Wilmer'
_symmetry_space_group_name_H-M	'P1'
_symmetry_Int_Tables_number	1
_symmetry_cell_setting	triclinic
loop_
_symmetry_equiv_pos_as_xyz
  x,y,z
_cell_length_a	21.295419
_cell_length_b	21.295418
_cell_length_c	16.120297
_cell_angle_alpha	87.131155
_cell_angle_beta	87.122483
_cell_angle_gamma	90.042201
loop_
_atom_site_label
_atom_site_type_symbol
_atom_site_fract_x
_atom_site_fract_y
_atom_site_fract_z
Zn1	Zn	0.944291	-0.268428	0.471366
Zn2	Zn	1.277624	0.064905	0.804699
Zn3	Zn	1.610958	0.398238	1.138033
Zn4	Zn	0.949546	-0.368357	0.331948
Zn5	Zn	1.282879	-0.035024	0.665281
Zn6	Zn	1.616213	0.298309	0.998615
Zn7	Zn	0.844360	-0.263134	0.331970
Zn8	Zn	1.177694	0.070199	0.665303
Zn9	Zn	1.511027	0.403533	0.998637
Zn10	Zn	0.838991	-0.373689	0.471313
Zn11	Zn	1.172324	-0.040355	0.804647
Zn12	Zn	1.505658	0.292978	1.137980
O13	O	0.894297	-0.318402	0.401649
O14	O	1.227630	0.014931	0.734983
O15	O	1.560964	0.348265	1.068316
O16	O	1.033077	-0.281669	0.452885
O17	O	1.366410	0.051665	0.786218
O18	O	1.699744	0.384998	1.119551
O19	O	0.940039	-0.349952	0.215288
O20	O	1.273373	-0.016619	0.548622
O21	O	1.606706	0.316714	0.881955
O22	O	0.857664	-0.175748	0.350492
O23	O	1.190997	0.157585	0.683826
O24	O	1.524331	0.490919	1.017159
O25	O	1.036938	-0.355086	0.350455
O26	O	1.370271	-0.021753	0.683788
O27	O	1.703604	0.311581	1.017122
O28	O	0.931083	-0.179638	0.452906
O29	O	1.264416	0.153696	0.786239
O30	O	1.597749	0.487029	1.119573
O31	O	0.862760	-0.272645	0.215305
O32	O	1.196093	0.060688	0.548638
O33	O	1.529426	0.394021	0.881971
O34	O	0.755559	-0.277815	0.350441
O35	O	1.088893	0.055518	0.683775
O36	O	1.422226	0.388852	1.017108
O37	O	0.848513	-0.364172	0.587983
O38	O	1.181846	-0.030839	0.921316
O39	O	1.515180	0.302494	1.254650
O40	O	0.751615	-0.359039	0.452816
O41	O	1.084948	-0.025706	0.786150
O42	O	1.418281	0.307628	1.119483
O43	O	0.925876	-0.286838	0.588022
O44	O	1.259210	0.046495	0.921355
O45	O	1.592543	0.379829	1.254688
O46	O	0.934833	-0.457153	0.350404
O47	O	1.268166	-0.123819	0.683737
O48	O	1.601500	0.209514	1.017071
O49	O	0.853609	-0.461070	0.452795
O50	O	1.186942	-0.127736	0.786128
O51	O	1.520275	0.205597	1.119462
C52	C	0.730746	-0.318431	0.401626
C53	C	1.064080	0.014902	0.734959
C54	C	1.397413	0.348235	1.068293
C55	C	0.660778	-0.318460	0.401636
C56	C	0.994111	0.014874	0.734969
C57	C	1.327445	0.348207	1.068302
C58	C	0.625920	-0.280300	0.455053
C59	C	0.959253	0.053033	0.788387
C60	C	1.292587	0.386366	1.121720
C61	C	0.560177	-0.280284	0.455057
C62	C	0.893511	0.053050	0.788390
C63	C	1.226844	0.386383	1.121723
C64	C	0.529295	-0.318438	0.401651
C65	C	0.862628	0.014896	0.734984
C66	C	1.195961	0.348229	1.068318
C67	C	0.564161	-0.356600	0.348223
C68	C	0.897494	-0.023266	0.681556
C69	C	1.230828	0.310067	1.014890
C70	C	0.629902	-0.356611	0.348215
C71	C	0.963236	-0.023277	0.681549
C72	C	1.296569	0.310056	1.014882
N73	N	0.426272	-0.373266	0.395138
N74	N	0.759605	-0.039933	0.728471
N75	N	1.092939	0.293400	1.061804
N76	N	0.363820	-0.373254	0.395150
N77	N	0.697154	-0.039921	0.728483
N78	N	1.030487	0.293412	1.061816
C79	C	0.331219	-0.318406	0.401669
C80	C	0.664553	0.014927	0.735003
C81	C	0.997886	0.348261	1.068336
N82	N	0.363429	-0.263569	0.408193
N83	N	0.696762	0.069764	0.741526
N84	N	1.030096	0.403097	1.074859
N85	N	0.425887	-0.263582	0.408185
N86	N	0.759220	0.069751	0.741518
N87	N	1.092553	0.403084	1.074852
C88	C	0.458009	-0.318430	0.401653
C89	C	0.791343	0.014903	0.734986
C90	C	1.124676	0.348237	1.068320
C91	C	0.225076	-0.280225	0.455093
C92	C	0.558409	0.053108	0.788427
C93	C	0.891743	0.386442	1.121760
C94	C	0.159332	-0.280207	0.455091
C95	C	0.492666	0.053126	0.788424
C96	C	0.825999	0.386460	1.121757
C97	C	0.163317	-0.356529	0.348261
C98	C	0.496650	-0.023196	0.681595
C99	C	0.829983	0.310138	1.014928
C100	C	0.229059	-0.356541	0.348260
C101	C	0.562393	-0.023208	0.681593
C102	C	0.895726	0.310125	1.014926
C103	C	0.259935	-0.318390	0.401680
C104	C	0.593268	0.014943	0.735013
C105	C	0.926601	0.348276	1.068347
C106	C	0.894225	-0.481952	0.401610
C107	C	1.227558	-0.148619	0.734943
C108	C	1.560892	0.184714	1.068276
C109	C	0.894251	-0.551921	0.401620
C110	C	1.227584	-0.218587	0.734954
C111	C	1.560917	0.114746	1.068287
C112	C	0.936736	-1.049324	0.348469
C113	C	1.270070	-0.715991	0.681802
C114	C	1.603403	-0.382658	1.015135
C115	C	0.936713	-0.983581	0.348449
C116	C	1.270047	-0.650248	0.681782
C117	C	1.603380	-0.316914	1.015116
C118	C	0.894383	-0.952763	0.401708
C119	C	1.227717	-0.619430	0.735041
C120	C	1.561050	-0.286097	1.068374
C121	C	0.852063	-0.987694	0.454975
C122	C	1.185396	-0.654361	0.788308
C123	C	1.518730	-0.321027	1.121642
C124	C	0.852083	-1.053436	0.454987
C125	C	1.185416	-0.720102	0.788321
C126	C	1.518750	-0.386769	1.121654
N127	N	0.886697	-0.852307	0.474658
N128	N	1.220030	-0.518973	0.807991
N129	N	1.553363	-0.185640	1.141324
N130	N	0.886681	-0.789855	0.474644
N131	N	1.220015	-0.456521	0.807977
N132	N	1.553348	-0.123188	1.141310
C133	C	0.894319	-0.754687	0.401673
C134	C	1.227653	-0.421354	0.735006
C135	C	1.560986	-0.088021	1.068339
N136	N	0.901986	-0.784331	0.328715
N137	N	1.235319	-0.450998	0.662048
N138	N	1.568652	-0.117664	0.995381
N139	N	0.902004	-0.846789	0.328730
N140	N	1.235338	-0.513456	0.662063
N141	N	1.568671	-0.180122	0.995396
C142	C	0.894357	-0.881478	0.401700
C143	C	1.227690	-0.548144	0.735033
C144	C	1.561023	-0.214811	1.068367
C145	C	0.936609	-0.648478	0.348383
C146	C	1.269942	-0.315145	0.681717
C147	C	1.603276	0.018188	1.015050
C148	C	0.936582	-0.582734	0.348362
C149	C	1.269915	-0.249401	0.681696
C150	C	1.603248	0.083933	1.015029
C151	C	0.851934	-0.586848	0.454896
C152	C	1.185267	-0.253515	0.788229
C153	C	1.518601	0.079818	1.121562
C154	C	0.851959	-0.652591	0.454909
C155	C	1.185292	-0.319258	0.788243
C156	C	1.518625	0.014075	1.121576
C157	C	0.894299	-0.683402	0.401654
C158	C	1.227633	-0.350069	0.734988
C159	C	1.560966	-0.016736	1.068321
C160	C	1.058486	-0.318373	0.401673
C161	C	1.391820	0.014960	0.735007
C162	C	1.725153	0.348294	1.068340
C163	C	1.128454	-0.318361	0.401684
C164	C	1.461787	0.014973	0.735017
C165	C	1.795121	0.348306	1.068350
C166	C	0.886010	-0.326691	0.619097
C167	C	1.219343	0.006643	0.952431
C168	C	1.552676	0.339976	1.285764
C169	C	0.882478	-0.330223	0.711761
C170	C	1.215811	0.003111	1.045094
C171	C	1.549145	0.336444	1.378427
C172	C	0.894386	-0.154214	0.401708
C173	C	1.227719	0.179119	0.735041
C174	C	1.561053	0.512453	1.068374
C175	C	0.894424	-0.084247	0.401732
C176	C	1.227757	0.249087	0.735066
C177	C	1.561090	0.582420	1.068399
C178	C	0.902589	-0.310100	0.185047
C179	C	1.235922	0.023233	0.518381
C180	C	1.569255	0.356566	0.851714
C181	C	0.906242	-0.306391	0.092385
C182	C	1.239576	0.026942	0.425718
C183	C	1.572909	0.360276	0.759051
C184	C	0.876007	-0.336657	0.881418
C185	C	1.209340	-0.003324	1.214751
C186	C	1.542674	0.330009	1.548084
C187	C	0.912711	-0.299958	0.922733
C188	C	1.246045	0.033375	1.256066
C189	C	1.579378	0.366708	1.589400
C190	C	0.909111	-0.303539	1.017136
C191	C	1.242444	0.029795	1.350469
C192	C	1.575777	0.363128	1.683803
C193	C	0.879607	-0.333078	0.787006
C194	C	1.212940	0.000256	1.120339
C195	C	1.546273	0.333589	1.453673
H196	H	0.531791	-0.249206	0.498554
H197	H	0.865124	0.084127	0.831888
H198	H	1.198458	0.417460	1.165221
O199	O	0.835387	-0.377418	0.923832
O200	O	1.168720	-0.044084	1.257165
O201	O	1.502053	0.289249	1.590498
C202	C	0.869327	-0.419925	0.974220
C203	C	1.202661	-0.086592	1.307553
C204	C	1.535994	0.246741	1.640886
H205	H	0.919885	-0.422823	0.947925
H206	H	1.253219	-0.089489	1.281258
H207	H	1.586552	0.243844	1.614591
H208	H	0.846498	-0.468417	0.975303
H209	H	1.179831	-0.135083	1.308636
H210	H	1.513165	0.198250	1.641969
H211	H	0.869043	-0.402911	1.040176
H212	H	1.202377	-0.069578	1.373509
H213	H	1.535710	0.263756	1.706842
O214	O	0.977638	-0.678471	0.296586
O215	O	1.310971	-0.345138	0.629919
O216	O	1.644305	-0.011805	0.963253
C217	C	0.943885	-0.714478	0.242693
C218	C	1.277219	-0.381144	0.576026
C219	C	1.610552	-0.047811	0.909360
H220	H	0.895055	-0.725496	0.272058
H221	H	1.228388	-0.392163	0.605391
H222	H	1.561721	-0.058829	0.938725
H223	H	0.969973	-0.760254	0.231531
H224	H	1.303306	-0.426921	0.564865
H225	H	1.636639	-0.093588	0.898198
H226	H	0.939335	-0.686800	0.180911
H227	H	1.272669	-0.353467	0.514244
H228	H	1.606002	-0.020134	0.847578
O229	O	0.655836	-0.243270	0.507053
O230	O	0.989170	0.090063	0.840386
O231	O	1.322503	0.423396	1.173719
C232	C	0.636619	-0.260298	0.590113
C233	C	0.969952	0.073036	0.923446
C234	C	1.303285	0.406369	1.256779
H235	H	0.588803	-0.284559	0.591788
H236	H	0.922136	0.048774	0.925122
H237	H	1.255470	0.382108	1.258455
H238	H	0.632982	-0.216338	0.627602
H239	H	0.966316	0.116995	0.960935
H240	H	1.299649	0.450328	1.294269
H241	H	0.672529	-0.293764	0.618112
H242	H	1.005863	0.039570	0.951445
H243	H	1.339196	0.372903	1.284779
O244	O	0.254975	-0.243107	0.507007
O245	O	0.588308	0.090227	0.840340
O246	O	0.921641	0.423560	1.173673
C247	C	0.210107	-0.209429	0.554167
C248	C	0.543440	0.123904	0.887501
C249	C	0.876773	0.457237	1.220834
H250	H	0.164544	-0.205895	0.520027
H251	H	0.497877	0.127438	0.853360
H252	H	0.831211	0.460771	1.186693
H253	H	0.228807	-0.160191	0.563183
H254	H	0.562141	0.173142	0.896517
H255	H	0.895474	0.506475	1.229850
H256	H	0.200687	-0.234967	0.617427
H257	H	0.534020	0.098366	0.950760
H258	H	0.867354	0.431699	1.284093
O259	O	0.953341	-0.259226	0.880272
O260	O	1.286674	0.074107	1.213605
O261	O	1.620007	0.407441	1.546938
C262	C	0.919403	-0.216690	0.829920
C263	C	1.252736	0.116643	1.163253
C264	C	1.586070	0.449977	1.496587
H265	H	0.872174	-0.238422	0.816951
H266	H	1.205507	0.094912	1.150284
H267	H	1.538840	0.428245	1.483618
H268	H	0.947340	-0.205961	0.768659
H269	H	1.280673	0.127373	1.101993
H270	H	1.614007	0.460706	1.435326
H271	H	0.911253	-0.171293	0.863432
H272	H	1.244586	0.162041	1.196766
H273	H	1.577920	0.495374	1.530099
H274	H	0.971170	-0.955142	0.305074
H275	H	1.304504	-0.621809	0.638407
H276	H	1.637837	-0.288475	0.971740
O277	O	0.810920	-1.087387	0.506616
O278	O	1.144253	-0.754053	0.839949
O279	O	1.477587	-0.420720	1.173282
C280	C	0.772128	-1.123677	0.459111
C281	C	1.105462	-0.790344	0.792444
C282	C	1.438795	-0.457011	1.125777
H283	H	0.770776	-1.101389	0.393441
H284	H	1.104109	-0.768055	0.726774
H285	H	1.437443	-0.434722	1.060108
H286	H	0.722519	-1.125616	0.489203
H287	H	1.055852	-0.792282	0.822536
H288	H	1.389185	-0.458949	1.155869
H289	H	0.791722	-1.173372	0.456275
H290	H	1.125055	-0.840039	0.789608
H291	H	1.458388	-0.506705	1.122941
H292	H	0.138173	-0.387595	0.304777
H293	H	0.471506	-0.054261	0.638111
H294	H	0.804839	0.279072	0.971444
H295	H	0.539012	-0.387665	0.304739
H296	H	0.872345	-0.054331	0.638072
H297	H	1.205679	0.279002	0.971406
O298	O	0.663831	-0.393720	0.296443
O299	O	0.997164	-0.060387	0.629777
O300	O	1.330498	0.272947	0.963110
C301	C	0.700007	-0.436257	0.343810
C302	C	1.033341	-0.102923	0.677143
C303	C	1.366674	0.230410	1.010476
H304	H	0.707473	-0.416541	0.407042
H305	H	1.040806	-0.083208	0.740375
H306	H	1.374140	0.250126	1.073708
H307	H	0.747521	-0.443367	0.309831
H308	H	1.080854	-0.110034	0.643164
H309	H	1.414187	0.223299	0.976498
H310	H	0.674283	-0.483257	0.352858
H311	H	1.007616	-0.149923	0.686192
H312	H	1.340950	0.183410	1.019525
O313	O	0.125445	-0.243066	0.506865
O314	O	0.458778	0.090267	0.840198
O315	O	0.792111	0.423601	1.173532
C316	C	0.089242	-0.200546	0.459509
C317	C	0.422575	0.132787	0.792843
C318	C	0.755909	0.466120	1.126176
H319	H	0.111552	-0.194075	0.393858
H320	H	0.444885	0.139258	0.727192
H321	H	0.778219	0.472592	1.060525
H322	H	0.087390	-0.153295	0.489787
H323	H	0.420723	0.180039	0.823121
H324	H	0.754056	0.513372	1.156454
H325	H	0.039511	-0.219886	0.456590
H326	H	0.372844	0.113447	0.789923
H327	H	0.706178	0.446781	1.123257
O328	O	0.262827	-0.393673	0.296349
O329	O	0.596160	-0.060340	0.629682
O330	O	0.929494	0.272993	0.963016
C331	C	0.221475	-0.427335	0.249196
C332	C	0.554809	-0.094001	0.582529
C333	C	0.888142	0.239332	0.915862
H334	H	0.173314	-0.430848	0.283342
H335	H	0.506647	-0.097515	0.616675
H336	H	0.839981	0.235819	0.950009
H337	H	0.240767	-0.476581	0.240181
H338	H	0.574101	-0.143248	0.573515
H339	H	0.907434	0.190086	0.906848
H340	H	0.216907	-0.401796	0.185936
H341	H	0.550240	-0.068463	0.519269
H342	H	0.883573	0.264870	0.852602
H343	H	0.971212	-1.074406	0.305102
H344	H	1.304545	-0.741073	0.638435
H345	H	1.637878	-0.407740	0.971768
H346	H	0.971036	-0.554299	0.304984
H347	H	1.304369	-0.220966	0.638317
H348	H	1.637702	0.112368	0.971651
H349	H	0.817596	-0.962599	0.498338
H350	H	1.150930	-0.629266	0.831671
H351	H	1.484263	-0.295932	1.165004
H352	H	0.817466	-0.561757	0.498256
H353	H	1.150799	-0.228424	0.831590
H354	H	1.484133	0.104910	1.164923
H355	H	0.817505	-0.681026	0.498285
H356	H	1.150838	-0.347692	0.831618
H357	H	1.484171	-0.014359	1.164951
