data_functionalizedCrystal
_audit_creation_method	'MofGen! by Chris Wilmer'
_symmetry_space_group_name_H-M	'P1'
_symmetry_Int_Tables_number	1
_symmetry_cell_setting	triclinic
loop_
_symmetry_equiv_pos_as_xyz
  x,y,z
_cell_length_a	18.215407
_cell_length_b	12.759400
_cell_length_c	12.759393
_cell_angle_alpha	90.031769
_cell_angle_beta	89.979286
_cell_angle_gamma	89.984868
loop_
_atom_site_label
_atom_site_type_symbol
_atom_site_fract_x
_atom_site_fract_y
_atom_site_fract_z
Zn1	Zn	1.125131	0.418190	-0.594075
Zn2	Zn	1.458464	0.751523	-0.260741
Zn3	Zn	1.791797	1.084856	0.072592
Zn4	Zn	1.125059	0.593909	-0.418395
Zn5	Zn	1.458392	0.927242	-0.085062
Zn6	Zn	1.791726	1.260576	0.248272
Zn7	Zn	1.002061	0.418246	-0.418404
Zn8	Zn	1.335395	0.751579	-0.085071
Zn9	Zn	1.668728	1.084913	0.248263
Zn10	Zn	1.002051	0.593828	-0.594026
Zn11	Zn	1.335384	0.927162	-0.260693
Zn12	Zn	1.668718	1.260495	0.072640
O13	O	1.063575	0.506043	-0.506225
O14	O	1.396909	0.839377	-0.172892
O15	O	1.730242	1.172710	0.160442
O16	O	1.228105	0.441509	-0.570787
O17	O	1.561439	0.774843	-0.237454
O18	O	1.894772	1.108176	0.095880
O19	O	1.108717	0.570664	-0.271375
O20	O	1.442051	0.903998	0.061958
O21	O	1.775384	1.237331	0.395292
O22	O	1.018421	0.271218	-0.441731
O23	O	1.351754	0.604551	-0.108398
O24	O	1.685088	0.937884	0.224935
O25	O	1.228053	0.570610	-0.441716
O26	O	1.561386	0.903943	-0.108383
O27	O	1.894719	1.237276	0.224951
O28	O	1.108839	0.271176	-0.570796
O29	O	1.442173	0.604509	-0.237463
O30	O	1.775506	0.937843	0.095871
O31	O	1.018351	0.441606	-0.271382
O32	O	1.351685	0.774939	0.061952
O33	O	1.685018	1.108272	0.395285
O34	O	0.899076	0.441527	-0.441684
O35	O	1.232409	0.774861	-0.108351
O36	O	1.565742	1.108194	0.224983
O37	O	1.018403	0.570472	-0.741054
O38	O	1.351737	0.903806	-0.407720
O39	O	1.685070	1.237139	-0.074387
O40	O	0.899068	0.570527	-0.570713
O41	O	1.232401	0.903860	-0.237380
O42	O	1.565735	1.237194	0.095954
O43	O	1.108829	0.441431	-0.741090
O44	O	1.442163	0.774764	-0.407756
O45	O	1.775496	1.108098	-0.074423
O46	O	1.108707	0.740919	-0.441669
O47	O	1.442041	1.074253	-0.108335
O48	O	1.775374	1.407586	0.224998
O49	O	1.018334	0.740860	-0.570704
O50	O	1.351667	1.074194	-0.237371
O51	O	1.685001	1.407527	0.095962
C52	C	0.872369	0.506025	-0.506195
C53	C	1.205702	0.839359	-0.172862
C54	C	1.539036	1.172692	0.160472
C55	C	0.790570	0.506043	-0.506207
C56	C	1.123904	0.839376	-0.172874
C57	C	1.457237	1.172710	0.160460
C58	C	1.063532	0.779011	-0.506203
C59	C	1.396865	1.112344	-0.172870
C60	C	1.730198	1.445677	0.160464
C61	C	1.063580	0.895787	-0.506229
C62	C	1.396914	1.229121	-0.172896
C63	C	1.730247	1.562454	0.160438
C64	C	1.063623	0.505936	-0.780258
C65	C	1.396957	0.839270	-0.446925
C66	C	1.730290	1.172603	-0.113592
C67	C	1.063644	0.505891	-0.897035
C68	C	1.396977	0.839224	-0.563702
C69	C	1.730310	1.172557	-0.230369
C70	C	0.602392	0.573319	-0.573308
C71	C	0.935725	0.906652	-0.239975
C72	C	1.269058	1.239985	0.093359
C73	C	0.525533	0.573322	-0.573321
C74	C	0.858866	0.906655	-0.239988
C75	C	1.192200	1.239989	0.093346
C76	C	0.525511	0.438787	-0.439165
C77	C	0.858845	0.772120	-0.105832
C78	C	1.192178	1.105454	0.227502
C79	C	0.602369	0.438779	-0.439158
C80	C	0.935702	0.772113	-0.105825
C81	C	1.269035	1.105446	0.227509
C82	C	0.640807	0.506051	-0.506228
C83	C	0.974140	0.839384	-0.172895
C84	C	1.307473	1.172718	0.160439
C85	C	0.487091	0.506062	-0.506248
C86	C	0.820424	0.839395	-0.172915
C87	C	1.153757	1.172729	0.160419
C88	C	0.403757	0.506065	-0.506262
C89	C	0.737090	0.839399	-0.172928
C90	C	1.070424	1.172732	0.160405
C91	C	0.724146	0.506047	-0.506216
C92	C	1.057479	0.839380	-0.172883
C93	C	1.390812	1.172714	0.160451
C94	C	1.255528	0.506062	-0.506256
C95	C	1.588862	0.839395	-0.172923
C96	C	1.922195	1.172729	0.160411
C97	C	1.337327	0.506070	-0.506269
C98	C	1.670661	0.839403	-0.172936
C99	C	2.003994	1.172737	0.160398
C100	C	1.063639	0.232010	-0.506270
C101	C	1.396973	0.565343	-0.172937
C102	C	1.730306	0.898677	0.160397
C103	C	1.063667	0.115233	-0.506289
C104	C	1.397000	0.448567	-0.172956
C105	C	1.730333	0.781900	0.160377
C106	C	1.110690	0.950645	-0.439114
C107	C	1.444023	1.283979	-0.105781
C108	C	1.777357	1.617312	0.227552
C109	C	1.110735	1.060369	-0.439147
C110	C	1.444069	1.393703	-0.105813
C111	C	1.777402	1.727036	0.227520
C112	C	1.016555	1.060368	-0.573411
C113	C	1.349888	1.393701	-0.240078
C114	C	1.683221	1.727034	0.093256
C115	C	1.016514	0.950646	-0.573383
C116	C	1.349847	1.283979	-0.240050
C117	C	1.683180	1.617312	0.093283
C118	C	1.165062	0.950647	-0.361595
C119	C	1.498396	1.283980	-0.028261
C120	C	1.831729	1.617314	0.305072
C121	C	1.165107	1.060371	-0.361627
C122	C	1.498441	1.393704	-0.028294
C123	C	1.831774	1.727038	0.305040
C124	C	1.016610	0.438677	-0.951907
C125	C	1.349943	0.772011	-0.618573
C126	C	1.683277	1.105344	-0.285240
C127	C	1.016632	0.438646	-1.061631
C128	C	1.349966	0.771979	-0.728298
C129	C	1.683299	1.105313	-0.394964
C130	C	1.110728	0.573044	-1.061602
C131	C	1.444061	0.906378	-0.728269
C132	C	1.777395	1.239711	-0.394936
C133	C	1.110701	0.573080	-0.951880
C134	C	1.444035	0.906414	-0.618547
C135	C	1.777368	1.239747	-0.285213
C136	C	0.962287	0.361080	-0.951924
C137	C	1.295620	0.694414	-0.618591
C138	C	1.628953	1.027747	-0.285257
C139	C	0.962309	0.361049	-1.061648
C140	C	1.295642	0.694382	-0.728315
C141	C	1.628976	1.027716	-0.394982
C142	C	1.063570	0.506074	-0.233258
C143	C	1.396903	0.839407	0.100076
C144	C	1.730237	1.172741	0.433409
C145	C	1.063692	0.505824	-0.116482
C146	C	1.397026	0.839157	0.216852
C147	C	1.730359	1.172490	0.550185
H148	H	0.633686	0.628093	-0.627923
H149	H	0.967019	0.961426	-0.294590
H150	H	1.300352	1.294760	0.038743
F151	F	1.145208	1.099409	-0.255258
F152	F	1.478542	1.432742	0.078076
F153	F	1.811875	1.766076	0.411409
F154	F	1.235878	1.104744	-0.399829
F155	F	1.569211	1.438078	-0.066496
F156	F	1.902545	1.771411	0.266837
F157	F	0.891544	0.399134	-1.106122
F158	F	1.224878	0.732467	-0.772789
F159	F	1.558211	1.065801	-0.439456
H160	H	0.978235	1.105047	-0.628087
H161	H	1.311569	1.438380	-0.294753
H162	H	1.644902	1.771713	0.038580
F163	F	0.643255	0.367174	-0.367764
F164	F	0.976588	0.700508	-0.034431
F165	F	1.309922	1.033841	0.298903
H166	H	0.905276	0.382870	-0.922142
H167	H	1.238609	0.716203	-0.588809
H168	H	1.571942	1.049537	-0.255475
H169	H	1.222041	0.920789	-0.383451
H170	H	1.555374	1.254122	-0.050117
H171	H	1.888707	1.587455	0.283216
H172	H	0.978160	0.905981	-0.628042
H173	H	1.311494	1.239315	-0.294709
H174	H	1.644827	1.572648	0.038624
F175	F	1.138384	0.906271	-0.260531
F176	F	1.471718	1.239604	0.072803
F177	F	1.805051	1.572937	0.406136
F178	F	1.160807	0.644549	-1.119981
F179	F	1.494140	0.977883	-0.786648
F180	F	1.827473	1.311216	-0.453315
F181	F	0.988988	0.260074	-0.907459
F182	F	1.322322	0.593407	-0.574126
F183	F	1.655655	0.926740	-0.240793
H184	H	1.148990	0.627827	-0.907208
H185	H	1.482323	0.961160	-0.573875
H186	H	1.815657	1.294494	-0.240541
H187	H	0.977591	0.279667	-1.091447
H188	H	1.310925	0.613000	-0.758114
H189	H	1.644258	0.946333	-0.424780
H190	H	0.494259	0.628097	-0.627946
H191	H	0.827592	0.961430	-0.294612
H192	H	1.160925	1.294763	0.038721
H193	H	0.494205	0.384018	-0.384558
H194	H	0.827539	0.717352	-0.051224
H195	H	1.160872	1.050685	0.282109
