data_functionalizedCrystal
_audit_creation_method	'MofGen! by Chris Wilmer'
_symmetry_space_group_name_H-M	'P1'
_symmetry_Int_Tables_number	1
_symmetry_cell_setting	triclinic
loop_
_symmetry_equiv_pos_as_xyz
  x,y,z
_cell_length_a	14.044220
_cell_length_b	15.944545
_cell_length_c	13.101039
_cell_angle_alpha	93.360364
_cell_angle_beta	86.340132
_cell_angle_gamma	88.342525
loop_
_atom_site_label
_atom_site_type_symbol
_atom_site_fract_x
_atom_site_fract_y
_atom_site_fract_z
O1	O	1.262923	0.198266	-0.085114
O2	O	0.986955	0.190957	-0.085140
O3	O	1.132477	0.072901	-0.085114
O4	O	1.117400	0.316321	-0.085140
O5	O	1.122036	0.081387	0.085314
O6	O	0.976514	0.199443	0.085288
O7	O	1.252481	0.206752	0.085314
Zn8	Zn	1.112840	0.204444	0.112360
Zn9	Zn	1.126596	0.193264	-0.112186
O10	O	1.106959	0.324807	0.085288
C11	C	0.946420	0.192001	0.000071
C12	C	0.841194	0.182459	0.000062
C13	C	1.126631	0.045803	0.000101
C14	C	1.124758	-0.047583	0.000103
C15	C	0.648531	0.165017	0.000084
C16	C	0.590900	0.232688	0.000081
C17	C	0.483696	0.222982	0.000093
C18	C	0.755745	0.174721	0.000072
C19	C	1.028959	-0.325390	0.000074
C20	C	1.080294	-0.275530	-0.083952
C21	C	1.118078	-0.383729	0.000074
C22	C	1.070024	-0.267189	0.084076
C23	C	1.121355	-0.218569	0.000090
C24	C	1.169394	-0.335102	-0.084022
C25	C	1.159106	-0.326762	0.084082
C26	C	1.210508	-0.276930	0.000036
C27	C	1.116188	-0.478873	0.000063
C28	C	1.123253	-0.123427	0.000093
C29	C	1.293016	0.205707	0.000101
C30	C	1.398242	0.215249	0.000103
C31	C	1.112805	0.351905	0.000071
C32	C	1.114679	0.445291	0.000061
N33	N	1.103458	0.212075	0.265607
N34	N	1.135985	0.185628	-0.265433
C35	C	1.090694	0.222463	0.474647
C36	C	1.148746	0.175242	0.525533
C37	C	1.141644	0.181022	0.641850
C38	C	1.097795	0.216684	0.358320
H39	H	0.622075	0.297911	0.000069
H40	H	0.617358	0.099799	0.000096
H41	H	0.952214	-0.346794	-0.000015
H42	H	1.047009	-0.252951	-0.154998
H43	H	1.211360	-0.364633	-0.155138
H44	H	1.287320	-0.255690	-0.000005
H45	H	1.192358	-0.349358	0.155130
H46	H	1.035665	0.267230	0.518435
H47	H	1.203781	0.130473	0.481741
H48	H	1.028019	-0.237558	0.155112
