data_functionalizedCrystal
_audit_creation_method	'MofGen! by Chris Wilmer'
_symmetry_space_group_name_H-M	'P1'
_symmetry_Int_Tables_number	1
_symmetry_cell_setting	triclinic
loop_
_symmetry_equiv_pos_as_xyz
  x,y,z
_cell_length_a	13.897449
_cell_length_b	12.594516
_cell_length_c	13.897441
_cell_angle_alpha	90.028053
_cell_angle_beta	90.020733
_cell_angle_gamma	90.013095
loop_
_atom_site_label
_atom_site_type_symbol
_atom_site_fract_x
_atom_site_fract_y
_atom_site_fract_z
Zn1	Zn	1.474742	-0.423672	0.545398
Zn2	Zn	1.974742	0.076328	1.045398
Zn3	Zn	1.474653	-0.601683	0.384107
Zn4	Zn	1.974653	-0.101683	0.884107
Zn5	Zn	1.313431	-0.423722	0.384117
Zn6	Zn	1.813431	0.076278	0.884117
Zn7	Zn	1.313429	-0.601613	0.545359
Zn8	Zn	1.813429	-0.101613	1.045359
O9	O	1.394064	-0.512672	0.464745
O10	O	1.894064	-0.012672	0.964745
O11	O	1.609712	-0.447293	0.524015
O12	O	2.109712	0.052707	1.024015
O13	O	1.453229	-0.578126	0.249126
O14	O	1.953229	-0.078126	0.749126
O15	O	1.334868	-0.274770	0.405531
O16	O	1.834868	0.225230	0.905531
O17	O	1.609646	-0.578077	0.405515
O18	O	2.109646	-0.078077	0.905515
O19	O	1.453382	-0.274733	0.524024
O20	O	1.953382	0.225267	1.024024
O21	O	1.334781	-0.447380	0.249134
O22	O	1.834781	0.052620	0.749134
O23	O	1.178449	-0.447312	0.405494
O24	O	1.678449	0.052688	0.905494
O25	O	1.334865	-0.577958	0.680346
O26	O	1.834865	-0.077958	1.180346
O27	O	1.178448	-0.578007	0.523958
O28	O	1.678448	-0.078007	1.023958
O29	O	1.453380	-0.447226	0.680375
O30	O	1.953380	0.052774	1.180375
O31	O	1.453228	-0.750619	0.405477
O32	O	1.953228	-0.250619	0.905477
O33	O	1.334778	-0.750568	0.523949
O34	O	1.834778	-0.250568	1.023949
C35	C	1.143449	-0.512658	0.464723
C36	C	1.643449	-0.012658	0.964723
C37	C	1.036236	-0.512678	0.464737
C38	C	1.536236	-0.012678	0.964737
C39	C	1.394019	-0.789213	0.464729
C40	C	1.894019	-0.289213	0.964729
C41	C	1.394088	-0.907519	0.464754
C42	C	1.894088	-0.407519	0.964754
C43	C	0.839940	-0.512681	0.464762
C44	C	1.339940	-0.012681	0.964762
C45	C	0.949173	-0.512676	0.464745
C46	C	1.449173	-0.012676	0.964745
C47	C	1.458588	-0.976761	0.400386
C48	C	1.958588	-0.476761	0.900386
C49	C	1.482161	-1.047457	0.488426
C50	C	1.982161	-0.547457	0.988426
C51	C	1.370635	-1.047622	0.376769
C52	C	1.870635	-0.547622	0.876769
C53	C	1.417707	-0.976656	0.552841
C54	C	1.917707	-0.476656	1.052841
C55	C	1.306140	-0.976815	0.441124
C56	C	1.806140	-0.476815	0.941124
C57	C	1.329680	-1.047479	0.529225
C58	C	1.829680	-0.547479	1.029225
C59	C	1.645657	-0.512687	0.464768
C60	C	2.145657	-0.012687	0.964768
C61	C	1.752871	-0.512694	0.464778
C62	C	2.252871	-0.012694	0.964778
C63	C	1.394132	-0.512578	0.716338
C64	C	1.894132	-0.012578	1.216338
C65	C	1.394161	-0.512538	0.823552
C66	C	1.894161	-0.012538	1.323552
C67	C	1.394135	-0.235052	0.464783
C68	C	1.894135	0.264948	0.964783
C69	C	1.394165	-0.116746	0.464799
C70	C	1.894165	0.383254	0.964799
C71	C	1.394051	-0.512689	0.214131
C72	C	1.894051	-0.012689	0.714131
C73	C	1.394209	-0.512430	0.106918
C74	C	1.894209	-0.012430	0.606918
C75	C	1.394188	-0.512466	1.019848
C76	C	1.894188	-0.012466	1.519848
C77	C	1.394170	-0.512509	0.910615
C78	C	1.894170	-0.012509	1.410615
H79	H	1.513142	-0.945709	0.346001
H80	H	2.013142	-0.445709	0.846001
C81	C	1.607841	-1.051943	0.606947
C82	C	2.107841	-0.551943	1.106947
C83	C	1.582616	-1.089330	0.515447
C84	C	2.082616	-0.589330	1.015447
H85	H	1.669863	-1.077780	0.623620
H86	H	2.169863	-0.577780	1.123620
H87	H	1.562122	-1.076167	0.652739
H88	H	2.062122	-0.576167	1.152739
H89	H	1.608659	-0.976525	0.606531
H90	H	2.108659	-0.476525	1.106531
H91	H	1.581791	-1.164749	0.515865
H92	H	2.081791	-0.664749	1.015865
H93	H	1.628346	-1.065113	0.469643
H94	H	2.128346	-0.565113	0.969643
C95	C	1.343292	-1.200868	0.277612
C96	C	1.843292	-0.700868	0.777612
C97	C	1.343808	-1.089701	0.276298
C98	C	1.843808	-0.589701	0.776298
H99	H	1.326742	-1.226841	0.215582
H100	H	1.826742	-0.726841	0.715582
H101	H	1.297432	-1.225072	0.323270
H102	H	1.797432	-0.725072	0.823270
H103	H	1.405360	-1.226081	0.294860
H104	H	1.905360	-0.726081	0.794860
H105	H	1.281738	-1.064488	0.259057
H106	H	1.781738	-0.564488	0.759057
H107	H	1.389671	-1.065487	0.230625
H108	H	1.889671	-0.565487	0.730625
H109	H	1.231752	-0.945760	0.421085
H110	H	1.731752	-0.445760	0.921085
C111	C	1.444413	-0.823592	0.652395
C112	C	1.944413	-0.323592	1.152395
C113	C	1.444656	-0.934764	0.653342
C114	C	1.944656	-0.434764	1.153342
H115	H	1.461058	-0.797731	0.714437
H116	H	1.961058	-0.297731	1.214437
H117	H	1.382111	-0.798825	0.635498
H118	H	1.882111	-0.298825	1.135498
H119	H	1.489918	-0.798825	0.606615
H120	H	1.989918	-0.298825	1.106615
H121	H	1.399145	-0.959531	0.699117
H122	H	1.899145	-0.459531	1.199117
H123	H	1.506967	-0.959542	0.670251
H124	H	2.006967	-0.459542	1.170251
H125	H	1.275168	-1.078334	0.583742
H126	H	1.775168	-0.578334	1.083742
