data_functionalizedCrystal
_audit_creation_method	'MofGen! by Chris Wilmer'
_symmetry_space_group_name_H-M	'P1'
_symmetry_Int_Tables_number	1
_symmetry_cell_setting	triclinic
loop_
_symmetry_equiv_pos_as_xyz
  x,y,z
_cell_length_a	15.944551
_cell_length_b	15.944551
_cell_length_c	14.421503
_cell_angle_alpha	90.003340
_cell_angle_beta	89.996859
_cell_angle_gamma	83.498738
loop_
_atom_site_label
_atom_site_type_symbol
_atom_site_fract_x
_atom_site_fract_y
_atom_site_fract_z
O1	O	1.114529	0.108320	-0.077017
O2	O	0.869980	0.121677	-0.077040
O3	O	0.998933	-0.007276	-0.077020
O4	O	0.985576	0.237273	-0.077038
O5	O	0.998911	-0.007257	0.077204
O6	O	0.869958	0.121696	0.077183
O7	O	1.114508	0.108340	0.077206
Cu8	Cu	0.992231	0.115020	0.091277
Cu9	Cu	0.992256	0.114997	-0.091110
O10	O	0.985555	0.237293	0.077186
C11	C	0.838675	0.121132	0.000069
C12	C	0.745429	0.119470	0.000060
C13	C	0.998367	-0.038561	0.000092
C14	C	0.996705	-0.131807	0.000093
C15	C	0.530572	0.035565	0.000084
C16	C	0.469563	0.074518	-0.075959
C17	C	0.574703	0.116462	0.000071
C18	C	0.469564	0.074556	0.076093
C19	C	0.409790	0.113551	0.000086
C20	C	0.514922	0.155437	-0.076035
C21	C	0.514929	0.155464	0.076086
C22	C	0.453937	0.194476	0.000024
C23	C	0.669705	0.118137	0.000062
C24	C	0.314789	0.111883	0.000089
C25	C	0.912801	-0.346663	0.000072
C26	C	0.951753	-0.407671	0.076117
C27	C	0.993698	-0.302533	0.000085
C28	C	0.951793	-0.407674	-0.075935
C29	C	0.990787	-0.467445	0.000074
C30	C	1.032672	-0.362312	0.076193
C31	C	1.032701	-0.362308	-0.075927
C32	C	1.071711	-0.423298	0.000136
C33	C	0.995372	-0.207530	0.000092
C34	C	0.989119	-0.562446	0.000073
C35	C	1.145813	0.108885	0.000096
C36	C	1.239059	0.110547	0.000098
C37	C	0.986120	0.268577	0.000072
C38	C	0.987782	0.361823	0.000066
N39	N	0.992219	0.115035	0.219558
N40	N	0.992275	0.114975	-0.219392
C41	C	0.932581	0.174636	0.469202
C42	C	1.008481	0.190943	0.531011
C43	C	0.992240	0.115015	0.408719
C44	C	0.916359	0.098727	0.531005
C45	C	0.992253	0.114997	0.591441
C46	C	1.068178	0.131360	0.469167
C47	C	0.976007	0.039111	0.469156
C48	C	1.051961	0.055386	0.530936
C49	C	0.992231	0.115027	0.303458
C50	C	0.992270	0.114985	0.696700
H51	H	0.449461	0.040294	-0.140243
H52	H	0.534918	0.189620	-0.140394
O53	O	1.112281	-0.004789	0.562923
C54	C	1.223104	-0.114582	0.523681
C55	C	1.154835	-0.046457	0.487328
H56	H	1.257516	-0.148302	0.462581
H57	H	1.270139	-0.083711	0.568154
H58	H	1.192150	-0.162210	0.567231
H59	H	1.185716	0.001192	0.443739
H60	H	1.107807	-0.077388	0.442906
O61	O	0.872558	0.234875	0.436741
C62	C	0.842877	0.361049	0.344998
C63	C	0.910928	0.292871	0.381681
H64	H	0.873875	0.407966	0.300491
H65	H	0.795269	0.330074	0.301438
H66	H	0.809106	0.395614	0.405974
H67	H	0.944762	0.258283	0.320761
H68	H	0.958481	0.323896	0.425269
H69	H	0.917575	-0.427758	-0.140230
H70	H	0.845652	-0.313356	0.000141
O71	O	0.445562	0.033614	0.152693
C72	C	0.377601	-0.082679	0.212303
C73	C	0.404751	-0.036399	0.125484
H74	H	0.344584	-0.139283	0.190336
H75	H	0.435639	-0.105236	0.255567
H76	H	0.332427	-0.037734	0.255288
H77	H	0.449906	-0.081294	0.082428
H78	H	0.346674	-0.013827	0.082290
O79	O	0.910791	-0.431600	0.152738
C80	C	0.780760	-0.419321	0.239397
C81	C	0.827047	-0.392174	0.152579
H82	H	0.713049	-0.387444	0.239307
H83	H	0.780363	-0.490775	0.239010
H84	H	0.814627	-0.399798	0.304187
H85	H	0.793215	-0.411640	0.087743
H86	H	0.827450	-0.320723	0.153048
O87	O	1.073390	-0.338314	0.152950
C88	C	1.120679	-0.222961	0.239037
C89	C	1.074535	-0.250024	0.152083
H90	H	1.121636	-0.151580	0.238356
H91	H	1.086418	-0.241964	0.303789
H92	H	1.188204	-0.255323	0.239307
H93	H	1.007009	-0.217675	0.151723
H94	H	1.108861	-0.231036	0.087371
H95	H	0.420779	0.261683	-0.000023
O96	O	1.151900	-0.462827	0.000355
C97	C	1.285098	-0.484496	0.080700
C98	C	1.194303	-0.439691	0.080574
H99	H	1.319413	-0.465794	0.145540
H100	H	1.283302	-0.555769	0.080145
H101	H	1.319815	-0.465049	0.016462
H102	H	1.159533	-0.459068	0.144801
H103	H	1.196160	-0.368427	0.081080
O104	O	1.024758	0.267509	0.563544
C105	C	0.975131	0.389344	0.655408
C106	C	0.956609	0.302636	0.618651
H107	H	0.920037	0.417779	0.699954
H108	H	1.035182	0.381413	0.698948
H109	H	0.983867	0.433061	0.594470
H110	H	0.947832	0.258874	0.679533
H111	H	0.896577	0.310633	0.575084
O112	O	0.839871	0.082189	0.563518
C113	C	0.763148	-0.010804	0.653949
C114	C	0.849827	0.007828	0.617211
H115	H	0.771166	-0.070934	0.697351
H116	H	0.734672	0.044182	0.698626
H117	H	0.719422	-0.019480	0.593002
H118	H	0.893617	0.016487	0.678101
H119	H	0.878235	-0.047167	0.572506
O120	O	0.538923	0.196136	0.152871
C121	C	0.543249	0.199512	0.319838
C122	C	0.516044	0.153368	0.232947
H123	H	0.524746	0.164963	0.384601
H124	H	0.614573	0.200891	0.318790
H125	H	0.510511	0.266888	0.320444
H126	H	0.548722	0.085972	0.232284
H127	H	0.444712	0.152057	0.234029
H128	H	1.066897	-0.342186	-0.140214
O129	O	1.144679	0.147962	0.436751
C130	C	1.230493	0.166609	0.302400
C131	C	1.143827	0.147780	0.338987
H132	H	1.229838	0.166451	0.223354
H133	H	1.244415	0.231129	0.328385
H134	H	1.281412	0.116123	0.328386
H135	H	1.092852	0.198212	0.313016
H136	H	1.129977	0.083235	0.313009
H137	H	0.962240	-0.025051	0.441965
H138	H	0.563905	-0.031573	-0.000005
