data_functionalizedCrystal
_audit_creation_method	'MofGen! by Chris Wilmer'
_symmetry_space_group_name_H-M	'P1'
_symmetry_Int_Tables_number	1
_symmetry_cell_setting	triclinic
loop_
_symmetry_equiv_pos_as_xyz
  x,y,z
_cell_length_a	14.971486
_cell_length_b	16.109301
_cell_length_c	13.448316
_cell_angle_alpha	89.991973
_cell_angle_beta	89.998199
_cell_angle_gamma	83.537805
loop_
_atom_site_label
_atom_site_type_symbol
_atom_site_fract_x
_atom_site_fract_y
_atom_site_fract_z
O1	O	1.186791	0.108348	-0.082581
O2	O	1.686791	0.608348	0.417419
O3	O	0.926372	0.121323	-0.082608
O4	O	1.426372	0.621323	0.417392
O5	O	1.063736	-0.006187	-0.082584
O6	O	1.563736	0.493813	0.417416
O7	O	1.049428	0.235857	-0.082605
O8	O	1.549428	0.735857	0.417395
O9	O	1.063718	-0.006195	0.082800
O10	O	1.563718	0.493805	0.582800
O11	O	0.926355	0.121315	0.082776
O12	O	1.426355	0.621315	0.582776
O13	O	1.186774	0.108340	0.082803
O14	O	1.686774	0.608340	0.582803
Cu15	Cu	1.056563	0.114827	0.097890
Cu16	Cu	1.556563	0.614827	0.597890
Cu17	Cu	1.056583	0.114836	-0.097695
Cu18	Cu	1.556583	0.614836	0.402305
O19	O	1.049410	0.235850	0.082778
O20	O	1.549410	0.735850	0.582778
C21	C	0.893040	0.120739	0.000080
C22	C	1.393040	0.620739	0.500080
C23	C	0.793745	0.119000	0.000070
C24	C	1.293745	0.619000	0.500070
C25	C	0.736412	0.193908	0.000065
C26	C	1.236412	0.693908	0.500065
C27	C	0.643115	0.192269	0.000080
C28	C	1.143115	0.692269	0.500080
C29	C	0.607153	0.115721	0.000093
C30	C	1.107153	0.615721	0.500093
C31	C	0.664494	0.040807	0.000101
C32	C	1.164494	0.540807	0.500101
C33	C	0.757789	0.042447	0.000093
C34	C	1.257789	0.542447	0.500093
C35	C	0.470036	0.037395	0.000115
C36	C	0.970036	0.537395	0.500115
C37	C	0.376734	0.035755	0.000121
C38	C	0.876734	0.535755	0.500121
C39	C	0.355362	0.187217	0.000102
C40	C	0.855362	0.687217	0.500102
C41	C	0.448657	0.188857	0.000094
C42	C	0.948657	0.688857	0.500094
C43	C	0.505991	0.113942	0.000100
C44	C	1.005991	0.613942	0.500100
C45	C	1.063147	-0.037166	0.000109
C46	C	1.563147	0.462834	0.500109
C47	C	1.061410	-0.129464	0.000110
C48	C	1.561410	0.370536	0.500110
C49	C	1.138878	-0.351640	0.000102
C50	C	1.638878	0.148360	0.500102
C51	C	1.137239	-0.438362	0.000094
C52	C	1.637239	0.061638	0.500094
C53	C	0.974262	-0.418691	0.000081
C54	C	1.474262	0.081309	0.500081
C55	C	0.975902	-0.331970	0.000082
C56	C	1.475902	0.168030	0.500082
C57	C	1.058213	-0.298447	0.000098
C58	C	1.558213	0.201553	0.500098
C59	C	1.054933	-0.471890	0.000088
C60	C	1.554933	0.028110	0.500088
C61	C	1.053155	-0.565918	0.000079
C62	C	1.553155	-0.065918	0.500079
C63	C	1.059992	-0.204413	0.000105
C64	C	1.559992	0.295587	0.500105
C65	C	1.220106	0.108924	0.000112
C66	C	1.720106	0.608924	0.500112
C67	C	1.319401	0.110663	0.000116
C68	C	1.819401	0.610663	0.500116
C69	C	1.049999	0.266829	0.000084
C70	C	1.549999	0.766829	0.500084
C71	C	1.051736	0.359127	0.000076
C72	C	1.551736	0.859127	0.500076
N73	N	1.056555	0.114820	0.235454
N74	N	1.556555	0.614820	0.735454
N75	N	1.056598	0.114837	-0.235260
N76	N	1.556598	0.614837	0.264740
C77	C	1.117398	0.058382	0.287506
C78	C	1.617398	0.558382	0.787506
C79	C	1.117404	0.058381	0.391609
C80	C	1.617404	0.558381	0.891609
C81	C	1.056570	0.114823	0.443659
C82	C	1.556570	0.614823	0.943659
C83	C	0.995720	0.171264	0.391601
C84	C	1.495720	0.671264	0.891601
C85	C	0.995711	0.171260	0.287499
C86	C	1.495711	0.671260	0.787499
C87	C	0.995745	0.171269	0.608581
C88	C	1.495745	0.671269	1.108581
C89	C	0.995755	0.171275	0.712689
C90	C	1.495755	0.671275	1.212689
C91	C	1.117438	0.058391	0.712690
C92	C	1.617438	0.558391	1.212690
C93	C	1.117429	0.058387	0.608589
C94	C	1.617429	0.558387	1.108589
C95	C	1.056580	0.114829	0.556538
C96	C	1.556580	0.614829	1.056538
H97	H	0.765684	0.256242	0.000053
H98	H	1.265684	0.756242	0.500053
N99	N	0.487436	0.271423	0.000079
N100	N	0.987436	0.771423	0.500079
H101	H	0.525671	0.275477	0.061383
H102	H	1.025671	0.775477	0.561383
H103	H	0.525620	0.275432	-0.061274
H104	H	1.025620	0.775432	0.438726
H105	H	0.347458	-0.026577	0.000133
H106	H	0.847458	0.473423	0.500133
N107	N	0.293559	0.268038	0.000169
N108	N	0.793559	0.768038	0.500169
H109	H	0.305108	0.301460	-0.061126
H110	H	0.805108	0.801460	0.438874
H111	H	0.229014	0.255350	0.000241
H112	H	0.729014	0.755350	0.500241
H113	H	1.202924	-0.481669	0.000096
H114	H	1.702924	0.018331	0.500096
N115	N	0.885487	-0.454848	0.000068
N116	N	1.385487	0.045152	0.500068
H117	H	0.896686	-0.517857	0.000071
H118	H	1.396686	-0.017857	0.500071
H119	H	0.850187	-0.435400	0.061376
H120	H	1.350187	0.064600	0.561376
N121	N	0.888895	-0.274590	0.000070
N122	N	1.388895	0.225410	0.500070
H123	H	0.836503	-0.308984	0.000067
H124	H	1.336503	0.191016	0.500067
H125	H	0.886022	-0.238186	0.061378
H126	H	1.386022	0.261814	0.561378
H127	H	1.166940	0.012424	0.245133
H128	H	1.666940	0.512424	0.745133
N129	N	1.183058	-0.002462	0.447751
N130	N	1.683058	0.497538	0.947751
H131	H	1.221609	-0.038205	0.398981
H132	H	1.721609	0.461795	0.898981
H133	H	1.222573	0.029465	0.490911
H134	H	1.722573	0.529465	0.990911
N135	N	1.183046	-0.002483	0.552445
N136	N	1.683046	0.497517	1.052445
H137	H	1.221594	-0.038239	0.601214
H138	H	1.721594	0.461761	1.101214
H139	H	1.148813	-0.039291	0.509266
H140	H	1.648813	0.460709	1.009266
H141	H	0.516716	-0.023609	0.000122
H142	H	1.016716	0.476391	0.500122
N143	N	0.625701	-0.041752	0.000127
N144	N	1.125701	0.458248	0.500127
H145	H	0.587467	-0.045808	-0.061177
H146	H	1.087467	0.454192	0.438823
H147	H	0.676227	-0.088913	0.000172
H148	H	1.176227	0.411087	0.500172
N149	N	0.819632	-0.038347	0.000107
N150	N	1.319632	0.461653	0.500107
H151	H	0.782695	-0.087089	0.000116
H152	H	1.282695	0.412911	0.500116
H153	H	0.858807	-0.040966	-0.061203
H154	H	1.358807	0.459034	0.438797
H155	H	1.205901	-0.324348	0.000113
H156	H	1.705901	0.175652	0.500113
H157	H	1.166983	0.012434	0.755077
H158	H	1.666983	0.512434	1.255077
N159	N	0.930151	0.232157	0.768833
N160	N	1.430151	0.732157	1.268833
H161	H	0.891600	0.267910	0.720064
H162	H	1.391600	0.767910	1.220064
H163	H	0.890630	0.200270	0.812047
H164	H	1.390630	0.700270	1.312047
N165	N	0.930112	0.232141	0.552436
N166	N	1.430112	0.732141	1.052436
H167	H	0.891577	0.267900	0.601204
H168	H	1.391577	0.767900	1.101204
H169	H	0.964338	0.268947	0.509230
H170	H	1.464338	0.768947	1.009230
H171	H	0.946183	0.217217	0.433986
H172	H	1.446183	0.717217	0.933986
N173	N	0.930083	0.232127	0.231353
N174	N	1.430083	0.732127	0.731353
H175	H	0.891546	0.267885	0.280121
H176	H	1.391546	0.767885	0.780121
H177	H	0.964303	0.268936	0.188143
H178	H	1.464303	0.768936	0.688143
H179	H	0.596437	0.253267	0.000074
H180	H	1.096437	0.753267	0.500074
