data_functionalizedCrystal
_audit_creation_method	'MofGen! by Chris Wilmer'
_symmetry_space_group_name_H-M	'P1'
_symmetry_Int_Tables_number	1
_symmetry_cell_setting	triclinic
loop_
_symmetry_equiv_pos_as_xyz
  x,y,z
_cell_length_a	10.723024
_cell_length_b	10.723024
_cell_length_c	9.798715
_cell_angle_alpha	90.005416
_cell_angle_beta	90.000214
_cell_angle_gamma	84.467869
loop_
_atom_site_label
_atom_site_type_symbol
_atom_site_fract_x
_atom_site_fract_y
_atom_site_fract_z
O1	O	-1.657181	-0.175031	-0.113478
O2	O	-1.294029	-0.191785	-0.113483
O3	O	-1.483981	-0.001832	-0.113475
O4	O	-1.467228	-0.364984	-0.113486
O5	O	-1.483980	-0.001818	0.113507
O6	O	-1.294027	-0.191770	0.113499
O7	O	-1.657179	-0.175017	0.113504
Zn8	Zn	-1.475603	-0.183392	0.149540
Zn9	Zn	-1.475605	-0.183410	-0.149519
O10	O	-1.467227	-0.364970	0.113496
C11	C	-1.247528	-0.190558	0.000008
C12	C	-1.108974	-0.186911	0.000006
N13	N	-1.475607	-0.183414	-0.353619
C14	C	-1.482762	0.044675	0.000014
C15	C	-1.479114	0.183229	0.000009
C16	C	-1.703680	-0.176243	0.000010
C17	C	-1.842234	-0.179891	0.000003
C18	C	-1.033991	-0.293198	0.000002
C19	C	-0.890788	-0.289431	0.000001
C20	C	-1.468447	-0.411477	0.000004
C21	C	-1.472094	-0.550031	-0.000000
C22	C	-1.585401	0.258212	0.000009
C23	C	-1.581634	0.401415	0.000004
C24	C	-1.547994	-0.256122	-0.578584
C25	C	-1.547992	-0.256142	-0.421421
N26	N	-1.475611	-0.183378	0.353640
H27	H	-1.075814	-0.386984	0.000007
H28	H	-1.067152	-0.093125	-0.000026
H29	H	-0.906659	-0.088896	-0.000002
H30	H	-0.826355	-0.380421	-0.000008
H31	H	-1.609969	-0.318380	-0.636910
H32	H	-1.679187	0.216390	0.000018
H33	H	-1.672624	0.465848	0.000009
H34	H	-1.381099	0.385544	0.000010
C35	C	-1.391880	-0.099274	-0.432332
H36	H	-1.346460	-0.053656	-0.369405
H37	H	-1.442666	-0.042433	-0.488065
H38	H	-1.334839	-0.149837	-0.488081
H39	H	-1.385328	0.225051	-0.000001
H40	H	-1.609955	-0.318427	-0.363135
H41	H	-1.413644	-0.121111	-0.588034
