data_functionalizedCrystal
_audit_creation_method	'MofGen! by Chris Wilmer'
_symmetry_space_group_name_H-M	'P1'
_symmetry_Int_Tables_number	1
_symmetry_cell_setting	triclinic
loop_
_symmetry_equiv_pos_as_xyz
  x,y,z
_cell_length_a	21.606444
_cell_length_b	21.606444
_cell_length_c	14.560438
_cell_angle_alpha	59.998297
_cell_angle_beta	89.998722
_cell_angle_gamma	60.002891
loop_
_atom_site_label
_atom_site_type_symbol
_atom_site_fract_x
_atom_site_fract_y
_atom_site_fract_z
Zr1	Zr	0.596247	0.677471	-0.120563
O2	O	0.497429	0.806586	-0.267208
O3	O	0.626536	0.548354	-0.075608
O4	O	0.626541	0.677474	-0.267214
O5	O	0.497424	0.677465	0.075538
O6	O	0.728391	0.677478	-0.267219
O7	O	0.497424	0.677466	-0.075603
O8	O	0.728382	0.446507	0.075528
O9	O	0.497433	0.908436	-0.267209
O10	O	0.715468	0.601466	-0.056441
O11	O	0.639458	0.601461	0.056358
O12	O	0.639464	0.753483	-0.169232
O13	O	0.563455	0.753479	-0.056434
Zr14	Zr	0.758685	0.677475	0.120480
Zr15	Zr	0.758685	0.677478	-0.120572
Zr16	Zr	0.596247	0.677468	0.120489
Zr17	Zr	0.596253	0.839910	-0.120565
Zr18	Zr	0.758679	0.515036	0.120481
O19	O	0.728396	0.806592	0.075525
O20	O	0.728395	0.806596	-0.267220
O21	O	0.497429	0.806582	0.075537
O22	O	0.857503	0.548360	0.267124
O23	O	0.857503	0.548364	-0.075621
O24	O	0.626536	0.548350	0.267137
O25	O	0.857508	0.677482	-0.075622
O26	O	0.728391	0.677472	0.267130
O27	O	0.626541	0.677468	0.267136
O28	O	0.857508	0.677480	0.075519
O29	O	0.626550	0.908442	-0.267216
O30	O	0.728382	0.446504	0.267132
O31	O	0.857499	0.446510	0.267125
O32	O	0.857499	0.446512	0.075521
O33	O	0.497433	0.908434	-0.075604
O34	O	0.626550	0.908440	-0.075611
O35	O	0.715468	0.601463	0.169149
O36	O	0.791477	0.601468	0.056350
O37	O	0.715473	0.753485	-0.056442
O38	O	0.639464	0.753481	0.056357
C39	C	0.677458	0.474286	-0.000040
C40	C	0.677456	0.405326	-0.000040
C41	C	0.717153	-0.017980	-0.058922
C42	C	0.717148	0.046820	-0.058926
C43	C	0.677469	0.079215	-0.000046
C44	C	0.637787	0.046812	0.058834
C45	C	0.637789	-0.017983	0.058831
C46	C	0.637779	0.308123	0.058844
C47	C	0.637783	0.372921	0.058845
C48	C	0.717138	0.372926	-0.058913
C49	C	0.717140	0.308131	-0.058915
C50	C	0.677455	0.275737	-0.000041
C51	C	0.677460	0.205475	-0.000039
C52	C	0.677468	0.149472	-0.000041
C53	C	0.474280	0.677464	-0.000031
C54	C	0.405321	0.677461	-0.000027
C55	C	0.412594	0.598111	0.058845
C56	C	0.347797	0.598113	0.058846
C57	C	0.275727	0.677467	-0.000032
C58	C	0.268454	0.756824	-0.058906
C59	C	0.333251	0.756821	-0.058900
C60	C	0.007136	0.756839	-0.058931
C61	C	-0.057662	0.756837	-0.058936
C62	C	0.021682	0.598131	0.058815
C63	C	0.086479	0.598128	0.058821
C64	C	0.079201	0.677485	-0.000048
C65	C	0.149462	0.677481	-0.000046
C66	C	0.205466	0.677472	-0.000041
C67	C	0.880652	0.677482	-0.000053
C68	C	0.949611	0.677485	-0.000056
C69	C	0.677466	0.677477	-0.301561
C70	C	0.677466	0.677478	-0.403894
C71	C	0.677474	0.880660	-0.000043
C72	C	0.677476	0.949620	-0.000044
C73	C	0.637789	0.756828	-0.510847
C74	C	0.637792	0.756824	-0.606995
C75	C	0.717147	0.598112	-0.489226
C76	C	0.717149	0.598117	-0.393079
C77	C	0.591971	0.848459	-0.578841
C78	C	0.591974	0.848455	-0.674990
C79	C	0.677466	0.677470	0.301478
C80	C	0.677466	0.677469	0.403811
C81	C	0.880644	0.474295	-0.000051
C82	C	0.949601	0.405338	-0.000054
C83	C	0.677458	0.474283	0.301479
C84	C	0.677456	0.405322	0.403813
C85	C	0.880644	0.474291	0.301468
C86	C	0.949601	0.405333	0.403798
C87	C	0.474287	0.880655	-0.301552
C88	C	0.405331	0.949613	-0.403882
C89	C	0.474288	0.880651	-0.000032
C90	C	0.405331	0.949608	-0.000029
C91	C	0.677473	0.880664	-0.301563
C92	C	0.677476	0.949625	-0.403896
C93	C	0.942308	0.372954	-0.058941
C94	C	1.007094	0.308171	-0.058967
C95	C	1.079172	0.275768	-0.000098
C96	C	1.086464	0.308159	0.058791
C97	C	1.021679	0.372945	0.058809
C98	C	0.717131	0.372938	0.510755
C99	C	0.717126	0.308151	0.606918
C100	C	0.677449	0.275744	0.596135
C101	C	0.637770	0.308134	0.489181
C102	C	0.637771	0.372925	0.393021
C103	C	1.021667	0.372952	0.392974
C104	C	1.086466	0.308168	0.489114
C105	C	1.079197	0.275762	0.596078
C106	C	1.007123	0.308149	0.606901
C107	C	0.942326	0.372937	0.510761
C108	C	0.333265	0.982002	-0.393057
C109	C	0.268466	1.046806	-0.489198
C110	C	0.275735	1.079216	-0.596162
C111	C	0.347809	1.046825	-0.606984
C112	C	0.412605	0.982026	-0.510845
C113	C	0.412624	0.981999	0.058848
C114	C	0.347838	1.046800	0.058847
C115	C	0.275759	1.079205	-0.000026
C116	C	0.268468	1.046812	-0.058910
C117	C	0.333253	0.982016	-0.058915
C118	C	0.717160	0.982011	-0.393078
C119	C	0.717177	1.046798	-0.489222
C120	C	0.677505	1.079203	-0.596183
C121	C	0.637820	1.046810	-0.607000
C122	C	0.637808	0.982020	-0.510857
H123	H	0.605468	0.281753	0.106787
H124	H	0.471283	0.955655	-0.519672
H125	H	1.001142	0.281807	-0.106921
Cl126	Cl	0.503229	0.941279	0.132862
H127	H	0.027602	0.533516	0.106751
Cl128	Cl	0.177849	1.087555	-0.132910
H129	H	0.209769	0.821436	-0.106840
Cl130	Cl	0.587896	0.267383	0.475645
Cl131	Cl	1.030861	0.413642	0.132856
Cl132	Cl	0.177869	1.087510	-0.475566
H133	H	0.883624	0.399336	-0.106893
Cl134	Cl	0.767016	0.267442	0.741360
H135	H	0.327304	0.955645	-0.106856
Cl136	Cl	1.160610	0.194319	-0.000129
H137	H	0.001200	0.821456	-0.106886
Cl138	Cl	0.851732	0.413631	0.524389
Cl139	Cl	0.356946	0.498353	0.132872
Cl140	Cl	0.767066	1.087512	-0.475598
H141	H	0.749456	0.533500	-0.480434
H142	H	1.145159	0.281767	0.106720
Cl143	Cl	0.324107	0.941271	-0.258599
H144	H	0.353790	1.073164	0.106802
Cl145	Cl	-0.148268	0.856604	-0.132958
H146	H	0.605489	0.955658	-0.519681
H147	H	0.223013	1.131966	-0.000012
H148	H	1.131965	0.223007	0.674352
Cl149	Cl	1.030825	0.413684	0.258516
Cl150	Cl	0.631317	0.902784	-0.578869
H151	H	0.749465	0.955637	-0.305993
Cl152	Cl	0.194268	1.160677	-0.717014
Cl153	Cl	0.324105	0.856581	-0.132909
H154	H	0.533312	0.876892	-0.570111
H155	H	0.749466	0.533503	-0.305997
Cl156	Cl	0.767020	0.267413	-0.132943
H157	H	0.353718	1.073221	-0.694086
H158	H	0.622205	0.876889	-0.725915
H159	H	0.531306	0.883630	-0.727182
Cl160	Cl	0.677526	1.160658	-0.717039
H161	H	0.749468	-0.044355	-0.106863
Cl162	Cl	0.587896	0.413646	0.132871
Cl163	Cl	0.587942	1.087566	-0.741475
H164	H	0.749440	0.399316	0.519556
H165	H	0.749455	0.073201	-0.106869
H166	H	0.749449	0.399311	-0.106856
Cl167	Cl	0.587893	0.413623	0.258583
H168	H	1.145145	0.281805	0.480282
Cl169	Cl	0.587902	0.087540	0.132851
H170	H	0.677454	0.222988	0.674444
H171	H	0.605478	-0.044360	0.106773
Cl172	Cl	0.177080	0.498365	0.132839
Cl173	Cl	0.997998	0.267398	0.741379
Cl174	Cl	0.503194	0.498345	0.132862
