data_functionalizedCrystal
_audit_creation_method	'MofGen! by Chris Wilmer'
_symmetry_space_group_name_H-M	'P1'
_symmetry_Int_Tables_number	1
_symmetry_cell_setting	triclinic
loop_
_symmetry_equiv_pos_as_xyz
  x,y,z
_cell_length_a	17.077404
_cell_length_b	16.120444
_cell_length_c	17.077396
_cell_angle_alpha	92.868541
_cell_angle_beta	89.983895
_cell_angle_gamma	92.924506
loop_
_atom_site_label
_atom_site_type_symbol
_atom_site_fract_x
_atom_site_fract_y
_atom_site_fract_z
Zn1	Zn	1.184168	-0.331946	-0.459656
Zn2	Zn	1.177415	-0.471372	-0.335041
Zn3	Zn	1.052904	-0.331972	-0.328407
Zn4	Zn	1.046206	-0.471315	-0.466265
O5	O	1.115173	-0.401652	-0.397342
O6	O	1.293119	-0.350454	-0.443136
O7	O	1.160876	-0.452915	-0.224316
O8	O	1.075946	-0.215303	-0.340275
O9	O	1.288158	-0.452890	-0.351582
O10	O	1.172385	-0.215284	-0.436703
O11	O	1.069398	-0.350498	-0.219442
O12	O	0.942169	-0.350443	-0.346684
O13	O	1.064530	-0.452793	-0.575233
O14	O	0.937248	-0.452818	-0.447967
O15	O	1.165890	-0.350399	-0.570378
O16	O	1.154381	-0.588031	-0.357991
O17	O	1.057981	-0.587989	-0.454400
C18	C	0.911227	-0.401628	-0.397324
C19	C	0.823976	-0.401638	-0.397335
C20	C	0.785566	-0.348394	-0.445088
C21	C	0.703585	-0.348400	-0.445092
C22	C	0.660016	-0.401653	-0.397346
C23	C	0.698432	-0.454899	-0.349588
C24	C	0.780412	-0.454889	-0.349580
C25	C	0.527562	-0.454918	-0.349608
C26	C	0.445576	-0.454930	-0.349617
C27	C	0.450735	-0.348429	-0.445120
C28	C	0.532714	-0.348419	-0.445112
C29	C	0.571125	-0.401666	-0.397355
C30	C	1.104743	-0.618260	-0.407650
C31	C	1.100352	-0.710926	-0.412085
C32	C	1.138142	-0.921869	-0.374500
C33	C	1.092351	-0.880583	-0.420192
C34	C	1.096804	-0.786177	-0.415680
C35	C	1.133689	-1.016283	-0.379011
C36	C	1.319917	-0.401676	-0.397362
C37	C	1.407166	-0.401686	-0.397370
C38	C	1.115216	-0.401587	-0.602084
C39	C	1.115234	-0.401559	-0.689332
C40	C	1.125666	-0.184197	-0.387012
C41	C	1.130138	-0.091531	-0.382610
C42	C	1.067617	-0.348225	-0.727783
C43	C	1.067631	-0.348206	-0.809763
C44	C	1.115266	-0.401518	-0.853290
C45	C	1.162885	-0.454859	-0.814833
C46	C	1.162867	-0.454881	-0.732855
C47	C	1.162922	-0.454807	-0.985700
C48	C	1.162941	-0.454783	-1.067684
C49	C	1.067686	-0.348131	-1.062609
C50	C	1.067667	-0.348154	-0.980631
C51	C	1.115287	-0.401493	-0.942179
C52	C	1.115179	-0.401656	-0.193395
C53	C	1.115324	-0.401448	-0.106135
H54	H	0.419457	-0.305072	-0.484004
H55	H	1.180685	-0.886319	-0.331996
O56	O	0.403372	-0.506684	-0.303163
C57	C	0.406900	-0.612349	-0.208467
C58	C	0.454792	-0.553764	-0.261022
H59	H	0.448453	-0.650441	-0.174395
H60	H	0.370362	-0.574059	-0.165616
H61	H	0.366420	-0.655960	-0.246532
H62	H	0.495316	-0.510141	-0.223020
H63	H	0.491279	-0.592106	-0.303878
O64	O	1.021269	-0.296411	-0.685625
C65	C	0.926818	-0.190597	-0.689252
C66	C	0.979260	-0.249246	-0.737089
H67	H	0.892852	-0.152437	-0.730839
H68	H	0.883867	-0.228841	-0.652707
H69	H	0.964960	-0.147053	-0.648785
H70	H	0.941181	-0.292802	-0.777599
H71	H	1.022215	-0.210950	-0.773582
O72	O	1.021277	-0.296519	-0.847148
C73	C	0.915865	-0.285277	-0.939173
C74	C	0.968306	-0.343904	-0.896879
H75	H	0.873037	-0.323563	-0.979403
H76	H	0.881763	-0.247197	-0.894010
H77	H	0.954019	-0.241655	-0.975459
H78	H	0.930211	-0.387576	-0.860595
H79	H	1.002415	-0.381925	-0.942082
O80	O	1.021325	-0.296443	-1.099992
C81	C	0.915918	-0.285198	-1.192021
C82	C	0.968355	-0.343827	-1.149724
H83	H	0.873090	-0.323484	-1.232252
H84	H	0.881815	-0.247117	-1.146860
H85	H	0.954075	-0.241579	-1.228306
H86	H	0.930256	-0.387497	-1.113441
H87	H	1.002464	-0.381850	-1.194925
H88	H	1.049803	-0.916137	-0.462699
O89	O	1.209177	-0.506506	-1.110085
C90	C	1.251352	-0.553794	-1.238632
C91	C	1.198974	-0.495154	-1.190707
H92	H	1.243108	-0.544649	-1.303823
H93	H	1.315374	-0.539189	-1.221892
H94	H	1.234307	-0.621007	-1.225652
H95	H	1.215948	-0.427922	-1.203661
H96	H	1.134964	-0.509831	-1.207454
H97	H	0.558833	-0.498276	-0.310717
O98	O	1.209248	-0.506651	-0.948471
C99	C	1.303692	-0.612471	-0.962153
C100	C	1.251280	-0.553791	-1.004415
H101	H	1.337676	-0.650612	-1.007365
H102	H	1.346627	-0.574254	-0.921980
H103	H	1.265526	-0.656033	-0.925819
H104	H	1.289383	-0.510217	-1.040791
H105	H	1.208341	-0.592059	-1.044540
H106	H	0.821034	-0.305031	-0.483970
O107	O	1.209193	-0.506719	-0.695623
C108	C	1.303632	-0.612544	-0.709306
C109	C	1.251224	-0.553860	-0.751567
H110	H	1.337615	-0.650686	-0.754518
H111	H	1.346567	-0.574330	-0.669132
H112	H	1.265463	-0.656105	-0.672973
H113	H	1.289330	-0.510287	-0.787942
H114	H	1.208283	-0.592126	-0.791694
H115	H	0.672315	-0.305045	-0.483979
H116	H	0.568186	-0.305060	-0.483996
H117	H	1.028882	-0.304738	-0.945193
H118	H	0.662952	-0.498255	-0.310709
H119	H	0.811684	-0.498245	-0.310694
H120	H	1.201666	-0.498271	-0.850279
