data_functionalizedCrystal
_audit_creation_method	'MofGen! by Chris Wilmer'
_symmetry_space_group_name_H-M	'P1'
_symmetry_Int_Tables_number	1
_symmetry_cell_setting	triclinic
loop_
_symmetry_equiv_pos_as_xyz
  x,y,z
_cell_length_a	18.101395
_cell_length_b	19.077142
_cell_length_c	19.076919
_cell_angle_alpha	90.074357
_cell_angle_beta	87.727683
_cell_angle_gamma	92.273342
loop_
_atom_site_label
_atom_site_type_symbol
_atom_site_fract_x
_atom_site_fract_y
_atom_site_fract_z
Zn1	Zn	-0.358289	-1.058229	0.440456
Zn2	Zn	0.141711	-0.558229	0.940456
Zn3	Zn	-0.477362	-1.062856	0.322951
Zn4	Zn	0.022638	-0.562856	0.822951
Zn5	Zn	-0.348367	-0.945448	0.318246
Zn6	Zn	0.151633	-0.445448	0.818246
Zn7	Zn	-0.476913	-0.940678	0.435699
Zn8	Zn	0.023087	-0.440678	0.935699
O9	O	-0.415233	-1.001803	0.379338
O10	O	0.084767	-0.501803	0.879338
O11	O	-0.378425	-1.157174	0.428829
O12	O	0.121575	-0.657174	0.928829
O13	O	-0.456285	-1.051214	0.223995
O14	O	0.043715	-0.551214	0.723995
O15	O	-0.246053	-0.960469	0.334479
O16	O	0.253947	-0.460469	0.834479
O17	O	-0.465907	-1.160573	0.342498
O18	O	0.034093	-0.660573	0.842498
O19	O	-0.253343	-1.043329	0.424266
O20	O	0.246657	-0.543329	0.924266
O21	O	-0.361513	-0.964955	0.220539
O22	O	0.138487	-0.464955	0.720539
O23	O	-0.361078	-0.846484	0.329866
O24	O	0.138922	-0.346484	0.829866
O25	O	-0.465142	-0.952339	0.534661
O26	O	0.034858	-0.452339	1.034661
O27	O	-0.455521	-0.842980	0.416159
O28	O	0.044479	-0.342980	0.916159
O29	O	-0.377990	-1.038703	0.538156
O30	O	0.122010	-0.538703	1.038156
O31	O	-0.580932	-1.046589	0.337885
O32	O	-0.080932	-0.546589	0.837885
O33	O	-0.580602	-0.956825	0.420721
O34	O	-0.080602	-0.456825	0.920721
C35	C	-0.407175	-0.819236	0.371986
C36	C	0.092825	-0.319236	0.871986
C37	C	-0.403746	-0.741132	0.368858
C38	C	0.096254	-0.241132	0.868858
C39	C	-0.607638	-1.001710	0.379313
C40	C	-0.107638	-0.501710	0.879313
C41	C	-0.689954	-1.001733	0.379329
C42	C	-0.189954	-0.501733	0.879329
C43	C	-0.451375	-0.702635	0.412245
C44	C	0.048625	-0.202635	0.912245
C45	C	-0.448143	-0.629248	0.409309
C46	C	0.051857	-0.129248	0.909309
C47	C	-0.397286	-0.594360	0.362982
C48	C	0.102714	-0.094360	0.862982
C49	C	-0.349652	-0.632862	0.319592
C50	C	0.150348	-0.132862	0.819592
C51	C	-0.352881	-0.706247	0.322532
C52	C	0.147119	-0.206247	0.822532
C53	C	-0.382348	-0.375075	0.349382
C54	C	0.117652	0.124925	0.849382
C55	C	-0.379125	-0.301684	0.346443
C56	C	0.120875	0.198316	0.846443
C57	C	-0.477615	-0.298076	0.436161
C58	C	0.022385	0.201924	0.936161
C59	C	-0.480842	-0.371463	0.439094
C60	C	0.019158	0.128537	0.939094
C61	C	-0.433205	-0.409958	0.395708
C62	C	0.066795	0.090042	0.895708
N63	N	-0.393984	-0.519347	0.359978
N64	N	0.106016	-0.019347	0.859978
N65	N	-0.436505	-0.484970	0.398716
N66	N	0.063495	0.015030	0.898716
C67	C	-0.989053	-1.001886	0.379373
C68	C	-0.489053	-0.501886	0.879373
C69	C	-0.957562	-0.945529	0.431631
C70	C	-0.457562	-0.445529	0.931631
C71	C	-0.871926	-0.945279	0.431450
C72	C	-0.371926	-0.445279	0.931450
C73	C	-0.840667	-1.001810	0.379352
C74	C	-0.340667	-0.501810	0.879352
C75	C	-0.867928	-0.984740	0.304491
C76	C	-0.367928	-0.484740	0.804491
C77	C	-0.953571	-0.984378	0.304802
C78	C	-0.453571	-0.484378	0.804802
C79	C	-0.961442	-1.075457	0.401329
C80	C	-0.461442	-0.575457	0.901329
C81	C	-0.875838	-1.074955	0.402936
C82	C	-0.375838	-0.574955	0.902936
C83	C	-0.756805	-1.001769	0.379335
C84	C	-0.256805	-0.501769	0.879335
C85	C	-1.072915	-1.001926	0.379385
C86	C	-0.572915	-0.501926	0.879385
C87	C	-0.222077	-1.001915	0.379379
C88	C	0.277923	-0.501915	0.879379
C89	C	-0.139766	-1.001963	0.379396
C90	C	0.360234	-0.501963	0.879396
C91	C	-0.422623	-0.994473	0.562618
C92	C	0.077377	-0.494473	1.062618
C93	C	-0.425772	-0.991349	0.640721
C94	C	0.074228	-0.491349	1.140721
C95	C	-0.423318	-0.185083	0.386710
C96	C	0.076682	0.314917	0.886710
C97	C	-0.426753	-0.263187	0.389831
C98	C	0.073247	0.236813	0.889831
C99	C	-0.407820	-1.009145	0.196773
C100	C	0.092180	-0.509145	0.696773
C101	C	-0.404468	-1.012405	0.118675
C102	C	0.095532	-0.512405	0.618675
C103	C	-0.381878	-1.034844	0.679235
C104	C	0.118122	-0.534844	1.179235
C105	C	-0.384834	-1.031901	0.752620
C106	C	0.115166	-0.531901	1.252620
C107	C	-0.431688	-0.985465	0.787491
C108	C	0.068312	-0.485465	1.287491
C109	C	-0.475584	-0.941964	0.748972
C110	C	0.024416	-0.441964	1.248972
C111	C	-0.472624	-0.944905	0.675588
C112	C	0.027376	-0.444905	1.175588
C113	C	-0.445403	-0.971845	1.006772
C114	C	0.054597	-0.471845	1.506772
C115	C	-0.448362	-0.968909	1.080162
C116	C	0.051638	-0.468909	1.580162
C117	C	-0.357610	-1.058845	1.083805
C118	C	0.142390	-0.558845	1.583805
C119	C	-0.354658	-1.061785	1.010419
C120	C	0.145342	-0.561785	1.510419
C121	C	-0.398550	-1.018282	0.971906
C122	C	0.101450	-0.518282	1.471906
N123	N	-0.434712	-0.982456	0.862503
N124	N	0.065288	-0.482456	1.362503
N125	N	-0.395522	-1.021287	0.896895
N126	N	0.104478	-0.521287	1.396895
H127	H	-0.492790	-0.731036	0.449968
H128	H	0.007210	-0.231036	0.949968
H129	H	-0.985951	-1.091601	0.455144
H130	H	-0.485951	-0.591601	0.955144
H131	H	-0.853645	-0.955614	0.486866
H132	H	-0.353645	-0.455614	0.986866
H133	H	-0.980894	-0.955733	0.487219
H134	H	-0.480894	-0.455733	0.987219
H135	H	-0.843510	-0.931636	0.285974
H136	H	-0.343510	-0.431636	0.785974
Br137	Br	-0.542264	-0.245829	0.495037
Br138	Br	-0.042264	0.254171	0.995037
H139	H	-0.513731	-0.904153	0.777370
H140	H	-0.013731	-0.404153	1.277370
H141	H	-0.314092	-0.737590	0.287205
H142	H	0.185908	-0.237590	0.787205
Br143	Br	-0.325296	-1.090966	0.804888
Br144	Br	0.174704	-0.590966	1.304888
H145	H	-0.508359	-0.909479	0.644230
H146	H	-0.008359	-0.409479	1.144230
Br147	Br	-0.310107	-0.254336	0.283558
Br148	Br	0.189893	0.245664	0.783558
Br149	Br	-0.846700	-1.096503	0.494788
Br150	Br	-0.346700	-0.596503	0.994788
H151	H	-0.854805	-1.118925	0.367885
H152	H	-0.354805	-0.618925	0.867885
H153	H	-0.848565	-0.890686	0.416671
H154	H	-0.348565	-0.390686	0.916671
Br155	Br	-0.512784	-0.577005	0.468197
Br156	Br	-0.012784	-0.077005	0.968197
Br157	Br	-0.995488	-1.145382	0.337964
Br158	Br	-0.495488	-0.645382	0.837964
H159	H	-0.316506	-1.099600	0.982032
H160	H	0.183494	-0.599600	1.482032
Br161	Br	-0.988700	-0.855086	0.407304
Br162	Br	-0.488700	-0.355086	0.907304
Br163	Br	-0.298044	-1.117880	1.136075
Br164	Br	0.201956	-0.617880	1.636075
Br165	Br	-0.549869	-0.418807	0.501966
Br166	Br	-0.049869	0.081193	1.001966
Br167	Br	-0.981904	-0.894889	0.274380
Br168	Br	-0.481904	-0.394889	0.774380
Br169	Br	-0.988038	-1.050085	0.237422
Br170	Br	-0.488038	-0.550085	0.737422
H171	H	-0.343726	-1.072660	0.650848
H172	H	0.156274	-0.572660	1.150848
H173	H	-0.486518	-0.931093	1.108551
H174	H	0.013482	-0.431093	1.608551
Br175	Br	-0.504971	-0.912804	0.954514
Br176	Br	-0.004971	-0.412804	1.454514
Br177	Br	-0.833967	-1.051220	0.237604
Br178	Br	-0.333967	-0.551220	0.737604
H179	H	-0.343564	-0.406409	0.314048
H180	H	0.156436	0.093591	0.814048
Br181	Br	-0.280624	-0.585514	0.256725
Br182	Br	0.219376	-0.085514	0.756725
