data_functionalizedCrystal
_audit_creation_method	'MofGen! by Chris Wilmer'
_symmetry_space_group_name_H-M	'P1'
_symmetry_Int_Tables_number	1
_symmetry_cell_setting	triclinic
loop_
_symmetry_equiv_pos_as_xyz
  x,y,z
_cell_length_a	10.654549
_cell_length_b	19.288857
_cell_length_c	9.730223
_cell_angle_alpha	89.993455
_cell_angle_beta	89.997731
_cell_angle_gamma	83.808943
loop_
_atom_site_label
_atom_site_type_symbol
_atom_site_fract_x
_atom_site_fract_y
_atom_site_fract_z
O1	O	1.665746	0.097554	-0.114266
O2	O	1.300068	0.106848	-0.114276
O3	O	1.493479	0.001139	-0.114254
O4	O	1.472336	0.203262	-0.114288
O5	O	1.493466	0.001137	0.114326
O6	O	1.300056	0.106845	0.114304
O7	O	1.665734	0.097551	0.114314
Zn8	Zn	1.482893	0.102198	0.150601
Zn9	Zn	1.482909	0.102201	-0.150563
O10	O	1.472324	0.203260	0.114292
C11	C	1.253279	0.106164	0.000013
C12	C	1.113879	0.104123	0.000010
C13	C	1.492794	-0.024743	0.000037
C14	C	1.490756	-0.101860	0.000041
C15	C	0.902070	0.164439	0.000005
C16	C	1.033050	0.166362	-0.000003
C17	C	1.063724	0.039955	0.000017
C18	C	0.932747	0.038032	0.000016
C19	C	1.489812	-0.138075	-0.124558
C20	C	1.487880	-0.210534	-0.124568
C21	C	1.486917	-0.246776	0.000028
C22	C	1.487855	-0.210552	0.124643
C23	C	1.489774	-0.138094	0.124650
C24	C	1.557425	-0.366547	0.095478
C25	C	1.555514	-0.439005	0.095466
C26	C	1.480991	-0.470261	0.000012
C27	C	1.408397	-0.429052	-0.095453
C28	C	1.410317	-0.356594	-0.095446
C29	C	1.484835	-0.325345	0.000034
C30	C	1.477950	-0.585044	-0.124607
C31	C	1.476010	-0.657504	-0.124612
C32	C	1.475998	-0.657521	0.124603
C33	C	1.477925	-0.585062	0.124605
C34	C	1.478907	-0.548828	-0.000004
C35	C	1.712523	0.098235	0.000023
C36	C	1.851923	0.100276	0.000017
C37	C	1.473008	0.229142	-0.000002
C38	C	1.475046	0.306259	-0.000015
N39	N	1.482891	0.102195	0.356138
N40	N	1.482921	0.102199	-0.356099
C41	C	1.568562	0.055407	0.428073
C42	C	1.568574	0.055407	0.571956
C43	C	1.397241	0.148989	0.571955
C44	C	1.397224	0.148985	0.428075
H45	H	0.836267	0.215122	0.000005
H46	H	1.490609	-0.108578	-0.226024
H47	H	1.073873	0.218610	-0.000014
H48	H	1.487067	-0.240065	0.226090
C49	C	1.662817	0.003942	0.651087
C50	C	1.757063	-0.047513	0.571956
C51	C	1.851309	-0.098982	0.651087
C52	C	1.851308	-0.098995	0.809350
C53	C	1.757058	-0.047538	0.888490
C54	C	1.662812	0.003930	0.809359
H55	H	1.757067	-0.047505	0.454792
H56	H	1.921079	-0.137073	0.592501
H57	H	1.921074	-0.137095	0.867927
H58	H	1.757054	-0.047547	1.005654
H59	H	1.593042	0.042022	0.867945
H60	H	1.327494	0.187086	0.630541
C61	C	1.330458	-0.311263	-0.200437
C62	C	1.228033	-0.254445	-0.150379
C63	C	1.148169	-0.209112	-0.255366
C64	C	1.170730	-0.220597	-0.410412
C65	C	1.273160	-0.277417	-0.460478
C66	C	1.353024	-0.322750	-0.355491
H67	H	1.211328	-0.245941	-0.035597
H68	H	1.072343	-0.167050	-0.218302
H69	H	1.111609	-0.187039	-0.488129
H70	H	1.289865	-0.285922	-0.575259
H71	H	1.428849	-0.364812	-0.392555
H72	H	1.638316	0.017306	0.369505
H73	H	1.618109	-0.341105	0.173218
C74	C	1.302981	0.200455	0.348933
C75	C	1.208803	0.251954	0.428052
C76	C	1.114562	0.303419	0.348908
C77	C	1.114499	0.303386	0.190646
C78	C	1.208680	0.251886	0.111518
C79	C	1.302921	0.200420	0.190661
H80	H	1.208847	0.251980	0.545215
H81	H	1.044843	0.341543	0.407485
H82	H	1.044736	0.341484	0.132059
H83	H	1.208637	0.251859	-0.005646
H84	H	1.372641	0.162296	0.132084
C85	C	1.152635	-0.028510	0.000030
C86	C	1.246886	-0.044571	0.118734
C87	C	1.335795	-0.113037	0.118751
C88	C	1.330452	-0.165442	0.000064
C89	C	1.236197	-0.149382	-0.118649
C90	C	1.147288	-0.080916	-0.118666
H91	H	1.250845	-0.005776	0.206601
H92	H	1.405570	-0.124925	0.206630
H93	H	1.396268	-0.216125	0.000076
H94	H	1.232238	-0.188177	-0.206516
H95	H	1.077514	-0.069028	-0.206546
H96	H	0.891918	-0.014220	0.000021
H97	H	1.487104	-0.240026	-0.226035
H98	H	1.347714	-0.454499	-0.173181
H99	H	1.478743	-0.555541	-0.226071
H100	H	1.475235	-0.686988	-0.226080
H101	H	1.475204	-0.687028	0.226052
C102	C	1.478988	-0.545222	0.261668
C103	C	1.477934	-0.585083	0.398725
C104	C	1.478997	-0.545243	0.535795
C105	C	1.481113	-0.465542	0.535809
C106	C	1.482167	-0.425677	0.398746
C107	C	1.481104	-0.465517	0.261676
H108	H	1.476368	-0.644086	0.398720
H109	H	1.478216	-0.574754	0.637258
H110	H	1.481899	-0.436050	0.637276
H111	H	1.483733	-0.366674	0.398752
H112	H	1.481885	-0.436005	0.160214
H113	H	1.614629	-0.472552	0.173194
H114	H	1.490538	-0.108607	0.226117
