data_functionalizedCrystal
_audit_creation_method	'MofGen! by Chris Wilmer'
_symmetry_space_group_name_H-M	'P1'
_symmetry_Int_Tables_number	1
_symmetry_cell_setting	triclinic
loop_
_symmetry_equiv_pos_as_xyz
  x,y,z
_cell_length_a	14.853558
_cell_length_b	14.853559
_cell_length_c	8.140239
_cell_angle_alpha	89.998672
_cell_angle_beta	89.997803
_cell_angle_gamma	83.631294
loop_
_atom_site_label
_atom_site_type_symbol
_atom_site_fract_x
_atom_site_fract_y
_atom_site_fract_z
O1	O	1.196364	0.117663	-0.136585
O2	O	0.933903	0.131694	-0.136592
O3	O	1.072148	-0.006552	-0.136587
O4	O	1.058119	0.255909	-0.136590
O5	O	1.072141	-0.006554	0.136640
O6	O	0.933895	0.131692	0.136635
O7	O	1.196357	0.117662	0.136642
Zn8	Zn	1.065125	0.124677	0.180019
Zn9	Zn	1.065135	0.124679	-0.179969
O10	O	1.058111	0.255907	0.136637
C11	C	0.900310	0.131059	0.000021
C12	C	0.800226	0.129158	0.000018
C13	C	1.071510	-0.040142	0.000024
C14	C	1.069609	-0.140226	0.000015
C15	C	0.753210	0.128268	-0.148924
C16	C	0.753200	0.128255	0.148958
C17	C	0.659167	0.126465	0.148961
C18	C	0.612151	0.125574	0.000019
C19	C	0.659168	0.126474	-0.148926
C20	C	0.612143	0.125556	0.297903
C21	C	0.518104	0.123764	0.297912
C22	C	0.471086	0.122880	0.148968
C23	C	0.518109	0.123781	0.000017
C24	C	0.471093	0.122891	-0.148925
C25	C	0.518114	0.123798	-0.297878
C26	C	0.612150	0.125590	-0.297870
C27	C	0.377049	0.121088	0.148960
C28	C	0.377051	0.121097	-0.148927
C29	C	1.061550	-0.563400	-0.148922
C30	C	1.061541	-0.563396	0.148961
C31	C	1.063335	-0.469363	0.148962
C32	C	1.064234	-0.422343	0.000019
C33	C	1.063341	-0.469357	-0.148925
C34	C	1.064220	-0.422341	0.297904
C35	C	1.066012	-0.328302	0.297911
C36	C	1.066918	-0.281281	0.148967
C37	C	1.066025	-0.328301	0.000016
C38	C	1.066925	-0.281282	-0.148927
C39	C	1.066038	-0.328301	-0.297879
C40	C	1.064247	-0.422337	-0.297870
C41	C	1.068710	-0.187245	0.148958
C42	C	1.068716	-0.187239	-0.148930
C43	C	1.229949	0.118297	0.000026
C44	C	1.330033	0.120197	0.000018
C45	C	1.058749	0.289497	0.000023
C46	C	1.060650	0.389581	0.000021
N47	N	1.065125	0.124675	0.425702
N48	N	1.065142	0.124674	-0.425652
H49	H	0.338776	0.120378	-0.270216
H50	H	0.479821	0.123068	-0.419147
H51	H	1.063524	-0.460628	-0.419139
F52	F	1.060615	-0.613441	-0.307440
F53	F	1.069679	-0.137206	-0.307459
H54	H	0.650443	0.126328	-0.419140
H55	H	0.479828	0.123024	0.419198
F56	F	1.066998	-0.278249	-0.456389
F57	F	1.069651	-0.137208	0.307471
H58	H	1.060803	-0.601684	0.270223
H59	H	1.063482	-0.460630	0.419165
F60	F	0.803252	0.129235	-0.307443
F61	F	0.662185	0.126505	0.456406
F62	F	0.803241	0.129200	0.307463
F63	F	0.327012	0.120109	0.307474
H64	H	1.066737	-0.290027	0.419197
