data_functionalizedCrystal
_audit_creation_method	'MofGen! by Chris Wilmer'
_symmetry_space_group_name_H-M	'P1'
_symmetry_Int_Tables_number	1
_symmetry_cell_setting	triclinic
loop_
_symmetry_equiv_pos_as_xyz
  x,y,z
_cell_length_a	16.625548
_cell_length_b	12.645330
_cell_length_c	16.625539
_cell_angle_alpha	90.026386
_cell_angle_beta	90.020568
_cell_angle_gamma	90.013714
loop_
_atom_site_label
_atom_site_type_symbol
_atom_site_fract_x
_atom_site_fract_y
_atom_site_fract_z
Zn1	Zn	1.232735	-0.422007	0.455920
Zn2	Zn	1.732735	0.077993	0.955920
Zn3	Zn	1.232662	-0.599293	0.321092
Zn4	Zn	1.732662	-0.099293	0.821092
Zn5	Zn	1.097897	-0.422048	0.321101
Zn6	Zn	1.597897	0.077952	0.821101
Zn7	Zn	1.097891	-0.599232	0.455882
Zn8	Zn	1.597891	-0.099232	0.955882
O9	O	1.165296	-0.510645	0.388499
O10	O	1.665296	-0.010645	0.888499
O11	O	1.345558	-0.445533	0.438047
O12	O	1.845558	0.054467	0.938047
O13	O	1.214757	-0.575824	0.208261
O14	O	1.714757	-0.075824	0.708261
O15	O	1.115817	-0.273695	0.339004
O16	O	1.615817	0.226305	0.839004
O17	O	1.345504	-0.575784	0.338990
O18	O	1.845504	-0.075784	0.838990
O19	O	1.214882	-0.273665	0.438056
O20	O	1.714882	0.226335	0.938056
O21	O	1.115746	-0.445602	0.208267
O22	O	1.615746	0.054398	0.708267
O23	O	0.985064	-0.445543	0.338967
O24	O	1.485064	0.054457	0.838967
O25	O	1.115806	-0.575681	0.568719
O26	O	1.615806	-0.075681	1.068719
O27	O	0.985059	-0.575720	0.437990
O28	O	1.485059	-0.075720	0.937990
O29	O	1.214876	-0.445474	0.568747
O30	O	1.714876	0.054526	1.068747
O31	O	1.214751	-0.747632	0.338952
O32	O	1.714751	-0.247632	0.838952
O33	O	1.115735	-0.747588	0.437982
O34	O	1.615735	-0.247588	0.937982
C35	C	0.955806	-0.510630	0.388476
C36	C	1.455806	-0.010630	0.888476
C37	C	0.866184	-0.510649	0.388486
C38	C	1.366184	-0.010649	0.888486
C39	C	0.538009	-0.510656	0.388520
C40	C	1.038009	-0.010656	0.888520
C41	C	0.629317	-0.510651	0.388508
C42	C	1.129317	-0.010651	0.888508
C43	C	0.702094	-0.510653	0.388502
C44	C	1.202094	-0.010653	0.888502
C45	C	0.793408	-0.510647	0.388491
C46	C	1.293408	-0.010647	0.888491
C47	C	1.165256	-0.786075	0.388480
C48	C	1.665256	-0.286075	0.888480
C49	C	1.165312	-0.903905	0.388498
C50	C	1.665312	-0.403905	0.888498
C51	C	1.227503	-1.071453	0.326072
C52	C	1.727503	-0.571453	0.826072
C53	C	1.227706	-0.948893	0.326225
C54	C	1.727706	-0.448893	0.826225
C55	C	1.188356	-0.948288	0.473491
C56	C	1.688356	-0.448288	0.973491
C57	C	1.188849	-1.070886	0.473160
C58	C	1.688849	-0.570886	0.973160
C59	C	1.080054	-1.071234	0.366769
C60	C	1.580054	-0.571234	0.866769
C61	C	1.080463	-0.948630	0.364863
C62	C	1.580463	-0.448630	0.864863
C63	C	1.375605	-0.510661	0.388522
C64	C	1.875605	-0.010661	0.888522
C65	C	1.465226	-0.510668	0.388532
C66	C	1.965226	-0.010668	0.888532
C67	C	1.165349	-0.510566	0.598808
C68	C	1.665349	-0.010566	1.098808
C69	C	1.165371	-0.510532	0.688429
C70	C	1.665371	-0.010532	1.188429
C71	C	1.165359	-0.234140	0.388535
C72	C	1.665359	0.265860	0.888535
C73	C	1.165386	-0.116310	0.388551
C74	C	1.665386	0.383690	0.888551
C75	C	1.165291	-0.510647	0.179008
C76	C	1.665291	-0.010647	0.679008
C77	C	1.165424	-0.510382	0.089387
C78	C	1.665424	-0.010382	0.589387
C79	C	1.165408	-0.510414	1.016605
C80	C	1.665408	-0.010414	1.516605
C81	C	1.165396	-0.510450	0.925296
C82	C	1.665396	-0.010450	1.425296
C83	C	1.165390	-0.510474	0.852520
C84	C	1.665390	-0.010474	1.352520
C85	C	1.165377	-0.510509	0.761205
C86	C	1.665377	-0.010509	1.261205
H87	H	1.213289	-0.918889	0.263205
H88	H	1.713289	-0.418889	0.763205
O89	O	1.271466	-1.108665	0.497600
O90	O	1.771466	-0.608665	0.997600
H91	H	1.297681	-1.156843	0.448332
H92	H	1.797681	-0.656843	0.948332
H93	H	1.145587	-1.100555	0.521315
H94	H	1.645587	-0.600555	1.021315
O95	O	1.052297	-1.112295	0.286100
O96	O	1.552297	-0.612295	0.786100
H97	H	1.042188	-1.044748	0.244705
H98	H	1.542188	-0.544748	0.744705
H99	H	1.213266	-1.101005	0.262867
H100	H	1.713266	-0.601005	0.762867
H101	H	1.290366	-1.102182	0.340318
H102	H	1.790366	-0.602182	0.840318
O103	O	1.057441	-0.910213	0.282015
O104	O	1.557441	-0.410213	0.782015
H105	H	0.997409	-0.942166	0.265755
H106	H	1.497409	-0.442166	0.765755
O107	O	1.311423	-0.909924	0.345306
O108	O	1.811423	-0.409924	0.845306
H109	H	1.329821	-0.939564	0.405387
H110	H	1.829821	-0.439564	0.905387
O111	O	1.130262	-0.909680	0.536816
O112	O	1.630262	-0.409680	1.036816
H113	H	1.084241	-0.858323	0.508314
H114	H	1.584241	-0.358323	1.008314
H115	H	1.031683	-0.918017	0.407033
H116	H	1.531683	-0.418017	0.907033
O117	O	1.018704	-1.109871	0.426923
O118	O	1.518704	-0.609871	0.926923
H119	H	1.048794	-1.160904	0.472133
H120	H	1.548794	-0.660904	0.972133
H121	H	1.250024	-0.917498	0.492249
H122	H	1.750024	-0.417498	0.992249
