data_functionalizedCrystal
_audit_creation_method	'MofGen! by Chris Wilmer'
_symmetry_space_group_name_H-M	'P1'
_symmetry_Int_Tables_number	1
_symmetry_cell_setting	triclinic
loop_
_symmetry_equiv_pos_as_xyz
  x,y,z
_cell_length_a	29.839134
_cell_length_b	29.839131
_cell_length_c	29.839125
_cell_angle_alpha	90.013540
_cell_angle_beta	90.021980
_cell_angle_gamma	90.036564
loop_
_atom_site_label
_atom_site_type_symbol
_atom_site_fract_x
_atom_site_fract_y
_atom_site_fract_z
Zn1	Zn	0.686719	-0.178978	0.254138
Zn2	Zn	0.686651	-0.254090	0.179013
Zn3	Zn	0.611602	-0.178968	0.179008
Zn4	Zn	0.611549	-0.254075	0.254102
O5	O	0.649130	-0.216528	0.216565
O6	O	0.749577	-0.188952	0.244190
O7	O	0.676689	-0.244127	0.116146
O8	O	0.621617	-0.116102	0.188987
O9	O	0.749527	-0.244137	0.188996
O10	O	0.676805	-0.116109	0.244185
O11	O	0.621550	-0.188935	0.116141
O12	O	0.548727	-0.188921	0.188951
O13	O	0.621527	-0.244111	0.316974
O14	O	0.548689	-0.244101	0.244123
O15	O	0.676754	-0.188937	0.317000
O16	O	0.676638	-0.316955	0.188961
O17	O	0.621461	-0.316944	0.244129
C18	C	0.532407	-0.216509	0.216533
C19	C	0.482473	-0.216511	0.216530
C20	C	0.172819	-0.245303	0.245258
C21	C	-0.014854	-0.245315	0.245278
O22	O	-0.039128	-0.269774	0.269684
N23	N	-0.038312	-0.216544	0.216599
C24	C	-0.014849	-0.187766	0.187915
O25	O	-0.039108	-0.163291	0.163526
C26	C	0.172823	-0.187751	0.187898
C27	C	0.196279	-0.216527	0.216575
C28	C	0.196274	-0.274076	0.273933
C29	C	0.243190	-0.274075	0.273926
C30	C	0.266650	-0.245299	0.245244
C31	C	0.243194	-0.216526	0.216568
C32	C	0.196285	-0.158971	0.159217
C33	C	0.243207	-0.158969	0.159216
C34	C	0.266662	-0.187745	0.187893
C35	C	0.313570	-0.187749	0.187879
N36	N	0.337027	-0.216520	0.216558
C37	C	0.313568	-0.245295	0.245240
C38	C	-0.113380	-0.187776	0.187926
C39	C	-0.160297	-0.187780	0.187930
C40	C	-0.160299	-0.245329	0.245293
C41	C	-0.113381	-0.245327	0.245286
C42	C	-0.089922	-0.216547	0.216605
C43	C	0.412093	-0.245290	0.245223
C44	C	0.459013	-0.245287	0.245212
C45	C	0.459011	-0.187736	0.187851
C46	C	0.412095	-0.187740	0.187860
C47	C	0.388638	-0.216519	0.216550
O48	O	0.337872	-0.163299	0.163489
O49	O	0.337834	-0.269759	0.269633
C50	C	0.125903	-0.245304	0.245265
C51	C	0.102448	-0.216531	0.216589
C52	C	0.125908	-0.187755	0.187907
C53	C	0.055530	-0.216535	0.216593
C54	C	0.032070	-0.245310	0.245276
C55	C	0.055528	-0.274082	0.273954
C56	C	0.102444	-0.274080	0.273947
C57	C	0.102450	-0.158984	0.159228
C58	C	0.055534	-0.158989	0.159237
C59	C	0.032074	-0.187764	0.187920
C60	C	0.649048	-0.333250	0.216551
C61	C	0.649054	-0.383185	0.216561
C62	C	0.620418	-0.739782	0.245289
C63	C	0.620358	-0.552109	0.245275
O64	O	0.595913	-0.527853	0.269692
N65	N	0.649102	-0.528630	0.216574
C66	C	0.677864	-0.552072	0.187877
O67	O	0.702314	-0.527796	0.163468
C68	C	0.677926	-0.739744	0.187893
C69	C	0.649177	-0.763221	0.216593
C70	C	0.591672	-0.763258	0.273986
C71	C	0.591685	-0.810174	0.273988
C72	C	0.620445	-0.833613	0.245292
C73	C	0.649190	-0.810136	0.216594
C74	C	0.706690	-0.763186	0.159199
C75	C	0.706703	-0.810107	0.159206
C76	C	0.677955	-0.833583	0.187906
C77	C	0.677963	-0.880491	0.187900
N78	N	0.649220	-0.903969	0.216601
C79	C	0.620460	-0.880530	0.245297
C80	C	0.677829	-0.453541	0.187869
C81	C	0.677814	-0.406624	0.187865
C82	C	0.620308	-0.406663	0.245263
C83	C	0.620322	-0.453582	0.245266
C84	C	0.649086	-0.477020	0.216570
C85	C	0.620490	-0.979056	0.245297
C86	C	0.620505	-1.025976	0.245295
C87	C	0.678012	-1.025932	0.187898
C88	C	0.677996	-0.979016	0.187899
C89	C	0.649234	-0.955580	0.216602
O90	O	0.702399	-0.904776	0.163499
O91	O	0.596021	-0.904815	0.269709
C92	C	0.620404	-0.692866	0.245287
C93	C	0.649150	-0.669390	0.216590
C94	C	0.677909	-0.692829	0.187894
C95	C	0.649134	-0.622472	0.216585
C96	C	0.620375	-0.599033	0.245281
C97	C	0.591632	-0.622512	0.273982
C98	C	0.591645	-0.669427	0.273983
C99	C	0.706653	-0.669350	0.159193
C100	C	0.706637	-0.622434	0.159194
C101	C	0.677877	-0.598995	0.187890
C102	C	0.766308	-0.216547	0.216598
C103	C	0.816243	-0.216555	0.216612
C104	C	0.649142	-0.216524	0.333744
C105	C	0.649147	-0.216522	0.383678
C106	C	0.649224	-0.099349	0.216589
C107	C	0.649264	-0.049415	0.216599
C108	C	0.649144	-0.216499	0.099843
C109	C	0.649226	-0.216374	0.049909
C110	C	0.677934	-0.187718	0.693338
C111	C	0.677956	-0.187680	0.881012
O112	O	0.702399	-0.163232	0.905291
N113	N	0.649207	-0.216402	0.904463
C114	C	0.620447	-0.245133	0.880994
O115	O	0.595991	-0.269559	0.905247
C116	C	0.620423	-0.245169	0.693322
C117	C	0.649178	-0.216448	0.669872
C118	C	0.706686	-0.158999	0.669889
C119	C	0.706682	-0.159011	0.622974
C120	C	0.677926	-0.187741	0.599507
C121	C	0.649174	-0.216460	0.622957
C122	C	0.591662	-0.273898	0.669853
C123	C	0.591658	-0.273903	0.622932
C124	C	0.620412	-0.245183	0.599483
C125	C	0.620414	-0.245202	0.552575
N126	N	0.649163	-0.216480	0.529124
C127	C	0.677919	-0.187749	0.552590
C128	C	0.620463	-0.245113	0.979525
C129	C	0.620469	-0.245105	1.026443
C130	C	0.677978	-0.187650	1.026457
C131	C	0.677973	-0.187661	0.979538
C132	C	0.649212	-0.216391	0.956073
C133	C	0.677909	-0.187776	0.454064
C134	C	0.677903	-0.187792	0.407144
C135	C	0.620393	-0.245244	0.407134
C136	C	0.620400	-0.245230	0.454049
C137	C	0.649159	-0.216493	0.477513
O138	O	0.595981	-0.269633	0.528267
O139	O	0.702365	-0.163320	0.528328
C140	C	0.677938	-0.187706	0.740254
C141	C	0.649186	-0.216425	0.763703
C142	C	0.620430	-0.245155	0.740237
C143	C	0.649193	-0.216417	0.810621
C144	C	0.677949	-0.187686	0.834087
C145	C	0.706699	-0.158964	0.810635
C146	C	0.706694	-0.158976	0.763720
C147	C	0.591680	-0.273877	0.763689
C148	C	0.591687	-0.273864	0.810605
C149	C	0.620443	-0.245133	0.834071
H150	H	-0.094284	-0.164339	0.164568
H151	H	0.730096	-0.135623	0.603885
H152	H	0.597043	-0.268511	0.960424
H153	H	0.730103	-0.135601	0.688990
O154	O	0.592447	-0.273068	0.476879
C155	C	0.531764	-0.279080	0.529801
C156	C	0.563406	-0.247509	0.503989
H157	H	0.508271	-0.258428	0.551718
H158	H	0.552342	-0.302563	0.551807
H159	H	0.511234	-0.299626	0.504957
H160	H	0.583944	-0.226934	0.528800
H161	H	0.542803	-0.224055	0.481975
O162	O	0.705728	-0.476376	0.160006
C163	C	0.711907	-0.529398	0.099402
C164	C	0.680250	-0.503564	0.130914
H165	H	0.691319	-0.551379	0.075868
H166	H	0.735359	-0.551344	0.120080
H167	H	0.732481	-0.504569	0.078910
H168	H	0.659646	-0.528361	0.151413
H169	H	0.656827	-0.481611	0.110210
H170	H	-0.179391	-0.164352	0.164573
O171	O	0.705917	-0.159718	0.956831
C172	C	0.762978	-0.102751	0.961810
C173	C	0.731347	-0.134369	0.987578
H174	H	0.783553	-0.082255	0.986658
H175	H	0.742391	-0.079228	0.939854
H176	H	0.786431	-0.123389	0.939835
H177	H	0.707888	-0.113767	1.009577
H178	H	0.751962	-0.157893	1.009505
H179	H	0.701393	-0.164257	1.045571
O180	O	0.563769	-0.692208	0.301929
C181	C	0.541891	-0.706526	0.378326
C182	C	0.573497	-0.680711	0.346726
H183	H	0.549739	-0.697233	0.414550
H184	H	0.546838	-0.744093	0.373444
H185	H	0.505673	-0.697340	0.370371
H186	H	0.609727	-0.689860	0.354660
H187	H	0.568512	-0.643151	0.351613
H188	H	0.596891	-0.387572	0.268628
H189	H	0.730046	-0.603323	0.135819
H190	H	0.036419	-0.297513	0.297307
O191	O	0.563632	-0.599759	0.301812
C192	C	0.487198	-0.585478	0.323558
C193	C	0.518851	-0.611267	0.292005
H194	H	0.450987	-0.594779	0.315648
H195	H	0.492091	-0.547907	0.318623
H196	H	0.495090	-0.594679	0.359790
H197	H	0.510980	-0.602104	0.255762
H198	H	0.513953	-0.648831	0.296979
O199	O	0.592498	-0.273022	1.049149
C200	C	0.535475	-0.330026	1.044170
C201	C	0.567125	-0.298427	1.018402
H202	H	0.514959	-0.350581	1.019322
H203	H	0.511972	-0.309416	1.066118
H204	H	0.556090	-0.353499	1.066152
H205	H	0.546547	-0.274948	0.996395
H206	H	0.590629	-0.319066	0.996482
O207	O	0.592573	-0.956343	0.273241
C208	C	0.570718	-0.941975	0.349636
C209	C	0.602356	-0.967734	0.318044
H210	H	0.578623	-0.951168	0.385866
H211	H	0.534495	-0.951248	0.341741
H212	H	0.575635	-0.904410	0.344686
H213	H	0.597480	-1.005305	0.322976
H214	H	0.638567	-0.958424	0.325946
H215	H	0.121546	-0.135551	0.135871
O216	O	0.734662	-0.740458	0.131309
C217	C	0.791694	-0.745390	0.074372
C218	C	0.760041	-0.771184	0.105942
H219	H	0.812214	-0.770222	0.053847
H220	H	0.815193	-0.723411	0.095004
H221	H	0.771081	-0.723437	0.050869
H222	H	0.780618	-0.793162	0.129450
H223	H	0.736541	-0.793135	0.085282
O224	O	0.705850	-0.159847	0.384435
C225	C	0.762910	-0.102879	0.389410
C226	C	0.731278	-0.134494	0.415181
H227	H	0.783483	-0.082379	0.414256
H228	H	0.742324	-0.079359	0.367450
H229	H	0.786364	-0.123520	0.367439
H230	H	0.707817	-0.113890	0.437176
H231	H	0.751892	-0.158015	0.437112
H232	H	0.701218	-0.387512	0.164490
O233	O	0.563710	-0.740444	0.301800
C234	C	0.503004	-0.687563	0.307770
C235	C	0.534656	-0.713359	0.276221
H236	H	0.479500	-0.665666	0.287101
H237	H	0.523574	-0.665538	0.331279
H238	H	0.482486	-0.712418	0.328288
H239	H	0.555181	-0.688537	0.255673
H240	H	0.514060	-0.735391	0.252741
O241	O	0.563672	-0.301752	0.600121
C242	C	0.503021	-0.307808	0.547119
C243	C	0.534677	-0.276217	0.572929
H244	H	0.479577	-0.287176	0.525120
H245	H	0.482442	-0.328322	0.571924
H246	H	0.523633	-0.331319	0.525180
H247	H	0.514100	-0.252678	0.594868
H248	H	0.555257	-0.255734	0.548099
H249	H	0.177178	-0.297509	0.297292
H250	H	0.596915	-0.472694	0.268638
O251	O	0.734697	-0.832891	0.131396
C252	C	0.795364	-0.885817	0.125431
C253	C	0.763696	-0.860037	0.156975
H254	H	0.818811	-0.907777	0.146098
H255	H	0.815939	-0.860992	0.104931
H256	H	0.774761	-0.907791	0.101903
H257	H	0.784263	-0.838062	0.180530
H258	H	0.743119	-0.884886	0.177443
H259	H	-0.179408	-0.268759	0.268647
H260	H	0.596982	-0.268637	0.388019
O261	O	0.705958	-0.956278	0.160001
C262	C	0.762973	-0.961196	0.103046
C263	C	0.731333	-0.986998	0.134622
H264	H	0.783490	-0.986022	0.082512
H265	H	0.786475	-0.939216	0.123674
H266	H	0.742350	-0.939243	0.079552
H267	H	0.751920	-1.008976	0.158122
H268	H	0.707830	-1.008950	0.113967
O269	O	0.563699	-0.301724	0.740877
C270	C	0.503051	-0.307783	0.687871
C271	C	0.534704	-0.276191	0.713683
H272	H	0.479607	-0.287152	0.665872
H273	H	0.482473	-0.328299	0.712674
H274	H	0.523666	-0.331292	0.665933
H275	H	0.514124	-0.252654	0.735622
H276	H	0.555284	-0.255705	0.688856
O277	O	0.705923	-1.048775	0.160056
C278	C	0.731385	-1.121043	0.134590
C279	C	0.699764	-1.095228	0.166155
H280	H	0.726409	-1.158605	0.139503
H281	H	0.767616	-1.111825	0.142509
H282	H	0.723515	-1.111805	0.098364
H283	H	0.707593	-1.104452	0.202392
H284	H	0.663542	-1.104448	0.158198
H285	H	0.730109	-0.135588	0.744632
H286	H	0.568275	-0.829284	0.297357
H287	H	0.730073	-0.688429	0.135825
O288	O	0.173578	-0.130972	0.131347
C289	C	0.178552	-0.073901	0.074442
C290	C	0.204323	-0.105582	0.105990
H291	H	0.203398	-0.053372	0.053926
H292	H	0.156624	-0.050412	0.095091
H293	H	0.156549	-0.094492	0.050931
H294	H	0.226350	-0.085027	0.129507
H295	H	0.226222	-0.129072	0.085313
O296	O	0.734567	-0.131006	0.833455
C297	C	0.740654	-0.070362	0.886455
C298	C	0.709046	-0.101990	0.860630
H299	H	0.720033	-0.046902	0.908439
H300	H	0.761196	-0.049800	0.861659
H301	H	0.764138	-0.090996	0.908409
H302	H	0.685535	-0.081391	0.838675
H303	H	0.688535	-0.122554	0.885450
O304	O	-0.090667	-0.273292	0.273188
C305	C	-0.095634	-0.330392	0.330065
C306	C	-0.121409	-0.298737	0.298494
H307	H	-0.120478	-0.350980	0.350526
H308	H	-0.073660	-0.309822	0.353623
H309	H	-0.073677	-0.353831	0.309392
H310	H	-0.143391	-0.275292	0.319131
H311	H	-0.143355	-0.319335	0.274935
H312	H	0.701326	-0.164374	0.473162
O313	O	0.563711	-0.301780	0.833311
C314	C	0.506683	-0.358780	0.828332
C315	C	0.538338	-0.327186	0.802564
H316	H	0.486167	-0.379335	0.803484
H317	H	0.483180	-0.338165	0.850276
H318	H	0.527293	-0.382253	0.850318
H319	H	0.517763	-0.303707	0.780553
H320	H	0.561842	-0.347828	0.780648
H321	H	0.568247	-0.297285	0.688938
H322	H	0.478108	-0.268721	0.268565
O323	O	0.389381	-0.273286	0.273106
C324	C	0.394343	-0.330347	0.330020
C325	C	0.420120	-0.298671	0.298460
H326	H	0.419185	-0.350872	0.350533
H327	H	0.372364	-0.353841	0.309381
H328	H	0.372390	-0.309753	0.353533
H329	H	0.442097	-0.319229	0.274940
H330	H	0.442071	-0.275176	0.319127
H331	H	0.262283	-0.297506	0.297279
H332	H	0.597094	-1.045088	0.268667
H333	H	0.392997	-0.164309	0.164507
O334	O	0.266063	-0.131026	0.131395
C335	C	0.338342	-0.105532	0.105939
C336	C	0.312514	-0.137190	0.137478
H337	H	0.375902	-0.110511	0.110840
H338	H	0.329175	-0.069310	0.113896
H339	H	0.329065	-0.113361	0.069707
H340	H	0.321777	-0.129402	0.173720
H341	H	0.321683	-0.173403	0.129482
O342	O	0.481874	-0.159798	0.160033
C343	C	0.554160	-0.134309	0.134595
C344	C	0.528323	-0.165967	0.166125
H345	H	0.591719	-0.139293	0.139503
H346	H	0.544996	-0.098087	0.142553
H347	H	0.544890	-0.142134	0.098360
H348	H	0.537579	-0.158183	0.202371
H349	H	0.537490	-0.202180	0.158129
H350	H	0.121537	-0.297512	0.297299
H351	H	0.036441	-0.135556	0.135881
