data_functionalizedCrystal
_audit_creation_method	'MofGen! by Chris Wilmer'
_symmetry_space_group_name_H-M	'P1'
_symmetry_Int_Tables_number	1
_symmetry_cell_setting	triclinic
loop_
_symmetry_equiv_pos_as_xyz
  x,y,z
_cell_length_a	6.394989
_cell_length_b	11.026607
_cell_length_c	10.065875
_cell_angle_alpha	79.268236
_cell_angle_beta	99.004008
_cell_angle_gamma	97.541864
loop_
_atom_site_label
_atom_site_type_symbol
_atom_site_fract_x
_atom_site_fract_y
_atom_site_fract_z
O1	O	-2.870668	-0.182487	-0.113475
O2	O	-2.266328	-0.192559	-0.113480
O3	O	-2.518410	-0.010105	-0.113473
O4	O	-2.618586	-0.364942	-0.113482
O5	O	-2.470395	-0.045040	0.113514
O6	O	-2.218313	-0.227494	0.113507
O7	O	-2.822653	-0.217422	0.113513
Zn8	Zn	-2.512860	-0.228005	0.149549
Zn9	Zn	-2.576121	-0.181977	-0.149516
O10	O	-2.570571	-0.399877	0.113505
C11	C	-2.475922	0.017921	0.000019
C12	C	-2.420833	0.153479	0.000014
C13	C	-2.613059	-0.427902	0.000011
C14	C	-2.668151	-0.563458	0.000007
N15	N	-2.469701	-0.259418	0.353653
C16	C	-2.163749	-0.208036	0.000020
C17	C	-1.925224	-0.201950	0.000026
N18	N	-2.619293	-0.150555	-0.353621
C19	C	-2.572948	0.224958	0.000013
C20	C	-2.516013	0.365064	0.000008
C21	C	-2.561089	-0.192898	0.421435
C22	C	-2.527892	-0.217084	0.578601
H23	H	-2.745327	0.182429	0.000023
Cl24	Cl	-2.719258	-0.077044	0.331398
Cl25	Cl	-2.369125	-0.332656	0.668633
Cl26	Cl	-2.249853	0.430709	-0.000009
Cl27	Cl	-2.154683	0.219130	-0.000003
H28	H	-2.840566	0.394037	-0.000094
Cl29	Cl	-2.310940	-0.374985	0.443690
Cl30	Cl	-2.778594	-0.035241	0.556351
