data_functionalizedCrystal
_audit_creation_method	'MofGen! by Chris Wilmer'
_symmetry_space_group_name_H-M	'P1'
_symmetry_Int_Tables_number	1
_symmetry_cell_setting	triclinic
loop_
_symmetry_equiv_pos_as_xyz
  x,y,z
_cell_length_a	10.654551
_cell_length_b	15.995300
_cell_length_c	9.730223
_cell_angle_alpha	90.003215
_cell_angle_beta	90.000351
_cell_angle_gamma	83.978539
loop_
_atom_site_label
_atom_site_type_symbol
_atom_site_fract_x
_atom_site_fract_y
_atom_site_fract_z
O1	O	1.666265	0.117605	-0.114257
O2	O	1.300637	0.128809	-0.114262
O3	O	1.493479	0.001375	-0.114266
O4	O	1.473424	0.245039	-0.114253
O5	O	1.493477	0.001378	0.114314
O6	O	1.300635	0.128812	0.114318
O7	O	1.666263	0.117608	0.114323
Zn8	Zn	1.483449	0.123211	0.150612
Zn9	Zn	1.483452	0.123206	-0.150552
O10	O	1.473421	0.245042	0.114327
C11	C	1.253849	0.127988	0.000027
C12	C	1.114439	0.125526	0.000024
C13	C	0.917952	0.122049	0.124624
C14	C	1.048942	0.124369	0.124625
C15	C	1.048938	0.124370	-0.124585
C16	C	0.917950	0.122056	-0.124585
C17	C	0.852463	0.120884	0.249233
C18	C	0.917955	0.122041	0.373844
C19	C	1.048944	0.124361	0.373844
C20	C	1.114442	0.125525	0.249235
C21	C	1.492660	-0.029824	0.000019
C22	C	1.490208	-0.122791	0.000005
C23	C	1.485679	-0.293000	0.000018
C24	C	1.622986	-0.339668	0.000018
C25	C	1.620481	-0.436371	0.000542
C26	C	1.481222	-0.460583	0.000030
C27	C	1.413097	-0.419842	0.130302
C28	C	1.416572	-0.323189	0.130406
C29	C	1.414541	-0.322928	-0.129541
C30	C	1.414554	-0.419873	-0.131248
C31	C	1.478695	-0.555293	0.000041
C32	C	1.488201	-0.198290	0.000017
C33	C	1.713051	0.118429	0.000031
C34	C	1.852461	0.120891	0.000024
C35	C	1.474240	0.276241	0.000039
C36	C	1.476693	0.369208	0.000044
N37	N	1.483456	0.123213	0.356149
N38	N	1.483454	0.123197	-0.356088
C39	C	1.568868	0.066804	0.428073
C40	C	1.568865	0.066794	0.571956
C41	C	1.398033	0.179609	0.571978
C42	C	1.398032	0.179614	0.428097
C43	C	1.654292	0.010403	0.356124
C44	C	1.739712	-0.046009	0.428049
C45	C	1.739709	-0.046019	0.571932
C46	C	1.654286	0.010383	0.643890
H47	H	1.102262	0.125312	0.475307
Cl48	Cl	1.703121	-0.479849	-0.143601
Cl49	Cl	1.847080	-0.116942	0.662349
Cl50	Cl	1.255114	-0.442525	0.137222
H51	H	0.864616	0.121100	0.475296
Cl52	Cl	1.290649	0.250528	0.337676
H53	H	1.464302	-0.446926	-0.227625
Cl54	Cl	0.835612	0.120604	-0.281228
Cl55	Cl	1.257847	-0.444553	-0.144091
H56	H	1.654282	0.010364	0.761049
Cl57	Cl	1.847084	-0.116918	0.337590
Cl58	Cl	1.258244	-0.274770	-0.131481
Cl59	Cl	1.290656	0.250512	0.662440
Cl60	Cl	1.279115	0.128450	0.249240
H61	H	1.102278	0.125317	-0.226036
Cl62	Cl	1.708187	-0.310635	-0.144197
H63	H	0.745806	0.118993	0.249247
H64	H	1.315746	-0.291501	0.135964
H65	H	1.677381	-0.319683	0.093229
H66	H	1.654305	0.010408	0.238968
Cl67	Cl	1.492366	-0.294457	0.281326
Cl68	Cl	1.702763	-0.478890	0.145567
H69	H	1.459745	-0.302166	-0.228313
Cl70	Cl	1.485257	-0.463197	0.280553
