data_functionalizedCrystal
_audit_creation_method	'MofGen! by Chris Wilmer'
_symmetry_space_group_name_H-M	'P1'
_symmetry_Int_Tables_number	1
_symmetry_cell_setting	triclinic
loop_
_symmetry_equiv_pos_as_xyz
  x,y,z
_cell_length_a	19.288864
_cell_length_b	8.140239
_cell_length_c	19.288865
_cell_angle_alpha	89.991261
_cell_angle_beta	96.863755
_cell_angle_gamma	90.016564
loop_
_atom_site_label
_atom_site_type_symbol
_atom_site_fract_x
_atom_site_fract_y
_atom_site_fract_z
O1	O	0.921347	0.137159	-0.086647
O2	O	0.719086	0.137049	-0.098335
O3	O	0.826061	0.137075	0.008639
O4	O	0.814372	0.137133	-0.193621
O5	O	0.826055	-0.136152	0.008641
O6	O	0.719080	-0.136178	-0.098334
O7	O	0.921341	-0.136068	-0.086645
Zn8	Zn	0.820210	-0.179504	-0.092490
Zn9	Zn	0.820217	0.180485	-0.092491
O10	O	0.814366	-0.136094	-0.193620
C11	C	0.693207	0.000421	-0.097959
C12	C	0.616103	0.000378	-0.096830
N13	N	0.820209	-0.425186	-0.092488
C14	C	0.571407	0.000422	-0.159598
C15	C	0.498960	0.000440	-0.158537
C16	C	0.471212	0.000446	-0.094705
C17	C	0.515918	0.000393	-0.031929
C18	C	0.588364	0.000359	-0.032991
C19	C	0.362952	0.096211	-0.044526
C20	C	0.290508	0.096255	-0.043466
C21	C	0.247767	0.000545	-0.091425
C22	C	0.277477	-0.095189	-0.140456
C23	C	0.349923	-0.095223	-0.141518
C24	C	0.392658	0.000483	-0.093546
C25	C	0.124514	0.000606	-0.153047
C26	C	0.052066	0.000614	-0.151984
C27	C	0.069026	0.000584	-0.025374
C28	C	0.141473	0.000559	-0.026439
C29	C	0.169212	0.000578	-0.090278
C30	C	0.947220	0.000564	-0.087022
C31	C	1.024324	0.000618	-0.088151
C32	C	0.825682	0.000456	0.034516
C33	C	0.824553	0.000441	0.111620
N34	N	0.820223	0.426167	-0.092487
C35	C	0.814745	0.000529	-0.219497
C36	C	0.815874	0.000554	-0.296601
C37	C	0.887321	0.000467	0.156316
C38	C	0.886260	0.000492	0.228763
C39	C	0.822428	0.000459	0.256511
C40	C	0.759652	0.000442	0.211805
C41	C	0.760714	0.000433	0.139359
C42	C	0.772246	-0.095274	0.364799
C43	C	0.771186	-0.095275	0.437243
C44	C	0.819148	0.000494	0.479956
C45	C	0.868182	0.096243	0.450218
C46	C	0.869244	0.096234	0.377772
C47	C	0.821269	0.000470	0.335065
C48	C	0.880770	0.000550	0.603209
C49	C	0.879707	0.000585	0.675657
C50	C	0.753097	0.000518	0.658697
C51	C	0.754162	0.000499	0.586250
C52	C	0.818000	0.000507	0.558511
H53	H	0.593987	0.000440	-0.211580
N54	N	0.720526	-0.198595	0.318726
H55	H	0.691135	-0.125306	0.284662
H56	H	0.689354	-0.259261	0.348600
H57	H	0.930822	0.000616	0.712049
N58	N	0.922120	0.199508	0.345695
H59	H	0.952390	0.126193	0.319640
H60	H	0.952297	0.260167	0.383779
N61	N	0.949621	0.000561	0.573285
H62	H	0.940771	0.000530	0.520609
H63	H	0.977069	-0.100717	0.589666
H64	H	0.703049	0.000469	0.549857
H65	H	0.462561	0.000471	-0.209652
N66	N	0.381970	-0.198475	-0.194393
H67	H	0.343906	-0.259107	-0.224616
H68	H	0.415434	-0.280254	-0.169270
N69	N	0.718311	-0.198562	0.469317
H70	H	0.688085	-0.259220	0.431267
H71	H	0.688091	-0.125156	0.495384
H72	H	0.701123	0.000499	0.681288
N73	N	0.231389	-0.198419	-0.192192
H74	H	0.180987	-0.183881	-0.184079
H75	H	0.244900	-0.317825	-0.185885
N76	N	0.690803	0.000414	0.241727
H77	H	0.699654	0.000419	0.294404
H78	H	0.663342	-0.100887	0.225368
N79	N	0.154440	0.000618	-0.221897
H80	H	0.115129	0.000635	-0.261501
H81	H	0.184111	-0.100679	-0.225094
H82	H	0.397747	0.174159	-0.005471
H83	H	0.015674	0.000640	-0.203099
N84	N	0.485996	0.000381	0.036920
H85	H	0.433319	0.000411	0.028069
H86	H	0.502383	0.101650	0.064381
N87	N	0.636577	0.000303	0.034711
H88	H	0.608010	0.000302	0.075312
H89	H	0.667025	0.101578	0.037029
H90	H	0.939303	0.000479	0.133736
N91	N	0.039110	0.000572	0.043476
H92	H	-0.013567	0.000595	0.034626
H93	H	0.055495	0.101846	0.070935
N94	N	0.189687	0.000512	0.041261
H95	H	0.161118	0.000516	0.081861
H96	H	0.220137	0.101782	0.043580
H97	H	0.266323	0.174214	-0.003545
H98	H	0.937375	0.000520	0.265162
N99	N	0.919919	0.199541	0.496276
H100	H	0.911806	0.185029	0.546682
H101	H	0.913614	0.318933	0.482729
H102	H	0.709599	0.000411	0.102967
