data_functionalizedCrystal
_audit_creation_method	'MofGen! by Chris Wilmer'
_symmetry_space_group_name_H-M	'P1'
_symmetry_Int_Tables_number	1
_symmetry_cell_setting	triclinic
loop_
_symmetry_equiv_pos_as_xyz
  x,y,z
_cell_length_a	6.817900
_cell_length_b	14.712618
_cell_length_c	14.858329
_cell_angle_alpha	84.596690
_cell_angle_beta	104.519616
_cell_angle_gamma	77.863674
loop_
_atom_site_label
_atom_site_type_symbol
_atom_site_fract_x
_atom_site_fract_y
_atom_site_fract_z
V1	V	-4.016599	0.290227	-0.129269
V2	V	-3.516599	0.790227	0.370731
O3	O	-3.998979	0.284430	0.005596
O4	O	-3.498979	0.784430	0.505596
O5	O	-3.973308	0.288505	-0.255727
O6	O	-3.473308	0.788505	0.244273
O7	O	-3.961428	0.416686	-0.127551
O8	O	-3.461428	0.916686	0.372449
O9	O	-4.010941	0.155361	-0.123467
O10	O	-3.510941	0.655361	0.376533
V11	V	-4.500442	0.274064	-0.113106
V12	V	-4.000442	0.774064	0.386894
O13	O	-4.277155	0.325682	-0.164725
O14	O	-3.777155	0.825682	0.335275
O15	O	-4.690083	0.238610	-0.077650
O16	O	-4.190083	0.738610	0.422350
O17	O	-4.320526	0.275787	0.013352
O18	O	-3.820526	0.775787	0.513352
O19	O	-4.635458	0.279862	-0.247972
O20	O	-4.135458	0.779862	0.252028
O21	O	-4.623497	0.408930	-0.118908
O22	O	-4.123497	0.908930	0.381092
O23	O	-4.332405	0.147606	-0.114824
O24	O	-3.832405	0.647606	0.385176
C25	C	-3.819770	0.283994	-0.286547
C26	C	-3.319770	0.783994	0.213453
C27	C	-3.865616	0.283428	-0.389929
C28	C	-3.365616	0.783428	0.110071
C29	C	-3.902843	0.282960	-0.473886
C30	C	-3.402843	0.782960	0.026114
C31	C	-3.949565	0.282378	-0.579215
C32	C	-3.449565	0.782378	-0.079215
C33	C	-3.986819	0.281914	-0.663166
C34	C	-3.486819	0.781914	-0.163166
C35	C	-4.033543	0.281330	-0.768501
C36	C	-3.533543	0.781330	-0.268501
C37	C	-4.152560	0.116786	-0.119334
C38	C	-3.652560	0.616786	0.380666
C39	C	-4.095589	0.013403	-0.119898
C40	C	-3.595589	0.513403	0.380102
C41	C	-3.887085	-0.365161	-0.122005
C42	C	-3.387085	0.134839	0.377995
C43	C	-3.945105	-0.259833	-0.121419
C44	C	-3.445105	0.240167	0.378581
C45	C	-3.991336	-0.175882	-0.120952
C46	C	-3.491336	0.324118	0.379048
C47	C	-4.049358	-0.070548	-0.120364
C48	C	-3.549358	0.429452	0.379636
C49	C	-3.804616	0.447500	-0.123044
C50	C	-3.304616	0.947500	0.376956
C51	C	-3.840826	0.550883	-0.122476
C52	C	-3.340826	1.050883	0.377524
C53	C	-4.137406	0.280295	0.044166
C54	C	-3.637406	0.780295	0.544166
C55	C	-4.070797	0.280867	0.147548
C56	C	-3.570797	0.780867	0.647548
