data_functionalizedCrystal
_audit_creation_method	'MofGen! by Chris Wilmer'
_symmetry_space_group_name_H-M	'P1'
_symmetry_Int_Tables_number	1
_symmetry_cell_setting	triclinic
loop_
_symmetry_equiv_pos_as_xyz
  x,y,z
_cell_length_a	8.497374
_cell_length_b	8.497365
_cell_length_c	12.759401
_cell_angle_alpha	89.967415
_cell_angle_beta	89.995865
_cell_angle_gamma	89.956913
loop_
_atom_site_label
_atom_site_type_symbol
_atom_site_fract_x
_atom_site_fract_y
_atom_site_fract_z
Zn1	Zn	-0.627596	-0.892050	1.606536
Zn2	Zn	-0.891539	-0.628291	1.606454
Zn3	Zn	-0.627774	-0.628277	1.430799
Zn4	Zn	-0.891335	-0.892023	1.430889
O5	O	-0.759561	-0.760161	1.518669
O6	O	-0.662619	-0.857080	1.753546
O7	O	-0.856711	-0.407527	1.583081
O8	O	-0.406988	-0.663273	1.454107
O9	O	-0.856538	-0.663297	1.753485
O10	O	-0.406857	-0.857066	1.583221
O11	O	-0.662924	-0.407517	1.454028
O12	O	-0.662725	-0.663246	1.283790
O13	O	-0.856189	-1.112789	1.454261
O14	O	-0.856362	-0.857019	1.283856
O15	O	-0.662421	-1.112809	1.583308
O16	O	-1.112275	-0.663270	1.583168
O17	O	-1.112124	-0.857033	1.454181
C18	C	-0.759542	-0.760129	1.245702
C19	C	-0.759571	-0.760153	1.128925
C20	C	-0.169441	-0.760155	1.518666
C21	C	-0.348085	-0.760164	1.518670
C22	C	-0.860552	-0.860892	1.074125
C23	C	-0.860558	-0.860923	0.964401
C24	C	-0.658599	-0.659463	0.964287
C25	C	-0.658586	-0.659441	1.074009
C26	C	-0.917098	-1.046916	0.814544
C27	C	-1.018103	-1.147641	0.759740
C28	C	-1.172051	-1.171610	0.795377
C29	C	-1.225027	-1.094830	0.885817
C30	C	-1.124030	-0.994093	0.940615
C31	C	-0.970060	-0.970155	0.904979
C32	C	-0.602062	-0.473446	1.223868
C33	C	-0.501072	-0.372700	1.278668
C34	C	-0.347121	-0.348716	1.243033
C35	C	-0.294152	-0.425468	1.152590
C36	C	-0.395141	-0.526214	1.097790
C37	C	-0.549091	-0.550200	1.133433
C38	C	-0.759733	-0.350280	1.518593
C39	C	-0.759409	-0.171637	1.518743
C40	C	-0.759581	-0.760193	1.792702
C41	C	-0.759590	-0.760207	1.909479
H42	H	-0.942777	-0.942902	1.118835
O43	O	-0.966370	-1.222163	0.671940
C44	C	-0.808830	-1.179403	0.652227
H45	H	-0.751620	-1.137983	0.728158
H46	H	-0.741823	-1.285450	0.620510
H47	H	-0.805655	-1.080201	0.592072
O48	O	-1.374608	-1.118331	0.920311
C49	C	-1.452403	-1.223676	0.852538
H50	H	-1.361731	-1.298250	0.809270
H51	H	-1.533023	-1.303563	0.900166
H52	H	-1.525360	-1.154401	0.793375
H53	H	-0.791735	-1.027427	0.785526
O54	O	-0.751717	-0.496704	1.258308
C55	C	-0.858860	-0.449072	1.180087
H56	H	-0.798340	-0.452318	1.100377
H57	H	-0.964099	-0.532197	1.179547
H58	H	-0.900781	-0.324190	1.197087
H59	H	-0.576383	-0.577465	0.919561
O60	O	-1.269942	-1.269561	0.742047
C61	C	-1.190192	-1.332148	0.654569
H62	H	-1.057857	-1.327173	0.668842
H63	H	-1.227632	-1.459610	0.642275
H64	H	-1.220598	-1.260276	0.581855
O65	O	-0.343414	-0.600713	1.009981
C66	C	-0.185887	-0.557914	0.990258
H67	H	-0.128675	-0.516486	1.066187
H68	H	-0.118860	-0.663944	0.958533
H69	H	-0.182745	-0.458708	0.930106
H70	H	-0.168802	-0.405914	1.123563
O71	O	-0.249229	-0.250644	1.296272
C72	C	-0.314758	-0.098207	1.298826
H73	H	-0.447552	-0.106079	1.287289
H74	H	-0.288485	-0.041279	1.377786
H75	H	-0.261228	-0.023997	1.233471
O76	O	-1.175708	-0.919670	1.028459
C77	C	-1.333273	-0.962369	1.048142
H78	H	-1.359399	-1.080048	1.009000
H79	H	-1.352626	-0.973237	1.136262
H80	H	-1.415206	-0.868351	1.015083
O81	O	-0.552757	-0.298003	1.366414
C82	C	-0.682876	-0.202239	1.341037
H83	H	-0.740984	-0.248174	1.266576
H84	H	-0.771404	-0.204921	1.408150
H85	H	-0.641461	-0.076189	1.327864
