data_functionalizedCrystal
_audit_creation_method	'MofGen! by Chris Wilmer'
_symmetry_space_group_name_H-M	'P1'
_symmetry_Int_Tables_number	1
_symmetry_cell_setting	triclinic
loop_
_symmetry_equiv_pos_as_xyz
  x,y,z
_cell_length_a	16.959455
_cell_length_b	12.759400
_cell_length_c	12.759393
_cell_angle_alpha	89.969552
_cell_angle_beta	90.026410
_cell_angle_gamma	89.988295
loop_
_atom_site_label
_atom_site_type_symbol
_atom_site_fract_x
_atom_site_fract_y
_atom_site_fract_z
Zn1	Zn	1.208461	0.418299	0.594209
Zn2	Zn	1.208382	0.594015	0.418529
Zn3	Zn	1.076275	0.418341	0.418523
Zn4	Zn	1.076266	0.593928	0.594146
O5	O	1.142346	0.506146	0.506352
O6	O	1.319061	0.441627	0.570933
O7	O	1.190828	0.570765	0.271507
O8	O	1.093847	0.271315	0.441853
O9	O	1.319003	0.570725	0.441862
O10	O	1.190963	0.271284	0.570928
O11	O	1.093770	0.441699	0.271503
O12	O	0.965663	0.441614	0.441791
O13	O	1.093831	0.570576	0.741175
O14	O	0.965656	0.570617	0.570820
O15	O	1.190954	0.441543	0.741222
O16	O	1.190819	0.741024	0.441801
O17	O	1.093755	0.740960	0.570826
C18	C	0.936980	0.506111	0.506299
C19	C	0.849123	0.506122	0.506301
C20	C	1.142299	0.779113	0.506330
C21	C	1.142351	0.895890	0.506356
C22	C	1.142400	0.506045	0.780385
C23	C	1.142424	0.506002	0.897162
C24	C	0.477606	0.573300	0.439110
C25	C	0.477688	0.439079	0.573721
C26	C	0.560234	0.439061	0.573696
C27	C	0.601470	0.506166	0.506377
C28	C	0.560160	0.573287	0.439085
C29	C	0.601550	0.371948	0.640995
C30	C	0.684101	0.371929	0.640973
C31	C	0.725339	0.439029	0.573648
C32	C	0.684024	0.506153	0.506352
C33	C	0.725259	0.573257	0.439034
C34	C	0.683946	0.640376	0.371731
C35	C	0.601397	0.640387	0.371760
C36	C	0.807887	0.439018	0.573619
C37	C	0.807813	0.573244	0.439008
C38	C	1.348514	0.506181	0.506405
C39	C	1.436371	0.506196	0.506428
C40	C	1.142414	0.232112	0.506397
C41	C	1.142444	0.115336	0.506416
C42	C	1.192949	0.950750	0.439247
C43	C	1.192997	1.060474	0.439279
C44	C	1.091844	1.060468	0.573532
C45	C	1.091800	0.950746	0.573504
C46	C	1.251347	0.950755	0.361733
C47	C	1.251395	1.060479	0.361766
C48	C	1.142337	0.506170	0.233384
C49	C	1.142467	0.505917	0.116608
C50	C	1.192964	0.573182	0.952023
C51	C	1.192988	0.573137	1.061748
C52	C	1.091924	0.438730	1.061739
C53	C	1.091905	0.438771	0.952017
C54	C	1.251311	0.650783	0.952029
C55	C	1.251334	0.650739	1.061754
H56	H	0.841381	0.627885	0.384185
Cl57	Cl	1.217409	0.770125	0.899447
Cl58	Cl	0.425672	0.657670	0.354501
H59	H	1.234920	0.732094	1.091515
H60	H	1.050607	0.906079	0.628159
Cl61	Cl	1.345829	0.904656	0.395489
H62	H	1.309504	0.621596	1.095805
H63	H	1.229435	0.916805	0.284403
H64	H	1.309555	1.094428	0.390989
Cl65	Cl	1.028377	0.354298	0.883051
Cl66	Cl	0.736031	0.287551	0.725578
Cl67	Cl	0.735795	0.724739	0.287113
Cl68	Cl	0.859820	0.354652	0.658226
Cl69	Cl	1.226148	1.106588	0.236121
Cl70	Cl	0.549708	0.287609	0.725631
Cl71	Cl	0.549456	0.724760	0.287163
H72	H	1.050794	0.383992	1.106415
H73	H	0.444109	0.384451	0.628535
Cl74	Cl	1.345825	0.617177	0.906083
H75	H	1.050687	1.105145	0.628203
