data_functionalizedCrystal
_audit_creation_method	'MofGen! by Chris Wilmer'
_symmetry_space_group_name_H-M	'P1'
_symmetry_Int_Tables_number	1
_symmetry_cell_setting	triclinic
loop_
_symmetry_equiv_pos_as_xyz
  x,y,z
_cell_length_a	9.016244
_cell_length_b	11.792241
_cell_length_c	11.792241
_cell_angle_alpha	95.806584
_cell_angle_beta	90.002363
_cell_angle_gamma	89.996851
loop_
_atom_site_label
_atom_site_type_symbol
_atom_site_fract_x
_atom_site_fract_y
_atom_site_fract_z
O1	O	0.123197	-1.506914	0.155563
O2	O	0.623197	-1.006914	0.655563
O3	O	0.123231	-1.176573	0.171596
O4	O	0.623231	-0.676573	0.671596
O5	O	0.123203	-1.349760	-0.001591
O6	O	0.623203	-0.849760	0.498409
O7	O	0.123225	-1.333727	0.328750
O8	O	0.623225	-0.833727	0.828750
O9	O	-0.123478	-1.349734	-0.001587
O10	O	0.376522	-0.849734	0.498413
O11	O	-0.123449	-1.176547	0.171600
O12	O	0.376551	-0.676547	0.671600
O13	O	-0.123484	-1.506888	0.155567
O14	O	0.376516	-1.006888	0.655567
Cu15	Cu	-0.145990	-1.341716	0.163584
Cu16	Cu	0.354010	-0.841716	0.663584
Cu17	Cu	0.145738	-1.341746	0.163579
Cu18	Cu	0.645738	-0.841746	0.663579
O19	O	-0.123455	-1.333701	0.328754
O20	O	0.376545	-0.833701	0.828754
C21	C	-0.000105	-1.134269	0.170591
C22	C	0.499895	-0.634269	0.670591
C23	C	-0.000092	-1.008255	0.167576
C24	C	0.499908	-0.508255	0.667576
N25	N	-0.351177	-1.341703	0.163586
N26	N	0.148823	-0.841703	0.663586
C27	C	-0.000137	-1.348740	-0.043880
C28	C	0.499863	-0.848740	0.456120
C29	C	-0.000135	-1.345726	-0.169894
C30	C	0.499865	-0.845726	0.330106
C31	C	-0.586194	-1.248777	0.255921
C32	C	-0.086194	-0.748777	0.755921
C33	C	-0.414303	-1.248981	0.256265
C34	C	0.085697	-0.748981	0.756265
C35	C	-0.413525	-1.460294	0.190184
C36	C	0.086475	-0.960294	0.690184
C37	C	-0.585470	-1.459786	0.190837
C38	C	-0.085470	-0.959786	0.690837
C39	C	-0.585725	-1.317217	0.044350
C40	C	-0.085725	-0.817217	0.544350
C41	C	-0.413771	-1.314492	0.045131
C42	C	0.086229	-0.814492	0.545131
N43	N	0.350924	-1.341768	0.163568
N44	N	0.850924	-0.841768	0.663568
C45	C	-0.000145	-1.549192	0.156572
C46	C	0.499855	-1.049192	0.656572
C47	C	-0.000148	-1.675206	0.159587
C48	C	0.499852	-1.175206	0.659587
C49	C	-0.000135	-0.777543	0.162034
C50	C	0.499865	-0.277543	0.662034
C51	C	-0.000111	-0.905928	0.165113
C52	C	0.499889	-0.405928	0.665113
C53	C	-0.000110	-1.340183	-0.400606
C54	C	0.499890	-0.840183	0.099394
C55	C	-0.000124	-1.343262	-0.272221
C56	C	0.499876	-0.843262	0.227779
C57	C	-0.000112	-1.334721	0.371043
C58	C	0.499888	-0.834721	0.871043
C59	C	-0.000104	-1.337736	0.497057
C60	C	0.499896	-0.837736	0.997057
H61	H	-0.372151	-1.160853	0.240311
H62	H	0.127849	-0.660853	0.740311
H63	H	-0.627579	-1.160372	0.240216
H64	H	-0.127579	-0.660372	0.740216
N65	N	-0.356879	-1.398300	-0.050247
N66	N	0.143121	-0.898300	0.449753
H67	H	-0.443309	-1.439595	-0.090213
H68	H	0.056691	-0.939595	0.409787
H69	H	-0.299774	-1.356034	-0.106471
H70	H	0.200226	-0.856034	0.393529
H71	H	-0.626389	-1.385022	-0.024385
H72	H	-0.126389	-0.885022	0.475615
N73	N	-0.643325	-1.269388	0.372442
N74	N	-0.143325	-0.769388	0.872442
H75	H	-0.709770	-1.338696	0.365664
H76	H	-0.209770	-0.838696	0.865664
H77	H	-0.556845	-1.282493	0.423970
H78	H	-0.056845	-0.782493	0.923970
N79	N	-0.359842	-1.198900	0.018478
N80	N	0.140158	-0.698900	0.518478
H81	H	-0.247880	-1.198660	0.015776
H82	H	0.252120	-0.698660	0.515776
H83	H	-0.400557	-1.181895	-0.057777
H84	H	0.099443	-0.681895	0.442223
H85	H	-0.373152	-1.264727	0.344722
H86	H	0.126848	-0.764727	0.844722
N87	N	-0.640618	-1.554238	0.105191
N88	N	-0.140618	-1.054238	0.605191
H89	H	-0.702894	-1.520728	0.045672
H90	H	-0.202894	-1.020728	0.545672
H91	H	-0.553159	-1.596006	0.067247
H92	H	-0.053159	-1.096006	0.567247
H93	H	-0.625556	-1.481308	0.277805
H94	H	-0.125556	-0.981308	0.777805
N95	N	-0.359377	-1.554182	0.103499
N96	N	0.140623	-1.054182	0.603499
H97	H	-0.293748	-1.520665	0.046017
H98	H	0.206252	-1.020665	0.546017
H99	H	-0.301055	-1.611560	0.143397
H100	H	0.198945	-1.111560	0.643397
H101	H	-0.629166	-1.232586	0.018954
H102	H	-0.129166	-0.732586	0.518954
N103	N	-0.356465	-1.489463	0.304073
N104	N	0.143535	-0.989463	0.804073
H105	H	-0.290244	-1.426034	0.338595
H106	H	0.209756	-0.926034	0.838595
H107	H	-0.442974	-1.499082	0.356656
H108	H	0.057026	-0.999082	0.856656
