data_functionalizedCrystal
_audit_creation_method	'MofGen! by Chris Wilmer'
_symmetry_space_group_name_H-M	'P1'
_symmetry_Int_Tables_number	1
_symmetry_cell_setting	triclinic
loop_
_symmetry_equiv_pos_as_xyz
  x,y,z
_cell_length_a	17.000371
_cell_length_b	17.038272
_cell_length_c	9.730217
_cell_angle_alpha	89.996329
_cell_angle_beta	89.998196
_cell_angle_gamma	83.355402
loop_
_atom_site_label
_atom_site_type_symbol
_atom_site_fract_x
_atom_site_fract_y
_atom_site_fract_z
O1	O	1.057998	0.028041	-0.114296
O2	O	0.828178	0.056286	-0.114298
O3	O	0.941722	-0.071558	-0.114286
O4	O	0.944454	0.155886	-0.114308
O5	O	0.941718	-0.071559	0.114294
O6	O	0.828174	0.056285	0.114282
O7	O	1.057994	0.028041	0.114284
Zn8	Zn	0.943083	0.042163	0.150575
Zn9	Zn	0.943088	0.042164	-0.150589
O10	O	0.944450	0.155885	0.114272
C11	C	0.798625	0.057803	-0.000008
C12	C	0.710572	0.062314	-0.000009
C13	C	0.673845	-0.007108	0.000000
C14	C	0.591110	-0.002864	-0.000010
C15	C	0.545102	0.070802	-0.000019
C16	C	0.581834	0.140229	-0.000033
C17	C	0.664568	0.135985	-0.000032
C18	C	0.295066	0.087196	-0.000030
C19	C	0.212327	0.091434	-0.000027
C20	C	0.221608	-0.051659	-0.000006
C21	C	0.304344	-0.055897	0.000002
C22	C	0.341068	0.013530	-0.000018
C23	C	0.460533	0.075141	-0.000026
C24	C	0.425636	0.009190	-0.000022
C25	C	0.939235	-0.100516	0.000004
C26	C	0.931823	-0.186802	0.000003
C27	C	0.999881	-0.241577	0.000005
C28	C	0.992911	-0.322650	-0.000008
C29	C	0.917882	-0.348946	-0.000013
C30	C	0.849819	-0.294164	-0.000019
C31	C	0.856789	-0.213093	-0.000016
C32	C	0.893256	-0.593018	-0.000032
C33	C	0.886291	-0.674096	-0.000031
C34	C	1.029384	-0.702577	-0.000023
C35	C	1.036348	-0.621502	-0.000011
C36	C	0.968285	-0.566727	-0.000024
C37	C	0.910756	-0.431816	-0.000022
C38	C	0.975411	-0.483859	-0.000025
C39	C	1.087547	0.026524	-0.000009
C40	C	1.175600	0.022013	-0.000018
C41	C	0.946936	0.184843	-0.000021
C42	C	0.954349	0.271129	-0.000029
N43	N	0.943086	0.042161	0.356111
N44	N	0.943092	0.042159	-0.356126
C45	C	1.043675	-0.071017	0.356113
C46	C	1.093975	-0.127605	0.428053
C47	C	1.093983	-0.127606	0.571933
C48	C	1.043684	-0.071015	0.643875
C49	C	0.993384	-0.014427	0.571935
C50	C	0.993383	-0.014431	0.428052
C51	C	0.892792	0.098746	0.571934
C52	C	0.892787	0.098752	0.428054
C53	C	0.842493	0.155337	0.643877
C54	C	0.792196	0.211930	0.571936
C55	C	0.792190	0.211929	0.428048
C56	C	0.842487	0.155340	0.356114
H57	H	0.341798	-0.115883	0.000016
C58	C	1.110567	-0.509873	-0.000011
C59	C	1.118822	-0.592599	-0.000017
H60	H	1.161485	-0.492031	-0.000004
H61	H	1.082318	-0.490738	-0.079715
H62	H	1.082312	-0.490746	0.079707
H63	H	1.147073	-0.611726	-0.079740
H64	H	1.147084	-0.611742	0.079696
H65	H	0.324957	0.143728	-0.000056
H66	H	0.191698	-0.108182	-0.000005
C67	C	1.138707	-0.177801	0.207491
C68	C	1.149309	-0.189768	0.348972
H69	H	1.172885	-0.216165	0.158676
H70	H	1.085284	-0.182703	0.183887
H71	H	1.150777	-0.126423	0.183958
H72	H	1.137234	-0.241144	0.372507
H73	H	1.202745	-0.184873	0.372585
C74	C	1.082239	-0.839500	-0.000038
C75	C	1.104196	-0.762787	-0.000027
H76	H	1.128428	-0.876670	-0.000054
H77	H	1.051707	-0.846937	0.079670
H78	H	1.051699	-0.846922	-0.079753
H79	H	1.134731	-0.755363	0.079693
H80	H	1.134740	-0.755346	-0.079743
H81	H	1.043687	-0.071025	0.761030
C82	C	1.193413	-0.239484	0.557498
C83	C	1.149268	-0.189810	0.651018
H84	H	1.227545	-0.277884	0.606325
H85	H	1.158543	-0.265231	0.501390
H86	H	1.224101	-0.209025	0.501368
H87	H	1.118576	-0.220269	0.707141
H88	H	1.184143	-0.164062	0.707150
C89	C	0.503469	-0.081114	-0.117516
C90	C	0.550745	-0.079178	-0.000003
H91	H	0.478556	-0.128233	-0.117516
H92	H	0.464228	-0.036644	-0.117515
H93	H	0.535565	-0.079793	-0.197212
H94	H	0.518648	-0.080494	0.079694
H95	H	0.589990	-0.123661	0.000009
C96	C	0.988903	-0.009392	0.150006
C97	C	1.043673	-0.071011	0.197958
H98	H	0.988908	-0.009387	0.052367
H99	H	0.937557	-0.016604	0.182554
H100	H	1.003110	0.039608	0.182562
H101	H	1.029462	-0.120012	0.165411
H102	H	1.095030	-0.063804	0.165396
C103	C	0.745542	-0.637804	-0.000082
C104	C	0.803813	-0.703001	-0.000059
H105	H	0.694627	-0.655652	-0.000109
H106	H	0.751223	-0.606779	0.079626
H107	H	0.751250	-0.606772	-0.079796
H108	H	0.798108	-0.734030	0.079661
H109	H	0.798129	-0.734039	-0.079776
C110	C	0.450888	0.210272	-0.000026
C111	C	0.531263	0.221205	-0.000038
H112	H	0.419671	0.260265	-0.000016
H113	H	0.439239	0.181578	-0.079729
H114	H	0.439245	0.181568	0.079694
H115	H	0.542909	0.249904	-0.079763
H116	H	0.542918	0.249911	0.079674
C117	C	0.897277	0.093726	0.849988
C118	C	0.842502	0.155340	0.802031
H119	H	0.897285	0.093736	0.947627
H120	H	0.883071	0.044728	0.817460
H121	H	0.948626	0.100938	0.817415
H122	H	0.791152	0.148125	0.834596
H123	H	0.856704	0.204350	0.834573
C124	C	0.818071	-0.485335	-0.117549
C125	C	0.818438	-0.532820	-0.000040
H126	H	0.771876	-0.448174	-0.117555
H127	H	0.863742	-0.458067	-0.117538
H128	H	0.818334	-0.517562	-0.197248
H129	H	0.818182	-0.500593	0.079660
H130	H	0.772755	-0.560089	-0.000038
C131	C	0.747538	0.262175	0.792494
C132	C	0.736913	0.274130	0.651016
H133	H	0.713412	0.300579	0.841315
H134	H	0.735422	0.210826	0.816065
H135	H	0.800986	0.267025	0.816053
H136	H	0.683466	0.269273	0.627455
H137	H	0.749024	0.325492	0.627435
C138	C	0.211457	0.232457	-0.000085
C139	C	0.161752	0.172414	-0.000056
H140	H	0.180233	0.282447	-0.000112
H141	H	0.243916	0.227836	0.079622
H142	H	0.243923	0.227815	-0.079801
H143	H	0.129290	0.177053	0.079665
H144	H	0.129280	0.177038	-0.079771
C145	C	1.140620	-0.277881	-0.000010
C146	C	1.082357	-0.212677	0.000001
H147	H	1.191538	-0.260039	-0.000026
H148	H	1.134928	-0.308910	0.079697
H149	H	1.134916	-0.308906	-0.079726
H150	H	1.088057	-0.181654	0.079722
H151	H	1.088052	-0.181635	-0.079714
H152	H	0.751227	0.258007	0.369481
C153	C	0.725715	-0.294849	-0.117542
C154	C	0.767346	-0.323069	-0.000032
H155	H	0.674801	-0.312698	-0.117550
H156	H	0.720125	-0.238733	-0.117531
H157	H	0.753982	-0.313990	-0.197241
H158	H	0.739082	-0.303923	0.079667
H159	H	0.772932	-0.379196	-0.000030
H160	H	0.801369	-0.168494	-0.000018
H161	H	1.036500	-0.462446	-0.000051
H162	H	0.694469	0.192515	-0.000033
H163	H	0.849667	-0.453235	-0.000024
H164	H	0.463099	-0.050788	-0.000022
C165	C	0.897248	0.093715	0.150013
C166	C	0.842480	0.155336	0.197959
H167	H	0.897239	0.093708	0.052374
H168	H	0.948595	0.100927	0.182546
H169	H	0.883041	0.044716	0.182587
H170	H	0.856690	0.204336	0.165393
H171	H	0.791122	0.148129	0.165412
H172	H	0.711300	-0.067095	0.000014
H173	H	1.048332	-0.367246	-0.000003
H174	H	0.423064	0.135120	-0.000032
