data_functionalizedCrystal
_audit_creation_method	'MofGen! by Chris Wilmer'
_symmetry_space_group_name_H-M	'P1'
_symmetry_Int_Tables_number	1
_symmetry_cell_setting	triclinic
loop_
_symmetry_equiv_pos_as_xyz
  x,y,z
_cell_length_a	6.817900
_cell_length_b	16.418049
_cell_length_c	16.015572
_cell_angle_alpha	77.934069
_cell_angle_beta	104.485554
_cell_angle_gamma	103.389670
loop_
_atom_site_label
_atom_site_type_symbol
_atom_site_fract_x
_atom_site_fract_y
_atom_site_fract_z
V1	V	-3.991464	-0.033756	-0.269482
O2	O	-3.980161	0.086040	-0.264039
O3	O	-3.942731	-0.148123	-0.267939
O4	O	-3.927893	0.003804	-0.386875
O5	O	-3.995101	-0.066939	-0.144280
V6	V	-4.477101	-0.023804	-0.254470
O7	O	-4.248085	-0.055588	-0.302411
O8	O	-4.670677	-0.001973	-0.221541
O9	O	-4.302628	0.090562	-0.256012
O10	O	-4.605801	-0.143600	-0.259913
O11	O	-4.590861	0.009378	-0.379671
O12	O	-4.317465	-0.061364	-0.137077
C13	C	-3.788141	-0.177160	-0.263766
C14	C	-3.829481	-0.270418	-0.263287
C15	C	-4.106096	-0.487922	-0.266521
C16	C	-4.144927	-0.575546	-0.266079
C17	C	-3.781827	-0.569636	-0.257436
C18	C	-3.743001	-0.482013	-0.257884
C19	C	-3.905141	-0.441159	-0.262423
C20	C	-3.982798	-0.616406	-0.261532
C21	C	-4.024899	-0.711412	-0.261053
C22	C	-3.863038	-0.346147	-0.262903
C23	C	-3.769214	0.016638	-0.415478
C24	C	-3.798519	0.046591	-0.511450
C25	C	-4.086378	-0.219271	-0.889781
C26	C	-4.113920	-0.191098	-0.979956
C27	C	-4.037357	-0.045343	-0.954866
C28	C	-4.009798	-0.073503	-0.864687
C29	C	-4.034315	-0.160468	-0.832152
C30	C	-3.957735	-0.014701	-0.807058
C31	C	-3.930190	-0.042859	-0.716886
C32	C	-3.954708	-0.129820	-0.684344
C33	C	-4.006770	-0.188626	-0.741980
C34	C	-3.933233	0.072263	-0.839595
C35	C	-3.881170	0.131066	-0.781966
C36	C	-3.853610	0.102908	-0.691793
C37	C	-3.878128	0.015947	-0.659250
C38	C	-3.801548	0.161714	-0.634156
C39	C	-3.774002	0.133556	-0.543985
C40	C	-3.850582	-0.012212	-0.569079
C41	C	-4.120560	0.119595	-0.260183
C42	C	-4.058457	0.212853	-0.260667
C43	C	-4.139487	-0.074203	-0.108469
C44	C	-4.089421	-0.104152	-0.012497
H45	H	-3.579353	-0.443936	-0.254549
C46	C	-4.427511	-0.666060	-0.345170
C47	C	-4.365816	-0.626953	-0.270574
H48	H	-4.563888	-0.697793	-0.347944
H49	H	-4.336517	-0.702929	-0.342398
H50	H	-4.424001	-0.623977	-0.395759
H51	H	-4.369312	-0.669037	-0.219985
H52	H	-4.456835	-0.590082	-0.273339
C53	C	-3.956954	-0.249526	-0.568842
C54	C	-3.924435	-0.160779	-0.585226
H55	H	-3.938276	-0.268637	-0.507651
H56	H	-3.861199	-0.268249	-0.591057
H57	H	-4.093459	-0.271878	-0.596695
H58	H	-3.787924	-0.138426	-0.557378
H59	H	-4.020193	-0.142047	-0.563001
H60	H	-4.017408	0.025464	-0.981370
C61	C	-4.163811	-0.360521	-0.923608
C62	C	-4.112618	-0.314853	-0.853992
H63	H	-4.179813	-0.419522	-0.901506
H64	H	-4.056992	-0.344480	-0.955524
H65	H	-4.289370	-0.348540	-0.960998
H66	H	-3.987050	-0.326829	-0.816605
H67	H	-4.219445	-0.330901	-0.822061
C68	C	-3.871415	0.246455	-0.498977
C69	C	-3.716763	0.198189	-0.480631
H70	H	-3.836073	0.286360	-0.459867
H71	H	-3.998740	0.210079	-0.492167
H72	H	-3.884288	0.275669	-0.557337
H73	H	-3.703901	0.168970	-0.422273
H74	H	-3.589404	0.234570	-0.487434
C75	C	-4.360514	-0.246675	-1.100066
C76	C	-4.171148	-0.255739	-1.043306
H77	H	-4.395849	-0.286584	-1.139172
H78	H	-4.349838	-0.190860	-1.132345
H79	H	-4.464286	-0.256447	-1.067172
H80	H	-4.067372	-0.245961	-1.076200
H81	H	-4.181810	-0.311567	-1.011024
C82	C	-4.164714	0.070241	-0.979750
C83	C	-3.963509	0.103219	-0.938713
H84	H	-4.183396	0.089349	-1.040941
H85	H	-4.260455	0.088972	-0.957534
H86	H	-4.186731	0.010034	-0.968615
H87	H	-3.941497	0.163426	-0.949842
H88	H	-3.867740	0.084493	-0.960937
C89	C	-3.889380	0.238956	-0.909051
C90	C	-3.854212	0.226655	-0.817734
H91	H	-3.872717	0.297970	-0.931128
H92	H	-4.025747	0.211818	-0.931791
H93	H	-3.793497	0.215432	-0.926161
H94	H	-3.950104	0.250174	-0.800624
H95	H	-3.717824	0.253804	-0.794985
C96	C	-4.207808	-0.356227	-0.271041
C97	C	-4.284317	-0.443012	-0.271517
H98	H	-4.317841	-0.328505	-0.274122
H99	H	-4.146034	-0.332887	-0.319933
H100	H	-4.107685	-0.348432	-0.218735
H101	H	-4.384430	-0.450807	-0.323826
H102	H	-4.346124	-0.466359	-0.222621
H103	H	-3.649823	-0.602911	-0.253739
C104	C	-3.573606	0.297315	-0.636385
C105	C	-3.774628	0.257304	-0.669921
H106	H	-3.557000	0.356329	-0.658460
H107	H	-3.477744	0.273809	-0.653516
H108	H	-3.549759	0.288951	-0.574434
H109	H	-3.798470	0.265662	-0.731873
H110	H	-3.870519	0.280817	-0.652796
H111	H	-3.870519	-0.083026	-0.542587
H112	H	-4.026707	-0.259441	-0.715488
