data_functionalizedCrystal
_audit_creation_method	'MofGen! by Chris Wilmer'
_symmetry_space_group_name_H-M	'P1'
_symmetry_Int_Tables_number	1
_symmetry_cell_setting	triclinic
loop_
_symmetry_equiv_pos_as_xyz
  x,y,z
_cell_length_a	18.050591
_cell_length_b	21.395361
_cell_length_c	21.395355
_cell_angle_alpha	90.021511
_cell_angle_beta	89.969444
_cell_angle_gamma	89.973287
loop_
_atom_site_label
_atom_site_type_symbol
_atom_site_fract_x
_atom_site_fract_y
_atom_site_fract_z
Zn1	Zn	1.135350	0.249578	-0.354349
Zn2	Zn	1.635350	0.749578	0.145651
Zn3	Zn	1.135235	0.354338	-0.249566
Zn4	Zn	1.635235	0.854338	0.250434
Zn5	Zn	1.011149	0.249571	-0.249574
Zn6	Zn	1.511149	0.749571	0.250426
Zn7	Zn	1.011112	0.354314	-0.354295
Zn8	Zn	1.511112	0.854314	0.145705
O9	O	1.073211	0.301950	-0.301946
O10	O	1.573211	0.801950	0.198054
O11	O	1.239260	0.263487	-0.340468
O12	O	1.739260	0.763487	0.159532
O13	O	1.118741	0.340447	-0.161889
O14	O	1.618741	0.840447	0.338111
O15	O	1.027688	0.161894	-0.263499
O16	O	1.527688	0.661894	0.236501
O17	O	1.239175	0.340454	-0.263484
O18	O	1.739175	0.840454	0.236516
O19	O	1.118938	0.161899	-0.340476
O20	O	1.618938	0.661899	0.159524
O21	O	1.027576	0.263475	-0.161895
O22	O	1.527576	0.763475	0.338105
O23	O	0.907219	0.263452	-0.263447
O24	O	1.407219	0.763452	0.236553
O25	O	1.027626	0.340414	-0.441980
O26	O	1.527626	0.840414	0.058020
O27	O	0.907192	0.340407	-0.340385
O28	O	1.407192	0.840407	0.159615
O29	O	1.118903	0.263465	-0.442019
O30	O	1.618903	0.763465	0.057981
O31	O	1.118706	0.442012	-0.263432
O32	O	1.618706	0.942012	0.236568
O33	O	1.027514	0.441995	-0.340376
O34	O	1.527514	0.941995	0.159624
C35	C	1.073113	0.464738	-0.301911
C36	C	1.573113	0.964738	0.198089
C37	C	1.073139	0.534379	-0.301917
C38	C	1.573139	1.034379	0.198083
C39	C	0.880259	0.301927	-0.301911
C40	C	1.380259	0.801927	0.198089
C41	C	0.797713	0.301932	-0.301911
C42	C	1.297713	0.801932	0.198089
C43	C	1.073273	0.301937	-0.465369
C44	C	1.573273	0.801937	0.034631
C45	C	1.073299	0.301932	-0.535011
C46	C	1.573299	0.801932	-0.035011
C47	C	0.598256	0.260035	-0.260169
C48	C	1.098256	0.760035	0.239831
C49	C	0.548830	0.317181	-0.244746
C50	C	1.048830	0.817181	0.255254
C51	C	0.646583	0.301951	-0.301940
C52	C	1.146583	0.801951	0.198060
C53	C	0.548927	0.244826	-0.317361
C54	C	1.048927	0.744826	0.182639
C55	C	0.500598	0.301964	-0.301966
C56	C	1.000598	0.801964	0.198034
C57	C	0.598245	0.359126	-0.286487
C58	C	1.098245	0.859126	0.213513
C59	C	0.598346	0.286732	-0.359129
C60	C	1.098346	0.786732	0.140871
C61	C	0.548943	0.343917	-0.343727
C62	C	1.048943	0.843917	0.156273
C63	C	0.730681	0.301942	-0.301923
C64	C	1.230681	0.801942	0.198077
C65	C	0.416502	0.301979	-0.301983
C66	C	0.916502	0.801979	0.198017
C67	C	1.266917	0.301974	-0.301981
C68	C	1.766917	0.801974	0.198019
C69	C	1.349463	0.301984	-0.301996
C70	C	1.849463	0.801984	0.198004
C71	C	1.073330	0.138527	-0.301995
C72	C	1.573330	0.638527	0.198005
C73	C	1.073381	0.068886	-0.302015
C74	C	1.573381	0.568886	0.197985
C75	C	1.120665	0.567080	-0.261893
C76	C	1.620665	1.067080	0.238107
C77	C	1.120700	0.632516	-0.261907
C78	C	1.620700	1.132516	0.238093
C79	C	1.073195	0.665247	-0.301939
C80	C	1.573195	1.165247	0.198061
C81	C	1.025666	0.632538	-0.341970
C82	C	1.525666	1.132538	0.158030
C83	C	1.025638	0.567104	-0.341959
C84	C	1.525638	1.067104	0.158041
C85	C	1.006327	0.768959	-0.306843
C86	C	1.506327	1.268959	0.193157
C87	C	1.006354	0.834391	-0.306849
C88	C	1.506354	1.334391	0.193151
C89	C	1.073282	0.867068	-0.301975
C90	C	1.573282	1.367068	0.198025
C91	C	1.140185	0.834304	-0.297082
C92	C	1.640185	1.334304	0.202918
C93	C	1.140157	0.768869	-0.297072
C94	C	1.640157	1.268869	0.202928
C95	C	1.073221	0.736200	-0.301955
C96	C	1.573221	1.236200	0.198045
C97	C	1.120849	0.970722	-0.261965
C98	C	1.620849	1.470722	0.238035
C99	C	1.120885	1.036158	-0.261983
C100	C	1.620885	1.536158	0.238017
C101	C	1.025844	1.036180	-0.342043
C102	C	1.525844	1.536180	0.157957
C103	C	1.025815	0.970744	-0.342027
C104	C	1.525815	1.470744	0.157973
C105	C	1.073317	0.938019	-0.301985
C106	C	1.573317	1.438019	0.198015
C107	C	1.120825	0.261863	-0.567745
C108	C	1.620825	0.761863	-0.067745
C109	C	1.120824	0.261836	-0.633181
C110	C	1.620824	0.761836	-0.133181
C111	C	1.073305	0.301889	-0.665879
C112	C	1.573305	0.801889	-0.165879
C113	C	1.025770	0.341961	-0.633136
C114	C	1.525770	0.841961	-0.133136
C115	C	1.025767	0.341983	-0.567702
C116	C	1.525767	0.841983	-0.067702
C117	C	1.067407	0.358304	-0.769541
C118	C	1.567407	0.858304	-0.269541
C119	C	1.067415	0.358284	-0.834974
C120	C	1.567415	0.858284	-0.334974
C121	C	1.073310	0.301823	-0.867700
C122	C	1.573310	0.801823	-0.367700
C123	C	1.079212	0.245381	-0.834985
C124	C	1.579212	0.745381	-0.334985
C125	C	1.079209	0.245402	-0.769550
C126	C	1.579209	0.745402	-0.269550
C127	C	1.073303	0.301870	-0.736831
C128	C	1.573303	0.801870	-0.236831
C129	C	1.120837	0.261721	-0.971387
C130	C	1.620837	0.761721	-0.471387
C131	C	1.120831	0.261693	-1.036824
C132	C	1.620831	0.761693	-0.536824
C133	C	1.025780	0.341824	-1.036778
C134	C	1.525780	0.841824	-0.536778
C135	C	1.025783	0.341847	-0.971343
C136	C	1.525783	0.841847	-0.471343
C137	C	1.073315	0.301796	-0.938651
C138	C	1.573315	0.801796	-0.438651
C139	C	1.073193	0.301918	-0.139158
C140	C	1.573193	0.801918	0.360842
C141	C	1.073310	0.301746	-0.069518
C142	C	1.573310	0.801746	0.430482
H143	H	0.527082	0.330063	-0.196393
H144	H	1.027082	0.830063	0.303607
O145	O	1.172154	1.071427	-0.218812
O146	O	1.672154	1.571427	0.281188
H147	H	1.209944	1.101188	-0.246892
H148	H	1.709944	1.601188	0.253108
O149	O	0.626810	0.423144	-0.269139
O150	O	1.126810	0.923144	0.230861
H151	H	0.688298	0.422629	-0.269238
H152	H	1.188298	0.922629	0.230762
H153	H	0.987062	0.374611	-0.541050
H154	H	1.487062	0.874611	-0.041050
O155	O	0.626953	0.213138	-0.213330
O156	O	1.126953	0.713138	0.286670
H157	H	0.579499	0.190111	-0.189710
H158	H	1.079499	0.690111	0.310290
O159	O	0.520422	0.390927	-0.390529
O160	O	1.020422	0.890927	0.109471
H161	H	0.540276	0.438285	-0.377589
H162	H	1.040276	0.938285	0.122411
O163	O	1.212309	0.733526	-0.291799
O164	O	1.712309	1.233526	0.208201
H165	H	1.248753	0.746031	-0.331676
H166	H	1.748753	1.246031	0.168324
O167	O	0.627189	0.269650	-0.423156
O168	O	1.127189	0.769650	0.076844
H169	H	0.607476	0.222181	-0.435842
H170	H	1.107476	0.722181	0.064158
H171	H	0.987082	0.374430	-1.063400
H172	H	1.487082	0.874430	-0.563400
O173	O	1.061047	0.419208	-0.734250
O174	O	1.561047	0.919208	-0.234250
H175	H	1.062028	0.409741	-0.683254
H176	H	1.562028	0.909741	-0.183254
H177	H	1.062614	0.404243	-0.861606
H178	H	1.562614	0.904243	-0.361606
O179	O	0.520232	0.180828	-0.334634
O180	O	1.020232	0.680828	0.165366
H181	H	0.539991	0.146120	-0.299882
H182	H	1.039991	0.646120	0.200118
O183	O	1.171906	0.531782	-0.218716
O184	O	1.671906	1.031782	0.281284
H185	H	1.204966	0.565519	-0.190892
H186	H	1.704966	1.065519	0.309108
O187	O	1.171955	0.667799	-0.218732
O188	O	1.671955	1.167799	0.281268
H189	H	1.204976	0.634050	-0.190884
H190	H	1.704976	1.134050	0.309116
H191	H	0.951876	0.861063	-0.310827
H192	H	1.451876	1.361063	0.189173
O193	O	1.212381	0.869535	-0.291831
O194	O	1.712381	1.369535	0.208169
H195	H	1.201166	0.920540	-0.292669
H196	H	1.701166	1.420540	0.207331
H197	H	1.159530	0.944076	-0.229362
H198	H	1.659530	1.444076	0.270638
O199	O	0.974609	1.071477	-0.385221
O200	O	1.474609	1.571477	0.114779
H201	H	0.941556	1.037741	-0.413052
H202	H	1.441556	1.537741	0.086948
H203	H	0.987112	0.944117	-0.374616
H204	H	1.487112	1.444117	0.125384
H205	H	0.951822	0.742360	-0.310814
H206	H	1.451822	1.242360	0.189186
H207	H	0.987077	0.374571	-0.659764
H208	H	1.487077	0.874571	-0.159764
O209	O	0.974500	0.385056	-0.936041
O210	O	1.474500	0.885056	-0.436041
H211	H	0.987186	0.434233	-0.948596
H212	H	1.487186	0.934233	-0.448596
O213	O	0.974419	0.667836	-0.385141
O214	O	1.474419	1.167836	0.114859
H215	H	0.982414	0.718831	-0.378418
H216	H	1.482414	1.218831	0.121582
H217	H	0.986936	0.540478	-0.374552
H218	H	1.486936	1.040478	0.125448
O219	O	1.172087	0.218665	-0.532483
O220	O	1.672087	0.718665	-0.032483
H221	H	1.205132	0.190795	-0.566244
H222	H	1.705132	0.690795	-0.066244
H223	H	1.159524	0.229203	-0.659839
H224	H	1.659524	0.729203	-0.159839
O225	O	1.085570	0.184531	-0.734262
O226	O	1.585570	0.684531	-0.234262
H227	H	1.089667	0.145264	-0.768006
H228	H	1.589667	0.645264	-0.268006
H229	H	1.084013	0.199405	-0.861628
H230	H	1.584013	0.699405	-0.361628
H231	H	1.159537	0.229106	-0.944768
H232	H	1.659537	0.729106	-0.444768
H233	H	1.159531	0.229060	-1.063475
H234	H	1.659531	0.729060	-0.563475
