data_functionalizedCrystal
_audit_creation_method	'MofGen! by Chris Wilmer'
_symmetry_space_group_name_H-M	'P1'
_symmetry_Int_Tables_number	1
_symmetry_cell_setting	triclinic
loop_
_symmetry_equiv_pos_as_xyz
  x,y,z
_cell_length_a	16.109301
_cell_length_b	16.992695
_cell_length_c	15.186229
_cell_angle_alpha	89.995943
_cell_angle_beta	89.999362
_cell_angle_gamma	87.064852
loop_
_atom_site_label
_atom_site_type_symbol
_atom_site_fract_x
_atom_site_fract_y
_atom_site_fract_z
O1	O	1.109856	0.100784	-0.073174
O2	O	0.868631	0.113326	-0.073188
O3	O	0.988276	-0.007088	-0.073174
O4	O	0.990210	0.221197	-0.073188
O5	O	0.988268	-0.007089	0.073284
O6	O	0.868622	0.113324	0.073270
O7	O	1.109847	0.100782	0.073284
Zn8	Zn	0.989233	0.107053	0.096530
Zn9	Zn	0.989245	0.107055	-0.096434
O10	O	0.990202	0.221196	0.073270
C11	C	0.837618	0.112817	0.000039
C12	C	0.745221	0.111294	0.000034
C13	C	0.527480	0.179203	0.000040
C14	C	0.440664	0.177766	0.000046
C15	C	0.451005	0.034899	0.000051
C16	C	0.537819	0.036337	0.000051
C17	C	0.576055	0.108492	0.000042
C18	C	0.402424	0.105616	0.000047
C19	C	0.308294	0.104057	0.000053
C20	C	0.670191	0.110051	0.000037
C21	C	0.985784	-0.036300	0.000055
C22	C	0.978361	-0.123343	0.000054
C23	C	1.049987	-0.173601	0.000059
C24	C	1.043007	-0.255386	0.000050
C25	C	0.964400	-0.286911	0.000043
C26	C	0.892768	-0.236645	0.000035
C27	C	0.899749	-0.154862	0.000038
C28	C	0.935467	-0.530501	0.000029
C29	C	0.928491	-0.612291	0.000029
C30	C	1.078731	-0.631026	0.000043
C31	C	1.085704	-0.549240	0.000051
C32	C	1.014073	-0.498982	0.000038
N33	N	0.957263	-0.370508	0.000037
N34	N	1.021210	-0.415387	0.000038
C35	C	1.140860	0.101291	0.000055
C36	C	1.233257	0.102814	0.000054
C37	C	0.992694	0.250408	0.000039
C38	C	1.000118	0.337451	0.000034
N39	N	0.989232	0.107051	0.228223
N40	N	0.989253	0.107051	-0.228127
C41	C	1.042231	0.053750	0.453952
C42	C	1.042234	0.053748	0.546141
C43	C	0.936247	0.160355	0.546138
C44	C	0.936241	0.160352	0.453950
C45	C	0.989238	0.107051	0.407859
C46	C	0.989246	0.107051	0.592237
C47	C	0.989249	0.107050	0.692193
C48	C	0.989235	0.107051	0.307897
H49	H	0.401118	0.235347	0.000046
O50	O	0.865949	-0.481605	0.000140
C51	C	0.865475	-0.433754	0.076000
H52	H	0.931738	-0.429638	0.101294
H53	H	0.825711	-0.460651	0.129112
C54	C	0.747774	-0.355766	0.021888
C55	C	0.829161	-0.350705	0.052949
H56	H	0.725371	-0.304539	0.007671
H57	H	0.748091	-0.388006	-0.029220
H58	H	0.714648	-0.378184	0.066153
H59	H	0.862288	-0.328298	0.008681
H60	H	0.828849	-0.318459	0.104049
H61	H	1.085384	0.010345	0.583667
H62	H	0.828765	-0.262319	0.000023
H63	H	1.113997	-0.147941	0.000071
H64	H	0.893100	0.203753	0.583674
H65	H	0.893084	0.203756	0.416419
H66	H	1.137048	-0.671954	0.000051
O67	O	1.162000	-0.518490	0.000088
C68	C	1.152802	-0.435528	0.000065
H69	H	1.089197	-0.416309	0.027793
H70	H	1.158343	-0.412760	-0.070198
C71	C	1.299308	-0.425230	0.023444
C72	C	1.221191	-0.401624	0.057507
H73	H	1.341496	-0.404316	0.058873
H74	H	1.305507	-0.481123	0.023456
H75	H	1.303914	-0.406255	-0.035108
H76	H	1.216582	-0.420608	0.116053
H77	H	1.214993	-0.345734	0.057506
O78	O	0.852064	-0.642784	-0.000027
C79	C	0.790336	-0.580889	-0.000019
H80	H	0.817335	-0.525334	-0.027740
H81	H	0.767966	-0.569316	0.070239
C82	C	0.683497	-0.672191	-0.023424
C83	C	0.716655	-0.603959	-0.057479
H84	H	0.638044	-0.686422	-0.058864
H85	H	0.725083	-0.713892	-0.023426
H86	H	0.664861	-0.662538	0.035124
H87	H	0.735299	-0.613616	-0.116021
H88	H	0.675070	-0.562260	-0.057488
H89	H	1.101332	-0.296304	0.000056
O90	O	0.413727	-0.035119	0.000014
C91	C	0.326686	-0.021228	0.000033
H92	H	0.310386	0.039967	-0.027696
H93	H	0.302292	-0.025026	0.070295
C94	C	0.306597	-0.158748	-0.023346
C95	C	0.286577	-0.083590	-0.057410
H96	H	0.281854	-0.197217	-0.058776
H97	H	0.365238	-0.168108	-0.023355
H98	H	0.286268	-0.161902	0.035205
H99	H	0.306915	-0.080434	-0.115955
H100	H	0.227938	-0.074231	-0.057412
H101	H	0.558608	0.237956	0.000039
O102	O	0.584887	-0.032429	0.000013
C103	C	0.532526	-0.096422	0.000036
H104	H	0.469125	-0.076509	-0.027695
H105	H	0.524882	-0.118541	0.070299
C106	C	0.649168	-0.187802	-0.023337
C107	C	0.571301	-0.163347	-0.057403
H108	H	0.673087	-0.229086	-0.058764
H109	H	0.684446	-0.144690	-0.023349
H110	H	0.642788	-0.206230	0.035216
H111	H	0.577684	-0.144911	-0.115950
H112	H	0.536025	-0.206458	-0.057402
H113	H	0.841423	-0.113942	0.000033
O114	O	1.093730	0.001894	0.409315
C115	C	1.140517	-0.045138	0.469771
H116	H	1.106376	-0.046029	0.535488
H117	H	1.203970	-0.019664	0.479567
C118	C	1.193963	-0.128628	0.353087
C119	C	1.152026	-0.129727	0.433800
H120	H	1.201066	-0.180805	0.330899
H121	H	1.162445	-0.096940	0.312356
H122	H	1.246836	-0.107395	0.361262
H123	H	1.099151	-0.150949	0.425623
H124	H	1.183536	-0.161420	0.474530
