data_functionalizedCrystal
_audit_creation_method	'MofGen! by Chris Wilmer'
_symmetry_space_group_name_H-M	'P1'
_symmetry_Int_Tables_number	1
_symmetry_cell_setting	triclinic
loop_
_symmetry_equiv_pos_as_xyz
  x,y,z
_cell_length_a	14.044220
_cell_length_b	10.489716
_cell_length_c	13.101039
_cell_angle_alpha	93.400284
_cell_angle_beta	86.340132
_cell_angle_gamma	88.859007
loop_
_atom_site_label
_atom_site_type_symbol
_atom_site_fract_x
_atom_site_fract_y
_atom_site_fract_z
O1	O	1.264950	0.301303	-0.085088
O2	O	0.988908	0.290196	-0.085115
O3	O	1.133223	0.110788	-0.085105
O4	O	1.120635	0.480711	-0.085099
O5	O	1.122868	0.123683	0.085324
O6	O	0.978553	0.303092	0.085314
O7	O	1.254596	0.314199	0.085341
Zn8	Zn	1.114931	0.310693	0.112387
Zn9	Zn	1.128573	0.293702	-0.112161
O10	O	1.110281	0.493607	0.085331
C11	C	0.948383	0.291782	0.000096
C12	C	0.843060	0.277282	0.000086
C13	C	0.650219	0.250775	0.000105
C14	C	0.593280	0.353613	0.000112
C15	C	0.485976	0.338865	0.000123
C16	C	0.757532	0.265522	0.000094
C17	C	1.127100	0.069607	0.000107
C18	C	1.124271	-0.072311	0.000097
C19	C	1.212769	-0.161008	0.000115
C20	C	1.171109	-0.249470	-0.083917
C21	C	1.160880	-0.236722	0.084112
C22	C	1.082653	-0.158910	-0.084005
C23	C	1.072432	-0.146149	0.084101
C24	C	1.030709	-0.234571	0.000048
C25	C	1.295120	0.312612	0.000128
C26	C	1.400444	0.327112	0.000131
C27	C	1.116404	0.534787	0.000117
C28	C	1.119233	0.676705	0.000120
N29	N	1.105627	0.322288	0.265635
N30	N	1.137884	0.282097	-0.265409
C31	C	1.092970	0.338076	0.474676
C32	C	1.150539	0.266313	0.525556
C33	C	1.143496	0.275098	0.641874
C34	C	1.100011	0.329293	0.358348
H35	H	1.289752	-0.128530	0.000037
C36	C	1.224275	0.174409	0.466394
C37	C	1.231261	0.165573	0.348394
C38	C	1.304998	0.073678	0.289226
C39	C	1.371748	-0.009380	0.348059
C40	C	1.364764	-0.000547	0.466066
C41	C	1.291028	0.091347	0.525234
H42	H	1.181847	0.227061	0.304836
H43	H	1.310167	0.067140	0.201869
H44	H	1.426332	-0.077407	0.304259
H45	H	1.414179	-0.062035	0.509623
H46	H	1.285858	0.097886	0.612590
C47	C	0.607210	0.116876	0.000099
C48	C	0.536650	0.082714	0.088597
C49	C	0.493628	-0.051183	0.088586
C50	C	0.521164	-0.150917	0.000076
C51	C	0.591727	-0.116758	-0.088428
C52	C	0.634750	0.017139	-0.088417
H53	H	0.516263	0.156546	0.154123
H54	H	0.441392	-0.076469	0.154103
H55	H	0.489316	-0.250036	0.000068
H56	H	0.612114	-0.190589	-0.153954
H57	H	0.686985	0.042426	-0.153934
H58	H	0.625122	0.452733	0.000108
H59	H	1.049635	-0.124774	-0.155126
C60	C	1.227402	-0.310378	-0.179885
C61	C	1.334544	-0.284890	-0.198340
C62	C	1.390843	-0.345790	-0.294305
C63	C	1.340000	-0.432179	-0.371814
C64	C	1.232852	-0.457671	-0.353361
C65	C	1.176553	-0.396771	-0.257397
H66	H	1.372187	-0.220936	-0.140961
H67	H	1.470161	-0.326918	-0.307964
H68	H	1.381675	-0.477261	-0.442852
H69	H	1.195209	-0.521625	-0.410740
H70	H	1.097235	-0.415643	-0.243737
H71	H	1.193942	-0.271028	0.155153
C72	C	0.926645	-0.278150	-0.000018
C73	C	0.865287	-0.246837	-0.088985
C74	C	0.761226	-0.290420	-0.089057
C75	C	0.718523	-0.365316	-0.000161
C76	C	0.779883	-0.396633	0.088813
C77	C	0.883944	-0.353050	0.088884
H78	H	0.896897	-0.191391	-0.154797
H79	H	0.715804	-0.267236	-0.154922
H80	H	0.641491	-0.397579	-0.000214
H81	H	0.748272	-0.452080	0.154625
H82	H	0.929366	-0.376234	0.154749
H83	H	1.030790	-0.101042	0.155141
H84	H	1.038398	0.406108	0.518470
