data_functionalizedCrystal
_audit_creation_method	'MofGen! by Chris Wilmer'
_symmetry_space_group_name_H-M	'P1'
_symmetry_Int_Tables_number	1
_symmetry_cell_setting	triclinic
loop_
_symmetry_equiv_pos_as_xyz
  x,y,z
_cell_length_a	12.503572
_cell_length_b	14.044220
_cell_length_c	14.044220
_cell_angle_alpha	86.811122
_cell_angle_beta	93.843168
_cell_angle_gamma	93.835250
loop_
_atom_site_label
_atom_site_type_symbol
_atom_site_fract_x
_atom_site_fract_y
_atom_site_fract_z
O1	O	-0.089210	-1.282200	0.225116
O2	O	-0.089237	-1.005530	0.216809
O3	O	-0.089213	-1.139712	0.082627
O4	O	-0.089234	-1.148019	0.359298
O5	O	0.089427	-1.129622	0.092737
O6	O	0.089403	-0.995440	0.226918
O7	O	0.089430	-1.272110	0.235226
Cu8	Cu	0.105728	-1.132854	0.231995
Cu9	Cu	-0.105535	-1.144786	0.220040
O10	O	0.089406	-1.137929	0.369407
C11	C	0.000080	-0.964864	0.218228
C12	C	0.000070	-0.858721	0.207383
N13	N	0.254319	-1.124469	0.240404
N14	N	-0.254126	-1.153179	0.211624
C15	C	0.473432	-1.112134	0.252782
C16	C	0.526768	-1.165511	0.199249
C17	C	0.648690	-1.158648	0.206136
C18	C	0.351499	-1.118996	0.245896
C19	C	0.000107	-1.131031	0.052060
C20	C	0.000107	-1.120187	-0.054082
C21	C	0.000111	-1.312777	0.233807
C22	C	0.000114	-1.418920	0.244651
C23	C	0.000092	-0.664382	0.187558
C24	C	0.000091	-0.613253	0.264472
C25	C	0.000104	-0.505116	0.253441
C26	C	0.000080	-0.772529	0.198587
C27	C	0.000090	-1.100361	-0.248421
C28	C	0.000094	-1.177275	-0.299551
C29	C	0.000084	-1.166244	-0.407687
C30	C	0.000099	-1.111391	-0.140274
C31	C	0.000084	-1.146609	0.399974
C32	C	0.000077	-1.157454	0.506117
H33	H	0.519330	-1.061285	0.303783
H34	H	0.000081	-0.650692	0.338605
C35	C	0.000094	-0.613813	0.087412
C36	C	0.000098	-0.504105	0.076381
C37	C	0.000094	-0.453522	-0.023764
C38	C	0.000086	-0.512647	-0.112876
C39	C	0.000082	-0.622361	-0.101847
C40	C	0.000086	-0.672944	-0.001703
H41	H	0.000104	-0.460331	0.142350
H42	H	0.000097	-0.372304	-0.031928
H43	H	0.000083	-0.475202	-0.187009
H44	H	0.000077	-0.666135	-0.167816
H45	H	0.000084	-0.754162	0.006461
C46	C	0.000078	-1.000216	-0.298991
C47	C	0.000070	-0.989185	-0.408700
C48	C	0.000060	-0.889041	-0.459283
C49	C	0.000057	-0.799929	-0.400159
C50	C	0.000065	-0.810958	-0.290444
C51	C	0.000075	-0.911102	-0.239861
H52	H	0.000072	-1.055153	-0.452473
H53	H	0.000054	-0.880878	-0.540502
H54	H	0.000050	-0.725797	-0.437604
H55	H	0.000063	-0.744990	-0.246671
H56	H	0.000081	-0.919265	-0.158642
H57	H	0.000029	-1.251413	-0.262115
H58	H	0.480864	-1.216364	0.148245
