data_functionalizedCrystal
_audit_creation_method	'MofGen! by Chris Wilmer'
_symmetry_space_group_name_H-M	'P1'
_symmetry_Int_Tables_number	1
_symmetry_cell_setting	triclinic
loop_
_symmetry_equiv_pos_as_xyz
  x,y,z
_cell_length_a	16.992695
_cell_length_b	16.053802
_cell_length_c	16.992695
_cell_angle_alpha	87.249318
_cell_angle_beta	89.331777
_cell_angle_gamma	87.244454
loop_
_atom_site_label
_atom_site_type_symbol
_atom_site_fract_x
_atom_site_fract_y
_atom_site_fract_z
O1	O	1.047732	0.069398	-0.170021
O2	O	0.819332	0.069407	-0.168190
O3	O	0.932616	0.069396	-0.054905
O4	O	0.934447	0.069409	-0.283306
O5	O	0.938846	-0.069464	-0.048689
O6	O	0.825561	-0.069453	-0.161974
O7	O	1.053961	-0.069462	-0.163805
Zn8	Zn	0.940750	-0.091504	-0.161903
Zn9	Zn	0.932543	0.091449	-0.170092
O10	O	0.940677	-0.069451	-0.277090
C11	C	0.793086	-0.000022	-0.162726
C12	C	0.705601	-0.000019	-0.155698
C13	C	1.080207	-0.000031	-0.169269
C14	C	1.167691	-0.000029	-0.176298
C15	C	0.933375	-0.000034	-0.022437
C16	C	0.926347	-0.000033	0.065047
N17	N	0.946357	-0.216365	-0.156313
C18	C	1.213682	-0.000030	-0.108480
C19	C	1.295883	-0.000033	-0.115088
C20	C	1.332091	-0.000028	-0.189516
C21	C	1.286094	-0.000030	-0.257339
C22	C	1.203895	-0.000033	-0.250729
C23	C	1.577405	-0.000023	-0.216911
C24	C	1.659610	-0.000018	-0.223516
C25	C	1.669394	-0.000022	-0.081264
C26	C	1.587192	-0.000020	-0.074661
C27	C	1.541203	-0.000026	-0.142484
N28	N	1.416113	-0.000028	-0.196273
N29	N	1.457182	-0.000032	-0.135726
N30	N	0.926941	0.216310	-0.175676
C31	C	0.975249	0.259999	-0.127578
C32	C	0.971329	0.347407	-0.131482
C33	C	0.919097	0.391123	-0.183480
C34	C	0.870787	0.347427	-0.231584
C35	C	0.874712	0.260022	-0.227684
C36	C	0.901972	0.652534	-0.200516
C37	C	0.898050	0.739946	-0.204412
C38	C	0.998593	0.739919	-0.104310
C39	C	1.002510	0.652512	-0.100410
C40	C	0.954203	0.608824	-0.148517
N41	N	0.915087	0.480467	-0.187470
N42	N	0.958218	0.519481	-0.144531
C43	C	0.939917	-0.000019	-0.309558
C44	C	0.946946	-0.000014	-0.397043
C45	C	0.994165	-0.000037	0.111039
C46	C	0.987555	-0.000029	0.193239
C47	C	0.913128	-0.000023	0.229447
C48	C	0.845304	-0.000017	0.183450
C49	C	0.851914	-0.000019	0.101251
C50	C	0.885732	-0.000010	0.474761
C51	C	0.879128	-0.000011	0.556966
C52	C	1.021380	-0.000021	0.566750
C53	C	1.027983	-0.000028	0.484549
C54	C	0.960160	-0.000018	0.438558
N55	N	0.906370	-0.000017	0.313469
N56	N	0.966918	-0.000017	0.354538
H57	H	1.333326	-0.000037	-0.059863
H58	H	1.076597	-0.000028	0.604203
H59	H	1.166450	-0.000035	-0.305954
H60	H	1.088590	-0.000033	0.455074
H61	H	1.010665	0.382978	-0.092317
O62	O	1.532707	-0.000164	-0.282760
C63	C	1.437416	-0.072064	-0.354620
C64	C	1.488014	-0.072024	-0.280016
H65	H	1.401256	-0.130147	-0.352418
H66	H	1.477377	-0.072107	-0.408978
H67	H	1.396113	-0.013925	-0.357670
H68	H	1.529323	-0.130153	-0.276890
H69	H	1.448005	-0.071937	-0.225694
H70	H	0.818517	-0.000020	0.586444
O71	O	1.053329	0.610178	-0.049892
C72	C	1.152630	0.619378	0.048994
C73	C	1.095122	0.667425	-0.008193
H74	H	1.186423	0.665641	0.082735
H75	H	1.195897	0.578495	0.014292
H76	H	1.118096	0.578418	0.092334
H77	H	1.129590	0.708430	-0.051545
H78	H	1.051855	0.708255	0.026561
O79	O	1.066524	-0.000003	0.075994
C80	C	1.206921	-0.000051	0.094385
C81	C	1.125021	-0.000075	0.134170
H82	H	1.254239	-0.000126	0.141403
H83	H	1.211014	0.058075	0.053567
H84	H	1.216140	-0.058150	0.058726
H85	H	1.115747	0.057985	0.169870
H86	H	1.120966	-0.058239	0.174943
O87	O	1.321295	0.000120	-0.329628
C88	C	1.405227	0.072041	-0.422848
C89	C	1.365395	0.071983	-0.340969
H90	H	1.440904	0.130126	-0.432037
H91	H	1.358265	0.072092	-0.470222
H92	H	1.446044	0.013904	-0.426880
H93	H	1.324582	0.130109	-0.336859
H94	H	1.412398	0.071888	-0.293633
O95	O	0.772966	-0.000120	0.218533
C96	C	0.652605	-0.072074	0.238576
C97	C	0.734502	-0.072049	0.198787
H98	H	0.621490	-0.130231	0.222640
H99	H	0.616175	-0.013998	0.217378
H100	H	0.659544	-0.072034	0.305222
H101	H	0.727636	-0.072118	0.132137
H102	H	0.770902	-0.130120	0.220049
H103	H	1.184208	-0.000028	-0.047873
O104	O	1.552112	0.000081	-0.002321
C105	C	1.532063	0.072036	0.118045
C106	C	1.571851	0.072011	0.036146
H107	H	1.547994	0.130194	0.149163
H108	H	1.553269	0.013961	0.154470
H109	H	1.465417	0.071994	0.111107
H110	H	1.638501	0.072083	0.043011
H111	H	1.550582	0.130081	-0.000249
O112	O	1.694659	-0.000053	-0.295878
C113	C	1.676284	-0.000003	-0.436278
C114	C	1.636490	0.000014	-0.354382
H115	H	1.629272	0.000069	-0.483601
H116	H	1.717114	-0.058124	-0.440373
H117	H	1.711934	0.058101	-0.445487
H118	H	1.600800	-0.058050	-0.345119
H119	H	1.595707	0.058174	-0.350325
H120	H	1.706847	-0.000019	-0.026047
O121	O	0.847293	0.782284	-0.254999
C122	C	0.747957	0.773092	-0.353850
C123	C	0.805412	0.725041	-0.296614
H124	H	0.714068	0.726832	-0.387499
H125	H	0.782458	0.814002	-0.397263
H126	H	0.704766	0.814026	-0.319114
H127	H	0.848615	0.684061	-0.331285
H128	H	0.770859	0.684184	-0.253201
O129	O	1.053407	0.000116	0.237938
C130	C	1.125262	0.072035	0.333221
C131	C	1.050653	0.071981	0.282631
H132	H	1.123053	0.130122	0.369380
H133	H	1.179616	0.072080	0.293254
H134	H	1.128326	0.013900	0.374524
H135	H	1.047513	0.130106	0.241322
H136	H	0.996336	0.071892	0.322645
H137	H	0.796689	-0.000016	0.063805
O138	O	0.819788	0.000101	0.430174
C139	C	0.697016	0.072063	0.393414
C140	C	0.771657	0.072033	0.443966
H141	H	0.658090	0.130223	0.404535
H142	H	0.663197	0.013990	0.409784
H143	H	0.714535	0.072022	0.328450
H144	H	0.754208	0.072104	0.508945
H145	H	0.805457	0.130102	0.427531
O146	O	1.026052	0.217666	-0.077042
C147	C	1.125324	0.226875	0.021871
C148	C	1.067837	0.274917	-0.035339
H149	H	1.159110	0.273142	0.055615
H150	H	1.168599	0.185982	-0.012812
H151	H	1.090775	0.185926	0.065206
H152	H	1.102320	0.315912	-0.078687
H153	H	1.024562	0.315758	-0.000604
H154	H	1.037923	0.775497	-0.065144
H155	H	0.828261	0.383026	-0.273927
O156	O	0.855007	0.610015	-0.247127
C157	C	0.752917	0.511384	-0.252487
C158	C	0.806076	0.559473	-0.199607
H159	H	0.713331	0.470523	-0.214089
H160	H	0.791078	0.470417	-0.292194
H161	H	0.714947	0.557666	-0.290333
H162	H	0.844054	0.513251	-0.161713
H163	H	0.767869	0.600452	-0.159952
H164	H	0.835376	0.224451	-0.266851
