data_functionalizedCrystal
_audit_creation_method	'MofGen! by Chris Wilmer'
_symmetry_space_group_name_H-M	'P1'
_symmetry_Int_Tables_number	1
_symmetry_cell_setting	triclinic
loop_
_symmetry_equiv_pos_as_xyz
  x,y,z
_cell_length_a	6.817900
_cell_length_b	11.102288
_cell_length_c	16.788207
_cell_angle_alpha	97.910958
_cell_angle_beta	90.691162
_cell_angle_gamma	108.605689
loop_
_atom_site_label
_atom_site_type_symbol
_atom_site_fract_x
_atom_site_fract_y
_atom_site_fract_z
V1	V	3.912637	0.175082	0.248302
O2	O	3.875455	-0.009192	0.243575
O3	O	3.890774	0.347908	0.246603
O4	O	3.802673	0.172047	0.356594
O5	O	3.964166	0.167886	0.132822
V6	V	4.400803	0.153081	0.234489
O7	O	4.163709	0.223343	0.278600
O8	O	4.599928	0.104820	0.204191
O9	O	4.199459	-0.019744	0.236187
O10	O	4.555381	0.337356	0.239216
O11	O	4.466671	0.160278	0.349968
O12	O	4.287560	0.156116	0.126196
C13	C	3.744222	0.390050	0.242686
C14	C	3.807223	0.531334	0.242020
C15	C	3.631841	0.165721	0.382990
C16	C	3.623393	0.164383	0.471520
C17	C	4.121722	0.162445	0.099797
C18	C	4.109180	0.163806	0.009603
V19	V	3.830106	0.173177	-0.125086
O20	O	3.764235	0.165978	-0.240565
O21	O	3.943354	0.170145	-0.016793
O22	O	4.031444	0.346004	-0.126785
O23	O	3.675535	-0.011098	-0.129812
V24	V	3.318254	0.151168	-0.138896
O25	O	3.630979	0.221434	-0.094787
O26	O	3.067181	0.102903	-0.169194
O27	O	3.428215	0.154204	-0.247190
O28	O	3.266728	0.158364	-0.023417
O29	O	3.355428	0.335441	-0.134170
O30	O	3.340125	-0.021656	-0.137198
C31	C	4.009355	-0.061879	0.240102
C32	C	3.925589	-0.203163	0.240774
C33	C	4.221548	0.388142	-0.130700
C34	C	4.305308	0.529426	-0.131372
C35	C	4.017647	0.604172	0.245680
C36	C	4.076831	0.736925	0.245060
C37	C	3.715148	0.723991	0.237116
C38	C	3.655967	0.591241	0.237742
C39	C	3.599048	0.160533	-0.273586
C40	C	3.607492	0.161869	-0.362116
C41	C	3.800185	0.170089	0.517168
C42	C	3.792234	0.168828	0.600351
C43	C	3.430684	0.156159	0.592229
C44	C	3.438633	0.157411	0.509047
C45	C	3.486678	-0.063795	-0.133281
C46	C	3.423676	-0.205079	-0.132611
C47	C	4.170782	0.602259	-0.127713
C48	C	4.249493	0.735008	-0.128355
C49	C	4.597264	0.722077	-0.136311
C50	C	4.518552	0.589330	-0.135675
H51	H	4.140813	0.555399	0.249162
H52	H	3.950627	0.175764	0.486616
H53	H	3.280260	0.150485	0.622795
C54	C	3.290334	0.153812	0.377937
C55	C	3.244323	0.151215	0.458870
H56	H	3.170384	0.149998	0.346963
H57	H	3.398623	0.231028	0.373270
H58	H	3.333168	0.082154	0.358688
H59	H	3.201504	0.222878	0.478122
H60	H	3.135999	0.073990	0.463541
C61	C	4.354884	0.910617	0.317733
C62	C	4.308132	0.816990	0.249073
H63	H	4.497688	0.960040	0.320210
H64	H	4.273286	0.965287	0.315091
H65	H	4.325416	0.870015	0.364463
H66	H	4.337586	0.857592	0.202342
H67	H	4.389757	0.762312	0.251708
C68	C	3.940584	0.172523	0.731465
C69	C	3.986570	0.175104	0.650529
H70	H	4.060564	0.176389	0.762441
H71	H	3.897677	0.244144	0.750702
H72	H	3.832344	0.095274	0.736144
H73	H	4.094800	0.252358	0.645850
H74	H	4.029507	0.103477	0.631287
H75	H	3.997150	0.553490	-0.124210
C76	C	4.156285	0.908720	-0.055684
C77	C	4.101623	0.815072	-0.124333
H78	H	4.064997	0.958151	-0.053206
H79	H	4.146375	0.868143	-0.008952
H80	H	4.294549	0.963389	-0.058345
H81	H	3.963364	0.760396	-0.121669
H82	H	4.111513	0.855650	-0.171076
C83	C	4.770740	0.520519	-0.211033
C84	C	4.666436	0.509262	-0.139696
H85	H	4.862038	0.471094	-0.213513
H86	H	4.672817	0.489943	-0.255941
H87	H	4.848131	0.608156	-0.212016
H88	H	4.589032	0.421626	-0.138715
H89	H	4.764372	0.539832	-0.094775
H90	H	3.592008	0.772783	0.233632
H91	H	3.484609	0.531936	0.234764
H92	H	4.770891	0.770868	-0.139811
