data_functionalizedCrystal
_audit_creation_method	'MofGen! by Chris Wilmer'
_symmetry_space_group_name_H-M	'P1'
_symmetry_Int_Tables_number	1
_symmetry_cell_setting	triclinic
loop_
_symmetry_equiv_pos_as_xyz
  x,y,z
_cell_length_a	15.944493
_cell_length_b	15.944545
_cell_length_c	12.503572
_cell_angle_alpha	93.521358
_cell_angle_beta	86.482830
_cell_angle_gamma	83.485608
loop_
_atom_site_label
_atom_site_type_symbol
_atom_site_fract_x
_atom_site_fract_y
_atom_site_fract_z
O1	O	1.119395	0.103241	-0.089311
O2	O	0.874839	0.116648	-0.089317
O3	O	1.003797	-0.012332	-0.089301
O4	O	0.990437	0.232220	-0.089327
O5	O	0.994099	-0.002615	0.089340
O6	O	0.865140	0.126364	0.089324
O7	O	1.109697	0.112957	0.089330
Cu8	Cu	0.986533	0.120548	0.105638
Cu9	Cu	0.998003	0.109057	-0.105625
O10	O	0.980738	0.241936	0.089314
C11	C	0.998394	-0.038767	0.000020
C12	C	0.996734	-0.132013	0.000023
C13	C	0.838695	0.120958	0.000003
C14	C	0.745447	0.119315	0.000001
C15	C	0.911839	-0.402630	-0.000001
C16	C	0.957551	-0.356843	-0.088079
C17	C	0.990815	-0.467657	-0.000007
C18	C	0.948010	-0.347291	0.088046
C19	C	0.993719	-0.302744	0.000009
C20	C	1.036510	-0.423103	-0.088159
C21	C	1.026953	-0.413550	0.088046
C22	C	1.072724	-0.367798	-0.000054
C23	C	0.989140	-0.562660	-0.000018
C24	C	0.995400	-0.207744	0.000012
C25	C	0.509685	0.195235	-0.000008
C26	C	0.454346	0.159085	0.088080
C27	C	0.574725	0.116271	0.000003
C28	C	0.463912	0.149487	-0.088045
C29	C	0.409816	0.113336	0.000001
C30	C	0.520610	0.080146	0.088164
C31	C	0.530184	0.070555	-0.088041
C32	C	0.474876	0.034349	0.000069
C33	C	0.669725	0.117964	0.000006
C34	C	0.314819	0.111637	0.000006
C35	C	1.145841	0.108647	0.000007
C36	C	1.239090	0.110289	0.000002
C37	C	0.986141	0.268372	-0.000010
C38	C	0.987802	0.361617	-0.000020
N39	N	0.978472	0.128629	0.254229
N40	N	1.006070	0.100969	-0.254217
C41	C	0.966614	0.140524	0.473343
C42	C	1.017925	0.089077	0.526676
C43	C	1.011328	0.095696	0.648599
C44	C	0.973211	0.133906	0.351410
H45	H	0.928241	-0.331952	-0.162545
N46	N	0.905284	0.202010	0.530908
N47	N	0.828293	0.200300	0.518466
H48	H	0.784978	0.243725	0.559132
N49	N	0.826525	-0.422262	-0.000083
N50	N	0.773789	-0.392904	0.074771
H51	H	0.713536	-0.406770	0.074711
N52	N	1.083402	-0.464341	-0.181667
N53	N	1.089679	-0.543093	-0.196782
H54	H	1.122796	-0.572220	-0.262820
H55	H	0.421365	0.196483	0.162544
N56	N	1.158118	-0.348391	-0.000120
N57	N	1.210433	-0.376903	-0.075814
H58	H	1.270743	-0.363197	-0.075866
H59	H	1.056234	-0.438456	0.162515
N60	N	0.901072	-0.305923	0.181446
N61	N	0.824093	-0.313024	0.197111
H62	H	0.790935	-0.283807	0.263069
N63	N	0.571571	0.023680	-0.181466
N64	N	0.555117	0.045650	-0.272857
H65	H	0.584346	0.012550	-0.338848
H66	H	0.525303	0.263259	0.000067
H67	H	0.545391	0.050873	0.162710
H68	H	0.459409	-0.033719	0.000127
N69	N	0.432684	0.186268	-0.181453
N70	N	0.441476	0.261545	-0.197131
H71	H	0.419422	0.287528	-0.263096
H72	H	1.066810	0.040063	0.480770
