data_functionalizedCrystal
_audit_creation_method	'MofGen! by Chris Wilmer'
_symmetry_space_group_name_H-M	'P1'
_symmetry_Int_Tables_number	1
_symmetry_cell_setting	triclinic
loop_
_symmetry_equiv_pos_as_xyz
  x,y,z
_cell_length_a	17.077402
_cell_length_b	18.215407
_cell_length_c	18.215398
_cell_angle_alpha	89.979773
_cell_angle_beta	90.026219
_cell_angle_gamma	89.977196
loop_
_atom_site_label
_atom_site_type_symbol
_atom_site_fract_x
_atom_site_fract_y
_atom_site_fract_z
Zn1	Zn	-0.312537	-1.125080	0.416127
Zn2	Zn	-0.443804	-1.124993	0.293059
Zn3	Zn	-0.312556	-1.002013	0.293072
Zn4	Zn	-0.443765	-1.001982	0.416082
O5	O	-0.378166	-1.063517	0.354585
O6	O	-0.329959	-1.228052	0.399815
O7	O	-0.426418	-1.108656	0.190076
O8	O	-0.202707	-1.018387	0.309420
O9	O	-0.426400	-1.227989	0.309397
O10	O	-0.202693	-1.108803	0.399828
O11	O	-0.329991	-1.018303	0.190086
O12	O	-0.329953	-0.899025	0.309377
O13	O	-0.426333	-1.018335	0.519072
O14	O	-0.426351	-0.899002	0.399752
O15	O	-0.329921	-1.108774	0.519105
O16	O	-0.553646	-1.108626	0.309354
O17	O	-0.553617	-1.018251	0.399738
C18	C	-0.378150	-0.872311	0.354561
C19	C	-0.378163	-0.790512	0.354569
C20	C	-0.582114	-1.063446	0.354556
C21	C	-0.669363	-1.063483	0.354568
C22	C	-0.710342	-1.110589	0.307555
C23	C	-0.792323	-1.110625	0.307574
C24	C	-0.833323	-1.063551	0.354602
C25	C	-0.792338	-1.016442	0.401620
C26	C	-0.710359	-1.016410	0.401604
C27	C	-0.963208	-1.016510	0.401648
C28	C	-1.045192	-1.016541	0.401663
C29	C	-1.045172	-1.110725	0.307617
C30	C	-0.963193	-1.110694	0.307602
C31	C	-0.922214	-1.063584	0.354619
C32	C	-0.428435	-0.602325	0.401565
C33	C	-0.428436	-0.525467	0.401573
C34	C	-0.327901	-0.525460	0.307608
C35	C	-0.327896	-0.602318	0.307604
C36	C	-0.378167	-0.640748	0.354581
C37	C	-0.378174	-0.487032	0.354593
C38	C	-0.378175	-0.403699	0.354602
C39	C	-0.378165	-0.724087	0.354574
C40	C	-0.173421	-1.063608	0.354631
C41	C	-0.086172	-1.063647	0.354650
C42	C	-0.378121	-1.063561	0.546538
C43	C	-0.378101	-1.063579	0.628337
C44	C	-0.378179	-0.255470	0.354606
C45	C	-0.378179	-0.337269	0.354606
C46	C	-0.378154	-1.063516	0.163379
C47	C	-0.377952	-1.063640	0.081580
C48	C	-0.428214	-1.110659	0.893394
C49	C	-0.428241	-1.110648	0.816535
C50	C	-0.327837	-1.016554	0.816529
C51	C	-0.327814	-1.016562	0.893386
C52	C	-0.378002	-1.063619	0.931817
C53	C	-0.378052	-1.063600	0.778101
C54	C	-0.378081	-1.063587	0.694767
C55	C	-0.377974	-1.063631	1.015156
H56	H	-0.676966	-1.148920	0.269256
H57	H	-0.469368	-0.494186	0.439833
H58	H	-0.825727	-0.978116	0.439915
H59	H	-0.929845	-0.978151	0.439937
N60	N	-1.089416	-0.965774	0.452391
H61	H	-1.123477	-0.931697	0.422459
H62	H	-1.050968	-0.935979	0.482167
H63	H	-0.286975	-0.978243	0.785229
N64	N	-0.273703	-0.484010	0.256922
H65	H	-0.281341	-0.429491	0.264045
H66	H	-0.285867	-0.497431	0.204348
N67	N	-0.666152	-0.965598	0.452303
H68	H	-0.632090	-0.995473	0.486429
H69	H	-0.704610	-0.935787	0.482048
N70	N	-0.482652	-0.643777	0.452232
H71	H	-0.514495	-0.607771	0.481997
H72	H	-0.450745	-0.675691	0.486340
H73	H	-1.078541	-1.149086	0.269337
H74	H	-0.469129	-1.148953	0.785255
H75	H	-0.469081	-1.148975	0.924682
N76	N	-0.273667	-0.643766	0.256936
H77	H	-0.241823	-0.607760	0.227174
H78	H	-0.305563	-0.675636	0.222823
H79	H	-0.286924	-0.978253	0.924671
H80	H	-0.825684	-1.148984	0.269291
H81	H	-0.929811	-1.149022	0.269304
