data_functionalizedCrystal
_audit_creation_method	'MofGen! by Chris Wilmer'
_symmetry_space_group_name_H-M	'P1'
_symmetry_Int_Tables_number	1
_symmetry_cell_setting	triclinic
loop_
_symmetry_equiv_pos_as_xyz
  x,y,z
_cell_length_a	16.625548
_cell_length_b	12.645330
_cell_length_c	16.625539
_cell_angle_alpha	89.975749
_cell_angle_beta	89.979432
_cell_angle_gamma	90.018760
loop_
_atom_site_label
_atom_site_type_symbol
_atom_site_fract_x
_atom_site_fract_y
_atom_site_fract_z
Zn1	Zn	1.232707	-0.422007	-0.455932
Zn2	Zn	1.732707	0.077993	0.044068
Zn3	Zn	1.232622	-0.599293	-0.321109
Zn4	Zn	1.732622	-0.099293	0.178891
Zn5	Zn	1.097869	-0.422048	-0.321113
Zn6	Zn	1.597869	0.077952	0.178887
Zn7	Zn	1.097851	-0.599232	-0.455899
Zn8	Zn	1.597851	-0.099232	0.044101
O9	O	1.165262	-0.510645	-0.388513
O10	O	1.665262	-0.010645	0.111487
O11	O	1.345528	-0.445533	-0.438060
O12	O	1.845528	0.054467	0.061940
O13	O	1.214718	-0.575824	-0.208277
O14	O	1.714718	-0.075824	0.291723
O15	O	1.115799	-0.273695	-0.339012
O16	O	1.615799	0.226305	0.160988
O17	O	1.345465	-0.575784	-0.339006
O18	O	1.845465	-0.075784	0.160994
O19	O	1.214864	-0.273665	-0.438064
O20	O	1.714864	0.226335	0.061936
O21	O	1.115716	-0.445602	-0.208280
O22	O	1.615716	0.054398	0.291720
O23	O	0.985034	-0.445543	-0.338980
O24	O	1.485034	0.054457	0.161020
O25	O	1.115768	-0.575681	-0.568736
O26	O	1.615768	-0.075681	-0.068736
O27	O	0.985021	-0.575720	-0.438007
O28	O	1.485021	-0.075720	0.061993
O29	O	1.214846	-0.445474	-0.568760
O30	O	1.714846	0.054526	-0.068760
O31	O	1.214701	-0.747632	-0.338973
O32	O	1.714701	-0.247632	0.161027
O33	O	1.115685	-0.747588	-0.438003
O34	O	1.615685	-0.247588	0.061997
C35	C	0.955771	-0.510630	-0.388491
C36	C	1.455771	-0.010630	0.111509
C37	C	0.866150	-0.510649	-0.388500
C38	C	1.366150	-0.010649	0.111500
C39	C	0.537975	-0.510656	-0.388534
C40	C	1.037975	-0.010656	0.111466
C41	C	0.629283	-0.510651	-0.388522
C42	C	1.129283	-0.010651	0.111478
C43	C	0.702059	-0.510653	-0.388517
C44	C	1.202059	-0.010653	0.111483
C45	C	0.793374	-0.510647	-0.388506
C46	C	1.293374	-0.010647	0.111494
C47	C	1.165203	-0.786075	-0.388502
C48	C	1.665203	-0.286075	0.111498
C49	C	1.165252	-0.903905	-0.388524
C50	C	1.665252	-0.403905	0.111476
C51	C	1.103218	-1.071485	-0.451015
C52	C	1.603218	-0.571485	0.048985
C53	C	1.102901	-0.948925	-0.450815
C54	C	1.602901	-0.448925	0.049185
C55	C	1.142250	-0.948498	-0.303549
C56	C	1.642250	-0.448498	0.196451
C57	C	1.141872	-1.071097	-0.303928
C58	C	1.641872	-0.571097	0.196072
C59	C	1.250667	-1.070992	-0.410318
C60	C	1.750667	-0.570992	0.089682
C61	C	1.250144	-0.948386	-0.412177
C62	C	1.750144	-0.448386	0.087823
C63	C	1.375571	-0.510661	-0.388536
C64	C	1.875571	-0.010661	0.111464
C65	C	1.465192	-0.510668	-0.388546
C66	C	1.965192	-0.010668	0.111454
C67	C	1.165315	-0.510566	-0.598822
C68	C	1.665315	-0.010566	-0.098822
C69	C	1.165337	-0.510533	-0.688443
C70	C	1.665337	-0.010533	-0.188443
C71	C	1.165343	-0.234140	-0.388542
C72	C	1.665343	0.265860	0.111458
C73	C	1.165378	-0.116310	-0.388554
C74	C	1.665378	0.383690	0.111446
C75	C	1.165374	-0.510414	-1.016619
C76	C	1.665374	-0.010414	-0.516619
C77	C	1.165362	-0.510450	-0.925311
C78	C	1.665362	-0.010450	-0.425311
C79	C	1.165356	-0.510474	-0.852534
C80	C	1.665356	-0.010474	-0.352534
C81	C	1.165343	-0.510509	-0.761220
C82	C	1.665343	-0.010509	-0.261220
C83	C	1.165256	-0.510647	-0.179022
C84	C	1.665256	-0.010647	0.320978
C85	C	1.165390	-0.510382	-0.089402
C86	C	1.665390	-0.010382	0.410598
H87	H	1.117292	-0.918772	-0.513823
H88	H	1.617292	-0.418772	-0.013823
C89	C	1.273588	-0.908994	-0.496651
C90	C	1.773588	-0.408994	0.003349
H91	H	1.231823	-0.865616	-0.517424
H92	H	1.731823	-0.365616	-0.017424
H93	H	1.281465	-0.967873	-0.531231
H94	H	1.781465	-0.467873	-0.031231
H95	H	1.321937	-0.869165	-0.493409
H96	H	1.821937	-0.369165	0.006591
H97	H	1.117477	-1.100897	-0.514231
H98	H	1.617477	-0.600897	-0.014231
H99	H	1.040384	-1.102387	-0.436781
H100	H	1.540384	-0.602387	0.063219
C101	C	1.316002	-0.907000	-0.355186
C102	C	1.816002	-0.407000	0.144814
H103	H	1.292482	-0.861855	-0.316044
H104	H	1.792482	-0.361855	0.183956
H105	H	1.354882	-0.868634	-0.385249
H106	H	1.854882	-0.368634	0.114751
H107	H	1.341262	-0.964992	-0.329086
H108	H	1.841262	-0.464992	0.170914
C109	C	1.057648	-1.109869	-0.279030
C110	C	1.557648	-0.609869	0.220970
H111	H	1.056675	-1.184988	-0.279039
H112	H	1.556675	-0.684988	0.220961
H113	H	1.018869	-1.083940	-0.316056
H114	H	1.518869	-0.583940	0.183944
H115	H	1.045445	-1.084608	-0.226623
H116	H	1.545445	-0.584608	0.273377
H117	H	1.185181	-1.100752	-0.255803
H118	H	1.685181	-0.600752	0.244197
H119	H	1.296977	-1.099979	-0.364825
H120	H	1.796977	-0.599979	0.135175
C121	C	1.058901	-0.907164	-0.278187
C122	C	1.558901	-0.407164	0.221813
H123	H	1.045517	-0.934588	-0.226683
H124	H	1.545517	-0.434588	0.273317
H125	H	1.019797	-0.929288	-0.316281
H126	H	1.519797	-0.429288	0.183719
H127	H	1.059974	-0.832110	-0.275941
H128	H	1.559974	-0.332110	0.224059
C129	C	1.201464	-0.909103	-0.238957
C130	C	1.701464	-0.409103	0.261043
H131	H	1.240832	-0.864999	-0.263297
H132	H	1.740832	-0.364999	0.236703
H133	H	1.227108	-0.967951	-0.214394
H134	H	1.727108	-0.467951	0.285606
H135	H	1.172980	-0.870031	-0.199335
H136	H	1.672980	-0.370031	0.300665
C137	C	1.017488	-0.909426	-0.431325
C138	C	1.517488	-0.409426	0.068675
H139	H	0.982850	-0.968307	-0.423492
H140	H	1.482850	-0.468307	0.076508
H141	H	0.998113	-0.867701	-0.474710
H142	H	1.498113	-0.367701	0.025290
H143	H	1.018805	-0.867913	-0.383732
H144	H	1.518805	-0.367913	0.116268
H145	H	1.271650	-1.101837	-0.471229
H146	H	1.771650	-0.601837	0.028771
