data_functionalizedCrystal
_audit_creation_method	'MofGen! by Chris Wilmer'
_symmetry_space_group_name_H-M	'P1'
_symmetry_Int_Tables_number	1
_symmetry_cell_setting	triclinic
loop_
_symmetry_equiv_pos_as_xyz
  x,y,z
_cell_length_a	29.839134
_cell_length_b	29.839135
_cell_length_c	13.897441
_cell_angle_alpha	89.974877
_cell_angle_beta	90.021689
_cell_angle_gamma	89.991456
loop_
_atom_site_label
_atom_site_type_symbol
_atom_site_fract_x
_atom_site_fract_y
_atom_site_fract_z
Zn1	Zn	0.178809	0.686873	-0.545554
Zn2	Zn	0.253943	0.686839	-0.384280
Zn3	Zn	0.178832	0.611743	-0.384260
Zn4	Zn	0.253916	0.611750	-0.545521
O5	O	0.216375	0.649301	-0.464904
O6	O	0.188777	0.749736	-0.524183
O7	O	0.244001	0.676860	-0.249296
O8	O	0.115961	0.621721	-0.405661
O9	O	0.243979	0.749710	-0.405696
O10	O	0.115945	0.676918	-0.524163
O11	O	0.188817	0.621688	-0.249281
O12	O	0.188790	0.548877	-0.405629
O13	O	0.243931	0.621732	-0.680507
O14	O	0.243953	0.548882	-0.524107
O15	O	0.188750	0.676925	-0.680531
O16	O	0.316807	0.676867	-0.405664
O17	O	0.316786	0.621699	-0.524126
C18	C	0.216371	0.532579	-0.464863
C19	C	0.216381	0.482644	-0.464868
C20	C	0.099196	0.649322	-0.464914
C21	C	0.049262	0.649331	-0.464918
C22	C	0.187675	0.173011	-0.526691
C23	C	0.187678	-0.014662	-0.526718
O24	O	0.163261	-0.038918	-0.579237
N25	N	0.216375	-0.038141	-0.464939
C26	C	0.245072	-0.014698	-0.403144
O27	O	0.269477	-0.038975	-0.350591
C28	C	0.245066	0.172974	-0.403113
C29	C	0.216370	0.196450	-0.464903
C30	C	0.158981	0.196487	-0.588475
C31	C	0.158982	0.243403	-0.588471
C32	C	0.187678	0.266842	-0.526683
C33	C	0.216371	0.243365	-0.464899
C34	C	0.273760	0.196415	-0.341314
C35	C	0.273755	0.243336	-0.341310
C36	C	0.245059	0.266813	-0.403100
C37	C	0.245068	0.313720	-0.403107
N38	N	0.216371	0.337199	-0.464886
C39	C	0.187675	0.313760	-0.526674
C40	C	0.245073	-0.113229	-0.403167
C41	C	0.245075	-0.160147	-0.403175
C42	C	0.187681	-0.160107	-0.526748
C43	C	0.187682	-0.113189	-0.526744
C44	C	0.216376	-0.089750	-0.464946
C45	C	0.187681	0.412285	-0.526662
C46	C	0.187686	0.459205	-0.526656
C47	C	0.245078	0.459161	-0.403080
C48	C	0.245075	0.412246	-0.403089
C49	C	0.216372	0.388809	-0.464884
O50	O	0.269468	0.338005	-0.350609
O51	O	0.163267	0.338044	-0.579205
C52	C	0.187674	0.126095	-0.526695
C53	C	0.216368	0.102619	-0.464910
C54	C	0.245063	0.126058	-0.403122
C55	C	0.216370	0.055701	-0.464919
C56	C	0.187675	0.032262	-0.526707
C57	C	0.158977	0.055741	-0.588486
C58	C	0.158979	0.102656	-0.588483
C59	C	0.273760	0.102579	-0.341343
C60	C	0.273757	0.055664	-0.341353
C61	C	0.245062	0.032225	-0.403141
C62	C	-0.260376	0.620582	-0.403243
C63	C	-0.448049	0.620585	-0.403252
O64	O	-0.472309	0.596132	-0.350813
N65	N	-0.471523	0.649325	-0.464948
C66	C	-0.448076	0.678064	-0.526651
O67	O	-0.472349	0.702506	-0.579134
C68	C	-0.260404	0.678059	-0.526646
C69	C	-0.236932	0.649320	-0.464939
C70	C	-0.236904	0.591846	-0.341542
C71	C	-0.189988	0.591847	-0.341536
C72	C	-0.166545	0.620585	-0.403232
C73	C	-0.190017	0.649322	-0.464933
C74	C	-0.236958	0.706795	-0.588352
C75	C	-0.190037	0.706790	-0.588347
C76	C	-0.166565	0.678052	-0.526640
C77	C	-0.119658	0.678061	-0.526624
N78	N	-0.096183	0.649321	-0.464928
C79	C	-0.119627	0.620583	-0.403232
C80	C	-0.546607	0.678065	-0.526647
C81	C	-0.593525	0.678067	-0.526648
C82	C	-0.593494	0.620588	-0.403250
C83	C	-0.546575	0.620588	-0.403246
C84	C	-0.523133	0.649326	-0.464951
C85	C	-0.021101	0.620589	-0.403225
C86	C	0.025819	0.620594	-0.403222
C87	C	0.025784	0.678071	-0.526623
C88	C	-0.021132	0.678068	-0.526622
C89	C	-0.044573	0.649323	-0.464920
O90	O	-0.095369	0.702497	-0.579043
O91	O	-0.095346	0.596138	-0.350772
C92	C	-0.307291	0.620581	-0.403248
C93	C	-0.330763	0.649318	-0.464949
C94	C	-0.307320	0.678055	-0.526645
C95	C	-0.377681	0.649319	-0.464950
C96	C	-0.401124	0.620582	-0.403254
C97	C	-0.377650	0.591842	-0.341558
C98	C	-0.330734	0.591843	-0.341553
C99	C	-0.330794	0.706795	-0.588341
C100	C	-0.377710	0.706792	-0.588341
C101	C	-0.401153	0.678054	-0.526645
C102	C	0.333097	0.649292	-0.464915
C103	C	0.383032	0.649329	-0.464952
C104	C	0.216335	0.649333	-0.716497
C105	C	0.216318	0.649347	-0.823711
C106	C	0.216379	0.766480	-0.464946
C107	C	0.216380	0.816414	-0.464964
C108	C	0.216288	0.649359	-1.020006
C109	C	0.216306	0.649351	-0.910774
C110	C	0.216382	0.649295	-0.214289
C111	C	0.216272	0.649369	-0.107076
H112	H	0.164318	0.478317	-0.576976
H113	H	-0.612633	0.701474	-0.576884
H114	H	0.164307	0.393209	-0.576978
Cl115	Cl	-0.517072	0.584458	-0.325671
Cl116	Cl	-0.517143	0.714195	-0.604231
Cl117	Cl	0.309834	0.026157	-0.263663
H118	H	0.297127	0.121659	-0.291025
Cl119	Cl	-0.050563	0.584453	-0.325652
H120	H	-0.311628	0.568441	-0.291305
H121	H	-0.396745	0.568444	-0.291319
H122	H	0.044927	0.597191	-0.352969
Cl123	Cl	-0.050640	0.714202	-0.604185
Cl124	Cl	-0.160487	0.555713	-0.263966
H125	H	0.164317	-0.179199	-0.577059
Cl126	Cl	0.122905	0.026266	-0.666165
Cl127	Cl	0.281156	-0.189654	-0.325503
Cl128	Cl	-0.266367	0.555712	-0.263973
H129	H	-0.612589	0.597189	-0.353013
H130	H	0.135615	0.262513	-0.638786
Cl131	Cl	-0.266455	0.742924	-0.665936
H132	H	-0.170953	0.730188	-0.638605
Cl133	Cl	0.055264	0.714197	-0.604179
H134	H	0.135612	0.177408	-0.638791
H135	H	0.268441	-0.094150	-0.352841
H136	H	0.268446	0.393131	-0.352786
H137	H	-0.396817	0.730198	-0.638588
H138	H	-0.311711	0.730198	-0.638582
H139	H	0.297126	0.177309	-0.290996
Cl140	Cl	0.309831	0.272799	-0.263618
Cl141	Cl	0.151604	-0.083681	-0.604423
H142	H	0.268442	0.478254	-0.352775
H143	H	0.135611	0.121767	-0.638798
