data_functionalizedCrystal
_audit_creation_method	'MofGen! by Chris Wilmer'
_symmetry_space_group_name_H-M	'P1'
_symmetry_Int_Tables_number	1
_symmetry_cell_setting	triclinic
loop_
_symmetry_equiv_pos_as_xyz
  x,y,z
_cell_length_a	19.288864
_cell_length_b	8.965430
_cell_length_c	10.489741
_cell_angle_alpha	89.999293
_cell_angle_beta	83.837710
_cell_angle_gamma	90.017637
loop_
_atom_site_label
_atom_site_type_symbol
_atom_site_fract_x
_atom_site_fract_y
_atom_site_fract_z
O1	O	0.922415	0.124517	0.159098
O2	O	0.720298	0.124415	0.180562
O3	O	0.825956	0.124460	-0.015872
O4	O	0.816758	0.124473	0.355532
O5	O	0.825947	-0.123619	-0.015859
O6	O	0.720289	-0.123663	0.180575
O7	O	0.922406	-0.123561	0.159111
Cu8	Cu	0.821347	-0.146264	0.169844
Cu9	Cu	0.821358	0.147118	0.169829
O10	O	0.816749	-0.123606	0.355545
C11	C	0.694413	0.000363	0.179878
C12	C	0.617295	0.000324	0.177805
N13	N	0.821345	-0.352613	0.169854
C14	C	0.573372	0.000351	0.293063
C15	C	0.500912	0.000368	0.291115
C16	C	0.472378	0.000386	0.173903
C17	C	0.516311	0.000351	0.058629
C18	C	0.588770	0.000319	0.060580
C19	C	0.363502	0.087346	0.081756
C20	C	0.291044	0.087387	0.079810
C21	C	0.248892	0.000477	0.167880
C22	C	0.279206	-0.086455	0.257919
C23	C	0.351664	-0.086487	0.259870
C24	C	0.393810	0.000420	0.171774
C25	C	0.126399	0.000520	0.281035
C26	C	0.053938	0.000527	0.279082
C27	C	0.069339	0.000525	0.046593
C28	C	0.141798	0.000503	0.048549
C29	C	0.170324	0.000507	0.165773
C30	C	0.772466	-0.449940	0.260669
C31	C	0.835354	-0.549320	0.285057
C32	C	0.758483	-0.549360	0.145476
C33	C	0.884265	-0.449805	0.194300
C34	C	0.807352	-0.449836	0.054669
C35	C	0.870285	-0.549172	0.079009
C36	C	0.948292	0.000494	0.159795
C37	C	1.025409	0.000543	0.161869
C38	C	0.825257	0.000421	-0.063381
C39	C	0.823178	0.000423	-0.204964
N40	N	0.821365	0.353467	0.169809
C41	C	0.755951	0.000400	-0.271583
C42	C	0.787704	-0.121900	-0.364418
C43	C	0.787729	0.122686	-0.364406
C44	C	0.854959	-0.121978	-0.295933
C45	C	0.854974	0.122718	-0.295911
C46	C	0.886776	0.000389	-0.388719
C47	C	0.817448	0.000436	0.403054
C48	C	0.819526	0.000444	0.544637
H49	H	0.596592	0.000358	0.388516
H50	H	0.018175	0.000541	0.372944
O51	O	0.851031	-0.607298	0.414041
H52	H	0.810372	-0.567598	0.489281
H53	H	0.795483	-0.406103	-0.042689
O54	O	0.960077	0.000331	-0.455757
H55	H	0.988132	0.100932	-0.427012
H56	H	0.705314	-0.593093	0.124878
O57	O	0.954712	-0.392146	0.221749
H58	H	0.954141	-0.268350	0.221604
H59	H	0.911674	-0.592469	0.002185
H60	H	0.376342	-0.157274	0.333178
H61	H	0.624533	0.000298	-0.033280
H62	H	0.883399	0.226147	-0.265515
O63	O	0.408956	0.181095	-0.013250
H64	H	0.445927	0.107779	-0.072494
O65	O	0.038576	0.000546	-0.079836
H66	H	-0.019189	0.000579	-0.061831
O67	O	0.682741	0.000211	-0.204140
H68	H	0.654999	-0.101496	-0.231379
O69	O	0.717765	-0.392200	0.362477
H70	H	0.729561	-0.432045	0.457980
H71	H	0.759255	-0.225324	-0.394780
H72	H	0.465143	0.000386	0.384975
O73	O	0.892597	-0.259100	-0.255955
H74	H	0.893820	-0.258063	-0.150411
O75	O	0.750049	0.259650	-0.404599
H76	H	0.695760	0.259353	-0.357204
H77	H	0.149625	0.000502	0.376486
O78	O	0.233755	-0.180215	0.352915
H79	H	0.178278	-0.165610	0.336424
O80	O	0.189181	0.000486	-0.075766
H81	H	0.157169	0.000511	-0.157601
H82	H	0.266368	0.158178	0.006500
H83	H	0.493075	0.000386	-0.036806
