data_functionalizedCrystal
_audit_creation_method	'MofGen! by Chris Wilmer'
_symmetry_space_group_name_H-M	'P1'
_symmetry_Int_Tables_number	1
_symmetry_cell_setting	triclinic
loop_
_symmetry_equiv_pos_as_xyz
  x,y,z
_cell_length_a	19.188931
_cell_length_b	18.266242
_cell_length_c	14.044190
_cell_angle_alpha	90.010750
_cell_angle_beta	91.831540
_cell_angle_gamma	89.992421
loop_
_atom_site_label
_atom_site_type_symbol
_atom_site_fract_x
_atom_site_fract_y
_atom_site_fract_z
O1	O	-0.933786	0.060864	0.118314
O2	O	-0.433786	0.560864	0.618314
O3	O	-0.731503	0.060872	0.134239
O4	O	-0.231503	0.560872	0.634239
O5	O	-0.829605	0.060854	-0.011696
O6	O	-0.329605	0.560854	0.488304
O7	O	-0.835683	0.060882	0.264249
O8	O	-0.335683	0.560882	0.764249
O9	O	-0.829587	-0.060908	-0.011703
O10	O	-0.329587	0.439092	0.488297
O11	O	-0.731484	-0.060890	0.134232
O12	O	-0.231484	0.439110	0.634232
O13	O	-0.933767	-0.060898	0.118306
O14	O	-0.433767	0.439102	0.618306
Zn15	Zn	-0.832623	-0.080227	0.126268
Zn16	Zn	-0.332623	0.419773	0.626268
Zn17	Zn	-0.832647	0.080200	0.126278
Zn18	Zn	-0.332647	0.580200	0.626278
O19	O	-0.835664	-0.060880	0.264241
O20	O	-0.335664	0.439120	0.764241
C21	C	-0.705449	-0.000008	0.133720
C22	C	-0.205449	0.499992	0.633720
C23	C	-0.627845	-0.000006	0.132171
C24	C	-0.127845	0.499994	0.632171
C25	C	-0.073886	0.066358	0.121123
C26	C	0.426114	0.566358	0.621123
C27	C	-0.146804	0.066361	0.122572
C28	C	0.353196	0.566361	0.622572
C29	C	-0.183257	-0.000011	0.123297
C30	C	0.316743	0.499989	0.623297
C31	C	-0.146788	-0.066391	0.122548
C32	C	0.353212	0.433609	0.622548
C33	C	-0.073872	-0.066392	0.121090
C34	C	0.426128	0.433608	0.621090
N35	N	-0.295898	-0.049409	0.179509
N36	N	0.204102	0.450591	0.679509
N37	N	-0.365166	-0.049404	0.180897
N38	N	0.134834	0.450596	0.680897
C39	C	-0.402950	-0.000012	0.127691
C40	C	0.097050	0.499988	0.627691
N41	N	-0.368849	0.049385	0.073056
N42	N	0.131151	0.549385	0.573056
N43	N	-0.299576	0.049382	0.071672
N44	N	0.200424	0.549382	0.571672
C45	C	-0.262323	-0.000018	0.124879
C46	C	0.237677	0.499982	0.624879
C47	C	-0.518476	0.066367	0.130004
C48	C	-0.018476	0.566367	0.630004
C49	C	-0.591396	0.066367	0.131448
C50	C	-0.091396	0.566367	0.631448
C51	C	-0.591379	-0.066387	0.131434
C52	C	-0.091379	0.433613	0.631434
C53	C	-0.518461	-0.066385	0.129981
C54	C	-0.018461	0.433615	0.629981
C55	C	-0.482014	-0.000006	0.129270
C56	C	0.017986	0.499994	0.629270
N57	N	-0.832611	-0.189713	0.126261
N58	N	-0.332611	0.310287	0.626261
C59	C	-0.876068	-0.228030	0.061672
C60	C	-0.376068	0.271970	0.561672
C61	C	-0.876073	-0.304675	0.061668
C62	C	-0.376073	0.195325	0.561668
C63	C	-0.832627	-0.343000	0.126268
C64	C	-0.332627	0.157000	0.626268
C65	C	-0.789161	-0.304674	0.190861
C66	C	-0.289161	0.195326	0.690861
C67	C	-0.789153	-0.228031	0.190858
C68	C	-0.289153	0.271969	0.690858
N69	N	-0.828966	-0.463324	0.210156
N70	N	-0.328966	0.036676	0.710156
N71	N	-0.828978	-0.536132	0.210157
N72	N	-0.328978	-0.036132	0.710157
C73	C	-0.832647	-0.573923	0.126282
C74	C	-0.332647	-0.073923	0.626282
N75	N	-0.836318	-0.536155	0.042403
N76	N	-0.336318	-0.036155	0.542403
N77	N	-0.836310	-0.463340	0.042404
N78	N	-0.336310	0.036660	0.542404
C79	C	-0.832630	-0.426107	0.126279
C80	C	-0.332630	0.073893	0.626279
C81	C	-0.876112	-0.695347	0.061683
C82	C	-0.376112	-0.195347	0.561683
C83	C	-0.876111	-0.771993	0.061678
C84	C	-0.376111	-0.271993	0.561678
C85	C	-0.789203	-0.771991	0.190879
C86	C	-0.289203	-0.271991	0.690879
C87	C	-0.789200	-0.695346	0.190877
C88	C	-0.289200	-0.195346	0.690877
C89	C	-0.832658	-0.657028	0.126280
C90	C	-0.332658	-0.157028	0.626280
C91	C	0.040179	-0.000016	0.118827
C92	C	0.540179	0.499984	0.618827
C93	C	-0.037425	-0.000013	0.120380
C94	C	0.462575	0.499987	0.620380
C95	C	-0.826937	-0.000029	-0.047003
C96	C	-0.326937	0.499971	0.452997
C97	C	-0.819006	-0.000036	-0.152196
C98	C	-0.319006	0.499964	0.347804
N99	N	-0.832664	0.189687	0.126277
N100	N	-0.332664	0.689687	0.626277
C101	C	-0.860754	-0.000009	-0.402655
C102	C	-0.360754	0.499991	0.097345
C103	C	-0.804519	-0.000011	-0.344793
C104	C	-0.304519	0.499989	0.155207
C105	C	-0.812582	-0.000025	-0.237622
C106	C	-0.312582	0.499975	0.262378
C107	C	-0.852692	0.000005	-0.509836
C108	C	-0.352692	0.500005	-0.009836
C109	C	-0.838333	0.000005	0.299549
C110	C	-0.338333	0.500005	0.799549
C111	C	-0.846263	0.000016	0.404742
C112	C	-0.346263	0.500016	0.904742
H113	H	-0.044186	-0.120441	0.120488
H114	H	0.455814	0.379559	0.620488
H115	H	-0.911496	-0.664148	0.009081
H116	H	-0.411496	-0.164148	0.509081
H117	H	-0.488800	0.120417	0.129423
H118	H	0.011200	0.620417	0.629423
H119	H	-0.621081	0.120417	0.132046
H120	H	-0.121081	0.620417	0.632046
H121	H	-0.753826	-0.803194	0.243475
H122	H	-0.253826	-0.303194	0.743475
H123	H	-0.753786	-0.335882	0.243459
H124	H	-0.253786	0.164118	0.743459
H125	H	-0.753764	-0.196832	0.243454
H126	H	-0.253764	0.303168	0.743454
H127	H	-0.914951	-0.000018	-0.371706
H128	H	-0.414951	0.499982	0.128294
H129	H	-0.911453	-0.196835	0.009071
H130	H	-0.411453	0.303165	0.509071
H131	H	-0.488774	-0.120432	0.129379
H132	H	0.011226	0.379568	0.629379
H133	H	-0.044215	0.120409	0.120541
H134	H	0.455785	0.620409	0.620541
H135	H	-0.911497	-0.803191	0.009077
H136	H	-0.411497	-0.303191	0.509077
H137	H	-0.176495	0.120410	0.123183
H138	H	0.323505	0.620410	0.623183
H139	H	-0.753816	-0.664146	0.243475
H140	H	-0.253816	-0.164146	0.743475
H141	H	-0.750318	-0.000005	-0.375744
H142	H	-0.250318	0.499995	0.124256
H143	H	-0.621059	-0.120429	0.132020
H144	H	-0.121059	0.379571	0.632020
H145	H	-0.911462	-0.335879	0.009070
H146	H	-0.411462	0.164121	0.509070
H147	H	-0.176474	-0.120432	0.123137
H148	H	0.323526	0.379568	0.623137
