data_functionalizedCrystal
_audit_creation_method	'MofGen! by Chris Wilmer'
_symmetry_space_group_name_H-M	'P1'
_symmetry_Int_Tables_number	1
_symmetry_cell_setting	triclinic
loop_
_symmetry_equiv_pos_as_xyz
  x,y,z
_cell_length_a	18.426585
_cell_length_b	12.970454
_cell_length_c	12.970454
_cell_angle_alpha	59.999776
_cell_angle_beta	89.999509
_cell_angle_gamma	60.001354
loop_
_atom_site_label
_atom_site_type_symbol
_atom_site_fract_x
_atom_site_fract_y
_atom_site_fract_z
Zr1	Zr	0.699112	1.128562	-0.135330
O2	O	0.583236	1.343645	-0.299951
O3	O	0.734634	0.913474	-0.084864
O4	O	0.734635	1.128564	-0.299955
O5	O	0.583234	1.128556	0.084806
O6	O	0.854061	1.128571	-0.299960
O7	O	0.583235	1.128556	-0.084860
O8	O	0.854059	0.743815	0.084799
O9	O	0.583236	1.513313	-0.299952
O10	O	0.838909	1.001950	-0.063346
O11	O	0.749783	1.001946	0.063278
O12	O	0.749784	1.255186	-0.189964
O13	O	0.660657	1.255181	-0.063340
Zr14	Zr	0.889581	1.128575	0.135261
Zr15	Zr	0.889582	1.128574	-0.135337
Zr16	Zr	0.699110	1.128564	0.135268
Zr17	Zr	0.699112	1.399162	-0.135332
Zr18	Zr	0.889581	0.857975	0.135263
O19	O	0.854059	1.343664	0.084796
O20	O	0.854061	1.343662	-0.299961
O21	O	0.583234	1.343647	0.084805
O22	O	1.005456	0.913492	0.299882
O23	O	1.005458	0.913490	-0.084874
O24	O	0.734632	0.913476	0.299892
O25	O	1.005458	1.128581	-0.084875
O26	O	0.854058	1.128574	0.299886
O27	O	0.734632	1.128567	0.299891
O28	O	1.005457	1.128582	0.084791
O29	O	0.734635	1.513322	-0.299957
O30	O	0.854058	0.743816	0.299888
O31	O	1.005456	0.743825	0.299883
O32	O	1.005457	0.743824	0.084793
O33	O	0.583235	1.513314	-0.084862
O34	O	0.734634	1.513323	-0.084868
O35	O	0.838908	1.001952	0.189895
O36	O	0.928035	1.001956	0.063271
O37	O	0.838910	1.255192	-0.063347
O38	O	0.749783	1.255187	0.063277
C39	C	0.794346	0.790089	-0.000033
C40	C	0.794346	0.675213	-0.000032
C41	C	0.556097	1.128554	-0.000026
C42	C	0.475237	1.128550	-0.000023
C43	C	0.179122	1.128593	-0.000045
C44	C	0.261508	1.128587	-0.000042
C45	C	0.327177	1.128572	-0.000035
C46	C	0.409568	1.128565	-0.000030
C47	C	1.032596	1.128583	-0.000043
C48	C	1.113455	1.128588	-0.000046
C49	C	0.794348	1.128567	-0.338512
C50	C	0.794348	1.128566	-0.453388
C51	C	0.794346	1.467048	-0.000036
C52	C	0.794346	1.581925	-0.000037
C53	C	0.794344	1.128571	0.338443
C54	C	0.794344	1.128571	0.453319
C55	C	1.032596	0.790104	-0.000041
C56	C	1.113455	0.675232	-0.000044
C57	C	0.794344	0.790091	0.338445
C58	C	0.794344	0.675215	0.453322
C59	C	1.032594	0.790106	0.338436
C60	C	1.113453	0.675234	0.453310
C61	C	0.556098	1.467032	-0.338505
C62	C	0.475239	1.581903	-0.453379
C63	C	0.556097	1.467034	-0.000028
C64	C	0.475237	1.581906	-0.000025
C65	C	0.794348	1.467046	-0.338514
C66	C	0.794348	1.581922	-0.453390
C67	C	1.104905	0.621284	-0.066149
C68	C	1.180874	0.513364	-0.066176
C69	C	1.265392	0.459388	-0.000090
C70	C	1.273941	0.513347	0.066017
C71	C	1.197973	0.621271	0.066036
C72	C	1.197957	0.621292	0.441160
C73	C	1.273940	0.513373	0.549086
C74	C	1.265417	0.459391	0.669160
C75	C	1.180905	0.513344	0.681308
C76	C	1.104924	0.621269	0.573384
C77	C	0.390736	1.635859	-0.441229
C78	C	0.314753	1.743811	-0.549155
C79	C	0.323275	1.797798	-0.669229
C80	C	0.407787	1.743838	-0.681377
C81	C	0.483769	1.635895	-0.573452
C82	C	0.483787	1.635865	0.066069
C83	C	0.407818	1.743814	0.066066
C84	C	0.323300	1.797795	-0.000023
C85	C	0.314751	1.743831	-0.066125
C86	C	0.390720	1.635891	-0.066130
H87	H	1.036093	0.665230	-0.119979
H88	H	0.383779	1.591908	-0.343468
H89	H	1.036120	0.665174	0.583294
H90	H	1.173979	0.469377	0.779087
O91	O	0.232731	1.795999	-0.537113
C92	C	0.241512	1.725205	-0.407986
H93	H	0.309313	1.615809	-0.350453
H94	H	0.187028	1.706588	-0.392932
H95	H	0.235295	1.795968	-0.376161
O96	O	0.249435	1.902463	-0.774023
C97	C	0.198527	1.849708	-0.773783
H98	H	0.243139	1.725436	-0.712759
H99	H	0.167725	1.892115	-0.874466
H100	H	0.143551	1.888912	-0.733931
H101	H	1.173897	0.469444	-0.120008
O102	O	0.565836	1.583415	0.130455
C103	C	0.575581	1.520962	0.259478
H104	H	0.507189	1.569724	0.270293
H105	H	0.615543	1.544636	0.299962
H106	H	0.611890	1.398027	0.312511
H107	H	0.414716	1.787809	-0.779155
H108	H	0.552573	1.591966	-0.583360
H109	H	1.327243	0.371507	-0.000115
H110	H	0.414796	1.787733	0.119899
O111	O	0.249600	1.902596	0.000169
C112	C	0.275281	1.938658	0.072660
H113	H	0.345412	1.843985	0.142536
H114	H	0.227292	1.961077	0.126478
H115	H	0.273906	2.040072	0.007586
O116	O	0.232581	1.796382	-0.130204
C117	C	0.167374	1.903240	-0.116036
H118	H	0.197002	1.885507	-0.026772
H119	H	0.108783	1.894484	-0.108440
H120	H	0.143607	2.016136	-0.201435
H121	H	1.327293	0.371513	0.757029
O122	O	1.356111	0.460694	0.130196
C123	C	1.421319	0.353891	0.115972
H124	H	1.391689	0.306719	0.091616
H125	H	1.479908	0.263063	0.207962
H126	H	1.445087	0.405526	0.036841
O127	O	1.206443	0.673453	0.130378
C128	C	1.297334	0.602681	0.188673
H129	H	1.337837	0.493295	0.201728
H130	H	1.307940	0.584047	0.284699
H131	H	1.319720	0.673471	0.126736
H132	H	0.383746	1.591960	-0.119948
H133	H	1.204913	0.665228	0.343399
H134	H	1.342747	0.469456	0.539172
