data_functionalizedCrystal
_audit_creation_method	'MofGen! by Chris Wilmer'
_symmetry_space_group_name_H-M	'P1'
_symmetry_Int_Tables_number	1
_symmetry_cell_setting	triclinic
loop_
_symmetry_equiv_pos_as_xyz
  x,y,z
_cell_length_a	10.686220
_cell_length_b	14.908178
_cell_length_c	10.685314
_cell_angle_alpha	90.786383
_cell_angle_beta	98.357559
_cell_angle_gamma	97.932243
loop_
_atom_site_label
_atom_site_type_symbol
_atom_site_fract_x
_atom_site_fract_y
_atom_site_fract_z
Zn1	Zn	1.863978	-0.286762	-0.547482
Zn2	Zn	2.363978	0.213238	-0.047482
Zn3	Zn	1.869739	-0.425149	-0.324860
Zn4	Zn	2.369739	0.074851	0.175140
Zn5	Zn	1.667983	-0.286837	-0.351511
Zn6	Zn	2.167983	0.213163	0.148489
Zn7	Zn	1.639449	-0.450139	-0.551422
Zn8	Zn	2.139449	0.049861	-0.051422
O9	O	1.760287	-0.362222	-0.443819
O10	O	2.260287	0.137778	0.056181
O11	O	2.043144	-0.294630	-0.505148
O12	O	2.543144	0.205370	-0.005148
O13	O	1.857328	-0.396375	-0.151564
O14	O	2.357328	0.103625	0.348436
O15	O	1.703512	-0.160569	-0.387011
O16	O	2.203512	0.339431	0.112989
O17	O	2.047377	-0.396303	-0.341589
O18	O	2.547377	0.103697	0.158411
O19	O	1.847509	-0.160514	-0.530990
O20	O	2.347509	0.339486	-0.030990
O21	O	1.709098	-0.294757	-0.171145
O22	O	2.209098	0.205243	0.328855
O23	O	1.485796	-0.318988	-0.390832
O24	O	1.985796	0.181012	0.109168
O25	O	1.654881	-0.438894	-0.727731
O26	O	2.154881	0.061106	-0.227731
O27	O	1.464832	-0.438966	-0.537706
O28	O	1.964832	0.061034	-0.037706
O29	O	1.819841	-0.318862	-0.724836
O30	O	2.319841	0.181138	-0.224836
O31	O	1.829660	-0.554722	-0.345410
O32	O	2.329660	-0.054722	0.154590
O33	O	1.660467	-0.573082	-0.511864
O34	O	2.160467	-0.073082	-0.011864
C35	C	1.429056	-0.381698	-0.467590
C36	C	1.929056	0.118302	0.032410
C37	C	1.287350	-0.390053	-0.477787
C38	C	1.787350	0.109947	0.022213
C39	C	1.742625	-0.596639	-0.426198
C40	C	2.242625	-0.096639	0.073802
C41	C	1.735182	-0.696920	-0.418693
C42	C	2.235182	-0.196920	0.081307
C43	C	1.871003	-0.885168	-0.554699
C44	C	2.371003	-0.385168	-0.054699
C45	C	1.864014	-0.979390	-0.547651
C46	C	2.364014	-0.479390	-0.047651
C47	C	1.714209	-0.979589	-0.397559
C48	C	2.214209	-0.479589	0.102441
C49	C	1.721198	-0.885367	-0.404606
C50	C	2.221198	-0.385367	0.095394
C51	C	1.799599	-0.838159	-0.483177
C52	C	2.299599	-0.338159	0.016823
C53	C	1.806594	-0.743934	-0.490217
C54	C	2.306594	-0.243934	0.009783
C55	C	1.656783	-0.744136	-0.340132
C56	C	2.156783	-0.244136	0.159868
C57	C	1.649794	-0.838358	-0.333085
C58	C	2.149794	-0.338358	0.166915
C59	C	2.092811	-0.342671	-0.419956
C60	C	2.592811	0.157329	0.080044
C61	C	2.234513	-0.334339	-0.409787
C62	C	2.734513	0.165661	0.090213
C63	C	1.733536	-0.381657	-0.773416
C64	C	2.233536	0.118343	-0.273416
C65	C	1.722136	-0.389939	-0.913870
C66	C	2.222136	0.110061	-0.413870
C67	C	1.778051	-0.126889	-0.461534
C68	C	2.278051	0.373111	0.038466
C69	C	1.785621	-0.026604	-0.469083
C70	C	2.285621	0.473396	0.030917
C71	C	1.787013	-0.342793	-0.115504
C72	C	2.287013	0.157207	0.384496
C73	C	1.798679	-0.334242	0.024948
C74	C	2.298679	0.165758	0.524948
H75	H	1.224170	-0.444152	-0.543803
H76	H	1.724170	0.055848	-0.043803
Cl77	Cl	1.567023	-0.685033	-0.250204
Cl78	Cl	2.067023	-0.185033	0.249796
Cl79	Cl	1.913307	-0.250825	-0.890031
Cl80	Cl	2.413307	0.249175	-0.390031
Cl81	Cl	1.905157	-0.684588	-0.588987
Cl82	Cl	2.405157	-0.184588	-0.088987
H83	H	1.297687	-0.280249	-0.343767
H84	H	1.797687	0.219751	0.156233
Cl85	Cl	1.969576	-0.825816	-0.653455
Cl86	Cl	2.469576	-0.325816	-0.153455
Cl87	Cl	1.615623	-1.038954	-0.298826
Cl88	Cl	2.115623	-0.538954	0.201174
H89	H	1.922151	-1.017661	-0.605898
H90	H	2.422151	-0.517661	-0.105898
H91	H	1.585959	-0.876808	-0.269118
H92	H	2.085959	-0.376808	0.230882
Cl93	Cl	1.607488	-0.473351	-0.998897
Cl94	Cl	2.107488	0.026649	-0.498897
