data_functionalizedCrystal
_audit_creation_method	'MofGen! by Chris Wilmer'
_symmetry_space_group_name_H-M	'P1'
_symmetry_Int_Tables_number	1
_symmetry_cell_setting	triclinic
loop_
_symmetry_equiv_pos_as_xyz
  x,y,z
_cell_length_a	10.654554
_cell_length_b	10.489716
_cell_length_c	9.130313
_cell_angle_alpha	90.002761
_cell_angle_beta	89.998999
_cell_angle_gamma	84.507989
loop_
_atom_site_label
_atom_site_type_symbol
_atom_site_fract_x
_atom_site_fract_y
_atom_site_fract_z
O1	O	1.667899	0.179187	-0.121811
O2	O	1.302428	0.196250	-0.121807
O3	O	1.493496	0.002115	-0.121814
O4	O	1.476831	0.373322	-0.121804
O5	O	1.493493	0.002120	0.121784
O6	O	1.302425	0.196255	0.121792
O7	O	1.667897	0.179192	0.121788
Cu8	Cu	1.485161	0.187724	0.144032
Cu9	Cu	1.485164	0.187718	-0.144052
O10	O	1.476829	0.373328	0.121795
C11	C	1.255628	0.194999	-0.000007
C12	C	1.116184	0.191247	-0.000006
C13	C	0.933576	0.069887	-0.000029
C14	C	1.064599	0.073412	-0.000014
C15	C	1.036738	0.305564	0.000001
C16	C	0.905718	0.302038	-0.000003
C17	C	0.949662	-0.064144	-0.000044
C18	C	1.080685	-0.060620	-0.000029
C19	C	1.492242	-0.045414	-0.000019
C20	C	1.488496	-0.187043	-0.000033
C21	C	1.605665	-0.284772	-0.000021
C22	C	1.543752	-0.362106	-0.120123
C23	C	1.543722	-0.362065	0.120046
C24	C	1.426632	-0.262512	-0.120234
C25	C	1.426620	-0.262466	0.120043
C26	C	1.364620	-0.339751	-0.000089
C27	C	1.714696	0.180444	-0.000015
C28	C	1.854141	0.184196	-0.000026
C29	C	1.478082	0.420857	-0.000003
C30	C	1.481828	0.562486	0.000001
N31	N	1.485168	0.187728	0.346655
N32	N	1.485166	0.187704	-0.346674
C33	C	1.569795	0.101794	0.423304
C34	C	1.569791	0.101779	0.576640
C35	C	1.400530	0.273642	0.576666
C36	C	1.400529	0.273650	0.423332
C37	C	1.667520	0.002574	0.423290
C38	C	1.667517	0.002559	0.576627
H39	H	1.126307	-0.101119	0.105154
H40	H	0.841046	0.395120	0.000016
H41	H	0.920278	-0.116563	0.101893
H42	H	1.331608	0.343613	0.360926
N43	N	1.781934	0.041528	0.363633
N44	N	1.849224	-0.032943	0.282741
H45	H	1.930031	-0.005427	0.240614
H46	H	1.636968	-0.090094	0.624171
N47	N	1.236668	-0.370329	-0.000147
N48	N	1.148540	-0.282645	-0.001184
H49	H	1.058174	-0.304241	-0.001230
H50	H	1.078749	0.401508	0.000021
H51	H	1.331619	0.343597	0.639114
H52	H	1.593208	-0.405558	0.221581
H53	H	1.707582	-0.260143	-0.000144
N54	N	0.904942	-0.117720	-0.131973
N55	N	0.847405	-0.216024	-0.126724
H56	H	0.815822	-0.253863	-0.219901
H57	H	1.646040	-0.095472	0.381667
H58	H	1.122424	-0.111117	-0.101978
H59	H	1.593214	-0.405626	-0.221664
H60	H	1.377198	-0.219188	-0.221884
N61	N	1.364631	-0.207852	0.247441
N62	N	1.404615	-0.240000	0.372063
H63	H	1.360844	-0.201429	0.462050
N64	N	1.788603	0.029968	0.628824
N65	N	1.873913	0.049302	0.539854
H66	H	1.959428	0.068660	0.576717
