data_functionalizedCrystal
_audit_creation_method	'MofGen! by Chris Wilmer'
_symmetry_space_group_name_H-M	'P1'
_symmetry_Int_Tables_number	1
_symmetry_cell_setting	triclinic
loop_
_symmetry_equiv_pos_as_xyz
  x,y,z
_cell_length_a	29.839134
_cell_length_b	29.839131
_cell_length_c	29.839125
_cell_angle_alpha	90.025363
_cell_angle_beta	90.021980
_cell_angle_gamma	90.030088
loop_
_atom_site_label
_atom_site_type_symbol
_atom_site_fract_x
_atom_site_fract_y
_atom_site_fract_z
Zn1	Zn	0.686739	-0.178978	0.254101
Zn2	Zn	0.936739	0.071022	0.504101
Zn3	Zn	1.186739	0.321022	0.754101
Zn4	Zn	1.436739	0.571022	1.004101
Zn5	Zn	0.686679	-0.254090	0.178961
Zn6	Zn	0.936679	-0.004090	0.428961
Zn7	Zn	1.186679	0.245910	0.678961
Zn8	Zn	1.436679	0.495910	0.928961
Zn9	Zn	0.611622	-0.178968	0.178971
Zn10	Zn	0.861622	0.071032	0.428971
Zn11	Zn	1.111622	0.321032	0.678971
Zn12	Zn	1.361622	0.571032	0.928971
Zn13	Zn	0.611578	-0.254075	0.254049
Zn14	Zn	0.861578	-0.004075	0.504049
Zn15	Zn	1.111578	0.245925	0.754049
Zn16	Zn	1.361578	0.495925	1.004049
O17	O	0.649154	-0.216528	0.216521
O18	O	0.899154	0.033472	0.466521
O19	O	1.149154	0.283472	0.716521
O20	O	1.399154	0.533472	0.966521
O21	O	0.749598	-0.188952	0.244151
O22	O	0.999598	0.061048	0.494151
O23	O	1.249598	0.311048	0.744151
O24	O	1.499598	0.561048	0.994151
O25	O	0.676716	-0.244127	0.116095
O26	O	0.926716	0.005873	0.366095
O27	O	1.176716	0.255873	0.616095
O28	O	1.426716	0.505873	0.866095
O29	O	0.621630	-0.116102	0.188963
O30	O	0.871630	0.133898	0.438963
O31	O	1.121630	0.383898	0.688963
O32	O	1.371630	0.633898	0.938963
O33	O	0.749554	-0.244137	0.188946
O34	O	0.999554	0.005863	0.438946
O35	O	1.249554	0.255863	0.688946
O36	O	1.499554	0.505863	0.938946
O37	O	0.676818	-0.116109	0.244161
O38	O	0.926818	0.133891	0.494161
O39	O	1.176818	0.383891	0.744161
O40	O	1.426818	0.633891	0.994161
O41	O	0.621572	-0.188935	0.116102
O42	O	0.871572	0.061065	0.366102
O43	O	1.121572	0.311065	0.616102
O44	O	1.371572	0.561065	0.866102
O45	O	0.548749	-0.188921	0.188912
O46	O	0.798749	0.061079	0.438912
O47	O	1.048749	0.311079	0.688912
O48	O	1.298749	0.561079	0.938912
O49	O	0.621554	-0.244111	0.316923
O50	O	0.871554	0.005889	0.566923
O51	O	1.121554	0.255889	0.816923
O52	O	1.371554	0.505889	1.066923
O53	O	0.548716	-0.244101	0.244072
O54	O	0.798716	0.005899	0.494072
O55	O	1.048716	0.255899	0.744072
O56	O	1.298716	0.505899	0.994072
O57	O	0.676775	-0.188937	0.316961
O58	O	0.926775	0.061063	0.566961
O59	O	1.176775	0.311063	0.816961
O60	O	1.426775	0.561063	1.066961
O61	O	0.676673	-0.316955	0.188896
O62	O	0.926673	-0.066955	0.438896
O63	O	1.176673	0.183045	0.688896
O64	O	1.426673	0.433045	0.938896
O65	O	0.621497	-0.316944	0.244063
O66	O	0.871497	-0.066944	0.494063
O67	O	1.121497	0.183056	0.744063
O68	O	1.371497	0.433056	0.994063
C69	C	0.532432	-0.216509	0.216488
C70	C	0.782432	0.033491	0.466488
C71	C	1.032432	0.283491	0.716488
C72	C	1.282432	0.533491	0.966488
C73	C	0.482497	-0.216511	0.216485
C74	C	0.732497	0.033489	0.466485
C75	C	0.982497	0.283489	0.716485
C76	C	1.232497	0.533489	0.966485
C77	C	0.172847	-0.245303	0.245207
C78	C	0.422847	0.004697	0.495207
C79	C	0.672847	0.254697	0.745207
C80	C	0.922847	0.504697	0.995207
C81	C	-0.014827	-0.245315	0.245227
C82	C	0.235173	0.004685	0.495227
C83	C	0.485173	0.254685	0.745227
C84	C	0.735173	0.504685	0.995227
O85	O	-0.039098	-0.269774	0.269629
O86	O	0.210902	-0.019774	0.519629
O87	O	0.460902	0.230226	0.769629
O88	O	0.710902	0.480226	1.019629
N89	N	-0.038288	-0.216544	0.216554
N90	N	0.211712	0.033456	0.466554
N91	N	0.461712	0.283456	0.716554
N92	N	0.711712	0.533456	0.966554
C93	C	-0.014828	-0.187766	0.187877
C94	C	0.235172	0.062234	0.437877
C95	C	0.485172	0.312234	0.687877
C96	C	0.735172	0.562234	0.937877
O97	O	-0.039089	-0.163291	0.163492
O98	O	0.210911	0.086709	0.413492
O99	O	0.460911	0.336709	0.663492
O100	O	0.710911	0.586709	0.913492
C101	C	0.172844	-0.187751	0.187859
C102	C	0.422844	0.062249	0.437859
C103	C	0.672844	0.312249	0.687859
C104	C	0.922844	0.562249	0.937859
C105	C	0.196303	-0.216527	0.216531
C106	C	0.446303	0.033473	0.466531
C107	C	0.696303	0.283473	0.716531
C108	C	0.946303	0.533473	0.966531
C109	C	0.196305	-0.274076	0.273877
C110	C	0.446305	-0.024076	0.523877
C111	C	0.696305	0.225924	0.773877
C112	C	0.946305	0.475924	1.023877
C113	C	0.243221	-0.274075	0.273870
C114	C	0.493221	-0.024075	0.523870
C115	C	0.743221	0.225925	0.773870
C116	C	0.993221	0.475925	1.023870
C117	C	0.266677	-0.245299	0.245193
C118	C	0.516677	0.004701	0.495193
C119	C	0.766677	0.254701	0.745193
C120	C	1.016677	0.504701	0.995193
C121	C	0.243219	-0.216526	0.216524
C122	C	0.493219	0.033474	0.466524
C123	C	0.743219	0.283474	0.716524
C124	C	0.993219	0.533474	0.966524
C125	C	0.196303	-0.158971	0.159184
C126	C	0.446303	0.091029	0.409184
C127	C	0.696303	0.341029	0.659184
C128	C	0.946303	0.591029	0.909184
C129	C	0.243224	-0.158969	0.159183
C130	C	0.493224	0.091031	0.409183
C131	C	0.743224	0.341031	0.659183
C132	C	0.993224	0.591031	0.909183
C133	C	0.266683	-0.187745	0.187855
C134	C	0.516683	0.062255	0.437855
C135	C	0.766683	0.312255	0.687855
C136	C	1.016683	0.562255	0.937855
C137	C	0.313591	-0.187749	0.187840
C138	C	0.563591	0.062251	0.437840
C139	C	0.813591	0.312251	0.687840
C140	C	1.063591	0.562251	0.937840
N141	N	0.337052	-0.216520	0.216513
N142	N	0.587052	0.033480	0.466513
N143	N	0.837052	0.283480	0.716513
N144	N	1.087052	0.533480	0.966513
C145	C	0.313595	-0.245295	0.245189
C146	C	0.563595	0.004705	0.495189
C147	C	0.813595	0.254705	0.745189
C148	C	1.063595	0.504705	0.995189
C149	C	-0.113358	-0.187776	0.187887
C150	C	0.136642	0.062224	0.437887
C151	C	0.386642	0.312224	0.687887
C152	C	0.636642	0.562224	0.937887
C153	C	-0.160276	-0.187780	0.187891
C154	C	0.089724	0.062220	0.437891
C155	C	0.339724	0.312220	0.687891
C156	C	0.589724	0.562220	0.937891
C157	C	-0.160272	-0.245329	0.245242
C158	C	0.089728	0.004671	0.495242
C159	C	0.339728	0.254671	0.745242
C160	C	0.589728	0.504671	0.995242
C161	C	-0.113353	-0.245327	0.245236
C162	C	0.136647	0.004673	0.495236
C163	C	0.386647	0.254673	0.745236
C164	C	0.636647	0.504673	0.995236
C165	C	-0.089897	-0.216547	0.216560
C166	C	0.160103	0.033453	0.466560
C167	C	0.410103	0.283453	0.716560
C168	C	0.660103	0.533453	0.966560
C169	C	0.412121	-0.245290	0.245172
C170	C	0.662121	0.004710	0.495172
C171	C	0.912121	0.254710	0.745172
C172	C	1.162121	0.504710	0.995172
C173	C	0.459041	-0.245287	0.245161
C174	C	0.709041	0.004713	0.495161
C175	C	0.959041	0.254713	0.745161
C176	C	1.209041	0.504713	0.995161
C177	C	0.459032	-0.187736	0.187812
C178	C	0.709032	0.062264	0.437812
C179	C	0.959032	0.312264	0.687812
C180	C	1.209032	0.562264	0.937812
C181	C	0.412117	-0.187740	0.187821
C182	C	0.662117	0.062260	0.437821
C183	C	0.912117	0.312260	0.687821
C184	C	1.162117	0.562260	0.937821
C185	C	0.388662	-0.216519	0.216505
C186	C	0.638662	0.033481	0.466505
C187	C	0.888662	0.283481	0.716505
C188	C	1.138662	0.533481	0.966505
O189	O	0.337891	-0.163299	0.163455
O190	O	0.587891	0.086701	0.413455
O191	O	0.837891	0.336701	0.663455
O192	O	1.087891	0.586701	0.913455
O193	O	0.337865	-0.269759	0.269577
O194	O	0.587865	-0.019759	0.519577
O195	O	0.837865	0.230241	0.769577
O196	O	1.087865	0.480241	1.019577
C197	C	0.125931	-0.245304	0.245214
C198	C	0.375931	0.004696	0.495214
C199	C	0.625931	0.254696	0.745214
C200	C	0.875931	0.504696	0.995214
C201	C	0.102472	-0.216531	0.216545
C202	C	0.352472	0.033469	0.466545
C203	C	0.602472	0.283469	0.716545
C204	C	0.852472	0.533469	0.966545
C205	C	0.125929	-0.187755	0.187868
C206	C	0.375929	0.062245	0.437868
C207	C	0.625929	0.312245	0.687868
C208	C	0.875929	0.562245	0.937868
C209	C	0.055554	-0.216535	0.216548
C210	C	0.305554	0.033465	0.466548
C211	C	0.555554	0.283465	0.716548
C212	C	0.805554	0.533465	0.966548
C213	C	0.032098	-0.245310	0.245225
C214	C	0.282098	0.004690	0.495225
C215	C	0.532098	0.254690	0.745225
C216	C	0.782098	0.504690	0.995225
C217	C	0.055559	-0.274082	0.273898
C218	C	0.305559	-0.024082	0.523898
C219	C	0.555559	0.225918	0.773898
C220	C	0.805559	0.475918	1.023898
C221	C	0.102474	-0.274080	0.273891
C222	C	0.352474	-0.024080	0.523891
C223	C	0.602474	0.225920	0.773891
C224	C	0.852474	0.475920	1.023891
C225	C	0.102468	-0.158984	0.159196
C226	C	0.352468	0.091016	0.409196
C227	C	0.602468	0.341016	0.659196
C228	C	0.852468	0.591016	0.909196
C229	C	0.055552	-0.158989	0.159205
C230	C	0.305552	0.091011	0.409205
C231	C	0.555552	0.341011	0.659205
C232	C	0.805552	0.591011	0.909205
C233	C	0.032096	-0.187764	0.187881
C234	C	0.282096	0.062236	0.437881
C235	C	0.532096	0.312236	0.687881
C236	C	0.782096	0.562236	0.937881
C237	C	0.649086	-0.333250	0.216483
C238	C	0.899086	-0.083250	0.466483
C239	C	1.149086	0.166750	0.716483
C240	C	1.399086	0.416750	0.966483
C241	C	0.649098	-0.383185	0.216482
C242	C	0.899098	-0.133185	0.466482
C243	C	1.149098	0.116815	0.716482
C244	C	1.399098	0.366815	0.966482
C245	C	0.677885	-0.692797	0.245303
C246	C	0.927885	-0.442797	0.495303
C247	C	1.177885	-0.192797	0.745303
C248	C	1.427885	0.057203	0.995303
C249	C	0.677933	-0.880470	0.245330
C250	C	0.927933	-0.630470	0.495330
C251	C	1.177933	-0.380470	0.745330
C252	C	1.427933	-0.130470	0.995330
O253	O	0.702342	-0.904708	0.269807
O254	O	0.952342	-0.654708	0.519807
O255	O	1.202342	-0.404708	0.769807
O256	O	1.452342	-0.154708	1.019807
N257	N	0.649231	-0.903970	0.216570
N258	N	0.899231	-0.653970	0.466570
N259	N	1.149231	-0.403970	0.716570
N260	N	1.399231	-0.153970	0.966570
C261	C	0.620512	-0.880548	0.187804
C262	C	0.870512	-0.630548	0.437804
C263	C	1.120512	-0.380548	0.687804
C264	C	1.370512	-0.130548	0.937804
O265	O	0.596096	-0.904843	0.163346
O266	O	0.846096	-0.654843	0.413346
O267	O	1.096096	-0.404843	0.663346
O268	O	1.346096	-0.154843	0.913346
C269	C	0.620461	-0.692876	0.187780
C270	C	0.870461	-0.442876	0.437780
C271	C	1.120461	-0.192876	0.687780
C272	C	1.370461	0.057124	0.937780
C273	C	0.649169	-0.669379	0.216538
C274	C	0.899169	-0.419379	0.466538
C275	C	1.149169	-0.169379	0.716538
C276	C	1.399169	0.080621	0.966538
C277	C	0.706590	-0.669300	0.274059
C278	C	0.956590	-0.419300	0.524059
C279	C	1.206590	-0.169300	0.774059
C280	C	1.456590	0.080700	1.024059
C281	C	0.706579	-0.622384	0.274051
C282	C	0.956579	-0.372384	0.524051
C283	C	1.206579	-0.122384	0.774051
C284	C	1.456579	0.127616	1.024051
C285	C	0.677863	-0.598966	0.245286
C286	C	0.927863	-0.348966	0.495286
C287	C	1.177863	-0.098966	0.745286
C288	C	1.427863	0.151034	0.995286
C289	C	0.649158	-0.622463	0.216529
C290	C	0.899158	-0.372463	0.466529
C291	C	1.149158	-0.122463	0.716529
C292	C	1.399158	0.127537	0.966529
C293	C	0.591740	-0.669456	0.159016
C294	C	0.841740	-0.419456	0.409016
C295	C	1.091740	-0.169456	0.659016
C296	C	1.341740	0.080544	0.909016
C297	C	0.591729	-0.622535	0.159013
C298	C	0.841729	-0.372535	0.409013
C299	C	1.091729	-0.122535	0.659013
C300	C	1.341729	0.127465	0.909013
C301	C	0.620437	-0.599037	0.187771
C302	C	0.870437	-0.349037	0.437771
C303	C	1.120437	-0.099037	0.687771
C304	C	1.370437	0.150963	0.937771
C305	C	0.620431	-0.552130	0.187755
C306	C	0.870431	-0.302130	0.437755
C307	C	1.120431	-0.052130	0.687755
C308	C	1.370431	0.197870	0.937755
N309	N	0.649134	-0.528630	0.216515
N310	N	0.899134	-0.278630	0.466515
N311	N	1.149134	-0.028630	0.716515
N312	N	1.399134	0.221370	0.966515
C313	C	0.677850	-0.552048	0.245280
C314	C	0.927850	-0.302048	0.495280
C315	C	1.177850	-0.052048	0.745280
C316	C	1.427850	0.197952	0.995280
C317	C	0.620541	-0.979079	0.187818
C318	C	0.870541	-0.729079	0.437818
C319	C	1.120541	-0.479079	0.687818
C320	C	1.370541	-0.229079	0.937818
C321	C	0.620554	-1.025997	0.187824
C322	C	0.870554	-0.775997	0.437824
C323	C	1.120554	-0.525997	0.687824
C324	C	1.370554	-0.275997	0.937824
C325	C	0.677975	-1.025915	0.245351
C326	C	0.927975	-0.775915	0.495351
C327	C	1.177975	-0.525915	0.745351
C328	C	1.427975	-0.275915	0.995351
C329	C	0.677964	-0.978996	0.245342
C330	C	0.927964	-0.728996	0.495342
C331	C	1.177964	-0.478996	0.745342
C332	C	1.427964	-0.228996	0.995342
C333	C	0.649244	-0.955579	0.216578
C334	C	0.899244	-0.705579	0.466578
C335	C	1.149244	-0.455579	0.716578
C336	C	1.399244	-0.205579	0.966578
C337	C	0.677826	-0.453522	0.245259
C338	C	0.927826	-0.203522	0.495259
C339	C	1.177826	0.046478	0.745259
C340	C	1.427826	0.296478	0.995259
C341	C	0.677814	-0.406603	0.245247
C342	C	0.927814	-0.156603	0.495247
C343	C	1.177814	0.093397	0.745247
C344	C	1.427814	0.343397	0.995247
C345	C	0.620391	-0.406688	0.187722
C346	C	0.870391	-0.156688	0.437722
C347	C	1.120391	0.093312	0.687722
C348	C	1.370391	0.343312	0.937722
C349	C	0.620404	-0.453604	0.187732
C350	C	0.870404	-0.203604	0.437732
C351	C	1.120404	0.046396	0.687732
C352	C	1.370404	0.296396	0.937732
C353	C	0.649123	-0.477020	0.216505
C354	C	0.899123	-0.227020	0.466505
C355	C	1.149123	0.022980	0.716505
C356	C	1.399123	0.272980	0.966505
O357	O	0.596032	-0.527863	0.163295
O358	O	0.846032	-0.277863	0.413295
O359	O	1.096032	-0.027863	0.663295
O360	O	1.346032	0.222137	0.913295
O361	O	0.702255	-0.527746	0.269742
O362	O	0.952255	-0.277746	0.519742
O363	O	1.202255	-0.027746	0.769742
O364	O	1.452255	0.222254	1.019742
C365	C	0.677895	-0.739712	0.245312
C366	C	0.927895	-0.489712	0.495312
C367	C	1.177895	-0.239712	0.745312
C368	C	1.427895	0.010288	0.995312
C369	C	0.649190	-0.763210	0.216556
C370	C	0.899190	-0.513210	0.466556
C371	C	1.149190	-0.263210	0.716556
C372	C	1.399190	-0.013210	0.966556
C373	C	0.620474	-0.739792	0.187790
C374	C	0.870474	-0.489792	0.437790
C375	C	1.120474	-0.239792	0.687790
C376	C	1.370474	0.010208	0.937790
C377	C	0.649203	-0.810128	0.216561
C378	C	0.899203	-0.560128	0.466561
C379	C	1.149203	-0.310128	0.716561
C380	C	1.399203	-0.060128	0.966561
C381	C	0.677919	-0.833546	0.245326
C382	C	0.927919	-0.583546	0.495326
C383	C	1.177919	-0.333546	0.745326
C384	C	1.427919	-0.083546	0.995326
C385	C	0.706622	-0.810046	0.274086
C386	C	0.956622	-0.560046	0.524086
C387	C	1.206622	-0.310046	0.774086
C388	C	1.456622	-0.060046	1.024086
C389	C	0.706611	-0.763130	0.274077
C390	C	0.956611	-0.513130	0.524077
C391	C	1.206611	-0.263130	0.774077
C392	C	1.456611	-0.013130	1.024077
C393	C	0.591772	-0.763291	0.159031
C394	C	0.841772	-0.513291	0.409031
C395	C	1.091772	-0.263291	0.659031
C396	C	1.341772	-0.013291	0.909031
C397	C	0.591785	-0.810207	0.159041
C398	C	0.841785	-0.560207	0.409041
C399	C	1.091785	-0.310207	0.659041
C400	C	1.341785	-0.060207	0.909041
C401	C	0.620501	-0.833625	0.187807
C402	C	0.870501	-0.583625	0.437807
C403	C	1.120501	-0.333625	0.687807
C404	C	1.370501	-0.083625	0.937807
C405	C	0.766333	-0.216547	0.216553
C406	C	1.016333	0.033453	0.466553
C407	C	1.266333	0.283453	0.716553
C408	C	1.516333	0.533453	0.966553
C409	C	0.816267	-0.216555	0.216567
C410	C	1.066267	0.033445	0.466567
C411	C	1.316267	0.283445	0.716567
C412	C	1.566267	0.533445	0.966567
C413	C	0.649167	-0.216524	0.333699
C414	C	0.899167	0.033476	0.583699
C415	C	1.149167	0.283476	0.833699
C416	C	1.399167	0.533476	1.083699
C417	C	0.649172	-0.216522	0.383633
C418	C	0.899172	0.033478	0.633633
C419	C	1.149172	0.283478	0.883633
C420	C	1.399172	0.533478	1.133633
C421	C	0.649235	-0.099349	0.216568
C422	C	0.899235	0.150651	0.466568
C423	C	1.149235	0.400651	0.716568
C424	C	1.399235	0.650651	0.966568
C425	C	0.649270	-0.049415	0.216589
C426	C	0.899270	0.200585	0.466589
C427	C	1.149270	0.450585	0.716589
C428	C	1.399270	0.700585	0.966589
C429	C	0.649168	-0.216499	0.099798
C430	C	0.899168	0.033501	0.349798
C431	C	1.149168	0.283501	0.599798
C432	C	1.399168	0.533501	0.849798
C433	C	0.649250	-0.216374	0.049864
C434	C	0.899250	0.033626	0.299864
C435	C	1.149250	0.283626	0.549864
C436	C	1.399250	0.533626	0.799864
C437	C	0.677955	-0.187718	0.693300
C438	C	0.927955	0.062282	0.943300
C439	C	1.177955	0.312282	1.193300
C440	C	1.427955	0.562282	1.443300
C441	C	0.677978	-0.187680	0.880973
C442	C	0.927978	0.062320	1.130973
C443	C	1.177978	0.312320	1.380973
C444	C	1.427978	0.562320	1.630973
O445	O	0.702417	-0.163232	0.905257
O446	O	0.952417	0.086768	1.155257
O447	O	1.202417	0.336768	1.405257
O448	O	1.452417	0.586768	1.655257
N449	N	0.649231	-0.216402	0.904419
N450	N	0.899231	0.033598	1.154419
N451	N	1.149231	0.283598	1.404419
N452	N	1.399231	0.533598	1.654419
C453	C	0.620475	-0.245133	0.880943
C454	C	0.870475	0.004867	1.130943
C455	C	1.120475	0.254867	1.380943
C456	C	1.370475	0.504867	1.630943
O457	O	0.596022	-0.269559	0.905192
O458	O	0.846022	-0.019559	1.155192
O459	O	1.096022	0.230441	1.405192
O460	O	1.346022	0.480441	1.655192
C461	C	0.620451	-0.245169	0.693271
C462	C	0.870451	0.004831	0.943271
C463	C	1.120451	0.254831	1.193271
C464	C	1.370451	0.504831	1.443271
C465	C	0.649202	-0.216448	0.669828
C466	C	0.899202	0.033552	0.919828
C467	C	1.149202	0.283552	1.169828
C468	C	1.399202	0.533552	1.419828
C469	C	0.706704	-0.158999	0.669856
C470	C	0.956704	0.091001	0.919856
C471	C	1.206704	0.341001	1.169856
C472	C	1.456704	0.591001	1.419856
C473	C	0.706700	-0.159011	0.622941
C474	C	0.956700	0.090989	0.872941
C475	C	1.206700	0.340989	1.122941
C476	C	1.456700	0.590989	1.372941
C477	C	0.677947	-0.187741	0.599469
C478	C	0.927947	0.062259	0.849469
C479	C	1.177947	0.312259	1.099469
C480	C	1.427947	0.562259	1.349469
C481	C	0.649198	-0.216460	0.622912
C482	C	0.899198	0.033540	0.872912
C483	C	1.149198	0.283540	1.122912
C484	C	1.399198	0.533540	1.372912
C485	C	0.591693	-0.273898	0.669797
C486	C	0.841693	-0.023898	0.919797
C487	C	1.091693	0.226102	1.169797
C488	C	1.341693	0.476102	1.419797
C489	C	0.591689	-0.273903	0.622876
C490	C	0.841689	-0.023903	0.872876
C491	C	1.091689	0.226097	1.122876
C492	C	1.341689	0.476097	1.372876
C493	C	0.620440	-0.245183	0.599432
C494	C	0.870440	0.004817	0.849432
C495	C	1.120440	0.254817	1.099432
C496	C	1.370440	0.504817	1.349432
C497	C	0.620441	-0.245202	0.552525
C498	C	0.870441	0.004798	0.802525
C499	C	1.120441	0.254798	1.052525
C500	C	1.370441	0.504798	1.302525
N501	N	0.649188	-0.216480	0.529079
N502	N	0.899188	0.033520	0.779079
N503	N	1.149188	0.283520	1.029079
N504	N	1.399188	0.533520	1.279079
C505	C	0.677941	-0.187749	0.552551
C506	C	0.927941	0.062251	0.802551
C507	C	1.177941	0.312251	1.052551
C508	C	1.427941	0.562251	1.302551
C509	C	0.620491	-0.245113	0.979474
C510	C	0.870491	0.004887	1.229474
C511	C	1.120491	0.254887	1.479474
C512	C	1.370491	0.504887	1.729474
C513	C	0.620497	-0.245105	1.026392
C514	C	0.870497	0.004895	1.276392
C515	C	1.120497	0.254895	1.526392
C516	C	1.370497	0.504895	1.776392
C517	C	0.677999	-0.187650	1.026418
C518	C	0.927999	0.062350	1.276418
C519	C	1.177999	0.312350	1.526418
C520	C	1.427999	0.562350	1.776418
C521	C	0.677994	-0.187661	0.979499
C522	C	0.927994	0.062339	1.229499
C523	C	1.177994	0.312339	1.479499
C524	C	1.427994	0.562339	1.729499
C525	C	0.649237	-0.216391	0.956028
C526	C	0.899237	0.033609	1.206028
C527	C	1.149237	0.283609	1.456028
C528	C	1.399237	0.533609	1.706028
C529	C	0.677930	-0.187776	0.454025
C530	C	0.927930	0.062224	0.704025
C531	C	1.177930	0.312224	0.954025
C532	C	1.427930	0.562224	1.204025
C533	C	0.677925	-0.187792	0.407105
C534	C	0.927925	0.062208	0.657105
C535	C	1.177925	0.312208	0.907105
C536	C	1.427925	0.562208	1.157105
C537	C	0.620421	-0.245244	0.407083
C538	C	0.870421	0.004756	0.657083
C539	C	1.120421	0.254756	0.907083
C540	C	1.370421	0.504756	1.157083
C541	C	0.620428	-0.245230	0.453999
C542	C	0.870428	0.004770	0.703999
C543	C	1.120428	0.254770	0.953999
C544	C	1.370428	0.504770	1.203999
C545	C	0.649184	-0.216493	0.477469
C546	C	0.899184	0.033507	0.727469
C547	C	1.149184	0.283507	0.977469
C548	C	1.399184	0.533507	1.227469
O549	O	0.596011	-0.269633	0.528212
O550	O	0.846011	-0.019633	0.778212
O551	O	1.096011	0.230367	1.028212
O552	O	1.346011	0.480367	1.278212
O553	O	0.702383	-0.163320	0.528294
O554	O	0.952383	0.086680	0.778294
O555	O	1.202383	0.336680	1.028294
O556	O	1.452383	0.586680	1.278294
C557	C	0.677959	-0.187706	0.740215
C558	C	0.927959	0.062294	0.990215
C559	C	1.177959	0.312294	1.240215
C560	C	1.427959	0.562294	1.490215
C561	C	0.649211	-0.216425	0.763659
C562	C	0.899211	0.033575	1.013659
C563	C	1.149211	0.283575	1.263659
C564	C	1.399211	0.533575	1.513659
C565	C	0.620458	-0.245155	0.740187
C566	C	0.870458	0.004845	0.990187
C567	C	1.120458	0.254845	1.240187
C568	C	1.370458	0.504845	1.490187
C569	C	0.649217	-0.216417	0.810577
C570	C	0.899217	0.033583	1.060577
C571	C	1.149217	0.283583	1.310577
C572	C	1.399217	0.533583	1.560577
C573	C	0.677970	-0.187686	0.834049
C574	C	0.927970	0.062314	1.084049
C575	C	1.177970	0.312314	1.334049
C576	C	1.427970	0.562314	1.584049
C577	C	0.706717	-0.158964	0.810603
C578	C	0.956717	0.091036	1.060603
C579	C	1.206717	0.341036	1.310603
C580	C	1.456717	0.591036	1.560603
C581	C	0.706712	-0.158976	0.763687
C582	C	0.956712	0.091024	1.013687
C583	C	1.206712	0.341024	1.263687
C584	C	1.456712	0.591024	1.513687
C585	C	0.591711	-0.273877	0.763633
C586	C	0.841711	-0.023877	1.013633
C587	C	1.091711	0.226123	1.263633
C588	C	1.341711	0.476123	1.513633
C589	C	0.591718	-0.273864	0.810548
C590	C	0.841718	-0.023864	1.060548
C591	C	1.091718	0.226136	1.310548
C592	C	1.341718	0.476136	1.560548
C593	C	0.620471	-0.245133	0.834020
C594	C	0.870471	0.004867	1.084020
C595	C	1.120471	0.254867	1.334020
C596	C	1.370471	0.504867	1.584020
H597	H	0.478139	-0.164309	0.164463
H598	H	0.728139	0.085691	0.414463
H599	H	0.978139	0.335691	0.664463
H600	H	1.228139	0.585691	0.914463
Br601	Br	0.552657	-0.312894	0.591025
Br602	Br	0.802657	-0.062894	0.841025
Br603	Br	1.052657	0.187106	1.091025
Br604	Br	1.302657	0.437106	1.341025
H605	H	0.597182	-1.045124	0.164401
H606	H	0.847182	-0.795124	0.414401
H607	H	1.097182	-0.545124	0.664401
H608	H	1.347182	-0.295124	0.914401
H609	H	-0.179372	-0.164352	0.164539
H610	H	0.070628	0.085648	0.414539
H611	H	0.320628	0.335648	0.664539
H612	H	0.570628	0.585648	0.914539
Br613	Br	0.581411	-0.284212	0.485816
Br614	Br	0.831411	-0.034212	0.735816
Br615	Br	1.081411	0.215788	0.985816
Br616	Br	1.331411	0.465788	1.235816
Br617	Br	0.552776	-0.701333	0.119985
Br618	Br	0.802776	-0.451333	0.369985
Br619	Br	1.052776	-0.201333	0.619985
Br620	Br	1.302776	0.048667	0.869985
Br621	Br	0.134294	-0.119926	0.120275
Br622	Br	0.384294	0.130074	0.370275
Br623	Br	0.634294	0.380074	0.620275
Br624	Br	0.884294	0.630074	0.870275
H625	H	0.729954	-0.603255	0.297470
H626	H	0.979954	-0.353255	0.547470
H627	H	1.229954	-0.103255	0.797470
H628	H	1.479954	0.146745	1.047470
H629	H	0.730130	-0.135573	0.829722
H630	H	0.980130	0.114427	1.079722
H631	H	1.230130	0.364427	1.329722
H632	H	1.480130	0.614427	1.579722
Br633	Br	0.581422	-0.374898	0.148684
Br634	Br	0.831422	-0.124898	0.398684
Br635	Br	1.081422	0.125102	0.648684
Br636	Br	1.331422	0.375102	0.898684
Br637	Br	0.716778	-0.374716	0.284277
Br638	Br	0.966778	-0.124716	0.534277
Br639	Br	1.216778	0.125284	0.784277
Br640	Br	1.466778	0.375284	1.034277
H641	H	0.597153	-0.960016	0.164394
H642	H	0.847153	-0.710016	0.414394
H643	H	1.097153	-0.460016	0.664394
H644	H	1.347153	-0.210016	0.914394
Br645	Br	0.552748	-0.590757	0.119974
Br646	Br	0.802748	-0.340757	0.369974
Br647	Br	1.052748	-0.090757	0.619974
Br648	Br	1.302748	0.159243	0.869974
H649	H	0.701208	-0.472582	0.268692
H650	H	0.951208	-0.222582	0.518692
H651	H	1.201208	0.027418	0.768692
H652	H	1.451208	0.277418	1.018692
Br653	Br	0.581401	-0.284233	0.375219
Br654	Br	0.831401	-0.034233	0.625219
Br655	Br	1.081401	0.215767	0.875219
Br656	Br	1.331401	0.465767	1.125219
H657	H	0.730005	-0.829121	0.297506
H658	H	0.980005	-0.579121	0.547506
H659	H	1.230005	-0.329121	0.797506
H660	H	1.480005	-0.079121	1.047506
H661	H	0.729974	-0.688362	0.297486
H662	H	0.979974	-0.438362	0.547486
H663	H	1.229974	-0.188362	0.797486
H664	H	1.479974	0.061638	1.047486
H665	H	0.730125	-0.135588	0.744604
H666	H	0.980125	0.114412	0.994604
H667	H	1.230125	0.364412	1.244604
H668	H	1.480125	0.614412	1.494604
Br669	Br	0.552698	-0.312850	0.842358
Br670	Br	0.802698	-0.062850	1.092358
Br671	Br	1.052698	0.187150	1.342358
Br672	Br	1.302698	0.437150	1.592358
H673	H	0.568297	-0.297274	0.744526
H674	H	0.818297	-0.047274	0.994526
H675	H	1.068297	0.202726	1.244526
H676	H	1.318297	0.452726	1.494526
Br677	Br	0.023721	-0.119933	0.120287
Br678	Br	0.273721	0.130067	0.370287
Br679	Br	0.523721	0.380067	0.620287
Br680	Br	0.773721	0.630067	0.870287
Br681	Br	0.552823	-0.842090	0.120006
Br682	Br	0.802823	-0.592090	0.370006
Br683	Br	1.052823	-0.342090	0.620006
Br684	Br	1.302823	-0.092090	0.870006
H685	H	-0.094265	-0.164339	0.164534
H686	H	0.155735	0.085661	0.414534
H687	H	0.405735	0.335661	0.664534
H688	H	0.655735	0.585661	0.914534
Br689	Br	0.716949	-0.148813	0.375292
Br690	Br	0.966949	0.101187	0.625292
Br691	Br	1.216949	0.351187	0.875292
Br692	Br	1.466949	0.601187	1.125292
Br693	Br	-0.081521	-0.284382	0.284148
Br694	Br	0.168479	-0.034382	0.534148
Br695	Br	0.418479	0.215618	0.784148
Br696	Br	0.668479	0.465618	1.034148
H697	H	0.729988	-0.744002	0.297495
H698	H	0.979988	-0.494002	0.547495
H699	H	1.229988	-0.244002	0.797495
H700	H	1.479988	0.005998	1.047495
Br701	Br	0.716926	-0.947112	0.284373
Br702	Br	0.966926	-0.697112	0.534373
Br703	Br	1.216926	-0.447112	0.784373
Br704	Br	1.466926	-0.197112	1.034373
Br705	Br	0.275055	-0.119906	0.120265
Br706	Br	0.525055	0.130094	0.370265
Br707	Br	0.775055	0.380094	0.620265
Br708	Br	1.025055	0.630094	0.870265
Br709	Br	0.716953	-0.148772	0.485869
Br710	Br	0.966953	0.101228	0.735869
Br711	Br	1.216953	0.351228	0.985869
Br712	Br	1.466953	0.601228	1.235869
Br713	Br	0.745737	-0.120008	0.701702
Br714	Br	0.995737	0.129992	0.951702
Br715	Br	1.245737	0.379992	1.201702
Br716	Br	1.495737	0.629992	1.451702
Br717	Br	0.581450	-0.485494	0.148696
Br718	Br	0.831450	-0.235494	0.398696
Br719	Br	1.081450	0.014506	0.648696
Br720	Br	1.331450	0.264506	0.898696
H721	H	0.701357	-1.044990	0.268772
H722	H	0.951357	-0.794990	0.518772
H723	H	1.201357	-0.544990	0.768772
H724	H	1.451357	-0.294990	1.018772
H725	H	0.568280	-0.297285	0.688876
H726	H	0.818280	-0.047285	0.938876
H727	H	1.068280	0.202715	1.188876
H728	H	1.318280	0.452715	1.438876
H729	H	0.478139	-0.268721	0.268510
H730	H	0.728139	-0.018721	0.518510
H731	H	0.978139	0.231279	0.768510
H732	H	1.228139	0.481279	1.018510
Br733	Br	0.134304	-0.313136	0.312804
Br734	Br	0.384304	-0.063136	0.562804
Br735	Br	0.634304	0.186864	0.812804
Br736	Br	0.884304	0.436864	1.062804
H737	H	0.568387	-0.744228	0.135607
H738	H	0.818387	-0.494228	0.385607
H739	H	1.068387	-0.244228	0.635607
H740	H	1.318387	0.005772	0.885607
Br741	Br	0.023716	-0.313137	0.312812
Br742	Br	0.273716	-0.063137	0.562812
Br743	Br	0.523716	0.186863	0.812812
Br744	Br	0.773716	0.436863	1.062812
Br745	Br	0.581458	-0.284107	0.947627
Br746	Br	0.831458	-0.034107	1.197627
Br747	Br	1.081458	0.215893	1.447627
Br748	Br	1.331458	0.465893	1.697627
H749	H	0.701411	-0.164257	1.045537
H750	H	0.951411	0.085743	1.295537
H751	H	1.201411	0.335743	1.545537
H752	H	1.451411	0.585743	1.795537
Br753	Br	0.745719	-0.120028	0.591132
Br754	Br	0.995719	0.129972	0.841132
Br755	Br	1.245719	0.379972	1.091132
Br756	Br	1.495719	0.629972	1.341132
Br757	Br	0.717016	-0.148682	0.947688
Br758	Br	0.967016	0.101318	1.197688
Br759	Br	1.217016	0.351318	1.447688
Br760	Br	1.467016	0.601318	1.697688
H761	H	0.393030	-0.268723	0.268530
H762	H	0.643030	-0.018723	0.518530
H763	H	0.893030	0.231277	0.768530
H764	H	1.143030	0.481277	1.018530
Br765	Br	0.275051	-0.313128	0.312785
Br766	Br	0.525051	-0.063128	0.562785
Br767	Br	0.775051	0.186872	0.812785
Br768	Br	1.025051	0.436872	1.062785
H769	H	0.597090	-0.268497	1.045476
H770	H	0.847090	-0.018497	1.295476
H771	H	1.097090	0.231503	1.545476
H772	H	1.347090	0.481503	1.795476
H773	H	0.177212	-0.297509	0.297231
H774	H	0.427212	-0.047509	0.547231
H775	H	0.677212	0.202491	0.797231
H776	H	0.927212	0.452491	1.047231
H777	H	0.177211	-0.135539	0.135836
H778	H	0.427211	0.114461	0.385836
H779	H	0.677211	0.364461	0.635836
H780	H	0.927211	0.614461	0.885836
Br781	Br	-0.192115	-0.284379	0.284163
Br782	Br	0.057885	-0.034379	0.534163
Br783	Br	0.307885	0.215621	0.784163
Br784	Br	0.557885	0.465621	1.034163
H785	H	0.393015	-0.164309	0.164474
H786	H	0.643015	0.085691	0.414474
H787	H	0.893015	0.335691	0.664474
H788	H	1.143015	0.585691	0.914474
