data_functionalizedCrystal
_audit_creation_method	'MofGen! by Chris Wilmer'
_symmetry_space_group_name_H-M	'P1'
_symmetry_Int_Tables_number	1
_symmetry_cell_setting	triclinic
loop_
_symmetry_equiv_pos_as_xyz
  x,y,z
_cell_length_a	12.759401
_cell_length_b	10.686285
_cell_length_c	12.759393
_cell_angle_alpha	85.601997
_cell_angle_beta	89.981433
_cell_angle_gamma	85.630864
loop_
_atom_site_label
_atom_site_type_symbol
_atom_site_fract_x
_atom_site_fract_y
_atom_site_fract_z
Zn1	Zn	1.638395	-0.502309	-0.561963
Zn2	Zn	1.651792	-0.713353	-0.372830
Zn3	Zn	1.462701	-0.502371	-0.386299
Zn4	Zn	1.476182	-0.713252	-0.548478
O5	O	1.557267	-0.607821	-0.467393
O6	O	1.787194	-0.530321	-0.536882
O7	O	1.626674	-0.685434	-0.227592
O8	O	1.474758	-0.325786	-0.420881
O9	O	1.797037	-0.685374	-0.397926
O10	O	1.603840	-0.325740	-0.549941
O11	O	1.487749	-0.530427	-0.237487
O12	O	1.317467	-0.530328	-0.407805
O13	O	1.497735	-0.685202	-0.697292
O14	O	1.327372	-0.685262	-0.526958
O15	O	1.616912	-0.530223	-0.707200
O16	O	1.639746	-0.889917	-0.384850
O17	O	1.510726	-0.889842	-0.513898
C18	C	1.284298	-0.607792	-0.467380
C19	C	1.167523	-0.607809	-0.467398
C20	C	1.107538	-0.527226	-0.539846
C21	C	0.997816	-0.527250	-0.539851
C22	C	1.008073	-0.688452	-0.394956
C23	C	1.117793	-0.688421	-0.394947
C24	C	1.101616	-0.434160	-0.623503
C25	C	0.991893	-0.434184	-0.623508
C26	C	1.578181	-0.935664	-0.446472
C27	C	1.587225	-1.075916	-0.437558
C28	C	1.831303	-0.607852	-0.467406
C29	C	1.948080	-0.607865	-0.467412
C30	C	1.557333	-0.607694	-0.741434
C31	C	1.557361	-0.607640	-0.858214
C32	C	1.536300	-0.278698	-0.488418
C33	C	1.527365	-0.138446	-0.497377
C34	C	1.619425	-0.526935	-0.918238
C35	C	1.619447	-0.526889	-1.027965
C36	C	1.495338	-0.688265	-1.017635
C37	C	1.495311	-0.688303	-0.907910
C38	C	1.691082	-0.433769	-0.924202
C39	C	1.691104	-0.433724	-1.033929
C40	C	1.557257	-0.607857	-0.194423
C41	C	1.557410	-0.607556	-0.077666
H42	H	0.967569	-0.754084	-0.335969
O43	O	1.458125	-1.074259	-0.566737
C44	C	1.513040	-0.997884	-0.639428
H45	H	1.598312	-1.037597	-0.643492
H46	H	1.474893	-0.996224	-0.720353
H47	H	1.510320	-0.898075	-0.613219
H48	H	1.656049	-0.340873	-1.073896
O49	O	1.656762	-1.140087	-0.368475
C50	C	1.729415	-1.216205	-0.423588
H51	H	1.733271	-1.176337	-0.508852
H52	H	1.810404	-1.217745	-0.385599
H53	H	1.703320	-1.316082	-0.420880
H54	H	1.166628	-0.754028	-0.335943
O55	O	1.657710	-0.317255	-0.895944
C56	C	1.657723	-0.317524	-0.785425
H57	H	1.714740	-0.397253	-0.750678
H58	H	1.683216	-0.223755	-0.761511
H59	H	1.575228	-0.331780	-0.754717
O60	O	0.958262	-0.465286	-0.718568
C61	C	0.890544	-0.365910	-0.764889
H62	H	0.907417	-0.274331	-0.730124
H63	H	0.904020	-0.356577	-0.853381
H64	H	0.805438	-0.386461	-0.748619
O65	O	1.435161	-0.766753	-0.849490
C66	C	1.500138	-0.848319	-0.780825
H67	H	1.576926	-0.803848	-0.767228
H68	H	1.458392	-0.865246	-0.702588
H69	H	1.517639	-0.941816	-0.817134
H70	H	0.951909	-0.341311	-0.600429
H71	H	1.125127	-0.336393	-0.608082
H72	H	1.444818	-0.753935	-1.058111
H73	H	1.770595	-0.468804	-0.887933
O74	O	1.790100	-0.465093	-1.067597
C75	C	1.790369	-0.575152	-1.121911
H76	H	1.707813	-0.585775	-1.152450
H77	H	1.846999	-0.568230	-1.190875
H78	H	1.816513	-0.660447	-1.066330
O79	O	1.144877	-0.475834	-0.713077
C80	C	1.105638	-0.397301	-0.800348
H81	H	1.076941	-0.301307	-0.773570
H82	H	1.170723	-0.385461	-0.860716
H83	H	1.037521	-0.441631	-0.837327
