data_functionalizedCrystal
_audit_creation_method	'MofGen! by Chris Wilmer'
_symmetry_space_group_name_H-M	'P1'
_symmetry_Int_Tables_number	1
_symmetry_cell_setting	triclinic
loop_
_symmetry_equiv_pos_as_xyz
  x,y,z
_cell_length_a	19.288835
_cell_length_b	15.186229
_cell_length_c	19.288865
_cell_angle_alpha	89.994486
_cell_angle_beta	83.130103
_cell_angle_gamma	89.985929
loop_
_atom_site_label
_atom_site_type_symbol
_atom_site_fract_x
_atom_site_fract_y
_atom_site_fract_z
O1	O	-0.921363	0.073411	-0.086543
O2	O	-0.421363	0.573411	0.413457
O3	O	-0.719100	0.073377	-0.098254
O4	O	-0.219100	0.573377	0.401746
O5	O	-0.826076	0.073377	0.008732
O6	O	-0.326076	0.573377	0.508732
O7	O	-0.814387	0.073410	-0.193530
O8	O	-0.314387	0.573410	0.306470
O9	O	-0.826063	-0.073080	0.008726
O10	O	-0.326063	0.426920	0.508726
O11	O	-0.719087	-0.073081	-0.098260
O12	O	-0.219087	0.426919	0.401740
O13	O	-0.921351	-0.073046	-0.086550
O14	O	-0.421351	0.426954	0.413450
Zn15	Zn	-0.820217	-0.096317	-0.092406
Zn16	Zn	-0.320217	0.403683	0.407594
Zn17	Zn	-0.820233	0.096647	-0.092398
Zn18	Zn	-0.320233	0.596647	0.407602
O19	O	-0.814374	-0.073047	-0.193536
O20	O	-0.314374	0.426953	0.306464
C21	C	-0.693217	0.000143	-0.097884
C22	C	-0.193217	0.500143	0.402116
C23	C	-0.616112	0.000129	-0.096763
C24	C	-0.116112	0.500129	0.403237
N25	N	-0.820211	-0.228009	-0.092411
N26	N	-0.320211	0.271991	0.407589
C27	C	-0.579915	0.079964	-0.096221
C28	C	-0.079915	0.579964	0.403779
C29	C	-0.507468	0.079973	-0.095161
C30	C	-0.007468	0.579973	0.404839
C31	C	-0.471222	0.000142	-0.094628
C32	C	0.028778	0.500142	0.405372
C33	C	-0.507427	-0.079704	-0.095173
C34	C	-0.007427	0.420296	0.404827
C35	C	-0.579872	-0.079710	-0.096241
C36	C	-0.079872	0.420290	0.403759
C37	C	-0.361889	-0.061017	-0.052254
C38	C	0.138111	0.438983	0.447746
C39	C	-0.289446	-0.061007	-0.051182
C40	C	0.210554	0.438993	0.448818
C41	C	-0.247778	0.000158	-0.091338
C42	C	0.252222	0.500158	0.408662
C43	C	-0.278563	0.061328	-0.132556
C44	C	0.221437	0.561328	0.367444
C45	C	-0.351008	0.061322	-0.133624
C46	C	0.148992	0.561322	0.366376
C47	C	-0.392668	0.000140	-0.093470
C48	C	0.107332	0.500140	0.406530
C49	C	-0.133026	0.080008	-0.089647
C50	C	0.366974	0.580008	0.410353
C51	C	-0.060577	0.080013	-0.088590
C52	C	0.439423	0.580013	0.411410
C53	C	-0.060539	-0.079666	-0.088596
C54	C	0.439461	0.420334	0.411404
C55	C	-0.132985	-0.079669	-0.089660
C56	C	0.367015	0.420331	0.410340
C57	C	-0.169225	0.000171	-0.090181
C58	C	0.330775	0.500171	0.409819
C59	C	-0.862217	-0.453717	-0.134416
C60	C	-0.362217	0.046283	0.365584
C61	C	-0.862225	-0.545907	-0.134411
C62	C	-0.362225	-0.045907	0.365589
C63	C	-0.778237	-0.545946	-0.050378
C64	C	-0.278237	-0.045946	0.449622
C65	C	-0.778234	-0.453758	-0.050379
C66	C	-0.278234	0.046242	0.449621
C67	C	-0.820222	-0.407646	-0.092402
C68	C	-0.320222	0.092354	0.407598
C69	C	-0.820233	-0.592024	-0.092396
C70	C	-0.320233	-0.092024	0.407604
C71	C	-0.820241	-0.691980	-0.092390
C72	C	-0.320241	-0.191980	0.407610
C73	C	-0.820216	-0.307683	-0.092407
C74	C	-0.320216	0.192317	0.407593
C75	C	0.052767	0.000182	-0.086924
C76	C	0.552767	0.500182	0.413076
C77	C	-0.024336	0.000181	-0.088059
C78	C	0.475664	0.500181	0.411941
C79	C	-0.825694	0.000146	0.034606
C80	C	-0.325694	0.500146	0.534606
C81	C	-0.824565	0.000138	0.111709
C82	C	-0.324565	0.500138	0.611709
N83	N	-0.820245	0.228340	-0.092387
N84	N	-0.320245	0.728340	0.407613
C85	C	-0.814757	0.000186	-0.219409
C86	C	-0.314757	0.500186	0.280591
C87	C	-0.815886	0.000200	-0.296513
C88	C	-0.315886	0.500200	0.203487
C89	C	-0.887333	0.000145	0.156412
C90	C	-0.387333	0.500145	0.656412
C91	C	-0.886273	0.000158	0.228859
C92	C	-0.386273	0.500158	0.728859
C93	C	-0.822440	0.000148	0.256600
C94	C	-0.322440	0.500148	0.756600
C95	C	-0.759663	0.000146	0.211887
C96	C	-0.259663	0.500146	0.711887
C97	C	-0.760725	0.000142	0.139441
C98	C	-0.260725	0.500142	0.639441
C99	C	-0.772255	-0.051161	0.364880
C100	C	-0.272255	0.448839	0.864880
C101	C	-0.771195	-0.051162	0.437324
C102	C	-0.271195	0.448838	0.937324
C103	C	-0.819160	0.000167	0.480045
C104	C	-0.319160	0.500167	0.980045
C105	C	-0.868196	0.051485	0.450314
C106	C	-0.368196	0.551485	0.950314
C107	C	-0.869259	0.051480	0.377869
C108	C	-0.369259	0.551480	0.877869
C109	C	-0.821280	0.000154	0.335154
C110	C	-0.321280	0.500154	0.835154
C111	C	-0.880783	0.000190	0.603304
C112	C	-0.380783	0.500190	1.103304
C113	C	-0.879720	0.000209	0.675752
C114	C	-0.379720	0.500209	1.175752
C115	C	-0.753108	0.000188	0.658778
C116	C	-0.253108	0.500188	1.158778
C117	C	-0.754173	0.000178	0.586332
C118	C	-0.254173	0.500178	1.086332
C119	C	-0.818012	0.000174	0.558599
C120	C	-0.318012	0.500174	1.058599
H121	H	-0.609417	0.144976	-0.096647
H122	H	-0.109417	0.644976	0.403353
F123	F	-0.171511	-0.164641	-0.090232
F124	F	0.328489	0.335359	0.409768
H125	H	-0.477991	0.144986	-0.094721
H126	H	0.022009	0.644986	0.405279
F127	F	-0.906909	-0.404644	-0.179136
F128	F	-0.406909	0.095356	0.320864
H129	H	-0.031106	0.145027	-0.088154
H130	H	0.468894	0.645027	0.411846
F131	F	-0.406229	-0.126123	-0.009514
F132	F	0.093771	0.373877	0.490486
H133	H	-0.939316	0.000145	0.133837
H134	H	-0.439316	0.500145	0.633837
H135	H	-0.477911	-0.144703	-0.094741
H136	H	0.022089	0.355297	0.405259
H137	H	-0.744051	-0.583501	-0.016165
H138	H	-0.244051	-0.083501	0.483835
H139	H	-0.896422	-0.583414	-0.168621
H140	H	-0.396422	-0.083414	0.331379
H141	H	-0.744036	-0.416246	-0.016163
H142	H	-0.244036	0.083754	0.483837
F143	F	-0.719009	-0.105782	0.468959
F144	F	-0.219009	0.394218	0.968959
F145	F	-0.953082	0.000167	0.276444
F146	F	-0.453082	0.500167	0.776444
H147	H	-0.031028	-0.144666	-0.088166
H148	H	0.468972	0.355334	0.411834
F149	F	-0.948725	0.000182	0.573786
F150	F	-0.448725	0.500182	1.073786
F151	F	-0.921442	0.106099	0.346229
F152	F	-0.421442	0.606099	0.846229
F153	F	-0.383768	0.126419	-0.177492
F154	F	0.116232	0.626419	0.322508
H155	H	-0.264388	-0.110812	-0.017617
H156	H	0.235612	0.389188	0.482383
F157	F	-0.618397	-0.164685	-0.096818
F158	F	-0.118397	0.335315	0.403182
F159	F	-0.919248	0.106119	0.495775
F160	F	-0.419248	0.606119	0.995775
F161	F	-0.946531	0.000222	0.723329
F162	F	-0.446531	0.500222	1.223329
H163	H	-0.701133	0.000184	0.681363
H164	H	-0.201133	0.500184	1.181363
F165	F	-0.687365	0.000167	0.538753
F166	F	-0.187365	0.500167	1.038753
H167	H	-0.733194	-0.092965	0.330101
H168	H	-0.233194	0.407035	0.830101
F169	F	-0.691727	0.000141	0.241411
F170	F	-0.191727	0.500141	0.741411
H171	H	-0.709609	0.000136	0.103043
H172	H	-0.209609	0.500136	0.603043
H173	H	-0.162533	0.145018	-0.090079
H174	H	0.337467	0.645018	0.409921
F175	F	-0.234222	0.126428	-0.175298
F176	F	0.265778	0.626428	0.324702
