data_functionalizedCrystal
_audit_creation_method	'MofGen! by Chris Wilmer'
_symmetry_space_group_name_H-M	'P1'
_symmetry_Int_Tables_number	1
_symmetry_cell_setting	triclinic
loop_
_symmetry_equiv_pos_as_xyz
  x,y,z
_cell_length_a	15.944545
_cell_length_b	15.944493
_cell_length_c	15.021413
_cell_angle_alpha	89.990110
_cell_angle_beta	90.004532
_cell_angle_gamma	83.485608
loop_
_atom_site_label
_atom_site_type_symbol
_atom_site_fract_x
_atom_site_fract_y
_atom_site_fract_z
O1	O	1.114510	0.108299	0.073963
O2	O	0.869956	0.121661	0.073976
O3	O	0.998937	-0.007299	0.073976
O4	O	0.985529	0.237258	0.073962
O5	O	0.998916	-0.007280	-0.074088
O6	O	0.869936	0.121679	-0.074089
O7	O	1.114489	0.108317	-0.074102
Zn8	Zn	0.992209	0.115001	-0.097603
Zn9	Zn	0.992236	0.114977	0.097478
O10	O	0.985509	0.237276	-0.074102
C11	C	0.838652	0.121116	-0.000055
C12	C	0.745406	0.119456	-0.000049
C13	C	0.998378	-0.038584	-0.000052
C14	C	0.996735	-0.131833	-0.000041
C15	C	0.474791	0.034560	-0.000054
C16	C	0.525354	0.075499	-0.073061
C17	C	0.409764	0.113535	-0.000064
C18	C	0.525355	0.075502	0.072918
C19	C	0.574677	0.116440	-0.000055
C20	C	0.459098	0.154453	-0.073132
C21	C	0.459096	0.154445	0.072913
C22	C	0.509626	0.195442	-0.000113
C23	C	0.314762	0.111860	-0.000070
C24	C	0.669676	0.118122	-0.000056
C25	C	1.072656	-0.367594	-0.000062
C26	C	1.031725	-0.418171	0.072944
C27	C	0.993691	-0.302554	-0.000051
C28	C	1.031687	-0.418128	-0.073036
C29	C	0.990757	-0.467463	-0.000066
C30	C	0.952782	-0.351902	0.073014
C31	C	0.952755	-0.351856	-0.073031
C32	C	0.911766	-0.402400	-0.000008
C33	C	0.995384	-0.207554	-0.000042
C34	C	0.989058	-0.562460	-0.000068
C35	C	1.145793	0.108862	-0.000069
C36	C	1.239039	0.110522	-0.000069
C37	C	0.986067	0.268562	-0.000072
C38	C	0.987710	0.361811	-0.000077
N39	N	0.992197	0.115017	-0.230741
C40	C	0.932547	0.174620	-0.470425
C41	C	1.008445	0.190926	-0.529764
C42	C	0.992218	0.114996	-0.412348
C43	C	0.916342	0.098709	-0.529750
C44	C	0.992232	0.114978	-0.587772
C45	C	1.068154	0.131340	-0.470381
C46	C	0.976001	0.039090	-0.470362
C47	C	1.051953	0.055364	-0.529675
C48	C	0.992209	0.115009	-0.311291
C49	C	0.992250	0.114964	-0.688827
N50	N	0.992255	0.114954	0.230615
H51	H	0.459152	-0.033454	-0.000121
O52	O	1.071473	-0.452771	-0.146603
C53	C	1.068658	-0.540834	-0.146014
H54	H	1.059512	-0.562940	-0.074857
H55	H	1.130370	-0.573783	-0.173669
H56	H	1.013817	-0.556989	-0.189038
H57	H	0.852169	0.084942	-0.555830
O58	O	0.912904	-0.317557	0.146666
C59	C	0.828371	-0.335635	0.146856
H60	H	0.808166	-0.349003	0.075941
H61	H	0.786048	-0.279199	0.174475
H62	H	0.822541	-0.393318	0.190303
H63	H	0.554283	0.042153	-0.134780
H64	H	0.430273	0.187789	-0.134921
H65	H	0.525104	0.263508	-0.000159
O66	O	1.153743	-0.348781	-0.000033
C67	C	1.154201	-0.260409	-0.000801
H68	H	1.092001	-0.229419	-0.029292
H69	H	1.208704	-0.243359	-0.043784
H70	H	1.162270	-0.236989	0.070050
H71	H	0.430151	0.187761	0.134634
H72	H	0.554288	0.042128	0.134637
O73	O	0.912989	-0.317148	-0.146591
C74	C	0.914477	-0.228913	-0.145127
H75	H	0.922811	-0.207223	-0.073682
H76	H	0.852565	-0.196604	-0.173000
H77	H	0.969256	-0.211560	-0.187515
O78	O	1.071652	-0.452698	0.146505
C79	C	1.156405	-0.435318	0.146256
H80	H	1.176444	-0.422232	0.075213
H81	H	1.198423	-0.492000	0.173828
H82	H	1.162881	-0.377671	0.189524
H83	H	0.882136	0.225083	-0.444409
H84	H	1.022174	0.255110	-0.555856
H85	H	0.843695	-0.417864	0.000035
H86	H	0.962248	-0.025073	-0.444249
O87	O	1.112175	-0.004904	-0.560415
C88	C	1.095606	-0.084655	-0.528827
H89	H	1.055401	-0.076287	-0.466020
H90	H	1.157740	-0.124512	-0.512904
H91	H	1.060280	-0.117656	-0.582011
O92	O	1.144651	0.147940	-0.439260
C93	C	1.143706	0.147794	-0.345404
H94	H	1.075835	0.160939	-0.320861
H95	H	1.182061	0.198800	-0.319510
H96	H	1.172457	0.083526	-0.319946
