data_functionalizedCrystal
_audit_creation_method	'MofGen! by Chris Wilmer'
_symmetry_space_group_name_H-M	'P1'
_symmetry_Int_Tables_number	1
_symmetry_cell_setting	triclinic
loop_
_symmetry_equiv_pos_as_xyz
  x,y,z
_cell_length_a	12.837942
_cell_length_b	9.065218
_cell_length_c	8.140239
_cell_angle_alpha	90.002802
_cell_angle_beta	89.996939
_cell_angle_gamma	90.077587
loop_
_atom_site_label
_atom_site_type_symbol
_atom_site_fract_x
_atom_site_fract_y
_atom_site_fract_z
O1	O	0.152196	-1.978903	-0.136617
O2	O	0.652196	-1.478903	0.363383
O3	O	0.164680	-1.551136	-0.136619
O4	O	0.664680	-1.051136	0.363381
O5	O	0.007446	-1.755534	-0.136608
O6	O	0.507446	-1.255534	0.363392
O7	O	0.309430	-1.774505	-0.136628
O8	O	0.809430	-1.274505	0.363372
O9	O	0.007444	-1.755521	0.136619
O10	O	0.507444	-1.255521	0.636619
O11	O	0.164678	-1.551123	0.136608
O12	O	0.664678	-1.051123	0.636608
O13	O	0.152194	-1.978890	0.136610
O14	O	0.652194	-1.478890	0.636610
Zn15	Zn	0.158436	-1.765005	0.179990
Zn16	Zn	0.658436	-1.265005	0.679990
Zn17	Zn	0.158439	-1.765021	-0.179999
Zn18	Zn	0.658439	-1.265021	0.320001
O19	O	0.309428	-1.774492	0.136599
O20	O	0.809428	-1.274492	0.636599
C21	C	0.163479	-1.495997	-0.000006
C22	C	0.663479	-0.995997	0.499994
C23	C	0.159892	-1.331718	-0.000007
C24	C	0.659892	-0.831718	0.499993
C25	C	-0.031235	-1.749119	0.000004
C26	C	0.468765	-1.249119	0.500004
C27	C	-0.146492	-1.730006	0.000002
C28	C	0.353508	-1.230006	0.500002
N29	N	0.158434	-1.765004	0.425672
N30	N	0.658434	-1.265004	0.925672
C31	C	-0.385293	-1.959783	-0.000031
C32	C	0.114707	-1.459783	0.499969
C33	C	-0.493587	-1.941831	-0.000034
C34	C	0.006413	-1.441831	0.499966
C35	C	-0.471377	-1.676152	-0.000019
C36	C	0.028623	-1.176152	0.499981
C37	C	-0.363083	-1.694104	-0.000016
C38	C	0.136917	-1.194104	0.499984
C39	C	-0.320045	-1.835924	-0.000020
C40	C	0.179955	-1.335924	0.499980
C41	C	-0.211748	-1.853874	-0.000005
C42	C	0.288252	-1.353874	0.499995
C43	C	-0.189540	-1.588196	-0.000001
C44	C	0.310460	-1.088196	0.499999
C45	C	-0.297835	-1.570245	-0.000004
C46	C	0.202165	-1.070245	0.499996
C47	C	0.348110	-1.780907	-0.000017
C48	C	0.848110	-1.280907	0.499983
C49	C	0.463366	-1.800020	-0.000025
C50	C	0.963366	-1.300020	0.499975
C51	C	0.153395	-2.034029	-0.000007
C52	C	0.653395	-1.534029	0.499993
C53	C	0.156983	-2.198308	-0.000017
C54	C	0.656983	-1.698308	0.499983
N55	N	0.158433	-1.765033	-0.425681
N56	N	0.658433	-1.265033	0.074319
H57	H	-0.176709	-1.969351	-0.000002
H58	H	0.323291	-1.469351	0.499998
H59	H	-0.546709	-2.042690	-0.000049
H60	H	-0.046709	-1.542690	0.499951
H61	H	-0.506438	-1.560688	-0.000033
H62	H	-0.006438	-1.060688	0.499967
H63	H	-0.350251	-2.075258	-0.000019
H64	H	0.149749	-1.575258	0.499981
H65	H	-0.332891	-1.454779	-0.000007
H66	H	0.167109	-0.954779	0.499993
O67	O	-0.126008	-1.468027	-0.000069
O68	O	0.373992	-0.968027	0.499931
C69	C	-0.021194	-1.514276	-0.000020
C70	C	0.478806	-1.014276	0.499980
H71	H	-0.015942	-1.630891	-0.051752
H72	H	0.484058	-1.130891	0.448248
H73	H	0.027061	-1.436262	-0.079337
H74	H	0.527061	-0.936262	0.420663
H75	H	0.010055	-1.513072	0.131064
H76	H	0.510055	-1.013072	0.631064
