data_functionalizedCrystal
_audit_creation_method	'MofGen! by Chris Wilmer'
_symmetry_space_group_name_H-M	'P1'
_symmetry_Int_Tables_number	1
_symmetry_cell_setting	triclinic
loop_
_symmetry_equiv_pos_as_xyz
  x,y,z
_cell_length_a	11.169417
_cell_length_b	14.908178
_cell_length_c	11.169409
_cell_angle_alpha	93.334554
_cell_angle_beta	90.019513
_cell_angle_gamma	93.315343
loop_
_atom_site_label
_atom_site_type_symbol
_atom_site_fract_x
_atom_site_fract_y
_atom_site_fract_z
Zn1	Zn	1.807332	-0.359087	0.650915
Zn2	Zn	2.307332	0.140913	1.150915
Zn3	Zn	1.795609	-0.509994	0.438625
Zn4	Zn	2.295609	-0.009994	0.938625
Zn5	Zn	1.606613	-0.359143	0.450246
Zn6	Zn	2.106613	0.140857	0.950246
Zn7	Zn	1.595019	-0.509921	0.639277
Zn8	Zn	2.095019	-0.009921	1.139277
O9	O	1.701143	-0.434536	0.544766
O10	O	2.201143	0.065464	1.044766
O11	O	1.973726	-0.379112	0.622761
O12	O	2.473726	0.120888	1.122761
O13	O	1.770485	-0.490037	0.272213
O14	O	2.270485	0.009963	0.772213
O15	O	1.642997	-0.232880	0.486599
O16	O	2.142997	0.267120	0.986599
O17	O	1.965114	-0.489982	0.466793
O18	O	2.465114	0.010018	0.966793
O19	O	1.790464	-0.232839	0.634029
O20	O	2.290464	0.267161	1.134029
O21	O	1.631631	-0.379208	0.280750
O22	O	2.131631	0.120792	0.780750
O23	O	1.437126	-0.379137	0.475314
O24	O	1.937126	0.120863	0.975314
O25	O	1.623236	-0.489859	0.808775
O26	O	2.123236	0.010141	1.308775
O27	O	1.428608	-0.489913	0.614194
O28	O	1.928608	0.010087	1.114194
O29	O	1.779222	-0.379042	0.817325
O30	O	2.279222	0.120958	1.317325
O31	O	1.759243	-0.636240	0.455508
O32	O	2.259243	-0.136240	0.955508
O33	O	1.611870	-0.636187	0.602926
O34	O	2.111870	-0.136187	1.102926
C35	C	1.389320	-0.434524	0.544753
C36	C	1.889320	0.065476	1.044753
C37	C	1.255918	-0.434541	0.544774
C38	C	1.755918	0.065459	1.044774
C39	C	1.683059	-0.668950	0.526719
C40	C	2.183059	-0.168950	1.026719
C41	C	1.675432	-0.769233	0.519039
C42	C	2.175432	-0.269233	1.019039
C43	C	1.814541	-0.957483	0.658292
C44	C	2.314541	-0.457483	1.158292
C45	C	1.807379	-1.051708	0.651080
C46	C	2.307379	-0.551708	1.151080
C47	C	1.653940	-1.051909	0.497410
C48	C	2.153940	-0.551909	0.997410
C49	C	1.661102	-0.957684	0.504622
C50	C	2.161102	-0.457684	1.004622
C51	C	1.741406	-0.910474	0.585064
C52	C	2.241406	-0.410474	1.085064
C53	C	1.748574	-0.816248	0.592270
C54	C	2.248574	-0.316248	1.092270
C55	C	1.595130	-0.816451	0.438607
C56	C	2.095130	-0.316451	0.938607
C57	C	1.587968	-0.910676	0.431395
C58	C	2.087968	-0.410676	0.931395
C59	C	2.014185	-0.434549	0.544779
C60	C	2.514185	0.065451	1.044779
C61	C	2.147584	-0.434555	0.544785
C62	C	2.647584	0.065445	1.044785
C63	C	1.701243	-0.434436	0.857816
C64	C	2.201243	0.065564	1.357816
C65	C	1.701286	-0.434393	0.991219
C66	C	2.201286	0.065607	1.491219
C67	C	1.719332	-0.199207	0.562909
C68	C	2.219332	0.300793	1.062909
C69	C	1.727082	-0.098924	0.570640
C70	C	2.227082	0.401076	1.070640
C71	C	1.701118	-0.434571	0.232938
C72	C	2.201118	0.065429	0.732938
C73	C	1.701327	-0.434360	0.099555
C74	C	2.201327	0.065640	0.599555
H75	H	1.813965	-0.777810	0.657766
H76	H	2.313965	-0.277810	1.157766
Cl77	Cl	1.503193	-0.757350	0.346535
Cl78	Cl	2.003193	-0.257350	0.846535
Cl79	Cl	1.899320	-1.110801	0.743144
Cl80	Cl	2.399320	-0.610801	1.243144
H81	H	1.588555	-1.090364	0.431923
H82	H	2.088555	-0.590364	0.931923
H83	H	1.522584	-0.949127	0.365904
H84	H	2.022584	-0.449127	0.865904
H85	H	1.879936	-0.919044	0.723783
H86	H	2.379936	-0.419044	1.223783
