data_functionalizedCrystal
_audit_creation_method	'MofGen! by Chris Wilmer'
_symmetry_space_group_name_H-M	'P1'
_symmetry_Int_Tables_number	1
_symmetry_cell_setting	triclinic
loop_
_symmetry_equiv_pos_as_xyz
  x,y,z
_cell_length_a	9.065215
_cell_length_b	11.792241
_cell_length_c	10.868271
_cell_angle_alpha	90.005281
_cell_angle_beta	90.003765
_cell_angle_gamma	84.604057
loop_
_atom_site_label
_atom_site_type_symbol
_atom_site_fract_x
_atom_site_fract_y
_atom_site_fract_z
O1	O	1.958844	0.166417	0.102309
O2	O	1.529430	0.180071	0.102314
O3	O	1.754558	0.008131	0.102303
O4	O	1.733716	0.338357	0.102320
O5	O	1.754539	0.008124	-0.102342
O6	O	1.529412	0.180064	-0.102330
O7	O	1.958825	0.166410	-0.102336
Zn8	Zn	1.744116	0.173236	-0.134825
Zn9	Zn	1.744140	0.173245	0.134803
O10	O	1.733698	0.338350	-0.102324
C11	C	1.474447	0.178756	-0.000007
C12	C	1.310640	0.174835	-0.000005
C13	C	1.753239	-0.034171	-0.000019
C14	C	1.749321	-0.160206	-0.000018
C15	C	1.742116	-0.390958	0.000003
C16	C	1.746119	-0.262551	-0.000009
C17	C	2.013809	0.167725	-0.000012
C18	C	2.177615	0.171646	-0.000005
C19	C	1.735016	0.380652	0.000000
C20	C	1.738935	0.506687	0.000007
N21	N	1.744110	0.173229	-0.318839
C22	C	1.744132	0.173243	-0.569845
C23	C	1.744115	0.173238	-0.430168
N24	N	1.744158	0.173243	0.318817
