data_functionalizedCrystal
_audit_creation_method	'MofGen! by Chris Wilmer'
_symmetry_space_group_name_H-M	'P1'
_symmetry_Int_Tables_number	1
_symmetry_cell_setting	triclinic
loop_
_symmetry_equiv_pos_as_xyz
  x,y,z
_cell_length_a	9.065218
_cell_length_b	17.038272
_cell_length_c	8.140239
_cell_angle_alpha	89.996147
_cell_angle_beta	89.997198
_cell_angle_gamma	88.063721
loop_
_atom_site_label
_atom_site_type_symbol
_atom_site_fract_x
_atom_site_fract_y
_atom_site_fract_z
O1	O	1.971908	0.114742	-0.136620
O2	O	1.543567	0.124153	-0.136623
O3	O	1.755192	0.005614	-0.136608
O4	O	1.760283	0.233281	-0.136634
O5	O	1.755179	0.005612	0.136619
O6	O	1.543555	0.124152	0.136605
O7	O	1.971895	0.114740	0.136607
Zn8	Zn	1.757723	0.119446	0.179986
Zn9	Zn	1.757740	0.119448	-0.180002
O10	O	1.760271	0.233280	0.136593
C11	C	1.488484	0.123248	-0.000009
C12	C	1.324369	0.120544	-0.000010
C13	C	1.750555	-0.023549	0.000005
C14	C	1.736739	-0.110441	0.000005
C15	C	1.863587	-0.159639	0.000007
C16	C	1.850596	-0.241284	-0.000009
C17	C	1.710756	-0.273728	-0.000015
C18	C	1.583899	-0.224524	-0.000022
C19	C	1.596891	-0.142881	-0.000019
C20	C	1.664859	-0.519818	-0.000038
C21	C	1.651876	-0.601467	-0.000037
C22	C	1.918575	-0.618221	-0.000026
C23	C	1.931554	-0.536576	-0.000012
C24	C	1.804697	-0.487379	-0.000028
C25	C	1.697475	-0.357182	-0.000026
C26	C	1.817980	-0.403927	-0.000029
C27	C	2.026979	0.115646	-0.000010
C28	C	2.191093	0.118350	-0.000020
C29	C	1.764908	0.262442	-0.000024
C30	C	1.778724	0.349335	-0.000034
N31	N	1.757722	0.119444	0.425669
N32	N	1.757751	0.119443	-0.425685
H33	H	1.977459	-0.133230	0.000022
C34	C	1.988273	-0.294734	-0.000347
C35	C	1.988644	-0.342070	-0.140947
C36	C	2.115465	-0.391308	-0.141331
H37	H	1.988881	-0.327012	0.094815
H38	H	2.073450	-0.263742	-0.000424
H39	H	1.903489	-0.373059	-0.140854
H40	H	1.988058	-0.309813	-0.236131
H41	H	2.200643	-0.360316	-0.141409
H42	H	2.116063	-0.423581	-0.046164
H43	H	2.115741	-0.423426	-0.236734
C44	C	1.545745	-0.392519	-0.000273
C45	C	1.530523	-0.438910	-0.140824
C46	C	1.390779	-0.471487	-0.141099
H47	H	1.471909	-0.351612	-0.000349
H48	H	1.535126	-0.424070	0.094957
H49	H	1.541127	-0.407361	-0.236028
H50	H	1.604326	-0.479830	-0.140777
H51	H	1.380160	-0.503038	-0.045870
H52	H	1.316955	-0.430575	-0.141171
H53	H	1.380437	-0.502973	-0.236453
C54	C	1.500005	-0.636653	-0.000399
C55	C	1.422748	-0.611758	-0.141002
C56	C	1.282859	-0.644166	-0.141402
H57	H	1.447143	-0.619859	0.094761
H58	H	1.510386	-0.692326	-0.000483
H59	H	1.412361	-0.556097	-0.140903
H60	H	1.475566	-0.628551	-0.236184
H61	H	1.293239	-0.699839	-0.141486
H62	H	1.230010	-0.627369	-0.046236
H63	H	1.230427	-0.627285	-0.236806
H64	H	2.045426	-0.510166	-0.000007
C65	C	1.431939	-0.259596	-0.000119
C66	C	1.323631	-0.199032	-0.000169
C67	C	1.183626	-0.231308	-0.000277
H68	H	1.421108	-0.291089	0.095133
H69	H	1.421260	-0.291071	-0.095440
H70	H	1.334305	-0.167570	0.095142
H71	H	1.334414	-0.167533	-0.095414
H72	H	1.172947	-0.262783	-0.095598
H73	H	1.172810	-0.262801	0.094977
H74	H	1.110123	-0.190221	-0.000326
C75	C	2.056350	-0.671597	0.000309
C76	C	2.139939	-0.656814	0.140897
C77	C	2.266864	-0.705976	0.141264
H78	H	2.113439	-0.661698	-0.094861
H79	H	2.028653	-0.724879	0.000392
H80	H	2.167639	-0.603544	0.140799
H81	H	2.082894	-0.666718	0.236090
H82	H	2.239166	-0.759258	0.141347
H83	H	2.323940	-0.696072	0.046088
H84	H	2.323587	-0.695957	0.236658
C85	C	1.459292	-0.089370	0.000237
C86	C	1.458965	-0.041998	0.140783
C87	C	1.332239	0.007312	0.141054
H88	H	1.374039	-0.120287	0.000319
H89	H	1.458820	-0.057125	-0.094995
H90	H	1.459423	-0.074239	0.235991
H91	H	1.544190	-0.011064	0.140731
H92	H	1.331767	0.039557	0.045821
H93	H	1.246995	-0.023611	0.141132
H94	H	1.332007	0.039465	0.236404
H95	H	1.561561	-0.479770	-0.000050
H96	H	1.931837	-0.377507	-0.000060
