data_functionalizedCrystal
_audit_creation_method	'MofGen! by Chris Wilmer'
_symmetry_space_group_name_H-M	'P1'
_symmetry_Int_Tables_number	1
_symmetry_cell_setting	triclinic
loop_
_symmetry_equiv_pos_as_xyz
  x,y,z
_cell_length_a	21.395364
_cell_length_b	12.645330
_cell_length_c	21.395355
_cell_angle_alpha	89.979272
_cell_angle_beta	90.024552
_cell_angle_gamma	89.965753
loop_
_atom_site_label
_atom_site_type_symbol
_atom_site_fract_x
_atom_site_fract_y
_atom_site_fract_z
Zn1	Zn	0.957909	0.421739	0.354252
Zn2	Zn	1.457909	0.921739	0.854252
Zn3	Zn	0.957832	0.598988	0.249470
Zn4	Zn	1.457832	1.098988	0.749470
Zn5	Zn	0.853124	0.421786	0.249489
Zn6	Zn	1.353124	0.921786	0.749489
Zn7	Zn	0.853114	0.599007	0.354211
Zn8	Zn	1.353114	1.099007	0.854211
O9	O	0.905495	0.510380	0.301855
O10	O	1.405495	1.010380	0.801855
O11	O	1.045577	0.445224	0.340362
O12	O	1.545577	0.945224	0.840362
O13	O	0.943915	0.575494	0.161795
O14	O	1.443915	1.075494	0.661795
O15	O	0.867060	0.273432	0.263411
O16	O	1.367060	0.773432	0.763411
O17	O	1.045520	0.575449	0.263380
O18	O	1.545520	1.075449	0.763380
O19	O	0.944045	0.273398	0.340380
O20	O	1.444045	0.773398	0.840380
O21	O	0.866986	0.445304	0.161808
O22	O	1.366986	0.945304	0.661808
O23	O	0.765445	0.445322	0.263371
O24	O	1.265445	0.945322	0.763371
O25	O	0.867043	0.575481	0.441894
O26	O	1.367043	1.075481	0.941894
O27	O	0.765437	0.575526	0.340309
O28	O	1.265437	1.075526	0.840309
O29	O	0.944035	0.445243	0.441924
O30	O	1.444035	0.945243	0.941924
O31	O	0.943905	0.747338	0.263339
O32	O	1.443905	1.247338	0.763339
O33	O	0.866969	0.747352	0.340292
O34	O	1.366969	1.247352	0.840292
C35	C	0.742707	0.510432	0.301838
C36	C	1.242707	1.010432	0.801838
C37	C	0.673066	0.510479	0.301845
C38	C	1.173066	1.010479	0.801845
C39	C	0.640404	0.442783	0.341992
C40	C	1.140404	0.942783	0.841992
C41	C	0.574969	0.442754	0.341994
C42	C	1.074969	0.942754	0.841994
C43	C	0.542198	0.510442	0.301856
C44	C	1.042198	1.010442	0.801856
C45	C	0.574867	0.578143	0.261702
C46	C	1.074867	1.078143	0.761702
C47	C	0.640301	0.578162	0.261696
C48	C	1.140301	1.078162	0.761696
C49	C	0.438484	0.605910	0.296817
C50	C	0.938484	1.105910	0.796817
C51	C	0.373051	0.605893	0.296827
C52	C	0.873051	1.105893	0.796827
C53	C	0.340377	0.510384	0.301870
C54	C	0.840377	1.010384	0.801870
C55	C	0.373143	0.414888	0.306917
C56	C	0.873143	0.914888	0.806917
C57	C	0.438577	0.414907	0.306911
C58	C	0.938577	0.914907	0.806911
C59	C	0.471245	0.510429	0.301858
C60	C	0.971245	1.010429	0.801858
C61	C	0.236763	0.442650	0.342022
C62	C	0.736763	0.942650	0.842022
C63	C	0.171326	0.442621	0.342020
C64	C	0.671326	0.942621	0.842020
C65	C	0.171225	0.578019	0.261731
C66	C	0.671225	1.078019	0.761731
C67	C	0.236661	0.578039	0.261730
C68	C	0.736661	1.078039	0.761730
C69	C	0.269425	0.510357	0.301878
C70	C	0.769425	1.010357	0.801878
C71	C	0.905444	0.785810	0.301823
C72	C	1.405444	1.285810	0.801823
C73	C	0.905480	0.903640	0.301830
C74	C	1.405480	1.403640	0.801830
C75	C	0.953792	1.071151	0.253310
C76	C	1.453792	1.571151	0.753310
C77	C	0.953957	0.948591	0.253437
C78	C	1.453957	1.448591	0.753437
C79	C	0.923388	0.948039	0.367872
C80	C	1.423388	1.448039	0.867872
C81	C	0.923763	1.070636	0.367606
C82	C	1.423763	1.570636	0.867606
C83	C	0.839216	1.070990	0.284934
C84	C	1.339216	1.570990	0.784934
C85	C	0.839542	0.948385	0.283461
C86	C	1.339542	1.448385	0.783461
C87	C	1.068918	0.510329	0.301873
C88	C	1.568918	1.010329	0.801873
C89	C	1.138559	0.510307	0.301881
C90	C	1.638559	1.010307	0.801881
C91	C	0.905547	0.510359	0.465279
C92	C	1.405547	1.010359	0.965279
C93	C	0.905569	0.510350	0.534920
C94	C	1.405569	1.010350	1.034920
C95	C	0.905545	1.233875	0.301886
C96	C	1.405545	1.733875	0.801886
C97	C	0.905522	1.116045	0.301857
C98	C	1.405522	1.616045	0.801857
C99	C	0.905479	0.510325	0.139068
C100	C	1.405479	1.010325	0.639068
C101	C	0.905578	0.510036	0.069427
C102	C	1.405578	1.010036	0.569427
C103	C	0.945657	0.442532	0.567650
C104	C	1.445657	0.942532	1.067650
C105	C	0.945656	0.442486	0.633085
C106	C	1.445656	0.942486	1.133085
C107	C	0.905574	0.510277	0.665788
C108	C	1.405574	1.010277	1.165788
C109	C	0.865478	0.578100	0.633051
C110	C	1.365478	1.078100	1.133051
C111	C	0.865475	0.578136	0.567616
C112	C	1.365475	1.078136	1.067616
C113	C	0.900609	0.605732	0.769452
C114	C	1.400609	1.105732	1.269452
C115	C	0.900616	0.605697	0.834885
C116	C	1.400616	1.105697	1.334885
C117	C	0.905578	0.510165	0.867609
C118	C	1.405578	1.010165	1.367609
C119	C	0.910546	0.414664	0.834893
C120	C	1.410546	0.914664	1.334893
C121	C	0.910543	0.414701	0.769458
C122	C	1.410543	0.914701	1.269458
C123	C	0.905572	0.510245	0.736741
C124	C	1.405572	1.010245	1.236741
C125	C	0.945667	0.442292	0.971292
C126	C	1.445667	0.942292	1.471292
C127	C	0.945662	0.442245	1.036728
C128	C	1.445662	0.942245	1.536728
C129	C	0.865487	0.577868	1.036692
C130	C	1.365487	1.077868	1.536692
C131	C	0.865489	0.577906	0.971257
C132	C	1.365489	1.077906	1.471257
C133	C	0.905582	0.510120	0.938561
C134	C	1.405582	1.010120	1.438561
H135	H	0.263254	0.633170	0.229040
H136	H	0.763254	1.133170	0.729040
Br137	Br	0.811080	0.669859	1.081068
Br138	Br	1.311080	1.169859	1.581068
Br139	Br	0.811081	0.669952	0.926834
Br140	Br	1.311081	1.169952	1.426834
H141	H	0.801642	0.917800	0.316231
H142	H	1.301642	1.417800	0.816231
Br143	Br	1.000050	0.350415	0.677515
Br144	Br	1.500050	0.850415	1.177515
H145	H	0.896574	0.683460	0.861517
H146	H	1.396574	1.183460	1.361517
H147	H	0.465253	0.337151	0.311019
H148	H	0.965253	0.837151	0.811019
Br149	Br	0.328808	0.285258	0.313764
Br150	Br	0.828808	0.785258	0.813764
H151	H	0.826039	0.919377	0.234859
H152	H	1.326039	1.419377	0.734859
Br153	Br	0.779273	1.119386	0.343866
Br154	Br	1.279273	1.619386	0.843866
Br155	Br	1.004544	1.118139	0.391499
Br156	Br	1.504544	1.618139	0.891499
Br157	Br	1.000067	0.350532	0.523279
Br158	Br	1.500067	0.850532	1.023279
H159	H	0.896401	0.683506	0.742813
H160	H	1.396401	1.183506	1.242813
H161	H	0.263441	0.387532	0.374710
H162	H	0.763441	0.887532	0.874710
H163	H	0.832840	0.633293	0.659681
H164	H	1.332840	1.133293	1.159681
Br165	Br	1.035818	0.899536	0.272102
Br166	Br	1.535818	1.399536	0.772102
Br167	Br	0.126757	0.669871	0.207250
Br168	Br	0.626757	1.169871	0.707250
H169	H	0.144734	0.387487	0.374711
H170	H	0.644734	0.887487	0.874711
Br171	Br	0.328589	0.735493	0.289991
Br172	Br	0.828589	1.235493	0.789991
Br173	Br	0.482822	0.735540	0.289960
Br174	Br	0.982822	1.235540	0.789960
Br175	Br	0.530393	0.669998	0.207224
Br176	Br	1.030393	1.169998	0.707224
Br177	Br	1.000076	0.350296	0.926914
Br178	Br	1.500076	0.850296	1.426914
Br179	Br	0.684631	0.670038	0.207204
Br180	Br	1.184631	1.170038	0.707204
Br181	Br	0.917285	0.285004	0.879296
Br182	Br	1.417285	0.785004	1.379296
Br183	Br	0.917282	0.285100	0.725059
Br184	Br	1.417282	0.785100	1.225059
Br185	Br	0.935236	0.898555	0.171829
Br186	Br	1.435236	1.398555	0.671829
Br187	Br	1.000082	0.350214	1.081149
Br188	Br	1.500082	0.850214	1.581149
H189	H	0.832828	0.633360	0.540968
H190	H	1.332828	1.133360	1.040968
Br191	Br	1.035209	1.122335	0.271754
Br192	Br	1.535209	1.622335	0.771754
Br193	Br	0.530633	0.350870	0.396481
Br194	Br	1.030633	0.850870	0.896481
Br195	Br	0.935349	1.120389	0.171443
Br196	Br	1.435349	1.620389	0.671443
Br197	Br	0.684868	0.350928	0.396479
Br198	Br	1.184868	0.850928	0.896479
H199	H	0.890146	1.100333	0.405024
H200	H	1.390146	1.600333	0.905024
H201	H	0.971311	0.917235	0.382450
H202	H	1.471311	1.417235	0.882450
H203	H	0.822928	1.101989	0.237611
H204	H	1.322928	1.601989	0.737611
H205	H	0.889305	0.918922	0.405016
H206	H	1.389305	1.418922	0.905016
