data_functionalizedCrystal
_audit_creation_method	'MofGen! by Chris Wilmer'
_symmetry_space_group_name_H-M	'P1'
_symmetry_Int_Tables_number	1
_symmetry_cell_setting	triclinic
loop_
_symmetry_equiv_pos_as_xyz
  x,y,z
_cell_length_a	10.654541
_cell_length_b	11.792241
_cell_length_c	9.730217
_cell_angle_alpha	89.996588
_cell_angle_beta	89.999932
_cell_angle_gamma	84.338672
loop_
_atom_site_label
_atom_site_type_symbol
_atom_site_fract_x
_atom_site_fract_y
_atom_site_fract_z
O1	O	1.667388	0.159405	-0.114248
O2	O	1.301866	0.174596	-0.114261
O3	O	1.493497	0.001850	-0.114245
O4	O	1.475756	0.332151	-0.114264
O5	O	1.493491	0.001849	0.114336
O6	O	1.301860	0.174595	0.114320
O7	O	1.667382	0.159403	0.114332
Zn8	Zn	1.484620	0.166999	0.150618
Zn9	Zn	1.484628	0.167001	-0.150547
O10	O	1.475750	0.332149	0.114316
C11	C	1.255068	0.173481	0.000028
C12	C	1.115634	0.170145	0.000024
C13	C	1.087078	0.376710	-0.000006
C14	C	1.007297	0.478420	-0.000026
C15	C	0.876287	0.475279	-0.000027
C16	C	0.825059	0.370416	-0.000004
C17	C	0.904841	0.268706	0.000016
C18	C	1.035851	0.271858	0.000013
C19	C	0.933396	0.062144	0.000056
C20	C	1.064405	0.065282	0.000047
C21	C	0.882167	-0.042719	0.000079
C22	C	0.961949	-0.144432	0.000089
C23	C	1.092966	-0.141286	0.000089
C24	C	1.144187	-0.036428	0.000067
C25	C	1.492380	-0.040444	0.000045
C26	C	1.489044	-0.166465	0.000044
C27	C	1.482911	-0.397192	0.000020
C28	C	1.486319	-0.268799	0.000033
C29	C	1.714180	0.160519	0.000040
C30	C	1.853614	0.163854	0.000035
C31	C	1.476868	0.374443	0.000023
C32	C	1.480203	0.500465	0.000015
N33	N	1.484624	0.166997	0.356154
N34	N	1.484634	0.166994	-0.356083
C35	C	1.654383	0.014075	0.356159
C36	C	1.739271	-0.062382	0.428101
C37	C	1.739283	-0.062383	0.571981
C38	C	1.654397	0.014080	0.643922
C39	C	1.569509	0.090537	0.571979
C40	C	1.569508	0.090532	0.428096
C41	C	1.399746	0.243451	0.571975
C42	C	1.399737	0.243459	0.428095
C43	C	1.314859	0.319914	0.643916
C44	C	1.229975	0.396379	0.571973
C45	C	1.229966	0.396377	0.428085
C46	C	1.314849	0.319917	0.356153
H47	H	1.250860	-0.033857	0.000051
O48	O	1.147552	0.470542	0.357991
C49	C	1.165764	0.454176	0.215571
H50	H	1.212101	0.364334	0.195917
H51	H	1.070741	0.465999	0.160896
H52	H	1.229172	0.518960	0.174736
H53	H	1.314854	0.319913	0.238998
H54	H	1.193752	0.379277	-0.000035
O55	O	0.912248	-0.246313	0.000354
C56	C	0.952976	-0.308386	0.118725
H57	H	0.980647	-0.247089	0.201458
H58	H	0.873295	-0.357299	0.158475
H59	H	1.037919	-0.370965	0.091960
H60	H	1.160860	0.458624	0.630556
H61	H	1.654391	0.014077	0.239004
O62	O	1.821564	-0.136765	0.641938
C63	C	1.753841	-0.207332	0.725205
H64	H	1.654791	-0.210092	0.681844
H65	H	1.804477	-0.297117	0.726859
H66	H	1.747493	-0.171852	0.834241
H67	H	1.049022	0.563797	-0.000041
H68	H	0.811328	0.558101	-0.000034
O69	O	0.697789	0.367424	-0.000237
C70	C	0.646178	0.423049	-0.118606
H71	H	0.721922	0.423035	-0.201357
H72	H	0.564679	0.376445	-0.158329
H73	H	0.610200	0.514644	-0.091850
O74	O	1.821736	-0.136495	0.358005
C75	C	1.803539	-0.120096	0.215585
H76	H	1.757121	-0.030277	0.195949
H77	H	1.898575	-0.131826	0.160932
H78	H	1.740207	-0.184923	0.174710
H79	H	1.654402	0.014065	0.761076
O80	O	1.170411	-0.240121	-0.000137
C81	C	1.147054	-0.303745	-0.118488
H82	H	1.102687	-0.244184	-0.201242
H83	H	1.239684	-0.348533	-0.158220
H84	H	1.079908	-0.369965	-0.091706
O85	O	1.314670	0.319822	0.783679
C86	C	1.195306	0.295768	0.831763
H87	H	1.145916	0.248270	0.748858
H88	H	1.207451	0.240667	0.928027
H89	H	1.136030	0.378912	0.857286
H90	H	0.775491	-0.045269	0.000086
