data_functionalizedCrystal
_audit_creation_method	'MofGen! by Chris Wilmer'
_symmetry_space_group_name_H-M	'P1'
_symmetry_Int_Tables_number	1
_symmetry_cell_setting	triclinic
loop_
_symmetry_equiv_pos_as_xyz
  x,y,z
_cell_length_a	12.827885
_cell_length_b	12.827893
_cell_length_c	12.827892
_cell_angle_alpha	89.984638
_cell_angle_beta	89.970214
_cell_angle_gamma	90.019462
loop_
_atom_site_label
_atom_site_type_symbol
_atom_site_fract_x
_atom_site_fract_y
_atom_site_fract_z
Zn1	Zn	-0.590849	-1.597672	-0.415983
Zn2	Zn	-0.416109	-1.597565	-0.590761
Zn3	Zn	-0.416122	-1.422912	-0.416034
Zn4	Zn	-0.590809	-1.422898	-0.590683
O5	O	-0.503472	-1.510262	-0.503365
O6	O	-0.567680	-1.743893	-0.439179
O7	O	-0.269875	-1.574358	-0.567637
O8	O	-0.439322	-1.446145	-0.269791
O9	O	-0.439300	-1.743815	-0.567587
O10	O	-0.567693	-1.574540	-0.269754
O11	O	-0.269884	-1.446042	-0.439266
O12	O	-0.439284	-1.276674	-0.439190
O13	O	-0.737050	-1.446121	-0.567455
O14	O	-0.567625	-1.276664	-0.567504
O15	O	-0.737080	-1.574526	-0.439104
O16	O	-0.439261	-1.574345	-0.736986
O17	O	-0.567612	-1.446018	-0.736929
C18	C	-0.503452	-1.238752	-0.503345
C19	C	-0.503469	-1.122599	-0.503362
C20	C	-0.503454	-1.510196	-0.774875
C21	C	-0.503481	-1.510264	-0.891028
C22	C	-0.776043	-1.510334	-0.503265
C23	C	-0.892196	-1.510365	-0.503222
C24	C	-1.064020	-1.573897	-0.566673
C25	C	-0.943970	-1.573867	-0.566718
C26	C	-0.231962	-1.510250	-0.503390
C27	C	-0.115810	-1.510422	-0.503138
C28	C	-0.503493	-1.782832	-0.503386
C29	C	-0.503502	-1.898985	-0.503395
C30	C	-0.566878	-1.070837	-0.566954
C31	C	-0.566896	-0.950786	-0.566973
C32	C	-0.440039	-1.573840	-0.942807
C33	C	-0.440066	-1.573911	-1.062857
C34	C	-0.503514	-1.510356	-0.230795
C35	C	-0.503531	-1.510396	-0.114642
H36	H	-1.108558	-1.628257	-0.621038
H37	H	-0.449199	-1.078038	-0.448927
H38	H	-0.557819	-1.455892	-0.935576
H39	H	-0.557845	-1.455959	-1.070121
O40	O	-0.375104	-1.638563	-0.889624
C41	C	-0.307620	-1.579009	-0.826568
H42	H	-0.301069	-1.496757	-0.859602
H43	H	-0.339987	-1.575266	-0.743869
C44	C	-0.207075	-1.731140	-0.784203
C45	C	-0.199023	-1.630120	-0.824782
H46	H	-0.140089	-1.762669	-0.783097
H47	H	-0.252542	-1.771265	-0.826682
H48	H	-0.234052	-1.728008	-0.715291
H49	H	-0.172059	-1.633255	-0.893697
H50	H	-0.153548	-1.589997	-0.782315
H51	H	-0.621181	-0.906272	-0.621420
H52	H	-0.385748	-1.628338	-1.107385
O53	O	-0.890684	-1.638603	-0.631581
C54	C	-0.782683	-1.624174	-0.617174
H55	H	-0.767878	-1.543522	-0.582933
H56	H	-0.751722	-1.686143	-0.561513
C57	C	-0.744715	-1.732705	-0.764934
C58	C	-0.726531	-1.633644	-0.722887
H59	H	-0.710076	-1.738551	-0.830141
H60	H	-0.817477	-1.742430	-0.774638
H61	H	-0.718914	-1.784336	-0.718540
H62	H	-0.752344	-1.582016	-0.769274
H63	H	-0.653772	-1.623911	-0.713193
O64	O	-0.945196	-1.445380	-0.438375
C65	C	-0.918608	-1.341188	-0.461212
H66	H	-0.839329	-1.338919	-0.501345
H67	H	-0.980005	-1.306044	-0.514968
C68	C	-1.011092	-1.280702	-0.310039
C69	C	-0.913715	-1.277914	-0.359323
H70	H	-1.008078	-1.241669	-0.247191
H71	H	-1.029008	-1.350897	-0.294655
H72	H	-1.062246	-1.251417	-0.354846
H73	H	-0.862566	-1.307210	-0.314522
H74	H	-0.895790	-1.207722	-0.374698
O75	O	-0.631681	-1.124104	-0.631748
C76	C	-0.699228	-1.187259	-0.572262
H77	H	-0.662491	-1.203491	-0.493006
H78	H	-0.776735	-1.145297	-0.560920
C79	C	-0.763062	-1.271063	-0.727013
C80	C	-0.717937	-1.291008	-0.629672
H81	H	-0.774607	-1.335059	-0.762426
H82	H	-0.717558	-1.228512	-0.767090
H83	H	-0.827647	-1.236093	-0.717547
H84	H	-0.653348	-1.325965	-0.639140
H85	H	-0.763431	-1.333568	-0.589597
O86	O	-0.438679	-0.952190	-0.438583
C87	C	-0.371112	-1.015264	-0.498050
H88	H	-0.407846	-1.031516	-0.577301
H89	H	-0.293619	-0.973223	-0.509407
C90	C	-0.307249	-1.099040	-0.343275
C91	C	-0.352370	-1.119008	-0.440609
H92	H	-0.295683	-1.163033	-0.307842
H93	H	-0.352766	-1.056544	-0.303210
H94	H	-0.242676	-1.064004	-0.352753
H95	H	-0.416947	-1.154032	-0.431129
H96	H	-0.306862	-1.161513	-0.480671
H97	H	-1.071272	-1.456053	-0.448781
