data_functionalizedCrystal
_audit_creation_method	'MofGen! by Chris Wilmer'
_symmetry_space_group_name_H-M	'P1'
_symmetry_Int_Tables_number	1
_symmetry_cell_setting	triclinic
loop_
_symmetry_equiv_pos_as_xyz
  x,y,z
_cell_length_a	19.288840
_cell_length_b	16.109301
_cell_length_c	17.766277
_cell_angle_alpha	89.992214
_cell_angle_beta	89.983415
_cell_angle_gamma	83.293748
loop_
_atom_site_label
_atom_site_type_symbol
_atom_site_fract_x
_atom_site_fract_y
_atom_site_fract_z
O1	O	0.921612	0.103617	-0.062722
O2	O	0.719382	0.117630	-0.062697
O3	O	0.826052	-0.010427	-0.062702
O4	O	0.814941	0.231674	-0.062716
O5	O	0.826033	-0.010434	0.062486
O6	O	0.719363	0.117623	0.062492
O7	O	0.921593	0.103610	0.062466
Cu8	Cu	0.820476	0.110616	0.073910
Cu9	Cu	0.820498	0.110624	-0.074140
O10	O	0.814923	0.231667	0.062472
C11	C	0.693495	0.117179	-0.000099
C12	C	0.616387	0.115836	-0.000089
C13	C	0.580192	0.115194	-0.068331
C14	C	0.507742	0.113923	-0.068340
C15	C	0.471492	0.113277	-0.000103
C16	C	0.507695	0.113923	0.068148
C17	C	0.580142	0.115203	0.068155
C18	C	0.362035	0.062549	0.052168
C19	C	0.289589	0.061264	0.052158
C20	C	0.248039	0.109334	-0.000123
C21	C	0.278944	0.158677	-0.052406
C22	C	0.351391	0.159957	-0.052399
C23	C	0.392934	0.111890	-0.000103
C24	C	0.133285	0.107315	-0.068379
C25	C	0.060833	0.106049	-0.068386
C26	C	0.060788	0.106041	0.068104
C27	C	0.133238	0.107315	0.068109
C28	C	0.169482	0.107948	-0.000135
C29	C	0.825593	-0.041404	-0.000108
C30	C	0.824243	-0.133694	-0.000107
C31	C	0.884402	-0.356179	-0.000126
C32	C	0.883129	-0.442895	-0.000132
C33	C	0.756568	-0.422574	-0.000113
C34	C	0.757842	-0.335860	-0.000112
C35	C	0.821761	-0.302665	-0.000115
C36	C	0.819214	-0.476095	-0.000122
C37	C	0.817833	-0.570116	-0.000128
C38	C	0.823142	-0.208638	-0.000110
C39	C	0.947480	0.104061	-0.000133
C40	C	1.024588	0.105404	-0.000148
C41	C	0.815382	0.262644	-0.000124
C42	C	0.816731	0.354934	-0.000130
N43	N	0.820466	0.110610	0.178040
N44	N	0.820514	0.110623	-0.178270
C45	C	0.867715	0.053934	0.217424
C46	C	0.867719	0.053930	0.296226
C47	C	0.820480	0.110617	0.335641
C48	C	0.773223	0.167297	0.296247
C49	C	0.773215	0.167294	0.217447
C50	C	0.811362	0.186371	0.460475
C51	C	0.811374	0.186376	0.539274
C52	C	0.820499	0.110627	0.578687
C53	C	0.829626	0.034870	0.539292
C54	C	0.829619	0.034867	0.460491
C55	C	0.820483	0.110626	0.421086
C56	C	0.867755	0.053942	0.703517
C57	C	0.867754	0.053937	0.782320
C58	C	0.773261	0.167311	0.782340
C59	C	0.773259	0.167309	0.703538
C60	C	0.820509	0.110625	0.664131
H61	H	0.245114	0.197824	-0.094976
H62	H	0.934137	-0.486463	-0.000143
H63	H	0.376551	0.200136	-0.094968
Br64	Br	0.672823	-0.263227	-0.000108
H65	H	0.906196	0.007776	0.328299
Br66	Br	0.669825	-0.467630	-0.000112
Br67	Br	0.709108	0.244224	0.349735
Br68	Br	0.709144	0.244234	0.835824
Br69	Br	0.931836	-0.022994	0.163944
H70	H	0.837048	-0.026816	0.428419
Br71	Br	0.842019	-0.067939	0.592770
Br72	Br	0.182363	0.108184	0.160728
Br73	Br	0.709086	0.244216	0.163992
H74	H	0.734787	0.213463	0.671469
H75	H	0.906227	0.007784	0.671431
Br76	Br	0.931876	-0.022993	0.835775
Br77	Br	0.798996	0.289186	0.592731
Br78	Br	0.799048	0.289185	0.406994
H79	H	0.609698	0.115710	-0.123901
H80	H	0.478266	0.113402	-0.123913
H81	H	0.031364	0.105531	-0.123959
Br82	Br	0.182478	0.108180	-0.160993
H83	H	0.031273	0.105520	0.123664
Br84	Br	0.629267	0.116076	0.160777
H85	H	0.264433	0.021082	0.094727
H86	H	0.395861	0.023403	0.094745
H87	H	0.478175	0.113399	0.123707
H88	H	0.936449	-0.329155	-0.000130
