data_functionalizedCrystal
_audit_creation_method	'MofGen! by Chris Wilmer'
_symmetry_space_group_name_H-M	'P1'
_symmetry_Int_Tables_number	1
_symmetry_cell_setting	triclinic
loop_
_symmetry_equiv_pos_as_xyz
  x,y,z
_cell_length_a	10.489746
_cell_length_b	19.288867
_cell_length_c	17.766277
_cell_angle_alpha	90.007910
_cell_angle_beta	90.005469
_cell_angle_gamma	83.839185
loop_
_atom_site_label
_atom_site_type_symbol
_atom_site_fract_x
_atom_site_fract_y
_atom_site_fract_z
O1	O	0.159120	0.922421	0.062568
O2	O	0.180580	0.720305	0.062576
O3	O	-0.015851	0.825960	0.062566
O4	O	0.355551	0.816766	0.062578
O5	O	-0.015857	0.825941	-0.062622
O6	O	0.180575	0.720285	-0.062613
O7	O	0.159114	0.922402	-0.062620
Cu8	Cu	0.169844	0.821342	-0.074047
Cu9	Cu	0.169850	0.821365	0.074003
O10	O	0.355546	0.816746	-0.062611
C11	C	0.179887	0.694414	-0.000018
C12	C	0.177812	0.617297	-0.000015
C13	C	0.162875	0.061641	0.068216
C14	C	0.164816	0.134102	0.068219
C15	C	0.165790	0.170327	-0.000021
C16	C	0.164789	0.134087	-0.068269
C17	C	0.162835	0.061629	-0.068270
C18	C	0.243586	0.280168	-0.052299
C19	C	0.245548	0.352625	-0.052296
C20	C	0.171811	0.393813	-0.000021
C21	C	0.096129	0.362534	0.052263
C22	C	0.094175	0.290076	0.052262
C23	C	0.167908	0.248896	-0.000028
C24	C	0.174908	0.508614	0.068226
C25	C	0.176841	0.581077	0.068226
C26	C	0.176827	0.581060	-0.068264
C27	C	0.174881	0.508599	-0.068262
C28	C	0.173927	0.472381	-0.000015
C29	C	-0.063370	0.825255	-0.000028
C30	C	-0.204952	0.823175	-0.000027
C31	C	-0.356263	0.754719	-0.000015
C32	C	-0.279641	0.788954	0.061706
C33	C	-0.279688	0.788951	-0.061720
C34	C	-0.380597	0.853739	0.061762
C35	C	-0.380649	0.853727	-0.061719
C36	C	-0.304078	0.888009	0.000017
C37	C	0.403064	0.817451	-0.000015
C38	C	0.544646	0.819531	-0.000011
C39	C	0.159808	0.948292	-0.000025
C40	C	0.161882	1.025410	-0.000023
N41	N	0.169838	0.821331	-0.178177
C42	C	0.247006	0.863837	-0.217557
C43	C	0.247002	0.863848	-0.296359
C44	C	0.169846	0.821340	-0.335778
C45	C	0.092663	0.778832	-0.296389
C46	C	0.092659	0.778827	-0.217589
C47	C	0.166619	0.758706	-0.460635
C48	C	0.166632	0.758709	-0.539434
C49	C	0.169850	0.821355	-0.578824
C50	C	0.173082	0.883998	-0.539406
C51	C	0.173078	0.883993	-0.460606
C52	C	0.169841	0.821341	-0.421224
C53	C	0.247017	0.863876	-0.703650
C54	C	0.247004	0.863888	-0.782453
C55	C	0.092673	0.778866	-0.782482
C56	C	0.092678	0.778860	-0.703680
C57	C	0.169857	0.821364	-0.664269
N58	N	0.169846	0.821381	0.178133
H59	H	0.162031	0.032129	-0.123840
H60	H	0.164007	0.707701	-0.571522
H61	H	-0.379708	0.698362	0.000048
H62	H	0.164007	0.707688	-0.428570
H63	H	-0.235628	0.761570	-0.113901
Br64	Br	-0.265400	0.982010	0.000066
H65	H	0.309839	0.898506	-0.814515
H66	H	0.309860	0.898485	-0.671560
H67	H	0.029819	0.744213	-0.185526
H68	H	0.032550	0.264612	0.094831
Br69	Br	0.351779	0.921503	-0.164074
H70	H	0.177615	0.610553	-0.123827
H71	H	-0.424768	0.881055	-0.113906
H72	H	0.303624	0.246639	-0.094876
H73	H	-0.235545	0.761601	0.113891
H74	H	0.029846	0.744244	-0.671617
Br75	Br	0.351732	0.921540	-0.349815
H76	H	0.174127	0.479124	0.123797
H77	H	-0.424494	0.881089	0.114003
Br78	Br	-0.012061	0.721186	-0.835970
Br79	Br	0.166100	0.183248	-0.160881
H80	H	0.175706	0.935000	-0.428515
H81	H	0.175708	0.935009	-0.571476
H82	H	0.029841	0.744223	-0.328489
H83	H	0.165632	0.163607	0.123789
Br84	Br	0.161574	0.012491	0.160837
H85	H	0.036090	0.396068	0.094832
Br86	Br	0.178170	0.630251	0.160844
H87	H	0.307203	0.378084	-0.094852
Br88	Br	0.173550	0.459423	-0.160878
