data_functionalizedCrystal
_audit_creation_method	'MofGen! by Chris Wilmer'
_symmetry_space_group_name_H-M	'P1'
_symmetry_Int_Tables_number	1
_symmetry_cell_setting	triclinic
loop_
_symmetry_equiv_pos_as_xyz
  x,y,z
_cell_length_a	19.077212
_cell_length_b	13.031981
_cell_length_c	13.034356
_cell_angle_alpha	76.643358
_cell_angle_beta	80.808006
_cell_angle_gamma	99.167303
loop_
_atom_site_label
_atom_site_type_symbol
_atom_site_fract_x
_atom_site_fract_y
_atom_site_fract_z
Zn1	Zn	1.106165	-0.271123	-0.622605
Zn2	Zn	1.071431	-0.473740	-0.420020
Zn3	Zn	0.969732	-0.303046	-0.435649
Zn4	Zn	0.969732	-0.458040	-0.590632
O5	O	1.029265	-0.376487	-0.517226
O6	O	1.201217	-0.291210	-0.602572
O7	O	1.043403	-0.471027	-0.272450
O8	O	1.002366	-0.149150	-0.480370
O9	O	1.175698	-0.440072	-0.453734
O10	O	1.102604	-0.125696	-0.617726
O11	O	0.968686	-0.345620	-0.283932
O12	O	0.870073	-0.330397	-0.449368
O13	O	1.002367	-0.413315	-0.744516
O14	O	0.870073	-0.444270	-0.563233
O15	O	1.102604	-0.275987	-0.768007
O16	O	1.043404	-0.621319	-0.422731
O17	O	0.968687	-0.609785	-0.548078
C18	C	0.844233	-0.389095	-0.504527
C19	C	0.765075	-0.394511	-0.499116
C20	C	0.318077	-0.433303	-0.460364
C21	C	0.392454	-0.428209	-0.465441
C22	C	0.442931	-0.348255	-0.545568
C23	C	0.419028	-0.273383	-0.620616
C24	C	0.344652	-0.278472	-0.615534
C25	C	0.666796	-0.324728	-0.569083
C26	C	0.741176	-0.319646	-0.574161
C27	C	0.714597	-0.474472	-0.418984
C28	C	0.640221	-0.479558	-0.413913
C29	C	0.616324	-0.404683	-0.488958
N30	N	0.518956	-0.343049	-0.550761
N31	N	0.540300	-0.409885	-0.483759
C32	C	1.002298	-0.654353	-0.480264
C33	C	0.990830	-0.773216	-0.464491
C34	C	1.035290	-0.814514	-0.525482
C35	C	1.023439	-0.937364	-0.509182
C36	C	1.215020	-0.363831	-0.529976
C37	C	1.294178	-0.358438	-0.535409
C38	C	1.056360	-0.339339	-0.796147
C39	C	1.067907	-0.323508	-0.915007
C40	C	1.056359	-0.097532	-0.554358
C41	C	1.067905	0.021342	-0.570181
C42	C	1.035390	-0.368043	-1.079222
C43	C	1.023455	-0.384405	-0.956375
C44	C	1.002324	-0.413411	-0.239404
C45	C	0.990945	-0.428931	-0.120594
H46	H	0.599126	-0.544665	-0.348664
F47	F	1.129131	-0.906005	-0.654214
F48	F	1.129201	-0.239537	-0.987575
F49	F	0.740035	-0.554152	-0.339119
F50	F	0.641374	-0.245044	-0.648959
F51	F	0.264361	-0.518408	-0.375088
F52	F	0.417884	-0.507872	-0.385549
H53	H	0.325196	-0.217506	-0.676641
H54	H	0.782275	-0.254531	-0.639410
F55	F	0.962209	-1.010020	-0.425157
H56	H	0.460132	-0.208278	-0.685853
H57	H	1.082127	-0.758923	-0.589771
H58	H	0.943988	-0.828808	-0.400212
H59	H	1.082281	-0.303805	-1.134750
H60	H	0.976566	-0.448655	-0.900850
H61	H	0.944059	-0.493176	-1.065066
