data_functionalizedCrystal
_audit_creation_method	'MofGen! by Chris Wilmer'
_symmetry_space_group_name_H-M	'P1'
_symmetry_Int_Tables_number	1
_symmetry_cell_setting	triclinic
loop_
_symmetry_equiv_pos_as_xyz
  x,y,z
_cell_length_a	15.995350
_cell_length_b	16.109301
_cell_length_c	14.586319
_cell_angle_alpha	90.005214
_cell_angle_beta	89.999859
_cell_angle_gamma	83.476928
loop_
_atom_site_label
_atom_site_type_symbol
_atom_site_fract_x
_atom_site_fract_y
_atom_site_fract_z
O1	O	-1.110955	-0.107165	-0.076166
O2	O	-0.610955	0.392835	0.423834
O3	O	-0.867176	-0.120399	-0.076185
O4	O	-0.367176	0.379601	0.423815
O5	O	-0.995763	0.007247	-0.076165
O6	O	-0.495763	0.507247	0.423835
O7	O	-0.982369	-0.234811	-0.076185
O8	O	-0.482369	0.265189	0.423815
O9	O	-0.995754	0.007249	0.076315
O10	O	-0.495754	0.507249	0.576315
O11	O	-0.867167	-0.120397	0.076296
O12	O	-0.367167	0.379603	0.576296
O13	O	-1.110946	-0.107164	0.076315
O14	O	-0.610946	0.392836	0.576315
Cu15	Cu	-0.989056	-0.113780	0.090228
Cu16	Cu	-0.489056	0.386220	0.590228
Cu17	Cu	-0.989067	-0.113782	-0.090098
Cu18	Cu	-0.489067	0.386218	0.409902
O19	O	-0.982360	-0.234810	0.076296
O20	O	-0.482360	0.265190	0.576296
C21	C	-0.835977	-0.119851	0.000053
C22	C	-0.335977	0.380149	0.500053
C23	C	-0.743027	-0.118211	0.000046
C24	C	-0.243027	0.381789	0.500046
C25	C	-0.995216	0.038223	0.000075
C26	C	-0.495216	0.538223	0.500075
C27	C	-0.993589	0.130519	0.000077
C28	C	-0.493589	0.630519	0.500077
C29	C	-1.142145	-0.107712	0.000075
C30	C	-0.642145	0.392288	0.500075
C31	C	-1.235095	-0.109352	0.000076
C32	C	-0.735095	0.390648	0.500076
C33	C	-0.405281	-0.112320	0.000066
C34	C	0.094719	0.387680	0.500066
C35	C	-0.452740	-0.021413	0.000413
C36	C	0.047260	0.478587	0.500413
C37	C	-0.549430	-0.023054	0.000063
C38	C	-0.049430	0.476946	0.500063
C39	C	-0.572841	-0.115242	0.000057
C40	C	-0.072841	0.384758	0.500057
C41	C	-0.531747	-0.160082	-0.087017
C42	C	-0.031747	0.339918	0.412983
C43	C	-0.435112	-0.157798	-0.087084
C44	C	0.064888	0.342202	0.412916
C45	C	-0.434762	-0.159674	0.086315
C46	C	0.065238	0.340326	0.586315
C47	C	-0.531708	-0.159653	0.087460
C48	C	-0.031708	0.340347	0.587460
C49	C	-0.667538	-0.116898	0.000048
C50	C	-0.167538	0.383102	0.500048
C51	C	-0.310584	-0.110667	0.000068
C52	C	0.189416	0.389333	0.500068
C53	C	-0.982907	-0.265786	0.000053
C54	C	-0.482907	0.234214	0.500053
C55	C	-0.984534	-0.358081	0.000046
C56	C	-0.484534	0.141919	0.500046
N57	N	-0.989055	-0.113778	0.217060
N58	N	-0.489055	0.386222	0.717060
C59	C	-1.066107	0.352771	0.000068
C60	C	-0.566107	0.852771	0.500068
C61	C	-1.064573	0.439492	0.000060
C62	C	-0.564573	0.939492	0.500060
C63	C	-0.912009	0.419659	0.000052
C64	C	-0.412009	0.919659	0.500052
C65	C	-0.913545	0.332940	0.000053
C66	C	-0.413545	0.832940	0.500053
C67	C	-0.990597	0.299499	0.000066
C68	C	-0.490597	0.799499	0.500066
C69	C	-0.987526	0.472939	0.000057
C70	C	-0.487526	0.972939	0.500057
C71	C	-0.985861	0.566965	0.000048
C72	C	-0.485861	1.066965	0.500048
C73	C	-0.992262	0.205466	0.000072
C74	C	-0.492262	0.705466	0.500072
N75	N	-0.989075	-0.113778	-0.216930
N76	N	-0.489075	0.386222	0.283070
C77	C	-1.046011	-0.057275	0.452075
C78	C	-0.546011	0.442725	0.952075
C79	C	-1.046014	-0.057273	0.548056
C80	C	-0.546014	0.442727	1.048056
C81	C	-0.932112	-0.170283	0.548049
C82	C	-0.432112	0.329717	1.048049
C83	C	-0.932106	-0.170281	0.452069
C84	C	-0.432106	0.329719	0.952069
C85	C	-0.989061	-0.113778	0.404085
C86	C	-0.489061	0.386222	0.904085
C87	C	-0.989069	-0.113778	0.596046
C88	C	-0.489069	0.386222	1.096046
C89	C	-0.989071	-0.113777	0.700113
C90	C	-0.489071	0.386223	1.200113
C91	C	-0.989057	-0.113778	0.300011
C92	C	-0.489057	0.386222	0.800011
H93	H	-0.434224	0.014925	0.062858
H94	H	0.065776	0.514925	0.562858
H95	H	-0.433160	0.014756	-0.061681
H96	H	0.066840	0.514756	0.438319
O97	O	-0.569334	-0.118825	-0.172852
O98	O	-0.069334	0.381175	0.327148
H99	H	-0.599383	-0.165262	-0.213972
H100	H	-0.099383	0.334738	0.286028
H101	H	-0.577301	0.012429	-0.062458
H102	H	-0.077301	0.512429	0.437542
O103	O	-0.828911	0.455736	0.000053
O104	O	-0.328911	0.955736	0.500053
H105	H	-0.792628	0.434342	-0.062101
H106	H	-0.292628	0.934342	0.437899
H107	H	-1.092386	-0.011266	0.413009
H108	H	-0.592386	0.488734	0.913009
O109	O	-1.107449	0.003657	0.599821
O110	O	-0.607449	0.503657	1.099821
H111	H	-1.147056	0.042938	0.550326
H112	H	-0.647056	0.542938	1.050326
H113	H	-0.852051	0.289563	0.000048
H114	H	-0.352051	0.789563	0.500048
H115	H	-0.416816	-0.125101	-0.152169
H116	H	0.083184	0.374899	0.347831
O117	O	-0.392361	-0.246200	-0.092343
O118	O	0.107639	0.253800	0.407657
H119	H	-0.440736	-0.290390	-0.094835
H120	H	0.059264	0.209610	0.405165
H121	H	-0.414231	-0.129954	0.152315
H122	H	0.085769	0.370046	0.652315
H123	H	-0.545853	-0.227810	-0.090260
H124	H	-0.045853	0.272190	0.409740
H125	H	-0.547054	-0.226879	0.092714
H126	H	-0.047054	0.273121	0.592714
O127	O	-1.149211	0.316703	0.000061
O128	O	-0.649211	0.816703	0.500061
H129	H	-1.185501	0.338114	0.062203
H130	H	-0.685501	0.838114	0.562203
H131	H	-0.402982	-0.226699	0.086899
H132	H	0.097018	0.273301	0.586899
H133	H	-0.559029	-0.126920	0.151877
H134	H	-0.059029	0.373080	0.651877
H135	H	-1.126061	0.482864	0.000060
H136	H	-0.626061	0.982864	0.500060
H137	H	-0.885725	-0.216292	0.412993
H138	H	-0.385725	0.283708	0.912993
O139	O	-0.870696	-0.231237	0.599802
O140	O	-0.370696	0.268763	1.099802
H141	H	-0.830017	-0.196226	0.643549
H142	H	-0.330017	0.303774	1.143549
O143	O	-0.587105	0.023622	0.082747
O144	O	-0.087105	0.523622	0.582747
H145	H	-0.536269	0.047578	0.123341
H146	H	-0.036269	0.547578	0.623341
