data_functionalizedCrystal
_audit_creation_method	'MofGen! by Chris Wilmer'
_symmetry_space_group_name_H-M	'P1'
_symmetry_Int_Tables_number	1
_symmetry_cell_setting	triclinic
loop_
_symmetry_equiv_pos_as_xyz
  x,y,z
_cell_length_a	15.995350
_cell_length_b	23.532407
_cell_length_c	15.072220
_cell_angle_alpha	89.994175
_cell_angle_beta	89.991149
_cell_angle_gamma	83.170526
loop_
_atom_site_label
_atom_site_type_symbol
_atom_site_fract_x
_atom_site_fract_y
_atom_site_fract_z
O1	O	1.110385	0.073404	-0.073717
O2	O	0.866535	0.082469	-0.073736
O3	O	0.995813	-0.004967	-0.073710
O4	O	0.981107	0.160840	-0.073743
O5	O	0.995781	-0.004962	0.073856
O6	O	0.866503	0.082474	0.073829
O7	O	1.110354	0.073409	0.073848
Zn8	Zn	0.988423	0.077942	0.097268
Zn9	Zn	0.988465	0.077935	-0.097155
O10	O	0.981075	0.160845	0.073822
C11	C	0.835327	0.082096	0.000044
C12	C	0.742386	0.080973	0.000038
C13	C	0.404672	0.076938	0.000057
C14	C	0.452624	0.014668	0.000399
C15	C	0.549305	0.015792	0.000060
C16	C	0.572216	0.078939	0.000048
C17	C	0.530892	0.109650	-0.084222
C18	C	0.434269	0.108086	-0.084286
C19	C	0.433883	0.109378	0.083523
C20	C	0.530828	0.109363	0.084631
C21	C	0.666904	0.080074	0.000040
C22	C	0.309984	0.075805	0.000059
C23	C	0.995423	-0.026182	0.000075
C24	C	0.994297	-0.089404	0.000082
C25	C	1.063739	-0.488239	0.000039
C26	C	1.062693	-0.547644	0.000032
O27	O	1.127067	-0.584141	0.000004
N28	N	0.985837	-0.570566	0.000027
C29	C	0.910022	-0.534080	0.000019
O30	O	0.844554	-0.559031	0.000013
C31	C	0.911069	-0.474677	0.000019
C32	C	0.987930	-0.451758	0.000034
C33	C	1.140594	-0.465320	0.000052
C34	C	1.141640	-0.405920	0.000061
C35	C	1.065830	-0.369439	0.000056
C36	C	0.988975	-0.392358	0.000042
C37	C	0.835255	-0.438192	0.000005
C38	C	0.836308	-0.378785	0.000005
C39	C	0.913169	-0.355867	0.000020
C40	C	0.914212	-0.296477	0.000046
N41	N	0.991068	-0.273555	0.000051
C42	C	1.066877	-0.310036	0.000056
C43	C	0.907829	-0.658831	0.000016
C44	C	0.906781	-0.718233	0.000022
C45	C	1.059453	-0.731793	0.000034
C46	C	1.060500	-0.672389	0.000034
C47	C	0.984685	-0.635909	0.000022
C48	C	1.069067	-0.185291	0.000075
C49	C	1.070106	-0.125885	0.000087
C50	C	0.917435	-0.112330	0.000071
C51	C	0.916396	-0.171731	0.000063
C52	C	0.992219	-0.208210	0.000062
O53	O	0.849872	-0.259945	0.000070
O54	O	1.132335	-0.285076	0.000051
C55	C	1.141561	0.073781	0.000066
C56	C	1.234502	0.074905	0.000067
C57	C	0.981465	0.182060	0.000035
C58	C	0.982591	0.245281	0.000023
N59	N	0.988401	0.077946	0.229957
N60	N	0.988494	0.077927	-0.229844
C61	C	0.988463	0.077933	0.589158
C62	C	0.919059	0.124562	0.551537
C63	C	0.919216	0.124732	0.448711
C64	C	0.988431	0.077940	0.410954
C65	C	1.075688	0.090918	0.448249
C66	C	1.075299	0.091250	0.551107
C67	C	0.971391	0.018188	0.551269
C68	C	0.969383	0.018587	0.448405
C69	C	0.988419	0.077942	0.310241
C70	C	0.988482	0.077932	0.689872
H71	H	0.577922	-0.008349	0.060468
C72	C	0.834047	-0.072195	0.000058
C73	C	0.770899	-0.074765	0.076670
C74	C	0.687509	-0.034629	0.076648
C75	C	0.667268	0.008077	0.000015
C76	C	0.730417	0.010649	-0.076602
C77	C	0.813806	-0.029487	-0.076580
H78	H	0.785882	-0.106380	0.133403
H79	H	0.640762	-0.036532	0.133365
H80	H	0.605538	0.037788	-0.000001
H81	H	0.715434	0.042264	-0.133336
H82	H	0.860554	-0.027584	-0.133298
H83	H	1.202331	-0.495018	0.000053
C84	C	0.427850	-0.018958	0.082034
C85	C	0.443835	0.002960	0.176060
C86	C	0.419050	-0.030666	0.257697
C87	C	0.378280	-0.086210	0.245309
C88	C	0.362293	-0.108130	0.151280
C89	C	0.387079	-0.074505	0.069643
H90	H	0.474017	0.044079	0.185233
H91	H	0.430884	-0.014438	0.327303
H92	H	0.359933	-0.111101	0.305742
H93	H	0.332111	-0.149250	0.142106
H94	H	0.375244	-0.090732	0.000036
C95	C	0.882675	0.005275	0.415479
C96	C	0.829394	0.048080	0.354870
C97	C	0.742686	0.034770	0.321937
C98	C	0.709260	-0.021345	0.349612
C99	C	0.762542	-0.064154	0.410224
C100	C	0.849250	-0.050844	0.443157
H101	H	0.854137	0.089624	0.334380
H102	H	0.703243	0.066461	0.277068
H103	H	0.645074	-0.031198	0.325233
H104	H	0.737799	-0.105697	0.430714
H105	H	0.888693	-0.082534	0.488026
C106	C	1.152472	-0.225413	0.000081
C107	C	1.215565	-0.222838	0.076721
C108	C	1.298968	-0.262960	0.076734
C109	C	1.319278	-0.305656	0.000108
C110	C	1.256184	-0.308232	-0.076538
C111	C	1.172780	-0.268110	-0.076551
H112	H	1.200531	-0.191231	0.133449
H113	H	1.345674	-0.261053	0.133473
H114	H	1.381018	-0.335356	0.000118
H115	H	1.271217	-0.339839	-0.133266
H116	H	1.126074	-0.270017	-0.133290
C117	C	0.831569	0.114297	0.414645
C118	C	0.795047	0.058695	0.439155
C119	C	0.707393	0.048265	0.405097
C120	C	0.656261	0.093437	0.346529
C121	C	0.692783	0.149042	0.322015
C122	C	0.780437	0.159472	0.356074
H123	H	0.832898	0.025253	0.482514
H124	H	0.680358	0.007102	0.423244
H125	H	0.591375	0.085715	0.321317
H126	H	0.654932	0.182484	0.278657
H127	H	0.807472	0.200636	0.337927
C128	C	1.039767	-0.028691	0.584140
C129	C	1.096099	-0.064549	0.516858
C130	C	1.164477	-0.111422	0.549735
C131	C	1.176523	-0.122436	0.649894
C132	C	1.120189	-0.086577	0.717183
C133	C	1.051811	-0.039704	0.684305
H134	H	1.087183	-0.056396	0.442709
H135	H	1.206179	-0.137967	0.499923
H136	H	1.227140	-0.157134	0.674232
H137	H	1.129104	-0.094730	0.791332
H138	H	1.010109	-0.013159	0.734117
C139	C	0.752909	-0.338657	-0.000006
C140	C	0.689810	-0.341226	-0.076642
C141	C	0.606412	-0.301099	-0.076650
C142	C	0.586113	-0.258402	-0.000023
C143	C	0.649213	-0.255831	0.076619
C144	C	0.732611	-0.295958	0.076627
H145	H	0.704835	-0.372835	-0.133371
H146	H	0.559701	-0.303003	-0.133386
H147	H	0.524377	-0.228698	-0.000029
H148	H	0.634188	-0.224223	0.133348
H149	H	0.779322	-0.294055	0.133363
C150	C	1.145047	-0.647182	0.000042
C151	C	1.207861	-0.660952	0.076674
C152	C	1.292412	-0.635748	0.076680
C153	C	1.314150	-0.596774	0.000054
C154	C	1.251334	-0.583003	-0.076583
C155	C	1.166783	-0.608206	-0.076589
H156	H	1.191771	-0.689804	0.133402
H157	H	1.338912	-0.645943	0.133413
H158	H	1.376740	-0.578117	0.000059
H159	H	1.267424	-0.554150	-0.133311
H160	H	1.120283	-0.598011	-0.133322
C161	C	0.831117	0.114257	0.584906
C162	C	0.821244	0.063381	0.646734
C163	C	0.733294	0.053058	0.680072
C164	C	0.655216	0.093610	0.651581
C165	C	0.665087	0.144489	0.589750
C166	C	0.753037	0.154813	0.556413
H167	H	0.879044	0.033359	0.667828
H168	H	0.725987	0.015394	0.725843
H169	H	0.590110	0.085968	0.676260
H170	H	0.607287	0.174511	0.568657
H171	H	0.760343	0.192477	0.510641
H172	H	0.545809	0.155413	0.089712
H173	H	0.844194	-0.736887	0.000026
H174	H	0.433249	-0.010110	-0.059692
H175	H	1.132698	-0.107228	0.000101
C176	C	0.824426	-0.618704	0.000018
C177	C	0.804151	-0.575997	-0.076607
C178	C	0.720749	-0.535874	-0.076606
C179	C	0.657621	-0.538459	0.000020
C180	C	0.677894	-0.581168	0.076651
C181	C	0.761296	-0.621291	0.076650
H182	H	0.850884	-0.574082	-0.133335
H183	H	0.705742	-0.504258	-0.133333
H184	H	0.595882	-0.508758	0.000021
H185	H	0.631161	-0.583083	0.133379
H186	H	0.776303	-0.652907	0.133378
H187	H	0.772666	-0.456841	-0.000012
H188	H	1.204228	-0.387266	0.000069
C189	C	0.587234	-0.017043	-0.081680
C190	C	0.652993	-0.069814	-0.069531
C191	C	0.690921	-0.102650	-0.151276
C192	C	0.663089	-0.082715	-0.245169
C193	C	0.597327	-0.029941	-0.257322
C194	C	0.559399	0.002895	-0.175578
H195	H	0.673599	-0.084574	-0.000022
H196	H	0.739603	-0.141717	-0.142279
H197	H	0.691165	-0.107022	-0.305682
H198	H	0.576721	-0.015182	-0.326831
H199	H	0.510718	0.041961	-0.184574
H200	H	0.544631	0.156043	-0.087364
C201	C	0.409799	0.077822	-0.169369
C202	C	0.446926	0.015533	-0.187796
C203	C	0.422462	-0.014733	-0.272881
C204	C	0.360872	0.017290	-0.339539
C205	C	0.323742	0.079583	-0.321114
C206	C	0.348206	0.109849	-0.236029
H207	H	0.492521	-0.008175	-0.138450
H208	H	0.449948	-0.060846	-0.286520
H209	H	0.342763	-0.005114	-0.402524
H210	H	0.278146	0.103292	-0.370460
H211	H	0.320720	0.155962	-0.222391
C212	C	0.406362	0.081878	0.169816
C213	C	0.357001	0.029609	0.165592
C214	C	0.329480	0.002102	0.251879
C215	C	0.351321	0.026864	0.342390
C216	C	0.400684	0.079137	0.346618
C217	C	0.428205	0.106644	0.260331
H218	H	0.340831	0.011276	0.098587
H219	H	0.292938	-0.036593	0.248749
H220	H	0.330948	0.006502	0.406265
H221	H	0.416854	0.097470	0.413623
H222	H	0.464747	0.145339	0.263461
C223	C	1.142847	-0.771929	0.000032
C224	C	1.163102	-0.814641	0.076653
C225	C	1.246491	-0.854778	0.076652
C226	C	1.309625	-0.852203	0.000029
C227	C	1.289371	-0.809488	-0.076598
C228	C	1.205983	-0.769351	-0.076597
H229	H	1.116366	-0.816550	0.133379
H230	H	1.261484	-0.886398	0.133377
H231	H	1.371354	-0.881914	0.000028
H232	H	1.336108	-0.807580	-0.133324
H233	H	1.190990	-0.737731	-0.133322
H234	H	1.091182	0.133993	0.422473
C235	C	0.933555	0.184119	0.586400
C236	C	0.932281	0.195951	0.686905
C237	C	0.946803	0.255505	0.721756
C238	C	0.962599	0.303228	0.656103
C239	C	0.963874	0.291397	0.555592
C240	C	0.949352	0.231842	0.520740
H241	H	0.920587	0.160623	0.735511
H242	H	0.945859	0.264263	0.796162
H243	H	0.973349	0.347314	0.681903
H244	H	0.975567	0.326725	0.506986
H245	H	0.950295	0.223085	0.446335
C246	C	0.933879	0.184625	0.415443
C247	C	1.010864	0.192002	0.357056
C248	C	1.025532	0.251898	0.323789
C249	C	0.963215	0.304417	0.348910
C250	C	0.886225	0.297042	0.407299
C251	C	0.871557	0.237146	0.440566
H252	H	1.057000	0.153122	0.338458
H253	H	1.082526	0.257357	0.280565
H254	H	0.974073	0.348756	0.324284
H255	H	0.840089	0.335922	0.425898
H256	H	0.814563	0.231687	0.483790
H257	H	1.128547	0.057860	0.423791
H258	H	0.853809	-0.190392	0.000076
C259	C	1.095717	0.150112	0.583502
C260	C	1.112264	0.196490	0.515781
C261	C	1.132681	0.255354	0.548171
C262	C	1.136551	0.267841	0.648282
C263	C	1.120003	0.221463	0.716009
C264	C	1.099587	0.162598	0.683620
H265	H	1.109400	0.187247	0.441667
H266	H	1.144931	0.289687	0.498034
H267	H	1.151664	0.311417	0.672259
H268	H	1.122867	0.230705	0.790123
H269	H	1.087337	0.128265	0.733756
H270	H	1.128531	0.058627	0.575992
C271	C	0.887319	0.001337	0.586340
C272	C	0.886032	-0.053904	0.640848
C273	C	0.801956	-0.070748	0.675918
C274	C	0.719166	-0.032351	0.656480
C275	C	0.720450	0.022893	0.601969
C276	C	0.804526	0.039737	0.566899
H277	H	0.947320	-0.082331	0.655240
H278	H	0.801006	-0.111644	0.716271
H279	H	0.656928	-0.044820	0.682441
H280	H	0.659162	0.051319	0.587577
H281	H	0.805476	0.080632	0.526546
H282	H	0.558318	0.086945	0.146973
C283	C	1.033286	-0.030489	0.413694
C284	C	1.104203	-0.017470	0.350454
C285	C	1.168114	-0.066545	0.315743
C286	C	1.161108	-0.128638	0.344273
C287	C	1.090188	-0.141660	0.407516
C288	C	1.026277	-0.092585	0.442227
H289	H	1.109393	0.028498	0.329332
H290	H	1.220614	-0.056905	0.268926
H291	H	1.208419	-0.164966	0.318578
H292	H	1.084999	-0.187628	0.428638
H293	H	0.973777	-0.102225	0.489044
H294	H	0.401641	0.153804	-0.088119
H295	H	0.559457	0.088316	-0.146929
H296	H	0.401740	0.155290	0.084084
