data_functionalizedCrystal
_audit_creation_method	'MofGen! by Chris Wilmer'
_symmetry_space_group_name_H-M	'P1'
_symmetry_Int_Tables_number	1
_symmetry_cell_setting	triclinic
loop_
_symmetry_equiv_pos_as_xyz
  x,y,z
_cell_length_a	11.792241
_cell_length_b	19.188930
_cell_length_c	10.868271
_cell_angle_alpha	89.989749
_cell_angle_beta	89.999893
_cell_angle_gamma	83.669099
loop_
_atom_site_label
_atom_site_type_symbol
_atom_site_fract_x
_atom_site_fract_y
_atom_site_fract_z
O1	O	1.505476	0.095695	-0.102218
O2	O	2.005476	0.595695	0.397782
O3	O	1.174987	0.105557	-0.102248
O4	O	1.674987	0.605557	0.397752
O5	O	1.349769	-0.000975	-0.102208
O6	O	1.849769	0.499025	0.397792
O7	O	1.330695	0.202228	-0.102258
O8	O	1.830695	0.702228	0.397742
O9	O	1.349755	-0.000980	0.102437
O10	O	1.849755	0.499020	0.602437
O11	O	1.174973	0.105553	0.102396
O12	O	1.674973	0.605553	0.602396
O13	O	1.505462	0.095691	0.102427
O14	O	2.005462	0.595691	0.602427
Zn15	Zn	1.340215	0.100621	0.134903
Zn16	Zn	1.840215	0.600621	0.634903
Zn17	Zn	1.340234	0.100627	-0.134725
Zn18	Zn	1.840234	0.600627	0.365275
O19	O	1.330680	0.202224	0.102387
O20	O	1.830680	0.702224	0.602387
C21	C	1.132699	0.104936	0.000071
C22	C	1.632699	0.604936	0.500071
C23	C	1.006713	0.103082	0.000060
C24	C	1.506713	0.603082	0.500060
C25	C	0.776051	0.099672	0.000096
C26	C	1.276051	0.599672	0.500096
C27	C	0.904408	0.101566	0.000076
C28	C	1.404408	0.601566	0.500076
C29	C	1.349144	-0.026992	0.000118
C30	C	1.849144	0.473008	0.500118
C31	C	1.347290	-0.104507	0.000128
C32	C	1.847290	0.395493	0.500128
C33	C	1.449846	-0.148850	0.000143
C34	C	1.949846	0.351150	0.500143
C35	C	1.448104	-0.221684	0.000123
C36	C	1.948104	0.278316	0.500123
C37	C	1.343800	-0.250171	0.000113
C38	C	1.843800	0.249829	0.500113
C39	C	1.241230	-0.205818	0.000091
C40	C	1.741230	0.294182	0.500091
C41	C	1.242975	-0.132986	0.000098
C42	C	1.742975	0.367014	0.500098
N43	N	1.264067	-0.358629	0.069750
N44	N	1.764067	0.141371	0.569750
N45	N	1.262417	-0.427817	0.069746
N46	N	1.762417	0.072183	0.569746
C47	C	1.338536	-0.469609	0.000088
C48	C	1.838536	0.030391	0.500088
N49	N	1.416386	-0.439602	-0.069550
N50	N	1.916386	0.060398	0.430450
N51	N	1.418040	-0.370408	-0.069540
N52	N	1.918040	0.129592	0.430460
C53	C	1.341896	-0.329144	0.000104
C54	C	1.841896	0.170856	0.500104
C55	C	1.439211	-0.592928	0.000080
C56	C	1.939211	-0.092928	0.500080
C57	C	1.437464	-0.665762	0.000052
C58	C	1.937464	-0.165762	0.500052
C59	C	1.230588	-0.649895	0.000032
C60	C	1.730588	-0.149895	0.500032
C61	C	1.232337	-0.577062	0.000047
C62	C	1.732337	-0.077062	0.500047
C63	C	1.336652	-0.548583	0.000077
C64	C	1.836652	-0.048583	0.500077
C65	C	1.547751	0.096313	0.000105
C66	C	2.047751	0.596313	0.500105
C67	C	1.673737	0.098167	0.000108
C68	C	2.173737	0.598167	0.500108
N69	N	1.340211	0.100617	0.318917
N70	N	1.840211	0.600617	0.818917
C71	C	1.331305	0.228240	0.000058
C72	C	1.831305	0.728240	0.500058
C73	C	1.333159	0.305755	0.000040
C74	C	1.833159	0.805755	0.500040
N75	N	1.340248	0.100626	-0.318739
N76	N	1.840248	0.600626	0.181261
C77	C	1.340228	0.100625	0.569923
C78	C	1.840228	0.600625	1.069923
C79	C	1.340215	0.100623	0.430246
C80	C	1.840215	0.600623	0.930246
H81	H	1.534787	-0.125667	0.000163
H82	H	2.034787	0.374333	0.500163
H83	H	1.148825	-0.540957	0.000042
H84	H	1.648825	-0.040957	0.500042
O85	O	1.547700	-0.264799	-0.000071
O86	O	2.047700	0.235201	0.499929
C87	C	1.552884	-0.307405	-0.106041
C88	C	2.052884	0.192595	0.393959
H89	H	1.494733	-0.280946	-0.180136
H90	H	1.994733	0.219054	0.319864
H91	H	1.644354	-0.315250	-0.141592
H92	H	2.144354	0.184750	0.358408
H93	H	1.523759	-0.360472	-0.082086
H94	H	2.023759	0.139528	0.417914
O95	O	1.139838	-0.233405	0.000245
O96	O	1.639838	0.266595	0.500245
C97	C	1.077339	-0.210808	0.106239
C98	C	1.577339	0.289192	0.606239
H99	H	1.108013	-0.160187	0.141583
H100	H	1.608013	0.339813	0.641583
H101	H	0.982778	-0.201056	0.082387
H102	H	1.482778	0.298944	0.582387
H103	H	1.090687	-0.252907	0.180455
H104	H	1.590687	0.247093	0.680455
H105	H	1.159459	-0.096881	0.000086
H106	H	1.659459	0.403119	0.500086
H107	H	1.524150	-0.569739	0.000098
H108	H	2.024150	-0.069739	0.500098
H109	H	1.520981	-0.701866	0.000058
H110	H	2.020981	-0.201866	0.500058
O111	O	1.129365	-0.677674	0.000070
O112	O	1.629365	-0.177674	0.500070
C113	C	1.149813	-0.751467	0.000028
C114	C	1.649813	-0.251467	0.500028
H115	H	1.238463	-0.768239	0.038784
H116	H	1.738463	-0.268239	0.538784
H117	H	1.083084	-0.774091	0.059424
H118	H	1.583084	-0.274091	0.559424
H119	H	1.144428	-0.771744	-0.098156
H120	H	1.644428	-0.271744	0.401844
