data_functionalizedCrystal
_audit_creation_method	'MofGen! by Chris Wilmer'
_symmetry_space_group_name_H-M	'P1'
_symmetry_Int_Tables_number	1
_symmetry_cell_setting	triclinic
loop_
_symmetry_equiv_pos_as_xyz
  x,y,z
_cell_length_a	12.759401
_cell_length_b	25.639240
_cell_length_c	12.759393
_cell_angle_alpha	89.960880
_cell_angle_beta	90.018496
_cell_angle_gamma	89.956676
loop_
_atom_site_label
_atom_site_type_symbol
_atom_site_fract_x
_atom_site_fract_y
_atom_site_fract_z
Zn1	Zn	1.606048	0.208118	0.593926
Zn2	Zn	1.605855	0.295564	0.418223
Zn3	Zn	1.430350	0.208145	0.418266
Zn4	Zn	1.430251	0.295524	0.593865
O5	O	1.518126	0.251838	0.506070
O6	O	1.753043	0.219723	0.570627
O7	O	1.582534	0.283996	0.271208
O8	O	1.453778	0.134976	0.441611
O9	O	1.752901	0.283970	0.441538
O10	O	1.582863	0.134956	0.570668
O11	O	1.453591	0.219770	0.271239
O12	O	1.283315	0.219731	0.441551
O13	O	1.453610	0.283901	0.740894
O14	O	1.283243	0.283928	0.570563
O15	O	1.582767	0.219684	0.740939
O16	O	1.582438	0.368724	0.441479
O17	O	1.453423	0.368695	0.570522
C18	C	1.245158	0.251828	0.506056
C19	C	1.128382	0.251837	0.506074
C20	C	1.517928	0.387680	0.506012
C21	C	1.517939	0.445795	0.506022
C22	C	1.073509	0.285318	0.573140
C23	C	0.963785	0.285324	0.573151
C24	C	0.963816	0.218368	0.439023
C25	C	1.073538	0.218359	0.439018
C26	C	1.073491	0.323976	0.650574
C27	C	0.963767	0.323983	0.650586
C28	C	1.585392	0.806160	0.438951
C29	C	1.585424	0.860765	0.438961
O30	O	1.642636	0.889004	0.381903
N31	N	1.518210	0.888077	0.506093
C32	C	1.450968	0.860782	0.573227
O33	O	1.393801	0.889027	0.630329
C34	C	1.450941	0.806179	0.573221
C35	C	1.518152	0.778869	0.506078
C36	C	1.652598	0.778851	0.371814
C37	C	1.652565	0.724250	0.371803
C38	C	1.585325	0.696959	0.438929
C39	C	1.518118	0.724269	0.506066
C40	C	1.383705	0.778885	0.640359
C41	C	1.383685	0.724278	0.640349
C42	C	1.450896	0.696968	0.573205
C43	C	1.450845	0.642377	0.573181
N44	N	1.518059	0.615065	0.506050
C45	C	1.585299	0.642356	0.438923
C46	C	1.451029	0.975453	0.573235
C47	C	1.451049	1.030055	0.573236
C48	C	1.585507	1.030034	0.438972
C49	C	1.585481	0.975431	0.438966
C50	C	1.518243	0.948140	0.506103
C51	C	1.585222	0.527691	0.438904
C52	C	1.585179	0.473086	0.438896
C53	C	1.450725	0.473112	0.573164
C54	C	1.450763	0.527712	0.573169
C55	C	1.518020	0.555000	0.506035
O56	O	1.393665	0.614103	0.630214
O57	O	1.642466	0.614104	0.381840
C58	C	1.792159	0.251848	0.506085
C59	C	1.908936	0.251852	0.506091
C60	C	1.518199	0.251785	0.780103
C61	C	1.518231	0.251763	0.896880
C62	C	1.518314	1.115465	0.506133
C63	C	1.518293	1.057351	0.506113
C64	C	1.518113	0.251853	0.233102
C65	C	1.518285	0.251728	0.116326
C66	C	1.585492	0.218322	0.951767
C67	C	1.585517	0.218303	1.061491
C68	C	1.451016	0.285170	1.061431
C69	C	1.450987	0.285186	0.951709
C70	C	1.663148	0.179718	0.951803
C71	C	1.663173	0.179699	1.061527
H72	H	1.118211	0.191092	0.384413
H73	H	1.103310	0.313178	0.731984
N74	N	1.624667	0.128740	1.106654
H75	H	1.606046	0.104130	1.047756
H76	H	1.681597	0.112675	1.151250
N77	N	1.378485	0.946018	0.645631
H78	H	1.421132	0.923323	0.694361
H79	H	1.335925	0.971641	0.688082
H80	H	0.919148	0.191111	0.384428
N81	N	1.118509	0.374896	0.611767
H82	H	1.059558	0.399507	0.593022
H83	H	1.163089	0.390990	0.668593
H84	H	0.933931	0.364467	0.628643
N85	N	0.918739	0.304792	0.753010
H86	H	0.977685	0.295522	0.802498
H87	H	0.874109	0.333100	0.785233
N88	N	1.657676	0.443630	0.366477
H89	H	1.700279	0.469208	0.323960
H90	H	1.706259	0.420934	0.409284
H91	H	1.639991	0.549903	0.384240
H92	H	1.641420	0.139227	0.922058
H93	H	1.707296	0.702018	0.317132
H94	H	1.396267	0.312382	1.106087
H95	H	1.707359	0.801065	0.317151
H96	H	1.740405	0.194233	0.917763
N97	N	1.657975	0.945977	0.366552
H98	H	1.700570	0.971557	0.324031
H99	H	1.706565	0.923284	0.409358
N100	N	1.311207	0.808331	0.712774
H101	H	1.268616	0.782749	0.755293
H102	H	1.353954	0.830946	0.761440
H103	H	1.640261	1.052264	0.384317
N104	N	1.378540	1.059507	0.645636
H105	H	1.335940	1.033928	0.688153
H106	H	1.421284	1.082122	0.694305
N107	N	1.311164	0.694844	0.712765
H108	H	1.268596	0.720433	0.755296
H109	H	1.262549	0.672230	0.669957
N110	N	1.378263	0.557171	0.645574
H111	H	1.335659	0.531595	0.688092
H112	H	1.421019	0.579782	0.694239
H113	H	1.744533	0.190544	1.091303
H114	H	1.395976	0.450883	0.627814
N115	N	1.378402	0.321234	0.892507
H116	H	1.335802	0.342401	0.943893
H117	H	1.421079	0.345447	0.846949
