data_functionalizedCrystal
_audit_creation_method	'MofGen! by Chris Wilmer'
_symmetry_space_group_name_H-M	'P1'
_symmetry_Int_Tables_number	1
_symmetry_cell_setting	triclinic
loop_
_symmetry_equiv_pos_as_xyz
  x,y,z
_cell_length_a	17.077404
_cell_length_b	16.120484
_cell_length_c	17.077396
_cell_angle_alpha	92.867798
_cell_angle_beta	89.982756
_cell_angle_gamma	92.925780
loop_
_atom_site_label
_atom_site_type_symbol
_atom_site_fract_x
_atom_site_fract_y
_atom_site_fract_z
Zn1	Zn	1.184177	-0.331895	-0.459673
Zn2	Zn	1.177426	-0.471321	-0.335057
Zn3	Zn	1.052912	-0.331927	-0.328422
Zn4	Zn	1.046216	-0.471270	-0.466278
O5	O	1.115183	-0.401603	-0.397357
O6	O	1.293128	-0.350399	-0.443154
O7	O	1.160886	-0.452865	-0.224331
O8	O	1.075952	-0.215257	-0.340292
O9	O	1.288168	-0.452835	-0.351600
O10	O	1.172392	-0.215234	-0.436721
O11	O	1.069406	-0.350452	-0.219457
O12	O	0.942177	-0.350402	-0.346697
O13	O	1.064539	-0.452747	-0.575247
O14	O	0.937258	-0.452777	-0.447979
O15	O	1.165899	-0.350349	-0.570394
O16	O	1.154393	-0.587980	-0.358004
O17	O	1.057994	-0.587942	-0.454412
C18	C	0.911235	-0.401588	-0.397335
C19	C	0.823985	-0.401602	-0.397345
C20	C	0.780450	-0.454989	-0.450006
C21	C	0.698469	-0.454991	-0.450018
C22	C	0.660025	-0.401609	-0.397366
C23	C	0.703566	-0.348216	-0.344702
C24	C	0.785546	-0.348211	-0.344694
C25	C	0.532696	-0.348233	-0.344722
C26	C	0.450711	-0.348239	-0.344729
C27	C	0.445619	-0.455012	-0.450046
C28	C	0.527599	-0.455007	-0.450038
C29	C	0.571134	-0.401615	-0.397373
C30	C	1.104756	-0.618211	-0.407662
C31	C	1.100367	-0.710877	-0.412096
C32	C	1.092358	-0.880539	-0.420209
C33	C	1.138148	-0.921827	-0.374519
C34	C	1.133692	-1.016233	-0.379032
C35	C	1.096813	-0.786125	-0.415696
C36	C	1.319926	-0.401619	-0.397380
C37	C	1.407176	-0.401626	-0.397390
C38	C	1.115225	-0.401539	-0.602099
C39	C	1.115243	-0.401511	-0.689347
C40	C	1.125672	-0.184149	-0.387030
C41	C	1.130142	-0.091483	-0.382629
C42	C	1.067625	-0.348179	-0.727798
C43	C	1.067639	-0.348160	-0.809778
C44	C	1.115275	-0.401470	-0.853305
C45	C	1.162895	-0.454808	-0.814848
C46	C	1.162877	-0.454831	-0.732870
C47	C	1.162932	-0.454756	-0.985716
C48	C	1.162951	-0.454733	-1.067699
C49	C	1.067694	-0.348085	-1.062623
C50	C	1.067675	-0.348108	-0.980646
C51	C	1.115297	-0.401445	-0.942195
C52	C	1.115188	-0.401607	-0.193410
C53	C	1.115333	-0.401400	-0.106150
H54	H	0.811745	-0.498461	-0.492879
H55	H	1.201717	-0.498182	-0.954411
C56	C	1.214642	-0.512779	-0.861966
C57	C	1.256325	-0.559507	-0.810743
C58	C	1.303997	-0.612925	-0.854118
H59	H	1.250456	-0.480974	-0.892441
H60	H	1.182886	-0.549138	-0.895653
H61	H	1.288079	-0.523153	-0.777069
H62	H	1.220531	-0.591330	-0.780267
H63	H	1.272241	-0.649284	-0.887805
H64	H	1.339806	-0.581113	-0.884591
H65	H	1.332279	-0.644641	-0.819370
H66	H	1.049813	-0.916089	-0.462712
C67	C	1.214441	-0.512837	-0.691082
C68	C	1.167401	-0.566295	-0.646568
C69	C	1.214871	-0.619753	-0.608071
H70	H	1.250185	-0.481056	-0.657530
H71	H	1.242800	-0.544633	-0.728720
H72	H	1.139055	-0.534502	-0.608934
H73	H	1.131658	-0.598094	-0.680101
H74	H	1.243230	-0.651549	-0.645710
H75	H	1.250612	-0.587965	-0.574524
H76	H	1.182960	-0.656035	-0.577870
C77	C	0.661779	-0.290394	-0.287449
C78	C	0.612442	-0.337534	-0.239295
C79	C	0.573944	-0.284297	-0.186536
H80	H	0.631493	-0.254097	-0.315721
H81	H	0.699423	-0.258609	-0.256040
H82	H	0.574803	-0.369305	-0.270701
H83	H	0.642709	-0.373828	-0.211006
H84	H	0.611589	-0.252512	-0.155127
H85	H	0.543663	-0.248003	-0.214815
H86	H	0.540470	-0.316274	-0.153853
C87	C	0.832955	-0.290281	-0.287604
C88	C	0.912978	-0.301683	-0.298881
C89	C	0.956675	-0.248321	-0.246312
H90	H	0.819015	-0.302357	-0.235387
H91	H	0.822264	-0.234263	-0.296524
H92	H	0.923665	-0.357688	-0.289954
H93	H	0.926942	-0.289600	-0.351087
H94	H	0.945983	-0.192303	-0.255232
H95	H	0.942727	-0.260402	-0.194098
H96	H	1.010975	-0.256045	-0.253961
H97	H	1.180695	-0.886274	-0.332011
H98	H	0.419412	-0.304761	-0.301864
H99	H	1.028839	-0.304762	-0.692364
H100	H	1.201741	-0.498142	-1.103137
H101	H	1.028861	-0.304734	-0.841081
C102	C	1.015874	-0.290195	-0.933526
C103	C	0.974158	-0.243495	-0.984744
C104	C	0.926422	-0.190146	-0.941366
H105	H	1.047566	-0.253810	-0.899819
H106	H	0.980087	-0.322075	-0.903072
H107	H	1.009941	-0.211616	-1.015184
H108	H	0.942451	-0.279858	-1.018452
H109	H	0.890634	-0.222026	-0.910912
H110	H	0.958120	-0.153766	-0.907661
H111	H	0.898107	-0.158459	-0.976111
H112	H	0.558897	-0.498480	-0.492908
H113	H	0.663026	-0.498464	-0.492899
H114	H	0.410169	-0.498484	-0.492930
H115	H	0.568140	-0.304748	-0.301844
H116	H	1.028920	-0.304655	-1.093934
