data_functionalizedCrystal
_audit_creation_method	'MofGen! by Chris Wilmer'
_symmetry_space_group_name_H-M	'P1'
_symmetry_Int_Tables_number	1
_symmetry_cell_setting	triclinic
loop_
_symmetry_equiv_pos_as_xyz
  x,y,z
_cell_length_a	19.288867
_cell_length_b	15.712078
_cell_length_c	17.766277
_cell_angle_alpha	89.997346
_cell_angle_beta	89.992126
_cell_angle_gamma	101.359109
loop_
_atom_site_label
_atom_site_type_symbol
_atom_site_fract_x
_atom_site_fract_y
_atom_site_fract_z
O1	O	0.948991	0.107730	-0.062566
O2	O	1.448991	0.607730	0.437434
O3	O	0.750459	0.122260	-0.062573
O4	O	1.250459	0.622260	0.437427
O5	O	0.823313	-0.010730	-0.062567
O6	O	1.323313	0.489270	0.437433
O7	O	0.876137	0.240720	-0.062572
O8	O	1.376137	0.740720	0.437428
O9	O	0.823293	-0.010737	0.062622
O10	O	1.323293	0.489263	0.562622
O11	O	0.750438	0.122253	0.062616
O12	O	1.250438	0.622253	0.562616
O13	O	0.948971	0.107723	0.062623
O14	O	1.448971	0.607723	0.562623
Cu15	Cu	0.849703	0.114987	0.074050
Cu16	Cu	1.349703	0.614987	0.574050
Cu17	Cu	0.849727	0.114995	-0.074000
Cu18	Cu	1.349727	0.614995	0.426000
O19	O	0.876116	0.240713	0.062616
O20	O	1.376116	0.740713	0.562616
C21	C	0.724452	0.121788	0.000020
C22	C	1.224452	0.621788	0.500020
C23	C	0.646988	0.120384	0.000018
C24	C	1.146988	0.620384	0.500018
C25	C	0.088839	0.110273	-0.068214
C26	C	0.588839	0.610273	0.431786
C27	C	0.161623	0.111587	-0.068216
C28	C	0.661623	0.611587	0.431784
C29	C	0.198011	0.112245	0.000024
C30	C	0.698011	0.612245	0.500024
C31	C	0.161604	0.111566	0.068272
C32	C	0.661604	0.611566	0.568272
C33	C	0.088819	0.110243	0.068272
C34	C	0.588819	0.610243	0.568272
C35	C	0.320843	0.164913	0.052303
C36	C	0.820843	0.664913	0.552303
C37	C	0.393627	0.166242	0.052299
C38	C	0.893627	0.666242	0.552299
C39	C	0.422502	0.116321	0.000024
C40	C	0.922502	0.616321	0.500024
C41	C	0.378586	0.065084	-0.052261
C42	C	0.878586	0.565084	0.447739
C43	C	0.305801	0.063761	-0.052260
C44	C	0.805801	0.563761	0.447740
C45	C	0.276933	0.113679	0.000030
C46	C	0.776933	0.613679	0.500030
C47	C	0.537821	0.118419	-0.068223
C48	C	1.037821	0.618419	0.431777
C49	C	0.610606	0.119728	-0.068223
C50	C	1.110606	0.619728	0.431777
C51	C	0.610586	0.119715	0.068267
C52	C	1.110586	0.619715	0.568267
C53	C	0.537801	0.118398	0.068265
C54	C	1.037801	0.618398	0.568265
C55	C	0.501423	0.117754	0.000018
C56	C	1.001423	0.617754	0.500018
C57	C	0.814674	-0.042903	0.000027
C58	C	1.314674	0.457097	0.500027
C59	C	0.788952	-0.138759	0.000024
C60	C	1.288952	0.361241	0.500024
C61	C	1.007334	-0.506703	0.000024
C62	C	1.507334	-0.006703	0.500024
C63	C	0.983149	-0.596771	0.000024
C64	C	1.483149	-0.096771	0.500024
C65	C	0.861962	-0.575684	0.000019
C66	C	1.361962	-0.075684	0.500019
C67	C	0.886138	-0.485613	0.000023
C68	C	1.386138	0.014387	0.500023
C69	C	0.958824	-0.451130	0.000025
C70	C	1.458824	0.048870	0.500025
C71	C	0.837628	-0.430039	0.000024
C72	C	1.337628	0.069961	0.500024
C73	C	0.861801	-0.339976	0.000024
C74	C	1.361801	0.160024	0.500024
C75	C	0.934485	-0.305486	0.000024
C76	C	1.434485	0.194514	0.500024
C77	C	0.982998	-0.361066	0.000025
C78	C	1.482998	0.138934	0.500025
C79	C	0.764941	-0.464524	0.000017
C80	C	1.264941	0.035476	0.500017
C81	C	0.716431	-0.408951	0.000018
C82	C	1.216431	0.091049	0.500018
C83	C	0.740605	-0.318885	0.000023
C84	C	1.240605	0.181115	0.500023
C85	C	0.813288	-0.284395	0.000023
C86	C	1.313288	0.215605	0.500023
C87	C	0.692092	-0.263305	0.000022
C88	C	1.192092	0.236695	0.500022
C89	C	0.716265	-0.173241	0.000022
C90	C	1.216265	0.326759	0.500022
C91	C	0.837462	-0.194332	0.000023
C92	C	1.337462	0.305668	0.500023
C93	C	0.974977	0.108194	0.000028
C94	C	1.474977	0.608194	0.500028
C95	C	1.052441	0.109599	0.000025
C96	C	1.552441	0.609599	0.500025
C97	C	0.884756	0.272886	0.000021
C98	C	1.384756	0.772886	0.500021
C99	C	0.910477	0.368741	0.000019
C100	C	1.410477	0.868741	0.500019
N101	N	0.849690	0.114981	0.178180
N102	N	1.349690	0.614981	0.678180
N103	N	0.849743	0.114995	-0.178130
N104	N	1.349743	0.614995	0.321870
C105	C	0.881973	0.056122	0.217570
C106	C	1.381973	0.556122	0.717570
C107	C	0.881976	0.056118	0.296372
C108	C	1.381976	0.556118	0.796372
C109	C	0.849707	0.114988	0.335781
C110	C	1.349707	0.614988	0.835781
C111	C	0.817416	0.173852	0.296381
C112	C	1.317416	0.673852	0.796381
C113	C	0.817408	0.173848	0.217581
C114	C	1.317408	0.673848	0.717581
C115	C	0.860594	0.193667	0.460617
C116	C	1.360594	0.693667	0.960617
C117	C	0.860607	0.193672	0.539415
C118	C	1.360607	0.693672	1.039415
C119	C	0.849728	0.114999	0.578827
C120	C	1.349728	0.614999	1.078827
C121	C	0.838849	0.036317	0.539430
C122	C	1.338849	0.536317	1.039430
C123	C	0.838841	0.036314	0.460630
C124	C	1.338841	0.536314	0.960630
C125	C	0.849712	0.114998	0.421226
C126	C	1.349712	0.614998	0.921226
C127	C	0.882015	0.056130	0.703663
C128	C	1.382015	0.556130	1.203663
C129	C	0.882013	0.056125	0.782466
C130	C	1.382013	0.556125	1.282466
C131	C	0.817459	0.173866	0.782474
C132	C	1.317459	0.673866	1.282474
C133	C	0.817456	0.173864	0.703672
C134	C	1.317456	0.673864	1.203672
C135	C	0.849738	0.114997	0.664271
C136	C	1.349738	0.614997	1.164271
H137	H	0.270047	0.022040	-0.094831
H138	H	0.770047	0.522040	0.405169
H139	H	0.791119	0.221780	0.185509
H140	H	1.291119	0.721780	0.685509
H141	H	0.802781	-0.603773	0.000015
H142	H	1.302781	-0.103773	0.500015
F143	F	0.960213	-0.209631	0.000020
F144	F	1.460213	0.290369	0.500020
F145	F	0.614736	-0.300016	0.000007
F146	F	1.114736	0.199984	0.500007
F147	F	0.290118	0.218041	0.107952
F148	F	0.790118	0.718041	0.607952
F149	F	0.649342	0.120437	-0.140856
F150	F	1.149342	0.620437	0.359144
F151	F	0.499102	0.117729	-0.140856
F152	F	0.999102	0.617729	0.359144
F153	F	0.200330	0.112262	0.140897
F154	F	0.700330	0.612262	0.640897
F155	F	1.060360	-0.324362	0.000048
F156	F	1.560360	0.175638	0.500048
F157	F	0.914824	-0.157628	0.000046
F158	F	1.414824	0.342372	0.500046
F159	F	0.649306	0.120404	0.140894
F160	F	1.149306	0.620404	0.640894
H161	H	0.059185	0.109697	0.123843
H162	H	0.559185	0.609697	0.623843
F163	F	1.034786	-0.655915	0.000019
F164	F	1.534786	-0.155915	0.500019
H165	H	0.869442	0.257737	0.428534
H166	H	1.369442	0.757737	0.928534
F167	F	0.739215	-0.560379	0.000064
F168	F	1.239215	-0.060379	0.500064
F169	F	0.639075	-0.445660	0.000010
F170	F	1.139075	0.054340	0.500010
F171	F	0.409311	0.011953	-0.107904
F172	F	0.909311	0.511953	0.392096
F173	F	0.827258	-0.047422	0.418703
F174	F	1.327258	0.452578	0.918703
H175	H	0.908298	0.008190	0.814538
H176	H	1.408298	0.508190	1.314538
H177	H	0.829990	-0.027746	0.571517
H178	H	1.329990	0.472254	1.071517
H179	H	1.066523	-0.478626	0.000033
H180	H	1.566523	0.021374	0.500033
F181	F	0.872190	0.277410	0.581337
F182	F	1.372190	0.777410	1.081337
H183	H	0.676763	-0.127992	0.000024
H184	H	1.176763	0.372008	0.500024
H185	H	0.791181	0.221796	0.814560
H186	H	1.291181	0.721796	1.314560
H187	H	0.908257	0.008187	0.185492
H188	H	1.408257	0.508187	0.685492
F189	F	0.916338	-0.006531	0.338300
F190	F	1.416338	0.493469	0.838300
F191	F	0.499064	0.117692	0.140895
F192	F	0.999064	0.617692	0.640895
H193	H	0.429381	0.207983	0.094857
H194	H	0.929381	0.707983	0.594857
H195	H	0.908299	0.008194	0.671581
H196	H	1.408299	0.508194	1.171581
H197	H	0.791172	0.221796	0.671599
H198	H	1.291172	0.721796	1.171599
H199	H	0.059224	0.109745	-0.123786
H200	H	0.559224	0.609745	0.376214
F201	F	0.200368	0.112306	-0.140849
F202	F	0.700368	0.612306	0.359151
H203	H	0.791141	0.221783	0.328472
H204	H	1.291141	0.721783	0.828472
