data_functionalizedCrystal
_audit_creation_method	'MofGen! by Chris Wilmer'
_symmetry_space_group_name_H-M	'P1'
_symmetry_Int_Tables_number	1
_symmetry_cell_setting	triclinic
loop_
_symmetry_equiv_pos_as_xyz
  x,y,z
_cell_length_a	14.519731
_cell_length_b	14.519709
_cell_length_c	13.596369
_cell_angle_alpha	89.993066
_cell_angle_beta	90.006433
_cell_angle_gamma	96.315501
loop_
_atom_site_label
_atom_site_type_symbol
_atom_site_fract_x
_atom_site_fract_y
_atom_site_fract_z
O1	O	-1.223856	0.120986	-0.081819
O2	O	-0.973856	0.370986	0.168181
O3	O	-0.723856	0.620986	0.418181
O4	O	-0.473856	0.870986	0.668181
O5	O	-0.955382	0.135202	-0.081816
O6	O	-0.705382	0.385202	0.168184
O7	O	-0.455382	0.635202	0.418184
O8	O	-0.205382	0.885202	0.668184
O9	O	-1.096737	-0.006144	-0.081808
O10	O	-0.846737	0.243856	0.168192
O11	O	-0.596737	0.493856	0.418192
O12	O	-0.346737	0.743856	0.668192
O13	O	-1.082501	0.262332	-0.081826
O14	O	-0.832501	0.512332	0.168174
O15	O	-0.582501	0.762332	0.418174
O16	O	-0.332501	1.012332	0.668174
O17	O	-1.096723	-0.006151	0.081774
O18	O	-0.846723	0.243849	0.331774
O19	O	-0.596723	0.493849	0.581774
O20	O	-0.346723	0.743849	0.831774
O21	O	-0.955368	0.135195	0.081767
O22	O	-0.705368	0.385195	0.331767
O23	O	-0.455368	0.635195	0.581767
O24	O	-0.205368	0.885195	0.831767
O25	O	-1.223842	0.120979	0.081764
O26	O	-0.973842	0.370979	0.331764
O27	O	-0.723842	0.620979	0.581764
O28	O	-0.473842	0.870979	0.831764
Zn29	Zn	-1.089603	0.128086	0.107738
Zn30	Zn	-0.839603	0.378086	0.357738
Zn31	Zn	-0.589603	0.628086	0.607738
Zn32	Zn	-0.339603	0.878086	0.857738
Zn33	Zn	-1.089621	0.128096	-0.107790
Zn34	Zn	-0.839621	0.378096	0.142210
Zn35	Zn	-0.589621	0.628096	0.392210
Zn36	Zn	-0.339621	0.878096	0.642210
O37	O	-1.082487	0.262325	0.081757
O38	O	-0.832487	0.512325	0.331757
O39	O	-0.582487	0.762325	0.581757
O40	O	-0.332487	1.012325	0.831757
C41	C	-0.921016	0.134532	-0.000024
C42	C	-0.671016	0.384532	0.249976
C43	C	-0.421016	0.634532	0.499976
C44	C	-0.171016	0.884532	0.749976
C45	C	-0.818635	0.132536	-0.000022
C46	C	-0.568635	0.382536	0.249978
C47	C	-0.318635	0.632536	0.499978
C48	C	-0.068635	0.882536	0.749978
C49	C	-0.735491	0.130915	-0.000024
C50	C	-0.485491	0.380915	0.249976
C51	C	-0.235491	0.630915	0.499976
C52	C	0.014509	0.880915	0.749976
C53	C	-0.631182	0.128888	-0.000023
C54	C	-0.381182	0.378888	0.249977
C55	C	-0.131182	0.628888	0.499977
C56	C	0.118818	0.878888	0.749977
C57	C	-0.548043	0.127280	-0.000021
C58	C	-0.298043	0.377280	0.249979
C59	C	-0.048043	0.627280	0.499979
C60	C	0.201957	0.877280	0.749979
C61	C	-0.443728	0.125253	-0.000021
C62	C	-0.193728	0.375253	0.249979
C63	C	0.056272	0.625253	0.499979
C64	C	0.306272	0.875253	0.749979
C65	C	-1.096067	-0.040507	-0.000017
C66	C	-0.846067	0.209493	0.249983
C67	C	-0.596067	0.459493	0.499983
C68	C	-0.346067	0.709493	0.749983
C69	C	-1.094079	-0.142889	-0.000016
C70	C	-0.844079	0.107111	0.249984
C71	C	-0.594079	0.357111	0.499984
C72	C	-0.344079	0.607111	0.749984
C73	C	-1.086759	-0.517785	-0.000042
C74	C	-0.836759	-0.267785	0.249958
C75	C	-0.586759	-0.017785	0.499958
C76	C	-0.336759	0.232215	0.749958
C77	C	-1.088792	-0.413477	-0.000034
C78	C	-0.838792	-0.163477	0.249966
C79	C	-0.588792	0.086523	0.499966
C80	C	-0.338792	0.336523	0.749966
C81	C	-1.090419	-0.330340	-0.000028
C82	C	-0.840419	-0.080340	0.249972
C83	C	-0.590419	0.169660	0.499972
C84	C	-0.340419	0.419660	0.749972
C85	C	-1.092452	-0.226025	-0.000022
C86	C	-0.842452	0.023975	0.249978
C87	C	-0.592452	0.273975	0.499978
C88	C	-0.342452	0.523975	0.749978
C89	C	-0.258209	0.121649	-0.000025
C90	C	-0.008209	0.371649	0.249975
C91	C	0.241791	0.621649	0.499975
C92	C	0.491791	0.871649	0.749975
C93	C	-0.360589	0.123645	-0.000019
C94	C	-0.110589	0.373645	0.249981
C95	C	0.139411	0.623645	0.499981
C96	C	0.389411	0.873645	0.749981
C97	C	-1.083157	0.296688	-0.000037
C98	C	-0.833157	0.546688	0.249963
C99	C	-0.583157	0.796688	0.499963
C100	C	-0.333157	1.046688	0.749963
C101	C	-1.085146	0.399070	-0.000044
C102	C	-0.835146	0.649070	0.249956
C103	C	-0.585146	0.899070	0.499956
C104	C	-0.335146	1.149070	0.749956
N105	N	-1.089597	0.128078	0.254830
N106	N	-0.839597	0.378078	0.504830
N107	N	-0.589597	0.628078	0.754830
N108	N	-0.339597	0.878078	1.004830
N109	N	-1.089635	0.128096	-0.254881
N110	N	-0.839635	0.378096	-0.004881
N111	N	-0.589635	0.628096	0.245119
N112	N	-0.339635	0.878096	0.495119
C113	C	-1.089620	0.128096	0.656121
C114	C	-0.839620	0.378096	0.906121
C115	C	-0.589620	0.628096	1.156121
C116	C	-0.339620	0.878096	1.406121
C117	C	-1.089611	0.128095	0.544469
C118	C	-0.839611	0.378095	0.794469
C119	C	-0.589611	0.628095	1.044469
C120	C	-0.339611	0.878095	1.294469
C121	C	-1.089609	0.128088	0.455479
C122	C	-0.839609	0.378088	0.705479
C123	C	-0.589609	0.628088	0.955479
C124	C	-0.339609	0.878088	1.205479
C125	C	-1.089599	0.128085	0.343820
C126	C	-0.839599	0.378085	0.593820
C127	C	-0.589599	0.628085	0.843820
C128	C	-0.339599	0.878085	1.093820
