data_functionalizedCrystal
_audit_creation_method	'MofGen! by Chris Wilmer'
_symmetry_space_group_name_H-M	'P1'
_symmetry_Int_Tables_number	1
_symmetry_cell_setting	triclinic
loop_
_symmetry_equiv_pos_as_xyz
  x,y,z
_cell_length_a	14.044191
_cell_length_b	10.654550
_cell_length_c	9.730223
_cell_angle_alpha	90.000193
_cell_angle_beta	90.002006
_cell_angle_gamma	91.161660
loop_
_atom_site_label
_atom_site_type_symbol
_atom_site_fract_x
_atom_site_fract_y
_atom_site_fract_z
O1	O	1.259695	-0.303022	-0.114217
O2	O	0.983653	-0.292080	-0.114234
O3	O	1.128021	-0.115450	-0.114220
O4	O	1.115328	-0.479652	-0.114231
O5	O	1.128019	-0.115454	0.114360
O6	O	0.983652	-0.292084	0.114346
O7	O	1.259693	-0.303027	0.114363
Zn8	Zn	1.121672	-0.297556	0.150647
Zn9	Zn	1.121675	-0.297550	-0.150517
O10	O	1.115326	-0.479657	0.114349
C11	C	0.948307	-0.287295	0.000054
C12	C	0.842987	-0.273016	0.000047
C13	C	0.593195	-0.348181	0.000058
C14	C	0.650158	-0.246931	0.000059
C15	C	0.757458	-0.261448	0.000052
C16	C	0.485885	-0.333666	0.000065
C17	C	1.127088	-0.068560	0.000068
C18	C	1.124300	0.071163	0.000063
C19	C	1.295040	-0.307812	0.000073
C20	C	1.400360	-0.322091	0.000070
C21	C	1.116259	-0.526546	0.000058
C22	C	1.119047	-0.666270	0.000054
N23	N	1.121678	-0.297561	0.356183
C24	C	1.209301	0.142104	0.000073
C25	C	1.206675	0.273389	0.000063
C26	C	1.034039	0.262779	0.000040
C27	C	1.036666	0.131497	0.000040
C28	C	1.308971	0.148231	0.000092
C29	C	1.306345	0.279515	0.000083
N30	N	1.121677	-0.297537	-0.356054
C31	C	1.185620	-0.219379	0.428115
C32	C	1.185618	-0.219364	0.571998
C33	C	1.057727	-0.375721	0.572004
C34	C	1.057726	-0.375730	0.428123
C35	C	1.259460	-0.129111	0.428113
C36	C	1.259457	-0.129096	0.571996
H37	H	0.967450	0.073741	0.000013
Cl38	Cl	0.923878	0.338637	0.000008
H39	H	1.005651	-0.439379	0.369557
H40	H	1.328330	-0.166623	0.383491
Cl41	Cl	1.352850	0.345324	-0.152285
H42	H	0.618341	-0.149345	-0.000035
H43	H	0.625010	-0.445759	0.000051
H44	H	1.347956	0.114956	-0.095559
H45	H	1.340709	0.109411	0.098791
Cl46	Cl	1.364320	0.338168	0.147772
H47	H	1.005659	-0.439364	0.630593
Cl48	Cl	1.234454	0.022435	0.367808
Cl49	Cl	1.223868	0.015312	0.640893
Cl50	Cl	1.371998	-0.173620	0.632305
