data_functionalizedCrystal
_audit_creation_method	'MofGen! by Chris Wilmer'
_symmetry_space_group_name_H-M	'P1'
_symmetry_Int_Tables_number	1
_symmetry_cell_setting	triclinic
loop_
_symmetry_equiv_pos_as_xyz
  x,y,z
_cell_length_a	19.288840
_cell_length_b	10.489716
_cell_length_c	17.766277
_cell_angle_alpha	89.997726
_cell_angle_beta	89.983415
_cell_angle_gamma	83.827576
loop_
_atom_site_label
_atom_site_type_symbol
_atom_site_fract_x
_atom_site_fract_y
_atom_site_fract_z
O1	O	0.922422	0.158959	-0.062714
O2	O	0.720303	0.180457	-0.062687
O3	O	0.825971	-0.015997	-0.062703
O4	O	0.816754	0.355413	-0.062697
O5	O	0.825952	-0.016007	0.062485
O6	O	0.720284	0.180447	0.062502
O7	O	0.922404	0.158950	0.062475
Cu8	Cu	0.821342	0.169697	0.073919
Cu9	Cu	0.821364	0.169709	-0.074131
O10	O	0.816736	0.355403	0.062492
C11	C	0.694412	0.179765	-0.000089
C12	C	0.617294	0.177705	-0.000079
C13	C	0.581094	0.176721	-0.068321
C14	C	0.508634	0.174770	-0.068330
C15	C	0.472378	0.173779	-0.000094
C16	C	0.508586	0.174771	0.068158
C17	C	0.581044	0.176734	0.068165
C18	C	0.362525	0.095957	0.052174
C19	C	0.290069	0.093986	0.052163
C20	C	0.248894	0.167730	-0.000113
C21	C	0.280186	0.243428	-0.052393
C22	C	0.352643	0.245391	-0.052385
C23	C	0.393810	0.171651	-0.000094
C24	C	0.134125	0.164633	-0.068370
C25	C	0.061663	0.162690	-0.068377
C26	C	0.061618	0.162678	0.068113
C27	C	0.134078	0.164633	0.068118
C28	C	0.170327	0.165604	-0.000126
C29	C	0.825269	-0.063518	-0.000111
C30	C	0.823197	-0.205102	-0.000118
C31	C	0.887996	-0.304252	-0.000120
C32	C	0.853764	-0.380828	-0.061838
C33	C	0.853730	-0.380801	0.061588
C34	C	0.788992	-0.279813	-0.061887
C35	C	0.788968	-0.279781	0.061595
C36	C	0.754689	-0.356307	-0.000138
C37	C	0.948294	0.159641	-0.000124
C38	C	1.025413	0.161701	-0.000139
C39	C	0.817438	0.402924	-0.000102
C40	C	0.819509	0.544508	-0.000100
N41	N	0.821331	0.169688	0.178050
N42	N	0.821380	0.169708	-0.178261
C43	C	0.868137	0.082741	0.217429
C44	C	0.868141	0.082735	0.296231
C45	C	0.821346	0.169698	0.335650
C46	C	0.774532	0.256652	0.296261
C47	C	0.774525	0.256647	0.217461
C48	C	0.812821	0.285914	0.460491
C49	C	0.812833	0.285921	0.539290
C50	C	0.821365	0.169714	0.578696
C51	C	0.829899	0.053495	0.539295
C52	C	0.829892	0.053490	0.460494
C53	C	0.821349	0.169713	0.421096
C54	C	0.868177	0.082753	0.703522
C55	C	0.868176	0.082745	0.782325
C56	C	0.774571	0.256673	0.782354
C57	C	0.774568	0.256670	0.703552
C58	C	0.821375	0.169711	0.664141
H59	H	0.479062	0.173966	0.123716
H60	H	0.761661	-0.235882	-0.114123
O61	O	0.679968	-0.386943	-0.000151
H62	H	0.653243	-0.346101	-0.051429
O63	O	0.752757	-0.221294	0.130720
H64	H	0.779769	-0.261943	0.181883
O65	O	0.406934	0.016407	0.108557
H66	H	0.373006	-0.036577	0.144898
H67	H	0.881091	-0.424901	0.113765
O68	O	0.918649	-0.011047	0.661005
H69	H	0.951189	-0.071526	0.701630
O70	O	0.022510	0.161849	0.141715
H71	H	-0.033962	0.160400	0.130247
O72	O	0.803609	0.411271	0.418003
H73	H	0.756352	0.414430	0.382132
H74	H	0.944360	-0.280859	-0.000190
H75	H	0.906248	0.011931	0.185343
H76	H	0.836838	-0.041139	0.428417
O77	O	0.918632	-0.011033	0.338720
H78	H	0.951182	-0.071493	0.298076
O79	O	0.173128	0.165714	0.141722
H80	H	0.135746	0.164700	0.189171
H81	H	0.479154	0.173971	-0.123903
O82	O	0.839096	-0.071858	0.581783
H83	H	0.837657	-0.052337	0.643197
O84	O	0.918669	-0.011024	0.824805
H85	H	0.951220	-0.071475	0.784158
H86	H	0.736467	0.327475	0.814448
H87	H	0.881126	-0.424942	-0.114024
H88	H	0.736458	0.327475	0.671487
O89	O	0.803643	0.411262	0.581786
H90	H	0.797700	0.492067	0.541148
H91	H	0.736430	0.327457	0.328360
O92	O	0.724045	0.350438	0.174979
H93	H	0.691508	0.410916	0.215625
H94	H	0.264598	0.032342	0.094729
H95	H	0.378117	0.307030	-0.094951
O96	O	0.620193	0.177778	-0.141923
H97	H	0.600530	0.264322	-0.174644
O98	O	0.235796	0.323005	-0.108777
H99	H	0.206965	0.259137	-0.144086
O100	O	0.173230	0.165703	-0.141971
H101	H	0.135879	0.164714	-0.189427
O102	O	0.620094	0.177812	0.141771
H103	H	0.582713	0.176800	0.189222
H104	H	0.032190	0.161897	-0.123950
