data_functionalizedCrystal
_audit_creation_method	'MofGen! by Chris Wilmer'
_symmetry_space_group_name_H-M	'P1'
_symmetry_Int_Tables_number	1
_symmetry_cell_setting	triclinic
loop_
_symmetry_equiv_pos_as_xyz
  x,y,z
_cell_length_a	8.497374
_cell_length_b	8.497374
_cell_length_c	16.120530
_cell_angle_alpha	92.900151
_cell_angle_beta	92.902542
_cell_angle_gamma	90.004389
loop_
_atom_site_label
_atom_site_type_symbol
_atom_site_fract_x
_atom_site_fract_y
_atom_site_fract_z
Zn1	Zn	0.750812	1.014365	1.274554
Zn2	Zn	1.084145	1.347698	1.607888
Zn3	Zn	1.417478	1.681032	1.941221
Zn4	Zn	1.014560	0.750630	1.274547
Zn5	Zn	1.347894	1.083963	1.607880
Zn6	Zn	1.681227	1.417297	1.941213
Zn7	Zn	0.737393	0.737223	1.135175
Zn8	Zn	1.070727	1.070556	1.468508
Zn9	Zn	1.404060	1.403889	1.801841
Zn10	Zn	1.001146	1.000991	1.135156
Zn11	Zn	1.334479	1.334324	1.468489
Zn12	Zn	1.667813	1.667657	1.801822
O13	O	0.875978	0.875802	1.204858
O14	O	1.209311	1.209135	1.538191
O15	O	1.542645	1.542469	1.871525
O16	O	0.797028	0.990588	1.391220
O17	O	1.130361	1.323922	1.724553
O18	O	1.463695	1.657255	2.057886
O19	O	0.977792	0.528090	1.256064
O20	O	1.311125	0.861423	1.589397
O21	O	1.644459	1.194756	1.922730
O22	O	0.518412	0.773972	1.153675
O23	O	0.851745	1.107306	1.487008
O24	O	1.185079	1.440639	1.820342
O25	O	0.990803	0.796823	1.391214
O26	O	1.324136	1.130157	1.724548
O27	O	1.657470	1.463490	2.057881
O28	O	0.528270	0.977588	1.256076
O29	O	0.861604	1.310921	1.589410
O30	O	1.194937	1.644254	1.922743
O31	O	0.774159	0.518239	1.153668
O32	O	1.107492	0.851573	1.487001
O33	O	1.440825	1.184906	1.820334
O34	O	0.761151	0.761004	1.018506
O35	O	1.094485	1.094337	1.351839
O36	O	1.427818	1.427671	1.685172
O37	O	0.967940	1.223527	1.153642
O38	O	1.301274	1.556860	1.486976
O39	O	1.634607	1.890193	1.820309
O40	O	0.954929	0.954793	1.018492
O41	O	1.288263	1.288126	1.351825
O42	O	1.621596	1.621460	1.685158
O43	O	0.784021	1.233353	1.256058
O44	O	1.117354	1.566686	1.589391
O45	O	1.450687	1.900019	1.922725
O46	O	1.233542	0.783855	1.256045
O47	O	1.566876	1.117188	1.589378
O48	O	1.900209	1.450521	1.922712
O49	O	1.223687	0.967794	1.153635
O50	O	1.557020	1.301127	1.486968
O51	O	1.890353	1.634460	1.820302
C52	C	0.855130	0.854993	0.988248
C53	C	1.188463	1.188327	1.321582
C54	C	1.521796	1.521660	1.654915
C55	C	0.846249	0.846128	0.895582
C56	C	1.179582	1.179462	1.228915
C57	C	1.512915	1.512795	1.562249
C58	C	1.285857	0.875824	1.204847
C59	C	1.619190	1.209157	1.538181
C60	C	1.952523	1.542491	1.871514
C61	C	1.464503	0.875800	1.204870
C62	C	1.797836	1.209134	1.538203
C63	C	2.131170	1.542467	1.871536
C64	C	0.876004	1.465923	1.204863
C65	C	1.209337	1.799256	1.538196
C66	C	1.542670	2.132589	1.871529
C67	C	0.875995	1.287278	1.204854
C68	C	1.209329	1.620611	1.538188
C69	C	1.542662	1.953945	1.871521
C70	C	0.829998	0.829957	0.725919
C71	C	1.163331	1.163291	1.059253
C72	C	1.496664	1.496624	1.392586
C73	C	0.922074	0.921762	0.684637
C74	C	1.255408	1.255095	1.017970
C75	C	1.588741	1.588429	1.351304
C76	C	0.913032	0.912764	0.590231
C77	C	1.246365	1.246098	0.923564
C78	C	1.579699	1.579431	1.256897
C79	C	0.839038	0.838953	0.820334
C80	C	1.172371	1.172286	1.153667
C81	C	1.505704	1.505620	1.487001
C82	C	0.896909	0.896693	1.422313
C83	C	1.230242	1.230026	1.755646
C84	C	1.563575	1.563360	2.088980
C85	C	0.905828	0.905596	1.514980
C86	C	1.239161	1.238929	1.848313
C87	C	1.572495	1.572262	2.181646
H88	H	1.007692	1.007118	0.720195
H89	H	1.341026	1.340451	1.053528
H90	H	1.674359	1.673784	1.386862
H91	H	0.744385	0.744610	0.690363
H92	H	1.077719	1.077943	1.023697
H93	H	1.411052	1.411276	1.357030
