data_functionalizedCrystal
_audit_creation_method	'MofGen! by Chris Wilmer'
_symmetry_space_group_name_H-M	'P1'
_symmetry_Int_Tables_number	1
_symmetry_cell_setting	triclinic
loop_
_symmetry_equiv_pos_as_xyz
  x,y,z
_cell_length_a	16.120530
_cell_length_b	16.120484
_cell_length_c	12.759393
_cell_angle_alpha	92.863987
_cell_angle_beta	87.081261
_cell_angle_gamma	90.167327
loop_
_atom_site_label
_atom_site_type_symbol
_atom_site_fract_x
_atom_site_fract_y
_atom_site_fract_z
Zn1	Zn	1.254492	-0.395558	-0.699366
Zn2	Zn	1.587826	-0.062224	-0.366033
Zn3	Zn	1.921159	0.271109	-0.032700
Zn4	Zn	1.247331	-0.534629	-0.532099
Zn5	Zn	1.580664	-0.201296	-0.198765
Zn6	Zn	1.913998	0.132037	0.134568
Zn7	Zn	1.115427	-0.388538	-0.514372
Zn8	Zn	1.448760	-0.055204	-0.181039
Zn9	Zn	1.782094	0.278129	0.152294
Zn10	Zn	1.108345	-0.527511	-0.698405
Zn11	Zn	1.441678	-0.194178	-0.365072
Zn12	Zn	1.775011	0.139156	-0.031739
O13	O	1.181399	-0.461559	-0.611061
O14	O	1.514732	-0.128226	-0.277727
O15	O	1.848065	0.205108	0.055606
O16	O	1.369908	-0.419923	-0.684999
O17	O	1.703241	-0.086589	-0.351665
O18	O	2.036575	0.246744	-0.018332
O19	O	1.229801	-0.515291	-0.382726
O20	O	1.563134	-0.181958	-0.049393
O21	O	1.896467	0.151376	0.283940
O22	O	1.139835	-0.273106	-0.531896
O23	O	1.473169	0.060227	-0.198563
O24	O	1.806502	0.393560	0.134771
O25	O	1.364647	-0.522098	-0.562108
O26	O	1.697980	-0.188765	-0.228774
O27	O	2.031313	0.144569	0.104559
O28	O	1.242006	-0.278264	-0.667810
O29	O	1.575339	0.055070	-0.334477
O30	O	1.908673	0.388403	-0.001144
O31	O	1.132891	-0.407958	-0.369703
O32	O	1.466225	-0.074625	-0.036370
O33	O	1.799558	0.258708	0.296963
O34	O	0.998122	-0.401056	-0.530964
O35	O	1.331455	-0.067723	-0.197631
O36	O	1.664788	0.265611	0.135703
O37	O	1.127764	-0.509966	-0.845553
O38	O	1.461098	-0.176632	-0.512220
O39	O	1.794431	0.156701	-0.178887
O40	O	0.992918	-0.503159	-0.666172
O41	O	1.326252	-0.169826	-0.332839
O42	O	1.659585	0.163508	0.000495
O43	O	1.235139	-0.413020	-0.846260
O44	O	1.568472	-0.079687	-0.512926
O45	O	1.901805	0.253646	-0.179593
O46	O	1.222933	-0.650048	-0.561176
O47	O	1.556267	-0.316714	-0.227842
O48	O	1.889600	0.016619	0.105491
O49	O	1.120820	-0.644818	-0.683360
O50	O	1.454154	-0.311484	-0.350027
O51	O	1.787487	0.021849	-0.016694
C52	C	0.965348	-0.450574	-0.596541
C53	C	1.298681	-0.117240	-0.263208
C54	C	1.632014	0.216093	0.070126
C55	C	0.872919	-0.445894	-0.590355
C56	C	1.206252	-0.112561	-0.257022
C57	C	1.539586	0.220772	0.076311
C58	C	0.703692	-0.437332	-0.579070
C59	C	1.037025	-0.103998	-0.245737
C60	C	1.370358	0.229335	0.087597
C61	C	0.659943	-0.485847	-0.643132
C62	C	0.993277	-0.152514	-0.309798
C63	C	1.326610	0.180819	0.023535
C64	C	0.565779	-0.481083	-0.636852
C65	C	0.899113	-0.147750	-0.303519
C66	C	1.232446	0.185584	0.029814
C67	C	0.797864	-0.442095	-0.585348
C68	C	1.131198	-0.108762	-0.252015
C69	C	1.464531	0.224572	0.081319
C70	C	1.170354	-0.677605	-0.624112
C71	C	1.503687	-0.344272	-0.290778
C72	C	1.837020	-0.010939	0.042555
C73	C	1.165705	-0.770035	-0.629735
C74	C	1.499038	-0.436702	-0.296402
C75	C	1.832371	-0.103368	0.036932
C76	C	1.157222	-0.939265	-0.640024
C77	C	1.490555	-0.605932	-0.306691
C78	C	1.823888	-0.272598	0.026643
C79	C	1.205725	-0.983020	-0.582124
C80	C	1.539058	-0.649686	-0.248791
C81	C	1.872392	-0.316353	0.084542
C82	C	1.201005	-1.077185	-0.587849
C83	C	1.534338	-0.743852	-0.254516
C84	C	1.867672	-0.410519	0.078817
C85	C	1.161941	-0.845091	-0.634301
C86	C	1.495274	-0.511758	-0.300967
C87	C	1.828607	-0.178424	0.032366
C88	C	1.398293	-0.472587	-0.625638
C89	C	1.731627	-0.139254	-0.292304
C90	C	2.064960	0.194079	0.041029
C91	C	1.490721	-0.477287	-0.631850
C92	C	1.824054	-0.143954	-0.298516
C93	C	2.157388	0.189380	0.034817
C94	C	1.181460	-0.461482	-0.885093
C95	C	1.514794	-0.128149	-0.551760
C96	C	1.848127	0.205185	-0.218426
C97	C	1.181486	-0.461449	-1.001869
C98	C	1.514820	-0.128116	-0.668536
C99	C	1.848153	0.205217	-0.335203
C100	C	1.192510	-0.244670	-0.597983
C101	C	1.525843	0.088663	-0.264650
C102	C	1.859176	0.421997	0.068683
C103	C	1.197244	-0.152245	-0.592410
C104	C	1.530578	0.181089	-0.259077
C105	C	1.863911	0.514422	0.074256
C106	C	1.231951	-0.517317	-1.063509
C107	C	1.565284	-0.183984	-0.730176
C108	C	1.898617	0.149349	-0.396842
C109	C	1.231978	-0.517283	-1.173233
C110	C	1.565311	-0.183950	-0.839899
C111	C	1.898644	0.149383	-0.506566
C112	C	1.131069	-0.405510	-1.159667
C113	C	1.464402	-0.072177	-0.826334
C114	C	1.797735	0.261156	-0.493000
C115	C	1.131047	-0.405541	-1.049945
C116	C	1.464380	-0.072208	-0.716612
C117	C	1.797714	0.261125	-0.383279
C118	C	1.290207	-0.581851	-1.071342
C119	C	1.623540	-0.248518	-0.738009
C120	C	1.956874	0.084816	-0.404675
C121	C	1.290234	-0.581817	-1.181066
C122	C	1.623567	-0.248484	-0.847732
C123	C	1.956901	0.084850	-0.514399
C124	C	1.181388	-0.461578	-0.338094
C125	C	1.514722	-0.128244	-0.004760
C126	C	1.848055	0.205089	0.328573
C127	C	1.181535	-0.461384	-0.221315
C128	C	1.514869	-0.128051	0.112019
C129	C	1.848202	0.205282	0.445352
H130	H	0.670428	-0.392222	-0.519514
H131	H	1.003762	-0.058889	-0.186180
H132	H	1.337095	0.274445	0.147153
C133	C	1.075546	-0.344079	-0.982145
C134	C	1.408879	-0.010745	-0.648812
C135	C	1.742212	0.322588	-0.315478
H136	H	1.045506	-0.310784	-1.026495
H137	H	1.378840	0.022550	-0.693161
H138	H	1.712173	0.355883	-0.359828
H139	H	1.109209	-0.309483	-0.939299
H140	H	1.442542	0.023851	-0.605966
H141	H	1.775876	0.357184	-0.272632
H142	H	1.037667	-0.374054	-0.938823
H143	H	1.371000	-0.040721	-0.605490
H144	H	1.704334	0.292613	-0.272156
C145	C	1.266587	-0.938092	-0.509320
C146	C	1.599920	-0.604758	-0.175987
C147	C	1.933254	-0.271425	0.157347
H148	H	1.261802	-0.879777	-0.514955
H149	H	1.595135	-0.546444	-0.181622
H150	H	1.928468	-0.213111	0.151712
H151	H	1.321767	-0.955041	-0.529317
H152	H	1.655101	-0.621707	-0.195984
H153	H	1.988434	-0.288374	0.137349
H154	H	1.253718	-0.951727	-0.438755
H155	H	1.587051	-0.618394	-0.105422
H156	H	1.920385	-0.285061	0.227912
H157	H	1.112155	-0.972524	-0.693888
H158	H	1.445488	-0.639191	-0.360555
H159	H	1.778821	-0.305857	-0.027221
H160	H	1.090004	-0.359991	-1.198824
H161	H	1.423337	-0.026658	-0.865491
H162	H	1.756670	0.306675	-0.532157
H163	H	0.693209	-0.530960	-0.702693
H164	H	1.026542	-0.197627	-0.369360
H165	H	1.359875	0.135706	-0.036027
C166	C	1.378390	-0.562982	-1.035555
C167	C	1.711724	-0.229648	-0.702221
C168	C	2.045057	0.103685	-0.368888
H169	H	1.414671	-0.555192	-1.095293
H170	H	1.748005	-0.221858	-0.761960
H171	H	2.081338	0.111475	-0.428627
H172	H	1.397523	-0.608155	-0.998290
H173	H	1.730856	-0.274822	-0.664956
H174	H	2.064190	0.058511	-0.331623
H175	H	1.377378	-0.513940	-0.991013
H176	H	1.710712	-0.180607	-0.657679
H177	H	2.044045	0.152727	-0.324346
C178	C	1.254793	-0.662914	-1.028245
C179	C	1.588126	-0.329581	-0.694912
C180	C	1.921460	0.003753	-0.361578
H181	H	1.239043	-0.698994	-1.084980
H182	H	1.572376	-0.365661	-0.751646
H183	H	1.905710	-0.032327	-0.418313
H184	H	1.207599	-0.650610	-0.982540
H185	H	1.540933	-0.317277	-0.649206
H186	H	1.874266	0.016056	-0.315873
H187	H	1.295896	-0.689155	-0.990640
H188	H	1.629229	-0.355822	-0.657306
H189	H	1.962562	-0.022488	-0.323973
C190	C	1.374487	-0.554855	-1.230725
C191	C	1.707821	-0.221522	-0.897391
C192	C	2.041154	0.111811	-0.564058
H193	H	1.411991	-0.542877	-1.176914
H194	H	1.745325	-0.209544	-0.843580
H195	H	2.078658	0.123790	-0.510247
H196	H	1.367064	-0.506649	-1.269089
H197	H	1.700397	-0.173315	-0.935755
H198	H	2.033730	0.160018	-0.602422
H199	H	1.396392	-0.598418	-1.276799
H200	H	1.729725	-0.265085	-0.943466
H201	H	2.063058	0.068248	-0.610132
H202	H	1.269689	-0.645333	-1.213568
H203	H	1.603022	-0.311999	-0.880235
H204	H	1.936355	0.021334	-0.546901
