data_functionalizedCrystal
_audit_creation_method	'MofGen! by Chris Wilmer'
_symmetry_space_group_name_H-M	'P1'
_symmetry_Int_Tables_number	1
_symmetry_cell_setting	triclinic
loop_
_symmetry_equiv_pos_as_xyz
  x,y,z
_cell_length_a	29.839131
_cell_length_b	16.959455
_cell_length_c	16.959447
_cell_angle_alpha	90.023646
_cell_angle_beta	89.966085
_cell_angle_gamma	89.963588
loop_
_atom_site_label
_atom_site_type_symbol
_atom_site_fract_x
_atom_site_fract_y
_atom_site_fract_z
Zn1	Zn	-0.178904	-1.208267	-0.447086
Zn2	Zn	-0.254038	-1.208140	-0.314899
Zn3	Zn	-0.178916	-1.076095	-0.314901
Zn4	Zn	-0.254002	-1.076010	-0.447016
O5	O	-0.216465	-1.142128	-0.380975
O6	O	-0.188881	-1.318861	-0.429579
O7	O	-0.244093	-1.190606	-0.204288
O8	O	-0.116047	-1.093716	-0.332466
O9	O	-0.244081	-1.318767	-0.332461
O10	O	-0.116039	-1.190822	-0.429581
O11	O	-0.188901	-1.093593	-0.204290
O12	O	-0.188866	-0.965473	-0.332399
O13	O	-0.244020	-1.093572	-0.557636
O14	O	-0.244031	-0.965411	-0.429462
O15	O	-0.188846	-1.190740	-0.557687
O16	O	-0.316900	-1.190524	-0.332394
O17	O	-0.316874	-1.093449	-0.429460
C18	C	-0.216446	-0.936762	-0.380924
C19	C	-0.216449	-0.848905	-0.380920
C20	C	-0.245166	-0.477370	-0.330343
C21	C	-0.187775	-0.477489	-0.431628
C22	C	-0.187769	-0.560034	-0.431614
C23	C	-0.216463	-0.601252	-0.380964
C24	C	-0.245162	-0.559924	-0.330328
C25	C	-0.159073	-0.601369	-0.482254
C26	C	-0.159067	-0.683920	-0.482242
C27	C	-0.187758	-0.725139	-0.431588
C28	C	-0.216459	-0.683806	-0.380949
C29	C	-0.245152	-0.725023	-0.330299
C30	C	-0.273850	-0.683692	-0.279657
C31	C	-0.273854	-0.601143	-0.279674
C32	C	-0.187755	-0.807687	-0.431570
C33	C	-0.245148	-0.807577	-0.330285
C34	C	-0.333188	-1.141985	-0.380936
C35	C	-0.383122	-1.141996	-0.380946
C36	C	-0.692766	-1.192767	-0.330507
C37	C	-0.880440	-1.192864	-0.330538
O38	O	-0.904705	-1.235918	-0.287623
N39	N	-0.903907	-1.142292	-0.381035
C40	C	-0.880453	-1.091695	-0.431532
O41	O	-0.904720	-1.048688	-0.474489
C42	C	-0.692781	-1.091602	-0.431505
C43	C	-0.669316	-1.142172	-0.380998
C44	C	-0.669301	-1.243333	-0.280006
C45	C	-0.622386	-1.243305	-0.279995
C46	C	-0.598936	-1.192711	-0.330487
C47	C	-0.622401	-1.142144	-0.380988
C48	C	-0.669328	-1.041010	-0.482005
C49	C	-0.622407	-1.040993	-0.481995
C50	C	-0.598942	-1.091563	-0.431489
C51	C	-0.552035	-1.091522	-0.431469
N52	N	-0.528567	-1.142094	-0.380972
C53	C	-0.552018	-1.192689	-0.330481
C54	C	-0.978984	-1.091746	-0.431541
C55	C	-1.025902	-1.091768	-0.431547
C56	C	-1.025885	-1.192939	-0.330554
C57	C	-0.978966	-1.192912	-0.330545
C58	C	-0.955516	-1.142319	-0.381044
C59	C	-0.453492	-1.192626	-0.330463
C60	C	-0.406572	-1.192591	-0.330455
C61	C	-0.406593	-1.091424	-0.431450
C62	C	-0.453509	-1.091455	-0.431456
C63	C	-0.476957	-1.142063	-0.380959
O64	O	-0.527740	-1.048497	-0.474368
O65	O	-0.527743	-1.235702	-0.287542
C66	C	-0.739682	-1.192795	-0.330517
C67	C	-0.763147	-1.142228	-0.381019
C68	C	-0.739697	-1.091634	-0.431510
C69	C	-0.810065	-1.142250	-0.381025
C70	C	-0.833515	-1.192845	-0.330533
C71	C	-0.810048	-1.243417	-0.280036
C72	C	-0.763132	-1.243389	-0.280026
C73	C	-0.763164	-1.041061	-0.482007
C74	C	-0.810080	-1.041093	-0.482013
C75	C	-0.833530	-1.091687	-0.431521
C76	C	-0.099287	-1.142293	-0.381032
C77	C	-0.049352	-1.142363	-0.381056
C78	C	-0.216428	-1.142161	-0.587144
C79	C	-0.216412	-1.142175	-0.675000
C80	C	-0.216479	-0.348296	-0.381013
C81	C	-0.216472	-0.436153	-0.380993
C82	C	-0.245091	-1.091678	-1.046452
C83	C	-0.187638	-1.192860	-1.046500
C84	C	-0.187648	-1.192839	-0.963954
C85	C	-0.216380	-1.142238	-0.922653
C86	C	-0.245102	-1.091657	-0.963898
C87	C	-0.158929	-1.243424	-0.922703
C88	C	-0.158938	-1.243406	-0.840152
C89	C	-0.187668	-1.192800	-0.798850
C90	C	-0.216391	-1.142217	-0.840100
C91	C	-0.245123	-1.091615	-0.798799
C92	C	-0.273844	-1.041028	-0.840047
C93	C	-0.273832	-1.041051	-0.922596
C94	C	-0.187680	-1.192776	-0.716301
C95	C	-0.245134	-1.091595	-0.716245
C96	C	-0.216470	-1.142141	-0.175609
C97	C	-0.216359	-1.142280	-0.087753
H98	H	-0.297218	-0.567483	-0.238443
H99	H	-0.164416	-0.443924	-0.472870
N100	N	-0.156811	-0.852261	-0.486197
H101	H	-0.175099	-0.886508	-0.522758
H102	H	-0.138647	-0.813569	-0.518236
N103	N	-0.156713	-1.247338	-0.671806
H104	H	-0.124608	-1.235124	-0.686182
H105	H	-0.161122	-1.239616	-0.613261
H106	H	-0.268530	-0.443714	-0.289108
H107	H	-0.135715	-0.567803	-0.523495
N108	N	-0.478821	-1.036911	-0.485925
H109	H	-0.498323	-1.000314	-0.453770
H110	H	-0.456816	-1.004906	-0.517895
N111	N	-0.953698	-1.037164	-0.486006
H112	H	-0.934264	-1.000545	-0.453842
H113	H	-0.934227	-1.069300	-0.522666
H114	H	-0.135540	-1.284626	-0.956337
N115	N	-0.953663	-1.247465	-0.276076
H116	H	-0.934167	-1.284067	-0.308236
H117	H	-0.934251	-1.215308	-0.239416
N118	N	-0.128116	-0.728496	-0.536860
H119	H	-0.109940	-0.689858	-0.568948
H120	H	-0.107300	-0.762745	-0.504744
H121	H	-0.603283	-1.284486	-0.238871
H122	H	-0.387469	-1.233771	-0.289324
H123	H	-0.268528	-1.050381	-0.682624
H124	H	-0.297217	-0.999868	-0.956188
N125	N	-0.737873	-0.986485	-0.536462
H126	H	-0.746010	-0.998723	-0.592954
H127	H	-0.746089	-0.930047	-0.524052
H128	H	-0.688390	-1.284538	-0.238889
N129	N	-0.381296	-1.036851	-0.485902
H130	H	-0.348014	-1.044513	-0.478229
H131	H	-0.389466	-1.049122	-0.542369
H132	H	-0.472578	-1.233837	-0.289345
N133	N	-1.051182	-1.247508	-0.276092
H134	H	-1.084464	-1.239843	-0.283764
H135	H	-1.042949	-1.303948	-0.288458
H136	H	-0.297240	-0.999832	-0.806409
N137	N	-1.051208	-1.037212	-0.486008
H138	H	-1.029229	-1.005160	-0.517991
H139	H	-1.070644	-1.069367	-0.522628
H140	H	-0.688425	-0.999826	-0.523129
H141	H	-0.603317	-0.999794	-0.523120
N142	N	-0.276059	-1.037102	-1.090934
H143	H	-0.271691	-1.044785	-1.149496
H144	H	-0.308150	-1.049343	-1.076495
H145	H	-0.164248	-1.234062	-1.080133
H146	H	-0.829149	-1.284611	-0.238922
N147	N	-0.276093	-0.852031	-0.275648
H148	H	-0.294272	-0.813320	-0.243571
H149	H	-0.296907	-0.886279	-0.307748
N150	N	-0.304799	-0.728147	-0.225027
H151	H	-0.325639	-0.762393	-0.257079
H152	H	-0.286481	-0.762350	-0.188466
H153	H	-0.744030	-1.284568	-0.238899
H154	H	-0.135551	-1.284597	-0.806575
N155	N	-0.835386	-0.986538	-0.536483
H156	H	-0.813406	-0.954486	-0.568465
H157	H	-0.854819	-1.018699	-0.573104
