data_functionalizedCrystal
_audit_creation_method	'MofGen! by Chris Wilmer'
_symmetry_space_group_name_H-M	'P1'
_symmetry_Int_Tables_number	1
_symmetry_cell_setting	triclinic
loop_
_symmetry_equiv_pos_as_xyz
  x,y,z
_cell_length_a	6.817900
_cell_length_b	17.982959
_cell_length_c	17.110486
_cell_angle_alpha	96.531630
_cell_angle_beta	99.060439
_cell_angle_gamma	102.451857
loop_
_atom_site_label
_atom_site_type_symbol
_atom_site_fract_x
_atom_site_fract_y
_atom_site_fract_z
V1	V	-3.971755	-0.105185	-0.247050
O2	O	-3.965632	0.005288	-0.242007
O3	O	-3.918535	-0.208789	-0.245687
O4	O	-3.901697	-0.103465	-0.354648
O5	O	-3.982586	-0.100766	-0.132292
V6	V	-4.458814	-0.091984	-0.233284
O7	O	-4.225257	-0.134145	-0.277246
O8	O	-4.655509	-0.063024	-0.203088
O9	O	-4.288827	0.011620	-0.234647
O10	O	-4.582334	-0.202457	-0.238327
O11	O	-4.565379	-0.096403	-0.348042
O12	O	-4.305665	-0.093704	-0.125686
C13	C	-3.763064	-0.234049	-0.241874
C14	C	-3.800692	-0.318746	-0.241477
C15	C	-3.741585	-0.099696	-0.380863
C16	C	-3.765556	-0.098975	-0.468827
C17	C	-3.999490	-0.362414	-0.245250
C18	C	-4.034836	-0.441996	-0.244882
C19	C	-3.871380	-0.477908	-0.240735
C20	C	-3.672566	-0.434235	-0.236965
C21	C	-3.637225	-0.354655	-0.237339
C22	C	-3.815090	-0.755172	-0.235457
C23	C	-3.850447	-0.834758	-0.235081
C24	C	-4.212701	-0.842513	-0.243001
C25	C	-4.177360	-0.762933	-0.243375
C26	C	-3.978552	-0.719267	-0.239608
C27	C	-3.940229	-0.632976	-0.240009
C28	C	-3.909698	-0.564198	-0.240329
C29	C	-3.957928	-0.102439	-0.514196
C30	C	-3.980439	-0.101761	-0.596847
C31	C	-3.810580	-0.097625	-0.634129
C32	C	-3.618191	-0.094158	-0.588753
C33	C	-3.595679	-0.094831	-0.506103
C34	C	-3.869488	-0.095399	-0.883477
C35	C	-3.892016	-0.094729	-0.966133
C36	C	-4.254263	-0.102330	-0.974221
C37	C	-4.231736	-0.103007	-0.891569
C38	C	-4.039349	-0.099536	-0.846201
C39	C	-3.833587	-0.096934	-0.718612
C40	C	-4.016341	-0.100222	-0.761718
C41	C	-4.107641	0.036876	-0.238458
C42	C	-4.049249	0.121572	-0.238860
C43	C	-4.129120	-0.097475	-0.099467
C44	C	-4.084388	-0.098192	-0.011502
H45	H	-4.196715	-0.477547	-0.247955
H46	H	-4.154638	-0.103587	-0.731360
H47	H	-3.539481	-0.463482	-0.233593
C48	C	-4.418579	-0.107560	-0.850562
H49	H	-4.377623	-0.107473	-0.794842
H50	H	-4.474636	-0.064385	-0.858399
H51	H	-4.518745	-0.153647	-0.873140
C52	C	-4.357164	-0.723434	-0.247939
H53	H	-4.480629	-0.760841	-0.250141
H54	H	-4.334872	-0.685631	-0.201871
H55	H	-4.366941	-0.699473	-0.294637
C56	C	-4.431395	-0.890549	-0.247157
H57	H	-4.429047	-0.943089	-0.246351
H58	H	-4.483989	-0.872185	-0.202466
H59	H	-4.516060	-0.886016	-0.295232
C60	C	-3.418545	-0.306620	-0.233182
H61	H	-3.326253	-0.339403	-0.230650
H62	H	-3.413263	-0.282330	-0.279542
H63	H	-3.381193	-0.268497	-0.186775
C64	C	-4.144779	-0.106989	-0.473193
H65	H	-4.262568	-0.108948	-0.512052
H66	H	-4.165601	-0.152038	-0.448486
H67	H	-4.121453	-0.062775	-0.433752
C68	C	-4.192046	-0.105567	-0.646749
H69	H	-4.289986	-0.108135	-0.612709
H70	H	-4.186286	-0.060831	-0.671787
H71	H	-4.230432	-0.150095	-0.686529
H72	H	-3.439022	-0.091992	-0.469161
C73	C	-4.465866	-0.106137	-1.024126
H74	H	-4.454951	-0.105137	-1.078688
H75	H	-4.558673	-0.152434	-1.019610
H76	H	-4.514508	-0.063171	-1.004872
H77	H	-3.753684	-0.091358	-0.996485
H78	H	-3.717330	-0.863995	-0.231710
H79	H	-3.695292	-0.093569	-0.748976
H80	H	-4.132598	-0.333179	-0.248619
H81	H	-3.653212	-0.719628	-0.232386
H82	H	-3.712851	-0.092600	-0.846552
H83	H	-3.479888	-0.090786	-0.619114
