data_functionalizedCrystal
_audit_creation_method	'MofGen! by Chris Wilmer'
_symmetry_space_group_name_H-M	'P1'
_symmetry_Int_Tables_number	1
_symmetry_cell_setting	triclinic
loop_
_symmetry_equiv_pos_as_xyz
  x,y,z
_cell_length_a	18.215407
_cell_length_b	25.639239
_cell_length_c	25.639233
_cell_angle_alpha	89.981253
_cell_angle_beta	89.986457
_cell_angle_gamma	90.039134
loop_
_atom_site_label
_atom_site_type_symbol
_atom_site_fract_x
_atom_site_fract_y
_atom_site_fract_z
Zn1	Zn	1.124956	-0.208208	-0.295622
Zn2	Zn	1.458289	0.125125	0.037711
Zn3	Zn	1.791622	0.458458	0.371045
Zn4	Zn	1.124848	-0.295627	-0.208186
Zn5	Zn	1.458181	0.037706	0.125147
Zn6	Zn	1.791515	0.371040	0.458480
Zn7	Zn	1.001902	-0.208208	-0.208199
Zn8	Zn	1.335235	0.125125	0.125134
Zn9	Zn	1.668568	0.458459	0.458467
Zn10	Zn	1.001824	-0.295615	-0.295589
Zn11	Zn	1.335158	0.037718	0.037744
Zn12	Zn	1.668491	0.371052	0.371077
O13	O	1.063382	-0.251915	-0.251899
O14	O	1.396716	0.081419	0.081434
O15	O	1.730049	0.414752	0.414767
O16	O	1.227926	-0.219809	-0.284032
O17	O	1.561259	0.113524	0.049302
O18	O	1.894592	0.446857	0.382635
O19	O	1.108526	-0.284036	-0.135023
O20	O	1.441859	0.049298	0.198311
O21	O	1.775193	0.382631	0.531644
O22	O	1.018303	-0.135043	-0.219815
O23	O	1.351636	0.198290	0.113518
O24	O	1.684969	0.531624	0.446852
O25	O	1.227846	-0.284036	-0.219793
O26	O	1.561180	0.049298	0.113540
O27	O	1.894513	0.382631	0.446874
O28	O	1.108710	-0.135043	-0.284044
O29	O	1.442043	0.198290	0.049289
O30	O	1.775376	0.531624	0.382622
O31	O	1.018198	-0.219809	-0.135032
O32	O	1.351531	0.113524	0.198301
O33	O	1.684865	0.446857	0.531634
O34	O	0.898907	-0.219798	-0.219783
O35	O	1.232241	0.113536	0.113550
O36	O	1.565574	0.446869	0.446883
O37	O	1.018171	-0.284015	-0.368759
O38	O	1.351504	0.049318	-0.035426
O39	O	1.684837	0.382651	0.297908
O40	O	0.898850	-0.284015	-0.283989
O41	O	1.232184	0.049318	0.049345
O42	O	1.565517	0.382651	0.382678
O43	O	1.108635	-0.219798	-0.368783
O44	O	1.441968	0.113535	-0.035450
O45	O	1.775301	0.446869	0.297884
O46	O	1.108451	-0.368791	-0.219761
O47	O	1.441785	-0.035457	0.113572
O48	O	1.775118	0.297876	0.446905
O49	O	1.018066	-0.368782	-0.283976
O50	O	1.351400	-0.035449	0.049357
O51	O	1.684733	0.297885	0.382691
C52	C	0.872176	-0.251906	-0.251884
C53	C	1.205510	0.081428	0.081449
C54	C	1.538843	0.414761	0.414782
C55	C	0.790377	-0.251914	-0.251890
C56	C	1.123711	0.081419	0.081443
C57	C	1.457044	0.414752	0.414776
C58	C	0.602173	-0.285405	-0.285280
C59	C	0.935506	0.047928	0.048053
C60	C	1.268840	0.381262	0.381387
C61	C	0.525314	-0.285407	-0.285286
C62	C	0.858648	0.047927	0.048047
C63	C	1.191981	0.381260	0.381380
C64	C	0.525344	-0.218434	-0.218530
C65	C	0.858677	0.114900	0.114803
C66	C	1.192011	0.448233	0.448137
C67	C	0.602201	-0.218430	-0.218526
C68	C	0.935535	0.114904	0.114807
C69	C	1.268868	0.448237	0.448140
C70	C	0.640614	-0.251918	-0.251901
C71	C	0.973947	0.081415	0.081433
C72	C	1.307280	0.414748	0.414766
C73	C	0.486898	-0.251924	-0.251911
C74	C	0.820231	0.081409	0.081423
C75	C	1.153564	0.414743	0.414756
C76	C	0.403564	-0.251925	-0.251917
C77	C	0.736897	0.081408	0.081416
C78	C	1.070231	0.414741	0.414749
C79	C	0.723953	-0.251916	-0.251895
C80	C	1.057286	0.081417	0.081439
C81	C	1.390619	0.414750	0.414772
C82	C	1.063259	-0.387757	-0.251875
C83	C	1.396592	-0.054424	0.081458
C84	C	1.729925	0.278910	0.414791
C85	C	1.063273	-0.445871	-0.251883
C86	C	1.396606	-0.112538	0.081451
C87	C	1.729940	0.220795	0.414784
C88	C	1.110569	-0.806226	-0.218520
C89	C	1.443902	-0.472893	0.114814
C90	C	1.777235	-0.139560	0.448147
C91	C	1.110597	-0.860830	-0.218527
C92	C	1.443930	-0.527497	0.114807
C93	C	1.777264	-0.194164	0.448140
O94	O	1.150681	-0.889060	-0.190134
O95	O	1.484014	-0.555727	0.143199
O96	O	1.817348	-0.222394	0.476533
N97	N	1.063512	-0.888154	-0.251934
N98	N	1.396845	-0.554820	0.081399
N99	N	1.730178	-0.221487	0.414733
C100	C	1.016400	-0.860870	-0.285340
C101	C	1.349733	-0.527536	0.047993
C102	C	1.683067	-0.194203	0.381327
O103	O	0.976353	-0.889124	-0.313757
O104	O	1.309687	-0.555791	0.019577
O105	O	1.643020	-0.222457	0.352910
C106	C	1.016376	-0.806266	-0.285335
C107	C	1.349709	-0.472933	0.047998
C108	C	1.683043	-0.139600	0.381331
C109	C	1.063459	-0.778946	-0.251922
C110	C	1.396792	-0.445613	0.081411
C111	C	1.730126	-0.112279	0.414745
C112	C	1.157649	-0.778906	-0.185110
C113	C	1.490982	-0.445573	0.148224
C114	C	1.824315	-0.112239	0.481557
C115	C	1.157619	-0.724305	-0.185102
C116	C	1.490952	-0.390972	0.148231
C117	C	1.824285	-0.057639	0.481565
C118	C	1.110509	-0.697025	-0.218505
C119	C	1.443843	-0.363692	0.114829
C120	C	1.777176	-0.030358	0.448162
C121	C	1.063429	-0.724345	-0.251915
C122	C	1.396763	-0.391012	0.081419
C123	C	1.730096	-0.057679	0.414752
C124	C	0.969268	-0.778983	-0.318744
C125	C	1.302602	-0.445650	0.014590
C126	C	1.635935	-0.112317	0.347923
C127	C	0.969249	-0.724376	-0.318736
C128	C	1.302582	-0.391043	0.014597
C129	C	1.635915	-0.057710	0.347930
C130	C	1.016332	-0.697056	-0.285323
C131	C	1.349665	-0.363723	0.048010
C132	C	1.682998	-0.030389	0.381343
C133	C	1.016290	-0.642465	-0.285310
C134	C	1.349623	-0.309131	0.048024
C135	C	1.682957	0.024202	0.381357
N136	N	1.063375	-0.615142	-0.251902
N137	N	1.396709	-0.281808	0.081431
N138	N	1.730042	0.051525	0.414764
C139	C	1.110485	-0.642422	-0.218500
C140	C	1.443818	-0.309088	0.114834
C141	C	1.777152	0.024245	0.448167
C142	C	1.016456	-0.975540	-0.285348
C143	C	1.349789	-0.642207	0.047985
C144	C	1.683122	-0.308874	0.381319
C145	C	1.016476	-1.030142	-0.285351
C146	C	1.349809	-0.696809	0.047983
C147	C	1.683142	-0.363476	0.381316
C148	C	1.110674	-1.030100	-0.218538
C149	C	1.444007	-0.696766	0.114796
C150	C	1.777340	-0.363433	0.448129
C151	C	1.110649	-0.975496	-0.218533
C152	C	1.443983	-0.642163	0.114800
C153	C	1.777316	-0.308830	0.448134
C154	C	1.063541	-0.948217	-0.251941
C155	C	1.396874	-0.614884	0.081392
C156	C	1.730208	-0.281550	0.414726
C157	C	1.110419	-0.527757	-0.218486
C158	C	1.443752	-0.194423	0.114847
C159	C	1.777085	0.138910	0.448181
C160	C	1.110383	-0.473151	-0.218480
C161	C	1.443716	-0.139818	0.114853
C162	C	1.777049	0.193515	0.448187
C163	C	1.016188	-0.473199	-0.285295
C164	C	1.349521	-0.139866	0.048039
C165	C	1.682854	0.193468	0.381372
C166	C	1.016220	-0.527800	-0.285299
C167	C	1.349554	-0.194466	0.048034
C168	C	1.682887	0.138867	0.381368
C169	C	1.063342	-0.555077	-0.251893
C170	C	1.396675	-0.221744	0.081440
C171	C	1.730009	0.111590	0.414774
O172	O	0.976229	-0.614200	-0.313689
O173	O	1.309562	-0.280867	0.019644
O174	O	1.642895	0.052467	0.352978
O175	O	1.150532	-0.614161	-0.190093
O176	O	1.483865	-0.280827	0.143240
O177	O	1.817198	0.052506	0.476574
C178	C	1.255335	-0.251924	-0.251915
C179	C	1.588669	0.081409	0.081419
C180	C	1.922002	0.414743	0.414752
C181	C	1.337134	-0.251928	-0.251921
C182	C	1.670468	0.081405	0.081412
C183	C	2.003801	0.414739	0.414746
C184	C	1.063406	-0.251905	-0.388272
C185	C	1.396740	0.081428	-0.054939
C186	C	1.730073	0.414761	0.278394
C187	C	1.063416	-0.251901	-0.446386
C188	C	1.396750	0.081432	-0.113053
C189	C	1.730083	0.414765	0.220280
C190	C	1.063527	-0.115542	-0.251935
C191	C	1.396860	0.217792	0.081399
C192	C	1.730193	0.551125	0.414732
C193	C	1.063588	-0.057427	-0.251950
C194	C	1.396922	0.275906	0.081384
C195	C	1.730255	0.609239	0.414717
C196	C	1.110581	-0.218364	-0.806768
C197	C	1.443914	0.114969	-0.473434
C198	C	1.777247	0.448303	-0.140101
C199	C	1.110590	-0.218350	-0.861372
C200	C	1.443923	0.114984	-0.528039
C201	C	1.777256	0.448317	-0.194705
O202	O	1.150631	-0.189897	-0.889624
O203	O	1.483964	0.143437	-0.556291
O204	O	1.817298	0.476770	-0.222957
N205	N	1.063497	-0.251779	-0.888669
N206	N	1.396831	0.081554	-0.555336
N207	N	1.730164	0.414888	-0.222002
C208	C	1.016388	-0.285221	-0.861359
C209	C	1.349721	0.048112	-0.528026
C210	C	1.683054	0.381446	-0.194692
O211	O	0.976332	-0.313654	-0.889591
O212	O	1.309666	0.019680	-0.556258
O213	O	1.642999	0.353013	-0.222924
C214	C	1.016375	-0.285232	-0.806756
C215	C	1.349709	0.048101	-0.473422
C216	C	1.683042	0.381434	-0.140089
C217	C	1.063476	-0.251805	-0.779461
C218	C	1.396809	0.081529	-0.446128
C219	C	1.730143	0.414862	-0.112795
C220	C	1.157677	-0.184939	-0.779473
C221	C	1.491010	0.148395	-0.446140
C222	C	1.824343	0.481728	-0.112807
C223	C	1.157668	-0.184954	-0.724873
C224	C	1.491002	0.148379	-0.391540
C225	C	1.824335	0.481713	-0.058206
C226	C	1.110564	-0.218395	-0.697567
C227	C	1.443897	0.114939	-0.364233
C228	C	1.777231	0.448272	-0.030900
C229	C	1.063468	-0.251820	-0.724861
C230	C	1.396801	0.081513	-0.391527
C231	C	1.730134	0.414847	-0.058194
C232	C	0.969263	-0.318672	-0.779446
C233	C	1.302596	0.014662	-0.446113
C234	C	1.635929	0.347995	-0.112780
C235	C	0.969254	-0.318680	-0.724839
C236	C	1.302587	0.014653	-0.391506
C237	C	1.635921	0.347987	-0.058173
C238	C	1.016355	-0.285252	-0.697545
C239	C	1.349688	0.048081	-0.364212
C240	C	1.683021	0.381414	-0.030878
C241	C	1.016355	-0.285276	-0.642954
C242	C	1.349688	0.048057	-0.309621
C243	C	1.683022	0.381391	0.023713
N244	N	1.063447	-0.251847	-0.615657
N245	N	1.396781	0.081487	-0.282324
N246	N	1.730114	0.414820	0.051010
C247	C	1.110552	-0.218406	-0.642963
C248	C	1.443885	0.114927	-0.309630
C249	C	1.777218	0.448261	0.023703
C250	C	1.016416	-0.285194	-0.976030
C251	C	1.349749	0.048139	-0.642696
C252	C	1.683083	0.381473	-0.309363
C253	C	1.016432	-0.285185	-1.030632
C254	C	1.349765	0.048148	-0.697299
C255	C	1.683098	0.381481	-0.363965
C256	C	1.110633	-0.218313	-1.030641
C257	C	1.443966	0.115020	-0.697308
C258	C	1.777299	0.448353	-0.363975
C259	C	1.110620	-0.218325	-0.976038
C260	C	1.443954	0.115009	-0.642705
C261	C	1.777287	0.448342	-0.309371
C262	C	1.063508	-0.251765	-0.948733
C263	C	1.396842	0.081569	-0.615399
C264	C	1.730175	0.414902	-0.282066
C265	C	1.110531	-0.218441	-0.528298
C266	C	1.443865	0.114892	-0.194965
C267	C	1.777198	0.448226	0.138369
C268	C	1.110521	-0.218461	-0.473693
C269	C	1.443854	0.114873	-0.140359
C270	C	1.777187	0.448206	0.192974
C271	C	1.016317	-0.285331	-0.473688
C272	C	1.349651	0.048002	-0.140355
C273	C	1.682984	0.381336	0.192979
C274	C	1.016330	-0.285313	-0.528289
C275	C	1.349663	0.048020	-0.194955
C276	C	1.682997	0.381353	0.138378
C277	C	1.063439	-0.251864	-0.555592
C278	C	1.396773	0.081469	-0.222259
C279	C	1.730106	0.414803	0.111074
O280	O	0.976332	-0.313713	-0.614667
O281	O	1.309665	0.019620	-0.281334
O282	O	1.642999	0.352954	0.052000
O283	O	1.150593	-0.189973	-0.614724
O284	O	1.483927	0.143360	-0.281391
O285	O	1.817260	0.476693	0.051942
C286	C	1.063401	-0.251886	-0.116057
C287	C	1.396734	0.081447	0.217277
C288	C	1.730068	0.414781	0.550610
C289	C	1.063534	-0.251743	-0.057943
C290	C	1.396867	0.081591	0.275390
C291	C	1.730200	0.414924	0.608724
H292	H	1.148791	-0.549960	-0.191285
H293	H	1.482124	-0.216626	0.142048
H294	H	1.815458	0.116707	0.475382
H295	H	1.148878	-0.191239	-0.451472
H296	H	1.482212	0.142094	-0.118139
H297	H	1.815545	0.475427	0.215195
H298	H	0.978088	-0.953332	-0.312551
H299	H	1.311421	-0.619999	0.020782
H300	H	1.644755	-0.286665	0.354115
O301	O	0.970537	-0.446668	-0.317797
O302	O	1.303870	-0.113335	0.015536
O303	O	1.637203	0.219999	0.348869
C304	C	1.012402	-0.415029	-0.351574
C305	C	1.345735	-0.081696	-0.018240
C306	C	1.679069	0.251637	0.315093
H307	H	1.070365	-0.431448	-0.354839
H308	H	1.403698	-0.098114	-0.021506
H309	H	1.737032	0.235219	0.311828
H310	H	0.985754	-0.414403	-0.391796
H311	H	1.319087	-0.081070	-0.058462
H312	H	1.652421	0.252263	0.274871
H313	H	1.014939	-0.373654	-0.335400
H314	H	1.348273	-0.040321	-0.002066
H315	H	1.681606	0.293013	0.331267
H316	H	0.633501	-0.191158	-0.191345
H317	H	0.966834	0.142176	0.141988
H318	H	1.300167	0.475509	0.475322
H319	H	1.195960	-0.702064	-0.157896
H320	H	1.529293	-0.368731	0.175438
H321	H	1.862627	-0.035398	0.508771
H322	H	1.148890	-0.191202	-0.550522
H323	H	1.482223	0.142132	-0.217189
H324	H	1.815556	0.475465	0.116144
H325	H	1.196021	-0.157733	-0.702655
H326	H	1.529355	0.175601	-0.369321
H327	H	1.862688	0.508934	-0.035988
H328	H	1.196035	-0.157704	-0.801700
H329	H	1.529368	0.175629	-0.468367
H330	H	1.862702	0.508962	-0.135034
H331	H	1.148973	-0.191104	-0.953819
H332	H	1.482306	0.142229	-0.620485
H333	H	1.815639	0.475563	-0.287152
O334	O	1.156567	-1.056529	-0.186119
O335	O	1.489900	-0.723196	0.147214
O336	O	1.823234	-0.389862	0.480547
C337	C	1.229883	-1.043114	-0.197624
C338	C	1.563216	-0.709780	0.135709
C339	C	1.896549	-0.376447	0.469042
H340	H	1.231330	-1.003462	-0.217728
H341	H	1.564664	-0.670128	0.115605
H342	H	1.897997	-0.336795	0.448939
H343	H	1.262937	-1.041218	-0.159921
H344	H	1.596270	-0.707885	0.173412
H345	H	1.929603	-0.374552	0.506746
H346	H	1.254666	-1.073812	-0.224525
H347	H	1.587999	-0.740478	0.108808
H348	H	1.921332	-0.407145	0.442141
H349	H	1.196015	-0.801112	-0.157909
H350	H	1.529348	-0.467778	0.175424
H351	H	1.862681	-0.134445	0.508758
O352	O	0.923435	-0.351158	-0.805870
O353	O	1.256768	-0.017824	-0.472537
O354	O	1.590101	0.315509	-0.139204
C355	C	0.881872	-0.380677	-0.770050
C356	C	1.215206	-0.047343	-0.436716
C357	C	1.548539	0.285990	-0.103383
H358	H	0.879355	-0.359266	-0.731130
H359	H	1.212688	-0.025933	-0.397797
H360	H	1.546022	0.307401	-0.064463
H361	H	0.823880	-0.386242	-0.785813
H362	H	1.157214	-0.052909	-0.452480
H363	H	1.490547	0.280424	-0.119146
H364	H	0.908771	-0.420391	-0.764240
H365	H	1.242105	-0.087058	-0.430907
H366	H	1.575438	0.246276	-0.097574
H367	H	0.978129	-1.052382	-0.312554
H368	H	1.311462	-0.719049	0.020779
H369	H	1.644795	-0.385715	0.354113
H370	H	1.148723	-0.450909	-0.191269
H371	H	1.482057	-0.117576	0.142064
H372	H	1.815390	0.215758	0.475397
O373	O	1.156352	-0.949017	-0.186006
O374	O	1.489686	-0.615683	0.147328
O375	O	1.823019	-0.282350	0.480661
C376	C	1.140310	-0.962384	-0.133886
C377	C	1.473643	-0.629051	0.199447
C378	C	1.806977	-0.295718	0.532780
H379	H	1.112033	-1.002048	-0.132790
H380	H	1.445366	-0.668715	0.200544
H381	H	1.778700	-0.335382	0.533877
H382	H	1.193446	-0.964229	-0.110477
H383	H	1.526779	-0.630896	0.222857
H384	H	1.860112	-0.297562	0.556190
H385	H	1.102481	-0.931685	-0.116248
H386	H	1.435814	-0.598352	0.217086
H387	H	1.769148	-0.265018	0.550419
H388	H	0.930888	-0.702168	-0.345943
H389	H	1.264221	-0.368835	-0.012609
H390	H	1.597555	-0.035501	0.320724
O391	O	0.923510	-0.805433	-0.351253
O392	O	1.256844	-0.472099	-0.017920
O393	O	1.590177	-0.138766	0.315414
C394	C	0.881923	-0.769635	-0.380722
C395	C	1.215256	-0.436302	-0.047389
C396	C	1.548589	-0.102968	0.285944
H397	H	0.912052	-0.730691	-0.382538
H398	H	1.245386	-0.397358	-0.049205
H399	H	1.578719	-0.064024	0.284128
H400	H	0.874044	-0.785391	-0.421917
H401	H	1.207378	-0.452058	-0.088583
H402	H	1.540711	-0.118724	0.244750
H403	H	0.826043	-0.763875	-0.361542
H404	H	1.159377	-0.430542	-0.028209
H405	H	1.492710	-0.097209	0.305124
O406	O	0.970459	-0.554261	-0.317803
O407	O	1.303793	-0.220928	0.015530
O408	O	1.637126	0.112406	0.348863
C409	C	0.928858	-0.518471	-0.347272
C410	C	1.262191	-0.185137	-0.013939
C411	C	1.595525	0.148196	0.319395
H412	H	0.958975	-0.479522	-0.349091
H413	H	1.292309	-0.146189	-0.015758
H414	H	1.625642	0.187144	0.317576
H415	H	0.920981	-0.534230	-0.388466
H416	H	1.254315	-0.200896	-0.055132
H417	H	1.587648	0.132437	0.278201
H418	H	0.872978	-0.512719	-0.328090
H419	H	1.206312	-0.179386	0.005243
H420	H	1.539645	0.153947	0.338577
O421	O	1.156314	-0.185838	-1.057253
O422	O	1.489647	0.147495	-0.723920
O423	O	1.822980	0.480828	-0.390586
C424	C	1.146228	-0.193006	-1.111299
C425	C	1.479561	0.140327	-0.777966
C426	C	1.812894	0.473661	-0.444632
H427	H	1.089420	-0.210133	-1.118744
H428	H	1.422753	0.123201	-0.785411
H429	H	1.756086	0.456534	-0.452077
H430	H	1.151250	-0.153838	-1.132057
H431	H	1.484583	0.179495	-0.798723
H432	H	1.817917	0.512829	-0.465390
H433	H	1.189857	-0.220842	-1.126799
H434	H	1.523190	0.112491	-0.793466
H435	H	1.856524	0.445825	-0.460132
H436	H	0.978086	-0.312411	-1.052850
H437	H	1.311419	0.020922	-0.719517
H438	H	1.644752	0.354255	-0.386184
O439	O	0.488142	-0.185859	-0.186092
O440	O	0.821475	0.147474	0.147242
O441	O	1.154809	0.480808	0.480575
C442	C	0.538555	-0.156311	-0.156620
C443	C	0.871888	0.177023	0.176713
C444	C	1.205222	0.510356	0.510046
H445	H	0.593351	-0.154527	-0.178037
H446	H	0.926685	0.178807	0.155296
H447	H	1.260018	0.512140	0.488629
H448	H	0.516380	-0.115110	-0.151115
H449	H	0.849714	0.218223	0.182218
H450	H	1.183047	0.551557	0.515552
H451	H	0.546698	-0.175401	-0.116878
H452	H	0.880031	0.157933	0.216455
H453	H	1.213365	0.491266	0.549789
O454	O	0.639520	-0.317986	-0.317627
O455	O	0.972854	0.015347	0.015706
O456	O	1.306187	0.348681	0.349039
C457	C	0.683950	-0.351704	-0.287802
C458	C	1.017284	-0.018371	0.045531
C459	C	1.350617	0.314963	0.378865
H460	H	0.660770	-0.354878	-0.246618
H461	H	0.994104	-0.021544	0.086715
H462	H	1.327437	0.311789	0.420049
H463	H	0.684794	-0.391967	-0.306643
H464	H	1.018128	-0.058634	0.026690
H465	H	1.351461	0.274700	0.360023
H466	H	0.742213	-0.335533	-0.286027
H467	H	1.075546	-0.002200	0.047306
H468	H	1.408879	0.331133	0.380639
H469	H	0.930881	-0.345906	-0.702610
H470	H	1.264214	-0.012573	-0.369277
H471	H	1.597548	0.320761	-0.035943
O472	O	0.970635	-0.317737	-0.949588
O473	O	1.303969	0.015597	-0.616255
O474	O	1.637302	0.348930	-0.282921
C475	C	0.929067	-0.347228	-0.985395
C476	C	1.262401	-0.013895	-0.652062
C477	C	1.595734	0.319438	-0.318728
H478	H	0.959221	-0.349023	-1.024319
H479	H	1.292554	-0.015689	-0.690986
H480	H	1.625887	0.317644	-0.357652
H481	H	0.921176	-0.388429	-0.969620
H482	H	1.254510	-0.055096	-0.636287
H483	H	1.587843	0.278238	-0.302954
H484	H	0.873193	-0.328082	-0.991200
H485	H	1.206526	0.005251	-0.657867
H486	H	1.539860	0.338584	-0.324534
H487	H	0.977984	-0.312538	-0.550513
H488	H	1.311317	0.020796	-0.217179
H489	H	1.644650	0.354129	0.116154
O490	O	0.970669	-0.317838	-0.447095
O491	O	1.304002	0.015495	-0.113761
O492	O	1.637335	0.348828	0.219572
C493	C	1.012535	-0.351621	-0.415520
C494	C	1.345868	-0.018288	-0.082187
C495	C	1.679202	0.315046	0.251147
H496	H	1.068328	-0.333186	-0.407358
H497	H	1.401661	0.000148	-0.074025
H498	H	1.734995	0.333481	0.259308
H499	H	0.982556	-0.358627	-0.377113
H500	H	1.315889	-0.025293	-0.043780
H501	H	1.649223	0.308040	0.289553
H502	H	1.020574	-0.390367	-0.436554
H503	H	1.353908	-0.057034	-0.103221
H504	H	1.687241	0.276300	0.230112
H505	H	0.494019	-0.312674	-0.312468
H506	H	0.827353	0.020659	0.020865
H507	H	1.160686	0.353993	0.354199
