data_functionalizedCrystal
_audit_creation_method	'MofGen! by Chris Wilmer'
_symmetry_space_group_name_H-M	'P1'
_symmetry_Int_Tables_number	1
_symmetry_cell_setting	triclinic
loop_
_symmetry_equiv_pos_as_xyz
  x,y,z
_cell_length_a	16.625547
_cell_length_b	16.625545
_cell_length_c	11.169409
_cell_angle_alpha	90.036260
_cell_angle_beta	89.972593
_cell_angle_gamma	89.976026
loop_
_atom_site_label
_atom_site_type_symbol
_atom_site_fract_x
_atom_site_fract_y
_atom_site_fract_z
Zn1	Zn	1.232692	0.320938	-0.678753
Zn2	Zn	1.232586	0.455800	-0.478056
Zn3	Zn	1.097848	0.320985	-0.478061
Zn4	Zn	1.097821	0.455732	-0.678674
O5	O	1.165237	0.388363	-0.578386
O6	O	1.345511	0.338836	-0.652161
O7	O	1.214679	0.437964	-0.310107
O8	O	1.115791	0.208146	-0.504718
O9	O	1.345432	0.437919	-0.504710
O10	O	1.214861	0.208111	-0.652165
O11	O	1.115688	0.338916	-0.310110
O12	O	0.985012	0.338850	-0.504642
O13	O	1.115745	0.437803	-0.846635
O14	O	0.984992	0.437849	-0.652032
O15	O	1.214835	0.338770	-0.846692
O16	O	1.214653	0.568623	-0.504634
O17	O	1.115642	0.568573	-0.652027
C18	C	0.955746	0.388348	-0.578329
C19	C	0.866125	0.388360	-0.578333
C20	C	0.793342	0.388362	-0.578348
C21	C	0.702034	0.388366	-0.578378
C22	C	0.629257	0.388374	-0.578409
C23	C	0.537943	0.388379	-0.578438
C24	C	1.165155	0.597854	-0.578347
C25	C	1.165193	0.687475	-0.578371
C26	C	1.165325	1.015651	-0.578515
C27	C	1.165286	0.924342	-0.578478
C28	C	1.165259	0.851566	-0.578442
C29	C	1.165221	0.760252	-0.578407
C30	C	1.375546	0.388380	-0.578444
C31	C	1.465167	0.388387	-0.578468
C32	C	1.165299	0.388274	-0.891429
C33	C	1.165325	0.388236	-1.024829
C34	C	1.165334	1.178054	-0.578465
C35	C	1.165358	1.088433	-0.578535
C36	C	1.165221	0.388394	-0.266561
C37	C	1.165351	0.388205	-0.133162
