data_functionalizedCrystal
_audit_creation_method	'MofGen! by Chris Wilmer'
_symmetry_space_group_name_H-M	'P1'
_symmetry_Int_Tables_number	1
_symmetry_cell_setting	triclinic
loop_
_symmetry_equiv_pos_as_xyz
  x,y,z
_cell_length_a	12.759401
_cell_length_b	12.594516
_cell_length_c	12.759393
_cell_angle_alpha	89.971950
_cell_angle_beta	89.979062
_cell_angle_gamma	90.017577
loop_
_atom_site_label
_atom_site_type_symbol
_atom_site_fract_x
_atom_site_fract_y
_atom_site_fract_z
Zn1	Zn	1.606257	-0.423647	-0.594038
Zn2	Zn	1.606143	-0.601663	-0.418366
Zn3	Zn	1.430555	-0.423704	-0.418373
Zn4	Zn	1.430543	-0.601589	-0.594003
O5	O	1.518375	-0.512651	-0.506195
O6	O	1.753263	-0.447269	-0.570746
O7	O	1.582809	-0.578111	-0.271345
O8	O	1.453915	-0.274751	-0.441693
O9	O	1.753179	-0.578056	-0.441680
O10	O	1.583002	-0.274709	-0.570754
O11	O	1.453805	-0.447365	-0.271351
O12	O	1.283533	-0.447293	-0.441659
O13	O	1.453894	-0.577930	-0.741029
O14	O	1.283524	-0.577985	-0.570694
O15	O	1.582990	-0.447197	-0.741054
O16	O	1.582797	-0.750599	-0.441646
O17	O	1.453784	-0.750545	-0.570686
C18	C	1.245407	-0.512638	-0.506174
C19	C	1.128631	-0.512658	-0.506190
C20	C	1.073791	-0.580812	-0.573272
C21	C	0.964067	-0.580817	-0.573293
C22	C	0.964031	-0.444509	-0.439140
C23	C	1.073753	-0.444500	-0.439125
C24	C	1.518306	-0.789192	-0.506185
C25	C	1.518372	-0.907497	-0.506215
C26	C	1.448195	-0.976759	-0.576351
C27	C	1.422594	-1.047629	-0.480484
C28	C	1.544069	-1.047427	-0.602099
C29	C	1.492721	-0.976808	-0.410297
C30	C	1.614240	-0.976600	-0.531977
C31	C	1.588675	-1.047438	-0.436044
C32	C	1.792408	-0.512665	-0.506216
C33	C	1.909184	-0.512671	-0.506226
C34	C	1.518453	-0.512549	-0.780228
C35	C	1.518487	-0.512505	-0.897005
C36	C	1.518472	-0.235030	-0.506228
C37	C	1.518514	-0.116725	-0.506242
C38	C	1.585712	-0.444422	-0.951882
C39	C	1.585730	-0.444376	-1.061606
C40	C	1.451294	-0.580506	-1.061567
C41	C	1.451272	-0.580546	-0.951844
C42	C	1.518357	-0.512676	-0.233228
C43	C	1.518527	-0.512420	-0.116451
H44	H	1.388743	-0.945724	-0.635576
H45	H	1.640440	-0.389016	-0.907235
O46	O	1.385933	-0.646789	-0.898692
C47	C	1.326601	-0.706823	-0.970620
H48	H	1.369646	-0.710488	-1.048842
H49	H	1.315357	-0.790693	-0.938900
H50	H	1.246825	-0.667836	-0.982281
H51	H	0.919422	-0.636313	-0.627920
H52	H	1.118469	-0.636308	-0.627883
O53	O	1.127078	-0.378179	-0.374106
C54	C	1.190610	-0.309522	-0.434030
H55	H	1.157583	-0.303049	-0.516790
H56	H	1.191860	-0.227563	-0.396168
H57	H	1.273760	-0.342432	-0.437587
H58	H	0.919337	-0.389018	-0.384537
O59	O	1.710809	-0.939170	-0.557930
C60	C	1.709595	-0.827237	-0.556630
H61	H	1.643174	-0.798479	-0.504047
H62	H	1.787533	-0.796557	-0.525166
H63	H	1.697096	-0.796163	-0.639622
H64	H	1.341587	-1.078851	-0.458716
H65	H	1.470950	-0.945916	-0.329198
H66	H	1.648082	-1.078276	-0.376676
H67	H	1.640470	-0.388934	-1.106282
H68	H	1.565747	-1.078448	-0.683176
H69	H	1.396572	-0.635905	-1.106230
