data_functionalizedCrystal
_audit_creation_method	'MofGen! by Chris Wilmer'
_symmetry_space_group_name_H-M	'P1'
_symmetry_Int_Tables_number	1
_symmetry_cell_setting	triclinic
loop_
_symmetry_equiv_pos_as_xyz
  x,y,z
_cell_length_a	8.497374
_cell_length_b	8.497374
_cell_length_c	16.625548
_cell_angle_alpha	89.995408
_cell_angle_beta	90.003948
_cell_angle_gamma	90.000926
loop_
_atom_site_label
_atom_site_type_symbol
_atom_site_fract_x
_atom_site_fract_y
_atom_site_fract_z
Zn1	Zn	0.892124	-0.628271	1.232706
Zn2	Zn	1.225458	-0.294938	1.566039
Zn3	Zn	1.558791	0.038395	1.899372
Zn4	Zn	0.628366	-0.892021	1.232714
Zn5	Zn	0.961699	-0.558688	1.566048
Zn6	Zn	1.295032	-0.225354	1.899381
Zn7	Zn	0.628343	-0.628254	1.097907
Zn8	Zn	0.961677	-0.294920	1.431240
Zn9	Zn	1.295010	0.038413	1.764573
Zn10	Zn	0.892089	-0.892008	1.097904
Zn11	Zn	1.225422	-0.558675	1.431238
Zn12	Zn	1.558755	-0.225341	1.764571
O13	O	0.760231	-0.760138	1.165308
O14	O	1.093564	-0.426805	1.498641
O15	O	1.426897	-0.093472	1.831974
O16	O	0.857160	-0.663271	1.345539
O17	O	1.190494	-0.329938	1.678873
O18	O	1.523827	0.003396	2.012206
O19	O	0.407600	-0.857030	1.214836
O20	O	0.740934	-0.523696	1.548170
O21	O	1.074267	-0.190363	1.881503
O22	O	0.663340	-0.407494	1.115786
O23	O	0.996673	-0.074160	1.449119
O24	O	1.330007	0.259173	1.782452
O25	O	0.663378	-0.857047	1.345546
O26	O	0.996711	-0.523713	1.678879
O27	O	1.330045	-0.190380	2.012212
O28	O	0.857139	-0.407507	1.214822
O29	O	1.190472	-0.074173	1.548155
O30	O	1.523806	0.259160	1.881489
O31	O	0.407584	-0.663241	1.115794
O32	O	0.740917	-0.329907	1.449127
O33	O	1.074251	0.003426	1.782461
O34	O	0.663306	-0.663228	0.985074
O35	O	0.996639	-0.329895	1.318407
O36	O	1.329972	0.003438	1.651741
O37	O	1.112856	-0.857025	1.115781
O38	O	1.446189	-0.523692	1.449115
O39	O	1.779522	-0.190358	1.782448
O40	O	0.857078	-0.857008	0.985072
O41	O	1.190411	-0.523674	1.318406
O42	O	1.523745	-0.190341	1.651739
O43	O	1.112882	-0.663259	1.214819
O44	O	1.446215	-0.329925	1.548153
O45	O	1.779549	0.003408	1.881486
O46	O	0.663343	-1.112782	1.214834
O47	O	0.996677	-0.779448	1.548167
O48	O	1.330010	-0.446115	1.881501
O49	O	0.857100	-1.112772	1.115790
O50	O	1.190433	-0.779439	1.449123
O51	O	1.523766	-0.446105	1.782456
C52	C	0.760186	-0.760116	0.955817
C53	C	1.093520	-0.426783	1.289150
C54	C	1.426853	-0.093449	1.622484
C55	C	0.760205	-0.760144	0.866196
C56	C	1.093538	-0.426811	1.199529
C57	C	1.426872	-0.093478	1.532862
C58	C	1.350351	-0.760164	1.165312
C59	C	1.683684	-0.426831	1.498646
C60	C	2.017017	-0.093497	1.831979
C61	C	1.171707	-0.760156	1.165304
C62	C	1.505040	-0.426823	1.498638
C63	C	1.838373	-0.093490	1.831971
C64	C	0.760225	-0.170018	1.165305
C65	C	1.093558	0.163315	1.498638
C66	C	1.426891	0.496648	1.831972
C67	C	0.760234	-0.348662	1.165309
C68	C	1.093568	-0.015329	1.498642
C69	C	1.426901	0.318004	1.831975
C70	C	0.760272	-0.760155	0.538020
C71	C	1.093606	-0.426821	0.871354
C72	C	1.426939	-0.093488	1.204687
C73	C	0.760249	-0.760147	0.629329
C74	C	1.093582	-0.426814	0.962662
C75	C	1.426915	-0.093481	1.295995
C76	C	0.760237	-0.760150	0.702105
C77	C	1.093571	-0.426817	1.035438
C78	C	1.426904	-0.093484	1.368772
C79	C	0.760216	-0.760141	0.793419
C80	C	1.093549	-0.426808	1.126753
C81	C	1.426883	-0.093475	1.460086
C82	C	0.760276	-0.760162	1.375617
C83	C	1.093609	-0.426829	1.708950
C84	C	1.426942	-0.093496	2.042283
C85	C	0.760295	-0.760172	1.465238
C86	C	1.093628	-0.426839	1.798571
C87	C	1.426962	-0.093506	2.131904
