data_functionalizedCrystal
_audit_creation_method	'MofGen! by Chris Wilmer'
_symmetry_space_group_name_H-M	'P1'
_symmetry_Int_Tables_number	1
_symmetry_cell_setting	triclinic
loop_
_symmetry_equiv_pos_as_xyz
  x,y,z
_cell_length_a	19.902436
_cell_length_b	14.446369
_cell_length_c	14.446369
_cell_angle_alpha	60.000250
_cell_angle_beta	90.002769
_cell_angle_gamma	59.998044
loop_
_atom_site_label
_atom_site_type_symbol
_atom_site_fract_x
_atom_site_fract_y
_atom_site_fract_z
Zr1	Zr	0.647327	1.013130	-0.121447
O2	O	0.540036	1.206258	-0.269270
O3	O	0.680217	0.820008	-0.076126
O4	O	0.680218	1.013117	-0.269245
O5	O	0.540035	1.013158	0.076178
O6	O	0.790797	1.013099	-0.269233
O7	O	0.540035	1.013150	-0.076150
O8	O	0.790794	0.667663	0.076222
O9	O	0.540037	1.358594	-0.269277
O10	O	0.776768	0.899426	-0.056795
O11	O	0.694245	0.899446	0.056877
O12	O	0.694246	1.126806	-0.170496
O13	O	0.611723	1.126826	-0.056824
Zr14	Zr	0.823687	1.013115	0.121519
Zr15	Zr	0.823688	1.013101	-0.121428
Zr16	Zr	0.647327	1.013143	0.121499
Zr17	Zr	0.647329	1.256088	-0.121459
Zr18	Zr	0.823686	0.770157	0.121530
O19	O	0.790798	1.206237	0.076198
O20	O	0.790798	1.206218	-0.269242
O21	O	0.540036	1.206277	0.076169
O22	O	0.930978	0.819986	0.269341
O23	O	0.930979	0.819967	-0.076098
O24	O	0.680216	0.820027	0.269313
O25	O	0.930980	1.013086	-0.076107
O26	O	0.790796	1.013128	0.269317
O27	O	0.680218	1.013146	0.269304
O28	O	0.930980	1.013095	0.076222
O29	O	0.680220	1.358571	-0.269261
O30	O	0.790794	0.667673	0.269333
O31	O	0.930977	0.667650	0.269348
O32	O	0.930977	0.667640	0.076238
O33	O	0.540037	1.358605	-0.076166
O34	O	0.680220	1.358582	-0.076151
O35	O	0.776768	0.899439	0.170568
O36	O	0.859292	0.899419	0.056896
O37	O	0.776770	1.126799	-0.056805
O38	O	0.694246	1.126819	0.056867
C39	C	0.735505	0.709219	0.000050
C40	C	0.735505	0.606077	0.000054
C41	C	0.683706	0.459080	0.072076
C42	C	0.683425	0.566700	0.071785
C43	C	0.697536	0.655072	-0.123485
C44	C	0.697147	0.547840	-0.123111
C45	C	0.825308	0.372607	0.050509
C46	C	0.825176	0.478758	0.053030
C47	C	0.514907	1.013158	0.000011
C48	C	0.440038	1.013170	0.000003
C49	C	0.168036	1.013106	0.000047
C50	C	0.144470	1.156542	-0.071334
C51	C	0.222308	1.156632	-0.071731
C52	C	0.302979	1.013139	0.000025
C53	C	0.300567	0.941901	-0.052267
C54	C	0.222340	0.942818	-0.052795
C55	C	0.223327	0.939881	0.123752
C56	C	0.300248	0.942577	0.123562
C57	C	0.379246	1.013150	0.000013
C58	C	0.091771	1.013091	0.000054
C59	C	0.956107	1.013086	0.000061
C60	C	1.030977	1.013074	0.000069
C61	C	0.735508	1.013106	-0.303854
C62	C	0.735508	1.013100	-0.406991
C63	C	0.735509	1.317026	0.000022
C64	C	0.735510	1.420168	0.000017
C65	C	0.787814	0.869706	-0.481961
C66	C	0.787587	0.869610	-0.374632
C67	C	0.645840	1.084342	-0.481564
C68	C	0.646127	1.083432	-0.588423
C69	C	0.772145	1.086365	-0.589982
C70	C	0.773960	1.083662	-0.481310
C71	C	0.735507	1.013139	0.303925
C72	C	0.735507	1.013145	0.407062
C73	C	0.956105	0.709183	0.000074
C74	C	1.030974	0.606029	0.000088
C75	C	0.735505	0.709236	0.303939
C76	C	0.735504	0.606099	0.407081
C77	C	0.956105	0.709200	0.303964
C78	C	1.030974	0.606051	0.407114
C79	C	0.514910	1.317045	-0.303892
C80	C	0.440041	1.420193	-0.407043
C81	C	0.514909	1.317061	-0.000003
C82	C	0.440040	1.420216	-0.000016
C83	C	0.735510	1.317009	-0.303868
C84	C	0.735510	1.420145	-0.407010
C85	C	1.023057	0.557590	-0.059262
C86	C	1.093398	0.460680	-0.059272
C87	C	1.171655	0.412202	0.000074
C88	C	1.179570	0.460651	0.059425
C89	C	1.109230	0.557566	0.059428
C90	C	1.109217	0.557601	0.396219
C91	C	1.179571	0.460696	0.493131
C92	C	1.171680	0.412236	0.600936
C93	C	1.093429	0.460695	0.611829
C94	C	1.023076	0.557605	0.514919
C95	C	0.361798	1.468655	-0.396148
C96	C	0.291444	1.565591	-0.493059
C97	C	0.299335	1.614056	-0.600864
C98	C	0.377586	1.565590	-0.611757
C99	C	0.447938	1.468663	-0.514847
C100	C	0.447958	1.468664	0.059323
C101	C	0.377617	1.565602	0.059307
C102	C	0.299360	1.614083	-0.000043
C103	C	0.291444	1.565630	-0.059389
C104	C	0.361784	1.468701	-0.059379
C105	C	0.683204	0.459793	0.482065
C106	C	0.683426	0.566714	0.374731
C107	C	0.825174	0.479232	0.481651
C108	C	0.824892	0.371857	0.588514
C109	C	0.698875	0.546850	0.590078
C110	C	0.697055	0.655320	0.481402
H111	H	0.853541	0.439157	0.144042
H112	H	1.115688	0.596992	0.107764
C113	C	0.221991	1.720697	-0.000044
H114	H	0.174246	1.742644	-0.043893
H115	H	0.221996	1.688930	0.075565
H116	H	0.221996	1.796307	-0.031824
H117	H	1.228972	0.333325	0.679838
C118	C	0.727856	1.225074	-0.515786
H119	H	0.752400	1.265285	-0.560566
H120	H	0.671850	1.273081	-0.558404
H121	H	0.730890	1.224094	-0.449642
C122	C	0.221945	1.720668	-0.707459
H123	H	0.237845	1.742603	-0.773230
H124	H	0.190122	1.688903	-0.707455
H125	H	0.190128	1.796283	-0.707458
H126	H	0.355357	1.429200	-0.308376
C127	C	1.249024	0.305588	0.000075
H128	H	1.296769	0.283651	0.043914
H129	H	1.249016	0.229987	0.031843
H130	H	1.249021	0.337364	-0.075539
H131	H	0.617859	0.494851	0.037363
H132	H	0.384001	1.605064	-0.699544
H133	H	0.854223	0.281099	0.588247
H134	H	0.511645	1.429207	-0.523731
C135	C	0.172971	1.011185	-0.175762
H136	H	0.124825	1.012338	-0.177167
H137	H	0.157783	1.098439	-0.220773
H138	H	0.205850	0.964933	-0.205202
C139	C	0.880406	0.331373	0.694678
H140	H	0.903036	0.380554	0.672365
H141	H	0.848775	0.347862	0.740649
H142	H	0.923670	0.240721	0.736504
C143	C	1.265653	0.407300	0.124723
H144	H	1.260303	0.450023	0.160074
H145	H	1.294870	0.315803	0.180870
H146	H	1.294891	0.423175	0.073505
C147	C	1.084759	0.407368	0.730418
H148	H	1.137869	0.342702	0.786565
H149	H	1.055532	0.476925	0.738937
H150	H	1.055540	0.369544	0.738921
C151	C	0.937013	0.610875	0.526917
H152	H	0.942397	0.568118	0.605004
H153	H	0.907765	0.702374	0.491579
H154	H	0.907787	0.594969	0.491591
H155	H	1.115658	0.597044	0.308447
H156	H	0.630995	0.745823	0.429970
C157	C	0.534031	1.415352	0.124614
H158	H	0.528660	1.458109	0.159939
H159	H	0.563263	1.323857	0.180781
H160	H	0.563265	1.431231	0.073391
C161	C	0.386334	1.618887	0.124588
H162	H	0.333239	1.683573	0.116075
H163	H	0.415561	1.549312	0.202664
H164	H	0.415573	1.656675	0.095278
C165	C	0.880114	0.509271	0.518437
H166	H	0.848780	0.599669	0.488568
H167	H	0.900489	0.458571	0.598845
H168	H	0.924964	0.488125	0.490567
C169	C	0.205378	1.618874	-0.481057
H170	H	0.210761	1.576105	-0.402970
H171	H	0.176140	1.710368	-0.516381
H172	H	0.176143	1.602991	-0.516399
H173	H	0.867025	0.500251	0.006006
C174	C	0.720920	1.229113	-0.695644
H175	H	0.677423	1.244070	-0.741366
H176	H	0.698623	1.286676	-0.672817
H177	H	0.755111	1.244650	-0.737948
H178	H	1.243280	0.421250	0.484241
H179	H	0.104559	1.212559	-0.162038
H180	H	0.762177	0.813365	-0.320846
H181	H	0.837177	1.040455	-0.594089
H182	H	0.227718	1.605118	-0.107710
H183	H	0.355326	1.429256	-0.107697
H184	H	0.617396	0.656073	0.320452
H185	H	0.959343	0.597060	-0.107602
C186	C	0.593781	0.510077	0.478908
H187	H	0.587543	0.507368	0.545240
H188	H	0.557521	0.597621	0.413825
H189	H	0.581114	0.456229	0.475740
H190	H	0.708382	0.370123	0.481036
H191	H	0.708841	0.529241	0.320950
C192	C	0.377313	0.799373	0.014577
H193	H	0.374594	0.758127	-0.018468
H194	H	0.425314	0.798512	0.012371
H195	H	0.379367	0.753542	0.091073
C196	C	0.605929	1.017524	-0.411869
H197	H	0.551675	1.061347	-0.457735
H198	H	0.637610	0.928653	-0.386784
H199	H	0.603867	1.021369	-0.348093
H200	H	0.854710	0.440667	0.430049
H201	H	0.633842	0.586433	0.594186
H202	H	0.605175	1.189846	-0.508804
C203	C	0.743178	0.698700	0.515899
H204	H	0.786686	0.687300	0.485298
H205	H	0.706152	0.788333	0.487475
H206	H	0.765173	0.647195	0.596219
C207	C	0.299740	1.012734	0.176347
H208	H	0.298080	0.969597	0.251068
H209	H	0.348121	1.010872	0.178901
H210	H	0.252691	1.101022	0.131637
H211	H	0.241686	0.837581	-0.004165
C212	C	0.750092	0.513362	0.695746
H213	H	0.793587	0.422668	0.741472
H214	H	0.772391	0.563027	0.672932
H215	H	0.715894	0.533703	0.738042
H216	H	0.709040	0.370213	0.163272
C217	C	0.717817	0.517124	0.194674
H218	H	0.732083	0.430880	0.245226
H219	H	0.765327	0.516575	0.203632
H220	H	0.677243	0.573325	0.210988
H221	H	0.617187	0.655509	0.036780
C222	C	0.606509	1.015053	-0.588068
H223	H	0.606331	1.013900	-0.653245
H224	H	0.637181	0.927799	-0.521732
H225	H	0.551563	1.061294	-0.589027
H226	H	0.302118	0.991369	-0.142431
C227	C	0.609134	0.779805	-0.178481
H228	H	0.595229	0.802197	-0.126347
H229	H	0.605619	0.849634	-0.244724
H230	H	0.572013	0.764530	-0.198284
C231	C	0.607882	0.602817	-0.177701
H232	H	0.572198	0.690345	-0.199892
H233	H	0.603818	0.601356	-0.242413
H234	H	0.592554	0.550676	-0.124459
H235	H	0.732442	0.525862	-0.179717
H236	H	0.857030	0.278861	0.140079
C237	C	0.746051	0.693960	-0.199159
H238	H	0.789995	0.680634	-0.155981
H239	H	0.767608	0.641626	-0.227231
H240	H	0.710478	0.783628	-0.260944
H241	H	0.840023	1.031706	-0.429883
H242	H	0.221030	1.212808	-0.036928
C243	C	0.877699	0.337490	-0.020043
H244	H	0.845051	0.351709	-0.079971
H245	H	0.897200	0.391011	-0.050753
H246	H	0.923160	0.248068	0.027072
C247	C	0.174283	1.001894	0.182766
H248	H	0.208774	0.956263	0.257292
H249	H	0.155247	1.091102	0.140857
H250	H	0.128572	0.996561	0.186566
C251	C	0.091547	1.232616	-0.024212
H252	H	0.083343	1.177591	0.039413
H253	H	0.118843	1.260091	-0.001749
H254	H	0.039790	1.307096	-0.081229
H255	H	0.220533	1.212854	-0.162982
H256	H	1.086937	0.421245	-0.107603
H257	H	0.243243	0.834219	0.177189
C258	C	0.377862	0.801149	0.201458
H259	H	0.413102	0.783200	0.159468
H260	H	0.405894	0.790946	0.262671
H261	H	0.362469	0.742038	0.230272
H262	H	0.853616	0.813715	-0.320349
H263	H	0.762634	0.813697	-0.480927
C264	C	0.590605	1.225592	-0.694591
H265	H	0.567969	1.283643	-0.672283
H266	H	0.622229	1.244481	-0.740570
H267	H	0.547344	1.236356	-0.736406
H268	H	0.854013	0.813403	-0.479612
