data_functionalizedCrystal
_audit_creation_method	'MofGen! by Chris Wilmer'
_symmetry_space_group_name_H-M	'P1'
_symmetry_Int_Tables_number	1
_symmetry_cell_setting	triclinic
loop_
_symmetry_equiv_pos_as_xyz
  x,y,z
_cell_length_a	29.839131
_cell_length_b	21.295418
_cell_length_c	21.295411
_cell_angle_alpha	89.956262
_cell_angle_beta	90.020364
_cell_angle_gamma	89.942767
loop_
_atom_site_label
_atom_site_type_symbol
_atom_site_fract_x
_atom_site_fract_y
_atom_site_fract_z
Zn1	Zn	-0.178715	-0.962308	0.356239
Zn2	Zn	-0.253830	-0.962190	0.250967
Zn3	Zn	-0.178736	-0.857031	0.250949
Zn4	Zn	-0.253839	-0.856981	0.356163
O5	O	-0.216280	-0.909628	0.303580
O6	O	-0.188667	-1.050382	0.342314
O7	O	-0.243874	-0.948213	0.162875
O8	O	-0.115866	-0.871067	0.264940
O9	O	-0.243854	-1.050295	0.264971
O10	O	-0.115851	-0.948413	0.342296
O11	O	-0.188703	-0.870953	0.162862
O12	O	-0.188711	-0.768935	0.264867
O13	O	-0.243869	-0.870981	0.444263
O14	O	-0.243889	-0.768898	0.342167
O15	O	-0.188675	-0.948364	0.444319
O16	O	-0.316699	-0.948164	0.264897
O17	O	-0.316705	-0.870866	0.342185
C18	C	-0.216304	-0.746076	0.303507
C19	C	-0.216325	-0.676108	0.303491
C20	C	-0.333003	-0.909514	0.303548
C21	C	-0.382937	-0.909523	0.303556
C22	C	-0.216271	-0.909680	0.467770
C23	C	-0.216267	-0.909702	0.537738
C24	C	-0.692564	-0.949949	0.263395
C25	C	-0.880238	-0.950027	0.263419
O26	O	-0.904489	-0.984309	0.229249
N27	N	-0.903722	-0.909758	0.303627
C28	C	-0.880286	-0.869470	0.343835
O29	O	-0.904567	-0.835225	0.378039
C30	C	-0.692614	-0.869396	0.343813
C31	C	-0.669131	-0.909663	0.303598
C32	C	-0.669082	-0.990214	0.223184
C33	C	-0.622167	-0.990192	0.223176
C34	C	-0.598734	-0.949905	0.263379
C35	C	-0.622216	-0.909641	0.303590
C36	C	-0.669178	-0.829111	0.384023
C37	C	-0.622257	-0.829097	0.384015
C38	C	-0.598775	-0.869364	0.343800
C39	C	-0.551867	-0.869332	0.343785
N40	N	-0.528383	-0.909601	0.303577
C41	C	-0.551816	-0.949887	0.263374
C42	C	-0.978816	-0.869511	0.343842
C43	C	-1.025734	-0.869528	0.343847
C44	C	-1.025683	-0.950087	0.263432
C45	C	-0.978764	-0.950065	0.263425
C46	C	-0.955332	-0.909780	0.303634
C47	C	-0.453290	-0.949837	0.263359
C48	C	-0.406370	-0.949810	0.263353
C49	C	-0.406426	-0.869254	0.343770
C50	C	-0.453341	-0.869279	0.343774
C51	C	-0.476772	-0.909576	0.303567
O52	O	-0.527587	-0.835073	0.377942
O53	O	-0.527526	-0.984137	0.229185
C54	C	-0.739480	-0.949972	0.263403
C55	C	-0.762962	-0.909707	0.303614
C56	C	-0.739529	-0.869421	0.343817
C57	C	-0.809880	-0.909725	0.303619
C58	C	-0.833313	-0.950012	0.263416
C59	C	-0.809829	-0.990281	0.223208
C60	C	-0.762913	-0.990258	0.223200
C61	C	-0.763014	-0.829152	0.384025
C62	C	-0.809929	-0.829177	0.384029
C63	C	-0.833362	-0.869463	0.343826
C64	C	-0.099102	-0.909759	0.303625
C65	C	-0.049167	-0.909815	0.303644
C66	C	-0.216257	-1.073818	0.303653
C67	C	-0.216247	-1.143786	0.303684
C68	C	-0.245094	-0.643238	0.343681
C69	C	-0.245083	-0.577496	0.343710
C70	C	-0.216307	-0.544625	0.303536
C71	C	-0.187532	-0.577503	0.263343
C72	C	-0.187541	-0.643244	0.263321
N73	N	-0.212791	-0.441350	0.248479
N74	N	-0.212785	-0.378899	0.248502
C75	C	-0.216279	-0.346551	0.303603
N76	N	-0.219787	-0.379013	0.358681
N77	N	-0.219795	-0.441470	0.358657
C78	C	-0.216294	-0.473340	0.303557
C79	C	-0.245037	-0.242396	0.343827
C80	C	-0.245023	-0.176652	0.343857
C81	C	-0.187475	-0.176660	0.263485
C82	C	-0.187487	-0.242403	0.263461
C83	C	-0.216271	-0.275266	0.303632
C84	C	-0.216257	-0.909612	0.140028
C85	C	-0.216135	-0.909712	0.070060
C86	C	-0.187526	-0.949994	0.570635
C87	C	-0.187507	-0.949993	0.636377
C88	C	-0.216236	-0.909707	0.669221
C89	C	-0.244978	-0.869407	0.636316
C90	C	-0.244994	-0.869405	0.570575
N91	N	-0.255537	-0.904840	0.772436
N92	N	-0.255521	-0.904846	0.834887
C93	C	-0.216190	-0.909711	0.867295
N94	N	-0.176875	-0.914582	0.834893
N95	N	-0.176891	-0.914580	0.772436
C96	C	-0.216222	-0.909705	0.740506
C97	C	-0.187426	-0.950004	0.971478
C98	C	-0.187406	-0.949999	1.037221
C99	C	-0.244882	-0.869416	1.037159
C100	C	-0.244898	-0.869418	0.971417
C101	C	-0.216171	-0.909716	0.938580
H102	H	-0.387253	-0.982600	0.230603
O103	O	-1.048443	-0.989159	0.224308
C104	C	-1.062839	-1.019839	0.117298
C105	C	-1.037032	-0.975540	0.161515
H106	H	-1.053615	-1.008853	0.066522
H107	H	-1.100407	-1.012913	0.124183
H108	H	-1.053578	-1.070585	0.128462
H109	H	-1.046256	-0.924778	0.150379
H110	H	-0.999470	-0.982521	0.154622
O111	O	-0.159676	-0.989184	0.538702
C112	C	-0.153613	-1.074124	0.464484
C113	C	-0.185209	-1.029803	0.500627
H114	H	-0.174242	-1.106967	0.433681
H115	H	-0.133066	-1.102968	0.499255
H116	H	-0.130131	-1.045213	0.433724
H117	H	-0.208717	-1.058666	0.531388
H118	H	-0.205723	-1.000957	0.465821
H119	H	-0.268531	-0.669992	0.376392
O120	O	-0.159574	-0.989196	0.668245
C121	C	-0.102556	-1.069104	0.661374
C122	C	-0.134173	-1.024750	0.625209
H123	H	-0.082005	-1.097852	0.626595
H124	H	-0.123153	-1.102036	0.692157
H125	H	-0.079081	-1.040224	0.692151
H126	H	-0.157655	-1.053580	0.594397
H127	H	-0.113549	-0.991817	0.594465
O128	O	-0.272935	-0.830365	0.668245
C129	C	-0.333558	-0.821832	0.742485
C130	C	-0.301932	-0.866123	0.706356
H131	H	-0.357003	-0.850724	0.773317
H132	H	-0.354136	-0.793044	0.707705
H133	H	-0.312921	-0.788929	0.773215
H134	H	-0.322534	-0.899063	0.675626
H135	H	-0.281352	-0.894867	0.741170
O136	O	-0.272884	-0.830349	0.939486
C137	C	-0.349310	-0.799676	0.919377
C138	C	-0.317667	-0.843976	0.955565
H139	H	-0.385523	-0.810669	0.932373
H140	H	-0.344426	-0.806594	0.866742
H141	H	-0.341401	-0.748931	0.932261
H142	H	-0.325557	-0.894738	0.942734
H143	H	-0.322557	-0.837003	1.008192
H144	H	-0.268397	-0.836591	0.543791
O145	O	-0.159546	-0.989167	1.069251
C146	C	-0.153471	-1.074180	1.143519
C147	C	-0.185074	-1.029855	1.107294
H148	H	-0.174099	-1.107097	1.174276
H149	H	-0.129984	-1.045337	1.174315
H150	H	-0.132932	-1.102951	1.108746
H151	H	-0.205643	-1.001075	1.142022
H152	H	-0.208532	-1.058735	1.076489
H153	H	-0.959647	-0.982855	0.230679
H154	H	-0.268450	-0.149891	0.376588
H155	H	-0.164112	-0.670006	0.230593
O156	O	-0.475977	-0.988999	0.224241
C157	C	-0.470962	-1.068918	0.144501
C158	C	-0.445213	-1.024594	0.188762
H159	H	-0.446100	-1.097717	0.115814
H160	H	-0.492952	-1.040074	0.111508
H161	H	-0.492899	-1.101807	0.173450
H162	H	-0.423251	-0.991696	0.159864
H163	H	-0.423251	-1.053477	0.221757
H164	H	-0.164032	-0.982813	0.944741
H165	H	-0.268269	-0.836608	1.063899
H166	H	-0.688157	-1.023023	0.190445
O167	O	-0.599429	-1.029373	0.184097
C168	C	-0.604347	-1.109260	0.104321
C169	C	-0.630149	-1.064923	0.148555
H170	H	-0.629173	-1.138004	0.075564
H171	H	-0.582357	-1.142196	0.133233
H172	H	-0.582405	-1.080366	0.071388
H173	H	-0.652116	-1.093766	0.181497
H174	H	-0.652111	-1.031986	0.119604
O175	O	-1.048473	-0.830388	0.382966
C176	C	-1.043559	-0.750460	0.462701
C177	C	-1.017754	-0.794763	0.418437
H178	H	-1.018734	-0.721636	0.491381
H179	H	-1.065475	-0.779321	0.495700
H180	H	-1.065576	-0.717592	0.433755
H181	H	-0.995713	-0.827640	0.447332
H182	H	-0.995866	-0.765862	0.385436
H183	H	-0.959741	-0.836704	0.376586
H184	H	-0.603181	-0.796292	0.416761
O185	O	-0.691960	-0.790064	0.423183
C186	C	-0.706268	-0.759449	0.530231
C187	C	-0.680450	-0.803719	0.485950
H188	H	-0.696965	-0.770464	0.580987
H189	H	-0.743834	-0.766375	0.523396
H190	H	-0.697095	-0.708696	0.519084
H191	H	-0.689585	-0.854489	0.497070
H192	H	-0.642890	-0.796738	0.492793
O193	O	-0.476085	-0.830142	0.382895
C194	C	-0.471179	-0.750217	0.462633
C195	C	-0.445370	-0.794511	0.418364
H196	H	-0.446357	-0.721388	0.491313
H197	H	-0.493090	-0.779086	0.495632
H198	H	-0.493202	-0.717353	0.433690
H199	H	-0.423323	-0.827383	0.447256
H200	H	-0.423488	-0.765603	0.385363
H201	H	-0.164043	-0.149898	0.230778
H202	H	-0.268510	-0.550728	0.376440
O203	O	-0.383589	-0.830181	0.382802
C204	C	-0.311326	-0.794437	0.418401
C205	C	-0.337134	-0.838724	0.374171
H206	H	-0.273763	-0.801320	0.411428
H207	H	-0.320489	-0.805476	0.469188
H208	H	-0.320625	-0.743692	0.407297
H209	H	-0.327849	-0.889484	0.385218
H210	H	-0.327970	-0.827632	0.323396
O211	O	-0.832668	-0.790037	0.423156
C212	C	-0.827754	-0.710116	0.502897
C213	C	-0.801949	-0.754412	0.458626
H214	H	-0.802929	-0.681291	0.531577
H215	H	-0.849666	-0.738982	0.535896
H216	H	-0.849775	-0.677248	0.473956
H217	H	-0.779904	-0.787288	0.487516
H218	H	-0.780065	-0.725506	0.425625
O219	O	-0.740175	-1.029436	0.184118
C220	C	-0.745094	-1.109314	0.104333
C221	C	-0.770896	-1.064984	0.148573
H222	H	-0.769920	-1.138056	0.075574
H223	H	-0.723101	-1.142251	0.133239
H224	H	-0.723153	-1.080415	0.071401
H225	H	-0.792861	-1.093832	0.181514
H226	H	-0.792860	-1.032045	0.119628
H227	H	-0.164062	-0.269165	0.230731
H228	H	-0.828916	-1.023082	0.190472
H229	H	-0.743938	-0.796346	0.416764
O230	O	-0.159646	-0.545549	0.224248
C231	C	-0.153506	-0.471219	0.139319
C232	C	-0.185141	-0.507377	0.183546
H233	H	-0.174106	-0.440338	0.106409
H234	H	-0.132954	-0.505982	0.110542
H235	H	-0.130032	-0.440537	0.168300
H236	H	-0.208642	-0.538060	0.154613
H237	H	-0.205662	-0.472581	0.212324
H238	H	-0.268472	-0.269155	0.376540
