data_functionalizedCrystal
_audit_creation_method	'MofGen! by Chris Wilmer'
_symmetry_space_group_name_H-M	'P1'
_symmetry_Int_Tables_number	1
_symmetry_cell_setting	triclinic
loop_
_symmetry_equiv_pos_as_xyz
  x,y,z
_cell_length_a	15.995350
_cell_length_b	15.995350
_cell_length_c	15.072220
_cell_angle_alpha	89.998899
_cell_angle_beta	89.991149
_cell_angle_gamma	96.507625
loop_
_atom_site_label
_atom_site_type_symbol
_atom_site_fract_x
_atom_site_fract_y
_atom_site_fract_z
O1	O	1.110996	-0.107921	-0.073703
O2	O	0.867221	-0.121249	-0.073721
O3	O	0.995772	0.007303	-0.073710
O4	O	0.982444	-0.236472	-0.073713
O5	O	0.995740	0.007296	0.073855
O6	O	0.867189	-0.121256	0.073844
O7	O	1.110964	-0.107928	0.073862
Zn8	Zn	0.989071	-0.114593	0.097283
Zn9	Zn	0.989113	-0.114584	-0.097141
O10	O	0.982413	-0.236480	0.073852
C11	C	0.836010	-0.120701	0.000060
C12	C	0.743060	-0.119049	0.000053
C13	C	0.405312	-0.113117	0.000071
C14	C	0.452746	-0.021565	0.000401
C15	C	0.549436	-0.023217	0.000063
C16	C	0.572873	-0.116060	0.000063
C17	C	0.531804	-0.161212	-0.084201
C18	C	0.435168	-0.158912	-0.084266
C19	C	0.434793	-0.160812	0.083543
C20	C	0.531738	-0.160790	0.084651
C21	C	0.667570	-0.117727	0.000055
C22	C	0.310614	-0.111452	0.000073
C23	C	0.995205	0.038494	0.000070
C24	C	0.993553	0.131444	0.000065
C25	C	1.142175	-0.108476	0.000080
C26	C	1.235125	-0.110127	0.000081
C27	C	0.982980	-0.267671	0.000069
C28	C	0.984631	-0.360621	0.000069
N29	N	0.989049	-0.114599	0.229971
C30	C	0.987621	0.469192	0.000068
C31	C	0.896069	0.421758	-0.000270
C32	C	0.897721	0.325068	0.000063
C33	C	0.990564	0.301631	0.000066
C34	C	1.035702	0.342705	0.084335
C35	C	1.033402	0.439341	0.084405
C36	C	1.035330	0.439707	-0.083404
C37	C	1.035308	0.342761	-0.084518
C38	C	0.992231	0.206934	0.000068
C39	C	0.985956	0.563890	0.000072
N40	N	0.989142	-0.114571	-0.229830
C41	C	0.989112	-0.114580	0.589173
C42	C	0.920095	-0.183135	0.551560
C43	C	0.920254	-0.183385	0.448735
C44	C	0.989080	-0.114590	0.410969
C45	C	1.076445	-0.133671	0.448266
C46	C	1.076058	-0.134159	0.551124
C47	C	0.971542	-0.026741	0.551272
C48	C	0.969537	-0.027327	0.448409
C49	C	0.989067	-0.114593	0.310255
C50	C	0.989130	-0.114579	0.689886
H51	H	0.559041	-0.127829	0.146989
H52	H	0.909219	-0.008392	0.577258
H53	H	1.103910	0.328579	0.087471
N54	N	1.117714	0.479813	0.089211
N55	N	1.145958	0.528389	0.028607
H56	H	1.205503	0.556969	0.032005
N57	N	0.853190	0.289404	-0.075701
N58	N	0.790260	0.236368	-0.065604
H59	H	0.758803	0.211181	-0.119112
H60	H	0.433165	0.014865	-0.059694
H61	H	1.000460	0.457639	0.147395
H62	H	1.129029	-0.085068	0.423801
N63	N	1.095453	-0.214530	0.581214
N64	N	1.043876	-0.259470	0.628116
H65	H	1.057569	-0.316236	0.649362
N66	N	1.034661	0.037275	0.581787
N67	N	1.032111	0.112086	0.559014
H68	H	1.076690	0.157293	0.580569
N69	N	0.838373	-0.169107	0.582643
N70	N	0.823198	-0.169803	0.664012
H71	H	0.765482	-0.159893	0.685974
N72	N	0.412227	-0.117583	-0.163280
N73	N	0.441953	-0.043248	-0.178235
H74	H	0.425757	-0.014056	-0.234039
H75	H	0.547102	-0.228494	0.089741
N76	N	0.852878	0.290088	0.075959
N77	N	0.789906	0.237064	0.066086
H78	H	0.758233	0.212359	0.119691
H79	H	1.129019	-0.086195	0.576003
N80	N	0.394947	-0.245489	0.084249
N81	N	0.345043	-0.270699	0.023609
H82	H	0.316897	-0.330500	0.024100
N83	N	0.850373	0.446330	0.075128
N84	N	0.876430	0.433971	0.151668
H85	H	0.844164	0.451327	0.204923
H86	H	0.931160	-0.247952	0.577399
H87	H	0.859490	0.440293	-0.060701
N88	N	0.934282	-0.265174	0.417863
N89	N	0.943994	-0.322246	0.472284
H90	H	0.953888	-0.380017	0.450483
N91	N	0.838809	-0.169266	0.416919
N92	N	0.797826	-0.223289	0.369341
H93	H	0.740312	-0.213365	0.346808
N94	N	1.120016	0.479529	-0.084111
N95	N	1.168268	0.468392	-0.021042
H96	H	1.228077	0.496515	-0.021535
N97	N	0.585106	0.021318	0.075823
N98	N	0.662791	0.027720	0.088529
H99	H	0.687982	0.059178	0.142035
N100	N	0.584394	0.021616	-0.075848
N101	N	0.537371	0.054220	-0.128745
H102	H	0.562059	0.085885	-0.182362
H103	H	0.905271	-0.012846	0.424032
H104	H	1.092297	-0.197002	0.422498
N105	N	0.429542	0.024307	0.076254
N106	N	0.377768	-0.009934	0.130953
H107	H	0.361395	0.022454	0.184542
H108	H	0.402920	-0.226128	-0.088090
H109	H	1.004325	0.314320	0.147042
N110	N	1.028500	0.039666	0.416152
N111	N	1.086146	0.024117	0.364819
H112	H	1.127795	0.071429	0.342036
H113	H	0.545929	-0.229421	-0.087335
H114	H	0.560191	-0.129845	-0.146912
H115	H	1.005411	0.460250	-0.147274
N116	N	0.993999	0.308525	-0.162747
N117	N	0.962163	0.355788	-0.216000
H118	H	0.932996	0.331602	-0.271253
N119	N	1.120238	0.323471	-0.090901
N120	N	1.149303	0.278902	-0.032953
H121	H	1.209286	0.265274	-0.037457
H122	H	0.414244	-0.130885	0.147414
