data_functionalizedCrystal
_audit_creation_method	'MofGen! by Chris Wilmer'
_symmetry_space_group_name_H-M	'P1'
_symmetry_Int_Tables_number	1
_symmetry_cell_setting	triclinic
loop_
_symmetry_equiv_pos_as_xyz
  x,y,z
_cell_length_a	19.188925
_cell_length_b	19.188925
_cell_length_c	14.586319
_cell_angle_alpha	89.996566
_cell_angle_beta	89.995548
_cell_angle_gamma	83.142549
loop_
_atom_site_label
_atom_site_type_symbol
_atom_site_fract_x
_atom_site_fract_y
_atom_site_fract_z
O1	O	0.926145	0.087149	-0.076259
O2	O	1.426145	0.587149	0.423741
O3	O	0.722833	0.098887	-0.076257
O4	O	1.222833	0.598887	0.423743
O5	O	0.830358	-0.008638	-0.076253
O6	O	1.330358	0.491362	0.423747
O7	O	0.818619	0.194674	-0.076263
O8	O	1.318619	0.694674	0.423737
O9	O	0.830350	-0.008640	0.076228
O10	O	1.330350	0.491360	0.576228
O11	O	0.722825	0.098886	0.076224
O12	O	1.222825	0.598886	0.576224
O13	O	0.926137	0.087147	0.076221
O14	O	1.426137	0.587147	0.576221
Cu15	Cu	0.824480	0.093016	0.090145
Cu16	Cu	1.324480	0.593016	0.590145
Cu17	Cu	0.824489	0.093018	-0.090181
Cu18	Cu	1.324489	0.593018	0.409819
O19	O	0.818612	0.194672	0.076218
O20	O	1.318612	0.694672	0.576218
C21	C	0.696818	0.098507	-0.000016
C22	C	1.196818	0.598507	0.499984
C23	C	0.619313	0.097368	-0.000015
C24	C	1.119313	0.597368	0.499985
C25	C	0.057542	0.152832	-0.000020
C26	C	0.557542	0.652832	0.499980
C27	C	0.130365	0.153908	-0.000025
C28	C	0.630365	0.653908	0.499975
C29	C	0.175301	0.090816	-0.000020
C30	C	0.675301	0.590816	0.499980
C31	C	0.147408	0.026642	-0.000034
C32	C	0.647408	0.526642	0.499966
C33	C	0.074586	0.025568	-0.000038
C34	C	0.574586	0.525568	0.499962
N35	N	0.295976	0.045139	0.051888
N36	N	0.795976	0.545139	0.551888
N37	N	0.365153	0.046164	0.051894
N38	N	0.865153	0.546164	0.551894
C39	C	0.394710	0.094050	-0.000009
C40	C	0.894710	0.594050	0.499991
N41	N	0.352474	0.140882	-0.051907
N42	N	0.852474	0.640882	0.448093
N43	N	0.283290	0.139859	-0.051909
N44	N	0.783290	0.639859	0.448091
C45	C	0.254265	0.091974	-0.000016
C46	C	0.754265	0.591974	0.499984
C47	C	0.501557	0.159387	-0.000008
C48	C	1.001557	0.659387	0.499992
C49	C	0.574382	0.160461	-0.000018
C50	C	1.074382	0.660461	0.499982
C51	C	0.591424	0.033193	-0.000018
C52	C	1.091424	0.533193	0.499982
C53	C	0.518600	0.032121	-0.000016
C54	C	1.018600	0.532121	0.499984
C55	C	0.473671	0.095220	-0.000007
C56	C	0.973671	0.595220	0.499993
C57	C	0.829974	-0.034650	-0.000013
C58	C	1.329974	0.465350	0.499987
C59	C	0.828835	-0.112155	-0.000015
C60	C	1.328835	0.387845	0.499985
C61	C	0.884299	-0.673926	-0.000039
C62	C	1.384299	-0.173926	0.499961
C63	C	0.885376	-0.601103	-0.000031
C64	C	1.385376	-0.101103	0.499969
C65	C	0.822284	-0.556167	-0.000030
C66	C	1.322284	-0.056167	0.499970
C67	C	0.758110	-0.584060	-0.000014
C68	C	1.258110	-0.084060	0.499986
C69	C	0.757035	-0.656882	-0.000013
C70	C	1.257035	-0.156882	0.499987
N71	N	0.776610	-0.435485	-0.051930
N72	N	1.276610	0.064515	0.448070
N73	N	0.777635	-0.366308	-0.051933
N74	N	1.277635	0.133692	0.448067
C75	C	0.825518	-0.336758	-0.000031
C76	C	1.325518	0.163242	0.499969
N77	N	0.872347	-0.379000	0.051863
N78	N	1.372347	0.121000	0.551863
N79	N	0.871324	-0.448184	0.051861
N80	N	1.371324	0.051816	0.551861
C81	C	0.823442	-0.477203	-0.000031
C82	C	1.323442	0.022797	0.499969
C83	C	0.890854	-0.229910	-0.000031
C84	C	1.390854	0.270090	0.499969
C85	C	0.891928	-0.157085	-0.000017
C86	C	1.391928	0.342915	0.499983
C87	C	0.764661	-0.140044	-0.000010
C88	C	1.264661	0.359956	0.499990
C89	C	0.763589	-0.212867	-0.000015
C90	C	1.263589	0.287133	0.499985
C91	C	0.826688	-0.257797	-0.000030
C92	C	1.326688	0.242203	0.499970
C93	C	0.952152	0.087528	-0.000021
C94	C	1.452152	0.587528	0.499979
C95	C	1.029657	0.088667	-0.000028
C96	C	1.529657	0.588667	0.499972
C97	C	0.818995	0.220684	-0.000024
C98	C	1.318995	0.720684	0.499976
C99	C	0.820134	0.298189	-0.000028
C100	C	1.320134	0.798189	0.499972
N101	N	0.824479	0.093014	0.216977
N102	N	1.324479	0.593014	0.716977
N103	N	0.824496	0.093014	-0.217013
N104	N	1.324496	0.593014	0.282987
C105	C	0.872107	0.045418	0.451985
C106	C	1.372107	0.545418	0.951985
C107	C	0.872109	0.045416	0.547967
C108	C	1.372109	0.545416	1.047967
C109	C	0.776863	0.140613	0.547973
C110	C	1.276863	0.640613	1.047973
C111	C	0.776858	0.140611	0.451993
C112	C	1.276858	0.640611	0.951993
C113	C	0.824484	0.093014	0.404002
C114	C	1.324484	0.593014	0.904002
C115	C	0.824491	0.093015	0.595963
C116	C	1.324491	0.593015	1.095963
C117	C	0.824493	0.093013	0.700030
C118	C	1.324493	0.593013	1.200030
C119	C	0.824482	0.093015	0.299928
C120	C	1.324482	0.593015	0.799928
H121	H	0.051883	-0.026685	-0.000045
H122	H	0.551883	0.473315	0.499955
O123	O	0.730692	0.186880	0.405277
O124	O	1.230692	0.686880	0.905277
C125	C	0.767948	0.229869	0.349763
C126	C	1.267948	0.729869	0.849763
H127	H	0.822665	0.201921	0.335379
H128	H	1.322665	0.701921	0.835379
H129	H	0.738771	0.240986	0.282273
H130	H	1.238771	0.740986	0.782273
H131	H	0.772534	0.281461	0.386744
H132	H	1.272534	0.781461	0.886744
O133	O	0.701319	-0.240075	0.000021
O134	O	1.201319	0.259925	0.500021
C135	C	0.713899	-0.313984	-0.000005
C136	C	1.213899	0.186016	0.499995
H137	H	0.768436	-0.331255	0.028864
H138	H	1.268436	0.168745	0.528864
H139	H	0.672849	-0.336222	0.044262
H140	H	1.172849	0.163778	0.544262
H141	H	0.710583	-0.334241	-0.073159
H142	H	1.210583	0.165759	0.426841
H143	H	0.153074	0.206161	-0.000009
H144	H	0.653074	0.706161	0.499991
H145	H	0.937628	-0.578394	-0.000039
H146	H	1.437628	-0.078394	0.499961
H147	H	0.020964	0.204212	-0.000017
H148	H	0.520964	0.704212	0.499983
O149	O	0.952190	-0.273489	-0.000158
O150	O	1.452190	0.226511	0.499842
C151	C	0.991159	-0.260886	-0.079141
C152	C	1.491159	0.239114	0.420859
H153	H	0.973849	-0.205586	-0.105465
H154	H	1.473849	0.294414	0.394535
H155	H	1.049407	-0.266193	-0.061381
H156	H	1.549407	0.233807	0.438619
H157	H	0.981734	-0.300684	-0.134442
H158	H	1.481734	0.199316	0.365558
H159	H	0.183999	-0.024728	-0.000032
H160	H	0.683999	0.475272	0.499968
H161	H	0.944181	-0.134384	-0.000020
H162	H	1.444181	0.365616	0.499980
H163	H	0.704783	-0.679584	-0.000003
H164	H	1.204783	-0.179584	0.499997
H165	H	0.713290	-0.103458	-0.000002
H166	H	1.213290	0.396542	0.499998
O167	O	0.601500	0.222780	-0.000186
O168	O	1.101500	0.722780	0.499814
C169	C	0.643123	0.227205	-0.079153
C170	C	1.143123	0.727205	0.420847
H171	H	0.626017	0.190768	-0.134342
H172	H	1.126017	0.690768	0.365658
H173	H	0.636405	0.283495	-0.105667
H174	H	1.136405	0.783495	0.394333
H175	H	0.700605	0.210932	-0.061306
H176	H	1.200605	0.710932	0.438694
O177	O	0.918391	-0.000887	0.405508
O178	O	1.418391	0.499113	0.905508
C179	C	0.960435	-0.042885	0.468446
C180	C	1.460435	0.457115	0.968446
H181	H	0.931815	-0.043598	0.536869
H182	H	1.431815	0.456402	1.036869
H183	H	0.971256	-0.098673	0.440721
H184	H	1.471256	0.401327	0.940721
H185	H	1.012231	-0.020346	0.478642
H186	H	1.512231	0.479654	0.978642
O187	O	0.458008	0.220742	-0.000052
O188	O	0.958008	0.720742	0.499948
C189	C	0.498240	0.277609	-0.000034
C190	C	0.998240	0.777609	0.499966
H191	H	0.552650	0.259720	-0.028900
H192	H	1.052650	0.759720	0.471100
H193	H	0.471242	0.321801	-0.044308
H194	H	0.971242	0.821801	0.455692
H195	H	0.503359	0.297290	0.073117
H196	H	1.003359	0.797290	0.573117
H197	H	0.628010	-0.018178	-0.000021
H198	H	1.128010	0.481822	0.499979
H199	H	0.495897	-0.020129	-0.000018
H200	H	0.995897	0.479871	0.499982
O201	O	0.918276	-0.000886	0.594618
O202	O	1.418276	0.499114	1.094618
C203	C	0.881024	-0.043857	0.650163
C204	C	1.381024	0.456143	1.150163
H205	H	0.825966	-0.044899	0.621248
H206	H	1.325966	0.455101	1.121248
H207	H	0.909683	-0.099425	0.651250
H208	H	1.409683	0.400575	1.151250
H209	H	0.877299	-0.021998	0.722903
H210	H	1.377299	0.478002	1.222903
O211	O	0.730578	0.186753	0.594697
O212	O	1.230578	0.686753	1.094697
C213	C	0.687614	0.149471	0.650213
C214	C	1.187614	0.649471	1.150213
H215	H	0.715590	0.094765	0.664591
H216	H	1.215590	0.594765	1.164591
H217	H	0.676485	0.178643	0.717705
H218	H	1.176485	0.678643	1.217705
H219	H	0.636026	0.144857	0.613237
H220	H	1.136026	0.644857	1.113237
O221	O	0.945639	-0.717496	-0.000166
O222	O	1.445639	-0.217496	0.499834
C223	C	0.984604	-0.704893	-0.079152
C224	C	1.484604	-0.204893	0.420848
H225	H	0.967287	-0.649597	-0.105483
H226	H	1.467287	-0.149597	0.394517
H227	H	1.042852	-0.710192	-0.061394
H228	H	1.542852	-0.210192	0.438606
H229	H	0.975183	-0.744698	-0.134447
H230	H	1.475183	-0.244698	0.365553
O231	O	0.696841	-0.540384	-0.000179
O232	O	1.196841	-0.040384	0.499821
C233	C	0.693664	-0.497738	-0.079141
C234	C	1.193664	0.002262	0.420859
H235	H	0.729449	-0.524519	-0.134339
H236	H	1.229449	-0.024519	0.365661
H237	H	0.637397	-0.489374	-0.105645
H238	H	1.137397	0.010626	0.394355
H239	H	0.711574	-0.444837	-0.061292
H240	H	1.211574	0.055163	0.438708
