data_functionalizedCrystal
_audit_creation_method	'MofGen! by Chris Wilmer'
_symmetry_space_group_name_H-M	'P1'
_symmetry_Int_Tables_number	1
_symmetry_cell_setting	triclinic
loop_
_symmetry_equiv_pos_as_xyz
  x,y,z
_cell_length_a	29.839134
_cell_length_b	16.120297
_cell_length_c	16.120484
_cell_angle_alpha	95.614431
_cell_angle_beta	92.921492
_cell_angle_gamma	92.867078
loop_
_atom_site_label
_atom_site_type_symbol
_atom_site_fract_x
_atom_site_fract_y
_atom_site_fract_z
Zn1	Zn	-0.663670	0.489707	0.356861
Zn2	Zn	-0.663614	0.357018	0.489550
Zn3	Zn	-0.592556	0.349926	0.349785
Zn4	Zn	-0.584513	0.496710	0.496578
O5	O	-0.626088	0.423340	0.423194
O6	O	-0.726528	0.472143	0.374483
O7	O	-0.657530	0.239116	0.465108
O8	O	-0.605379	0.362570	0.233759
O9	O	-0.726487	0.374656	0.471969
O10	O	-0.657627	0.465266	0.238957
O11	O	-0.605325	0.233906	0.362422
O12	O	-0.528624	0.369360	0.369237
O13	O	-0.591670	0.612742	0.483947
O14	O	-0.522714	0.477202	0.477085
O15	O	-0.649827	0.607597	0.381297
O16	O	-0.649731	0.381447	0.607447
O17	O	-0.591616	0.484078	0.612611
C18	C	-0.509368	0.423272	0.423157
C19	C	-0.459434	0.423263	0.423162
C20	C	-0.146720	0.479406	0.479432
C21	C	0.040954	0.479434	0.479460
O22	O	0.067828	0.527144	0.527259
N23	N	0.061356	0.423367	0.423236
C24	C	0.034836	0.367293	0.366998
O25	O	0.056495	0.319611	0.319171
C26	C	-0.152838	0.367270	0.366967
C27	C	-0.173237	0.423334	0.423200
C28	C	-0.167119	0.535467	0.535660
C29	C	-0.214035	0.535456	0.535656
C30	C	-0.240552	0.479384	0.479423
C31	C	-0.220153	0.423324	0.423195
C32	C	-0.179357	0.311200	0.310725
C33	C	-0.226278	0.311201	0.310721
C34	C	-0.246677	0.367266	0.366954
C35	C	-0.293585	0.367242	0.366958
N36	N	-0.313987	0.423308	0.423182
C37	C	-0.287470	0.479380	0.479415
C38	C	0.133367	0.367308	0.367019
C39	C	0.180286	0.367313	0.367028
C40	C	0.186401	0.479455	0.479489
C41	C	0.139482	0.479446	0.479484
C42	C	0.112966	0.423375	0.423243
C43	C	-0.385997	0.479353	0.479401
C44	C	-0.432917	0.479335	0.479394
C45	C	-0.439029	0.367196	0.366930
C46	C	-0.392113	0.367211	0.366940
C47	C	-0.365598	0.423296	0.423179
O48	O	-0.320486	0.319563	0.319178
O49	O	-0.309138	0.527067	0.527222
C50	C	-0.099804	0.479416	0.479437
C51	C	-0.079405	0.423356	0.423209
C52	C	-0.105922	0.367284	0.366976
C53	C	-0.032487	0.423360	0.423217
C54	C	-0.005970	0.479432	0.479450
C55	C	-0.026372	0.535498	0.535674
C56	C	-0.073288	0.535488	0.535669
C57	C	-0.085520	0.311218	0.310753
C58	C	-0.038604	0.311232	0.310762
C59	C	-0.012087	0.367304	0.366995
C60	C	-0.619806	0.434310	0.640358
C61	C	-0.617159	0.439031	0.733263
C62	C	-0.619858	0.641344	0.434195
C63	C	-0.617203	0.734244	0.438883
C64	C	0.256736	0.423396	0.423235
C65	C	0.206802	0.423384	0.423260
C66	C	-0.632322	0.206182	0.412174
C67	C	-0.635070	0.113270	0.407251
C68	C	-0.612340	0.904332	0.447424
C69	C	-0.639932	0.943188	0.398712
C70	C	-0.637226	1.037830	0.403464
C71	C	-0.615045	0.809681	0.442673
C72	C	-0.632407	0.412346	0.205182
C73	C	-0.635099	0.407661	0.112279
C74	C	-0.612327	0.447667	0.903362
C75	C	-0.639929	0.399027	0.942185
C76	C	-0.637241	0.403832	1.036834
C77	C	-0.615015	0.442863	0.808704
H78	H	-0.089892	0.581142	0.581460
C79	C	-0.577677	0.508792	0.954481
C80	C	-0.575005	0.513566	1.050494
C81	C	-0.540354	0.574689	1.101626
C82	C	-0.508375	0.631038	1.056744
C83	C	-0.511046	0.626266	0.960726
C84	C	-0.545697	0.565143	0.909594
H85	H	-0.598678	0.471851	1.083723
H86	H	-0.538377	0.578221	1.172705
H87	H	-0.482725	0.676284	1.094594
H88	H	-0.487373	0.667981	0.927497
H89	H	-0.547674	0.561612	0.838515
C90	C	-0.674575	0.337884	0.891065
C91	C	-0.677246	0.333095	0.795051
C92	C	-0.711889	0.271951	0.743926
C93	C	-0.743861	0.215595	0.788815
C94	C	-0.741191	0.220383	0.884834
C95	C	-0.706548	0.281527	0.935959
H96	H	-0.653578	0.374814	0.761817
H97	H	-0.713865	0.268407	0.672846
H98	H	-0.769505	0.170332	0.750970
H99	H	-0.764859	0.178663	0.918069
H100	H	-0.704572	0.285071	1.007039
H101	H	-0.449524	0.524990	0.525189
H102	H	-0.004774	0.581152	0.581462
C103	C	-0.674595	0.892111	0.337556
C104	C	-0.706562	0.937037	0.281130
C105	C	-0.741225	0.885957	0.219980
C106	C	-0.743920	0.789950	0.215257
C107	C	-0.711952	0.745018	0.271686
C108	C	-0.677289	0.796098	0.332835
H109	H	-0.704568	1.008112	0.284624
H110	H	-0.764890	0.919219	0.178208
H111	H	-0.769580	0.752137	0.169990
H112	H	-0.713946	0.673943	0.268191
H113	H	-0.653624	0.762836	0.374607
H114	H	-0.364414	0.525024	0.525194
H115	H	-0.107106	0.265557	0.264960
C116	C	0.202722	0.305634	0.305178
C117	C	0.234154	0.241779	0.337980
C118	C	0.256588	0.180102	0.276125
C119	C	0.247592	0.182281	0.181468
C120	C	0.216159	0.246139	0.148662
C121	C	0.193724	0.307816	0.210517
H122	H	0.240815	0.240163	0.408055
H123	H	0.279857	0.132829	0.300411
H124	H	0.264200	0.136624	0.135679
H125	H	0.209498	0.247754	0.078587
H126	H	0.170455	0.355088	0.186231
C127	C	-0.236469	0.597136	0.597508
C128	C	-0.267859	0.564136	0.661249
C129	C	-0.290288	0.625823	0.723103
C130	C	-0.281326	0.720510	0.721217
C131	C	-0.249934	0.753516	0.657474
C132	C	-0.227505	0.691829	0.595620
H133	H	-0.274495	0.494038	0.662647
H134	H	-0.313527	0.601389	0.770290
H135	H	-0.297929	0.766175	0.767006
H136	H	-0.243298	0.823614	0.656076
H137	H	-0.204267	0.716262	0.548433
C138	C	-0.137956	0.597149	0.597526
C139	C	-0.141875	0.594959	0.692178
C140	C	-0.112716	0.656641	0.754054
C141	C	-0.079639	0.720513	0.721278
C142	C	-0.075719	0.722705	0.626621
C143	C	-0.104878	0.661023	0.564745
H144	H	-0.166361	0.547676	0.716445
H145	H	-0.115617	0.655018	0.824125
H146	H	-0.058053	0.766174	0.767082
H147	H	-0.051232	0.769989	0.602354
H148	H	-0.101977	0.662646	0.494674
C149	C	0.117045	0.541122	0.541336
C150	C	0.126042	0.538947	0.635993
C151	C	0.103608	0.600628	0.697846
C152	C	0.072178	0.664484	0.665041
C153	C	0.063180	0.666662	0.570379
C154	C	0.085613	0.604981	0.508526
H155	H	0.149310	0.491674	0.660281
H156	H	0.110269	0.599015	0.767921
H157	H	0.055571	0.710144	0.710828
H158	H	0.039912	0.713934	0.546091
H159	H	0.078952	0.606594	0.438451
C160	C	0.215574	0.541139	0.541343
C161	C	0.248694	0.508136	0.605079
C162	C	0.277869	0.569822	0.666924
C163	C	0.273925	0.664510	0.665034
C164	C	0.240804	0.697517	0.601296
C165	C	0.211629	0.635832	0.539451
H166	H	0.251615	0.438038	0.606480
H167	H	0.302387	0.545387	0.714107
H168	H	0.295522	0.710173	0.710816
H169	H	0.237883	0.767616	0.599895
H170	H	0.187110	0.660267	0.492268
C171	C	0.104205	0.305612	0.305159
C172	C	0.108119	0.307772	0.210503
C173	C	0.078961	0.246068	0.148647
C174	C	0.045889	0.182205	0.181448
C175	C	0.041974	0.180042	0.276109
C176	C	0.071132	0.241745	0.337964
H177	H	0.132602	0.355050	0.186217
H178	H	0.081859	0.247670	0.078572
H179	H	0.024304	0.136528	0.135658
H180	H	0.017491	0.132764	0.300394
H181	H	0.068234	0.240144	0.408039
C182	C	-0.577686	0.955409	0.508589
C183	C	-0.575000	1.051416	0.513316
C184	C	-0.540348	1.102505	0.574482
C185	C	-0.508383	1.057587	0.630922
C186	C	-0.511069	0.961574	0.626197
C187	C	-0.545721	0.910485	0.565031
H188	H	-0.598663	1.084672	0.471534
H189	H	-0.538360	1.173580	0.577979
H190	H	-0.482732	1.095405	0.676200
H191	H	-0.487406	0.928318	0.667979
H192	H	-0.547708	0.839410	0.561534
H193	H	-0.247866	0.265545	0.264917
C194	C	-0.156931	0.249521	0.248867
C195	C	-0.165934	0.251700	0.154211
C196	C	-0.143511	0.190013	0.092350
C197	C	-0.112083	0.126146	0.125143
C198	C	-0.103078	0.123964	0.219803
C199	C	-0.125502	0.185652	0.281665
H200	H	-0.189200	0.298980	0.129932
H201	H	-0.150177	0.191628	0.022276
H202	H	-0.095484	0.080481	0.079349
H203	H	-0.079812	0.076684	0.244083
H204	H	-0.118835	0.184036	0.351738
H205	H	-0.375503	0.321557	0.321152
C206	C	-0.468205	0.305526	0.305074
C207	C	-0.501321	0.338555	0.241350
C208	C	-0.530500	0.276891	0.179489
C209	C	-0.526562	0.182198	0.181352
C210	C	-0.493445	0.149164	0.245079
C211	C	-0.464266	0.210828	0.306940
H212	H	-0.504237	0.408657	0.239969
H213	H	-0.555015	0.301345	0.132314
H214	H	-0.548162	0.136551	0.135558
H215	H	-0.490529	0.079063	0.246460
H216	H	-0.439751	0.186374	0.354115
H217	H	-0.022000	0.265570	0.264971
