data_functionalizedCrystal
_audit_creation_method	'MofGen! by Chris Wilmer'
_symmetry_space_group_name_H-M	'P1'
_symmetry_Int_Tables_number	1
_symmetry_cell_setting	triclinic
loop_
_symmetry_equiv_pos_as_xyz
  x,y,z
_cell_length_a	18.050589
_cell_length_b	16.959455
_cell_length_c	16.959447
_cell_angle_alpha	90.016944
_cell_angle_beta	89.973275
_cell_angle_gamma	89.974832
loop_
_atom_site_label
_atom_site_type_symbol
_atom_site_fract_x
_atom_site_fract_y
_atom_site_fract_z
Zn1	Zn	-0.295705	-1.208359	-0.446929
Zn2	Zn	-0.419906	-1.208257	-0.314759
Zn3	Zn	-0.295728	-1.076182	-0.314766
Zn4	Zn	-0.419851	-1.076134	-0.446897
O5	O	-0.357798	-1.142233	-0.380838
O6	O	-0.312194	-1.318957	-0.429406
O7	O	-0.403467	-1.190714	-0.204149
O8	O	-0.191800	-1.093778	-0.332314
O9	O	-0.403444	-1.318882	-0.332301
O10	O	-0.191783	-1.190889	-0.429414
O11	O	-0.312234	-1.093679	-0.204154
O12	O	-0.312180	-0.965565	-0.332284
O13	O	-0.403349	-1.093697	-0.557512
O14	O	-0.403372	-0.965529	-0.429360
O15	O	-0.312140	-1.190842	-0.557536
O16	O	-0.523824	-1.190668	-0.332271
O17	O	-0.523783	-1.093597	-0.429353
C18	C	-0.550750	-1.142138	-0.380825
C19	C	-0.633295	-1.142169	-0.380846
C20	C	-0.357773	-0.936867	-0.380820
C21	C	-0.357780	-0.849010	-0.380831
C22	C	-0.357736	-1.142275	-0.587006
C23	C	-0.357709	-1.142293	-0.674863
C24	C	-0.832751	-1.089434	-0.433620
C25	C	-0.882194	-1.070168	-0.361493
C26	C	-0.784426	-1.142247	-0.380856
C27	C	-0.882064	-1.161552	-0.452991
C28	C	-0.930411	-1.142320	-0.380872
C29	C	-0.832782	-1.122943	-0.308691
C30	C	-0.832648	-1.214360	-0.400237
C31	C	-0.882069	-1.195121	-0.328061
C32	C	-0.700328	-1.142202	-0.380848
C33	C	-1.014507	-1.142365	-0.380872
C34	C	-0.164092	-1.142350	-0.380868
C35	C	-0.081546	-1.142400	-0.380881
C36	C	-0.357823	-1.348401	-0.380857
C37	C	-0.357833	-1.436258	-0.380864
C38	C	-0.310275	-0.477529	-0.330396
C39	C	-0.405381	-0.477541	-0.431325
C40	C	-0.405371	-0.560086	-0.431320
C41	C	-0.357812	-0.601357	-0.380852
C42	C	-0.310264	-0.560082	-0.330388
C43	C	-0.452923	-0.601368	-0.481777
C44	C	-0.452915	-0.683919	-0.481774
C45	C	-0.405352	-0.725191	-0.431309
C46	C	-0.357802	-0.683911	-0.380844
C47	C	-0.310243	-0.725182	-0.330375
C48	C	-0.262688	-0.683903	-0.279913
C49	C	-0.262701	-0.601354	-0.279923
C50	C	-0.405339	-0.807739	-0.431299
C51	C	-0.310232	-0.807735	-0.330367
C52	C	-0.310130	-1.091841	-1.046348
C53	C	-0.405132	-1.192885	-1.046329
C54	C	-0.405150	-1.192871	-0.963784
C55	C	-0.357657	-1.142341	-0.922516
C56	C	-0.310148	-1.091824	-0.963794
C57	C	-0.452664	-1.243381	-0.922499
C58	C	-0.452683	-1.243369	-0.839948
C59	C	-0.405187	-1.192842	-0.798679
C60	C	-0.357675	-1.142324	-0.839962
C61	C	-0.310182	-1.091794	-0.798695
C62	C	-0.262666	-1.041279	-0.839977
C63	C	-0.262651	-1.041298	-0.922525
C64	C	-0.405202	-1.192824	-0.716130
C65	C	-0.310200	-1.091777	-0.716141
C66	C	-0.357805	-1.142236	-0.175472
C67	C	-0.357623	-1.142372	-0.087615
H68	H	-0.811095	-1.044707	-0.478178
H69	H	-0.223969	-0.717516	-0.238818
H70	H	-0.903587	-1.239815	-0.283395
H71	H	-0.444106	-0.443933	-0.472410
O72	O	-0.216576	-0.561135	-0.230938
C73	C	-0.174402	-0.433956	-0.186271
C74	C	-0.226690	-0.479410	-0.241768
H75	H	-0.182550	-0.367873	-0.195019
H76	H	-0.187358	-0.450093	-0.122489
H77	H	-0.114543	-0.450260	-0.200260
H78	H	-0.286566	-0.463130	-0.227850
H79	H	-0.213670	-0.463269	-0.305534
O80	O	-0.451252	-1.241925	-0.675945
C81	C	-0.461285	-1.348653	-0.582794
C82	C	-0.409047	-1.293080	-0.628238
H83	H	-0.427183	-1.390037	-0.544225
H84	H	-0.500107	-1.312373	-0.544079
H85	H	-0.495245	-1.384729	-0.626487
H86	H	-0.375039	-1.256992	-0.584603
H87	H	-0.370275	-1.329405	-0.666966
O88	O	-0.499008	-0.561237	-0.530882
C89	C	-0.509113	-0.468027	-0.637551
C90	C	-0.456840	-0.513449	-0.581998
H91	H	-0.475043	-0.429367	-0.678881
H92	H	-0.543091	-0.511663	-0.673677
H93	H	-0.547916	-0.429382	-0.601175
H94	H	-0.417993	-0.552095	-0.618313
H95	H	-0.422915	-0.469770	-0.545869
O96	O	-0.908125	-0.997406	-0.342067
C97	C	-0.912380	-0.859434	-0.375665
C98	C	-0.882983	-0.941796	-0.397760
H99	H	-0.892052	-0.814448	-0.420672
H100	H	-0.975533	-0.860265	-0.375333
H101	H	-0.891277	-0.842607	-0.314592
H102	H	-0.904031	-0.958673	-0.458837
H103	H	-0.819832	-0.940920	-0.398038
H104	H	-0.224001	-1.000134	-0.806366
O105	O	-0.451372	-1.241882	-1.086376
C106	C	-0.577696	-1.280214	-1.111562
C107	C	-0.525413	-1.224659	-1.066172
H108	H	-0.637568	-1.266321	-1.095232
H109	H	-0.569591	-1.271546	-1.177663
H110	H	-0.564625	-1.343950	-1.095352
H111	H	-0.538451	-1.160903	-1.082316
H112	H	-0.533527	-1.233396	-1.000083
O113	O	-0.263986	-1.042803	-0.676022
C114	C	-0.163770	-1.032204	-0.582807
C115	C	-0.216048	-1.087757	-0.628206
H116	H	-0.125010	-1.068526	-0.544125
H117	H	-0.129755	-0.996121	-0.626459
H118	H	-0.197886	-0.990826	-0.544186
H119	H	-0.181990	-1.129182	-0.666828
H120	H	-0.250065	-1.123785	-0.584512
H121	H	-0.810870	-1.275296	-0.416650
H122	H	-0.903713	-1.177851	-0.513989
O123	O	-0.806945	-1.103389	-0.235956
C124	C	-0.699674	-1.081461	-0.154335
C125	C	-0.728835	-1.103601	-0.236744
H126	H	-0.636520	-1.081641	-0.154941
H127	H	-0.720471	-1.020189	-0.137699
H128	H	-0.720452	-1.126220	-0.109335
H129	H	-0.708070	-1.058894	-0.281799
H130	H	-0.708044	-1.164891	-0.253313
H131	H	-0.271499	-0.841332	-0.289274
O132	O	-0.264152	-0.437314	-0.281405
C133	C	-0.221972	-0.310142	-0.236723
C134	C	-0.274257	-0.355587	-0.292231
H135	H	-0.230113	-0.244058	-0.245468
H136	H	-0.234938	-0.326282	-0.172944
H137	H	-0.162113	-0.326451	-0.250704
H138	H	-0.334134	-0.339302	-0.278321
H139	H	-0.261227	-0.339443	-0.355994
O140	O	-0.499127	-0.723891	-0.530869
C141	C	-0.593491	-0.715184	-0.630947
C142	C	-0.541185	-0.669816	-0.575399
H143	H	-0.627520	-0.671484	-0.666953
H144	H	-0.559471	-0.753833	-0.672390
H145	H	-0.632244	-0.753830	-0.594575
H146	H	-0.502422	-0.631127	-0.611709
H147	H	-0.575251	-0.631217	-0.533954
O148	O	-0.451551	-0.847715	-0.480386
C149	C	-0.545923	-0.839011	-0.580457
C150	C	-0.493612	-0.793642	-0.524915
H151	H	-0.579954	-0.795313	-0.616461
H152	H	-0.511906	-0.877661	-0.621902
H153	H	-0.584673	-0.877656	-0.544080
H154	H	-0.454852	-0.754954	-0.561228
H155	H	-0.527675	-0.755042	-0.483467
O156	O	-0.216569	-0.992256	-0.962748
C157	C	-0.174411	-0.947537	-1.089930
C158	C	-0.226647	-1.003103	-1.044472
H159	H	-0.182530	-0.956300	-1.156012
H160	H	-0.187447	-0.883772	-1.073749
H161	H	-0.114541	-0.961444	-1.073672
H162	H	-0.286535	-0.989268	-1.060706
H163	H	-0.213548	-1.066852	-1.060656
O164	O	-0.264045	-1.042799	-1.086566
C165	C	-0.221871	-0.998078	-1.213740
C166	C	-0.274112	-1.053645	-1.168292
H167	H	-0.229980	-1.006839	-1.279824
H168	H	-0.234909	-0.934313	-1.197561
H169	H	-0.162002	-1.011984	-1.197473
H170	H	-0.333998	-1.039810	-1.184534
H171	H	-0.261010	-1.117394	-1.184475
H172	H	-0.491338	-1.284511	-0.956105
H173	H	-0.491375	-1.284500	-0.806343
