data_functionalizedCrystal
_audit_creation_method	'MofGen! by Chris Wilmer'
_symmetry_space_group_name_H-M	'P1'
_symmetry_Int_Tables_number	1
_symmetry_cell_setting	triclinic
loop_
_symmetry_equiv_pos_as_xyz
  x,y,z
_cell_length_a	10.908937
_cell_length_b	11.026607
_cell_length_c	17.766277
_cell_angle_alpha	89.996915
_cell_angle_beta	89.988590
_cell_angle_gamma	84.335986
loop_
_atom_site_label
_atom_site_type_symbol
_atom_site_fract_x
_atom_site_fract_y
_atom_site_fract_z
O1	O	1.662457	-0.179059	-0.062617
O2	O	1.309525	-0.088522	-0.062613
O3	O	1.456740	-0.304541	-0.062612
O4	O	1.515242	0.036960	-0.062618
O5	O	1.456705	-0.304543	0.062576
O6	O	1.309489	-0.088524	0.062575
O7	O	1.662422	-0.179061	0.062571
Cu8	Cu	1.485952	-0.133793	0.074004
Cu9	Cu	1.485994	-0.133790	-0.074046
O10	O	1.515206	0.036958	0.062570
C11	C	1.263622	-0.080062	-0.000018
C12	C	1.126895	-0.054865	-0.000017
C13	C	1.445930	-0.347575	-0.000019
C14	C	1.413757	-0.475796	-0.000021
C15	C	0.915317	-0.120775	-0.000029
C16	C	1.056631	-0.146820	-0.000019
C17	C	1.502592	-0.567529	-0.000023
C18	C	1.469342	-0.700053	-0.000025
C19	C	1.708325	-0.187521	-0.000025
C20	C	1.845052	-0.212718	-0.000032
C21	C	1.526016	0.079992	-0.000025
C22	C	1.558189	0.208213	-0.000028
N23	N	1.485932	-0.133797	0.178134
N24	N	1.486022	-0.133797	-0.178176
C25	C	1.551155	-0.229417	0.217522
C26	C	1.551161	-0.229424	0.296324
C27	C	1.485960	-0.133793	0.335735
C28	C	1.420723	-0.038164	0.296338
C29	C	1.420709	-0.038167	0.217538
C30	C	1.494294	-0.024956	0.460571
C31	C	1.494317	-0.024954	0.539370
C32	C	1.485996	-0.133786	0.578781
C33	C	1.477677	-0.242630	0.539384
C34	C	1.477663	-0.242632	0.460584
C35	C	1.485967	-0.133781	0.421181
C36	C	1.551228	-0.229421	0.703615
C37	C	1.551225	-0.229427	0.782418
C38	C	1.420795	-0.038159	0.782431
C39	C	1.420790	-0.038161	0.703629
C40	C	1.486014	-0.133792	0.664226
H41	H	0.870855	-0.022779	-0.000039
H42	H	1.101088	-0.244824	-0.000019
H43	H	1.470887	-0.331255	0.428510
H44	H	0.889514	-0.310715	-0.000031
H45	H	1.082440	0.043139	-0.000024
H46	H	1.604275	-0.307292	0.328399
H47	H	1.603262	-0.547952	-0.000020
H48	H	1.368665	-0.719623	-0.000029
H49	H	1.658866	-0.772219	-0.000085
H50	H	1.501049	0.063678	0.428489
H51	H	1.604260	-0.307288	0.185442
H52	H	1.313087	-0.495373	-0.000025
H53	H	1.470901	-0.331251	0.571471
H54	H	1.367685	0.039705	0.671558
H55	H	1.604333	-0.307292	0.671531
H56	H	1.604333	-0.307298	0.814488
H57	H	1.367702	0.039702	0.814519
H58	H	1.501098	0.063671	0.571441
H59	H	1.367633	0.039698	0.328431
H60	H	1.367595	0.039700	0.185468
