data_functionalizedCrystal
_audit_creation_method	'MofGen! by Chris Wilmer'
_symmetry_space_group_name_H-M	'P1'
_symmetry_Int_Tables_number	1
_symmetry_cell_setting	triclinic
loop_
_symmetry_equiv_pos_as_xyz
  x,y,z
_cell_length_a	14.044220
_cell_length_b	13.339070
_cell_length_c	11.804365
_cell_angle_alpha	74.877633
_cell_angle_beta	102.927057
_cell_angle_gamma	104.409086
loop_
_atom_site_label
_atom_site_type_symbol
_atom_site_fract_x
_atom_site_fract_y
_atom_site_fract_z
O1	O	0.472654	1.405368	-0.099011
O2	O	0.408764	1.105077	-0.099018
O3	O	0.301541	1.250713	-0.099003
O4	O	0.579878	1.259732	-0.099026
O5	O	0.329729	1.212369	0.099049
O6	O	0.436953	1.066733	0.099034
O7	O	0.500843	1.367024	0.099041
Cu8	Cu	0.471471	1.213378	0.117121
Cu9	Cu	0.438136	1.258724	-0.117098
O10	O	0.608066	1.221389	0.099026
C11	C	0.279283	1.227595	0.000024
C12	C	0.170962	1.215824	0.000025
C13	C	0.497540	1.424860	0.000013
C14	C	0.529708	1.540066	0.000007
C15	C	0.412066	1.047242	0.000007
C16	C	0.379897	0.932038	0.000005
C17	C	-0.027362	1.194309	0.000007
C18	C	-0.063040	1.277790	0.000005
C19	C	-0.173394	1.265819	-0.000004
C20	C	0.083002	1.206279	0.000017
C21	C	0.630324	1.244507	-0.000003
C22	C	0.738644	1.256279	-0.000012
N23	N	0.494920	1.181491	0.281858
C24	C	0.279582	1.882287	0.000012
C25	C	0.249355	1.774047	0.000009
C26	C	0.319441	1.715546	0.000009
C27	C	0.419759	1.765296	0.000011
C28	C	0.449988	1.873548	0.000004
C29	C	0.489846	1.706808	0.000002
C30	C	0.590165	1.756558	0.000003
C31	C	0.620389	1.864799	-0.000002
C32	C	0.550303	1.923300	-0.000002
C33	C	0.459617	1.598556	0.000008
C34	C	0.630023	1.589817	0.000001
C35	C	0.660251	1.698057	0.000004
N36	N	0.414682	1.290618	-0.281836
C37	C	0.358356	1.367187	0.655826
C38	C	0.340613	1.391308	0.531167
C39	C	0.379188	1.338856	0.468834
C40	C	0.435509	1.262279	0.531172
C41	C	0.453260	1.238162	0.655843
C42	C	0.474092	1.209830	0.468851
C43	C	0.530414	1.133254	0.531189
C44	C	0.548161	1.109140	0.655848
C45	C	0.509586	1.161593	0.718181
C46	C	0.456341	1.233947	0.344180
C47	C	0.551246	1.104922	0.344197
C48	C	0.568989	1.080801	0.468856
H49	H	-0.010718	1.358268	-0.000073
O50	O	0.698226	1.533080	0.000161
C51	C	0.772032	1.536995	0.102742
H52	H	0.774625	1.610215	0.136936
H53	H	0.753431	1.462778	0.174573
C54	C	0.871096	1.452691	0.029577
C55	C	0.874286	1.542625	0.071569
H56	H	0.934170	1.456158	0.010351
H57	H	0.821370	1.450049	-0.039532
H58	H	0.855590	1.390852	0.089443
H59	H	0.889778	1.604460	0.011698
H60	H	0.924017	1.545277	0.140667
H61	H	-0.079691	1.113854	0.000002
H62	H	0.377938	1.558060	0.000006
O63	O	0.623577	1.006341	0.529550
C64	C	0.564987	0.923766	0.601656
H65	H	0.502546	0.954578	0.620321
H66	H	0.531371	0.855876	0.553631
C67	C	0.707435	0.845808	0.697155
C68	C	0.630749	0.883654	0.720088
H69	H	0.748000	0.821060	0.770207
H70	H	0.746908	0.901438	0.648573
H71	H	0.679410	0.789238	0.657131
H72	H	0.658775	0.940231	0.760097
H73	H	0.591282	0.828032	0.768680
H74	H	0.574910	2.011437	0.000005
H75	H	0.594031	1.046796	0.706604
H76	H	0.294823	1.627412	0.000007
O77	O	0.285809	1.465537	0.470371
C78	C	0.344088	1.548154	0.397944
H79	H	0.426533	1.550021	0.435501
H80	H	0.327288	1.534139	0.303612
C81	C	0.217816	1.652521	0.349397
C82	C	0.319076	1.654819	0.395531
H83	H	0.202385	1.718316	0.347902
H84	H	0.178550	1.596859	0.398188
H85	H	0.203828	1.640837	0.270790
H86	H	0.333059	1.666489	0.474140
H87	H	0.358344	1.710485	0.346752
H88	H	0.741931	1.738579	0.000005
H89	H	0.582659	1.062212	0.293446
O90	O	0.151895	1.725719	-0.000203
C91	C	0.114722	1.683202	-0.102760
H92	H	0.161982	1.727217	-0.174453
H93	H	0.117998	1.595500	-0.079569
C94	C	-0.052195	1.641713	-0.061218
C95	C	0.005846	1.695780	-0.149275
H96	H	-0.119356	1.649466	-0.089909
H97	H	-0.027151	1.670354	0.007880
H98	H	-0.049454	1.568633	-0.041900
H99	H	0.003114	1.768860	-0.168581
H100	H	-0.019202	1.667151	-0.218378
O101	O	0.211646	1.939259	0.000061
C102	C	0.259836	2.045473	0.000019
H103	H	0.342523	2.049238	0.037513
H104	H	0.250857	2.094785	-0.095000
C105	C	0.111353	2.085173	0.031632
C106	C	0.212909	2.089796	0.077692
H107	H	0.082404	2.112516	0.079539
H108	H	0.078885	2.013616	0.031656
H109	H	0.103884	2.126265	-0.047549
H110	H	0.220377	2.048693	0.156866
H111	H	0.245378	2.161347	0.077683
O112	O	0.717842	1.913035	-0.000174
C113	C	0.747671	1.903790	-0.102765
H114	H	0.696621	1.833059	-0.136950
H115	H	0.742653	1.979219	-0.174596
C116	C	0.918693	1.974215	-0.029632
C117	C	0.855998	1.887337	-0.071614
H118	H	0.985515	1.964071	-0.010420
H119	H	0.898596	1.980448	0.039484
H120	H	0.914500	2.037064	-0.089498
H121	H	0.860182	1.824492	-0.011743
H122	H	0.876097	1.881093	-0.140719
H123	H	0.410485	1.296296	0.293435
O124	O	0.320723	1.418094	0.716251
C125	C	0.215833	1.398446	0.685834
H126	H	0.192537	1.376035	0.595321
H127	H	0.182213	1.330574	0.756006
C128	C	0.206756	1.526467	0.791256
C129	C	0.178143	1.498950	0.680081
H130	H	0.183505	1.588460	0.787712
H131	H	0.277422	1.539702	0.811752
H132	H	0.178737	1.469899	0.849721
H133	H	0.206172	1.555513	0.621621
H134	H	0.107480	1.485727	0.659575
H135	H	0.364739	1.358498	0.367331
H136	H	0.524029	1.141951	0.819689
