data_functionalizedCrystal
_audit_creation_method	'MofGen! by Chris Wilmer'
_symmetry_space_group_name_H-M	'P1'
_symmetry_Int_Tables_number	1
_symmetry_cell_setting	triclinic
loop_
_symmetry_equiv_pos_as_xyz
  x,y,z
_cell_length_a	12.759387
_cell_length_b	19.805407
_cell_length_c	19.805405
_cell_angle_alpha	89.973590
_cell_angle_beta	89.963006
_cell_angle_gamma	90.023842
loop_
_atom_site_label
_atom_site_type_symbol
_atom_site_fract_x
_atom_site_fract_y
_atom_site_fract_z
Zn1	Zn	-0.594053	-1.034764	-0.269427
Zn2	Zn	-0.094053	-0.534764	0.230573
Zn3	Zn	-0.418355	-1.034671	-0.382631
Zn4	Zn	0.081645	-0.534671	0.117369
Zn5	Zn	-0.418380	-0.921570	-0.269461
Zn6	Zn	0.081620	-0.421570	0.230539
Zn7	Zn	-0.593984	-0.921542	-0.382580
Zn8	Zn	-0.093984	-0.421542	0.117420
O9	O	-0.506193	-0.978137	-0.326025
O10	O	-0.006193	-0.478137	0.173975
O11	O	-0.570765	-1.129468	-0.284451
O12	O	-0.070765	-0.629468	0.215549
O13	O	-0.271337	-1.019640	-0.367654
O14	O	0.228663	-0.519640	0.132346
O15	O	-0.441723	-0.936637	-0.174740
O16	O	0.058277	-0.436637	0.325260
O17	O	-0.441680	-1.129400	-0.367622
O18	O	0.058320	-0.629400	0.132378
O19	O	-0.570790	-1.019800	-0.174715
O20	O	-0.070790	-0.519800	0.325285
O21	O	-0.271355	-0.936546	-0.284509
O22	O	0.228645	-0.436546	0.215491
O23	O	-0.441655	-0.826850	-0.284460
O24	O	0.058345	-0.326850	0.215540
O25	O	-0.741014	-0.936589	-0.367534
O26	O	-0.241014	-0.436589	0.132466
O27	O	-0.570671	-0.826830	-0.367567
O28	O	-0.070671	-0.326830	0.132433
O29	O	-0.741065	-1.019773	-0.284402
O30	O	-0.241065	-0.519773	0.215598
O31	O	-0.441613	-1.019613	-0.477341
O32	O	0.058387	-0.519613	0.022659
O33	O	-0.570646	-0.936498	-0.477303
O34	O	-0.070646	-0.436498	0.022697
C35	C	-0.506159	-0.802281	-0.326012
C36	C	-0.006159	-0.302281	0.173988
C37	C	-0.506169	-0.727049	-0.326023
C38	C	-0.006169	-0.227049	0.173977
C39	C	-0.780226	-0.978188	-0.325959
C40	C	-0.280226	-0.478188	0.174041
C41	C	-0.897003	-0.978210	-0.325930
C42	C	-0.397003	-0.478210	0.174070
C43	C	-0.506142	-0.978061	-0.501881
C44	C	-0.006142	-0.478061	-0.001881
C45	C	-0.506155	-0.978090	-0.577113
C46	C	-0.006155	-0.478090	-0.077113
C47	C	-0.897076	-1.064835	-0.239370
C48	C	-0.397076	-0.564835	0.260630
C49	C	-0.951974	-1.108157	-0.196080
C50	C	-0.451974	-0.608157	0.303920
C51	C	-1.061695	-1.108173	-0.196055
C52	C	-0.561695	-0.608173	0.303945
C53	C	-1.116522	-1.064862	-0.239324
C54	C	-0.616522	-0.564862	0.260676
C55	C	-1.061625	-1.021540	-0.282614
C56	C	-0.561625	-0.521540	0.217386
C57	C	-0.951901	-1.021529	-0.282636
C58	C	-0.451901	-0.521529	0.217364
C59	C	-1.061552	-0.934912	-0.369170
C60	C	-0.561552	-0.434912	0.130830
C61	C	-0.951830	-0.934898	-0.369199
C62	C	-0.451830	-0.434898	0.130801
C63	C	-1.116379	-0.891601	-0.412439
C64	C	-0.616379	-0.391601	0.087561
C65	C	-1.061481	-0.848281	-0.455734
C66	C	-0.561481	-0.348281	0.044266
C67	C	-0.951753	-0.848267	-0.455757
C68	C	-0.451753	-0.348267	0.044243
C69	C	-0.896933	-0.891576	-0.412489
C70	C	-0.396933	-0.391576	0.087511
C71	C	-0.233225	-0.978125	-0.326042
C72	C	0.266775	-0.478125	0.173958
C73	C	-0.116449	-0.978234	-0.325880
C74	C	0.383551	-0.478234	0.174120
C75	C	-0.506228	-1.154680	-0.326038
C76	C	-0.006228	-0.654680	0.173962
C77	C	-0.506242	-1.229912	-0.326044
C78	C	-0.006242	-0.729912	0.173956
C79	C	-0.573239	-0.691712	-0.369362
C80	C	-0.073239	-0.191712	0.130638
C81	C	-0.573254	-0.621023	-0.369363
C82	C	-0.073254	-0.121023	0.130637
C83	C	-0.506193	-0.585673	-0.326028
C84	C	-0.006193	-0.085673	0.173972
C85	C	-0.439120	-0.621015	-0.282684
C86	C	0.060880	-0.121015	0.217316
C87	C	-0.439112	-0.691703	-0.282680
C88	C	0.060888	-0.191703	0.217320
C89	C	-0.439155	-0.335942	-0.282699
C90	C	0.060845	0.164058	0.217301
C91	C	-0.439167	-0.265250	-0.282708
C92	C	0.060833	0.234750	0.217292
C93	C	-0.573297	-0.265263	-0.369382
C94	C	-0.073297	0.234737	0.130618
C95	C	-0.573288	-0.335950	-0.369378
C96	C	-0.073288	0.164050	0.130622
C97	C	-0.506220	-0.371286	-0.326032
C98	C	-0.006220	0.128714	0.173968
C99	C	-0.506206	-0.447934	-0.326030
C100	C	-0.006206	0.052066	0.173970
C101	C	-0.506201	-0.509026	-0.326033
C102	C	-0.006201	-0.009026	0.173967
C103	C	-0.439038	-1.021410	-0.612454
C104	C	0.060962	-0.521410	-0.112454
C105	C	-0.439061	-1.021439	-0.683143
C106	C	0.060939	-0.521439	-0.183143
C107	C	-0.506197	-0.978144	-0.718489
C108	C	-0.006197	-0.478144	-0.218489
C109	C	-0.573322	-0.934822	-0.683142
C110	C	-0.073322	-0.434822	-0.183142
C111	C	-0.573304	-0.934797	-0.612455
C112	C	-0.073304	-0.434797	-0.112455
C113	C	-0.573400	-0.934922	-0.968216
C114	C	-0.073400	-0.434922	-0.468216
C115	C	-0.573411	-0.934948	-1.038908
C116	C	-0.073411	-0.434948	-0.538908
C117	C	-0.439158	-1.021563	-1.038903
C118	C	0.060842	-0.521563	-0.538903
C119	C	-0.439139	-1.021539	-0.968216
C120	C	0.060861	-0.521539	-0.468216
C121	C	-0.506267	-0.978220	-0.932876
C122	C	-0.006267	-0.478220	-0.432876
C123	C	-0.506243	-0.978190	-0.856227
C124	C	-0.006243	-0.478190	-0.356227
C125	C	-0.506217	-0.978169	-0.795136
C126	C	-0.006217	-0.478169	-0.295136
C127	C	-0.506267	-0.978232	-0.149482
C128	C	-0.006267	-0.478232	0.350518
C129	C	-0.506298	-0.978272	-0.074250
C130	C	-0.006298	-0.478272	0.425750
H131	H	-0.807735	-1.064832	-0.239392
H132	H	-0.307735	-0.564832	0.260608
H133	H	-0.627911	-0.236484	-0.404675
H134	H	-0.127911	0.263516	0.095325
H135	H	-0.628056	-0.899649	-0.939447
H136	H	-0.128056	-0.399649	-0.439447
H137	H	-0.384467	-1.056791	-0.939439
H138	H	0.115533	-0.556791	-0.439439
H139	H	-1.106393	-1.143445	-0.160800
H140	H	-0.606393	-0.643445	0.339200
H141	H	-0.627959	-0.899522	-0.583681
H142	H	-0.127959	-0.399522	-0.083681
H143	H	-0.384523	-0.592228	-0.247397
H144	H	0.115477	-0.092228	0.252603
H145	H	-0.384558	-0.236470	-0.247415
H146	H	0.115442	0.263530	0.252585
H147	H	-0.627867	-0.592255	-0.404655
H148	H	-0.127867	-0.092255	0.095345
H149	H	-0.384502	-0.720473	-0.247385
H150	H	0.115498	-0.220473	0.252615
Br151	Br	-0.347975	-1.080237	-0.731103
Br152	Br	0.152025	-0.580237	-0.231103
H153	H	-0.384502	-1.056838	-1.067685
H154	H	0.115498	-0.556838	-0.567685
Br155	Br	-0.348140	-0.383889	-0.223868
Br156	Br	0.151860	0.116111	0.276132
Br157	Br	-0.664446	-0.876069	-0.731111
Br158	Br	-0.164446	-0.376069	-0.231111
Br159	Br	-0.347909	-1.080165	-0.564492
Br160	Br	0.152091	-0.580165	-0.064492
Br161	Br	-0.664531	-0.876186	-1.086877
Br162	Br	-0.164531	-0.376186	-0.586877
Br163	Br	-0.664296	-0.383922	-0.428196
Br164	Br	-0.164296	0.116078	0.071804
H165	H	-0.907322	-1.143419	-0.160850
H166	H	-0.407322	-0.643419	0.339150
Br167	Br	-0.748024	-0.891565	-0.412522
Br168	Br	-0.248024	-0.391565	0.087478
Br169	Br	-0.664247	-0.739680	-0.428183
Br170	Br	-0.164247	-0.239680	0.071817
H171	H	-1.106130	-0.813017	-0.490956
H172	H	-0.606130	-0.313017	0.009044
H173	H	-0.907062	-0.812982	-0.491002
H174	H	-0.407062	-0.312982	0.008998
H175	H	-1.205863	-1.064873	-0.239294
H176	H	-0.705863	-0.564873	0.260706
Br177	Br	-1.265288	-0.891621	-0.412405
Br178	Br	-0.765288	-0.391621	0.087595
