data_functionalizedCrystal
_audit_creation_method	'MofGen! by Chris Wilmer'
_symmetry_space_group_name_H-M	'P1'
_symmetry_Int_Tables_number	1
_symmetry_cell_setting	triclinic
loop_
_symmetry_equiv_pos_as_xyz
  x,y,z
_cell_length_a	16.959453
_cell_length_b	16.120542
_cell_length_c	16.959447
_cell_angle_alpha	87.086179
_cell_angle_beta	90.031064
_cell_angle_gamma	92.888675
loop_
_atom_site_label
_atom_site_type_symbol
_atom_site_fract_x
_atom_site_fract_y
_atom_site_fract_z
Zn1	Zn	-0.376108	-1.274536	0.508154
Zn2	Zn	0.123892	-0.774536	1.008154
Zn3	Zn	-0.508297	-1.274455	0.375970
Zn4	Zn	-0.008297	-0.774455	0.875970
Zn5	Zn	-0.369419	-1.135129	0.369292
Zn6	Zn	0.130581	-0.635129	0.869292
Zn7	Zn	-0.501526	-1.135092	0.501411
Zn8	Zn	-0.001526	-0.635092	1.001411
O9	O	-0.438838	-1.204803	0.438707
O10	O	0.061162	-0.704803	0.938707
O11	O	-0.399276	-1.391191	0.496236
O12	O	0.100724	-0.891191	0.996236
O13	O	-0.489908	-1.255954	0.264472
O14	O	0.010092	-0.755954	0.764472
O15	O	-0.259698	-1.153671	0.387740
O16	O	0.240302	-0.653671	0.887740
O17	O	-0.496394	-1.391132	0.399121
O18	O	0.003606	-0.891132	0.899121
O19	O	-0.264612	-1.256093	0.489761
O20	O	0.235388	-0.756093	0.989761
O21	O	-0.387876	-1.153592	0.259566
O22	O	0.112124	-0.653592	0.759566
O23	O	-0.381311	-1.018458	0.381201
O24	O	0.118689	-0.518458	0.881201
O25	O	-0.484855	-1.153608	0.612917
O26	O	0.015145	-0.653608	1.112917
O27	O	-0.478369	-1.018431	0.478269
O28	O	0.021631	-0.518431	0.978269
O29	O	-0.392711	-1.256057	0.617871
O30	O	0.107289	-0.756057	1.117871
O31	O	-0.618007	-1.255918	0.392583
O32	O	-0.118007	-0.755918	0.892583
O33	O	-0.613033	-1.153529	0.484744
O34	O	-0.113033	-0.653529	0.984744
C35	C	-0.428380	-0.988194	0.428279
C36	C	0.071620	-0.488194	0.928279
C37	C	-0.423926	-0.895528	0.423837
C38	C	0.076074	-0.395528	0.923837
C39	C	-0.644200	-1.204733	0.438674
C40	C	-0.144200	-0.704733	0.938674
C41	C	-0.732059	-1.204780	0.438691
C42	C	-0.232059	-0.704780	0.938691
C43	C	-0.461922	-0.684586	0.461706
C44	C	0.038078	-0.184586	0.961706
C45	C	-0.415800	-0.725871	0.415726
C46	C	0.084200	-0.225871	0.915726
C47	C	-0.420322	-0.820277	0.420240
C48	C	0.079678	-0.320277	0.920240
C49	C	-0.457400	-0.590172	0.457193
C50	C	0.042600	-0.090172	0.957193
C51	C	-1.106039	-1.258202	0.491928
C52	C	-0.606039	-0.758202	0.991928
C53	C	-1.101044	-1.151636	0.385614
C54	C	-0.601044	-0.651636	0.885614
C55	C	-1.018496	-1.151606	0.385595
C56	C	-0.518496	-0.651606	0.885595
C57	C	-0.979717	-1.204873	0.438743
C58	C	-0.479717	-0.704873	0.938743
C59	C	-1.023484	-1.258171	0.491912
C60	C	-0.523484	-0.758171	0.991912
C61	C	-0.974722	-1.098302	0.332433
C62	C	-0.474722	-0.598302	0.832433
C63	C	-0.892169	-1.098269	0.332411
C64	C	-0.392169	-0.598269	0.832411
C65	C	-0.853389	-1.151541	0.385557
C66	C	-0.353389	-0.651541	0.885557
C67	C	-0.897162	-1.204842	0.438727
C68	C	-0.397162	-0.704842	0.938727
C69	C	-0.858382	-1.258109	0.491875
C70	C	-0.358382	-0.758109	0.991875
C71	C	-0.902154	-1.311415	0.545042
C72	C	-0.402154	-0.811415	1.045042
C73	C	-0.984704	-1.311443	0.545057
C74	C	-0.484704	-0.811443	1.045057
C75	C	-0.770839	-1.151513	0.385542
C76	C	-0.270839	-0.651513	0.885542
C77	C	-0.775827	-1.258078	0.491859
C78	C	-0.275827	-0.758078	0.991859
C79	C	-0.232674	-1.204895	0.438758
C80	C	0.267326	-0.704895	0.938758
C81	C	-0.144819	-1.204935	0.438779
C82	C	0.355181	-0.704935	0.938779
C83	C	-0.438774	-1.204838	0.644877
C84	C	0.061226	-0.704838	1.144877
C85	C	-0.438747	-1.204852	0.732734
C86	C	0.061253	-0.704852	1.232734
C87	C	-0.449332	-0.422258	0.449164
C88	C	0.050668	0.077742	0.949164
C89	C	-0.453794	-0.514924	0.453593
C90	C	0.046206	-0.014924	0.953593
C91	C	-0.438846	-1.204816	0.233341
C92	C	0.061154	-0.704816	0.733341
C93	C	-0.438659	-1.204963	0.145492
C94	C	0.061341	-0.704963	0.645492
C95	C	-0.486643	-1.151611	1.101638
C96	C	0.013357	-0.651611	1.601638
C97	C	-0.390693	-1.258293	1.106792
C98	C	0.109307	-0.758293	1.606792
C99	C	-0.390708	-1.258270	1.024245
C100	C	0.109292	-0.758270	1.524245
C101	C	-0.438693	-1.204919	0.980390
C102	C	0.061307	-0.704919	1.480390
C103	C	-0.486662	-1.151589	1.019083
C104	C	0.013338	-0.651589	1.519083
C105	C	-0.342746	-1.311605	0.985546
C106	C	0.157254	-0.811605	1.485546
C107	C	-0.342761	-1.311585	0.902994
C108	C	0.157239	-0.811585	1.402994
C109	C	-0.390742	-1.258229	0.859138
C110	C	0.109258	-0.758229	1.359138
C111	C	-0.438712	-1.204897	0.897836
C112	C	0.061288	-0.704897	1.397836
C113	C	-0.486697	-1.151545	0.853982
C114	C	0.013303	-0.651545	1.353982
C115	C	-0.534663	-1.098208	0.892678
C116	C	-0.034663	-0.598208	1.392678
C117	C	-0.534643	-1.098233	0.975227
C118	C	-0.034643	-0.598233	1.475227
C119	C	-0.390762	-1.258204	0.776588
C120	C	0.109238	-0.758204	1.276588
C121	C	-0.486716	-1.151523	0.771427
C122	C	0.013284	-0.651523	1.271427
H123	H	-0.372917	-0.690315	0.372970
H124	H	0.127083	-0.190315	0.872970
C125	C	-1.154188	-1.316836	0.550409
C126	C	-0.654188	-0.816836	1.050409
N127	N	-1.190455	-1.360998	0.594458
N128	N	-0.690455	-0.860998	1.094458
H129	H	-0.744258	-1.301458	0.535137
H130	H	-0.244258	-0.801458	1.035137
C131	C	-1.143707	-1.093110	0.327096
C132	C	-0.643707	-0.593110	0.827096
N133	N	-1.175846	-1.049052	0.282994
N134	N	-0.675846	-0.549052	0.782994
H135	H	-0.351711	-1.301632	0.745086
H136	H	0.148289	-0.801632	1.245086
H137	H	-1.006302	-1.054933	0.289164
H138	H	-0.506302	-0.554933	0.789164
H139	H	-0.303703	-1.355015	0.871495
H140	H	0.196297	-0.855015	1.371495
C141	C	-0.519858	-0.732619	0.519457
C142	C	-0.019858	-0.232619	1.019457
N143	N	-0.563499	-0.768806	0.562950
N144	N	-0.063499	-0.268806	1.062950
C145	C	-1.032858	-1.370070	0.603539
C146	C	-0.532858	-0.870070	1.103539
N147	N	-1.069131	-1.414224	0.647590
N148	N	-0.569131	-0.914224	1.147590
H149	H	-0.525694	-1.108183	1.133148
H150	H	-0.025694	-0.608183	1.633148
C151	C	-0.859486	-1.370007	0.603504
C152	C	-0.359486	-0.870007	1.103504
N153	N	-0.827345	-1.414138	0.647536
N154	N	-0.327345	-0.914138	1.147536
C155	C	-0.844028	-1.039624	0.273934
C156	C	-0.344028	-0.539624	0.773934
N157	N	-0.807767	-0.995451	0.229890
N158	N	-0.307767	-0.495451	0.729890
C159	C	-0.722694	-1.092881	0.327061
C160	C	-0.222694	-0.592881	0.827061
N161	N	-0.686432	-1.048719	0.283008
N162	N	-0.186432	-0.548719	0.783008
H163	H	-0.525784	-1.108069	0.735726
H164	H	-0.025784	-0.608069	1.235726
H165	H	-0.573736	-1.054773	0.856961
H166	H	-0.073736	-0.554773	1.356961
C167	C	-0.587397	-1.039563	1.017799
C168	C	-0.087397	-0.539563	1.517799
N169	N	-0.627131	-0.995373	1.049867
N170	N	-0.127131	-0.495373	1.549867
C171	C	-0.337907	-1.316970	1.155033
C172	C	0.162093	-0.816970	1.655033
N173	N	-0.298143	-1.361165	1.191373
N174	N	0.201857	-0.861165	1.691373
H175	H	-0.303685	-1.355046	1.021258
H176	H	0.196315	-0.855046	1.521258
