data_functionalizedCrystal
_audit_creation_method	'MofGen! by Chris Wilmer'
_symmetry_space_group_name_H-M	'P1'
_symmetry_Int_Tables_number	1
_symmetry_cell_setting	triclinic
loop_
_symmetry_equiv_pos_as_xyz
  x,y,z
_cell_length_a	6.817900
_cell_length_b	11.168121
_cell_length_c	11.168144
_cell_angle_alpha	92.019983
_cell_angle_beta	108.508840
_cell_angle_gamma	108.508496
loop_
_atom_site_label
_atom_site_type_symbol
_atom_site_fract_x
_atom_site_fract_y
_atom_site_fract_z
V1	V	-4.109883	-0.174723	-0.393710
O2	O	-4.069468	0.008378	-0.386204
O3	O	-4.086171	-0.346428	-0.391027
O4	O	-4.086174	-0.172043	-0.565415
O5	O	-4.069464	-0.167214	-0.210609
V6	V	-4.587113	-0.152821	-0.371808
O7	O	-4.384947	-0.222766	-0.441752
O8	O	-4.762246	-0.104777	-0.323765
O9	O	-4.387618	0.018884	-0.374490
O10	O	-4.744925	-0.335921	-0.379313
O11	O	-4.744928	-0.160329	-0.554909
O12	O	-4.387615	-0.155500	-0.200102
C13	C	-3.936378	-0.388285	-0.384819
C14	C	-3.998442	-0.528657	-0.383770
C15	C	-4.200951	-0.597349	-0.389292
C16	C	-4.265101	-0.742431	-0.388208
C17	C	-3.936381	-0.165839	-0.607266
C18	C	-3.998443	-0.164784	-0.747637
C19	C	-4.082927	-0.274207	-0.827364
C20	C	-4.147073	-0.273120	-0.972444
C21	C	-4.200753	0.060736	-0.380695
C22	C	-4.117929	0.201106	-0.381752
C23	C	-4.200750	-0.161708	-0.158244
C24	C	-4.117925	-0.162757	-0.017873
H25	H	-3.944441	-0.739851	-0.377021
H26	H	-3.872563	-0.577255	-0.378248
C27	C	-3.964918	-0.037135	-0.800507
H28	H	-3.903622	0.031374	-0.731674
H29	H	-3.867535	-0.027959	-0.847122
H30	H	-4.102950	-0.036060	-0.855327
H31	H	-4.107780	-0.368694	-0.788215
H32	H	-4.219496	-0.366798	-1.040942
H33	H	-4.326838	-0.548753	-0.394828
C34	C	-4.499468	-0.822195	-0.394601
H35	H	-4.511845	-0.909243	-0.393046
H36	H	-4.527348	-0.791747	-0.323381
H37	H	-4.603812	-0.814821	-0.471343
H38	H	-4.045474	-0.069072	-0.949382
