data_functionalizedCrystal
_audit_creation_method	'MofGen! by Chris Wilmer'
_symmetry_space_group_name_H-M	'P1'
_symmetry_Int_Tables_number	1
_symmetry_cell_setting	triclinic
loop_
_symmetry_equiv_pos_as_xyz
  x,y,z
_cell_length_a	8.559649
_cell_length_b	9.198806
_cell_length_c	8.559649
_cell_angle_alpha	89.998257
_cell_angle_beta	110.221336
_cell_angle_gamma	90.003582
loop_
_atom_site_label
_atom_site_type_symbol
_atom_site_fract_x
_atom_site_fract_y
_atom_site_fract_z
O1	O	2.126881	0.120870	0.055038
O2	O	1.651396	0.120875	-0.028743
O3	O	1.931029	0.120870	0.250890
O4	O	1.847248	0.120874	-0.224595
O5	O	1.931010	-0.120915	0.250889
O6	O	1.651377	-0.120910	-0.028744
O7	O	2.126861	-0.120915	0.055037
Cu8	Cu	1.889117	-0.142990	0.013147
Cu9	Cu	1.889140	0.142949	0.013147
O10	O	1.847228	-0.120911	-0.224596
C11	C	1.591077	-0.000017	-0.035093
C12	C	1.411378	-0.000014	-0.053992
N13	N	1.889113	-0.344103	0.013149
C14	C	1.971463	-0.416302	-0.068608
C15	C	1.971489	-0.583714	-0.068602
C16	C	2.187180	-0.000020	0.061387
C17	C	2.366879	-0.000013	0.080286
C18	C	1.937369	-0.000019	0.311198
C19	C	1.956268	-0.000012	0.490898
N20	N	1.889159	0.344063	0.013160
C21	C	1.840889	-0.000018	-0.284904
C22	C	1.821990	-0.000016	-0.464604
H23	H	1.466258	-0.000007	0.209705
H24	H	1.818643	-0.593857	0.083149
H25	H	1.311990	-0.000005	-0.183420
C26	C	2.066704	-0.332376	-0.163160
N27	N	2.138446	-0.269165	-0.234377
C28	C	2.066739	-0.667589	-0.163166
N29	N	2.138487	-0.730767	-0.234391
C30	C	1.793886	-0.428029	0.107715
N31	N	1.722156	-0.491240	0.178943
H32	H	1.692570	-0.000019	0.436018
H33	H	2.085696	-0.000025	0.590286
