data_functionalizedCrystal
_audit_creation_method	'MofGen! by Chris Wilmer'
_symmetry_space_group_name_H-M	'P1'
_symmetry_Int_Tables_number	1
_symmetry_cell_setting	triclinic
loop_
_symmetry_equiv_pos_as_xyz
  x,y,z
_cell_length_a	15.297327
_cell_length_b	17.638336
_cell_length_c	17.640968
_cell_angle_alpha	65.689241
_cell_angle_beta	90.290815
_cell_angle_gamma	90.314497
loop_
_atom_site_label
_atom_site_type_symbol
_atom_site_fract_x
_atom_site_fract_y
_atom_site_fract_z
Zn1	Zn	-0.478099	1.293800	-0.780568
Zn2	Zn	-0.644614	1.244820	-0.663731
Zn3	Zn	-0.478054	1.128125	-0.614947
Zn4	Zn	-0.596582	1.140991	-0.767635
O5	O	-0.549337	1.201934	-0.706720
O6	O	-0.520308	1.400091	-0.790897
O7	O	-0.642603	1.203457	-0.544462
O8	O	-0.358769	1.165216	-0.621913
O9	O	-0.642646	1.364105	-0.705058
O10	O	-0.358802	1.286937	-0.743594
O11	O	-0.520232	1.117721	-0.508621
O12	O	-0.473657	1.017043	-0.609373
O13	O	-0.560782	1.187145	-0.882148
O14	O	-0.560738	1.026496	-0.721553
O15	O	-0.473733	1.299413	-0.891649
O16	O	-0.757534	1.215933	-0.692518
O17	O	-0.722244	1.139650	-0.768856
C18	C	-0.511981	0.992525	-0.658766
C19	C	-0.496017	0.902941	-0.638273
C20	C	-0.428080	0.771760	-0.551053
C21	C	-0.443086	0.855938	-0.570316
C22	C	-0.533968	0.865775	-0.686992
C23	C	-0.518973	0.781594	-0.667736
C24	C	-0.466028	0.734593	-0.599766
C25	C	-0.556921	0.744428	-0.716449
C26	C	-0.541923	0.660256	-0.697197
C27	C	-0.488978	0.613250	-0.629232
C28	C	-0.451030	0.650421	-0.580514
C29	C	-0.609861	0.791432	-0.784423
C30	C	-0.647808	0.754266	-0.833136
C31	C	-0.632816	0.670091	-0.813881
C32	C	-0.579871	0.623085	-0.745915
C33	C	-0.670764	0.632920	-0.862599
C34	C	-0.655767	0.548748	-0.843347
C35	C	-0.564874	0.538913	-0.726663
C36	C	-0.770821	1.173899	-0.734600
C37	C	-0.865581	1.161985	-0.746571
C38	C	-1.206067	1.287478	-0.621514
C39	C	-1.117036	1.298670	-0.610262
C40	C	-1.054168	1.264500	-0.644338
C41	C	-1.080339	1.219135	-0.689668
C42	C	-1.169379	1.207937	-0.700915
C43	C	-1.017480	1.184959	-0.723740
C44	C	-1.043651	1.139594	-0.769069
C45	C	-1.132682	1.128398	-0.780314
C46	C	-1.195551	1.162568	-0.746238
C47	C	-0.928440	1.196158	-0.712493
C48	C	-0.891752	1.116616	-0.791894
C49	C	-0.980783	1.105424	-0.803145
C50	C	-0.326990	1.230104	-0.678754
C51	C	-0.232239	1.242109	-0.666837
C52	C	-0.511905	1.250177	-0.916963
C53	C	-0.495953	1.270736	-1.006557
C54	C	-0.586840	1.412160	-0.754862
C55	C	-0.602822	1.501747	-0.775377
C56	C	-0.670111	1.046121	-1.276491
C57	C	-0.655114	1.065457	-1.360680
C58	C	-0.564478	1.182352	-1.370562
C59	C	-0.579464	1.163023	-1.286372
C60	C	-0.632282	1.094907	-1.239343
C61	C	-0.541635	1.211809	-1.249223
C62	C	-0.556623	1.192484	-1.165041
C63	C	-0.609441	1.124373	-1.118007
C64	C	-0.647270	1.075582	-1.155160
C65	C	-0.488822	1.279928	-1.296255
C66	C	-0.450993	1.328714	-1.259107
C67	C	-0.465976	1.309386	-1.174921
C68	C	-0.518794	1.241275	-1.127887
C69	C	-0.428147	1.358177	-1.137768
C70	C	-0.443135	1.338852	-1.053586
C71	C	-0.533782	1.221950	-1.043705
C72	C	-0.586571	1.153932	-0.497298
C73	C	-0.602310	1.133560	-0.407710
H74	H	-0.907140	1.233093	-0.675585
O75	O	-0.695907	1.012828	-1.400749
H76	H	-0.768154	1.014458	-1.396170
H77	H	-0.621647	1.108642	-1.049462
O78	O	-0.704234	1.002111	-1.104423
H79	H	-0.728025	0.971430	-1.144396
O80	O	-0.507484	1.255798	-1.421279
H81	H	-0.503403	1.261032	-1.486054
O82	O	-1.009012	1.056481	-0.852020
H83	H	-1.081485	1.054429	-0.854105
O84	O	-0.958139	1.276557	-0.632200
H85	H	-0.926687	1.309703	-0.693756
H86	H	-0.690914	0.792546	-0.888479
O87	O	-0.823945	1.079757	-0.828643
H88	H	-0.832281	1.011168	-0.802439
H89	H	-0.407992	1.384176	-1.297410
H90	H	-0.385150	1.413641	-1.176073
O91	O	-0.402333	1.391464	-1.013507
H92	H	-0.363079	1.442069	-1.060349
O93	O	-0.393955	0.599699	-0.507185
H94	H	-0.337380	0.575109	-0.529091
O95	O	-0.370976	0.721054	-0.477741
H96	H	-0.347103	0.761037	-0.447099
H97	H	-0.521761	0.500642	-0.671315
H98	H	-0.412171	0.886198	-0.530649
O99	O	-0.472813	0.522462	-0.608468
H100	H	-0.401672	0.512153	-0.611698
O101	O	-0.591050	0.916475	-0.760316
H102	H	-0.595100	0.981252	-0.765524
O103	O	-0.626051	0.882217	-0.805188
H104	H	-0.562821	0.916310	-0.818556
H105	H	-0.713865	0.671202	-0.917945
H106	H	-0.476623	1.295662	-1.364802
H107	H	-0.686665	0.518487	-0.883016
H108	H	-1.095731	1.335604	-0.573354
H109	H	-1.257261	1.315288	-0.593767
O110	O	-1.291579	1.150484	-0.758366
H111	H	-1.330894	1.181863	-0.727051
H112	H	-1.153987	1.091448	-0.817213
O113	O	-0.590747	1.148477	-0.992975
H114	H	-0.552098	1.103503	-0.940440
H115	H	-0.713097	0.990637	-1.238190
