data_functionalizedCrystal
_audit_creation_method	'MofGen! by Chris Wilmer'
_symmetry_space_group_name_H-M	'P1'
_symmetry_Int_Tables_number	1
_symmetry_cell_setting	triclinic
loop_
_symmetry_equiv_pos_as_xyz
  x,y,z
_cell_length_a	19.288840
_cell_length_b	16.974813
_cell_length_c	18.366186
_cell_angle_alpha	86.339196
_cell_angle_beta	89.983729
_cell_angle_gamma	83.260449
loop_
_atom_site_label
_atom_site_type_symbol
_atom_site_fract_x
_atom_site_fract_y
_atom_site_fract_z
O1	O	0.921541	0.098544	-0.066477
O2	O	1.254874	0.431877	0.266857
O3	O	1.588208	0.765211	0.600190
O4	O	0.719302	0.111871	-0.067237
O5	O	1.052635	0.445204	0.266097
O6	O	1.385969	0.778537	0.599430
O7	O	0.826059	-0.009917	-0.060070
O8	O	1.159392	0.323416	0.273263
O9	O	1.492726	0.656750	0.606596
O10	O	0.814784	0.220332	-0.073643
O11	O	1.148118	0.553665	0.259690
O12	O	1.481451	0.886998	0.593024
O13	O	0.826041	-0.009923	0.061029
O14	O	1.159374	0.323410	0.394363
O15	O	1.492707	0.656744	0.727696
O16	O	0.719284	0.111865	0.053863
O17	O	1.052617	0.445198	0.387196
O18	O	1.385951	0.778531	0.720530
O19	O	0.921523	0.098538	0.054623
O20	O	1.254856	0.431871	0.387956
O21	O	1.588190	0.765205	0.721290
Zn22	Zn	0.820401	0.105200	0.073470
Zn23	Zn	1.153734	0.438534	0.406804
Zn24	Zn	1.487067	0.771867	0.740137
Zn25	Zn	0.820424	0.105208	-0.086084
Zn26	Zn	1.153758	0.438542	0.247249
Zn27	Zn	1.487091	0.771875	0.580583
O28	O	0.814766	0.220326	0.047457
O29	O	1.148099	0.553659	0.380790
O30	O	1.481433	0.886992	0.714123
C31	C	0.693415	0.111442	-0.006658
C32	C	1.026749	0.444776	0.326675
C33	C	1.360082	0.778109	0.660008
C34	C	0.616309	0.110165	-0.006573
C35	C	0.949642	0.443498	0.326760
C36	C	1.282975	0.776832	0.660093
C37	C	0.580114	0.109555	-0.072551
C38	C	0.913447	0.442888	0.260783
C39	C	1.246781	0.776221	0.594116
C40	C	0.507665	0.108346	-0.072488
C41	C	0.840998	0.441679	0.260845
C42	C	1.174331	0.775012	0.594178
C43	C	0.471415	0.107731	-0.006444
C44	C	0.804748	0.441064	0.326889
C45	C	1.138082	0.774398	0.660223
C46	C	0.507618	0.108346	0.059542
C47	C	0.840951	0.441679	0.392875
C48	C	1.174285	0.775013	0.726208
C49	C	0.580065	0.109563	0.059477
C50	C	0.913398	0.442896	0.392810
C51	C	1.246731	0.776230	0.726144
C52	C	0.361993	0.059487	0.046961
C53	C	0.695326	0.392820	0.380294
C54	C	1.028660	0.726154	0.713628
C55	C	0.289548	0.058265	0.047023
C56	C	0.622881	0.391598	0.380357
C57	C	0.956215	0.724932	0.713690
C58	C	0.247965	0.103981	-0.006242
C59	C	0.581298	0.437314	0.327091
C60	C	0.914631	0.770648	0.660425
C61	C	0.278836	0.150909	-0.059581
C62	C	0.612169	0.484242	0.273752
C63	C	0.945503	0.817575	0.607086
C64	C	0.351283	0.152126	-0.059646
C65	C	0.684616	0.485459	0.273687
C66	C	1.017950	0.818792	0.607021
C67	C	0.392859	0.106412	-0.006367
C68	C	0.726192	0.439745	0.326967
C69	C	1.059525	0.773079	0.660300
C70	C	0.133212	0.102061	-0.072156
C71	C	0.466546	0.435394	0.261177
C72	C	0.799879	0.768728	0.594511
C73	C	0.060761	0.100857	-0.072091
C74	C	0.394095	0.434190	0.261242
C75	C	0.727428	0.767524	0.594575
C76	C	0.060717	0.100849	0.059941
C77	C	0.394050	0.434183	0.393274
C78	C	0.727383	0.767516	0.726608
C79	C	0.133165	0.102061	0.059874
C80	C	0.466499	0.435395	0.393207
C81	C	0.799832	0.768728	0.726540
C82	C	0.169409	0.102663	-0.006177
C83	C	0.502743	0.435997	0.327157
C84	C	0.836076	0.769330	0.660490
C85	C	0.825621	-0.039377	0.002215
C86	C	1.158954	0.293956	0.335548
C87	C	1.492287	0.627290	0.668881
C88	C	0.824334	-0.127149	0.007385
C89	C	1.157667	0.206184	0.340718
C90	C	1.491000	0.539518	0.674051
C91	C	0.823741	-0.168377	-0.056197
C92	C	1.157074	0.164956	0.277136
C93	C	1.490407	0.498290	0.610469
C94	C	0.822527	-0.250848	-0.051337
C95	C	1.155860	0.082486	0.281996
C96	C	1.489194	0.415819	0.615329
C97	C	0.821911	-0.292090	0.017105
C98	C	1.155245	0.041244	0.350439
C99	C	1.488578	0.374577	0.683772
C100	C	0.822503	-0.250856	0.080692
C101	C	1.155836	0.082478	0.414026
C102	C	1.489169	0.415811	0.747359
C103	C	0.823711	-0.168386	0.075832
C104	C	1.157045	0.164947	0.409165
C105	C	1.490378	0.498281	0.742498
C106	C	0.818291	-0.538738	0.038721
C107	C	1.151624	-0.205405	0.372055
C108	C	1.484958	0.127928	0.705388
C109	C	0.817084	-0.621214	0.043577
C110	C	1.150418	-0.287881	0.376911
C111	C	1.483751	0.045452	0.710244
C112	C	0.817107	-0.621200	-0.088453
C113	C	1.150441	-0.287867	0.244881
C114	C	1.483774	0.045466	0.578214
C115	C	0.818320	-0.538730	-0.093308
C116	C	1.151654	-0.205396	0.240026
C117	C	1.484987	0.127937	0.573359
C118	C	0.818908	-0.497502	-0.029721
C119	C	1.152241	-0.164169	0.303613
C120	C	1.485574	0.169164	0.636946
N121	N	0.820673	-0.376388	0.022075
N122	N	1.154006	-0.043055	0.355408
N123	N	1.487340	0.290278	0.688742
N124	N	0.820141	-0.413204	-0.034691
N125	N	1.153474	-0.079871	0.298642
N126	N	1.486808	0.253462	0.631976
C127	C	0.947410	0.098966	-0.005957
C128	C	1.280743	0.432300	0.327377
C129	C	1.614076	0.765633	0.660710
C130	C	1.024516	0.100244	-0.006047
C131	C	1.357850	0.433577	0.327287
C132	C	1.691183	0.766910	0.660620
C133	C	0.815204	0.249785	-0.014830
C134	C	1.148538	0.583119	0.318504
C135	C	1.481871	0.916452	0.651837
C136	C	0.816491	0.337558	-0.020005
C137	C	1.149824	0.670891	0.313329
C138	C	1.483158	1.004224	0.646662
N139	N	0.820389	0.105195	0.182362
N140	N	1.153723	0.438528	0.515695
N141	N	1.487056	0.771861	0.849028
N142	N	0.820441	0.105208	-0.194975
N143	N	1.153775	0.438541	0.138358
N144	N	1.487108	0.771874	0.471692
C145	C	0.867677	0.051293	0.223634
C146	C	1.201010	0.384627	0.556967
C147	C	1.534343	0.717960	0.890300
C148	C	0.867681	0.051290	0.299862
C149	C	1.201014	0.384623	0.633195
C150	C	1.534348	0.717956	0.966529
C151	C	0.820405	0.105201	0.334814
C152	C	1.153738	0.438534	0.668147
C153	C	1.487071	0.771868	1.001481
C154	C	0.773108	0.159106	0.293533
C155	C	1.106442	0.492440	0.626866
C156	C	1.439775	0.825773	0.960199
C157	C	0.773101	0.159103	0.217306
C158	C	1.106434	0.492436	0.550640
C159	C	1.439767	0.825770	0.883973
C160	C	0.811236	0.177247	0.451328
C161	C	1.144569	0.510580	0.784662
C162	C	1.477903	0.843914	1.117995
C163	C	0.811249	0.177251	0.527553
C164	C	1.144582	0.510585	0.860886
C165	C	1.477915	0.843918	1.194220
C166	C	0.820424	0.105211	0.569921
C167	C	1.153758	0.438544	0.903254
C168	C	1.487091	0.771878	1.236588
C169	C	0.829603	0.033163	0.536055
C170	C	1.162936	0.366497	0.869389
C171	C	1.496269	0.699830	1.202722
C172	C	0.829595	0.033160	0.459829
C173	C	1.162928	0.366493	0.793162
C174	C	1.496262	0.699827	1.126496
C175	C	0.820408	0.105210	0.417468
C176	C	1.153741	0.438544	0.750802
C177	C	1.487074	0.771877	1.084135
C178	C	0.867719	0.051301	0.693849
C179	C	1.201053	0.384635	1.027182
C180	C	1.534386	0.717968	1.360515
C181	C	0.867719	0.051297	0.770078
C182	C	1.201052	0.384630	1.103411
C183	C	1.534386	0.717964	1.436745
C184	C	0.773149	0.159120	0.763747
C185	C	1.106483	0.492454	1.097080
C186	C	1.439816	0.825787	1.430414
C187	C	0.773147	0.159118	0.687519
C188	C	1.106480	0.492451	1.020853
C189	C	1.439813	0.825785	1.354186
C190	C	0.820435	0.105209	0.652575
C191	C	1.153768	0.438543	0.985908
C192	C	1.487102	0.771876	1.319241
H193	H	0.244980	0.188138	-0.102953
H194	H	0.578313	0.521472	0.230381
H195	H	0.911646	0.854805	0.563714
Cl196	Cl	0.841144	-0.057408	0.589310
Cl197	Cl	1.174477	0.275925	0.922643
Cl198	Cl	1.507811	0.609258	1.255976
Cl199	Cl	0.250743	-0.000710	0.114091
Cl200	Cl	0.584077	0.332624	0.447424
Cl201	Cl	0.917410	0.665957	0.780757
Cl202	Cl	0.821783	-0.302674	-0.131273
Cl203	Cl	1.155116	0.030660	0.202060
Cl204	Cl	1.488449	0.363993	0.535393
H205	H	0.818822	-0.505156	-0.149041
H206	H	1.152156	-0.171823	0.184292
H207	H	1.485489	0.161511	0.517626
H208	H	0.609534	0.110061	0.113205
H209	H	0.942867	0.443394	0.446538
H210	H	1.276201	0.776727	0.779872
Cl211	Cl	0.390090	0.211121	-0.126694
Cl212	Cl	0.723424	0.544455	0.206639
Cl213	Cl	1.056757	0.877788	0.539972
H214	H	0.803752	0.235915	0.416838
H215	H	1.137085	0.569248	0.750171
H216	H	1.470419	0.902581	1.083504
H217	H	0.478189	0.107850	-0.126216
H218	H	0.811522	0.441183	0.207117
H219	H	1.144856	0.774516	0.540450
Cl220	Cl	0.816368	-0.673033	-0.168385
Cl221	Cl	1.149701	-0.339700	0.164948
Cl222	Cl	1.483034	-0.006367	0.498282
Cl223	Cl	0.625673	0.110315	-0.155585
Cl224	Cl	0.959007	0.443649	0.177748
Cl225	Cl	1.292340	0.776982	0.511081
Cl226	Cl	0.927164	-0.016473	0.649917
Cl227	Cl	1.260497	0.316860	0.983250
Cl228	Cl	1.593830	0.650194	1.316584
H229	H	0.816579	-0.654791	0.099315
H230	H	1.149913	-0.321458	0.432648
H231	H	1.483246	0.011876	0.765981
Cl232	Cl	0.821720	-0.302702	0.166735
Cl233	Cl	1.155054	0.030631	0.500069
Cl234	Cl	1.488387	0.363965	0.833402
H235	H	0.824246	-0.134804	-0.111931
H236	H	1.157579	0.198529	0.221402
H237	H	1.490912	0.531862	0.554736
Cl238	Cl	0.927167	-0.016475	0.821966
Cl239	Cl	1.260500	0.316858	1.155300
Cl240	Cl	1.593833	0.650192	1.488633
H241	H	0.395845	0.022257	0.090340
H242	H	0.729178	0.355591	0.423673
H243	H	1.062512	0.688924	0.757006
H244	H	0.734614	0.203001	0.321995
H245	H	1.067947	0.536334	0.655328
H246	H	1.401281	0.869667	0.988661
Cl247	Cl	0.841124	-0.057410	0.417257
Cl248	Cl	1.174458	0.275924	0.750591
Cl249	Cl	1.507791	0.609257	1.083924
H250	H	0.734593	0.202997	0.183702
H251	H	1.067926	0.536330	0.517035
H252	H	1.401259	0.869663	0.850368
Cl253	Cl	0.819018	-0.486919	0.118660
Cl254	Cl	1.152352	-0.153586	0.451993
Cl255	Cl	1.485685	0.179748	0.785327
H256	H	0.162723	0.102560	-0.125939
H257	H	0.496056	0.435893	0.207395
H258	H	0.829389	0.769226	0.540728
Cl259	Cl	0.824456	-0.116556	0.155767
Cl260	Cl	1.157789	0.216777	0.489100
Cl261	Cl	1.491123	0.550111	0.822434
H262	H	0.478099	0.107848	0.113315
H263	H	0.811432	0.441181	0.446648
H264	H	1.144765	0.774514	0.779982
Cl265	Cl	0.927120	-0.016480	0.179704
Cl266	Cl	1.260454	0.316854	0.513037
Cl267	Cl	1.593787	0.650187	0.846371
Cl268	Cl	0.927134	-0.016477	0.351755
Cl269	Cl	1.260468	0.316856	0.685088
Cl270	Cl	1.593801	0.650189	1.018422
H271	H	0.031292	0.100365	-0.125820
H272	H	0.364625	0.433698	0.207513
H273	H	0.697959	0.767031	0.540846
Cl274	Cl	0.713711	0.226889	0.807682
Cl275	Cl	1.047044	0.560222	1.141015
Cl276	Cl	1.380378	0.893555	1.474349
H277	H	0.734643	0.203013	0.653913
H278	H	1.067977	0.536346	0.987246
H279	H	1.401310	0.869679	1.320580
Cl280	Cl	0.799716	0.267824	0.570119
Cl281	Cl	1.133049	0.601157	0.903453
Cl282	Cl	1.466382	0.934491	1.236786
H283	H	0.031202	0.100354	0.113715
H284	H	0.364536	0.433687	0.447048
H285	H	0.697869	0.767021	0.780382
H286	H	0.162636	0.102553	0.113600
H287	H	0.495970	0.435887	0.446933
H288	H	0.829303	0.769220	0.780266
