data_functionalizedCrystal
_audit_creation_method	'MofGen! by Chris Wilmer'
_symmetry_space_group_name_H-M	'P1'
_symmetry_Int_Tables_number	1
_symmetry_cell_setting	triclinic
loop_
_symmetry_equiv_pos_as_xyz
  x,y,z
_cell_length_a	27.732064
_cell_length_b	27.732048
_cell_length_c	9.198806
_cell_angle_alpha	89.991879
_cell_angle_beta	90.003704
_cell_angle_gamma	82.646040
loop_
_atom_site_label
_atom_site_type_symbol
_atom_site_fract_x
_atom_site_fract_y
_atom_site_fract_z
O1	O	0.640922	0.057554	-0.120649
O2	O	0.974255	0.390887	0.212685
O3	O	1.307588	0.724221	0.546018
O4	O	0.500129	0.066291	-0.120711
O5	O	0.833463	0.399625	0.212623
O6	O	1.166796	0.732958	0.545956
O7	O	0.574898	-0.008474	-0.120650
O8	O	0.908231	0.324860	0.212683
O9	O	1.241565	0.658193	0.546017
O10	O	0.566153	0.132319	-0.120709
O11	O	0.899486	0.465652	0.212624
O12	O	1.232819	0.798986	0.545958
O13	O	0.574892	-0.008474	0.121135
O14	O	0.908226	0.324859	0.454468
O15	O	1.241559	0.658193	0.787802
O16	O	0.500123	0.066291	0.121074
O17	O	0.833457	0.399624	0.454408
O18	O	1.166790	0.732958	0.787741
O19	O	0.640916	0.057554	0.121136
O20	O	0.974249	0.390887	0.454470
O21	O	1.307582	0.724221	0.787803
Cu22	Cu	0.570519	0.061923	0.143182
Cu23	Cu	0.903852	0.395256	0.476516
Cu24	Cu	1.237186	0.728589	0.809849
Cu25	Cu	0.570526	0.061923	-0.142756
Cu26	Cu	0.903859	0.395256	0.190577
Cu27	Cu	1.237193	0.728589	0.523910
O28	O	0.566147	0.132319	0.121076
O29	O	0.899480	0.465652	0.454409
O30	O	1.232814	0.798986	0.787743
C31	C	0.482120	0.066106	0.000174
C32	C	0.815453	0.399440	0.333508
C33	C	1.148786	0.732773	0.666841
C34	C	0.428465	0.065551	0.000152
C35	C	0.761799	0.398884	0.333485
C36	C	1.095132	0.732217	0.666819
C37	C	0.051392	0.017583	0.000255
C38	C	0.384726	0.350917	0.333588
C39	C	0.718059	0.684250	0.666922
C40	C	0.253053	0.019630	0.000216
C41	C	0.586386	0.352963	0.333550
C42	C	0.919719	0.686296	0.666883
O43	O	0.284305	-0.017591	0.000286
O44	O	0.617639	0.315742	0.333620
O45	O	0.950972	0.649075	0.666953
N46	N	0.272180	0.063964	0.000191
N47	N	0.605513	0.397297	0.333524
N48	N	0.938847	0.730631	0.666858
C49	C	0.240889	0.107790	0.000185
C50	C	0.574222	0.441123	0.333519
C51	C	0.907556	0.774456	0.666852
O52	O	0.261785	0.145546	0.000178
O53	O	0.595119	0.478879	0.333511
O54	O	0.928452	0.812212	0.666845
C55	C	0.039230	0.105743	0.000234
C56	C	0.372563	0.439076	0.333568
C57	C	0.705896	0.772410	0.666901
C58	C	0.020105	0.061406	0.000245
C59	C	0.353439	0.394739	0.333578
C60	C	0.686772	0.728072	0.666911
C61	C	0.032267	-0.026750	0.000267
C62	C	0.365601	0.306583	0.333600
C63	C	0.698934	0.639916	0.666934
C64	C	-0.018145	-0.027261	0.000269
C65	C	0.315189	0.306072	0.333602
C66	C	0.648522	0.639405	0.666935
C67	C	-0.049432	0.016561	0.000258
C68	C	0.283902	0.349895	0.333592
C69	C	0.617235	0.683228	0.666925
C70	C	-0.030307	0.060895	0.000246
C71	C	0.303027	0.394228	0.333580
C72	C	0.636360	0.727561	0.666913
C73	C	0.007940	0.149568	0.000239
C74	C	0.341273	0.482902	0.333572
C75	C	0.674606	0.816235	0.666906
C76	C	-0.042478	0.149053	0.000255
C77	C	0.290856	0.482386	0.333588
C78	C	0.624189	0.815719	0.666921
C79	C	-0.061602	0.104716	0.000265
C80	C	0.271731	0.438049	0.333599
C81	C	0.605064	0.771382	0.666932
C82	C	-0.112006	0.104206	0.000238
C83	C	0.221327	0.437539	0.333571
C84	C	0.554661	0.770873	0.666905
N85	N	-0.131134	0.059872	0.000263
N86	N	0.202200	0.393205	0.333596
N87	N	0.535533	0.726539	0.666930
C88	C	-0.099846	0.016049	0.000273
C89	C	0.233487	0.349383	0.333607
C90	C	0.566820	0.682716	0.666940
C91	C	0.346763	0.108861	0.000157
C92	C	0.680097	0.442194	0.333490
C93	C	1.013430	0.775528	0.666823
C94	C	0.397178	0.109373	0.000142
C95	C	0.730511	0.442706	0.333475
C96	C	1.063845	0.776040	0.666808
C97	C	0.409338	0.021213	0.000175
C98	C	0.742672	0.354546	0.333509
C99	C	1.076005	0.687879	0.666842
C100	C	0.358923	0.020701	0.000180
C101	C	0.692256	0.354035	0.333513
C102	C	1.025589	0.687368	0.666847
C103	C	0.327636	0.064527	0.000182
C104	C	0.660969	0.397860	0.333515
C105	C	0.994303	0.731194	0.666848
C106	C	-0.205716	0.014979	0.000276
C107	C	0.127617	0.348313	0.333609
C108	C	0.460951	0.681646	0.666942
C109	C	-0.256133	0.014472	0.000271
C110	C	0.077200	0.347806	0.333605
C111	C	0.410534	0.681139	0.666938
C112	C	-0.268289	0.102632	0.000245
C113	C	0.065045	0.435966	0.333579
C114	C	0.398378	0.769299	0.666912
C115	C	-0.217876	0.103140	0.000242
C116	C	0.115457	0.436473	0.333575
C117	C	0.448791	0.769806	0.666909
C118	C	-0.186590	0.059309	0.000262
C119	C	0.146743	0.392643	0.333595
C120	C	0.480076	0.725976	0.666929
O121	O	-0.143287	0.141407	0.000184
O122	O	0.190046	0.474741	0.333518
O123	O	0.523380	0.808074	0.666851
O124	O	-0.120752	-0.021701	0.000313
O125	O	0.212581	0.311632	0.333646
O126	O	0.545915	0.644966	0.666980
C127	C	0.101805	0.018094	0.000253
C128	C	0.435138	0.351428	0.333587
C129	C	0.768471	0.684761	0.666920
C130	C	0.120930	0.062428	0.000241
C131	C	0.454263	0.395761	0.333575
C132	C	0.787596	0.729095	0.666908
C133	C	0.089642	0.106250	0.000231
C134	C	0.422976	0.439584	0.333564
C135	C	0.756309	0.772917	0.666898
C136	C	0.171344	0.062940	0.000226
C137	C	0.504677	0.396273	0.333560
C138	C	0.838011	0.729606	0.666893
C139	C	0.202631	0.019117	0.000237
C140	C	0.535965	0.352451	0.333570
C141	C	0.869298	0.685784	0.666903
C142	C	0.183504	-0.025217	0.000262
C143	C	0.516837	0.308116	0.333595
C144	C	0.850170	0.641450	0.666928
C145	C	0.133092	-0.025728	0.000263
C146	C	0.466425	0.307605	0.333597
C147	C	0.799758	0.640939	0.666930
C148	C	0.108770	0.150585	0.000206
C149	C	0.442103	0.483918	0.333539
C150	C	0.775437	0.817251	0.666872
C151	C	0.159183	0.151092	0.000202
C152	C	0.492516	0.484426	0.333536
C153	C	0.825849	0.817759	0.666869
C154	C	0.190470	0.107270	0.000213
C155	C	0.523803	0.440603	0.333546
C156	C	0.857136	0.773936	0.666879
C157	C	0.574712	-0.026481	0.000246
C158	C	0.908045	0.306853	0.333580
C159	C	1.241378	0.640186	0.666913
C160	C	0.574159	-0.080136	0.000258
C161	C	0.907492	0.253198	0.333592
C162	C	1.240826	0.586531	0.666925
C163	C	0.614862	-0.418948	0.000201
C164	C	0.948196	-0.085615	0.333535
C165	C	1.281529	0.247718	0.666868
C166	C	0.612811	-0.620608	0.000180
C167	C	0.946145	-0.287275	0.333514
C168	C	1.279478	0.046059	0.666847
O169	O	0.650032	-0.651862	0.000133
O170	O	0.983365	-0.318528	0.333466
O171	O	1.316698	0.014805	0.666800
N172	N	0.568476	-0.639735	0.000162
N173	N	0.901810	-0.306401	0.333496
N174	N	1.235143	0.026932	0.666829
C175	C	0.524651	-0.608442	0.000140
C176	C	0.857985	-0.275109	0.333473
C177	C	1.191318	0.058224	0.666806
O178	O	0.486895	-0.629338	0.000109
O179	O	0.820228	-0.296004	0.333442
O180	O	1.153561	0.037329	0.666776
C181	C	0.526703	-0.406784	0.000151
C182	C	0.860036	-0.073450	0.333484
C183	C	1.193369	0.259883	0.666817
C184	C	0.571040	-0.387660	0.000183
C185	C	0.904374	-0.054327	0.333517
C186	C	1.237707	0.279006	0.666850
C187	C	0.659196	-0.399824	0.000233
C188	C	0.992530	-0.066491	0.333566
C189	C	1.325863	0.266842	0.666899
C190	C	0.659709	-0.349412	0.000246
C191	C	0.993042	-0.016079	0.333579
C192	C	1.326375	0.317254	0.666913
C193	C	0.615887	-0.318124	0.000228
C194	C	0.949220	0.015209	0.333561
C195	C	1.282554	0.348542	0.666895
C196	C	0.571553	-0.337248	0.000197
C197	C	0.904886	-0.003915	0.333530
C198	C	1.238219	0.329418	0.666863
C199	C	0.482878	-0.375493	0.000118
C200	C	0.816211	-0.042159	0.333451
C201	C	1.149545	0.291174	0.666784
C202	C	0.483395	-0.325075	0.000117
C203	C	0.816728	0.008258	0.333450
C204	C	1.150062	0.341591	0.666783
C205	C	0.527733	-0.305952	0.000150
C206	C	0.861066	0.027381	0.333483
C207	C	1.194399	0.360715	0.666816
C208	C	0.528243	-0.255548	0.000192
C209	C	0.861576	0.077785	0.333525
C210	C	1.194910	0.411118	0.666858
N211	N	0.572578	-0.236422	0.000210
N212	N	0.905911	0.096911	0.333543
N213	N	1.239245	0.430245	0.666877
C214	C	0.616400	-0.267710	0.000228
C215	C	0.949733	0.065623	0.333561
C216	C	1.283067	0.398957	0.666895
C217	C	0.523577	-0.714317	0.000137
C218	C	0.856911	-0.380983	0.333470
C219	C	1.190244	-0.047650	0.666804
C220	C	0.523064	-0.764731	0.000137
C221	C	0.856398	-0.431398	0.333470
C222	C	1.189731	-0.098064	0.666804
C223	C	0.611225	-0.776893	0.000175
C224	C	0.944558	-0.443560	0.333508
C225	C	1.277891	-0.110227	0.666841
C226	C	0.611737	-0.726478	0.000185
C227	C	0.945070	-0.393145	0.333519
C228	C	1.278404	-0.059811	0.666852
C229	C	0.567912	-0.695190	0.000155
C230	C	0.901245	-0.361857	0.333488
C231	C	1.234579	-0.028524	0.666822
C232	C	0.617472	-0.161841	0.000257
C233	C	0.950806	0.171493	0.333590
C234	C	1.284139	0.504826	0.666924
C235	C	0.617981	-0.111424	0.000276
C236	C	0.951314	0.221910	0.333610
C237	C	1.284647	0.555243	0.666943
C238	C	0.529821	-0.099266	0.000231
C239	C	0.863154	0.234067	0.333564
C240	C	1.196487	0.567401	0.666897
C241	C	0.529312	-0.149679	0.000219
C242	C	0.862645	0.183655	0.333553
C243	C	1.195979	0.516988	0.666886
C244	C	0.573142	-0.180965	0.000227
C245	C	0.906475	0.152368	0.333561
C246	C	1.239808	0.485701	0.666894
O247	O	0.491043	-0.224267	0.000223
O248	O	0.824376	0.109067	0.333556
O249	O	1.157709	0.442400	0.666889
O250	O	0.654151	-0.246805	0.000227
O251	O	0.987484	0.086528	0.333560
O252	O	1.320818	0.419861	0.666893
C253	C	0.614350	-0.469360	0.000188
C254	C	0.947683	-0.136027	0.333522
C255	C	1.281017	0.197306	0.666855
C256	C	0.570016	-0.488484	0.000157
C257	C	0.903349	-0.155151	0.333490
C258	C	1.236683	0.178182	0.666824
C259	C	0.526194	-0.457196	0.000139
C260	C	0.859527	-0.123863	0.333472
C261	C	1.192861	0.209470	0.666806
C262	C	0.569503	-0.538899	0.000157
C263	C	0.902836	-0.205565	0.333490
C264	C	1.236170	0.127768	0.666824
C265	C	0.613325	-0.570187	0.000175
C266	C	0.946658	-0.236853	0.333508
C267	C	1.279991	0.096480	0.666842
C268	C	0.657660	-0.551060	0.000193
C269	C	0.990993	-0.217727	0.333526
C270	C	1.324326	0.115606	0.666860
C271	C	0.658172	-0.500648	0.000206
C272	C	0.991505	-0.167315	0.333540
C273	C	1.324839	0.166018	0.666873
C274	C	0.481859	-0.476323	0.000121
C275	C	0.815193	-0.142989	0.333454
C276	C	1.148526	0.190344	0.666787
C277	C	0.481351	-0.526735	0.000109
C278	C	0.814684	-0.193402	0.333443
C279	C	1.148017	0.139932	0.666776
C280	C	0.525172	-0.558023	0.000127
C281	C	0.858506	-0.224690	0.333461
C282	C	1.191839	0.108643	0.666794
C283	C	0.658925	0.057739	0.000248
C284	C	0.992259	0.391072	0.333582
C285	C	1.325592	0.724405	0.666915
C286	C	0.712580	0.058295	0.000261
C287	C	1.045913	0.391628	0.333595
C288	C	1.379247	0.724961	0.666928
C289	C	0.566333	0.150326	0.000176
C290	C	0.899667	0.483659	0.333510
C291	C	1.233000	0.816993	0.666843
C292	C	0.566886	0.203981	0.000155
C293	C	0.900219	0.537314	0.333488
C294	C	1.233553	0.870648	0.666822
N295	N	0.570518	0.061922	0.344296
N296	N	0.903851	0.395255	0.677630
N297	N	1.237184	0.728589	1.010963
N298	N	0.570531	0.061919	-0.343870
N299	N	0.903865	0.395253	-0.010537
N300	N	1.237198	0.728586	0.322796
C301	C	0.601913	0.030394	0.416519
C302	C	0.935246	0.363727	0.749852
C303	C	1.268580	0.697061	1.083185
C304	C	0.601921	0.030392	0.583931
C305	C	0.935254	0.363726	0.917264
C306	C	1.268587	0.697059	1.250598
H307	H	-0.033711	-0.063365	0.000283
H308	H	0.299623	0.269968	0.333617
H309	H	0.632956	0.603302	0.666950
Cl310	Cl	0.448680	-0.033878	0.000188
Cl311	Cl	0.782013	0.299455	0.333521
Cl312	Cl	1.115346	0.632789	0.666854
Cl313	Cl	0.667478	-0.702443	0.000225
Cl314	Cl	1.000811	-0.369109	0.333558
Cl315	Cl	1.334144	-0.035776	0.666891
Cl316	Cl	0.421214	0.165113	0.000099
Cl317	Cl	0.754547	0.498447	0.333432
Cl318	Cl	1.087880	0.831780	0.666765
Cl319	Cl	0.666315	-0.816236	0.000190
Cl320	Cl	0.999648	-0.482903	0.333524
Cl321	Cl	1.332981	-0.149569	0.666857
H322	H	0.628785	0.003401	0.354415
H323	H	0.962118	0.336734	0.687748
H324	H	1.295452	0.670068	1.021081
Cl325	Cl	0.529031	0.103599	0.560255
Cl326	Cl	0.862365	0.436933	0.893588
Cl327	Cl	1.195698	0.770266	1.226921
Cl328	Cl	0.071592	-0.081849	0.000281
Cl329	Cl	0.404925	0.251484	0.333614
Cl330	Cl	0.738258	0.584817	0.666948
Cl331	Cl	0.334886	-0.035039	0.000201
Cl332	Cl	0.668219	0.298295	0.333534
Cl333	Cl	1.001553	0.631628	0.666867
Cl334	Cl	0.529023	0.103594	0.440174
Cl335	Cl	0.862356	0.436927	0.773507
Cl336	Cl	1.195689	0.770260	1.106840
H337	H	0.321293	0.144551	0.000156
H338	H	0.654627	0.477885	0.333489
H339	H	0.987960	0.811218	0.666823
Cl340	Cl	0.031969	0.205310	0.000227
Cl341	Cl	0.365302	0.538643	0.333560
Cl342	Cl	0.698636	0.871977	0.666893
Cl343	Cl	0.467323	-0.788765	0.000123
Cl344	Cl	0.800656	-0.455432	0.333457
Cl345	Cl	1.133990	-0.122099	0.666790
H346	H	-0.067950	0.184742	0.000263
H347	H	0.265384	0.518075	0.333596
H348	H	0.598717	0.851408	0.666930
Cl349	Cl	0.473573	-0.173720	0.000205
Cl350	Cl	0.806906	0.159613	0.333538
Cl351	Cl	1.140239	0.492947	0.666872
Cl352	Cl	-0.280172	-0.041270	0.000275
Cl353	Cl	0.053162	0.292063	0.333608
Cl354	Cl	0.386495	0.625397	0.666941
H355	H	0.174748	0.187200	0.000184
H356	H	0.508082	0.520533	0.333517
H357	H	0.841415	0.853866	0.666850
Cl358	Cl	0.713914	-0.476616	0.000235
Cl359	Cl	1.047247	-0.143282	0.333569
Cl360	Cl	1.380580	0.190051	0.666902
Cl361	Cl	0.712749	-0.590404	0.000222
Cl362	Cl	1.046083	-0.257070	0.333556
Cl363	Cl	1.379416	0.076263	0.666889
H364	H	0.446774	-0.391054	0.000082
H365	H	0.780107	-0.057720	0.333415
H366	H	1.113440	0.275613	0.666749
H367	H	-0.202304	0.139243	0.000232
H368	H	0.131029	0.472576	0.333565
H369	H	0.464362	0.805909	0.666899
H370	H	0.628801	0.003402	0.646039
H371	H	0.962135	0.336735	0.979373
H372	H	1.295468	0.670068	1.312706
Cl373	Cl	-0.166393	-0.040122	0.000297
Cl374	Cl	0.166940	0.293211	0.333630
Cl375	Cl	0.500274	0.626544	0.666964
Cl376	Cl	0.109057	-0.081469	0.000271
Cl377	Cl	0.442391	0.251864	0.333604
Cl378	Cl	0.775724	0.585197	0.666937
H379	H	0.208987	-0.060899	0.000262
H380	H	0.542320	0.272435	0.333595
H381	H	0.875653	0.605768	0.666928
Cl382	Cl	0.069444	0.205682	0.000185
Cl383	Cl	0.402778	0.539015	0.333518
Cl384	Cl	0.736111	0.872349	0.666852
Cl385	Cl	0.673724	-0.087387	0.000315
Cl386	Cl	1.007057	0.245947	0.333648
Cl387	Cl	1.340390	0.579280	0.666981
H388	H	0.653163	-0.187309	0.000258
H389	H	0.986496	0.146024	0.333591
H390	H	1.319829	0.479358	0.666925
Cl391	Cl	0.715451	-0.325380	0.000246
Cl392	Cl	1.048784	0.007954	0.333579
Cl393	Cl	1.382117	0.341287	0.666913
H394	H	0.445243	-0.542300	0.000095
H395	H	0.778576	-0.208967	0.333428
H396	H	1.111909	0.124367	0.666762
H397	H	-0.293772	0.138311	0.000230
H398	H	0.039562	0.471645	0.333563
H399	H	0.372895	0.804978	0.666896
Cl400	Cl	0.714295	-0.439150	0.000258
Cl401	Cl	1.047628	-0.105817	0.333591
Cl402	Cl	1.380961	0.227517	0.666925
Cl403	Cl	0.468477	-0.674990	0.000101
Cl404	Cl	0.801810	-0.341657	0.333434
Cl405	Cl	1.135144	-0.008323	0.666767
H406	H	0.447706	-0.299603	0.000090
H407	H	0.781040	0.033731	0.333423
H408	H	1.114373	0.367064	0.666757
H409	H	0.494142	-0.073782	0.000221
H410	H	0.827476	0.259551	0.333555
H411	H	1.160809	0.592884	0.666888
Cl412	Cl	0.426763	-0.436996	0.000095
Cl413	Cl	0.760096	-0.103663	0.333429
Cl414	Cl	1.093430	0.229671	0.666762
