data_functionalizedCrystal
_audit_creation_method	'MofGen! by Chris Wilmer'
_symmetry_space_group_name_H-M	'P1'
_symmetry_Int_Tables_number	1
_symmetry_cell_setting	triclinic
loop_
_symmetry_equiv_pos_as_xyz
  x,y,z
_cell_length_a	14.853569
_cell_length_b	14.472310
_cell_length_c	14.853569
_cell_angle_alpha	90.002228
_cell_angle_beta	83.635565
_cell_angle_gamma	90.011059
loop_
_atom_site_label
_atom_site_type_symbol
_atom_site_fract_x
_atom_site_fract_y
_atom_site_fract_z
O1	O	1.196376	0.076801	0.117705
O2	O	1.696376	0.576801	0.617705
O3	O	0.933917	0.076813	0.131725
O4	O	1.433917	0.576813	0.631725
O5	O	1.072157	0.076798	-0.006515
O6	O	1.572157	0.576798	0.493485
O7	O	1.058137	0.076816	0.255944
O8	O	1.558137	0.576816	0.755944
O9	O	1.072121	-0.076884	-0.006507
O10	O	1.572121	0.423116	0.493493
O11	O	0.933882	-0.076869	0.131733
O12	O	1.433882	0.423131	0.631733
O13	O	1.196341	-0.076881	0.117713
O14	O	1.696341	0.423119	0.617713
Cu15	Cu	1.065108	-0.090908	0.124723
Cu16	Cu	1.565108	0.409092	0.624723
Cu17	Cu	1.065150	0.090839	0.124714
Cu18	Cu	1.565150	0.590839	0.624714
O19	O	1.058101	-0.076866	0.255952
O20	O	1.558101	0.423134	0.755952
C21	C	0.900311	-0.000027	0.131093
C22	C	1.400311	0.499973	0.631093
C23	C	0.800227	-0.000023	0.129189
C24	C	1.300227	0.499977	0.629189
C25	C	0.763850	-0.000026	0.046178
C26	C	1.263850	0.499974	0.546178
C27	C	0.742561	-0.000024	0.210410
C28	C	1.242561	0.499976	0.710410
C29	C	0.648527	-0.000026	0.208624
C30	C	1.148527	0.499974	0.708624
C31	C	0.612150	-0.000028	0.125613
C32	C	1.112150	0.499972	0.625613
C33	C	0.669807	-0.000029	0.044389
C34	C	1.169807	0.499971	0.544389
C35	C	0.590863	-0.000034	0.289847
C36	C	1.090863	0.499966	0.789847
C37	C	0.496823	-0.000036	0.288063
C38	C	0.996823	0.499964	0.788063
C39	C	0.460444	-0.000032	0.205052
C40	C	0.960444	0.499968	0.705052
C41	C	0.518108	-0.000032	0.123824
C42	C	1.018108	0.499968	0.623824
C43	C	0.481731	-0.000035	0.040813
C44	C	0.981731	0.499965	0.540813
C45	C	0.539392	-0.000028	-0.040415
C46	C	1.039392	0.499972	0.459585
C47	C	0.633429	-0.000025	-0.038623
C48	C	1.133429	0.499975	0.461377
C49	C	0.366408	-0.000035	0.203259
C50	C	0.866408	0.499965	0.703259
C51	C	0.387688	-0.000039	0.039024
C52	C	0.887688	0.499961	0.539024
N53	N	1.065085	-0.218738	0.124729
N54	N	1.565085	0.281262	0.624729
C55	C	1.065149	-0.592830	0.124710
C56	C	1.565149	-0.092830	0.624710
C57	C	0.990931	-0.553656	0.198431
C58	C	1.490931	-0.053656	0.698431
C59	C	0.991103	-0.446568	0.198700
C60	C	1.491103	0.053432	0.698700
C61	C	1.065116	-0.407239	0.124720
C62	C	1.565116	0.092761	0.624720
C63	C	1.159209	-0.446078	0.145384
C64	C	1.659209	0.053922	0.645384
C65	C	1.158792	-0.553200	0.145908
C66	C	1.658792	-0.053200	0.645908
C67	C	1.046113	-0.553365	0.030108
C68	C	1.546113	-0.053365	0.530108
C69	C	1.043956	-0.446237	0.030736
C70	C	1.543956	0.053763	0.530736
C71	C	1.065104	-0.302350	0.124723
C72	C	1.565104	0.197650	0.624723
C73	C	1.065167	-0.697718	0.124709
C74	C	1.565167	-0.197718	0.624709
C75	C	1.229947	-0.000039	0.118344
C76	C	1.729947	0.499961	0.618344
C77	C	1.330031	-0.000037	0.120249
C78	C	1.830031	0.499963	0.620249
C79	C	1.071503	-0.000044	-0.040100
C80	C	1.571503	0.499956	0.459900
C81	C	1.069599	-0.000044	-0.140183
C82	C	1.569599	0.499956	0.359817
N83	N	1.065180	0.218670	0.124701
N84	N	1.565180	0.718670	0.624701
C85	C	0.986588	-0.000042	-0.176560
C86	C	1.486588	0.499958	0.323440
C87	C	1.150821	-0.000040	-0.197849
C88	C	1.650821	0.499960	0.302151
C89	C	1.149034	-0.000036	-0.291883
C90	C	1.649034	0.499964	0.208117
C91	C	1.066024	-0.000034	-0.328260
C92	C	1.566024	0.499966	0.171740
C93	C	0.984799	-0.000036	-0.270603
C94	C	1.484799	0.499964	0.229397
C95	C	1.230257	-0.000024	-0.349547
C96	C	1.730257	0.499976	0.150453
C97	C	1.228474	-0.000019	-0.443588
C98	C	1.728474	0.499981	0.056412
C99	C	1.145462	-0.000024	-0.479966
C100	C	1.645462	0.499976	0.020034
C101	C	1.064234	-0.000027	-0.422303
C102	C	1.564234	0.499973	0.077697
C103	C	0.981224	-0.000025	-0.458680
C104	C	1.481224	0.499975	0.041320
C105	C	0.899995	-0.000034	-0.401018
C106	C	1.399995	0.499966	0.098982
C107	C	0.901787	-0.000040	-0.306982
C108	C	1.401787	0.499960	0.193018
C109	C	1.143670	-0.000018	-0.574002
C110	C	1.643670	0.499982	-0.074002
C111	C	0.979434	-0.000018	-0.552722
C112	C	1.479434	0.499982	-0.052722
C113	C	1.058754	-0.000023	0.289537
C114	C	1.558754	0.499977	0.789537
C115	C	1.060659	-0.000016	0.389621
C116	C	1.560659	0.499984	0.889621
H117	H	0.358078	-0.000036	-0.028574
H118	H	0.858078	0.499964	0.471426
H119	H	1.294615	-0.000013	-0.490528
H120	H	1.794615	0.499987	0.009472
H121	H	1.176363	-0.419237	0.213594
H122	H	1.676363	0.080763	0.713594
Cl123	Cl	1.255171	-0.000032	-0.152116
Cl124	Cl	1.755171	0.499968	0.347884
Cl125	Cl	0.705922	-0.000028	-0.140729
Cl126	Cl	1.205922	0.499972	0.359271
Cl127	Cl	1.245777	0.000004	-0.646486
Cl128	Cl	1.745777	0.500004	-0.146486
Cl129	Cl	1.121990	-0.404924	-0.057948
Cl130	Cl	1.621990	0.095076	0.442052
H131	H	0.772186	-0.000029	0.277994
H132	H	1.272186	0.499971	0.777994
Cl133	Cl	1.129671	-0.592476	-0.054595
Cl134	Cl	1.629671	-0.092476	0.445405
Cl135	Cl	0.883108	-0.406023	0.179724
Cl136	Cl	1.383108	0.093977	0.679724
H137	H	0.620489	-0.000038	0.357430
H138	H	1.120489	0.499962	0.857430
H139	H	0.911836	-0.000025	-0.582332
H140	H	1.411836	0.499975	-0.082332
Cl141	Cl	0.937091	-0.407047	0.006524
Cl142	Cl	1.437091	0.092953	0.506524
Cl143	Cl	0.493650	-0.000040	-0.144768
Cl144	Cl	0.993650	0.499960	0.355232
H145	H	1.002932	-0.580561	0.268236
H146	H	1.502932	-0.080561	0.768236
Cl147	Cl	0.836335	-0.000016	-0.055933
Cl148	Cl	1.336335	0.499984	0.444067
H149	H	0.920454	-0.000054	-0.129608
H150	H	1.420454	0.499946	0.370392
Cl151	Cl	0.795643	-0.000021	-0.446761
Cl152	Cl	1.295643	0.499979	0.053239
H153	H	1.003271	-0.420929	0.268900
H154	H	1.503271	0.079071	0.768900
Cl155	Cl	0.424343	-0.000036	0.390177
Cl156	Cl	0.924343	0.499964	0.890177
H157	H	0.319464	-0.000048	0.269394
H158	H	0.819464	0.499952	0.769394
Cl159	Cl	0.942452	-0.595120	-0.000507
Cl160	Cl	1.442452	-0.095120	0.499493
Cl161	Cl	0.799682	-0.000044	-0.234489
Cl162	Cl	1.299682	0.499956	0.265511
Cl163	Cl	0.882596	-0.593445	0.179695
Cl164	Cl	1.382596	-0.093445	0.679695
H165	H	1.215751	-0.579111	0.094337
H166	H	1.715751	-0.079111	0.594337
H167	H	1.297840	-0.000083	-0.319921
H168	H	1.797840	0.499917	0.180079
Cl169	Cl	1.184661	-0.591758	0.252433
Cl170	Cl	1.684661	-0.091758	0.752433
H171	H	1.215762	-0.420601	0.093123
H172	H	1.715762	0.079399	0.593123
