data_functionalizedCrystal
_audit_creation_method	'MofGen! by Chris Wilmer'
_symmetry_space_group_name_H-M	'P1'
_symmetry_Int_Tables_number	1
_symmetry_cell_setting	triclinic
loop_
_symmetry_equiv_pos_as_xyz
  x,y,z
_cell_length_a	6.817900
_cell_length_b	10.943624
_cell_length_c	11.168121
_cell_angle_alpha	91.899023
_cell_angle_beta	108.508496
_cell_angle_gamma	108.838799
loop_
_atom_site_label
_atom_site_type_symbol
_atom_site_fract_x
_atom_site_fract_y
_atom_site_fract_z
V1	V	-4.113777	-0.402562	-0.174672
O2	O	-4.073287	-0.394888	0.008428
O3	O	-4.090038	-0.399819	-0.346377
O4	O	-4.091766	-0.578128	-0.171970
O5	O	-4.071547	-0.215344	-0.167187
V6	V	-4.590790	-0.380168	-0.152773
O7	O	-4.389315	-0.451685	-0.222709
O8	O	-4.765448	-0.331045	-0.104735
O9	O	-4.391322	-0.382910	0.018933
O10	O	-4.748676	-0.387842	-0.335872
O11	O	-4.750416	-0.567385	-0.160257
O12	O	-4.389594	-0.204602	-0.155474
C13	C	-3.940184	-0.393471	-0.388236
C14	C	-4.002237	-0.392399	-0.528607
C15	C	-3.919141	-0.384690	-0.730153
C16	C	-3.855002	-0.385798	-0.585072
C17	C	-3.942387	-0.620920	-0.165760
C18	C	-4.005837	-0.764447	-0.164687
C19	C	-3.850738	-0.841594	-0.157463
C20	C	-4.039042	-0.947591	-0.264697
C21	C	-3.930618	-0.914191	-0.055553
C22	C	-4.193350	-0.868567	-0.272023
C23	C	-4.084847	-0.835144	-0.062784
C24	C	-4.273287	-0.941111	-0.170049
C25	C	-4.204518	-0.389255	0.060785
C26	C	-4.121705	-0.390335	0.201155
C27	C	-4.202315	-0.161802	-0.161688
C28	C	-4.118102	-0.018275	-0.162754
H29	H	-3.671589	-0.798145	-0.152285
H30	H	-4.175763	-0.397218	-0.587647
O31	O	-3.799051	-0.938821	0.053720
C32	C	-3.821337	-0.879114	0.160068
H33	H	-3.986561	-0.863435	0.129714
H34	H	-3.814269	-0.944740	0.237326
H35	H	-3.681204	-0.780891	0.199160
O36	O	-4.017148	-1.006097	-0.366632
C37	C	-4.223942	-1.097287	-0.443633
H38	H	-4.361414	-1.070029	-0.426050
H39	H	-4.241187	-1.096534	-0.548510
H40	H	-4.236444	-1.199035	-0.418607
O41	O	-3.768843	-0.377715	-0.788142
C42	C	-3.733881	-0.264433	-0.846970
H43	H	-3.780168	-0.189873	-0.798817
H44	H	-3.552398	-0.221013	-0.837168
H45	H	-3.840798	-0.290810	-0.952494
H46	H	-4.452549	-0.984355	-0.175396
H47	H	-4.303832	-0.848028	-0.363609
H48	H	-4.103465	-0.786155	0.022582
H49	H	-3.681470	-0.380960	-0.526021
H50	H	-4.247646	-0.395995	-0.750248
