data_functionalizedCrystal
_audit_creation_method	'MofGen! by Chris Wilmer'
_symmetry_space_group_name_H-M	'P1'
_symmetry_Int_Tables_number	1
_symmetry_cell_setting	triclinic
loop_
_symmetry_equiv_pos_as_xyz
  x,y,z
_cell_length_a	11.792241
_cell_length_b	10.654545
_cell_length_c	9.730223
_cell_angle_alpha	90.003032
_cell_angle_beta	90.003123
_cell_angle_gamma	84.338247
loop_
_atom_site_label
_atom_site_type_symbol
_atom_site_fract_x
_atom_site_fract_y
_atom_site_fract_z
O1	O	0.159393	1.667392	0.114277
O2	O	0.659393	2.167392	0.614277
O3	O	0.174587	1.301870	0.114283
O4	O	0.674587	1.801870	0.614283
O5	O	0.001840	1.493501	0.114270
O6	O	0.501840	1.993501	0.614270
O7	O	0.332140	1.475761	0.114290
O8	O	0.832140	1.975761	0.614290
O9	O	0.001840	1.493488	-0.114310
O10	O	0.501840	1.993488	0.385690
O11	O	0.174587	1.301856	-0.114297
O12	O	0.674587	1.801856	0.385703
O13	O	0.159393	1.667378	-0.114303
O14	O	0.659393	2.167378	0.385697
Zn15	Zn	0.166990	1.484615	-0.150592
Zn16	Zn	0.666990	1.984615	0.349408
Zn17	Zn	0.166990	1.484633	0.150572
Zn18	Zn	0.666990	1.984633	0.650572
O19	O	0.332140	1.475747	-0.114290
O20	O	0.832140	1.975747	0.385710
C21	C	0.173472	1.255068	-0.000007
C22	C	0.673472	1.755068	0.499993
C23	C	0.170138	1.115634	-0.000005
C24	C	0.670138	1.615634	0.499995
C25	C	0.168568	1.050127	-0.124604
C26	C	0.668568	1.550127	0.375396
C27	C	0.165416	0.919116	-0.124605
C28	C	0.665416	1.419116	0.375395
C29	C	0.165408	0.919131	0.124606
C30	C	0.665408	1.419131	0.624606
C31	C	0.168552	1.050141	0.124604
C32	C	0.668552	1.550141	0.624604
C33	C	-0.040454	1.492380	-0.000020
C34	C	0.459546	1.992380	0.499980
C35	C	-0.166475	1.489045	-0.000018
C36	C	0.333525	1.989045	0.499982
C37	C	-0.397202	1.482911	0.000005
C38	C	0.102798	1.982911	0.500005
C39	C	-0.268809	1.486319	-0.000008
C40	C	0.231191	1.986319	0.499992
C41	C	0.374433	1.476868	0.000002
C42	C	0.874433	1.976868	0.500002
C43	C	0.500455	1.480204	0.000010
C44	C	1.000455	1.980204	0.500010
C45	C	0.160507	1.714180	-0.000011
C46	C	0.660507	2.214180	0.499989
C47	C	0.163842	1.853614	-0.000004
C48	C	0.663842	2.353614	0.499996
N49	N	0.166989	1.484612	-0.356129
N50	N	0.666989	1.984612	0.143871
C51	C	0.236470	1.561247	-0.428046
C52	C	0.736470	2.061247	0.071954
C53	C	0.236464	1.561268	-0.571929
C54	C	0.736464	2.061268	-0.071929
C55	C	0.097493	1.408008	-0.571964
C56	C	0.597493	1.908008	-0.071964
C57	C	0.097494	1.407995	-0.428084
C58	C	0.597494	1.907995	0.071916
N59	N	0.166981	1.484646	0.356108
N60	N	0.666981	1.984646	0.856108
H61	H	0.169827	1.103479	0.226075
H62	H	0.669827	1.603479	0.726075
Br63	Br	0.163222	0.830245	0.293710
Br64	Br	0.663222	1.330245	0.793710
H65	H	0.040914	1.345627	-0.630567
H66	H	0.540914	1.845627	-0.130567
H67	H	0.293057	1.623634	-0.369465
H68	H	0.793057	2.123634	0.130535
Br69	Br	0.003191	1.303983	-0.330471
Br70	Br	0.503191	1.803983	0.169529
Br71	Br	0.170716	1.139008	-0.293716
Br72	Br	0.670716	1.639008	0.206284
Br73	Br	0.163284	0.830217	-0.293712
Br74	Br	0.663284	1.330217	0.206288
Br75	Br	0.330758	1.665283	-0.669528
Br76	Br	0.830758	2.165283	-0.169528
