data_functionalizedCrystal
_audit_creation_method	'MofGen! by Chris Wilmer'
_symmetry_space_group_name_H-M	'P1'
_symmetry_Int_Tables_number	1
_symmetry_cell_setting	triclinic
loop_
_symmetry_equiv_pos_as_xyz
  x,y,z
_cell_length_a	13.032831
_cell_length_b	13.032721
_cell_length_c	13.033454
_cell_angle_alpha	90.931327
_cell_angle_beta	90.908350
_cell_angle_gamma	90.902885
loop_
_atom_site_label
_atom_site_type_symbol
_atom_site_fract_x
_atom_site_fract_y
_atom_site_fract_z
Zn1	Zn	1.429259	-0.491741	0.834510
Zn2	Zn	1.423754	-0.684992	0.683598
Zn3	Zn	1.278339	-0.497140	0.641330
Zn4	Zn	1.235997	-0.642551	0.829103
O5	O	1.341837	-0.579106	0.747135
O6	O	1.570267	-0.532879	0.834444
O7	O	1.419881	-0.680095	0.536250
O8	O	1.318383	-0.354693	0.651529
O9	O	1.566222	-0.674860	0.723570
O10	O	1.429263	-0.350727	0.793458
O11	O	1.313045	-0.542081	0.505196
O12	O	1.130984	-0.500927	0.646285
O13	O	1.246217	-0.602524	0.971561
O14	O	1.099876	-0.607759	0.784241
O15	O	1.388206	-0.491725	0.975534
O16	O	1.378824	-0.821093	0.718326
O17	O	1.240879	-0.789911	0.825228
C18	C	1.078679	-0.550324	0.710091
C19	C	0.966092	-0.538032	0.694269
C20	C	0.900530	-0.585522	0.755392
C21	C	0.784165	-0.572818	0.739042
C22	C	1.304685	-0.842252	0.775803
C23	C	1.288879	-0.954832	0.788114
C24	C	1.350135	-1.020416	0.740763
C25	C	1.333801	-1.136774	0.753486
C26	C	1.606023	-0.608001	0.784325
C27	C	1.718603	-0.620315	0.800173
C28	C	1.313102	-0.541788	1.011327
C29	C	1.300857	-0.525885	1.123910
C30	C	1.379160	-0.314933	0.718382
C31	C	1.395065	-0.202358	0.706129
C32	C	1.370529	-0.616213	0.483972
C33	C	1.383011	-0.631852	0.371386
C34	C	1.348258	-0.587081	1.189468
C35	C	1.335603	-0.570647	1.305828
H36	H	0.936075	-0.487964	0.629839
C37	C	1.437321	-0.979902	0.673270
N38	N	1.502990	-0.949389	0.622431
C39	C	1.415741	-0.674301	1.148920
N40	N	1.466569	-0.739999	1.118381
H41	H	1.269265	-1.166762	0.803452
C42	C	1.482257	-1.161852	0.638632
N43	N	1.547928	-1.131341	0.587793
H44	H	1.224348	-0.984825	0.838076
H45	H	1.285654	-0.506078	1.335842
H46	H	1.432970	-0.696413	1.341374
H47	H	1.250911	-0.461321	1.153928
H48	H	0.930547	-0.635580	0.819830
H49	H	0.748614	-0.670375	0.864618
C50	C	0.743624	-0.505180	0.651988
N51	N	0.713086	-0.454236	0.586419
