data_functionalizedCrystal
_audit_creation_method	'MofGen! by Chris Wilmer'
_symmetry_space_group_name_H-M	'P1'
_symmetry_Int_Tables_number	1
_symmetry_cell_setting	triclinic
loop_
_symmetry_equiv_pos_as_xyz
  x,y,z
_cell_length_a	12.811445
_cell_length_b	12.837942
_cell_length_c	11.892095
_cell_angle_alpha	85.697431
_cell_angle_beta	80.666316
_cell_angle_gamma	90.587018
loop_
_atom_site_label
_atom_site_type_symbol
_atom_site_fract_x
_atom_site_fract_y
_atom_site_fract_z
O1	O	1.422082	-0.122881	-0.239776
O2	O	1.115997	-0.140266	-0.208402
O3	O	1.262252	0.019309	-0.223386
O4	O	1.275827	-0.282456	-0.224791
O5	O	1.250056	0.006025	-0.034129
O6	O	1.103800	-0.153550	-0.019145
O7	O	1.409886	-0.136166	-0.050519
Zn8	Zn	1.254907	-0.146967	-0.004783
Zn9	Zn	1.270976	-0.129464	-0.254137
O10	O	1.263631	-0.295741	-0.035534
C11	C	1.070449	-0.146340	-0.109730
C12	C	0.952901	-0.144634	-0.097681
C13	C	1.251568	0.051274	-0.128288
C14	C	1.237892	0.166312	-0.126888
C15	C	0.745309	-0.126965	-0.281389
C16	C	0.634862	-0.125363	-0.270073
C17	C	0.621557	-0.139835	-0.063734
C18	C	0.732004	-0.141437	-0.075050
C19	C	0.793877	-0.135000	-0.183881
C20	C	0.904326	-0.136595	-0.195196
C21	C	0.891019	-0.151075	0.011142
C22	C	0.780572	-0.149473	0.022458
C23	C	1.455434	-0.130091	-0.149193
C24	C	1.572983	-0.131796	-0.161249
N25	N	1.243947	-0.158912	0.165394
C26	C	1.274315	-0.327705	-0.130635
C27	C	1.287991	-0.442743	-0.132042
C28	C	1.402308	0.407747	-0.143764
C29	C	1.389463	0.515836	-0.142450
C30	C	1.199358	0.490581	-0.122952
C31	C	1.212203	0.382493	-0.124267
C32	C	1.313681	0.341080	-0.134672
C33	C	1.326525	0.232988	-0.135978
C34	C	1.136421	0.207736	-0.116489
C35	C	1.123576	0.315825	-0.115174
N36	N	1.281943	-0.117511	-0.424315
C37	C	1.358197	-0.034335	0.390337
C38	C	1.350545	-0.042692	0.509462
C39	C	1.220986	-0.183977	0.522774
C40	C	1.228638	-0.175620	0.403648
C41	C	1.297247	-0.100798	0.337433
C42	C	1.304904	-0.092446	0.218305
C43	C	1.175340	-0.233726	0.231619
C44	C	1.167688	-0.242083	0.350745
H45	H	0.954701	-0.131354	-0.283812
O46	O	1.435971	0.188316	-0.147201
H47	H	1.451329	0.145077	-0.225399
O48	O	1.093706	-0.322792	0.422166
H49	H	1.011437	-0.308189	0.407915
H50	H	0.730180	-0.154717	0.111065
O51	O	0.943398	-0.159748	0.116324
H52	H	1.030594	-0.159786	0.090175
H53	H	1.461633	0.570114	-0.149858
H54	H	1.040956	0.349559	-0.106708
H55	H	0.595323	-0.118822	-0.349475
O56	O	0.554787	-0.147807	0.053638
H57	H	0.469817	-0.145714	0.045118
H58	H	1.125714	-0.287847	0.188532
H59	H	1.116740	0.524320	-0.114493
O60	O	0.812054	-0.120021	-0.398762
H61	H	0.759726	-0.114167	-0.464667
O62	O	1.040820	0.135832	-0.106685
H63	H	1.066797	0.053713	-0.109353
O64	O	1.511752	0.363068	-0.154987
H65	H	1.571224	0.427587	-0.161095
O66	O	1.378875	-0.011723	0.146891
H67	H	1.373958	-0.017074	0.055167
O68	O	1.432191	0.046360	0.318907
H69	H	1.473287	0.091176	0.375709
O70	O	1.416295	0.028980	0.566527
H71	H	1.465294	0.082402	0.500465
O72	O	1.146991	-0.264673	0.594198
H73	H	1.151917	-0.259317	0.685920
