data_functionalizedCrystal
_audit_creation_method	'MofGen! by Chris Wilmer'
_symmetry_space_group_name_H-M	'P1'
_symmetry_Int_Tables_number	1
_symmetry_cell_setting	triclinic
loop_
_symmetry_equiv_pos_as_xyz
  x,y,z
_cell_length_a	15.500227
_cell_length_b	19.288864
_cell_length_c	19.288874
_cell_angle_alpha	96.861764
_cell_angle_beta	87.182150
_cell_angle_gamma	87.151552
loop_
_atom_site_label
_atom_site_type_symbol
_atom_site_fract_x
_atom_site_fract_y
_atom_site_fract_z
O1	O	0.072223	-0.924605	0.083400
O2	O	0.072164	-0.722342	0.095091
O3	O	0.072189	-0.829314	-0.011884
O4	O	0.072199	-0.817633	0.190375
O5	O	-0.071701	-0.822823	-0.005418
O6	O	-0.071726	-0.715851	0.101558
O7	O	-0.071667	-0.918114	0.089866
Cu8	Cu	-0.084835	-0.816389	0.096302
Cu9	Cu	0.085332	-0.824066	0.088655
O10	O	-0.071691	-0.811142	0.196841
C11	C	0.000212	-0.693220	0.097949
C12	C	0.000189	-0.616115	0.096821
N13	N	-0.204521	-0.810995	0.101680
C14	C	0.000244	-0.825691	-0.034527
C15	C	0.000244	-0.824560	-0.111630
C16	C	-0.249787	-0.856339	0.056368
C17	C	-0.340361	-0.852265	0.060441
C18	C	-0.385667	-0.802852	0.109831
C19	C	-0.340394	-0.757503	0.155146
C20	C	-0.249822	-0.761574	0.151069
C21	C	-0.659137	-0.788188	0.124509
C22	C	-0.749715	-0.784123	0.128584
C23	C	-0.749676	-0.878884	0.033878
C24	C	-0.659102	-0.882953	0.029808
C25	C	-0.613837	-0.837602	0.075120
C26	C	-0.478248	-0.798688	0.113998
C27	C	-0.521258	-0.841763	0.070950
N28	N	0.205018	-0.829466	0.083272
C29	C	0.000288	-0.947236	0.087009
C30	C	0.000316	-1.024341	0.088137
C31	C	0.000206	-0.571422	0.159588
C32	C	0.000215	-0.498975	0.158526
C33	C	0.000225	-0.471226	0.094694
C34	C	0.000204	-0.515929	0.031919
C35	C	0.000186	-0.588373	0.032983
C36	C	0.050663	-0.365237	0.042249
C37	C	0.050687	-0.292794	0.041188
C38	C	0.000278	-0.247782	0.091412
C39	C	-0.050144	-0.275222	0.142709
C40	C	-0.050162	-0.347667	0.143772
C41	C	0.000245	-0.392672	0.093534
C42	C	0.000303	-0.124533	0.153033
C43	C	0.000308	-0.052085	0.151969
C44	C	0.000305	-0.069041	0.025360
C45	C	0.000292	-0.141487	0.026426
C46	C	0.000295	-0.169229	0.090264
C47	C	-0.078172	-0.812896	-0.663676
C48	C	-0.078176	-0.813952	-0.591228
C49	C	0.000257	-0.818022	-0.558521
C50	C	0.078701	-0.821018	-0.598267
C51	C	0.078703	-0.819955	-0.670712
C52	C	0.060358	-0.863098	-0.451891
C53	C	0.060353	-0.864165	-0.379447
C54	C	0.000254	-0.821296	-0.335075
C55	C	-0.059854	-0.777369	-0.363156
C56	C	-0.059852	-0.776306	-0.435602
C57	C	0.000264	-0.819174	-0.479967
C58	C	-0.078190	-0.819440	-0.216782
C59	C	-0.078191	-0.820491	-0.144332
C60	C	0.078689	-0.827564	-0.151373
C61	C	0.078688	-0.826506	-0.223820
C62	C	0.000246	-0.822447	-0.256521
C63	C	0.000256	-0.814764	0.219485
C64	C	0.000262	-0.815896	0.296588
H65	H	-0.212905	-0.896579	0.016152
H66	H	0.109292	-0.899936	-0.356590
C67	C	0.000239	-0.449801	0.227573
C68	C	0.000261	-0.370115	0.226402
C69	C	0.000285	-0.320943	0.295448
C70	C	0.000288	-0.351457	0.365666
C71	C	0.000266	-0.431147	0.366840
C72	C	0.000242	-0.480319	0.297794
H73	H	0.000259	-0.347522	0.174420
H74	H	0.000302	-0.261951	0.294579
H75	H	0.000307	-0.315057	0.416778
H76	H	0.000268	-0.453739	0.418822
H77	H	0.000225	-0.539311	0.298664
H78	H	0.091717	-0.401881	0.001348
H79	H	-0.142048	-0.811496	-0.558866
C80	C	-0.105599	-0.225719	0.197962
C81	C	-0.105589	-0.146032	0.196793
C82	C	-0.161038	-0.096526	0.252046
C83	C	-0.216497	-0.126707	0.308467
C84	C	-0.216509	-0.206398	0.309638
C85	C	-0.161060	-0.255904	0.254385
H86	H	-0.064533	-0.123687	0.155025
H87	H	-0.161029	-0.037533	0.251179
H88	H	-0.257543	-0.090059	0.349369
H89	H	-0.257564	-0.228743	0.351406
H90	H	-0.161069	-0.314896	0.255252
H91	H	0.109307	-0.898004	-0.488013
H92	H	0.000172	-0.624763	-0.018131
H93	H	0.142563	-0.824329	-0.571632
C94	C	-0.164465	-0.808446	-0.699635
C95	C	-0.229219	-0.745389	-0.678693
C96	C	-0.315516	-0.740948	-0.714649
C97	C	-0.337058	-0.799564	-0.771547
C98	C	-0.272302	-0.862626	-0.792492
C99	C	-0.186005	-0.867067	-0.756536
H100	H	-0.213274	-0.701994	-0.636571
H101	H	-0.363452	-0.694265	-0.699144
H102	H	-0.400940	-0.796276	-0.798164
H103	H	-0.288247	-0.906021	-0.834614
H104	H	-0.138068	-0.913749	-0.772041
H105	H	0.091746	-0.270458	-0.000578
H106	H	-0.377287	-0.717266	0.195358
C107	C	0.164986	-0.823261	-0.714427
C108	C	0.229716	-0.886626	-0.715444
C109	C	0.316000	-0.889934	-0.759160
C110	C	0.337554	-0.829877	-0.801861
C111	C	0.272823	-0.766507	-0.800846
C112	C	0.186539	-0.763199	-0.757129
H113	H	0.213762	-0.931089	-0.683833
H114	H	0.363918	-0.936845	-0.759912
H115	H	0.401426	-0.832326	-0.834222
H116	H	0.288777	-0.722044	-0.832456
H117	H	0.138621	-0.716288	-0.756378
H118	H	-0.142062	-0.816129	-0.243407
H119	H	-0.622216	-0.923190	-0.010409
H120	H	0.000224	-0.493331	-0.020054
C121	C	-0.799467	-0.928763	-0.015968
C122	C	-0.861757	-0.898992	-0.066219
C123	C	-0.911547	-0.948871	-0.116070
C124	C	-0.899047	-1.028521	-0.115671
C125	C	-0.836754	-1.058296	-0.065418
C126	C	-0.786964	-1.008417	-0.015567
H127	H	-0.871013	-0.840026	-0.066516
H128	H	-0.957661	-0.926829	-0.153271
H129	H	-0.935905	-1.065445	-0.152574
H130	H	-0.827499	-1.117261	-0.065121
H131	H	-0.740851	-1.030459	0.021634
C132	C	-0.799550	-0.729760	0.182916
C133	C	-0.749757	-0.679877	0.232755
C134	C	-0.799591	-0.625519	0.287085
C135	C	-0.899216	-0.621044	0.291576
C136	C	-0.949015	-0.670929	0.241735
C137	C	-0.899181	-0.725287	0.187405
H138	H	-0.676004	-0.683188	0.229432
H139	H	-0.762726	-0.588591	0.323980
H140	H	-0.936106	-0.580805	0.331794
H141	H	-1.022769	-0.667618	0.245058
H142	H	-0.936046	-0.762215	0.150510
C143	C	-0.164475	-0.817193	-0.100620
C144	C	-0.229217	-0.753837	-0.099608
C145	C	-0.315504	-0.750540	-0.055896
C146	C	-0.337048	-0.810601	-0.013198
C147	C	-0.272305	-0.873963	-0.014209
C148	C	-0.186018	-0.877259	-0.057920
H149	H	-0.213270	-0.709372	-0.131217
H150	H	-0.363431	-0.703636	-0.055148
H151	H	-0.400923	-0.808161	0.019160
H152	H	-0.288252	-0.918428	0.017401
H153	H	-0.138091	-0.924164	-0.058669
C154	C	-0.125958	-0.727982	-0.466491
C155	C	-0.223555	-0.736347	-0.453846
C156	C	-0.289658	-0.688020	-0.484734
C157	C	-0.258165	-0.631327	-0.528268
C158	C	-0.160563	-0.622960	-0.540914
C159	C	-0.094460	-0.671287	-0.510026
H160	H	-0.246872	-0.778317	-0.421618
H161	H	-0.361910	-0.694214	-0.475372
H162	H	-0.307099	-0.595552	-0.551133
H163	H	-0.137246	-0.580990	-0.573142
H164	H	-0.022208	-0.665093	-0.519388
H165	H	0.000294	-0.147121	0.205014
C166	C	-0.125963	-0.730198	-0.314360
C167	C	-0.094473	-0.674955	-0.258296
C168	C	-0.160579	-0.627784	-0.209499
C169	C	-0.258175	-0.635856	-0.216767
C170	C	-0.289670	-0.691102	-0.272833
C171	C	-0.223564	-0.738273	-0.321630
H172	H	-0.022222	-0.668978	-0.252914
H173	H	-0.137264	-0.586888	-0.167995
H174	H	-0.307111	-0.600938	-0.180644
H175	H	-0.361921	-0.697079	-0.278215
H176	H	-0.246879	-0.779169	-0.363134
C177	C	0.000288	-0.190655	-0.042621
C178	C	0.000300	-0.160137	-0.112837
C179	C	0.000294	-0.209306	-0.181887
C180	C	0.000275	-0.288993	-0.180720
C181	C	0.000263	-0.319515	-0.110501
C182	C	0.000269	-0.270346	-0.041451
H183	H	0.000314	-0.101145	-0.113703
H184	H	0.000303	-0.186711	-0.233867
H185	H	0.000271	-0.325391	-0.231835
H186	H	0.000249	-0.378508	-0.109635
H187	H	0.000260	-0.292941	0.010529
H188	H	-0.484367	-0.881993	0.030734
C189	C	0.164970	-0.832037	-0.115406
C190	C	0.229705	-0.895108	-0.136346
C191	C	0.315989	-0.899577	-0.100376
C192	C	0.337538	-0.840975	-0.043465
C193	C	0.272802	-0.777900	-0.022523
C194	C	0.186518	-0.773431	-0.058493
H195	H	0.213754	-0.938493	-0.178477
H196	H	0.363911	-0.946270	-0.115879
H197	H	0.401411	-0.844283	-0.016838
H198	H	0.288753	-0.734515	0.019608
H199	H	0.138596	-0.726738	-0.042990
H200	H	0.142557	-0.828953	-0.256175
H201	H	-0.377216	-0.889187	0.023544
H202	H	-0.212967	-0.724649	0.187966
H203	H	-0.622289	-0.751263	0.161405
H204	H	-0.515143	-0.758456	0.154214
H205	H	0.000210	-0.594004	0.211569
H206	H	0.000316	-0.015696	0.203084
H207	H	0.000367	-0.046451	-0.026616
H208	H	-0.091220	-0.370005	0.185538
