data_functionalizedCrystal
_audit_creation_method	'MofGen! by Chris Wilmer'
_symmetry_space_group_name_H-M	'P1'
_symmetry_Int_Tables_number	1
_symmetry_cell_setting	triclinic
loop_
_symmetry_equiv_pos_as_xyz
  x,y,z
_cell_length_a	15.944551
_cell_length_b	11.792241
_cell_length_c	10.868271
_cell_angle_alpha	90.000107
_cell_angle_beta	89.993912
_cell_angle_gamma	96.153923
loop_
_atom_site_label
_atom_site_type_symbol
_atom_site_fract_x
_atom_site_fract_y
_atom_site_fract_z
O1	O	0.115128	-1.505960	-0.102206
O2	O	0.448461	-1.172626	0.231128
O3	O	0.781795	-0.839293	0.564461
O4	O	0.126993	-1.175521	-0.102235
O5	O	0.460327	-0.842188	0.231099
O6	O	0.793660	-0.508854	0.564432
O7	O	-0.001173	-1.349764	-0.102208
O8	O	0.332160	-1.016431	0.231125
O9	O	0.665493	-0.683097	0.564458
O10	O	0.243295	-1.331717	-0.102232
O11	O	0.576628	-0.998384	0.231101
O12	O	0.909961	-0.665050	0.564435
O13	O	-0.001178	-1.349750	0.102436
O14	O	0.332155	-1.016416	0.435770
O15	O	0.665488	-0.683083	0.769103
O16	O	0.126988	-1.175507	0.102410
O17	O	0.460322	-0.842173	0.435743
O18	O	0.793655	-0.508840	0.769077
O19	O	0.115123	-1.505946	0.102439
O20	O	0.448456	-1.172612	0.435772
O21	O	0.781790	-0.839279	0.769106
Zn22	Zn	0.121055	-1.340724	0.134916
Zn23	Zn	0.454388	-1.007391	0.468250
Zn24	Zn	0.787722	-0.674057	0.801583
Zn25	Zn	0.121062	-1.340743	-0.134712
Zn26	Zn	0.454395	-1.007409	0.198621
Zn27	Zn	0.787728	-0.674076	0.531955
O28	O	0.243290	-1.331703	0.102413
O29	O	0.576623	-0.998369	0.435746
O30	O	0.909956	-0.665036	0.769079
C31	C	0.126245	-1.133229	0.000084
C32	C	0.459579	-0.799896	0.333417
C33	C	0.792912	-0.466562	0.666751
C34	C	0.124015	-1.007234	0.000073
C35	C	0.457348	-0.673900	0.333407
C36	C	0.790681	-0.340567	0.666740
C37	C	-0.032473	-1.349008	0.000114
C38	C	0.300860	-1.015674	0.333448
C39	C	0.634193	-0.682341	0.666781
C40	C	-0.125729	-1.346761	0.000115
C41	C	0.207604	-1.013428	0.333448
C42	C	0.540937	-0.680095	0.666781
N43	N	0.121050	-1.340719	0.318930
N44	N	0.454383	-1.007386	0.652264
N45	N	0.787716	-0.674053	0.985597
C46	C	-0.341098	-1.233389	0.000088
C47	C	-0.007764	-0.900055	0.333421
C48	C	0.325569	-0.566722	0.666754
C49	C	-0.401880	-1.286028	0.100995
C50	C	-0.068547	-0.952695	0.434328
C51	C	0.264787	-0.619362	0.767661
C52	C	-0.296474	-1.342698	0.000105
C53	C	0.036860	-1.009365	0.333438
C54	C	0.370193	-0.676031	0.666772
C55	C	-0.401858	-1.286068	-0.100769
C56	C	-0.068525	-0.952735	0.232564
C57	C	0.264808	-0.619401	0.565898
C58	C	-0.461404	-1.338765	0.000090
C59	C	-0.128071	-1.005432	0.333423
C60	C	0.205263	-0.672098	0.666757
C61	C	-0.356028	-1.395368	0.101095
C62	C	-0.022694	-1.062034	0.434428
C63	C	0.310639	-0.728701	0.767762
C64	C	-0.356000	-1.395392	-0.100759
C65	C	-0.022666	-1.062059	0.232574
C66	C	0.310667	-0.728725	0.565907
C67	C	-0.416764	-1.448111	0.000172
C68	C	-0.083430	-1.114778	0.333506
C69	C	0.249903	-0.781444	0.666839
C70	C	-0.201461	-1.344961	0.000114
C71	C	0.131872	-1.011627	0.333448
C72	C	0.465206	-0.678294	0.666781
C73	C	-0.556415	-1.336511	0.000089
C74	C	-0.223082	-1.003177	0.333423
C75	C	0.110251	-0.669844	0.666756
C76	C	0.274590	-1.332459	0.000087
C77	C	0.607923	-0.999126	0.333421
C78	C	0.941256	-0.665792	0.666754
C79	C	0.367846	-1.334705	0.000079
C80	C	0.701179	-1.001372	0.333412
C81	C	1.034512	-0.668038	0.666746
C82	C	0.115871	-1.548237	0.000118
C83	C	0.449204	-1.214904	0.333451
C84	C	0.782538	-0.881571	0.666784
C85	C	0.118102	-1.674233	0.000120
C86	C	0.451435	-1.340899	0.333454
C87	C	0.784768	-1.007566	0.666787
C88	C	0.119913	-0.776555	0.000109
C89	C	0.453246	-0.443222	0.333442
C90	C	0.786579	-0.109889	0.666776
C91	C	0.122192	-0.904922	0.000090
C92	C	0.455525	-0.571588	0.333423
C93	C	0.788858	-0.238255	0.666756
N94	N	0.121060	-1.340756	-0.318726
N95	N	0.454393	-1.007423	0.014607
N96	N	0.787727	-0.674090	0.347941
C97	C	0.121060	-1.340737	0.569936
C98	C	0.454393	-1.007403	0.903270
C99	C	0.787726	-0.674070	1.236603
C100	C	0.121057	-1.340723	0.430259
C101	C	0.454390	-1.007390	0.763592
C102	C	0.787723	-0.674057	1.096926
H103	H	-0.308200	-1.142657	0.000181
H104	H	0.025134	-0.809324	0.333514
H105	H	0.358467	-0.475990	0.666847
Br106	Br	-0.435746	-1.208965	0.243171
Br107	Br	-0.102412	-0.875632	0.576505
Br108	Br	0.230921	-0.542299	0.909838
Br109	Br	-0.322094	-1.472399	-0.242941
Br110	Br	0.011239	-1.139065	0.090392
Br111	Br	0.344572	-0.805732	0.423726
H112	H	-0.422142	-1.239826	-0.186084
H113	H	-0.088808	-0.906493	0.147250
H114	H	0.244525	-0.573160	0.480583
H115	H	-0.449513	-1.538922	0.000237
H116	H	-0.116179	-1.205589	0.333570
H117	H	0.217154	-0.872256	0.666904
H118	H	-0.335831	-1.441556	0.186497
H119	H	-0.002497	-1.108223	0.519831
H120	H	0.330836	-0.774889	0.853164
