data_functionalizedCrystal
_audit_creation_method	'MofGen! by Chris Wilmer'
_symmetry_space_group_name_H-M	'P1'
_symmetry_Int_Tables_number	1
_symmetry_cell_setting	triclinic
loop_
_symmetry_equiv_pos_as_xyz
  x,y,z
_cell_length_a	17.699083
_cell_length_b	15.995350
_cell_length_c	16.176319
_cell_angle_alpha	89.995430
_cell_angle_beta	89.998611
_cell_angle_gamma	83.387695
loop_
_atom_site_label
_atom_site_type_symbol
_atom_site_fract_x
_atom_site_fract_y
_atom_site_fract_z
O1	O	1.004255	0.105885	-0.068627
O2	O	0.783899	0.119661	-0.068653
O3	O	0.900101	-0.009127	-0.068638
O4	O	0.888054	0.234673	-0.068641
O5	O	0.900085	-0.009135	0.068855
O6	O	0.783883	0.119653	0.068840
O7	O	1.004239	0.105877	0.068867
Cu8	Cu	0.894060	0.112764	0.081408
Cu9	Cu	0.894079	0.112774	-0.081194
O10	O	0.888038	0.234665	0.068852
C11	C	0.755694	0.119163	0.000090
C12	C	0.671673	0.117683	0.000080
C13	C	0.623178	0.193278	0.000079
C14	C	0.544232	0.191882	0.000090
C15	C	0.513783	0.114889	0.000095
C16	C	0.562285	0.039287	0.000098
C17	C	0.641229	0.040685	0.000094
C18	C	0.243912	0.033651	0.000119
C19	C	0.164962	0.032259	0.000121
C20	C	0.146916	0.184848	0.000115
C21	C	0.225860	0.186245	0.000110
C22	C	0.274354	0.110644	0.000118
C23	C	0.359956	0.112159	0.000108
C24	C	0.428183	0.113373	0.000099
C25	C	0.899595	-0.040324	0.000107
C26	C	0.898101	-0.133272	0.000102
C27	C	0.892739	-0.471008	0.000104
C28	C	0.809983	-0.423406	-0.000214
C29	C	0.811476	-0.326719	0.000096
C30	C	0.895399	-0.303453	0.000102
C31	C	0.936208	-0.344618	0.078621
C32	C	0.934129	-0.441250	0.078687
C33	C	0.935857	-0.441602	-0.077669
C34	C	0.935838	-0.344657	-0.078706
C35	C	0.896907	-0.208759	0.000104
C36	C	0.891234	-0.565703	0.000108
C37	C	1.032445	0.106375	0.000122
C38	C	1.116465	0.107856	0.000126
C39	C	0.888544	0.265863	0.000105
C40	C	0.890037	0.358810	0.000104
N41	N	0.894052	0.112757	0.195773
N42	N	0.894092	0.112775	-0.195559
C43	C	0.945521	0.055753	0.239043
C44	C	0.945525	0.055752	0.325591
C45	C	0.894063	0.112760	0.368865
C46	C	0.842588	0.169767	0.325589
C47	C	0.842581	0.169763	0.239043
C48	C	0.842614	0.169782	0.674617
C49	C	0.842626	0.169783	0.761168
C50	C	0.945558	0.055772	0.761164
C51	C	0.945551	0.055768	0.674619
C52	C	0.894074	0.112771	0.631350
C53	C	0.894069	0.112770	0.537505
C54	C	0.894070	0.112765	0.462708
H55	H	0.779397	-0.298228	-0.056190
O56	O	0.995438	0.000243	0.197066
C57	C	0.983132	-0.082613	0.218270
H58	H	0.922534	-0.082913	0.242055
H59	H	0.991840	-0.124673	0.161376
H60	H	1.025071	-0.107251	0.268522
O61	O	0.652626	0.268144	0.000109
C62	C	0.592890	0.334566	0.000092
H63	H	0.539264	0.311200	0.026126
H64	H	0.609387	0.388329	0.040007
H65	H	0.581716	0.357881	-0.065871
O66	O	0.770411	-0.445442	-0.067296
C67	C	0.705505	-0.481567	-0.040957
H68	H	0.689761	-0.459266	0.024394
H69	H	0.656078	-0.461566	-0.084514
H70	H	0.718189	-0.553078	-0.041452
H71	H	0.504750	0.253440	0.000088
O72	O	0.688370	-0.032727	0.000237
C73	C	0.734589	-0.036479	0.071434
H74	H	0.705678	0.006393	0.121204
H75	H	0.743468	-0.103944	0.095338
H76	H	0.791995	-0.014923	0.055331
O77	O	0.898727	-0.463083	0.148751
C78	C	0.949002	-0.519557	0.195233
H79	H	1.010157	-0.511510	0.177817
H80	H	0.939978	-0.505963	0.263926
H81	H	0.937525	-0.586861	0.181542
O82	O	0.792586	0.225238	0.632721
C83	C	0.747158	0.275541	0.689478
H84	H	0.778196	0.276444	0.751164
H85	H	0.735605	0.342426	0.664467
H86	H	0.690939	0.248431	0.698697
H87	H	0.777046	-0.442936	0.055772
O88	O	0.900367	-0.312123	-0.148091
C89	C	0.937162	-0.349543	-0.218447
H90	H	0.968985	-0.413082	-0.200823
H91	H	0.893081	-0.358952	-0.267947
H92	H	0.979172	-0.306855	-0.243463
O93	O	1.008845	-0.326436	-0.084216
C94	C	1.025024	-0.275752	-0.016636
H95	H	0.984479	-0.285350	0.036388
H96	H	1.086137	-0.294128	0.004462
H97	H	1.017539	-0.206794	-0.036111
O98	O	0.255343	0.261091	-0.000007
C99	C	0.230571	0.307158	-0.071226
H100	H	0.175820	0.284446	-0.094962
H101	H	0.219609	0.376906	-0.055212
H102	H	0.276252	0.297373	-0.121092
O103	O	1.008614	-0.479742	-0.078195
C104	C	1.020559	-0.532718	-0.008622
H105	H	0.963654	-0.550845	0.013997
H106	H	1.059279	-0.591950	-0.026304
H107	H	1.048403	-0.498198	0.042698
H108	H	0.987435	0.009335	0.360821
O109	O	0.995570	0.000309	0.632711
C110	C	1.041012	-0.049993	0.689462
H111	H	1.009990	-0.050893	0.751160
H112	H	1.052557	-0.116879	0.664463
H113	H	1.097234	-0.022885	0.698654
O114	O	0.099698	0.258212	0.000152
C115	C	0.023490	0.240476	0.000140
H116	H	0.020463	0.174716	0.026177
H117	H	-0.012273	0.288674	0.040056
H118	H	0.000656	0.243697	-0.065821
H119	H	0.987471	0.009354	0.796403
H120	H	0.907851	-0.316183	0.137047
H121	H	0.779168	-0.298792	0.056470
H122	H	0.140174	-0.030442	0.000127
H123	H	0.997864	-0.330618	0.081546
O124	O	0.792596	0.225044	0.803299
C125	C	0.745909	0.180259	0.853359
H126	H	0.776065	0.114700	0.866323
H127	H	0.733941	0.215223	0.914217
H128	H	0.689971	0.174640	0.820017
O129	O	0.290979	-0.039809	-0.000026
C130	C	0.277160	-0.086568	-0.071223
H131	H	0.250183	-0.042305	-0.120995
H132	H	0.333168	-0.120265	-0.095125
H133	H	0.236957	-0.134946	-0.055122
O134	O	0.903476	-0.466062	-0.148591
C135	C	0.841332	-0.510213	-0.128985
H136	H	0.819550	-0.491425	-0.064525
H137	H	0.793920	-0.494141	-0.176026
H138	H	0.860272	-0.580773	-0.130552
H139	H	0.800682	0.216181	0.360828
H140	H	0.537487	-0.023402	0.000115
H141	H	0.994887	-0.473622	0.082254
H142	H	0.800668	0.216180	0.203813
