data_functionalizedCrystal
_audit_creation_method	'MofGen! by Chris Wilmer'
_symmetry_space_group_name_H-M	'P1'
_symmetry_Int_Tables_number	1
_symmetry_cell_setting	triclinic
loop_
_symmetry_equiv_pos_as_xyz
  x,y,z
_cell_length_a	10.654541
_cell_length_b	16.109301
_cell_length_c	9.730217
_cell_angle_alpha	89.991664
_cell_angle_beta	90.002020
_cell_angle_gamma	96.027295
loop_
_atom_site_label
_atom_site_type_symbol
_atom_site_fract_x
_atom_site_fract_y
_atom_site_fract_z
O1	O	1.666257	-0.116767	0.114253
O2	O	1.300627	-0.127895	0.114265
O3	O	1.493487	-0.001360	0.114245
O4	O	1.473398	-0.243302	0.114273
O5	O	1.493475	-0.001350	-0.114335
O6	O	1.300616	-0.127885	-0.114315
O7	O	1.666246	-0.116758	-0.114327
Zn8	Zn	1.483429	-0.122320	-0.150613
Zn9	Zn	1.483444	-0.122333	0.150551
O10	O	1.473386	-0.243293	-0.114307
C11	C	1.253835	-0.127073	-0.000023
C12	C	1.114424	-0.124630	-0.000019
N13	N	1.483428	-0.122311	-0.356150
C14	C	1.492667	0.029625	-0.000046
C15	C	1.490227	0.121935	-0.000048
C16	C	1.084401	-0.275937	0.000016
C17	C	1.003896	-0.350439	0.000039
C18	C	0.872909	-0.348139	0.000040
C19	C	0.822426	-0.271327	0.000014
C20	C	0.902931	-0.196825	-0.000009
C21	C	1.033919	-0.199134	-0.000006
C22	C	0.932954	-0.045520	-0.000054
C23	C	1.063941	-0.047819	-0.000045
C24	C	0.882471	0.031291	-0.000080
C25	C	0.962976	0.105795	-0.000093
C26	C	1.093970	0.103491	-0.000093
C27	C	1.144446	0.026683	-0.000068
C28	C	1.713038	-0.117579	-0.000036
C29	C	1.852449	-0.120022	-0.000031
C30	C	1.474206	-0.274277	-0.000013
C31	C	1.476646	-0.366587	-0.000002
C32	C	1.598994	0.343561	-0.000030
C33	C	1.596692	0.430295	-0.000019
C34	C	1.367871	0.411780	-0.000016
C35	C	1.370174	0.325047	-0.000018
C36	C	1.485739	0.290941	-0.000032
C37	C	1.481134	0.464407	-0.000019
C38	C	1.478637	0.558448	-0.000006
C39	C	1.488237	0.196894	-0.000041
N40	N	1.483455	-0.122335	0.356087
C41	C	1.331462	-0.020318	0.643772
C42	C	1.255491	0.030676	0.571793
C43	C	1.255507	0.030669	0.427913
C44	C	1.331499	-0.020340	0.356009
C45	C	1.407469	-0.071334	0.427988
C46	C	1.407448	-0.071320	0.571871
C47	C	1.559426	-0.173329	0.428066
C48	C	1.559419	-0.173319	0.571946
C49	C	1.635418	-0.224338	0.356162
C50	C	1.711397	-0.275329	0.428141
C51	C	1.711379	-0.275319	0.572030
C52	C	1.635390	-0.224314	0.643925
H53	H	1.191055	-0.277818	0.000045
C54	C	1.791025	0.472756	0.117475
C55	C	1.721187	0.488133	-0.000022
H56	H	1.867890	0.508459	0.117467
H57	H	1.743646	0.483163	0.197174
H58	H	1.808920	0.416216	0.117453
H59	H	1.703285	0.544671	0.000005
H60	H	1.768576	0.477732	-0.079742
C61	C	1.248055	0.142557	0.266044
C62	C	1.171999	0.086720	0.348784
H63	H	1.196498	0.177156	0.217189
H64	H	1.305921	0.176210	0.322173
H65	H	1.293312	0.112171	0.202641
H66	H	1.126749	0.117107	0.412194
H67	H	1.114111	0.053063	0.292650
C68	C	1.414247	-0.075892	0.149943
C69	C	1.331507	-0.020356	0.197854
H70	H	1.414244	-0.075906	0.052304
H71	H	1.497028	-0.058947	0.182489
H72	H	1.387566	-0.130493	0.182527
H73	H	1.358193	0.034246	0.165278
H74	H	1.248708	-0.037297	0.165294
C75	C	1.596042	-0.304799	0.850057
C76	C	1.635368	-0.224305	0.802080
H77	H	1.596033	-0.304793	0.947696
H78	H	1.513260	-0.321725	0.817497
H79	H	1.652179	-0.342466	0.817531
H80	H	1.579225	-0.186638	0.834598
H81	H	1.718163	-0.207368	0.834654
H82	H	0.715768	-0.269461	-0.000002
H83	H	1.277943	0.282201	-0.000015
H84	H	1.773237	-0.316850	0.630627
C85	C	1.308094	0.167153	-0.000115
C86	C	1.182459	0.185388	-0.000121
H87	H	1.362717	0.217715	-0.000141
H88	H	1.323391	0.135702	0.079603
H89	H	1.323381	0.135687	-0.079819
H90	H	1.167169	0.216849	0.079589
H91	H	1.167157	0.216853	-0.079847
H92	H	1.045014	-0.412978	0.000057
C93	C	1.596121	-0.304848	0.150082
C94	C	1.635436	-0.224349	0.198008
H95	H	1.596130	-0.304852	0.052443
H96	H	1.652239	-0.342509	0.182658
H97	H	1.513318	-0.321770	0.182627
H98	H	1.718243	-0.207429	0.165471
H99	H	1.579317	-0.186676	0.165417
C100	C	1.172134	0.422701	0.117499
C101	C	1.240848	0.449276	-0.000009
H102	H	1.093718	0.445854	0.117502
H103	H	1.157297	0.363523	0.117488
H104	H	1.218782	0.440717	0.197199
H105	H	1.194203	0.431255	-0.079710
H106	H	1.255682	0.508467	-0.000011
C107	C	0.833085	0.196161	0.117379
C108	C	0.907485	0.190219	-0.000119
H109	H	0.798831	0.248285	0.117366
H110	H	0.766403	0.152125	0.117372
H111	H	0.883571	0.192118	0.197085
H112	H	0.856997	0.194256	-0.079826
H113	H	0.974176	0.234268	-0.000125
C114	C	1.880248	-0.281780	0.266366
C115	C	1.794922	-0.331392	0.349106
H116	H	1.931818	-0.316392	0.217578
H117	H	1.834996	-0.251423	0.202918
H118	H	1.931812	-0.243887	0.322498
H119	H	1.743351	-0.369281	0.292974
H120	H	1.840178	-0.361763	0.412562
C121	C	1.209398	-0.045267	0.849876
C122	C	1.331453	-0.020308	0.801927
H123	H	1.209396	-0.045264	0.947515
H124	H	1.153292	-0.007595	0.817307
H125	H	1.182738	-0.099876	0.817340
H126	H	1.358109	0.034304	0.834454
H127	H	1.387577	-0.057980	0.834510
C128	C	1.105282	0.131497	0.557266
C129	C	1.171962	0.086743	0.650830
H130	H	1.053708	0.166104	0.606059
H131	H	1.163180	0.165140	0.501148
H132	H	1.053719	0.093594	0.501151
H133	H	1.223533	0.124646	0.706939
H134	H	1.114057	0.053097	0.706972
C135	C	1.704131	0.218828	-0.000041
C136	C	1.726020	0.306068	-0.000033
H137	H	1.782555	0.195686	-0.000048
H138	H	1.657509	0.200807	0.079663
H139	H	1.657500	0.200826	-0.079760
H140	H	1.772643	0.324071	0.079692
H141	H	1.772662	0.324097	-0.079744
H142	H	0.807361	-0.408805	0.000049
C143	C	0.702996	0.075776	-0.117595
C144	C	0.738489	0.033824	-0.000078
H145	H	0.614106	0.077336	-0.117590
H146	H	0.743714	0.131132	-0.117605
H147	H	0.727081	0.047302	-0.197288
H148	H	0.714412	0.062302	0.079616
H149	H	0.697756	-0.021541	-0.000055
H150	H	1.251100	0.024800	-0.000052
