data_functionalizedCrystal
_audit_creation_method	'MofGen! by Chris Wilmer'
_symmetry_space_group_name_H-M	'P1'
_symmetry_Int_Tables_number	1
_symmetry_cell_setting	triclinic
loop_
_symmetry_equiv_pos_as_xyz
  x,y,z
_cell_length_a	17.000371
_cell_length_b	17.019294
_cell_length_c	12.503572
_cell_angle_alpha	89.649141
_cell_angle_beta	86.761829
_cell_angle_gamma	79.505866
loop_
_atom_site_label
_atom_site_type_symbol
_atom_site_fract_x
_atom_site_fract_y
_atom_site_fract_z
O1	O	1.060777	0.023426	-0.091491
O2	O	0.829148	0.051914	-0.094127
O3	O	0.950882	-0.077031	-0.082195
O4	O	0.939043	0.152371	-0.103423
O5	O	0.941727	-0.067318	0.095548
O6	O	0.819993	0.061627	0.083616
O7	O	1.051622	0.033139	0.086252
Cu8	Cu	0.934972	0.048269	0.101163
Cu9	Cu	0.945799	0.036783	-0.109039
O10	O	0.929888	0.162084	0.074320
C11	C	0.794922	0.058301	-0.005397
C12	C	0.706580	0.062851	-0.005818
C13	C	0.945675	-0.101382	0.009377
C14	C	0.943790	-0.188411	0.017423
C15	C	0.947897	-0.234587	-0.075683
C16	C	0.946120	-0.316358	-0.068120
C17	C	0.940243	-0.351953	0.032552
C18	C	0.936134	-0.305771	0.125666
C19	C	0.937904	-0.224000	0.118101
C20	C	0.934642	-0.598583	0.060241
C21	C	0.932874	-0.680361	0.067799
C22	C	0.942859	-0.690943	-0.125988
C23	C	0.944634	-0.609171	-0.133544
C24	C	0.940521	-0.562994	-0.040430
C25	C	0.938430	-0.435537	0.040286
C26	C	0.942328	-0.479411	-0.048165
C27	C	0.674301	-0.007169	0.000663
C28	C	0.591294	-0.002889	0.000259
C29	C	0.540567	0.071411	-0.006618
C30	C	0.572851	0.141435	-0.013103
C31	C	0.655857	0.137155	-0.012707
C32	C	0.289481	0.087945	-0.008155
C33	C	0.206470	0.092221	-0.008548
C34	C	0.224918	-0.052104	0.004813
C35	C	0.307925	-0.056378	0.005215
C36	C	0.340202	0.013646	-0.001276
C37	C	0.455720	0.075787	-0.007028
C38	C	0.425048	0.009269	-0.000874
C39	C	1.085848	0.026752	-0.002481
C40	C	1.174191	0.022202	-0.002067
C41	C	0.935095	0.186435	-0.017255
C42	C	0.936980	0.273463	-0.025308
N43	N	0.927362	0.056347	0.249008
N44	N	0.953414	0.028699	-0.256883
C45	C	0.916169	0.068237	0.467023
C46	C	0.964605	0.016812	0.525109
C47	C	0.958377	0.023428	0.646420
C48	C	0.922396	0.061622	0.345701
H49	H	0.952687	-0.205613	-0.157661
H50	H	0.349222	-0.116881	0.010820
N51	N	0.855057	0.133140	0.521826
H52	H	0.823598	0.166544	0.466161
H53	H	0.817365	0.108065	0.570817
N54	N	1.025740	-0.048078	0.470305
H55	H	1.057201	-0.081474	0.525974
H56	H	0.997442	-0.083128	0.426887
N57	N	0.947295	-0.740746	-0.226413
H58	H	0.945281	-0.797949	-0.206349
H59	H	0.900508	-0.718997	-0.270948
N60	N	0.948676	-0.441023	-0.156742
H61	H	0.951013	-0.482681	-0.214585
H62	H	0.900353	-0.397560	-0.165008
H63	H	0.934549	-0.186401	0.193919
N64	N	0.950664	-0.366186	-0.168539
H65	H	0.954700	-0.331238	-0.233460
H66	H	0.999455	-0.410067	-0.168608
N67	N	0.479751	-0.070870	0.006546
H68	H	0.517997	-0.079465	-0.058880
H69	H	0.511152	-0.072203	0.072937
N70	N	0.324297	0.163464	-0.015138
H71	H	0.361717	0.161305	-0.081162
H72	H	0.279524	0.211144	-0.019504
N73	N	0.190105	-0.127626	0.011817
H74	H	0.129824	-0.113644	0.010524
H75	H	0.212035	-0.163489	-0.051088
N76	N	0.926537	-0.718756	0.176385
H77	H	0.924199	-0.677096	0.234225
H78	H	0.876312	-0.742691	0.182834
H79	H	0.949421	-0.580196	-0.215521
N80	N	0.930215	-0.548787	0.160666
H81	H	0.926229	-0.583748	0.225586
H82	H	0.980009	-0.524397	0.162647
H83	H	0.565017	-0.059907	0.005536
N84	N	0.929804	-0.344160	0.234249
H85	H	0.879578	-0.368093	0.240811
H86	H	0.978163	-0.387577	0.242532
N87	N	0.932106	-0.473935	0.148865
H88	H	0.929777	-0.432279	0.206707
H89	H	0.881878	-0.497866	0.155322
H90	H	0.165168	0.152729	-0.014144
N91	N	0.729010	-0.087307	0.008093
H92	H	0.695963	-0.131014	0.012136
H93	H	0.767247	-0.095829	-0.057342
H94	H	0.531543	0.201932	-0.018710
N95	N	0.690671	0.212678	-0.019704
H96	H	0.668802	0.248574	0.043196
H97	H	0.750948	0.198628	-0.018449
N98	N	0.401005	0.155923	-0.014446
H99	H	0.408019	0.190331	0.048591
H100	H	0.414844	0.183056	-0.083225
