data_functionalizedCrystal
_audit_creation_method	'MofGen! by Chris Wilmer'
_symmetry_space_group_name_H-M	'P1'
_symmetry_Int_Tables_number	1
_symmetry_cell_setting	triclinic
loop_
_symmetry_equiv_pos_as_xyz
  x,y,z
_cell_length_a	14.044220
_cell_length_b	11.792241
_cell_length_c	13.101039
_cell_angle_alpha	93.376518
_cell_angle_beta	93.667477
_cell_angle_gamma	91.308853
loop_
_atom_site_label
_atom_site_type_symbol
_atom_site_fract_x
_atom_site_fract_y
_atom_site_fract_z
O1	O	0.124790	-1.524822	-0.085117
O2	O	0.138185	-1.195740	-0.085141
O3	O	-0.006522	-1.355341	-0.085119
O4	O	0.269497	-1.365221	-0.085139
O5	O	0.003878	-1.343891	0.085309
O6	O	0.148585	-1.184291	0.085287
O7	O	0.135190	-1.513372	0.085311
Zn8	Zn	0.143539	-1.347014	0.112359
Zn9	Zn	0.129836	-1.362099	-0.112188
O10	O	0.279897	-1.353772	0.085290
C11	C	0.142543	-1.147646	0.000070
C12	C	0.140024	-1.021396	0.000061
C13	C	-0.036659	-1.345292	0.000095
C14	C	-0.141951	-1.332393	0.000095
N15	N	0.120478	-1.372394	-0.265435
C16	C	-0.334734	-1.308812	0.000079
C17	C	-0.391897	-1.400296	0.000083
C18	C	-0.499168	-1.387176	0.000073
C19	C	-0.227453	-1.321931	0.000088
C20	C	0.310033	-1.363821	0.000073
C21	C	0.415325	-1.376720	0.000066
C22	C	0.130832	-1.561467	0.000098
C23	C	0.133350	-1.687717	0.000100
C24	C	0.135394	-0.790247	0.000091
C25	C	0.137967	-0.918875	0.000075
N26	N	0.152889	-1.336727	0.265606
C27	C	0.165620	-1.322732	0.474646
C28	C	0.107750	-1.386386	0.525531
C29	C	0.114834	-1.378599	0.641848
C30	C	0.158538	-1.330517	0.358318
H31	H	-0.366357	-1.220642	0.000070
H32	H	-0.360277	-1.488478	0.000020
O33	O	0.238305	-1.242824	0.532651
H34	H	0.279611	-1.197392	0.477436
H35	H	0.052887	-1.446730	0.481737
