data_functionalizedCrystal
_audit_creation_method	'MofGen! by Chris Wilmer'
_symmetry_space_group_name_H-M	'P1'
_symmetry_Int_Tables_number	1
_symmetry_cell_setting	triclinic
loop_
_symmetry_equiv_pos_as_xyz
  x,y,z
_cell_length_a	11.792241
_cell_length_b	10.654545
_cell_length_c	9.730223
_cell_angle_alpha	89.997167
_cell_angle_beta	89.999420
_cell_angle_gamma	95.661753
loop_
_atom_site_label
_atom_site_type_symbol
_atom_site_fract_x
_atom_site_fract_y
_atom_site_fract_z
O1	O	-0.159395	1.667391	-0.114260
O2	O	-0.174589	1.301869	-0.114264
O3	O	-0.001842	1.493501	-0.114270
O4	O	-0.332142	1.475760	-0.114253
O5	O	-0.001837	1.493488	0.114310
O6	O	-0.174584	1.301857	0.114316
O7	O	-0.159390	1.667379	0.114320
Zn8	Zn	-0.166987	1.484616	0.150610
Zn9	Zn	-0.166993	1.484632	-0.150554
O10	O	-0.332138	1.475748	0.114326
C11	C	-0.173472	1.255068	0.000025
C12	C	-0.170138	1.115634	0.000023
C13	C	-0.168565	1.050127	0.124623
C14	C	-0.165413	0.919117	0.124623
C15	C	-0.165411	0.919131	-0.124588
C16	C	-0.168555	1.050140	-0.124586
C17	C	-0.374433	1.476868	0.000039
C18	C	-0.500455	1.480204	0.000045
C19	C	-0.731181	1.486337	0.000010
C20	C	-0.602788	1.482929	0.000029
C21	C	0.040454	1.492380	0.000015
C22	C	0.166475	1.489045	0.000000
C23	C	-0.160507	1.714180	0.000028
C24	C	-0.163842	1.853614	0.000022
N25	N	-0.166982	1.484614	0.356147
N26	N	-0.166989	1.484644	-0.356090
C27	C	-0.090522	1.569497	0.428070
C28	C	-0.090522	1.569510	0.571953
C29	C	-0.243452	1.399752	0.571977
C30	C	-0.243446	1.399734	0.428096
H31	H	-0.169854	1.103449	0.226088
N32	N	-0.008069	1.661082	0.649524
H33	H	0.072616	1.646095	0.624491
H34	H	-0.022011	1.750247	0.624422
N35	N	-0.163712	0.848463	0.259012
H36	H	-0.164391	0.909945	0.337943
H37	H	-0.233056	0.784999	0.264861
N38	N	-0.163706	0.848479	-0.258975
H39	H	-0.232639	0.784417	-0.264529
H40	H	-0.165133	0.909941	-0.337835
H41	H	-0.028259	1.638610	0.369492
N42	N	-0.170258	1.120811	-0.258978
H43	H	-0.101324	1.184873	-0.264526
H44	H	-0.168828	1.059363	-0.337843
N45	N	-0.325921	1.308207	0.649580
H46	H	-0.314327	1.321098	0.751642
H47	H	-0.406564	1.323250	0.624419
H48	H	-0.305709	1.330606	0.369532
