data_functionalizedCrystal
_audit_creation_method	'MofGen! by Chris Wilmer'
_symmetry_space_group_name_H-M	'P1'
_symmetry_Int_Tables_number	1
_symmetry_cell_setting	triclinic
loop_
_symmetry_equiv_pos_as_xyz
  x,y,z
_cell_length_a	10.489746
_cell_length_b	10.489741
_cell_length_c	16.776229
_cell_angle_alpha	89.993659
_cell_angle_beta	89.995805
_cell_angle_gamma	84.540238
loop_
_atom_site_label
_atom_site_type_symbol
_atom_site_fract_x
_atom_site_fract_y
_atom_site_fract_z
O1	O	1.694054	0.180003	-0.066234
O2	O	2.194054	0.680003	0.433766
O3	O	1.322860	0.196888	-0.066247
O4	O	1.822860	0.696888	0.433753
O5	O	1.516903	0.002848	-0.066236
O6	O	2.016903	0.502848	0.433764
O7	O	1.500011	0.374043	-0.066246
O8	O	2.000011	0.874043	0.433754
O9	O	1.516877	0.002836	0.066341
O10	O	2.016877	0.502836	0.566341
O11	O	1.322833	0.196876	0.066329
O12	O	1.822833	0.696876	0.566329
O13	O	1.694028	0.179990	0.066342
O14	O	2.194028	0.679990	0.566342
Zn15	Zn	1.508427	0.188431	0.087385
Zn16	Zn	2.008427	0.688431	0.587385
Zn17	Zn	1.508461	0.188447	-0.087290
Zn18	Zn	2.008461	0.688447	0.412710
O19	O	1.499985	0.374031	0.066331
O20	O	1.999985	0.874031	0.566331
C21	C	1.275315	0.195606	0.000039
C22	C	1.775315	0.695606	0.500039
C23	C	1.133686	0.191786	0.000034
C24	C	1.633686	0.691786	0.500034
C25	C	1.515614	-0.044690	0.000052
C26	C	2.015614	0.455310	0.500052
C27	C	1.511797	-0.186320	0.000050
C28	C	2.011797	0.313680	0.500050
C29	C	0.980828	0.066062	0.000049
C30	C	1.480828	0.566062	0.500049
C31	C	1.058209	0.128913	0.065412
C32	C	1.558209	0.628913	0.565412
C33	C	1.058190	0.128954	-0.065298
C34	C	1.558190	0.628954	0.434702
C35	C	0.958717	0.247894	0.065471
C36	C	1.458717	0.747894	0.565471
C37	C	0.958693	0.247918	-0.065298
C38	C	1.458693	0.747918	0.434702
C39	C	1.036025	0.310856	0.000081
C40	C	1.536025	0.810856	0.500081
C41	C	1.388333	-0.254462	0.000040
C42	C	1.888333	0.245538	0.500040
C43	C	1.446643	-0.346589	0.065409
C44	C	1.946643	0.153411	0.565409
C45	C	1.446698	-0.346552	-0.065301
C46	C	1.946698	0.153448	0.434699
C47	C	1.570159	-0.276582	0.065474
C48	C	2.070159	0.223418	0.565474
C49	C	1.570196	-0.276535	-0.065295
C50	C	2.070196	0.223465	0.434705
C51	C	1.628597	-0.368635	0.000090
C52	C	2.128597	0.131365	0.500090
C53	C	1.741573	0.181273	0.000054
C54	C	2.241573	0.681273	0.500054
C55	C	1.883202	0.185093	0.000054
C56	C	2.383202	0.685093	0.500054
C57	C	1.501273	0.421569	0.000041
C58	C	2.001273	0.921569	0.500041
C59	C	1.505091	0.563198	0.000038
C60	C	2.005091	1.063198	0.500038
N61	N	1.508413	0.188420	0.206596
N62	N	2.008413	0.688420	0.706596
N63	N	1.508485	0.188449	-0.206501
N64	N	2.008485	0.688449	0.293499
C65	C	1.594362	0.102534	0.248319
C66	C	2.094362	0.602534	0.748319
C67	C	1.594369	0.102533	0.331771
C68	C	2.094369	0.602533	0.831771
C69	C	1.508432	0.188425	0.373499
C70	C	2.008432	0.688425	0.873499
C71	C	1.422473	0.274314	0.331771
C72	C	1.922473	0.774314	0.831771
C73	C	1.422461	0.274308	0.248320
C74	C	1.922461	0.774308	0.748320
C75	C	1.422520	0.274340	0.668318
C76	C	1.922520	0.774340	1.168318
C77	C	1.422541	0.274342	0.751775
C78	C	1.922541	0.774342	1.251775
C79	C	1.594428	0.102565	0.751769
C80	C	2.094428	0.602565	1.251769
C81	C	1.594415	0.102559	0.668318
C82	C	2.094415	0.602559	1.168318
C83	C	1.508453	0.188443	0.626597
C84	C	2.008453	0.688443	1.126597
C85	C	1.508445	0.188441	0.536109
C86	C	2.008445	0.688441	1.036109
C87	C	1.508445	0.188433	0.463986
C88	C	2.008445	0.688433	0.963986
H89	H	0.956107	-0.037439	0.000118
H90	H	1.456107	0.462561	0.500118
H91	H	1.101675	0.078659	0.120676
H92	H	1.601675	0.578659	0.620676
H93	H	1.622343	-0.245754	0.120800
H94	H	2.122343	0.254246	0.620800
Br95	Br	1.359610	-0.398193	-0.157406
Br96	Br	1.859610	0.101807	0.342594
Br97	Br	1.305802	0.390863	0.191697
Br98	Br	1.805802	0.890863	0.691697
H99	H	0.915204	0.298127	-0.120564
H100	H	1.415204	0.798127	0.379436
Br101	Br	1.076818	0.483496	0.000128
Br102	Br	1.576818	0.983496	0.500128
H103	H	0.915427	0.298104	0.120795
H104	H	1.415427	0.798104	0.620795
Br105	Br	1.711007	-0.014031	0.191696
Br106	Br	2.211007	0.485969	0.691696
Br107	Br	1.711012	-0.014032	0.388397
Br108	Br	2.211012	0.485968	0.888397
H109	H	1.101644	0.078688	-0.120559
H110	H	1.601644	0.578688	0.379441
H111	H	1.664397	0.032622	0.634345
H112	H	2.164397	0.532622	1.134345
H113	H	1.352528	0.344272	0.634356
H114	H	1.852528	0.844272	1.134356
H115	H	1.286821	-0.204813	0.000102
H116	H	1.786821	0.295187	0.500102
H117	H	1.394392	-0.377607	0.120671
H118	H	1.894392	0.122393	0.620671
Br119	Br	1.657216	-0.224778	-0.157406
Br120	Br	2.157216	0.275222	0.342594
H121	H	1.730200	-0.418057	0.000130
H122	H	2.230200	0.081943	0.500130
H123	H	1.664419	0.032629	0.785747
H124	H	2.164419	0.532629	1.285747
Br125	Br	1.305906	0.390918	0.808407
Br126	Br	1.805906	0.890918	1.308407
Br127	Br	1.305832	0.390875	0.388399
Br128	Br	1.805832	0.890875	0.888399
