data_functionalizedCrystal
_audit_creation_method	'MofGen! by Chris Wilmer'
_symmetry_space_group_name_H-M	'P1'
_symmetry_Int_Tables_number	1
_symmetry_cell_setting	triclinic
loop_
_symmetry_equiv_pos_as_xyz
  x,y,z
_cell_length_a	21.295420
_cell_length_b	21.295417
_cell_length_c	12.759393
_cell_angle_alpha	89.962952
_cell_angle_beta	89.977103
_cell_angle_gamma	90.027953
loop_
_atom_site_label
_atom_site_type_symbol
_atom_site_fract_x
_atom_site_fract_y
_atom_site_fract_z
Zn1	Zn	0.962348	-0.250608	-0.594027
Zn2	Zn	1.295681	0.082725	-0.260694
Zn3	Zn	1.629014	0.416059	0.072640
Zn4	Zn	0.962255	-0.355890	-0.418327
Zn5	Zn	1.295588	-0.022557	-0.084994
Zn6	Zn	1.628922	0.310776	0.248340
Zn7	Zn	0.857074	-0.250636	-0.418356
Zn8	Zn	1.190408	0.082698	-0.085023
Zn9	Zn	1.523741	0.416031	0.248310
Zn10	Zn	0.857042	-0.355840	-0.593958
Zn11	Zn	1.190375	-0.022507	-0.260625
Zn12	Zn	1.523708	0.310826	0.072708
O13	O	0.909680	-0.303244	-0.506167
O14	O	1.243013	0.030090	-0.172834
O15	O	1.576346	0.363423	0.160499
O16	O	1.050425	-0.264583	-0.570737
O17	O	1.383758	0.068750	-0.237403
O18	O	1.717091	0.402083	0.095930
O19	O	0.948277	-0.341960	-0.271310
O20	O	1.281611	-0.008627	0.062023
O21	O	1.614944	0.324706	0.395357
O22	O	0.871091	-0.162543	-0.441700
O23	O	1.204425	0.170791	-0.108367
O24	O	1.537758	0.504124	0.224966
O25	O	1.050357	-0.341934	-0.441651
O26	O	1.383690	-0.008600	-0.108317
O27	O	1.717023	0.324733	0.225016
O28	O	0.948435	-0.162522	-0.570765
O29	O	1.281769	0.170811	-0.237432
O30	O	1.615102	0.504144	0.095902
O31	O	0.871001	-0.264630	-0.271331
O32	O	1.204335	0.068703	0.062002
O33	O	1.537668	0.402036	0.395335
O34	O	0.768981	-0.264582	-0.441634
O35	O	1.102314	0.068752	-0.108300
O36	O	1.435647	0.402085	0.225033
O37	O	0.871036	-0.341848	-0.740989
O38	O	1.204369	-0.008515	-0.407655
O39	O	1.537703	0.324818	-0.074322
O40	O	0.768957	-0.341875	-0.570648
O41	O	1.102290	-0.008542	-0.237314
O42	O	1.435623	0.324792	0.096019
O43	O	0.948404	-0.264535	-0.741039
O44	O	1.281737	0.068798	-0.407706
O45	O	1.615071	0.402132	-0.074372
O46	O	0.948246	-0.443973	-0.441584
O47	O	1.281579	-0.110640	-0.108251
O48	O	1.614912	0.222694	0.225083
O49	O	0.870946	-0.443936	-0.570620
O50	O	1.204279	-0.110603	-0.237286
O51	O	1.537613	0.222730	0.096047
C52	C	0.746128	-0.303226	-0.506137
C53	C	1.079461	0.030107	-0.172804
C54	C	1.412795	0.363440	0.160530
C55	C	0.676160	-0.303234	-0.506149
C56	C	1.009493	0.030099	-0.172816
C57	C	1.342827	0.363432	0.160518
C58	C	0.176706	-0.343564	-0.573280
C59	C	0.510039	-0.010231	-0.239946
C60	C	0.843373	0.323102	0.093387
C61	C	0.242449	-0.343564	-0.573269
C62	C	0.575782	-0.010231	-0.239935
C63	C	0.909115	0.323102	0.093398
C64	C	0.275321	-0.303258	-0.506200
C65	C	0.608654	0.030076	-0.172867
C66	C	0.941987	0.363409	0.160466
C67	C	0.242445	-0.262959	-0.439119
C68	C	0.575778	0.070374	-0.105785
C69	C	0.909111	0.403707	0.227548
C70	C	0.176703	-0.262965	-0.439124
C71	C	0.510037	0.070369	-0.105791
C72	C	0.843370	0.403702	0.227542
N73	N	0.378561	-0.248142	-0.498300
N74	N	0.711894	0.085192	-0.164967
N75	N	1.045227	0.418525	0.168367
N76	N	0.441012	-0.248138	-0.498301
N77	N	0.774345	0.085195	-0.164967
N78	N	1.107679	0.418528	0.168366
C79	C	0.473395	-0.303240	-0.506178
C80	C	0.806729	0.030093	-0.172845
C81	C	1.140062	0.363427	0.160489
N82	N	0.440968	-0.358346	-0.514075
N83	N	0.774301	-0.025013	-0.180741
N84	N	1.107634	0.308320	0.152592
N85	N	0.378511	-0.358349	-0.514079
N86	N	0.711844	-0.025016	-0.180746
N87	N	1.045177	0.308318	0.152587
C88	C	0.346606	-0.303248	-0.506186
C89	C	0.679939	0.030086	-0.172853
C90	C	1.013273	0.363419	0.160480
C91	C	0.577549	-0.343539	-0.573238
C92	C	0.910882	-0.010206	-0.239904
C93	C	1.244216	0.323127	0.093429
C94	C	0.643293	-0.343541	-0.573219
C95	C	0.976626	-0.010207	-0.239886
C96	C	1.309959	0.323126	0.093447
C97	C	0.643287	-0.262930	-0.439075
C98	C	0.976621	0.070403	-0.105742
C99	C	1.309954	0.403737	0.227592
C100	C	0.577545	-0.262934	-0.439088
C101	C	0.910878	0.070399	-0.105755
C102	C	1.244211	0.403732	0.227579
C103	C	0.544680	-0.303238	-0.506175
C104	C	0.878013	0.030095	-0.172842
C105	C	1.211346	0.363429	0.160492
C106	C	0.909599	-0.466795	-0.506114
C107	C	1.242933	-0.133462	-0.172781
C108	C	1.576266	0.199872	0.160553
C109	C	0.909623	-0.536763	-0.506126
C110	C	1.242956	-0.203430	-0.172793
C111	C	1.576289	0.129903	0.160540
C112	C	0.949873	-0.569562	-0.573378
C113	C	1.283206	-0.236229	-0.240045
C114	C	1.616539	0.097104	0.093288
C115	C	0.949895	-0.635305	-0.573404
C116	C	1.283228	-0.301971	-0.240071
C117	C	1.616562	0.031362	0.093262
C118	C	0.909674	-0.668246	-0.506160
C119	C	1.243007	-0.334912	-0.172826
C120	C	1.576340	-0.001579	0.160507
C121	C	0.869416	-0.635439	-0.438903
C122	C	1.202749	-0.302106	-0.105570
C123	C	1.536083	0.031228	0.227764
C124	C	0.869390	-0.569698	-0.438886
C125	C	1.202724	-0.236364	-0.105553
C126	C	1.536057	0.096969	0.227780
N127	N	0.904916	-0.771514	-0.414213
N128	N	1.238249	-0.438180	-0.080879
N129	N	1.571583	-0.104847	0.252454
N130	N	0.904944	-0.833965	-0.414231
N131	N	1.238277	-0.500632	-0.080898
N132	N	1.571611	-0.167298	0.252435
C133	C	0.909747	-0.866320	-0.506207
C134	C	1.243081	-0.532987	-0.172874
C135	C	1.576414	-0.199654	0.160460
N136	N	0.914534	-0.833865	-0.598165
N137	N	1.247867	-0.500532	-0.264832
N138	N	1.581201	-0.167198	0.068501
N139	N	0.914509	-0.771408	-0.598145
N140	N	1.247843	-0.438074	-0.264812
N141	N	1.581176	-0.104741	0.068521
C142	C	0.909697	-0.739531	-0.506170
C143	C	1.243030	-0.406198	-0.172837
C144	C	1.576363	-0.072864	0.160496
C145	C	0.950023	-0.970405	-0.573493
C146	C	1.283357	-0.637072	-0.240159
C147	C	1.616690	-0.303738	0.093174
C148	C	0.950041	-1.036149	-0.573520
C149	C	1.283375	-0.702815	-0.240187
C150	C	1.616708	-0.369482	0.093146
C151	C	0.869566	-1.036281	-0.439010
C152	C	1.202899	-0.702948	-0.105676
C153	C	1.536232	-0.369615	0.227657
C154	C	0.869545	-0.970539	-0.438991
C155	C	1.202878	-0.637206	-0.105658
C156	C	1.536211	-0.303872	0.227675
C157	C	0.909777	-0.937605	-0.506231
C158	C	1.243110	-0.604271	-0.172898
C159	C	1.576443	-0.270938	0.160435
C160	C	1.073870	-0.303261	-0.506198
C161	C	1.407203	0.030072	-0.172865
C162	C	1.740537	0.363406	0.160469
C163	C	1.143838	-0.303269	-0.506211
C164	C	1.477171	0.030065	-0.172878
C165	C	1.810505	0.363398	0.160455
C166	C	0.909727	-0.303183	-0.780201
C167	C	1.243060	0.030150	-0.446867
C168	C	1.576393	0.363484	-0.113534
C169	C	0.909747	-0.303157	-0.896977
C170	C	1.243080	0.030176	-0.563644
C171	C	1.576414	0.363509	-0.230311
C172	C	0.909777	-0.139053	-0.506244
C173	C	1.243111	0.194280	-0.172910
C174	C	1.576444	0.527613	0.160423
C175	C	0.909819	-0.069085	-0.506276
C176	C	1.243152	0.264248	-0.172943
C177	C	1.576486	0.597582	0.160390
C178	C	0.950035	-0.262894	-0.951867
C179	C	1.283369	0.070440	-0.618534
C180	C	1.616702	0.403773	-0.285201
C181	C	0.950046	-0.262867	-1.061592
C182	C	1.283379	0.070467	-0.728258
C183	C	1.616713	0.403800	-0.394925
C184	C	0.869478	-0.343372	-1.061526
C185	C	1.202811	-0.010039	-0.728193
C186	C	1.536145	0.323295	-0.394859
C187	C	0.869465	-0.343396	-0.951804
C188	C	1.202798	-0.010062	-0.618471
C189	C	1.536131	0.323271	-0.285137
C190	C	0.909669	-0.303258	-0.233200
C191	C	1.243002	0.030075	0.100133
C192	C	1.576336	0.363408	0.433467
C193	C	0.909771	-0.303107	-0.116424
C194	C	1.243104	0.030227	0.216910
C195	C	1.576438	0.363560	0.550243
H196	H	0.269213	-0.230142	-0.384510
H197	H	0.602546	0.103191	-0.051176
H198	H	0.935880	0.436524	0.282157
Br199	Br	1.004730	-0.208225	-1.136082
Br200	Br	1.338063	0.125108	-0.802748
Br201	Br	1.671397	0.458441	-0.469415
H202	H	0.982666	-0.662015	-0.628181
H203	H	1.315999	-0.328681	-0.294848
H204	H	1.649333	0.004652	0.038486
H205	H	0.982834	-0.230127	-0.907231
H206	H	1.316167	0.103206	-0.573898
H207	H	1.649501	0.436539	-0.240564
H208	H	0.149942	-0.230149	-0.384509
H209	H	0.483276	0.103184	-0.051175
H210	H	0.816609	0.436517	0.282158
H211	H	0.550789	-0.376358	-0.627863
H212	H	0.884122	-0.043025	-0.294529
H213	H	1.217455	0.290309	0.038804
Br214	Br	0.687901	-0.398239	-0.664239
Br215	Br	1.021234	-0.064906	-0.330905
Br216	Br	1.354568	0.268428	0.002428
H217	H	0.836666	-0.662264	-0.384154
H218	H	1.170000	-0.328930	-0.050821
H219	H	1.503333	0.004403	0.282513
Br220	Br	0.814814	-0.397981	-1.135940
Br221	Br	1.148148	-0.064647	-0.802607
Br222	Br	1.481481	0.268686	-0.469273
H223	H	0.670051	-0.230113	-0.384463
H224	H	1.003384	0.103220	-0.051130
H225	H	1.336718	0.436553	0.282204
H226	H	0.269215	-0.376378	-0.627887
H227	H	0.602548	-0.043045	-0.294554
H228	H	0.935882	0.290289	0.038779
Br229	Br	1.004470	-0.524868	-0.664638
Br230	Br	1.337803	-0.191535	-0.331304
Br231	Br	1.671137	0.141798	0.002029
Br232	Br	0.814759	-0.525181	-0.347612
Br233	Br	1.148092	-0.191848	-0.014278
Br234	Br	1.481426	0.141485	0.319055
Br235	Br	0.132106	-0.398265	-0.664321
Br236	Br	0.465439	-0.064932	-0.330988
Br237	Br	0.798773	0.268402	0.002346
Br238	Br	1.004661	-1.080663	-0.664816
Br239	Br	1.337995	-0.747330	-0.331483
Br240	Br	1.671328	-0.413996	0.001851
Br241	Br	1.004621	-0.925704	-0.664747
Br242	Br	1.337955	-0.592371	-0.331414
Br243	Br	1.671288	-0.259038	0.001920
Br244	Br	0.532935	-0.208240	-0.348068
Br245	Br	0.866268	0.125093	-0.014735
Br246	Br	1.199601	0.458427	0.318599
Br247	Br	0.814975	-1.080980	-0.347753
Br248	Br	1.148308	-0.747647	-0.014419
Br249	Br	1.481642	-0.414313	0.318914
Br250	Br	0.814778	-0.398037	-0.877303
Br251	Br	1.148111	-0.064704	-0.543970
Br252	Br	1.481444	0.268629	-0.210637
H253	H	0.836772	-0.943832	-0.384224
H254	H	1.170105	-0.610499	-0.050891
H255	H	1.503439	-0.277166	0.282443
