data_functionalizedCrystal
_audit_creation_method	'MofGen! by Chris Wilmer'
_symmetry_space_group_name_H-M	'P1'
_symmetry_Int_Tables_number	1
_symmetry_cell_setting	triclinic
loop_
_symmetry_equiv_pos_as_xyz
  x,y,z
_cell_length_a	17.038272
_cell_length_b	16.992695
_cell_length_c	16.053802
_cell_angle_alpha	92.741074
_cell_angle_beta	87.238566
_cell_angle_gamma	90.889890
loop_
_atom_site_label
_atom_site_type_symbol
_atom_site_fract_x
_atom_site_fract_y
_atom_site_fract_z
O1	O	1.051195	0.167893	-0.069325
O2	O	0.823395	0.165177	-0.069350
O3	O	0.936382	0.052332	-0.069331
O4	O	0.938209	0.280738	-0.069344
O5	O	0.930161	0.058516	0.069527
O6	O	0.817174	0.171361	0.069508
O7	O	1.044974	0.174077	0.069533
Zn8	Zn	0.930087	0.173701	0.091567
Zn9	Zn	0.938283	0.165553	-0.091384
O10	O	0.931988	0.286922	0.069514
C11	C	0.930922	0.026054	0.000098
C12	C	0.923911	-0.061457	0.000097
C13	C	0.791002	0.165799	0.000076
C14	C	0.703747	0.158432	0.000067
C15	C	0.991551	-0.107186	0.000105
C16	C	0.984960	-0.189412	0.000096
C17	C	0.910728	-0.225909	0.000085
C18	C	0.843083	-0.180175	0.000075
C19	C	0.849676	-0.097950	0.000077
C20	C	0.883406	-0.471330	0.000071
C21	C	0.876819	-0.553561	0.000071
C22	C	1.018696	-0.562793	0.000091
C23	C	1.025282	-0.480565	0.000098
C24	C	0.957637	-0.434839	0.000083
N25	N	0.903989	-0.309958	0.000079
N26	N	0.964377	-0.350792	0.000083
C27	C	0.657877	0.226072	0.000064
C28	C	0.575891	0.219145	0.000076
C29	C	0.539777	0.144578	0.000085
C30	C	0.585654	0.076933	0.000090
C31	C	0.667637	0.083861	0.000084
C32	C	0.292483	0.120105	0.000108
C33	C	0.210493	0.113182	0.000112
C34	C	0.200736	0.255395	0.000099
C35	C	0.282722	0.262316	0.000088
C36	C	0.328591	0.194671	0.000098
C37	C	0.455975	0.137496	0.000094
C38	C	0.412392	0.201754	0.000094
C39	C	1.077368	0.173454	0.000105
C40	C	1.164623	0.180822	0.000109
C41	C	0.937448	0.313199	0.000083
C42	C	0.944458	0.400711	0.000079
N43	N	0.924499	0.179261	0.216426
N44	N	0.943877	0.159987	-0.216244
C45	C	0.972594	0.131265	0.260128
C46	C	0.968693	0.135162	0.347534
C47	C	0.916700	0.187061	0.391237
C48	C	0.868599	0.235059	0.347529
C49	C	0.872497	0.231157	0.260124
C50	C	0.899673	0.204083	0.652644
C51	C	0.895781	0.207983	0.740054
C52	C	0.995875	0.108085	0.740054
C53	C	0.999771	0.104191	0.652648
C54	C	0.951667	0.152186	0.608947
N55	N	0.912713	0.191048	0.480580
N56	N	0.955651	0.148195	0.519606
H57	H	1.040040	-0.226641	0.000105
H58	H	0.833331	0.270239	0.224543
H59	H	0.853439	0.250248	0.775633
H60	H	1.014936	0.089007	0.224551
C61	C	1.056960	0.047100	0.604572
C62	C	1.109868	-0.005702	0.652635
C63	C	1.167059	-0.062790	0.604556
C64	C	1.171342	-0.067076	0.508414
C65	C	1.118432	-0.014272	0.460346
C66	C	1.061241	0.042816	0.508425
H67	H	1.106699	-0.002530	0.723809
H68	H	1.206226	-0.101878	0.640140
H69	H	1.213678	-0.109336	0.472824
H70	H	1.121601	-0.017443	0.389172
H71	H	1.022074	0.081905	0.472841
H72	H	0.826261	0.277313	0.383117
H73	H	0.816367	-0.583273	0.000075
H74	H	1.051999	-0.077476	0.000119
H75	H	1.085729	-0.450856	0.000107
H76	H	0.329820	0.065023	0.000117
C77	C	0.761425	-0.220316	0.000061
C78	C	0.707042	-0.208406	-0.072052
C79	C	0.625381	-0.248543	-0.072063
C80	C	0.598103	-0.300590	0.000040
C81	C	0.652487	-0.312502	0.072159
C82	C	0.734148	-0.272365	0.072170
H83	H	0.727234	-0.169875	-0.125432
H84	H	0.585123	-0.239724	-0.125451
H85	H	0.537652	-0.330301	0.000032
H86	H	0.632294	-0.351032	0.125539
H87	H	0.774406	-0.281183	0.125558
H88	H	0.828325	-0.434109	0.000059
C89	C	1.048781	0.055286	0.788124
C90	C	1.011664	-0.004316	0.848225
C91	C	1.064570	-0.057120	0.896294
C92	C	1.154593	-0.050322	0.884263
C93	C	1.191715	0.009283	0.824160
C94	C	1.138809	0.062087	0.776091
H95	H	0.945019	-0.009350	0.857133
H96	H	1.037090	-0.101243	0.940786
H97	H	1.193758	-0.089411	0.919847
H98	H	1.258360	0.014317	0.815252
H99	H	1.166289	0.106210	0.731599
H100	H	0.556243	0.016219	0.000110
H101	H	1.007856	0.096080	0.383116
H102	H	1.073768	-0.600032	0.000101
C103	C	0.525438	0.293553	0.000072
C104	C	0.535902	0.349951	-0.072040
C105	C	0.485450	0.424364	-0.072040
C106	C	0.424534	0.442379	0.000073
C107	C	0.414067	0.385979	0.072191
C108	C	0.464519	0.311566	0.072191
H109	H	0.580998	0.336617	-0.125427
H110	H	0.493198	0.466115	-0.125427
H111	H	0.387186	0.497464	0.000073
H112	H	0.368971	0.399314	0.125578
H113	H	0.456770	0.269816	0.125578
C114	C	0.416245	0.055474	0.000096
C115	C	0.358003	0.034372	0.072206
C116	C	0.318268	-0.047649	0.072209
C117	C	0.336776	-0.108569	0.000104
C118	C	0.395021	-0.087469	-0.072011
C119	C	0.434756	-0.005448	-0.072015
H120	H	0.344300	0.079470	0.125587
H121	H	0.275152	-0.063268	0.125594
H122	H	0.307363	-0.169286	0.000106
H123	H	0.408724	-0.132567	-0.125393
H124	H	0.477872	0.010171	-0.125400
H125	H	0.794596	-0.060719	0.000071
H126	H	0.687274	0.286792	0.000056
H127	H	0.312120	0.323036	0.000070
H128	H	0.860506	0.243164	0.617070
H129	H	0.163381	0.310467	0.000092
H130	H	0.181092	0.052457	0.000118
H131	H	0.441799	0.262466	0.000091
H132	H	0.704984	0.028781	0.000087
