data_functionalizedCrystal
_audit_creation_method	'MofGen! by Chris Wilmer'
_symmetry_space_group_name_H-M	'P1'
_symmetry_Int_Tables_number	1
_symmetry_cell_setting	triclinic
loop_
_symmetry_equiv_pos_as_xyz
  x,y,z
_cell_length_a	10.489711
_cell_length_b	9.565339
_cell_length_c	16.109301
_cell_angle_alpha	90.002222
_cell_angle_beta	83.994245
_cell_angle_gamma	89.998814
loop_
_atom_site_label
_atom_site_type_symbol
_atom_site_fract_x
_atom_site_fract_y
_atom_site_fract_z
O1	O	1.692363	0.116315	0.117177
O2	O	1.321002	0.116308	0.128213
O3	O	1.516884	0.116298	0.001726
O4	O	1.496481	0.116326	0.243664
O5	O	1.516893	-0.116223	0.001730
O6	O	1.321011	-0.116212	0.128217
O7	O	1.692371	-0.116205	0.117181
Zn8	Zn	1.506692	-0.153126	0.122700
Zn9	Zn	1.506681	0.153229	0.122695
O10	O	1.496489	-0.116195	0.243668
C11	C	1.273486	0.000046	0.127387
C12	C	1.131891	0.000043	0.124909
C13	C	0.948401	0.000068	0.200974
C14	C	1.041093	0.114706	0.162977
C15	C	1.041075	-0.114541	0.162960
C16	C	0.972311	0.114805	0.082454
C17	C	0.972283	-0.114545	0.082449
C18	C	1.064949	0.000121	0.044393
N19	N	1.506709	-0.362205	0.122702
C20	C	1.597327	-0.453376	0.064210
C21	C	1.482074	-0.546551	0.047380
C22	C	1.621917	-0.546586	0.139479
C23	C	1.391398	-0.453329	0.105834
C24	C	1.531317	-0.453356	0.197966
C25	C	1.415981	-0.546488	0.181167
C26	C	1.739887	0.000060	0.118007
C27	C	1.881483	0.000072	0.120485
C28	C	1.516062	0.000037	-0.029252
C29	C	1.513584	0.000035	-0.121562
N30	N	1.506674	0.362308	0.122685
C31	C	1.624055	0.000059	-0.343161
C32	C	1.621717	0.000071	-0.429896
C33	C	1.389310	0.000060	-0.411438
C34	C	1.391649	0.000059	-0.324705
C35	C	1.509026	0.000051	-0.290569
C36	C	1.504348	0.000064	-0.464037
C37	C	1.501812	0.000076	-0.558078
C38	C	1.511562	0.000041	-0.196522
C39	C	1.497312	0.000069	0.274646
C40	C	1.499789	0.000081	0.366956
H41	H	0.941757	-0.211476	0.048422
C42	C	1.819086	0.119600	-0.472315
C43	C	1.748164	0.000074	-0.487703
H44	H	1.897156	0.119596	-0.507999
H45	H	1.770957	0.200670	-0.482739
H46	H	1.837261	0.119579	-0.415771
H47	H	1.729981	0.000100	-0.544246
H48	H	1.796303	-0.081017	-0.477285
H49	H	1.071540	-0.211459	0.197032
C50	C	1.465814	-0.447105	0.345265
C51	C	1.559495	-0.398044	0.283874
H52	H	1.483228	-0.412964	0.398301
H53	H	1.383896	-0.415222	0.333416
H54	H	1.466803	-0.546407	0.345723
H55	H	1.558500	-0.298742	0.283412
H56	H	1.641434	-0.429920	0.295727
C57	C	1.161680	0.000034	-0.315164
C58	C	1.265199	0.000045	-0.266888
H59	H	1.083620	0.000021	-0.279469
H60	H	1.165591	0.081114	-0.349373
H61	H	1.165613	-0.081056	-0.349382
H62	H	1.261271	0.081141	-0.232675
H63	H	1.261285	-0.081043	-0.232665
H64	H	1.071590	0.211628	0.197034
C65	C	1.453064	-0.748200	-0.037402
C66	C	1.453933	-0.601828	-0.038548
H67	H	1.435687	-0.782318	-0.090450
H68	H	1.534291	-0.781493	-0.025085
H69	H	1.388605	-0.780055	0.004098
H70	H	1.518398	-0.569973	-0.080044
H71	H	1.372694	-0.568522	-0.050875
C72	C	1.282529	0.000040	-0.536198
C73	C	1.260294	0.000048	-0.448963
H74	H	1.202876	0.000020	-0.559362
H75	H	1.329871	0.081124	-0.554198
H76	H	1.329901	-0.081046	-0.554197
H77	H	1.212929	0.081140	-0.430965
H78	H	1.212931	-0.081045	-0.430956
H79	H	1.719630	0.000056	-0.315371
C80	C	1.834955	-0.488976	0.169797
C81	C	1.753451	-0.601849	0.158691
H82	H	1.916155	-0.523084	0.181669
H83	H	1.845128	-0.434373	0.120302
H84	H	1.798864	-0.432936	0.214964
H85	H	1.789538	-0.657885	0.113520
H86	H	1.743282	-0.656476	0.208192
C87	C	0.914482	0.120443	0.332221
C88	C	0.880005	0.000231	0.290276
H89	H	0.872247	0.120550	0.387348
H90	H	1.004607	0.121259	0.334437
H91	H	0.889951	0.201049	0.303328
H92	H	0.904544	-0.080375	0.319165
H93	H	0.789860	-0.000598	0.288064
C94	C	1.206026	-0.316708	0.153453
C95	C	1.259815	-0.398283	0.086573
H96	H	1.124797	-0.282720	0.141559
H97	H	1.195792	-0.372002	0.202672
H98	H	1.261006	-0.240063	0.161474
H99	H	1.204839	-0.474934	0.078556
H100	H	1.270043	-0.342986	0.037340
C101	C	0.798248	0.244661	0.034615
C102	C	0.931393	0.245801	0.036523
H103	H	0.772988	0.325538	0.006267
H104	H	0.774156	0.163361	0.006212
H105	H	0.757306	0.244333	0.090076
H106	H	0.972336	0.246118	-0.018938
H107	H	0.955497	0.327122	0.064926
H108	H	1.115367	0.000172	-0.021824
H109	H	1.673887	-0.412491	0.014720
C110	C	1.313920	-0.747729	0.247844
C111	C	1.312409	-0.601352	0.247938
H112	H	1.249982	-0.781598	0.289067
H113	H	1.297112	-0.781041	0.194521
H114	H	1.395686	-0.779817	0.259895
H115	H	1.230645	-0.569263	0.235881
H116	H	1.329208	-0.568027	0.301273
