data_functionalizedCrystal
_audit_creation_method	'MofGen! by Chris Wilmer'
_symmetry_space_group_name_H-M	'P1'
_symmetry_Int_Tables_number	1
_symmetry_cell_setting	triclinic
loop_
_symmetry_equiv_pos_as_xyz
  x,y,z
_cell_length_a	12.759401
_cell_length_b	21.395361
_cell_length_c	21.395355
_cell_angle_alpha	90.021511
_cell_angle_beta	89.977260
_cell_angle_gamma	89.967767
loop_
_atom_site_label
_atom_site_type_symbol
_atom_site_fract_x
_atom_site_fract_y
_atom_site_fract_z
Zn1	Zn	1.606168	0.249486	-0.354218
Zn2	Zn	1.606005	0.354245	-0.249435
Zn3	Zn	1.430461	0.249489	-0.249458
Zn4	Zn	1.430410	0.354232	-0.354179
O5	O	1.518261	0.301863	-0.301822
O6	O	1.753167	0.263387	-0.340325
O7	O	1.582672	0.340356	-0.161760
O8	O	1.453859	0.161810	-0.263381
O9	O	1.753047	0.340353	-0.263342
O10	O	1.582950	0.161808	-0.340348
O11	O	1.453701	0.263392	-0.161777
O12	O	1.283433	0.263379	-0.263343
O13	O	1.453771	0.340330	-0.441862
O14	O	1.283395	0.340333	-0.340280
O15	O	1.582900	0.263374	-0.441891
O16	O	1.582621	0.441922	-0.263303
O17	O	1.453613	0.441912	-0.340258
C18	C	1.245294	0.301855	-0.301810
C19	C	1.128517	0.301867	-0.301820
C20	C	1.518122	0.464651	-0.301788
C21	C	1.518159	0.534292	-0.301794
C22	C	1.518348	0.301850	-0.465246
C23	C	1.518385	0.301845	-0.534887
C24	C	1.073663	0.341998	-0.341818
C25	C	0.963939	0.342001	-0.341830
C26	C	0.963933	0.261739	-0.261841
C27	C	1.073655	0.261734	-0.261832
C28	C	0.814036	0.364504	-0.415693
C29	C	0.759178	0.404645	-0.455686
C30	C	0.794748	0.465794	-0.465189
C31	C	0.885173	0.486813	-0.434689
C32	C	0.940026	0.446676	-0.394692
C33	C	0.904458	0.385519	-0.385201
C34	C	1.223559	0.239237	-0.187968
C35	C	1.278414	0.199102	-0.147967
C36	C	1.242846	0.137952	-0.138458
C37	C	1.152417	0.116935	-0.168947
C38	C	1.097563	0.157070	-0.208948
C39	C	1.133138	0.218219	-0.218458
C40	C	1.792294	0.301871	-0.301835
C41	C	1.909071	0.301875	-0.301841
C42	C	1.518429	0.138440	-0.301871
C43	C	1.518500	0.068798	-0.301892
C44	C	1.585393	0.566989	-0.261764
C45	C	1.585442	0.632425	-0.261778
C46	C	1.518238	0.665160	-0.301815
C47	C	1.450999	0.632455	-0.341852
C48	C	1.450959	0.567021	-0.341841
C49	C	1.423640	0.768877	-0.306727
C50	C	1.423678	0.834310	-0.306733
C51	C	1.518360	0.866981	-0.301852
C52	C	1.613008	0.834211	-0.296951
C53	C	1.612969	0.768777	-0.296940
C54	C	1.518274	0.736112	-0.301832
C55	C	1.585653	0.970631	-0.261836
C56	C	1.585704	1.036067	-0.261854
C57	C	1.451251	1.036096	-0.341925
C58	C	1.451210	0.970661	-0.341909
C59	C	1.518410	0.937932	-0.301862
C60	C	1.585620	0.261772	-0.567616
C61	C	1.585618	0.261745	-0.633052
C62	C	1.518393	0.301802	-0.665756
C63	C	1.451146	0.341878	-0.633018
C64	C	1.451142	0.341899	-0.567584
C65	C	1.510050	0.358218	-0.769418
C66	C	1.510061	0.358197	-0.834851
C67	C	1.518400	0.301736	-0.867576
C68	C	1.526749	0.245293	-0.834860
C69	C	1.526745	0.245314	-0.769426
C70	C	1.518390	0.301783	-0.736708
C71	C	1.585637	0.261630	-0.971258
C72	C	1.585628	0.261602	-1.036695
C73	C	1.451161	0.341741	-1.036660
C74	C	1.451164	0.341763	-0.971225
C75	C	1.518408	0.301709	-0.938528
C76	C	1.518234	0.301830	-0.139035
C77	C	1.518401	0.301659	-0.069394
H78	H	1.118328	0.374676	-0.374380
H79	H	1.252534	0.289028	-0.195713
H80	H	1.396208	0.540398	-0.374439
H81	H	0.914120	0.536609	-0.442424
O82	O	1.378670	0.935398	-0.385079
H83	H	1.425640	0.905546	-0.416984
H84	H	0.750075	0.498476	-0.497752
H85	H	1.640384	0.229012	-0.944635
H86	H	1.396414	0.374350	-1.063287
H87	H	1.640375	0.943982	-0.229228
H88	H	1.396421	0.374399	-0.944576
H89	H	1.640114	0.540343	-0.229157
H90	H	1.013648	0.463790	-0.369859
O91	O	1.501045	0.419070	-0.870137
H92	H	1.495220	0.458333	-0.836390
O93	O	1.657952	0.667704	-0.218598
H94	H	1.704667	0.633952	-0.190745
O95	O	0.661657	0.381976	-0.488589
H96	H	0.646148	0.332706	-0.475274
O97	O	1.658136	0.218510	-0.668351
H98	H	1.611140	0.186616	-0.698145
H99	H	1.690033	0.742097	-0.292952
H100	H	1.640377	0.228966	-1.063342
O101	O	0.775653	0.298555	-0.405426
H102	H	0.703544	0.290692	-0.433338
O103	O	1.658139	0.218570	-0.532349
H104	H	1.704887	0.190697	-0.566105
H105	H	1.690108	0.860810	-0.292976
H106	H	1.123445	0.067146	-0.161194
H107	H	1.640461	1.062689	-0.229259
O108	O	1.000024	0.134412	-0.241838
H109	H	1.019923	0.093737	-0.271801
O110	O	1.501042	0.419118	-0.734123
H111	H	1.495249	0.458361	-0.767863
O112	O	1.378634	0.385083	-0.668286
H113	H	1.389937	0.378340	-0.719286
O114	O	0.904762	0.218474	-0.218691
H115	H	0.819249	0.225229	-0.225406
O116	O	1.378620	0.385126	-0.532282
H117	H	1.389909	0.378409	-0.481288
O118	O	1.302008	0.094660	-0.095314
H119	H	1.370865	0.119545	-0.075708
O120	O	1.378758	1.071393	-0.385106
H121	H	1.390074	1.122387	-0.378387
H122	H	1.346609	0.860986	-0.310718
H123	H	1.396282	0.659112	-0.374451
O124	O	1.321507	0.733645	-0.311988
H125	H	1.323108	0.703812	-0.354431
H126	H	1.352046	0.216220	-0.123141
O127	O	1.535749	0.184442	-0.734138
H128	H	1.468974	0.153673	-0.746678
O129	O	1.535716	0.184387	-0.870145
H130	H	1.534294	0.193850	-0.921141
