data_functionalizedCrystal
_audit_creation_method	'MofGen! by Chris Wilmer'
_symmetry_space_group_name_H-M	'P1'
_symmetry_Int_Tables_number	1
_symmetry_cell_setting	triclinic
loop_
_symmetry_equiv_pos_as_xyz
  x,y,z
_cell_length_a	18.426585
_cell_length_b	21.606444
_cell_length_c	21.606444
_cell_angle_alpha	60.003167
_cell_angle_beta	89.999687
_cell_angle_gamma	60.000201
loop_
_atom_site_label
_atom_site_type_symbol
_atom_site_fract_x
_atom_site_fract_y
_atom_site_fract_z
Zr1	Zr	0.699104	0.677469	-0.081212
O2	O	0.583229	0.806579	-0.180028
O3	O	0.734628	0.548354	-0.050923
O4	O	0.734629	0.677466	-0.180036
O5	O	0.583225	0.677471	0.050934
O6	O	0.854055	0.677471	-0.180038
O7	O	0.583227	0.677466	-0.050916
O8	O	0.854052	0.446511	0.050921
O9	O	0.583228	0.908430	-0.180025
O10	O	0.838903	0.601466	-0.038003
O11	O	0.749774	0.601466	0.038008
O12	O	0.749777	0.753480	-0.114006
O13	O	0.660648	0.753480	-0.037995
Zr14	Zr	0.889571	0.677483	0.081222
Zr15	Zr	0.889575	0.677476	-0.081217
Zr16	Zr	0.699100	0.677476	0.081226
Zr17	Zr	0.699102	0.839910	-0.081207
Zr18	Zr	0.889573	0.515043	0.081217
O19	O	0.854048	0.806599	0.050933
O20	O	0.854054	0.806589	-0.180034
O21	O	0.583223	0.806589	0.050938
O22	O	1.005446	0.548373	0.180038
O23	O	1.005452	0.548363	-0.050929
O24	O	0.734621	0.548363	0.180044
O25	O	1.005451	0.677482	-0.050925
O26	O	0.854046	0.677486	0.180045
O27	O	0.734620	0.677482	0.180048
O28	O	1.005448	0.677486	0.050925
O29	O	0.734627	0.908435	-0.180028
O30	O	0.854049	0.446517	0.180038
O31	O	1.005447	0.446522	0.180035
O32	O	1.005451	0.446517	0.050918
O33	O	0.583225	0.908436	-0.050908
O34	O	0.734623	0.908441	-0.050911
O35	O	0.838899	0.601473	0.114015
O36	O	0.928027	0.601473	0.038004
O37	O	0.838901	0.753486	-0.037998
O38	O	0.749773	0.753486	0.038013
C39	C	0.794340	0.474288	-0.000002
C40	C	0.794341	0.405328	-0.000004
C41	C	0.840863	0.372930	-0.039682
C42	C	0.840866	0.308130	-0.039677
C43	C	0.794342	0.275734	0.000002
C44	C	0.747818	0.308134	0.039685
C45	C	0.747821	0.372928	0.039684
C46	C	0.747808	0.046825	0.039692
C47	C	0.747806	-0.017972	0.039688
C48	C	0.840853	-0.017973	-0.039670
C49	C	0.840856	0.046821	-0.039671
C50	C	0.794336	0.079213	0.000015
C51	C	0.794335	0.149475	0.000010
C52	C	0.794337	0.205477	0.000003
C53	C	0.556088	0.677468	0.000010
C54	C	0.475228	0.677465	0.000012
C55	C	0.179114	0.677491	-0.000002
C56	C	0.261500	0.677487	0.000000
C57	C	0.327168	0.677478	0.000004
C58	C	0.409560	0.677474	0.000007
C59	C	1.032587	0.677485	-0.000000
C60	C	1.113447	0.677488	-0.000002
C61	C	0.794343	0.677468	-0.203181
C62	C	0.794345	0.677465	-0.272141
C63	C	0.794335	0.880664	0.000011
C64	C	0.794334	0.949624	0.000014
C65	C	0.747810	0.756837	-0.735123
C66	C	0.747808	0.756835	-0.670326
C67	C	0.794332	0.677482	-0.598256
C68	C	0.840854	0.598127	-0.590984
C69	C	0.840850	0.598130	-0.655781
C70	C	0.840869	0.598112	-0.329666
C71	C	0.840871	0.598115	-0.264868
C72	C	0.747827	0.756816	-0.344211
C73	C	0.747823	0.756819	-0.409008
C74	C	0.794340	0.677465	-0.401731
C75	C	0.794341	0.677468	-0.471992
C76	C	0.794337	0.677478	-0.527996
C77	C	0.794332	0.677485	0.203191
C78	C	0.794330	0.677488	0.272150
C79	C	1.032590	0.474297	-0.000007
C80	C	1.113450	0.405340	-0.000011
C81	C	0.794335	0.474297	0.203184
C82	C	0.794334	0.405340	0.272141
C83	C	1.032584	0.474306	0.203179
C84	C	1.113443	0.405351	0.272134
C85	C	0.556091	0.880647	-0.203169
C86	C	0.475232	0.949601	-0.272125
C87	C	0.556086	0.880656	0.000017
C88	C	0.475225	0.949613	0.000021
C89	C	0.794340	0.880656	-0.203175
C90	C	0.794341	0.949613	-0.272132
C91	C	1.104901	0.372953	-0.039695
C92	C	1.180871	0.308169	-0.039714
C93	C	1.265389	0.275769	-0.000044
C94	C	1.273936	0.308162	0.039641
C95	C	1.197967	0.372949	0.039655
C96	C	0.840855	0.372960	0.344206
C97	C	0.840851	0.308177	0.409005
C98	C	0.794330	0.275769	0.401737
C99	C	0.747803	0.308155	0.329665
C100	C	0.747802	0.372942	0.264868
C101	C	1.197947	0.372970	0.264839
C102	C	1.273930	0.308189	0.329624
C103	C	1.265406	0.275786	0.401703
C104	C	1.180893	0.308174	0.408996
C105	C	1.104913	0.372959	0.344212
C106	C	0.390728	0.981991	-0.264830
C107	C	0.314745	1.046792	-0.329615
C108	C	0.323269	1.079198	-0.401694
C109	C	0.407782	1.046805	-0.408987
C110	C	0.483763	0.982010	-0.344203
C111	C	0.483774	0.982006	0.039697
C112	C	0.407804	1.046808	0.039699
C113	C	0.323286	1.079210	0.000027
C114	C	0.314739	1.046815	-0.039655
C115	C	0.390708	0.982019	-0.039660
C116	C	0.840872	0.981999	-0.264840
C117	C	0.840890	1.046783	-0.329626
C118	C	0.794372	1.079184	-0.401704
C119	C	0.747841	1.046791	-0.408994
C120	C	0.747828	0.982004	-0.344209
H121	H	0.709932	0.073187	0.072010
H122	H	0.878780	1.073151	-0.323675
H123	H	0.383735	0.955646	-0.071968
C124	C	0.892014	0.510847	-0.647781
H125	H	0.919726	0.463586	-0.595579
H126	H	0.851848	0.507556	-0.671408
H127	H	0.936044	0.507543	-0.671409
H128	H	1.036108	0.399315	0.350163
H129	H	0.414781	1.073173	0.072015
C130	C	0.576714	0.946354	-0.352233
H131	H	0.620752	0.903118	-0.303331
H132	H	0.583339	0.921089	-0.379161
H133	H	0.583401	0.992858	-0.379155
H134	H	1.173894	0.281803	-0.072030
C135	C	1.207340	0.408603	0.185561
H136	H	1.268555	0.380039	0.190506
H137	H	1.179644	0.397979	0.158633
H138	H	1.179633	0.469778	0.158641
H139	H	0.552586	0.955629	0.072008
H140	H	1.342737	0.281825	0.323672
C141	C	0.417146	1.082450	-0.488276
H142	H	0.359788	1.125670	-0.525808
H143	H	0.448714	1.107731	-0.493974
H144	H	0.448702	1.035934	-0.493966
C145	C	0.696647	-0.053625	0.083354
H146	H	0.668954	-0.025065	0.107000
H147	H	0.652618	-0.043016	0.049121
H148	H	0.736824	-0.114799	0.120896
H149	H	1.342761	0.281772	0.071938
H150	H	0.709928	0.821448	-0.676255
C151	C	0.892034	0.510841	-0.511710
H152	H	0.885384	0.522202	-0.474160
H153	H	0.869064	0.478231	-0.506022
H154	H	0.953244	0.478245	-0.506038
H155	H	0.709967	1.073182	-0.467689
H156	H	1.327241	0.223015	-0.000061
H157	H	0.261393	1.131958	-0.454439
C158	C	1.171529	0.272518	0.488285
H159	H	1.228888	0.229290	0.525817
H160	H	1.139962	0.319019	0.493988
H161	H	1.139973	0.247225	0.493971
H162	H	1.036089	0.399333	-0.072008
H163	H	1.204940	0.399309	0.071975
H164	H	1.327282	0.223035	0.454448
H165	H	0.709942	0.281747	0.071997
C166	C	0.239728	1.150482	0.000040
H167	H	0.256932	1.165123	0.029360
H168	H	0.205354	1.201038	-0.050504
H169	H	0.205357	1.129242	0.021292
H170	H	0.245914	1.073207	-0.071955
C171	C	0.892048	0.946367	-0.185563
H172	H	0.919767	0.974935	-0.190510
H173	H	0.851896	0.956988	-0.158632
H174	H	0.936075	0.885193	-0.158643
C175	C	0.794385	1.150455	-0.472961
H176	H	0.828754	1.165105	-0.458289
H177	H	0.819294	1.129227	-0.502281
H178	H	0.735109	1.201015	-0.502268
C179	C	0.892027	0.408602	0.352212
H180	H	0.885376	0.451821	0.303304
H181	H	0.869045	0.433884	0.379131
H182	H	0.953238	0.362086	0.379134
C183	C	0.381335	0.946365	-0.185552
H184	H	0.320120	0.974952	-0.190497
H185	H	0.409030	0.885195	-0.158622
H186	H	0.409043	0.956994	-0.158633
C187	C	0.696636	0.408549	0.185598
H188	H	0.703288	0.451779	0.148042
H189	H	0.719616	0.362023	0.179927
H190	H	0.635425	0.433826	0.179919
H191	H	0.709942	0.821436	-0.467688
H192	H	0.709946	0.821430	-0.350130
C193	C	0.696630	0.946396	-0.352239
H194	H	0.668923	0.974982	-0.404446
H195	H	0.736770	0.885225	-0.328619
H196	H	0.652592	0.957032	-0.328619
H197	H	0.878744	0.399308	-0.071998
H198	H	0.709926	0.281760	0.323758
H199	H	0.878757	0.533492	-0.206184
H200	H	0.878748	0.281752	-0.071985
H201	H	0.878737	0.073200	-0.071984
H202	H	0.709935	0.399308	0.071992
C203	C	0.892062	0.510826	-0.321655
H204	H	0.919784	0.463569	-0.269452
H205	H	0.851922	0.507507	-0.345277
H206	H	0.936089	0.507544	-0.345286
H207	H	0.878735	-0.044356	-0.071982
H208	H	0.878742	0.281816	0.467683
C209	C	0.696634	0.844124	-0.814397
H210	H	0.703300	0.832764	-0.851947
H211	H	0.635428	0.876726	-0.820075
H212	H	0.719616	0.876727	-0.820077
H213	H	0.794337	0.223016	0.454505
C214	C	0.221793	1.082404	-0.321579
H215	H	0.227606	1.053809	-0.269371
H216	H	0.190215	1.143572	-0.345189
H217	H	0.190219	1.071781	-0.345207
