data_functionalizedCrystal
_audit_creation_method	'MofGen! by Chris Wilmer'
_symmetry_space_group_name_H-M	'P1'
_symmetry_Int_Tables_number	1
_symmetry_cell_setting	triclinic
loop_
_symmetry_equiv_pos_as_xyz
  x,y,z
_cell_length_a	18.215407
_cell_length_b	19.077442
_cell_length_c	18.215399
_cell_angle_alpha	87.675289
_cell_angle_beta	89.980167
_cell_angle_gamma	87.726626
loop_
_atom_site_label
_atom_site_type_symbol
_atom_site_fract_x
_atom_site_fract_y
_atom_site_fract_z
Zn1	Zn	1.136838	-0.280195	-0.404360
Zn2	Zn	1.470171	0.053138	-0.071026
Zn3	Zn	1.803505	0.386471	0.262307
Zn4	Zn	1.141689	-0.397895	-0.276355
Zn5	Zn	1.475022	-0.064562	0.056979
Zn6	Zn	1.808356	0.268772	0.390312
Zn7	Zn	1.013772	-0.280218	-0.281306
Zn8	Zn	1.347105	0.053115	0.052027
Zn9	Zn	1.680438	0.386448	0.385361
Zn10	Zn	1.018677	-0.397856	-0.399381
Zn11	Zn	1.352011	-0.064522	-0.066048
Zn12	Zn	1.685344	0.268811	0.267285
O13	O	1.077744	-0.339041	-0.340350
O14	O	1.411077	-0.005708	-0.007017
O15	O	1.744411	0.327626	0.326316
O16	O	1.240466	-0.295815	-0.387391
O17	O	1.573799	0.037518	-0.054057
O18	O	1.907133	0.370851	0.279276
O19	O	1.124697	-0.382311	-0.174026
O20	O	1.458031	-0.048978	0.159307
O21	O	1.791364	0.284356	0.492640
O22	O	1.026013	-0.181726	-0.301785
O23	O	1.359347	0.151607	0.031549
O24	O	1.692680	0.484941	0.364882
O25	O	1.244030	-0.382289	-0.293346
O26	O	1.577363	-0.048955	0.039987
O27	O	1.910697	0.284378	0.373320
O28	O	1.116430	-0.181709	-0.392192
O29	O	1.449763	0.151624	-0.058858
O30	O	1.783096	0.484958	0.274475
O31	O	1.030717	-0.295854	-0.177664
O32	O	1.364050	0.037479	0.155670
O33	O	1.697384	0.370812	0.489003
O34	O	0.911438	-0.295816	-0.296958
O35	O	1.244771	0.037517	0.036376
O36	O	1.578104	0.370850	0.369709
O37	O	1.034375	-0.382222	-0.503027
O38	O	1.367708	-0.048889	-0.169694
O39	O	1.701041	0.284445	0.163640
O40	O	0.915042	-0.382244	-0.383707
O41	O	1.248375	-0.048911	-0.050374
O42	O	1.581709	0.284422	0.282960
O43	O	1.121187	-0.295777	-0.506685
O44	O	1.454520	0.037556	-0.173351
O45	O	1.787853	0.370889	0.159982
O46	O	1.129454	-0.496379	-0.288519
O47	O	1.462788	-0.163046	0.044814
O48	O	1.796121	0.170288	0.378148
O49	O	1.039078	-0.496350	-0.378906
O50	O	1.372412	-0.163017	-0.045573
O51	O	1.705745	0.170316	0.287760
C52	C	0.886537	-0.339029	-0.340330
C53	C	1.219871	-0.005696	-0.006996
C54	C	1.553204	0.327638	0.326337
C55	C	0.804739	-0.339041	-0.340338
C56	C	1.138072	-0.005708	-0.007004
C57	C	1.471405	0.327626	0.326329
C58	C	0.618444	-0.384115	-0.385446
C59	C	0.951777	-0.050781	-0.052113
C60	C	1.285111	0.282552	0.281221
C61	C	0.541585	-0.384117	-0.385455
C62	C	0.874919	-0.050783	-0.052122
C63	C	1.208252	0.282550	0.281211
C64	C	0.537797	-0.293980	-0.295270
C65	C	0.871130	0.039353	0.038063
C66	C	1.204463	0.372686	0.371397
C67	C	0.614654	-0.293975	-0.295265
C68	C	0.947987	0.039358	0.038068
C69	C	1.281320	0.372691	0.371401
C70	C	0.654976	-0.339046	-0.340352
C71	C	0.988309	-0.005713	-0.007019
C72	C	1.321642	0.327620	0.326314
C73	C	0.501260	-0.339054	-0.340366
C74	C	0.834593	-0.005720	-0.007033
C75	C	1.167926	0.327613	0.326301
C76	C	0.417926	-0.339056	-0.340375
C77	C	0.751260	-0.005722	-0.007042
C78	C	1.084593	0.327611	0.326291
C79	C	0.738314	-0.339043	-0.340344
C80	C	1.071648	-0.005710	-0.007011
C81	C	1.404981	0.327623	0.326323
C82	C	1.085345	-0.521902	-0.332651
C83	C	1.418678	-0.188569	0.000682
C84	C	1.752012	0.144765	0.334015
C85	C	1.088664	-0.600131	-0.329382
C86	C	1.421997	-0.266797	0.003951
C87	C	1.755331	0.066536	0.337285
C88	C	1.112418	-1.040474	-0.305913
C89	C	1.445751	-0.707141	0.027420
C90	C	1.779085	-0.373807	0.360753
C91	C	1.109293	-0.966970	-0.308986
C92	C	1.442626	-0.633636	0.024347
C93	C	1.775959	-0.300303	0.357680
C94	C	1.060643	-0.930231	-0.357547
C95	C	1.393976	-0.596897	-0.024214
C96	C	1.727310	-0.263564	0.309120
C97	C	1.015110	-0.967000	-0.403032
C98	C	1.348444	-0.633666	-0.069699
C99	C	1.681777	-0.300333	0.263635
C100	C	1.018232	-1.040502	-0.399954
C101	C	1.351565	-0.707169	-0.066621
C102	C	1.684899	-0.373836	0.266712
C103	C	1.046253	-0.710402	-0.371790
C104	C	1.379587	-0.377069	-0.038456
C105	C	1.712920	-0.043736	0.294877
C106	C	1.043136	-0.636894	-0.374865
C107	C	1.376470	-0.303561	-0.041532
C108	C	1.709803	0.029772	0.291801
C109	C	1.137318	-0.636870	-0.280818
C110	C	1.470652	-0.303536	0.052515
C111	C	1.803985	0.029797	0.385848
C112	C	1.140439	-0.710374	-0.277748
C113	C	1.473772	-0.377040	0.055585
C114	C	1.807106	-0.043707	0.388918
C115	C	1.094904	-0.747136	-0.323230
C116	C	1.428237	-0.413803	0.010103
C117	C	1.761570	-0.080470	0.343436
N118	N	1.057449	-0.855098	-0.360691
N119	N	1.390782	-0.521764	-0.027358
N120	N	1.724116	-0.188431	0.305976
N121	N	1.098094	-0.822268	-0.320082
N122	N	1.431428	-0.488935	0.013251
N123	N	1.764761	-0.155601	0.346585
C124	C	1.269697	-0.339054	-0.340371
C125	C	1.603031	-0.005720	-0.007038
C126	C	1.936364	0.327613	0.326295
C127	C	1.351497	-0.339059	-0.340380
C128	C	1.684830	-0.005726	-0.007047
C129	C	2.018163	0.327608	0.326286
C130	C	1.077787	-0.338993	-0.532305
C131	C	1.411120	-0.005659	-0.198972
C132	C	1.744453	0.327674	0.134361
C133	C	1.077805	-0.338972	-0.614105
C134	C	1.411138	-0.005639	-0.280772
C135	C	1.744472	0.327695	0.052561
C136	C	1.070133	-0.155466	-0.348096
C137	C	1.403467	0.177867	-0.014762
C138	C	1.736800	0.511200	0.318571
C139	C	1.066890	-0.077238	-0.351396
C140	C	1.400223	0.256096	-0.018063
C141	C	1.733557	0.589429	0.315270
C142	C	1.123023	-0.293918	-0.804207
C143	C	1.456357	0.039415	-0.470873
C144	C	1.789690	0.372749	-0.137540
C145	C	1.123031	-0.293898	-0.881066
C146	C	1.456365	0.039436	-0.547733
C147	C	1.789698	0.372769	-0.214400
C148	C	1.032634	-0.383917	-0.877246
C149	C	1.365968	-0.050584	-0.543913
C150	C	1.699301	0.282750	-0.210580
C151	C	1.032623	-0.383933	-0.800388
C152	C	1.365956	-0.050600	-0.467055
C153	C	1.699290	0.282733	-0.133722
C154	C	1.077822	-0.338935	-0.763870
C155	C	1.411155	-0.005602	-0.430537
C156	C	1.744488	0.327732	-0.097204
C157	C	1.077841	-0.338898	-0.917588
C158	C	1.411174	-0.005565	-0.584255
C159	C	1.744508	0.327769	-0.250921
C160	C	1.077849	-0.338876	-1.000923
C161	C	1.411182	-0.005543	-0.667589
C162	C	1.744516	0.327791	-0.334256
C163	C	1.077813	-0.338956	-0.680530
C164	C	1.411146	-0.005622	-0.347197
C165	C	1.744479	0.327711	-0.013864
C166	C	1.077742	-0.339039	-0.149144
C167	C	1.411075	-0.005705	0.184189
C168	C	1.744408	0.327628	0.517522
C169	C	1.077858	-0.338861	-0.067353
C170	C	1.411191	-0.005528	0.265980
C171	C	1.744524	0.327806	0.599313
H172	H	0.644398	-0.257271	-0.258545
H173	H	0.977732	0.076062	0.074789
H174	H	1.311065	0.409396	0.408122
C175	C	0.968155	-1.080942	-0.449989
C176	C	1.301489	-0.747609	-0.116656
C177	C	1.634822	-0.414276	0.216677
H178	H	0.938739	-1.048536	-0.479357
H179	H	1.272072	-0.715203	-0.146023
H180	H	1.605406	-0.381869	0.187310
H181	H	0.937324	-1.109660	-0.420609
H182	H	1.270658	-0.776327	-0.087276
H183	H	1.603991	-0.442993	0.246058
H184	H	0.997512	-1.109572	-0.480883
H185	H	1.330845	-0.776239	-0.147550
H186	H	1.664179	-0.442906	0.185784
C187	C	1.172730	-0.244414	-0.764039
C188	C	1.506063	0.088920	-0.430706
C189	C	1.839396	0.422253	-0.097373
H190	H	1.199645	-0.217595	-0.799073
H191	H	1.532978	0.115738	-0.465740
H192	H	1.866311	0.449072	-0.132407
H193	H	1.205910	-0.271338	-0.732924
H194	H	1.539244	0.061995	-0.399590
H195	H	1.872577	0.395329	-0.066257
H196	H	1.143292	-0.213752	-0.735350
H197	H	1.476625	0.119581	-0.402017
H198	H	1.809959	0.452915	-0.068684
C199	C	0.493441	-0.244414	-0.245671
C200	C	0.826774	0.088919	0.087663
C201	C	1.160108	0.422252	0.420996
H202	H	0.442435	-0.250877	-0.252125
H203	H	0.775769	0.082456	0.081209
H204	H	1.109102	0.415790	0.414542
H205	H	0.504071	-0.197136	-0.258505
H206	H	0.837405	0.136197	0.074828
H207	H	1.170738	0.469530	0.408162
H208	H	0.506446	-0.254663	-0.195773
H209	H	0.839779	0.078671	0.137560
H210	H	1.173112	0.412004	0.470894
C211	C	0.996172	-0.750832	-0.421824
C212	C	1.329505	-0.417498	-0.088490
C213	C	1.662839	-0.084165	0.244843
H214	H	0.966759	-0.718422	-0.451190
H215	H	1.300092	-0.385089	-0.117857
H216	H	1.633425	-0.051755	0.215477
H217	H	0.965338	-0.779548	-0.392445
H218	H	1.298672	-0.446215	-0.059112
H219	H	1.632005	-0.112881	0.274221
H220	H	1.025527	-0.779463	-0.452718
H221	H	1.358860	-0.446129	-0.119385
H222	H	1.692194	-0.112796	0.213948
C223	C	1.159378	-0.926533	-0.258959
C224	C	1.492711	-0.593199	0.074374
C225	C	1.826045	-0.259866	0.407707
H226	H	1.188806	-0.958940	-0.229606
H227	H	1.522139	-0.625607	0.103728
H228	H	1.855473	-0.292274	0.437061
H229	H	1.130032	-0.897901	-0.228065
H230	H	1.463365	-0.564567	0.105269
H231	H	1.796698	-0.231234	0.438602
H232	H	1.190209	-0.897817	-0.288349
H233	H	1.523542	-0.564484	0.044984
H234	H	1.856876	-0.231150	0.378318
H235	H	0.975495	-0.937082	-0.442568
H236	H	1.308828	-0.603749	-0.109235
H237	H	1.642161	-0.270416	0.224098
C238	C	1.172756	-0.244382	-0.925433
C239	C	1.506090	0.088951	-0.592100
C240	C	1.839423	0.422284	-0.258766
H241	H	1.199675	-0.217591	-0.892674
H242	H	1.533009	0.115742	-0.559341
H243	H	1.866342	0.449075	-0.226007
H244	H	1.143340	-0.213707	-0.956705
H245	H	1.476673	0.119627	-0.623372
H246	H	1.810006	0.452960	-0.290038
H247	H	1.205945	-0.271306	-0.954284
H248	H	1.539278	0.062028	-0.620950
H249	H	1.872612	0.395361	-0.287617
H250	H	1.174390	-0.606931	-0.243788
H251	H	1.507724	-0.273598	0.089545
H252	H	1.841057	0.059736	0.422879
H253	H	0.511845	-0.420815	-0.422176
H254	H	0.845178	-0.087482	-0.088843
H255	H	1.178511	0.245852	0.244490
H256	H	0.995837	-0.420554	-0.906989
H257	H	1.329170	-0.087221	-0.573655
H258	H	1.662503	0.246112	-0.240322
H259	H	0.995809	-0.420591	-0.767545
H260	H	1.329143	-0.087258	-0.434212
H261	H	1.662476	0.246076	-0.100879
H262	H	1.152038	-1.070382	-0.266374
H263	H	1.485371	-0.737048	0.066959
H264	H	1.818704	-0.403715	0.400293
H265	H	1.180053	-0.740282	-0.238204
H266	H	1.513387	-0.406948	0.095130
H267	H	1.846720	-0.073615	0.428463
C268	C	0.662795	-0.433684	-0.435046
C269	C	0.996129	-0.100350	-0.101713
C270	C	1.329462	0.232983	0.231620
H271	H	0.630027	-0.460520	-0.461909
H272	H	0.963361	-0.127186	-0.128575
H273	H	1.296694	0.206147	0.204758
H274	H	0.694041	-0.464316	-0.405556
H275	H	1.027375	-0.130982	-0.072222
H276	H	1.360708	0.202351	0.261111
H277	H	0.691669	-0.406790	-0.468289
H278	H	1.025003	-0.073457	-0.134956
H279	H	1.358336	0.259876	0.198378
H280	H	1.003518	-0.606985	-0.414412
H281	H	1.336851	-0.273651	-0.081079
H282	H	1.670184	0.059682	0.252255
