data_functionalizedCrystal
_audit_creation_method	'MofGen! by Chris Wilmer'
_symmetry_space_group_name_H-M	'P1'
_symmetry_Int_Tables_number	1
_symmetry_cell_setting	triclinic
loop_
_symmetry_equiv_pos_as_xyz
  x,y,z
_cell_length_a	6.394989
_cell_length_b	10.654550
_cell_length_c	9.730223
_cell_angle_alpha	90.000043
_cell_angle_beta	90.001437
_cell_angle_gamma	85.491321
loop_
_atom_site_label
_atom_site_type_symbol
_atom_site_fract_x
_atom_site_fract_y
_atom_site_fract_z
O1	O	-0.293441	-1.670947	-0.114177
O2	O	-0.321399	-1.305765	-0.114202
O3	O	-0.003431	-1.493539	-0.114190
O4	O	-0.611409	-1.483172	-0.114189
O5	O	-0.003422	-1.493527	0.114390
O6	O	-0.321390	-1.305752	0.114378
O7	O	-0.293433	-1.670934	0.114403
Zn8	Zn	-0.307410	-1.488341	0.150682
Zn9	Zn	-0.307421	-1.488358	-0.150482
O10	O	-0.611400	-1.483160	0.114391
C11	C	-0.319341	-1.258939	0.000085
C12	C	-0.313200	-1.119430	0.000075
C13	C	-0.295490	-1.717760	0.000113
C14	C	-0.301631	-1.857269	0.000113
N15	N	-0.307401	-1.488339	0.356219
C16	C	0.074425	-1.491483	0.000094
C17	C	0.310750	-1.485219	0.000093
N18	N	-0.307414	-1.488369	-0.356018
C19	C	-0.500414	-1.041927	0.000080
C20	C	-0.494631	-0.910845	0.000104
C21	C	-0.114403	-0.934782	0.000113
C22	C	-0.120188	-1.065861	0.000099
C23	C	-0.166665	-1.571516	0.428150
C24	C	-0.166665	-1.571528	0.572033
C25	C	-0.448157	-1.405184	0.572041
C26	C	-0.448144	-1.405166	0.428161
H27	H	-0.647080	-0.847747	0.000110
H28	H	-0.562750	-1.337468	0.630630
H29	H	-0.052063	-1.639256	0.630595
O30	O	-0.585159	-1.324494	0.358342
C31	C	-0.792301	-1.348158	0.393505
H32	H	-0.794889	-1.448742	0.433043
H33	H	-0.896918	-1.335353	0.298877
H34	H	-0.852598	-1.279515	0.477027
O35	O	-0.688076	-1.093760	0.000129
C36	C	-0.852074	-0.997239	0.000106
H37	H	-0.792211	-0.907315	0.043392
H38	H	-0.986706	-1.026746	0.066465
H39	H	-0.909917	-0.979607	-0.109554
O40	O	0.061741	-1.141103	-0.000151
C41	C	0.178839	-1.116327	-0.118512
H42	H	0.069200	-1.073282	-0.201255
H43	H	0.261262	-1.207958	-0.158254
H44	H	0.300743	-1.047709	-0.091737
H45	H	0.042741	-0.891149	0.000141
O46	O	-0.029738	-1.652342	0.358477
C47	C	0.094444	-1.725777	0.452827
H48	H	0.097588	-1.674253	0.555397
H49	H	0.261003	-1.742299	0.411265
H50	H	0.025162	-1.820159	0.468111
