data_functionalizedCrystal
_audit_creation_method	'MofGen! by Chris Wilmer'
_symmetry_space_group_name_H-M	'P1'
_symmetry_Int_Tables_number	1
_symmetry_cell_setting	triclinic
loop_
_symmetry_equiv_pos_as_xyz
  x,y,z
_cell_length_a	16.109302
_cell_length_b	16.109301
_cell_length_c	18.366186
_cell_angle_alpha	89.992337
_cell_angle_beta	89.989012
_cell_angle_gamma	83.461631
loop_
_atom_site_label
_atom_site_type_symbol
_atom_site_fract_x
_atom_site_fract_y
_atom_site_fract_z
O1	O	1.103137	0.106871	-0.060585
O2	O	0.861075	0.120170	-0.060579
O3	O	0.988756	-0.007510	-0.060575
O4	O	0.975456	0.234552	-0.060589
O5	O	0.988734	-0.007517	0.060525
O6	O	0.861053	0.120164	0.060520
O7	O	1.103115	0.106865	0.060515
Zn8	Zn	0.982081	0.113513	0.079745
Zn9	Zn	0.982109	0.113522	-0.079809
O10	O	0.975435	0.234545	0.060510
C11	C	0.830089	0.119628	-0.000029
C12	C	0.737794	0.118013	-0.000026
C13	C	0.525441	0.114274	0.065978
C14	C	0.438721	0.112747	0.065975
C15	C	0.438755	0.112758	-0.066054
C16	C	0.525475	0.114279	-0.066051
C17	C	0.568815	0.115041	-0.000033
C18	C	0.395375	0.111994	-0.000038
C19	C	0.301350	0.110338	-0.000041
C20	C	0.662847	0.116695	-0.000029
C21	C	0.988206	-0.038488	-0.000025
C22	C	0.986591	-0.130784	-0.000024
C23	C	1.058599	-0.353056	-0.000037
C24	C	1.057074	-0.439776	-0.000043
C25	C	0.905586	-0.419902	-0.000036
C26	C	0.907111	-0.333184	-0.000036
C27	C	0.983620	-0.299763	-0.000032
C28	C	0.980571	-0.473202	-0.000039
C29	C	0.978918	-0.567228	-0.000045
C30	C	0.985273	-0.205731	-0.000027
C31	C	1.134101	0.107407	-0.000037
C32	C	1.226396	0.109022	-0.000044
C33	C	0.975984	0.265523	-0.000041
C34	C	0.977599	0.357819	-0.000047
N35	N	0.982067	0.113507	0.188636
N36	N	0.982129	0.113521	-0.188700
C37	C	1.038623	0.056998	0.226738
C38	C	1.038628	0.056994	0.302966
C39	C	0.982086	0.113514	0.341088
C40	C	0.925520	0.170027	0.302977
C41	C	0.925510	0.170024	0.226750
C42	C	0.971173	0.189236	0.461844
C43	C	0.971188	0.189241	0.538069
C44	C	0.982109	0.113524	0.576196
C45	C	0.993034	0.037800	0.538088
C46	C	0.993025	0.037797	0.461862
C47	C	0.982089	0.113524	0.423743
C48	C	1.038674	0.057007	0.696953
C49	C	1.038673	0.057002	0.773183
C50	C	0.925569	0.170042	0.773192
C51	C	0.925565	0.170040	0.696964
C52	C	0.982122	0.113523	0.658849
H53	H	1.120897	-0.325848	-0.000035
H54	H	0.843295	-0.447124	-0.000038
H55	H	1.084673	0.010977	0.195707
H56	H	0.560726	0.114894	0.119734
C57	C	0.824628	-0.274555	-0.000029
C58	C	0.761938	-0.278270	-0.062908
C59	C	0.679459	-0.219642	-0.062904
C60	C	0.659670	-0.157298	-0.000021
C61	C	0.722362	-0.153580	0.062864
C62	C	0.804840	-0.212209	0.062860
H63	H	0.776585	-0.324423	-0.109463
H64	H	0.633051	-0.222394	-0.109456
H65	H	0.598615	-0.113898	-0.000018
H66	H	0.707714	-0.107428	0.109418
H67	H	0.851249	-0.209456	0.109411
H68	H	0.403457	0.112139	-0.119803
C69	C	0.863300	0.232192	0.184832
C70	C	0.801125	0.294388	0.226758
C71	C	0.738916	0.356558	0.184838
C72	C	0.738882	0.356531	0.100992
C73	C	0.801060	0.294333	0.059062
C74	C	0.863269	0.232163	0.100982
H75	H	0.801147	0.294410	0.288830
H76	H	0.692888	0.402601	0.215879
H77	H	0.692831	0.402553	0.069961
H78	H	0.801037	0.294311	-0.003010
H79	H	0.909297	0.186119	0.069941
H80	H	0.560790	0.114902	-0.119808
C81	C	1.139553	-0.498399	-0.000046
C82	C	1.223706	-0.461633	-0.000043
C83	C	1.306188	-0.520256	-0.000048
C84	C	1.304518	-0.615644	-0.000055
C85	C	1.220362	-0.652415	-0.000057
C86	C	1.137880	-0.593792	-0.000052
H87	H	1.224945	-0.391017	-0.000038
H88	H	1.368486	-0.493036	-0.000046
H89	H	1.365576	-0.659040	-0.000058
H90	H	1.219123	-0.723031	-0.000062
H91	H	1.075582	-0.621012	-0.000054
C92	C	0.391010	0.111904	0.138588
C93	C	0.438686	0.112740	0.211202
C94	C	0.390976	0.111894	0.283818
C95	C	0.295589	0.110214	0.283821
C96	C	0.247908	0.109378	0.211204
C97	C	0.295618	0.110224	0.138588
H98	H	0.509302	0.113984	0.211202
H99	H	0.426274	0.112513	0.337573
H100	H	0.260271	0.109588	0.337576
H101	H	0.177292	0.108134	0.211204
H102	H	0.260320	0.109605	0.084833
C103	C	1.100848	-0.005166	0.344889
C104	C	1.163080	-0.067305	0.302962
C105	C	1.225301	-0.129463	0.344882
C106	C	1.225289	-0.129483	0.428728
C107	C	1.163055	-0.067342	0.470659
C108	C	1.100834	-0.005183	0.428740
H109	H	1.163091	-0.067292	0.240890
H110	H	1.271371	-0.175464	0.313841
H111	H	1.271349	-0.175496	0.459759
H112	H	1.163044	-0.067354	0.532731
H113	H	1.054764	0.040818	0.459780
C114	C	1.100877	-0.005167	0.655023
C115	C	1.164447	0.027335	0.602602
C116	C	1.226650	-0.034840	0.560675
C117	C	1.225283	-0.129517	0.571169
C118	C	1.161710	-0.162024	0.623592
C119	C	1.099507	-0.099849	0.665519
H120	H	1.165461	0.097425	0.594832
H121	H	1.273711	-0.010776	0.521868
H122	H	1.271329	-0.175543	0.540132
H123	H	1.160696	-0.232115	0.631362
H124	H	1.052446	-0.123914	0.704326
H125	H	0.879528	0.216058	0.804231
C126	C	1.005025	-0.045494	0.419943
C127	C	1.017034	-0.128786	0.461870
C128	C	1.029027	-0.212077	0.419950
C129	C	1.029010	-0.212077	0.336104
C130	C	1.017001	-0.128783	0.294173
C131	C	1.005008	-0.045491	0.336092
H132	H	1.017047	-0.128788	0.523942
H133	H	1.037917	-0.273738	0.450991
H134	H	1.037888	-0.273735	0.305073
H135	H	1.016988	-0.128780	0.232101
H136	H	0.996117	0.016169	0.305051
C137	C	1.100887	-0.005162	0.815100
C138	C	1.163113	-0.067308	0.773174
C139	C	1.225328	-0.129472	0.815094
C140	C	1.225317	-0.129491	0.898940
C141	C	1.163089	-0.067343	0.940871
C142	C	1.100874	-0.005178	0.898951
H143	H	1.163123	-0.067296	0.711102
H144	H	1.271393	-0.175478	0.784053
H145	H	1.271372	-0.175508	0.929971
H146	H	1.163079	-0.067354	1.002943
H147	H	1.054809	0.040828	0.929992
H148	H	1.001927	-0.023856	0.569129
H149	H	0.879516	0.216058	0.665939
C150	C	0.959170	0.272534	0.579984
C151	C	0.947137	0.355821	0.538051
C152	C	0.935118	0.439116	0.579963
C153	C	0.935132	0.439125	0.663809
C154	C	0.947165	0.355835	0.705747
C155	C	0.959184	0.272540	0.663835
H156	H	0.947127	0.355817	0.475979
H157	H	0.926210	0.500772	0.548918
H158	H	0.926234	0.500785	0.694836
H159	H	0.947175	0.355839	0.767819
H160	H	0.968091	0.210883	0.694880
C161	C	0.959155	0.272529	0.419906
C162	C	1.027552	0.295553	0.367477
C163	C	1.015532	0.378841	0.325538
C164	C	0.935115	0.439106	0.336029
C165	C	0.866712	0.416084	0.388461
C166	C	0.878732	0.332796	0.430400
H167	H	1.087087	0.250940	0.359708
H168	H	1.066169	0.395883	0.286724
H169	H	0.926217	0.500761	0.304983
H170	H	0.807178	0.460697	0.396229
H171	H	0.828096	0.315754	0.469213
H172	H	0.879481	0.216045	0.334020
