data_functionalizedCrystal
_audit_creation_method	'MofGen! by Chris Wilmer'
_symmetry_space_group_name_H-M	'P1'
_symmetry_Int_Tables_number	1
_symmetry_cell_setting	triclinic
loop_
_symmetry_equiv_pos_as_xyz
  x,y,z
_cell_length_a	10.489741
_cell_length_b	19.188930
_cell_length_c	8.965430
_cell_angle_alpha	89.995304
_cell_angle_beta	89.998843
_cell_angle_gamma	83.841978
loop_
_atom_site_label
_atom_site_type_symbol
_atom_site_fract_x
_atom_site_fract_y
_atom_site_fract_z
O1	O	1.691851	0.098497	-0.123966
O2	O	1.320449	0.107743	-0.123991
O3	O	1.516868	0.001536	-0.123949
O4	O	1.495432	0.204704	-0.124008
O5	O	1.516851	0.001543	0.124130
O6	O	1.320432	0.107750	0.124088
O7	O	1.691834	0.098504	0.124113
Cu8	Cu	1.506132	0.103128	0.146752
Cu9	Cu	1.506151	0.103120	-0.146630
O10	O	1.495415	0.204711	0.124070
C11	C	1.272924	0.107048	0.000046
C12	C	1.131341	0.104959	0.000037
C13	C	1.064712	0.037383	0.000071
C14	C	0.971880	0.069302	-0.122251
C15	C	0.971897	0.069325	0.122336
C16	C	1.040374	0.136906	-0.122386
C17	C	1.040401	0.136919	0.122310
C18	C	0.947595	0.168887	-0.000041
C19	C	1.516165	-0.024476	0.000095
C20	C	1.514081	-0.101994	0.000108
C21	C	1.629334	-0.146146	0.000123
C22	C	1.627376	-0.218983	0.000099
C23	C	1.510159	-0.247665	0.000090
C24	C	1.394892	-0.203503	0.000066
C25	C	1.396853	-0.130668	0.000075
N26	N	1.420556	-0.356268	0.084510
N27	N	1.418701	-0.425459	0.084504
C28	C	1.504244	-0.467113	0.000059
N29	N	1.591732	-0.436964	-0.084362
N30	N	1.593591	-0.367767	-0.084350
C31	C	1.508020	-0.326642	0.000079
C32	C	1.617382	-0.590244	0.000046
C33	C	1.615419	-0.663081	0.000012
C34	C	1.382932	-0.647600	-0.000005
C35	C	1.384898	-0.574764	0.000013
C36	C	1.502126	-0.546090	0.000046
C37	C	1.739359	0.099199	0.000073
C38	C	1.880941	0.101288	0.000071
C39	C	1.496118	0.230723	0.000023
C40	C	1.498202	0.308242	0.000001
N41	N	1.506127	0.103133	0.353101
N42	N	1.506166	0.103109	-0.352979
C43	C	1.415262	0.152234	0.450387
C44	C	1.530443	0.166361	0.549804
C45	C	1.390995	0.089012	0.549812
C46	C	1.621366	0.117292	0.450329
C47	C	1.481842	0.039916	0.450328
C48	C	1.597106	0.054016	0.549700
H49	H	0.896927	0.224498	-0.000124
H50	H	1.721231	-0.254938	0.000105
O51	O	1.454567	-0.030865	0.392389
H52	H	1.366723	-0.024633	0.322534
O53	O	1.739737	-0.710704	0.000043
H54	H	1.795879	-0.700425	-0.101046
O55	O	1.755772	-0.115223	0.000146
H56	H	1.737779	-0.057158	0.000161
O57	O	1.262010	0.073196	0.607699
H58	H	1.186745	0.114037	0.567908
O59	O	1.313564	0.207278	0.392609
H60	H	1.359191	0.245429	0.322785
O61	O	1.080685	0.174770	0.259272
H62	H	1.186122	0.176411	0.257403
O63	O	1.080382	0.174723	-0.259551
H64	H	1.128036	0.221115	-0.225336
H65	H	1.299453	-0.226861	0.000056
O66	O	1.132076	-0.036225	-0.000009
H67	H	1.104805	-0.064116	-0.101673
O68	O	0.931707	0.031449	0.259335
H69	H	0.979096	-0.023122	0.259082
H70	H	1.302998	-0.094719	0.000064
O71	O	1.743812	-0.559308	0.000051
H72	H	1.823628	-0.602250	0.000028
H73	H	1.551010	0.219812	0.593498
O74	O	1.256505	-0.678529	-0.000005
H75	H	1.201150	-0.660837	-0.101124
H76	H	1.718768	0.129289	0.406814
H77	H	0.941512	0.040706	-0.225651
O78	O	1.260590	-0.527135	0.000035
H79	H	1.178750	-0.559314	0.000042
H80	H	1.674048	0.012481	0.593031
