data_functionalizedCrystal
_audit_creation_method	'MofGen! by Chris Wilmer'
_symmetry_space_group_name_H-M	'P1'
_symmetry_Int_Tables_number	1
_symmetry_cell_setting	triclinic
loop_
_symmetry_equiv_pos_as_xyz
  x,y,z
_cell_length_a	10.489741
_cell_length_b	11.295483
_cell_length_c	12.837942
_cell_angle_alpha	94.530417
_cell_angle_beta	89.684057
_cell_angle_gamma	85.855438
loop_
_atom_site_label
_atom_site_type_symbol
_atom_site_fract_x
_atom_site_fract_y
_atom_site_fract_z
O1	O	1.717937	-0.098950	0.139467
O2	O	1.348257	-0.098968	0.153206
O3	O	1.524899	-0.098952	-0.004627
O4	O	1.541295	-0.098966	0.297300
O5	O	1.509382	0.099097	0.009214
O6	O	1.332740	0.099081	0.167047
O7	O	1.702419	0.099100	0.153308
Cu8	Cu	1.516163	0.117174	0.161441
Cu9	Cu	1.534514	-0.117042	0.145073
O10	O	1.525777	0.099084	0.311141
C11	C	1.292853	0.000054	0.159089
C12	C	1.150881	0.000047	0.155983
N13	N	1.503265	0.281909	0.172954
N14	N	1.547421	-0.281778	0.133552
C15	C	1.071668	0.000063	0.055559
C16	C	0.992422	-0.097585	0.096175
C17	C	0.977160	0.097676	0.109845
C18	C	1.073512	-0.097682	0.196634
C19	C	1.058251	0.097667	0.210297
C20	C	0.979042	-0.000005	0.250984
C21	C	1.757824	0.000075	0.147425
C22	C	1.899796	0.000074	0.150530
C23	C	1.511602	0.000072	-0.036369
C24	C	1.495084	0.000069	-0.151569
C25	C	1.640261	0.531211	0.050621
C26	C	1.630524	0.655874	0.059328
C27	C	1.474047	0.655900	0.199071
C28	C	1.483784	0.531237	0.190363
C29	C	1.566895	0.468897	0.116137
C30	C	1.576638	0.344232	0.107435
C31	C	1.420156	0.344260	0.247172
C32	C	1.410419	0.468923	0.255879
C33	C	1.693661	0.000054	-0.391046
C34	C	1.678147	0.000051	-0.499288
C35	C	1.448545	0.000052	-0.476297
C36	C	1.464058	0.000055	-0.368055
C37	C	1.586620	0.000058	-0.325434
C38	C	1.602133	0.000069	-0.217189
C39	C	1.372532	0.000061	-0.194201
C40	C	1.357018	0.000059	-0.302443
C41	C	1.539074	0.000057	0.342882
C42	C	1.555593	0.000052	0.458082
H43	H	1.112265	-0.000055	-0.027005
C44	C	1.828466	0.000067	-0.344153
H45	H	1.822373	0.000078	-0.270290
H46	H	1.878510	-0.068992	-0.371436
H47	H	1.867673	0.069145	-0.361790
H48	H	1.285371	0.000074	-0.140767
C49	C	1.668050	0.275659	0.025787
H50	H	1.710338	0.330631	-0.011991
H51	H	1.729533	0.227017	0.060128
H52	H	1.620661	0.227040	-0.021164
H53	H	0.963192	-0.180138	0.047913
C54	C	1.382548	0.724482	0.280648
H55	H	1.340214	0.669517	0.318401
H56	H	1.429846	0.773150	0.327621
H57	H	1.321091	0.773076	0.246224
C58	C	1.711229	0.724416	-0.012736
H59	H	1.762125	0.669430	-0.058182
H60	H	1.656258	0.773057	-0.052892
H61	H	1.765119	0.773034	0.028410
C62	C	1.731680	0.462634	-0.031018
H63	H	1.773979	0.517602	-0.068794
H64	H	1.793155	0.413991	0.003331
H65	H	1.684297	0.414014	-0.077975
C66	C	1.318964	0.537497	0.337494
H67	H	1.276648	0.482527	0.375253
H68	H	1.366302	0.586143	0.384454
H69	H	1.257489	0.586114	0.303110
H70	H	1.360420	0.293510	0.300522
C71	C	1.736940	0.000072	-0.170301
H72	H	1.730852	0.000086	-0.096438
H73	H	1.786974	-0.068993	-0.197585
H74	H	1.776156	0.069144	-0.187942
H75	H	1.348761	0.000037	-0.511020
C76	C	1.795891	0.000054	-0.571458
H77	H	1.871101	0.000064	-0.530567
H78	H	1.800021	-0.069009	-0.618986
H79	H	1.789202	0.069128	-0.609333
C80	C	1.097793	0.209189	0.275443
H81	H	1.064720	0.278511	0.244509
H82	H	1.064675	0.209890	0.344525
H83	H	1.188392	0.207984	0.277464
H84	H	1.257231	0.000052	-0.337161
H85	H	1.115496	-0.180329	0.233317
H86	H	0.938734	-0.000062	0.333623
H87	H	0.935027	0.180230	0.073104
