data_functionalizedCrystal
_audit_creation_method	'MofGen! by Chris Wilmer'
_symmetry_space_group_name_H-M	'P1'
_symmetry_Int_Tables_number	1
_symmetry_cell_setting	triclinic
loop_
_symmetry_equiv_pos_as_xyz
  x,y,z
_cell_length_a	23.532407
_cell_length_b	19.188900
_cell_length_c	18.266242
_cell_angle_alpha	90.017742
_cell_angle_beta	89.989064
_cell_angle_gamma	97.009417
loop_
_atom_site_label
_atom_site_type_symbol
_atom_site_fract_x
_atom_site_fract_y
_atom_site_fract_z
O1	O	0.071020	-0.925936	-0.061030
O2	O	0.080610	-0.722591	-0.061002
O3	O	-0.007104	-0.830396	-0.061003
O4	O	0.158734	-0.818132	-0.061029
O5	O	-0.007109	-0.830377	0.060759
O6	O	0.080605	-0.722573	0.060760
O7	O	0.071016	-0.925917	0.060732
Zn8	Zn	0.075810	-0.824242	0.080078
Zn9	Zn	0.075816	-0.824267	-0.080348
O10	O	0.158730	-0.818113	0.060733
C11	C	0.080300	-0.696572	-0.000117
C12	C	0.079376	-0.619069	-0.000105
C13	C	0.078935	-0.582689	-0.066479
C14	C	0.078061	-0.509868	-0.066486
C15	C	0.077616	-0.473432	-0.000116
C16	C	0.078061	-0.509820	0.066266
C17	C	0.078941	-0.582639	0.066272
N18	N	0.043824	-0.364511	0.049284
N19	N	0.042987	-0.295337	0.049274
C20	C	0.074967	-0.254033	-0.000128
N21	N	0.107808	-0.284518	-0.049532
N22	N	0.108643	-0.353699	-0.049524
C23	C	0.076663	-0.394472	-0.000114
C24	C	0.073578	-0.138692	-0.066514
C25	C	0.072707	-0.065869	-0.066519
C26	C	0.072702	-0.065823	0.066235
C27	C	0.073578	-0.138644	0.066238
C28	C	0.074014	-0.175074	-0.000139
C29	C	-0.028323	-0.830074	-0.000121
C30	C	-0.091542	-0.829135	-0.000115
C31	C	-0.490527	-0.887042	-0.000163
C32	C	-0.549929	-0.886170	-0.000168
O33	O	-0.586565	-0.939851	-0.000203
N34	N	-0.572686	-0.822080	-0.000159
C35	C	-0.536037	-0.758859	-0.000151
O36	O	-0.560848	-0.704266	-0.000144
C37	C	-0.476636	-0.759732	-0.000151
C38	C	-0.453883	-0.823826	-0.000153
C39	C	-0.467774	-0.951131	-0.000166
C40	C	-0.408376	-0.952003	-0.000159
C41	C	-0.371731	-0.888786	-0.000149
C42	C	-0.394485	-0.824698	-0.000146
C43	C	-0.439988	-0.696511	-0.000149
C44	C	-0.380584	-0.697390	-0.000149
C45	C	-0.357831	-0.761483	-0.000151
C46	C	-0.298443	-0.762353	-0.000130
N47	N	-0.275686	-0.826443	-0.000140
C48	C	-0.312331	-0.889659	-0.000149
C49	C	-0.660783	-0.757031	-0.000153
C50	C	-0.720183	-0.756157	-0.000148
C51	C	-0.734071	-0.883468	-0.000167
C52	C	-0.674670	-0.884341	-0.000166
C53	C	-0.638027	-0.821120	-0.000163
C54	C	-0.187590	-0.891485	-0.000134
C55	C	-0.128186	-0.892352	-0.000125
C56	C	-0.114303	-0.765041	-0.000110
C57	C	-0.173702	-0.764174	-0.000116
C58	C	-0.210344	-0.827402	-0.000131
O59	O	-0.261773	-0.708701	-0.000098
O60	O	-0.287512	-0.944243	-0.000166
C61	C	0.179949	-0.818435	-0.000151
C62	C	0.243168	-0.819374	-0.000162
N63	N	0.075806	-0.824230	0.189565
C64	C	0.071330	0.048063	-0.000149
C65	C	0.072264	-0.029438	-0.000148
C66	C	0.036985	-0.871981	0.227873
C67	C	0.036983	-0.871985	0.304518
C68	C	0.075811	-0.824245	0.342852
C69	C	0.114634	-0.776485	0.304535
C70	C	0.114632	-0.776478	0.227891
N71	N	0.126227	-0.815008	0.463178
N72	N	0.126227	-0.815019	0.535986
C73	C	0.075819	-0.824263	0.573775
N74	N	0.025409	-0.833510	0.536005
N75	N	0.025409	-0.833502	0.463190
C76	C	0.075817	-0.824247	0.425959
C77	C	0.036992	-0.872021	0.695190
C78	C	0.036989	-0.872020	0.771836
C79	C	0.114646	-0.776523	0.771851
C80	C	0.114644	-0.776521	0.695206
C81	C	0.075818	-0.824273	0.656880
N82	N	0.075817	-0.824279	0.810165
H83	H	0.072344	-0.036157	0.120275
F84	F	-0.464191	-0.628293	-0.000150
F85	F	-0.004334	-0.922842	0.812608
H86	H	0.146248	-0.737613	0.335750
H87	H	0.079301	-0.612259	0.120323
H88	H	0.073939	-0.168354	-0.120562
H89	H	0.146258	-0.737650	0.803062
F90	F	-0.506765	-1.018421	-0.000177
F91	F	-0.384168	-1.020221	-0.000177
H92	H	0.146258	-0.737640	0.664014
H93	H	-0.630950	-0.705545	-0.000144
H94	H	-0.350751	-0.645906	-0.000147
H95	H	-0.738703	-0.703965	-0.000134
H96	H	0.005369	-0.910871	0.335714
F97	F	-0.004338	-0.922800	0.187085
H98	H	-0.192228	-0.711984	-0.000094
H99	H	0.146245	-0.737592	0.196700
F100	F	0.079400	-0.621456	-0.137123
F101	F	0.072242	-0.027150	-0.137166
H102	H	0.077702	-0.480241	-0.120537
F103	F	-0.075294	-0.697765	-0.000099
F104	F	-0.773081	-0.950749	-0.000181
H105	H	0.077701	-0.480149	0.120305
F106	F	-0.004332	-0.922841	0.654399
F107	F	-0.103975	-0.960572	-0.000127
F108	F	-0.226580	-0.958780	-0.000150
F109	F	0.074045	-0.177365	0.136883
H110	H	-0.656149	-0.936532	-0.000169
