data_functionalizedCrystal
_audit_creation_method	'MofGen! by Chris Wilmer'
_symmetry_space_group_name_H-M	'P1'
_symmetry_Int_Tables_number	1
_symmetry_cell_setting	triclinic
loop_
_symmetry_equiv_pos_as_xyz
  x,y,z
_cell_length_a	14.971486
_cell_length_b	13.339070
_cell_length_c	13.448316
_cell_angle_alpha	89.996829
_cell_angle_beta	89.998199
_cell_angle_gamma	99.621712
loop_
_atom_site_label
_atom_site_type_symbol
_atom_site_fract_x
_atom_site_fract_y
_atom_site_fract_z
O1	O	1.219550	0.131873	-0.082571
O2	O	0.963055	0.147665	-0.082597
O3	O	1.061865	-0.007530	-0.082584
O4	O	1.120740	0.287068	-0.082584
O5	O	1.061845	-0.007540	0.082800
O6	O	0.963035	0.147656	0.082787
O7	O	1.219531	0.131864	0.082813
Cu8	Cu	1.091281	0.139759	0.097901
Cu9	Cu	1.091304	0.139770	-0.097685
O10	O	1.120720	0.287059	0.082800
C11	C	0.929545	0.146954	0.000091
C12	C	0.829725	0.144838	0.000081
C13	C	0.795041	0.236011	0.000082
C14	C	0.701248	0.234016	0.000097
C15	C	0.642141	0.140847	0.000103
C16	C	0.676832	0.049667	0.000105
C17	C	0.770623	0.051663	0.000097
C18	C	0.481342	0.045514	0.000119
C19	C	0.387545	0.043518	0.000125
C20	C	0.411968	0.227867	0.000119
C21	C	0.505759	0.229863	0.000111
C22	C	0.540442	0.138682	0.000111
C23	C	1.051910	-0.045236	0.000105
C24	C	1.022266	-0.157574	0.000098
C25	C	1.252762	-0.522088	0.000122
C26	C	1.280617	-0.416541	0.000135
C27	C	1.216032	-0.351794	0.000125
C28	C	1.123587	-0.392604	0.000104
C29	C	1.095729	-0.498161	0.000100
C30	C	1.058999	-0.327867	0.000103
C31	C	0.966554	-0.368677	0.000082
C32	C	0.938701	-0.474224	0.000077
C33	C	1.003286	-0.538970	0.000086
C34	C	1.086856	-0.222311	0.000107
C35	C	0.929823	-0.198384	0.000084
C36	C	0.901968	-0.303930	0.000072
C37	C	1.253040	0.132575	0.000122
C38	C	1.352860	0.134691	0.000126
C39	C	1.130675	0.324765	0.000108
C40	C	1.160319	0.437102	0.000109
N41	N	1.091271	0.139750	0.235465
N42	N	1.091319	0.139771	-0.235249
C43	C	1.135050	0.071058	0.287511
C44	C	1.135056	0.071057	0.391614
C45	C	1.091287	0.139754	0.443669
C46	C	1.047502	0.208449	0.391616
C47	C	1.047492	0.208445	0.287515
C48	C	1.047529	0.208456	0.608596
C49	C	1.047540	0.208463	0.712705
C50	C	1.135093	0.071069	0.712696
C51	C	1.135082	0.071064	0.608594
C52	C	1.091299	0.139761	0.556548
H53	H	0.339422	-0.032348	0.000131
O54	O	0.812196	-0.343699	-0.000074
C55	C	0.791399	-0.404009	-0.085745
H56	H	0.855403	-0.430199	-0.114293
H57	H	0.738583	-0.473175	-0.066491
H58	H	0.763393	-0.357422	-0.145726
O59	O	1.004913	0.275042	0.442291
C60	C	0.936255	0.220745	0.502506
H61	H	0.952250	0.141628	0.518104
H62	H	0.932590	0.262959	0.575709
H63	H	0.868410	0.213744	0.462401
H64	H	1.170727	0.015131	0.566211
O65	O	1.004958	0.275273	0.237108
C66	C	0.966310	0.335892	0.305373
H67	H	1.003289	0.337110	0.379574
H68	H	0.972706	0.416679	0.275286
H69	H	0.891686	0.302909	0.316460
H70	H	1.011898	0.264402	0.755083
O71	O	0.804167	-0.036996	0.000046
C72	C	0.731889	-0.119658	0.000076
H73	H	0.668609	-0.094058	-0.031230
H74	H	0.750449	-0.183544	-0.047941
H75	H	0.718162	-0.148216	0.079420
H76	H	1.170742	0.015133	0.755078
H77	H	0.673013	0.308258	0.000097
H78	H	0.843160	0.311879	0.000077
O79	O	1.177658	0.004475	0.442286
C80	C	1.246323	0.058785	0.502472
H81	H	1.230325	0.137901	0.518058
H82	H	1.250006	0.016580	0.575681
H83	H	1.314161	0.065788	0.462345
O84	O	1.176661	-0.182722	-0.000057
C85	C	1.217632	-0.215811	-0.085694
H86	H	1.164041	-0.237819	-0.145566
H87	H	1.271571	-0.151825	-0.114439
H88	H	1.250413	-0.284544	-0.066324
O89	O	0.563272	0.320298	0.000221
C90	C	0.618253	0.326980	0.085874
H91	H	0.621693	0.247252	0.114445
H92	H	0.689376	0.367374	0.066588
H93	H	0.588151	0.371716	0.145850
O94	O	0.514885	-0.043152	0.000069
C95	C	0.442606	-0.125814	0.000095
H96	H	0.379325	-0.100211	-0.031204
H97	H	0.461165	-0.189695	-0.047930
H98	H	0.428883	-0.154379	0.079436
O99	O	1.177578	0.004227	0.237103
C100	C	1.216237	-0.056386	0.305369
H101	H	1.179273	-0.057592	0.379581
H102	H	1.209833	-0.137177	0.275300
H103	H	1.290864	-0.023403	0.316428
O104	O	1.004991	0.275288	0.558191
C105	C	0.966345	0.335910	0.626456
H106	H	1.003321	0.337122	0.700659
H107	H	0.972748	0.416698	0.596372
H108	H	0.891719	0.302932	0.637539
H109	H	0.383724	0.302110	0.000123
H110	H	0.980611	-0.624916	0.000072
H111	H	0.863426	-0.507447	0.000067
O112	O	1.243201	-0.249284	0.000264
C113	C	1.295539	-0.220589	0.085941
H114	H	1.325322	-0.288408	0.114506
H115	H	1.352781	-0.155860	0.066686
H116	H	1.250839	-0.194297	0.145908
H117	H	0.628700	-0.026192	0.000124
H118	H	1.355886	-0.383322	0.000153
O119	O	0.867196	-0.135355	0.000027
C120	C	0.911605	-0.033443	0.000056
H121	H	0.982891	-0.029311	-0.031244
H122	H	0.872058	0.014319	-0.047966
H123	H	0.915777	-0.002927	0.079399
H124	H	1.305338	-0.574813	0.000138
