data_functionalizedCrystal
_audit_creation_method	'MofGen! by Chris Wilmer'
_symmetry_space_group_name_H-M	'P1'
_symmetry_Int_Tables_number	1
_symmetry_cell_setting	triclinic
loop_
_symmetry_equiv_pos_as_xyz
  x,y,z
_cell_length_a	17.019284
_cell_length_b	17.699083
_cell_length_c	16.098524
_cell_angle_alpha	86.936415
_cell_angle_beta	89.189528
_cell_angle_gamma	96.663576
loop_
_atom_site_label
_atom_site_type_symbol
_atom_site_fract_x
_atom_site_fract_y
_atom_site_fract_z
O1	O	-0.102558	1.006832	-0.061779
O2	O	-0.115496	0.786423	-0.060878
O3	O	0.005445	0.903137	-0.069538
O4	O	-0.223499	0.890117	-0.053119
O5	O	0.011714	0.897111	0.068525
O6	O	-0.109227	0.780397	0.077185
O7	O	-0.096290	1.000806	0.076284
Zn8	Zn	-0.101763	0.889645	0.098655
Zn9	Zn	-0.110022	0.897584	-0.083249
O10	O	-0.217230	0.884091	0.084944
C11	C	-0.111898	0.755214	0.008117
C12	C	-0.110508	0.671200	0.008007
C13	C	-0.181497	0.622403	0.013098
C14	C	-0.180185	0.543462	0.013015
C15	C	-0.107884	0.513321	0.007834
C16	C	-0.036889	0.562124	0.002745
C17	C	-0.038201	0.641062	0.002834
C18	C	-0.031595	0.243773	0.002386
C19	C	-0.030288	0.164828	0.002295
C20	C	-0.173579	0.146173	0.012566
C21	C	-0.174891	0.225111	0.012656
C22	C	-0.103897	0.273907	0.007571
C23	C	-0.105320	0.359503	0.007663
C24	C	-0.106460	0.427726	0.007736
C25	C	-0.249658	0.887478	0.018013
C26	C	-0.336941	0.888600	0.024273
C27	C	-0.381361	0.892413	-0.048044
C28	C	-0.463372	0.893477	-0.042162
C29	C	-0.500962	0.890723	0.036038
C30	C	-0.456536	0.886912	0.108361
C31	C	-0.374526	0.885853	0.102478
C32	C	-0.748408	0.893760	0.057566
C33	C	-0.830424	0.894816	0.063443
C34	C	-0.837255	0.901382	-0.087081
C35	C	-0.755244	0.900319	-0.092957
C36	C	-0.710824	0.896512	-0.020634
C37	C	-0.584791	0.891808	0.042052
C38	C	-0.626996	0.895433	-0.026649
C39	C	0.037872	0.899751	-0.002609
C40	C	0.125155	0.898629	-0.008875
C41	C	-0.099887	1.032015	0.007287
C42	C	-0.101278	1.116029	0.007392
N43	N	-0.096126	0.884232	0.222800
N44	N	-0.115653	0.903003	-0.207394
C45	C	-0.141784	0.928037	0.269661
C46	C	-0.137836	0.924261	0.356567
C47	C	-0.088232	0.876675	0.396610
C48	C	-0.042569	0.832869	0.349742
C49	C	-0.046514	0.836649	0.262837
C50	C	-0.073935	0.862977	0.658834
C51	C	-0.069995	0.859198	0.745744
C52	C	-0.165261	0.950591	0.752564
C53	C	-0.169205	0.954365	0.665658
C54	C	-0.123538	0.910561	0.618797
C55	C	-0.084197	0.872812	0.485441
C56	C	-0.127570	0.914429	0.529967
H57	H	-0.240374	0.646937	0.017316
H58	H	-0.237992	0.503734	0.017160
H59	H	-0.233767	0.249648	0.016870
H60	H	0.021981	0.537576	-0.001461
H61	H	-0.167954	0.953175	0.497360
H62	H	-0.596386	0.897679	-0.090320
H63	H	0.028592	0.140290	-0.001923
O64	O	-0.621371	0.888988	0.117993
C65	C	-0.677653	0.823868	0.126506
H66	H	-0.661178	0.779606	0.082472
H67	H	-0.678613	0.798965	0.193349
H68	H	-0.738678	0.840374	0.110583
O69	O	-0.331320	0.882281	0.172702
C70	C	-0.274632	0.947009	0.173152
H71	H	-0.294973	0.995005	0.131771
H72	H	-0.267645	0.966093	0.239435
H73	H	-0.215439	0.932270	0.148618
H74	H	-0.036749	0.827309	0.620690
O75	O	-0.189985	0.974326	0.230898
C76	C	-0.229451	1.012165	0.290900
H77	H	-0.194081	1.014026	0.350513
H78	H	-0.235392	1.072750	0.266133
H79	H	-0.290791	0.980319	0.304573
H80	H	-0.499535	0.896583	-0.101051
O81	O	-0.217284	1.000632	0.626657
C82	C	-0.171559	1.054678	0.572952
H83	H	-0.113832	1.031950	0.555761
H84	H	-0.205931	1.065616	0.514102
H85	H	-0.157939	1.110170	0.605564
H86	H	0.019606	0.680793	-0.001312
O87	O	-0.209690	0.993171	0.797960
C88	C	-0.254298	1.035999	0.743980
H89	H	-0.261742	1.007341	0.682367
H90	H	-0.314982	1.039340	0.773521
H91	H	-0.222244	1.095944	0.732404
H92	H	-0.029602	0.820444	0.778344
O93	O	-0.705204	0.890162	0.127783
C94	C	-0.648496	0.954874	0.128258
H95	H	-0.668829	1.002896	0.086908
H96	H	-0.641493	0.973924	0.194552
H97	H	-0.589314	0.940130	0.103700
O98	O	-0.002253	0.793979	0.217357
C99	C	-0.023159	0.716142	0.240179
H100	H	-0.085494	0.707511	0.268615
H101	H	-0.021219	0.681416	0.182704
H102	H	0.020328	0.696559	0.287672
O103	O	-0.182227	0.966700	0.402186
C104	C	-0.233667	0.918134	0.456299
H105	H	-0.208677	0.861518	0.467570
H106	H	-0.239608	0.945863	0.518033
H107	H	-0.294311	0.907749	0.427051
H108	H	-0.002177	0.794127	0.382351
H109	H	-0.231386	0.106433	0.016711
H110	H	-0.043810	0.834067	0.518054
H111	H	0.026214	0.283494	-0.001754
O112	O	-0.867006	0.892006	0.139389
C113	C	-0.923282	0.826881	0.147909
H114	H	-0.906802	0.782616	0.103881
H115	H	-0.924239	0.801985	0.214755
H116	H	-0.984309	0.843379	0.131983
H117	H	-0.724643	0.902567	-0.156637
H118	H	-0.350763	0.894648	-0.111724
H119	H	-0.487147	0.884675	0.172034
O120	O	-0.880500	0.904980	-0.157273
C121	C	-0.937161	0.840232	-0.157746
H122	H	-0.949496	0.815688	-0.091308
H123	H	-0.994244	0.857105	-0.185613
H124	H	-0.913562	0.795546	-0.196701
