data_functionalizedCrystal
_audit_creation_method	'MofGen! by Chris Wilmer'
_symmetry_space_group_name_H-M	'P1'
_symmetry_Int_Tables_number	1
_symmetry_cell_setting	triclinic
loop_
_symmetry_equiv_pos_as_xyz
  x,y,z
_cell_length_a	14.044202
_cell_length_b	14.044220
_cell_length_c	12.503572
_cell_angle_alpha	86.150791
_cell_angle_beta	93.844866
_cell_angle_gamma	93.190789
loop_
_atom_site_label
_atom_site_type_symbol
_atom_site_fract_x
_atom_site_fract_y
_atom_site_fract_z
O1	O	-1.272121	-0.235257	0.089272
O2	O	-0.995448	-0.226943	0.089286
O3	O	-1.129632	-0.092763	0.089269
O4	O	-1.137936	-0.369436	0.089290
O5	O	-1.139727	-0.082659	-0.089375
O6	O	-1.005543	-0.216838	-0.089357
O7	O	-1.282216	-0.225152	-0.089371
Cu8	Cu	-1.144801	-0.220073	-0.105676
Cu9	Cu	-1.132862	-0.232022	0.105591
O10	O	-1.148032	-0.359332	-0.089354
C11	C	-0.964873	-0.218254	-0.000034
C12	C	-0.858730	-0.207406	-0.000029
C13	C	-0.613272	-0.264504	-0.000035
C14	C	-0.664397	-0.187588	-0.000039
C15	C	-0.772534	-0.198617	-0.000033
C16	C	-0.505125	-0.253476	-0.000040
N17	N	-1.153205	-0.211668	-0.254269
C18	C	-1.131044	-0.052089	-0.000053
C19	C	-1.120199	0.054054	-0.000054
C20	C	-0.312790	-0.233839	-0.000048
C21	C	-0.418933	-0.244682	-0.000045
C22	C	-1.146619	-0.400006	-0.000029
C23	C	-1.157464	-0.506150	-0.000022
C24	C	-1.100372	0.248392	-0.000038
C25	C	-1.177287	0.299519	-0.000038
C26	C	-1.166254	0.407655	-0.000029
C27	C	-1.111403	0.140246	-0.000047
N28	N	-1.124465	-0.240420	0.254184
C29	C	-1.112105	-0.252773	0.473301
C30	C	-1.165562	-0.199319	0.526621
C31	C	-1.158685	-0.206192	0.648545
C32	C	-1.118981	-0.245900	0.351366
H33	H	-1.251416	0.262073	0.000030
N34	N	-0.614810	-0.089387	-0.000048
H35	H	-0.543470	-0.095323	-0.000048
H36	H	-0.630195	-0.057326	0.066179
H37	H	-1.026244	0.285831	-0.000031
H38	H	-0.650712	-0.338631	-0.000026
N39	N	-1.044635	-0.320221	0.534109
H40	H	-1.082104	-0.368180	0.580781
H41	H	-0.996697	-0.282659	0.580699
H42	H	-1.216493	-0.148393	0.480702
