data_functionalizedCrystal
_audit_creation_method	'MofGen! by Chris Wilmer'
_symmetry_space_group_name_H-M	'P1'
_symmetry_Int_Tables_number	1
_symmetry_cell_setting	triclinic
loop_
_symmetry_equiv_pos_as_xyz
  x,y,z
_cell_length_a	9.065215
_cell_length_b	14.519731
_cell_length_c	7.540329
_cell_angle_alpha	89.995423
_cell_angle_beta	89.997574
_cell_angle_gamma	84.351775
loop_
_atom_site_label
_atom_site_type_symbol
_atom_site_fract_x
_atom_site_fract_y
_atom_site_fract_z
O1	O	1.957883	0.135211	-0.147467
O2	O	1.528392	0.146306	-0.147475
O3	O	1.754508	0.006605	-0.147454
O4	O	1.731766	0.274913	-0.147487
O5	O	1.754495	0.006603	0.147511
O6	O	1.528378	0.146304	0.147490
O7	O	1.957870	0.135209	0.147498
Cu8	Cu	1.743123	0.140757	0.174427
Cu9	Cu	1.743139	0.140759	-0.174403
O10	O	1.731753	0.274911	0.147478
C11	C	1.473418	0.145239	0.000007
C12	C	1.309634	0.142053	0.000004
C13	C	1.753436	-0.027764	0.000028
C14	C	1.750243	-0.130167	0.000029
C15	C	1.747648	-0.213330	0.000025
C16	C	1.744406	-0.317663	0.000012
C17	C	1.741833	-0.400821	0.000000
C18	C	1.738592	-0.505160	-0.000010
C19	C	2.012844	0.136276	0.000013
C20	C	2.176627	0.139462	0.000004
C21	C	1.732825	0.309279	-0.000009
C22	C	1.736018	0.411682	-0.000022
N23	N	1.743122	0.140755	0.419775
N24	N	1.743151	0.140754	-0.419752
