data_functionalizedCrystal
_audit_creation_method	'MofGen! by Chris Wilmer'
_symmetry_space_group_name_H-M	'P1'
_symmetry_Int_Tables_number	1
_symmetry_cell_setting	triclinic
loop_
_symmetry_equiv_pos_as_xyz
  x,y,z
_cell_length_a	31.640172
_cell_length_b	18.760492
_cell_length_c	31.640172
_cell_angle_alpha	60.005473
_cell_angle_beta	90.008445
_cell_angle_gamma	59.996993
loop_
_atom_site_label
_atom_site_type_symbol
_atom_site_fract_x
_atom_site_fract_y
_atom_site_fract_z
Zr1	Zr	0.407165	0.780154	-0.055424
O2	O	0.339671	0.928867	-0.122917
O3	O	0.427857	0.631442	-0.034731
O4	O	0.427853	0.780136	-0.122902
O5	O	0.339676	0.780188	0.034802
O6	O	0.497410	0.780121	-0.122893
O7	O	0.339675	0.780173	-0.034746
O8	O	0.497418	0.514135	0.034829
O9	O	0.339668	1.046174	-0.122920
O10	O	0.488589	0.692598	-0.025902
O11	O	0.436681	0.692621	0.025994
O12	O	0.436675	0.867688	-0.077816
O13	O	0.384766	0.867710	-0.025919
Zr14	Zr	0.518102	0.780154	0.055513
Zr15	Zr	0.518100	0.780131	-0.055409
Zr16	Zr	0.407166	0.780178	0.055498
Zr17	Zr	0.407161	0.967246	-0.055428
Zr18	Zr	0.518106	0.593063	0.055517
O19	O	0.497409	0.928867	0.034820
O20	O	0.497407	0.928833	-0.122896
O21	O	0.339673	0.928901	0.034799
O22	O	0.585595	0.631442	0.123006
O23	O	0.585593	0.631408	-0.034710
O24	O	0.427860	0.631475	0.122985
O25	O	0.585590	0.780121	-0.034713
O26	O	0.497413	0.780173	0.122991
O27	O	0.427856	0.780188	0.122982
O28	O	0.585591	0.780136	0.034835
O29	O	0.427847	1.046155	-0.122908
O30	O	0.497419	0.514154	0.122997
O31	O	0.585598	0.514135	0.123009
O32	O	0.585597	0.514116	0.034841
O33	O	0.339670	1.046193	-0.034752
O34	O	0.427848	1.046174	-0.034740
O35	O	0.488591	0.692621	0.077905
O36	O	0.540500	0.692598	0.026008
O37	O	0.488586	0.867688	-0.025906
O38	O	0.436677	0.867710	0.025991
C39	C	0.462638	0.546132	0.000050
C40	C	0.462640	0.466707	0.000051
C41	C	0.435531	0.130924	0.027129
C42	C	0.489724	0.130905	-0.027051
C43	C	0.489728	0.205521	-0.027048
C44	C	0.462632	0.242842	0.000043
C45	C	0.435532	0.205548	0.027132
C46	C	0.516823	0.242827	-0.054141
C47	C	0.516828	0.317448	-0.054139
C48	C	0.489735	0.354766	-0.027044
C49	C	0.462634	0.317467	0.000046
C50	C	0.435538	0.354788	0.027137
C51	C	0.408440	0.317485	0.054231
C52	C	0.408439	0.242866	0.054227
C53	C	0.489736	0.429385	-0.027040
C54	C	0.435540	0.429413	0.027140
C55	C	0.323870	0.780184	0.000026
C56	C	0.276775	0.780194	0.000020
C57	C	0.011867	0.688750	0.027153
C58	C	-0.165118	0.688732	0.027164
O59	O	-0.164957	0.611004	0.050229
N60	N	-0.214346	0.780127	0.000064
C61	C	-0.219327	0.871532	-0.027036
O62	O	-0.265260	0.949268	-0.050081
C63	C	-0.042343	0.871549	-0.027043
C64	C	0.006885	0.780148	0.000053
C65	C	0.061093	0.597357	0.054248
C66	C	0.105336	0.597362	0.054243
C67	C	0.100354	0.688760	0.027143
C68	C	0.051128	0.780153	0.000048
C69	C	-0.047324	0.962953	-0.054141
C70	C	-0.003073	0.962949	-0.054139
C71	C	0.046155	0.871548	-0.027042
C72	C	0.090389	0.871557	-0.027057
N73	N	0.139618	0.780163	0.000042
C74	C	0.144600	0.688764	0.027142
C75	C	-0.312245	0.871517	-0.027032
C76	C	-0.356491	0.871513	-0.027031
C77	C	-0.302278	0.688713	0.027170
C78	C	-0.258032	0.688718	0.027166
C79	C	-0.263016	0.780123	0.000067
C80	C	0.237512	0.688782	0.027129
C81	C	0.281757	0.688796	0.027120
C82	C	0.227541	0.871595	-0.027079
C83	C	0.183299	0.871582	-0.027072
C84	C	0.188289	0.780168	0.000036
O85	O	0.090268	0.949245	-0.050105
O86	O	0.190537	0.611040	0.050193
C87	C	-0.032376	0.688745	0.027159
C88	C	-0.081602	0.780138	0.000064
C89	C	-0.086584	0.871536	-0.027036
C90	C	-0.125848	0.780134	0.000065
C91	C	-0.120865	0.688735	0.027165
C92	C	-0.071637	0.597341	0.054264
C93	C	-0.027394	0.597346	0.054259
C94	C	-0.135812	0.962930	-0.054136
C95	C	-0.180053	0.962917	-0.054129
C96	C	-0.175071	0.871519	-0.027029
C97	C	0.601396	0.780125	0.000063
C98	C	0.648491	0.780115	0.000069
C99	C	0.462631	0.780125	-0.138701
C100	C	0.462631	0.780115	-0.185790
C101	C	0.462628	1.014177	0.000039
C102	C	0.462626	1.093602	0.000038
C103	C	0.435539	0.871559	-0.504924
C104	C	0.435540	0.871577	-0.681919
O105	O	0.412512	0.949305	-0.727852
N106	N	0.462637	0.780182	-0.676951
C107	C	0.489740	0.688777	-0.627729
O108	O	0.512792	0.611041	-0.627565
C109	C	0.489742	0.688760	-0.450735
C110	C	0.462638	0.780161	-0.455707
C111	C	0.408438	0.962952	-0.509894
C112	C	0.408436	0.962947	-0.465648
C113	C	0.435535	0.871548	-0.416431
C114	C	0.462636	0.780155	-0.411461
C115	C	0.516847	0.597356	-0.401514
C116	C	0.516846	0.597360	-0.357265
C117	C	0.489742	0.688761	-0.362238
C118	C	0.489733	0.688752	-0.317998
N119	N	0.462635	0.780146	-0.322966
C120	C	0.435536	0.871545	-0.372183
C121	C	0.489736	0.688792	-0.720656
C122	C	0.489735	0.688796	-0.764904
C123	C	0.435535	0.871596	-0.819091
C124	C	0.435534	0.871591	-0.774842
C125	C	0.462638	0.780186	-0.725624
C126	C	0.435533	0.871527	-0.279260
C127	C	0.435532	0.871513	-0.235007
C128	C	0.489733	0.688714	-0.180824
C129	C	0.489732	0.688726	-0.225073
C130	C	0.462632	0.780141	-0.274292
O131	O	0.512753	0.611064	-0.272050
O132	O	0.412496	0.949269	-0.372336
C133	C	0.435541	0.871564	-0.549170
C134	C	0.462642	0.780171	-0.544200
C135	C	0.489741	0.688773	-0.494984
C136	C	0.462641	0.780175	-0.588449
C137	C	0.435542	0.871573	-0.637665
C138	C	0.408445	0.962968	-0.642634
C139	C	0.408443	0.962963	-0.598387
C140	C	0.516839	0.597379	-0.490015
C141	C	0.516838	0.597391	-0.534264
C142	C	0.489740	0.688790	-0.583481
C143	C	0.462635	0.780184	0.138790
C144	C	0.462636	0.780194	0.185879
C145	C	0.601401	0.546102	0.000068
C146	C	0.648498	0.466667	0.000076
C147	C	0.462640	0.546161	0.138795
C148	C	0.462642	0.466746	0.185886
C149	C	0.601403	0.546132	0.138814
C150	C	0.648501	0.466707	0.185911
C151	C	0.323863	1.014177	-0.138725
C152	C	0.276766	1.093602	-0.185822
C153	C	0.323865	1.014207	0.000021
C154	C	0.276768	1.093642	0.000013
C155	C	0.462626	1.014148	-0.138706
C156	C	0.462624	1.093563	-0.185797
C157	C	0.643519	0.429364	-0.027021
C158	C	0.687767	0.354736	-0.027024
C159	C	0.736994	0.317409	0.000074
C160	C	0.741972	0.354720	0.027172
C161	C	0.697725	0.429351	0.027172
C162	C	0.489740	0.429452	0.235102
C163	C	0.489740	0.354844	0.279353
C164	C	0.462646	0.317526	0.274387
C165	C	0.435545	0.354827	0.225167
C166	C	0.435542	0.429439	0.180917
C167	C	0.697719	0.429396	0.180939
C168	C	0.741976	0.354778	0.225188
C169	C	0.737014	0.317467	0.274407
C170	C	0.687791	0.354785	0.279378
C171	C	0.643535	0.429407	0.235130
C172	C	0.227548	1.130922	-0.180850
C173	C	0.183290	1.205563	-0.225099
C174	C	0.188252	1.242878	-0.274319
C175	C	0.237475	1.205555	-0.279289
C176	C	0.281732	1.130921	-0.235042
C177	C	0.281748	1.130953	0.027106
C178	C	0.237500	1.205601	0.027096
C179	C	0.188272	1.242931	-0.000003
C180	C	0.183294	1.205617	-0.027099
C181	C	0.227542	1.130975	-0.027093
C182	C	0.489724	1.130857	-0.180815
C183	C	0.489732	1.205466	-0.225058
C184	C	0.462636	1.242784	-0.274282
C185	C	0.435535	1.205483	-0.279263
C186	C	0.435531	1.130870	-0.235021
H187	H	0.321841	0.614363	0.049187
H188	H	0.241509	1.235947	-0.319370
H189	H	0.143207	1.236022	-0.049163
H190	H	0.603439	0.459755	-0.049094
H191	H	0.223498	1.100544	-0.140777
H192	H	0.386368	1.037374	-0.469703
H193	H	0.511782	0.100521	-0.049112
H194	H	0.413475	1.235879	-0.319347
H195	H	0.413485	0.324432	0.221131
H196	H	0.511796	0.459759	-0.049102
H197	H	0.223493	0.946009	-0.049145
H198	H	0.683703	0.324367	-0.049091
H199	H	0.223480	1.100598	-0.049153
H200	H	0.511798	0.614368	-0.760849
H201	H	0.413470	0.100545	0.049190
H202	H	0.773054	0.256705	0.310433
H203	H	0.538893	0.347815	-0.076200
H204	H	0.413477	0.459794	0.140845
H205	H	0.773019	0.256638	0.000071
H206	H	0.511809	0.614355	-0.680582
H207	H	0.143215	1.235938	-0.221041
H208	H	-0.087401	1.037381	-0.076205
H209	H	0.321806	1.100536	-0.239096
H210	H	0.782059	0.324317	0.049234
H211	H	-0.007138	1.037383	-0.076200
H212	H	0.701786	0.459714	0.049240
H213	H	0.538918	0.522928	-0.397455
H214	H	0.511804	0.459828	0.239155
H215	H	0.603461	0.459775	0.239186
H216	H	-0.316312	0.945954	-0.049102
H217	H	0.321827	1.100564	0.049177
H218	H	0.241582	0.614344	0.049203
H219	H	0.511811	0.324482	0.319426
H220	H	0.462652	0.256772	0.310423
H221	H	0.241563	1.235970	0.049163
H222	H	0.145417	0.522934	0.076306
H223	H	0.511794	0.614300	-0.140744
H224	H	0.538881	0.212443	-0.076201
H225	H	0.065159	0.522925	0.076319
H226	H	0.701769	0.459764	0.140866
H227	H	0.413460	1.100513	-0.239085
H228	H	0.511788	1.100484	-0.140738
H229	H	0.012687	0.522919	0.076325
H230	H	0.782052	0.324402	0.221131
H231	H	0.152212	1.303650	-0.310344
H232	H	-0.396571	0.945941	-0.049102
H233	H	0.152247	1.303709	-0.000004
H234	H	0.511800	1.235829	-0.220992
H235	H	0.413476	0.459793	0.049202
H236	H	0.386378	0.212487	0.076285
H237	H	0.386376	0.347887	0.076286
H238	H	-0.217951	0.614292	0.049235
H239	H	-0.298228	0.614293	0.049233
H240	H	0.462644	1.303539	-0.310303
H241	H	0.143215	0.946008	-0.049143
H242	H	-0.067587	0.522921	0.076326
H243	H	0.683758	0.324395	0.319459
H244	H	0.538907	0.522950	-0.449944
H245	H	-0.139877	1.037359	-0.076205
H246	H	-0.220136	1.037352	-0.076199
H247	H	0.413465	0.945965	-0.319332
H248	H	0.386371	1.037384	-0.549966
H249	H	0.413458	0.945946	-0.239062
H250	H	0.413468	0.946016	-0.859172
H251	H	0.538918	0.522926	-0.317190
H252	H	0.511795	0.614301	-0.221023
H253	H	0.386372	1.037390	-0.602442
H254	H	0.386377	1.037388	-0.682715
H255	H	0.413463	0.946017	-0.778896
H256	H	0.538908	0.522957	-0.530207
