data_functionalizedCrystal
_audit_creation_method	'MofGen! by Chris Wilmer'
_symmetry_space_group_name_H-M	'P1'
_symmetry_Int_Tables_number	1
_symmetry_cell_setting	triclinic
loop_
_symmetry_equiv_pos_as_xyz
  x,y,z
_cell_length_a	19.121102
_cell_length_b	29.839131
_cell_length_c	19.120904
_cell_angle_alpha	92.409150
_cell_angle_beta	90.088173
_cell_angle_gamma	87.595578
loop_
_atom_site_label
_atom_site_type_symbol
_atom_site_fract_x
_atom_site_fract_y
_atom_site_fract_z
Zn1	Zn	1.054749	-0.219753	-0.442036
Zn2	Zn	1.554749	0.280247	0.057964
Zn3	Zn	1.059636	-0.291816	-0.324791
Zn4	Zn	1.559636	0.208184	0.175209
Zn5	Zn	0.942520	-0.213364	-0.319821
Zn6	Zn	1.442520	0.286636	0.180179
Zn7	Zn	0.937448	-0.291514	-0.436994
Zn8	Zn	1.437448	0.208486	0.063006
O9	O	0.998588	-0.254112	-0.380911
O10	O	1.498588	0.245888	0.119089
O11	O	1.153501	-0.232113	-0.430674
O12	O	1.653501	0.267887	0.069326
O13	O	1.048269	-0.278861	-0.226027
O14	O	1.548269	0.221139	0.273973
O15	O	0.957485	-0.151347	-0.336063
O16	O	1.457485	0.348653	0.163937
O17	O	1.157092	-0.285057	-0.344535
O18	O	1.657092	0.214943	0.155465
O19	O	1.039939	-0.156042	-0.425855
O20	O	1.539939	0.343958	0.074145
O21	O	0.962224	-0.221223	-0.222376
O22	O	1.462224	0.278777	0.277624
O23	O	0.843743	-0.220930	-0.331174
O24	O	1.343743	0.279070	0.168826
O25	O	0.948840	-0.284542	-0.535767
O26	O	1.448840	0.215458	-0.035767
O27	O	0.840017	-0.278346	-0.417260
O28	O	1.340017	0.221654	0.082740
O29	O	1.035020	-0.231820	-0.539472
O30	O	1.535020	0.268180	-0.039472
O31	O	1.043351	-0.354640	-0.339645
O32	O	1.543351	0.145360	0.160355
O33	O	0.953579	-0.354418	-0.422080
O34	O	1.453579	0.145582	0.077920
C35	C	0.816443	-0.248912	-0.373131
C36	C	1.316443	0.251088	0.126869
C37	C	0.738519	-0.246699	-0.369819
C38	C	1.238519	0.253301	0.130181
C39	C	0.699992	-0.275595	-0.413013
C40	C	1.199992	0.224405	0.086987
C41	C	0.626774	-0.273510	-0.409905
C42	C	1.126774	0.226490	0.090095
C43	C	0.592086	-0.242531	-0.363599
C44	C	1.092086	0.257469	0.136401
C45	C	0.630619	-0.213632	-0.320403
C46	C	1.130619	0.286368	0.179597
C47	C	0.703835	-0.215716	-0.323515
C48	C	1.203835	0.284284	0.176485
C49	C	0.371117	-0.234741	-0.351966
C50	C	0.871117	0.265259	0.148034
C51	C	0.297896	-0.232660	-0.348855
C52	C	0.797896	0.267340	0.151145
C53	C	0.294056	-0.292537	-0.438359
C54	C	0.794056	0.207463	0.061641
C55	C	0.367274	-0.294620	-0.441464
C56	C	0.867274	0.205380	0.058536
C57	C	0.405800	-0.265720	-0.398271
C58	C	0.905800	0.234280	0.101729
C59	C	0.517246	-0.240400	-0.360419
C60	C	1.017246	0.259600	0.139581
C61	C	0.480639	-0.267849	-0.401455
C62	C	0.980639	0.232151	0.098545
C63	C	0.998463	-0.370830	-0.380870
C64	C	1.498463	0.129170	0.119130
C65	C	0.998473	-0.420765	-0.380879
C66	C	1.498473	0.079235	0.119121
C67	C	1.045411	-0.730519	-0.338056
C68	C	1.545411	-0.230519	0.161944
C69	C	1.045496	-0.918195	-0.338087
C70	C	1.545496	-0.418195	0.161913
O71	O	1.085306	-0.942551	-0.301646
O72	O	1.585306	-0.442551	0.198354
N73	N	0.998731	-0.941559	-0.380970
N74	N	1.498731	-0.441559	0.119030
C75	C	0.951945	-0.918001	-0.423851
C76	C	1.451945	-0.418001	0.076149
O77	O	0.912175	-0.942181	-0.460332
O78	O	1.412175	-0.442181	0.039668
C79	C	0.951864	-0.730326	-0.423824
C80	C	1.451864	-0.230326	0.076176
C81	C	0.998627	-0.706964	-0.380933
C82	C	1.498627	-0.206964	0.119067
C83	C	1.092171	-0.707157	-0.295169
C84	C	1.592171	-0.207157	0.204831
C85	C	1.092146	-0.660241	-0.295159
C86	C	1.592146	-0.160241	0.204841
C87	C	1.045362	-0.636686	-0.338036
C88	C	1.545362	-0.136686	0.161964
C89	C	0.998602	-0.660048	-0.380923
C90	C	1.498602	-0.160048	0.119077
C91	C	0.905081	-0.706770	-0.466708
C92	C	1.405081	-0.206770	0.033292
C93	C	0.905066	-0.659848	-0.466699
C94	C	1.405066	-0.159848	0.033301
C95	C	0.951829	-0.636486	-0.423808
C96	C	1.451829	-0.136486	0.076192
C97	C	0.951794	-0.589577	-0.423789
C98	C	1.451794	-0.089577	0.076211
N99	N	0.998559	-0.566213	-0.380906
N100	N	1.498559	-0.066213	0.119094
C101	C	1.045343	-0.589768	-0.338030
C102	C	1.545343	-0.089768	0.161970
C103	C	0.951990	-1.016534	-0.423862
C104	C	1.451990	-0.516534	0.076138
C105	C	0.952010	-1.063452	-0.423868
C106	C	1.452010	-0.563452	0.076132
C107	C	1.045562	-1.063642	-0.338104
C108	C	1.545562	-0.563642	0.161896
C109	C	1.045539	-1.016723	-0.338095
C110	C	1.545539	-0.516723	0.161905
C111	C	0.998755	-0.993169	-0.380979
C112	C	1.498755	-0.493169	0.119021
C113	C	1.045288	-0.491240	-0.338011
C114	C	1.545288	0.008760	0.161989
C115	C	1.045257	-0.444319	-0.338003
C116	C	1.545257	0.055681	0.161997
C117	C	0.951708	-0.444133	-0.423769
C118	C	1.451708	0.055867	0.076231
C119	C	0.951735	-0.491049	-0.423775
C120	C	1.451735	0.008951	0.076225
C121	C	0.998531	-0.514602	-0.380894
C122	C	1.498531	-0.014602	0.119106
O123	O	0.912011	-0.565193	-0.460217
O124	O	1.412011	-0.065193	0.039783
O125	O	1.085117	-0.565581	-0.301566
O126	O	1.585117	-0.065581	0.198434
C127	C	1.045435	-0.777435	-0.338066
C128	C	1.545435	-0.277435	0.161934
C129	C	0.998676	-0.800797	-0.380953
C130	C	1.498676	-0.300797	0.119047
C131	C	0.951891	-0.777243	-0.423830
C132	C	1.451891	-0.277243	0.076170
C133	C	0.998695	-0.847716	-0.380959
C134	C	1.498695	-0.347716	0.119041
C135	C	1.045479	-0.871270	-0.338082
C136	C	1.545479	-0.371270	0.161918
C137	C	1.092244	-0.847906	-0.295199
C138	C	1.592244	-0.347906	0.204801
C139	C	1.092220	-0.800990	-0.295189
C140	C	1.592220	-0.300990	0.204811
C141	C	0.905126	-0.800607	-0.466712
C142	C	1.405126	-0.300607	0.033288
C143	C	0.905154	-0.847523	-0.466718
C144	C	1.405154	-0.347523	0.033282
C145	C	0.951938	-0.871078	-0.423842
C146	C	1.451938	-0.371078	0.076158
C147	C	1.181445	-0.259331	-0.388721
C148	C	1.681445	0.240669	0.111279
C149	C	1.259368	-0.261556	-0.392050
C150	C	1.759368	0.238444	0.107950
C151	C	0.990819	-0.258860	-0.563768
C152	C	1.490819	0.241140	-0.063768
C153	C	0.987508	-0.260884	-0.641691
C154	C	1.487508	0.239116	-0.141691
C155	C	0.998732	-0.136939	-0.380967
C156	C	1.498732	0.363061	0.119033
C157	C	0.998794	-0.087007	-0.380991
C158	C	1.498794	0.412993	0.119009
C159	C	1.030820	-0.234387	-0.680230
C160	C	1.530820	0.265613	-0.180230
C161	C	1.027700	-0.236286	-0.753446
C162	C	1.527700	0.263714	-0.253446
C163	C	0.981272	-0.264686	-0.788123
C164	C	1.481272	0.235314	-0.288123
C165	C	0.937956	-0.291184	-0.749580
C166	C	1.437956	0.208816	-0.249580
C167	C	0.941072	-0.289282	-0.676364
C168	C	1.441072	0.210718	-0.176364
C169	C	0.969615	-0.271800	-1.009090
C170	C	1.469615	0.228200	-0.509090
C171	C	0.966503	-0.273701	-1.082311
C172	C	1.466503	0.226299	-0.582311
C173	C	1.056247	-0.218802	-1.086172
C174	C	1.556247	0.281198	-0.586172
C175	C	1.059362	-0.216905	-1.012955
C176	C	1.559362	0.283095	-0.512955
C177	C	1.016043	-0.243401	-0.974418
C178	C	1.516043	0.256599	-0.474418
C179	C	0.978084	-0.266629	-0.862963
C180	C	1.478084	0.233371	-0.362963
C181	C	1.019228	-0.241455	-0.899580
C182	C	1.519228	0.258545	-0.399580
C183	C	1.006368	-0.249350	-0.198766
C184	C	1.506368	0.250650	0.301234
C185	C	1.009815	-0.247204	-0.120849
C186	C	1.509815	0.252796	0.379151
H187	H	0.262680	-0.316066	-0.473526
H188	H	0.762680	0.183934	0.026474
H189	H	0.913892	-0.997359	-0.458784
H190	H	1.413892	-0.497359	0.041216
H191	H	0.488994	-0.215177	-0.322714
H192	H	0.988994	0.284823	0.177286
C193	C	0.259740	-0.198579	-0.297913
C194	C	0.759740	0.301421	0.202087
N195	N	0.231001	-0.172911	-0.259545
N196	N	0.731001	0.327089	0.240455
H197	H	0.508885	-0.293070	-0.439160
H198	H	1.008885	0.206930	0.060840
C199	C	0.584398	-0.305305	-0.457409
C200	C	1.084398	0.194695	0.042591
N201	N	0.552480	-0.329258	-0.493187
N202	N	1.052480	0.170742	0.006813
C203	C	1.103886	-0.189652	-1.128569
C204	C	1.603886	0.310348	-0.628569
N205	N	1.139766	-0.167692	-1.160502
N206	N	1.639766	0.332308	-0.660502
C207	C	1.143585	-0.634548	-0.247969
C208	C	1.643585	-0.134548	0.252031
N209	N	1.182329	-0.615200	-0.212421
N210	N	1.682329	-0.115200	0.287579
H211	H	1.130272	-0.726330	-0.260254
H212	H	1.630272	-0.226330	0.239746
H213	H	0.395512	-0.319847	-0.479171
H214	H	0.895512	0.180153	0.020829
H215	H	0.735203	-0.192183	-0.288345
H216	H	1.235203	0.307817	0.211655
C217	C	0.900560	-1.089144	-0.471044
C218	C	1.400560	-0.589144	0.028956
N219	N	0.861809	-1.108495	-0.506582
N220	N	1.361809	-0.608495	-0.006582
C221	C	1.096983	-0.991029	-0.290914
C222	C	1.596983	-0.491029	0.209086
N223	N	1.135735	-0.971679	-0.255377
N224	N	1.635735	-0.471679	0.244623
H225	H	0.940285	-0.289754	-0.891205
H226	H	1.440285	0.210246	-0.391205
H227	H	0.866970	-0.640673	-0.501623
H228	H	1.366970	-0.140673	-0.001623
C229	C	1.096699	-0.418624	-0.290814
C230	C	1.596699	0.081376	0.209186
N231	N	1.135444	-0.399271	-0.255272
N232	N	1.635444	0.100729	0.244728
H233	H	0.928693	-0.296828	-1.110543
H234	H	1.428693	0.203172	-0.610543
H235	H	1.083395	-0.510411	-0.303095
H236	H	1.583395	-0.010411	0.196905
H237	H	0.402476	-0.211211	-0.316789
H238	H	0.902476	0.288789	0.183211
C239	C	1.097029	-1.089561	-0.290943
C240	C	1.597029	-0.589561	0.209057
N241	N	1.135795	-1.109086	-0.255428
N242	N	1.635795	-0.609086	0.244572
C243	C	0.592459	-0.179554	-0.269466
C244	C	1.092459	0.320446	0.230534
N245	N	0.563717	-0.153887	-0.231099
N246	N	1.063717	0.346113	0.268901
H247	H	0.866998	-0.725783	-0.501631
H248	H	1.366998	-0.225783	-0.001631
C249	C	0.900291	-0.516748	-0.470954
C250	C	1.400291	-0.016748	0.029046
N251	N	0.861548	-0.536101	-0.506496
N252	N	1.361548	-0.036101	-0.006496
C253	C	0.900250	-0.418214	-0.470934
C254	C	1.400250	0.081786	0.029066
N255	N	0.861496	-0.398691	-0.506463
N256	N	1.361496	0.101309	-0.006463
H257	H	0.728230	-0.300822	-0.450719
H258	H	1.228230	0.199178	0.049281
H259	H	1.130299	-0.781972	-0.260264
H260	H	1.630299	-0.281972	0.239736
H261	H	0.867068	-0.866540	-0.501645
H262	H	1.367068	-0.366540	-0.001645
C263	C	1.143706	-0.873825	-0.248034
C264	C	1.643706	-0.373825	0.251966
N265	N	1.182468	-0.893350	-0.212514
N266	N	1.682468	-0.393350	0.287486
H267	H	0.867030	-0.781432	-0.501629
H268	H	1.367030	-0.281432	-0.001629
C269	C	1.081894	-0.203144	-0.642092
C270	C	1.581894	0.296856	-0.142092
N271	N	1.120362	-0.179610	-0.613368
N272	N	1.620362	0.320390	-0.113368
C273	C	1.075348	-0.207137	-0.795835
C274	C	1.575348	0.292863	-0.295835
N275	N	1.111239	-0.185181	-0.827763
N276	N	1.611239	0.314819	-0.327763
C277	C	1.110430	-0.185658	-0.974816
C278	C	1.610430	0.314342	-0.474816
N279	N	1.148894	-0.162122	-0.946089
N280	N	1.648894	0.337878	-0.446089
C281	C	0.921960	-0.300946	-0.966708
C282	C	1.421960	0.199054	-0.466708
N283	N	0.886063	-0.322899	-0.934784
N284	N	1.386063	0.177101	-0.434784
H285	H	0.900150	-0.314306	-0.777819
H286	H	1.400150	0.185694	-0.277819
H287	H	0.905796	-0.310854	-0.644987
H288	H	1.405796	0.189146	-0.144987
H289	H	1.057027	-0.218330	-0.871343
H290	H	1.557027	0.281670	-0.371343
