data_functionalizedCrystal
_audit_creation_method	'MofGen! by Chris Wilmer'
_symmetry_space_group_name_H-M	'P1'
_symmetry_Int_Tables_number	1
_symmetry_cell_setting	triclinic
loop_
_symmetry_equiv_pos_as_xyz
  x,y,z
_cell_length_a	11.792241
_cell_length_b	10.723024
_cell_length_c	9.798715
_cell_angle_alpha	90.002215
_cell_angle_beta	90.000748
_cell_angle_gamma	95.669357
loop_
_atom_site_label
_atom_site_type_symbol
_atom_site_fract_x
_atom_site_fract_y
_atom_site_fract_z
O1	O	1.507282	-0.171036	-0.113355
O2	O	1.176979	-0.188664	-0.113386
O3	O	1.349749	0.001746	-0.113365
O4	O	1.334512	-0.361446	-0.113376
O5	O	1.349737	0.001748	0.113618
O6	O	1.176967	-0.188662	0.113596
O7	O	1.507270	-0.171035	0.113627
Zn8	Zn	1.342116	-0.179848	0.149650
Zn9	Zn	1.342132	-0.179850	-0.149409
O10	O	1.334499	-0.361445	0.113606
C11	C	1.134680	-0.187556	0.000101
C12	C	1.008659	-0.184242	0.000089
C13	C	1.348634	0.048244	0.000125
C14	C	1.345317	0.186789	0.000120
C15	C	1.335614	-0.407942	0.000114
C16	C	1.338932	-0.546488	0.000110
C17	C	0.777933	-0.178147	0.000128
C18	C	0.906326	-0.181533	0.000107
C19	C	1.549569	-0.172143	0.000137
C20	C	1.675590	-0.175457	0.000140
N21	N	1.342114	-0.179846	0.353750
C22	C	1.441990	0.262028	0.000127
C23	C	1.438563	0.405222	0.000122
N24	N	1.342144	-0.179842	-0.353508
C25	C	1.269587	-0.260143	0.421551
C26	C	1.269602	-0.260142	0.578714
H27	H	1.527292	0.220431	0.000143
H28	H	1.207486	-0.328895	0.363249
H29	H	1.521323	0.469873	0.000134
H30	H	1.256168	0.388868	0.000113
H31	H	1.260014	0.228386	0.000103
C32	C	1.426019	-0.086968	0.432501
C33	C	1.422632	0.055120	0.413043
C34	C	1.506540	0.148001	0.491791
C35	C	1.593834	0.098794	0.589996
C36	C	1.597224	-0.043301	0.609458
C37	C	1.513317	-0.136182	0.530710
H38	H	1.358008	0.091552	0.340342
H39	H	1.504029	0.253189	0.477383
H40	H	1.655948	0.167550	0.648289
H41	H	1.661848	-0.079733	0.682159
H42	H	1.515827	-0.241371	0.545118
C43	C	1.185713	-0.353018	0.657470
C44	C	1.185848	-0.352885	0.814626
C45	C	1.101956	-0.445765	0.893386
C46	C	1.017928	-0.538779	0.814989
C47	C	1.017790	-0.538916	0.657824
C48	C	1.101682	-0.446036	0.579064
H49	H	1.248053	-0.284027	0.872668
H50	H	1.102058	-0.445662	1.009730
H51	H	0.955826	-0.607534	0.873292
H52	H	0.955585	-0.607773	0.599782
H53	H	1.101579	-0.446138	0.462720
H54	H	1.404236	-0.111089	0.588194
