data_functionalizedCrystal
_audit_creation_method	'MofGen! by Chris Wilmer'
_symmetry_space_group_name_H-M	'P1'
_symmetry_Int_Tables_number	1
_symmetry_cell_setting	triclinic
loop_
_symmetry_equiv_pos_as_xyz
  x,y,z
_cell_length_a	10.540539
_cell_length_b	27.732048
_cell_length_c	9.016244
_cell_angle_alpha	89.992799
_cell_angle_beta	89.994699
_cell_angle_gamma	83.584073
loop_
_atom_site_label
_atom_site_type_symbol
_atom_site_fract_x
_atom_site_fract_y
_atom_site_fract_z
O1	O	1.682935	0.068112	-0.123289
O2	O	1.313244	0.074530	-0.123309
O3	O	1.509571	0.000996	-0.123270
O4	O	1.486608	0.141645	-0.123327
O5	O	1.509543	0.000998	0.123411
O6	O	1.313215	0.074531	0.123372
O7	O	1.682907	0.068113	0.123392
Cu8	Cu	1.498058	0.071322	0.145906
Cu9	Cu	1.498092	0.071321	-0.145822
O10	O	1.486579	0.141647	0.123353
C11	C	1.265947	0.074049	0.000030
C12	C	1.125062	0.072609	0.000023
C13	C	0.944031	0.017434	0.000622
C14	C	1.090586	0.018894	0.000050
C15	C	1.062283	0.098458	-0.140849
C16	C	0.915818	0.096625	-0.140950
C17	C	0.915250	0.097720	0.139571
C18	C	1.062210	0.098215	0.141418
C19	C	1.509075	-0.017013	0.000075
C20	C	1.507623	-0.070677	0.000087
C21	C	1.614502	-0.408819	0.000017
C22	C	1.609117	-0.610513	-0.000004
O23	O	1.706850	-0.641153	-0.000064
N24	N	1.492703	-0.630369	-0.000009
C25	C	1.377627	-0.599799	-0.000019
O26	O	1.278486	-0.621317	-0.000039
C27	C	1.383013	-0.398107	-0.000008
C28	C	1.499435	-0.378253	0.000012
C29	C	1.730915	-0.388965	0.000035
C30	C	1.732260	-0.338544	0.000048
C31	C	1.617193	-0.307978	0.000043
C32	C	1.500780	-0.327832	0.000025
C33	C	1.267939	-0.367538	-0.000028
C34	C	1.269296	-0.317112	-0.000030
C35	C	1.385718	-0.297258	-0.000010
C36	C	1.387058	-0.246846	0.000033
N37	N	1.503472	-0.226989	0.000038
C38	C	1.618540	-0.257555	0.000043
C39	C	1.374807	-0.705691	-0.000021
C40	C	1.373460	-0.756114	-0.000021
C41	C	1.604950	-0.766824	-0.000010
C42	C	1.606296	-0.716400	0.000001
C43	C	1.491221	-0.685834	-0.000016
C44	C	1.621356	-0.151668	0.000072
C45	C	1.622691	-0.101243	0.000092
C46	C	1.391201	-0.090538	0.000073
C47	C	1.389865	-0.140959	0.000061
C48	C	1.504953	-0.171523	0.000056
O49	O	1.289377	-0.216177	0.000076
O50	O	1.717666	-0.236029	0.000030
C51	C	1.613157	-0.459239	0.000003
C52	C	1.496745	-0.479094	-0.000015
C53	C	1.381678	-0.448528	-0.000020
C54	C	1.495398	-0.529517	-0.000015
C55	C	1.610465	-0.560083	-0.000010
C56	C	1.726879	-0.540226	-0.000005
C57	C	1.728224	-0.489806	0.000008
C58	C	1.265264	-0.468384	-0.000025
C59	C	1.263928	-0.518805	-0.000037
C60	C	1.378995	-0.549371	-0.000032
C61	C	1.730203	0.068594	0.000051
C62	C	1.871089	0.070034	0.000047
C63	C	1.487075	0.159656	0.000006
C64	C	1.488527	0.213320	-0.000016
N65	N	1.498044	0.071324	0.351092
N66	N	1.498117	0.071316	-0.351009
C67	C	1.392710	0.110527	0.586104
C68	C	1.392933	0.110674	0.414213
C69	C	1.630269	0.082796	0.413432
C70	C	1.629691	0.083074	0.585377
C71	C	1.472476	0.020519	0.585655
C72	C	1.469417	0.020848	0.413701
H73	H	1.084735	0.137377	0.149907
C74	C	1.742113	-0.665920	0.126817
C75	C	1.734271	-0.694580	0.000010
H76	H	1.821128	-0.652455	0.126821
H77	H	1.673794	-0.640498	0.126799
H78	H	1.736759	-0.685374	0.212832
H79	H	1.739616	-0.675125	-0.086006
H80	H	1.802609	-0.720006	0.000015
H81	H	1.294080	0.103730	0.627496
C82	C	1.537512	-0.064716	0.414062
C83	C	1.566411	-0.020439	0.355709
H84	H	1.597396	-0.090203	0.378252
H85	H	1.541584	-0.063671	0.519234
H86	H	1.453960	-0.070303	0.384251
H87	H	1.649959	-0.014850	0.385529
H88	H	1.562351	-0.021483	0.250515
C89	C	1.307164	0.180572	0.725068
C90	C	1.414360	0.161116	0.644387
H91	H	1.320541	0.211801	0.761058
H92	H	1.234187	0.183227	0.662561
H93	H	1.294081	0.159884	0.806320
H94	H	1.427438	0.181802	0.563129
H95	H	1.487359	0.158463	0.706898
H96	H	1.824622	-0.413847	0.000033
H97	H	1.549355	-0.008666	0.626323
H98	H	1.409196	0.148361	0.373052
C99	C	1.679117	0.162546	0.517021
C100	C	1.660382	0.133104	0.639489
H101	H	1.698054	0.193434	0.550425
H102	H	1.748198	0.147819	0.459214
H103	H	1.603793	0.166357	0.458379
H104	H	1.735710	0.129290	0.698125
H105	H	1.591295	0.147834	0.697320
H106	H	1.715071	-0.176549	0.000063
H107	H	1.378213	0.009599	0.629103
H108	H	0.866172	0.135256	-0.147360
C109	C	1.337952	0.007511	0.203482
C110	C	1.338117	0.009107	0.358705
H111	H	1.256893	0.000261	0.169529
H112	H	1.354725	0.038082	0.165265
H113	H	1.402114	-0.016900	0.170386
H114	H	1.273961	0.033520	0.391801
H115	H	1.321330	-0.021468	0.396937
H116	H	1.710523	0.055665	0.626974
H117	H	1.710530	0.055017	0.372543
H118	H	1.133232	-0.001590	-0.101092
H119	H	1.281093	-0.680808	-0.000035
H120	H	1.134071	-0.001446	0.101034
H121	H	0.916355	-0.003786	0.101650
H122	H	0.866338	0.136518	0.140507
H123	H	1.717499	-0.085081	0.000112
H124	H	1.173136	-0.383693	-0.000054
C125	C	0.988606	0.057167	-0.367329
C126	C	0.878863	0.070828	-0.283074
H127	H	0.965794	0.041238	-0.455066
H128	H	1.027862	0.085219	-0.393077
H129	H	1.046579	0.035773	-0.310990
H130	H	0.820893	0.092225	-0.339410
H131	H	0.839587	0.042773	-0.257329
H132	H	1.169116	-0.534965	-0.000040
H133	H	0.914753	-0.003698	-0.099826
C134	C	1.960935	-0.354211	0.000043
C135	C	1.860236	-0.316726	0.000050
H136	H	2.039945	-0.340742	0.000032
H137	H	1.955582	-0.373656	0.086061
H138	H	1.955581	-0.373651	-0.085985
H139	H	1.865584	-0.297287	0.086085
H140	H	1.865591	-0.297272	-0.085976
H141	H	1.698643	-0.791720	-0.000005
H142	H	1.082923	0.137906	-0.146106
C143	C	1.864049	-0.439330	0.126831
C144	C	1.856200	-0.467987	0.000018
H145	H	1.943064	-0.425866	0.126836
H146	H	1.795731	-0.413907	0.126820
H147	H	1.858694	-0.458786	0.212843
H148	H	1.861546	-0.448530	-0.085993
H149	H	1.924537	-0.493414	0.000016
C150	C	1.144781	-0.740451	-0.000045
C151	C	1.245485	-0.777934	-0.000031
H152	H	1.065774	-0.753921	-0.000067
H153	H	1.150112	-0.721012	0.085976
H154	H	1.150151	-0.721003	-0.086071
H155	H	1.240121	-0.797380	0.086001
H156	H	1.240151	-0.797380	-0.086061
C157	C	1.036319	-0.462874	-0.000015
C158	C	1.138770	-0.434790	-0.000014
H159	H	0.958223	-0.442134	0.000009
H160	H	1.040618	-0.482754	-0.086042
H161	H	1.040626	-0.482772	0.086005
H162	H	1.134469	-0.414894	-0.086040
H163	H	1.134470	-0.414901	0.086022
H164	H	1.175585	-0.292227	-0.000046
H165	H	1.653575	0.119438	0.370341
C166	C	1.161182	-0.125305	0.000035
C167	C	1.261894	-0.162785	0.000037
H168	H	1.082179	-0.138778	-0.000002
H169	H	1.166504	-0.105871	0.086068
H170	H	1.166552	-0.105851	-0.085979
H171	H	1.256530	-0.182236	0.086057
H172	H	1.256570	-0.182226	-0.086005
H173	H	1.105663	0.080501	-0.245673
C174	C	0.808121	0.034505	0.249051
C175	C	0.873902	0.074194	0.283729
H176	H	0.782668	0.019959	0.338045
H177	H	0.734740	0.045214	0.191741
H178	H	0.862355	0.011420	0.193868
H179	H	0.819665	0.097280	0.338903
H180	H	0.947293	0.063485	0.341062
C181	C	1.290504	-0.008484	0.000059
C182	C	1.264723	-0.056933	0.000058
H183	H	1.212419	0.012262	0.000033
H184	H	1.338255	-0.002429	0.086088
H185	H	1.338305	-0.002426	-0.085959
H186	H	1.216929	-0.062991	0.086083
H187	H	1.216951	-0.062990	-0.085979
C188	C	1.061971	0.095796	0.407617
C189	C	1.118573	0.072719	0.282115
H190	H	1.096768	0.080053	0.494474
H191	H	1.078309	0.128790	0.408492
H192	H	0.972447	0.094188	0.405010
H193	H	1.208096	0.074331	0.284717
H194	H	1.102244	0.039717	0.281241
H195	H	1.820571	-0.565122	0.000005
H196	H	1.294616	0.103771	0.372067
