data_functionalizedCrystal
_audit_creation_method	'MofGen! by Chris Wilmer'
_symmetry_space_group_name_H-M	'P1'
_symmetry_Int_Tables_number	1
_symmetry_cell_setting	triclinic
loop_
_symmetry_equiv_pos_as_xyz
  x,y,z
_cell_length_a	9.065218
_cell_length_b	12.503552
_cell_length_c	9.065218
_cell_angle_alpha	93.573739
_cell_angle_beta	85.015919
_cell_angle_gamma	86.422336
loop_
_atom_site_label
_atom_site_type_symbol
_atom_site_fract_x
_atom_site_fract_y
_atom_site_fract_z
O1	O	-1.968811	0.089372	-0.207937
O2	O	-1.635478	0.422705	0.125396
O3	O	-1.302144	0.756038	0.458729
O4	O	-1.539525	0.089361	-0.225685
O5	O	-1.206192	0.422695	0.107649
O6	O	-0.872858	0.756028	0.440982
O7	O	-1.763041	0.089364	-0.002169
O8	O	-1.429708	0.422698	0.331165
O9	O	-1.096374	0.756031	0.664498
O10	O	-1.745295	0.089368	-0.431453
O11	O	-1.411962	0.422702	-0.098120
O12	O	-1.078628	0.756035	0.235213
O13	O	-1.746212	-0.089278	-0.018993
O14	O	-1.412879	0.244055	0.314340
O15	O	-1.079545	0.577388	0.647673
O16	O	-1.522696	-0.089282	-0.242509
O17	O	-1.189363	0.244052	0.090824
O18	O	-0.856029	0.577385	0.424158
O19	O	-1.951982	-0.089271	-0.224762
O20	O	-1.618648	0.244062	0.108572
O21	O	-1.285315	0.577395	0.441905
Cu22	Cu	-1.735802	-0.105588	-0.235172
Cu23	Cu	-1.402469	0.227745	0.098162
Cu24	Cu	-1.069136	0.561079	0.431495
Cu25	Cu	-1.755705	0.105678	-0.215275
Cu26	Cu	-1.422371	0.439011	0.118059
Cu27	Cu	-1.089038	0.772345	0.451392
O28	O	-1.728466	-0.089274	-0.448278
O29	O	-1.395132	0.244059	-0.114944
O30	O	-1.061799	0.577392	0.218389
C31	C	-1.476124	0.000039	-0.232391
C32	C	-1.142790	0.333372	0.100942
C33	C	-0.809457	0.666705	0.434275
C34	C	-1.312281	0.000035	-0.227292
C35	C	-0.978947	0.333368	0.106041
C36	C	-0.645614	0.666701	0.439375
N37	N	-1.721815	-0.254181	-0.249165
N38	N	-1.388481	0.079153	0.084168
N39	N	-1.055148	0.412486	0.417501
C40	C	-1.790272	-0.526613	-0.180680
C41	C	-1.456939	-0.193280	0.152654
C42	C	-1.123606	0.140054	0.485987
C43	C	-1.701251	-0.473290	-0.269750
C44	C	-1.367918	-0.139957	0.063583
C45	C	-1.034584	0.193377	0.396916
C46	C	-1.712696	-0.351366	-0.258294
C47	C	-1.379362	-0.018033	0.075040
C48	C	-1.046029	0.315300	0.408373
C49	C	-1.778829	-0.648548	-0.192134
C50	C	-1.445496	-0.315214	0.141199
C51	C	-1.112163	0.018119	0.474532
C52	C	-1.015383	0.000047	-0.218055
C53	C	-0.682049	0.333380	0.115278
C54	C	-0.348716	0.666714	0.448611
C55	C	-1.179225	0.000038	-0.223156
C56	C	-0.845891	0.333371	0.110178
C57	C	-0.512558	0.666705	0.443511
C58	C	-1.752921	0.000045	0.044406
C59	C	-1.419588	0.333378	0.377739
C60	C	-1.086254	0.666711	0.711072
C61	C	-1.747822	0.000050	0.208249
C62	C	-1.414489	0.333383	0.541582
C63	C	-1.081155	0.666716	0.874916
N64	N	-1.769704	0.254271	-0.201270
N65	N	-1.436370	0.587604	0.132064
N66	N	-1.103037	0.920937	0.465397
C67	C	-1.738586	0.000048	-0.494852
C68	C	-1.405253	0.333381	-0.161519
C69	C	-1.071919	0.666714	0.171815
C70	C	-1.743686	0.000050	-0.658695
C71	C	-1.410353	0.333383	-0.325361
C72	C	-1.077019	0.666716	0.007972
H73	H	-1.616443	-0.519207	-0.354611
H74	H	-1.283110	-0.185874	-0.021277
H75	H	-0.949777	0.147460	0.312056
H76	H	-1.875076	-0.480701	-0.095827
H77	H	-1.541743	-0.147368	0.237507
H78	H	-1.208410	0.185965	0.570840
