data_functionalizedCrystal
_audit_creation_method	'MofGen! by Chris Wilmer'
_symmetry_space_group_name_H-M	'P1'
_symmetry_Int_Tables_number	1
_symmetry_cell_setting	triclinic
loop_
_symmetry_equiv_pos_as_xyz
  x,y,z
_cell_length_a	10.654550
_cell_length_b	14.044220
_cell_length_c	9.730223
_cell_angle_alpha	89.994583
_cell_angle_beta	89.999957
_cell_angle_gamma	88.836904
loop_
_atom_site_label
_atom_site_type_symbol
_atom_site_fract_x
_atom_site_fract_y
_atom_site_fract_z
O1	O	1.681228	0.133232	-0.114191
O2	O	1.317025	0.145925	-0.114216
O3	O	1.493659	0.001558	-0.114190
O4	O	1.504593	0.277599	-0.114217
O5	O	1.493647	0.001554	0.114390
O6	O	1.317012	0.145921	0.114364
O7	O	1.681215	0.133228	0.114389
Zn8	Zn	1.499111	0.139574	0.150668
Zn9	Zn	1.499128	0.139579	-0.150496
O10	O	1.504580	0.277595	0.114363
C11	C	1.270127	0.144991	0.000070
C12	C	1.130403	0.142202	0.000061
C13	C	1.059459	0.227204	0.000057
C14	C	0.928175	0.224578	0.000081
C15	C	0.938790	0.051942	0.000108
C16	C	1.070072	0.054569	0.000094
C17	C	1.488867	-0.033790	0.000100
C18	C	1.474592	-0.139110	0.000101
C19	C	1.448493	-0.331943	0.000079
C20	C	1.549741	-0.388910	0.000082
C21	C	1.535219	-0.496209	0.000070
C22	C	1.463013	-0.224634	0.000091
C23	C	1.728113	0.134162	0.000099
C24	C	1.867836	0.136950	0.000100
C25	C	1.509372	0.312943	0.000070
C26	C	1.523648	0.418262	0.000060
N27	N	1.499109	0.139570	0.356205
N28	N	1.499140	0.139576	-0.356032
C29	C	1.577355	0.075671	0.428142
C30	C	1.577367	0.075671	0.572025
C31	C	1.420885	0.203477	0.572021
C32	C	1.420867	0.203471	0.428140
H33	H	0.870417	0.293795	0.000080
C34	C	1.318346	-0.374302	-0.000210
C35	C	1.253245	-0.343953	-0.117823
C36	C	1.133359	-0.382978	-0.118140
H37	H	1.273825	-0.353838	0.079410
H38	H	1.325707	-0.441832	-0.000288
H39	H	1.245878	-0.276437	-0.117732
H40	H	1.297727	-0.364415	-0.197462
H41	H	1.140719	-0.450508	-0.118218
H42	H	1.088850	-0.362512	-0.038515
H43	H	1.089177	-0.362399	-0.197945
H44	H	1.641062	0.023637	0.369576
C45	C	1.662402	0.006448	0.650305
C46	C	1.744974	0.057522	0.732915
C47	C	1.823317	-0.006217	0.805058
H48	H	1.709113	-0.031634	0.587010
H49	H	1.612817	-0.033345	0.706524
H50	H	1.794554	0.097299	0.676700
H51	H	1.698298	0.095602	0.796235
H52	H	1.773731	-0.046011	0.861278
H53	H	1.870019	-0.044296	0.741754
H54	H	1.879343	0.028427	0.861127
C55	C	1.335872	0.272707	0.650306
C56	C	1.253321	0.221638	0.732962
C57	C	1.175002	0.285383	0.805109
H58	H	1.289146	0.310789	0.587013
H59	H	1.385476	0.312500	0.706494
H60	H	1.203723	0.181861	0.676778
H61	H	1.300012	0.183560	0.796280
H62	H	1.224605	0.325176	0.861298
H63	H	1.128284	0.323462	0.741807
H64	H	1.118989	0.250743	0.861209
C65	C	1.125196	0.322251	-0.000038
C66	C	1.255353	0.306363	-0.000091
C67	C	1.315946	0.393899	-0.000195
H68	H	1.101656	0.357360	0.079648
H69	H	1.101561	0.357294	-0.079784
H70	H	1.278978	0.271334	0.079647
H71	H	1.278930	0.271268	-0.079771
H72	H	1.292311	0.428943	-0.079940
H73	H	1.292396	0.429002	0.079493
H74	H	1.404263	0.383131	-0.000243
H75	H	1.357144	0.255506	0.369565
C76	C	0.873051	-0.043104	0.000060
C77	C	0.742894	-0.027214	0.000032
C78	C	0.682299	-0.114749	-0.000035
H79	H	0.896604	-0.078214	0.079752
H80	H	0.896670	-0.078148	-0.079681
H81	H	0.719284	0.007815	0.079764
H82	H	0.719304	0.007882	-0.079654
H83	H	0.705918	-0.149793	-0.079776
H84	H	0.705862	-0.149853	0.079658
H85	H	0.593982	-0.103980	-0.000067
H86	H	1.127837	-0.014653	0.000101
C87	C	1.679759	-0.346317	0.000177
C88	C	1.668506	-0.246816	0.000224
C89	C	1.788246	-0.207543	0.000335
H90	H	1.724245	-0.366703	-0.079506
H91	H	1.724127	-0.366776	0.079926
H92	H	1.624157	-0.226366	-0.079517
H93	H	1.624043	-0.226404	0.079901
H94	H	1.832614	-0.228002	0.080084
H95	H	1.832722	-0.227936	-0.079349
H96	H	1.780627	-0.140028	0.000379
