data_functionalizedCrystal
_audit_creation_method	'MofGen! by Chris Wilmer'
_symmetry_space_group_name_H-M	'P1'
_symmetry_Int_Tables_number	1
_symmetry_cell_setting	triclinic
loop_
_symmetry_equiv_pos_as_xyz
  x,y,z
_cell_length_a	10.654550
_cell_length_b	10.489716
_cell_length_c	9.130313
_cell_angle_alpha	90.002761
_cell_angle_beta	89.996220
_cell_angle_gamma	84.507019
loop_
_atom_site_label
_atom_site_type_symbol
_atom_site_fract_x
_atom_site_fract_y
_atom_site_fract_z
O1	O	1.667902	0.179158	-0.121906
O2	O	1.302430	0.196228	-0.121881
O3	O	1.493499	0.002089	-0.121899
O4	O	1.476834	0.373297	-0.121887
O5	O	1.493496	0.002094	0.121700
O6	O	1.302428	0.196233	0.121718
O7	O	1.667900	0.179163	0.121693
Cu8	Cu	1.485164	0.187699	0.143948
Cu9	Cu	1.485167	0.187692	-0.144136
O10	O	1.476832	0.373302	0.121712
C11	C	1.255631	0.194977	-0.000078
C12	C	1.116186	0.191227	-0.000069
C13	C	1.492245	-0.045440	-0.000104
C14	C	1.488499	-0.187069	-0.000117
C15	C	1.036744	0.305533	-0.000087
C16	C	0.905722	0.302002	-0.000113
C17	C	0.933597	0.069849	-0.000109
C18	C	1.064616	0.073382	-0.000073
C19	C	1.020650	0.439565	-0.000096
C20	C	0.889628	0.436034	-0.000121
C21	C	1.605668	-0.284800	-0.000112
C22	C	1.543755	-0.362133	-0.120211
C23	C	1.543725	-0.362092	0.119959
C24	C	1.426635	-0.262537	-0.120315
C25	C	1.426623	-0.262490	0.119962
C26	C	1.364623	-0.339775	-0.000166
C27	C	1.714700	0.180414	-0.000112
C28	C	1.854144	0.184164	-0.000131
C29	C	1.478085	0.420831	-0.000087
C30	C	1.481831	0.562460	-0.000083
N31	N	1.485171	0.187702	0.346571
N32	N	1.485169	0.187679	-0.346758
C33	C	1.569798	0.101767	0.423215
C34	C	1.569795	0.101752	0.576552
C35	C	1.400533	0.273618	0.576587
C36	C	1.400532	0.273626	0.423253
C37	C	1.667523	0.002545	0.423196
C38	C	1.667520	0.002530	0.576532
H39	H	0.891592	-0.026097	-0.000134
H40	H	1.758719	0.033613	0.375632
O41	O	1.609280	-0.419793	-0.254706
H42	H	1.561589	-0.378346	-0.354306
O43	O	1.361173	-0.204793	0.254474
H44	H	1.280320	-0.136528	0.220690
H45	H	1.636972	-0.090123	0.624079
O46	O	1.229514	-0.372047	-0.000202
H47	H	1.181177	-0.331797	-0.099985
H48	H	0.843971	0.476542	0.105048
O49	O	1.795360	0.031488	0.631673
H50	H	1.857946	0.045691	0.537064
H51	H	1.129294	-0.019697	-0.000037
O52	O	0.834368	0.502917	-0.135167
H53	H	0.730496	0.500088	-0.135091
H54	H	1.377201	-0.219211	-0.221962
H55	H	1.050000	0.491986	0.101857
O56	O	1.609254	-0.419691	0.254467
H57	H	1.709218	-0.398082	0.254195
O58	O	1.309251	0.366305	0.340580
H59	H	1.250408	0.426057	0.419666
H60	H	1.331621	0.343574	0.639038
H61	H	1.056323	0.482240	-0.105266
O62	O	1.639084	-0.127313	0.368008
H63	H	1.545101	-0.148553	0.408541
O64	O	1.740657	-0.252146	-0.000278
H65	H	1.789015	-0.292229	-0.100138
