data_functionalizedCrystal
_audit_creation_method	'MofGen! by Chris Wilmer'
_symmetry_space_group_name_H-M	'P1'
_symmetry_Int_Tables_number	1
_symmetry_cell_setting	triclinic
loop_
_symmetry_equiv_pos_as_xyz
  x,y,z
_cell_length_a	10.654550
_cell_length_b	15.995350
_cell_length_c	9.130313
_cell_angle_alpha	89.997713
_cell_angle_beta	89.999724
_cell_angle_gamma	83.988653
loop_
_atom_site_label
_atom_site_type_symbol
_atom_site_fract_x
_atom_site_fract_y
_atom_site_fract_z
O1	O	1.666303	0.117603	-0.121682
O2	O	1.300678	0.128807	-0.121708
O3	O	1.493485	0.001375	-0.121693
O4	O	1.473496	0.245034	-0.121697
O5	O	1.493472	0.001371	0.121906
O6	O	1.300665	0.128803	0.121891
O7	O	1.666290	0.117599	0.121917
Cu8	Cu	1.483476	0.123201	0.144146
Cu9	Cu	1.483492	0.123205	-0.143938
O10	O	1.473483	0.245031	0.121902
C11	C	1.253884	0.127982	0.000088
C12	C	1.114473	0.125521	0.000078
C13	C	1.034008	0.200551	0.000080
C14	C	0.903017	0.198233	0.000106
C15	C	0.932971	0.045849	0.000120
C16	C	1.063959	0.048168	0.000105
C17	C	1.492652	-0.029826	0.000103
C18	C	1.490175	-0.122791	0.000095
C19	C	1.481277	-0.460590	0.000099
C20	C	1.343964	-0.413954	-0.000457
C21	C	1.346442	-0.317249	0.000092
C22	C	1.485691	-0.293004	0.000096
C23	C	1.553411	-0.333690	0.139205
C24	C	1.549962	-0.430346	0.139322
C25	C	1.552813	-0.430684	-0.137696
C26	C	1.552781	-0.333738	-0.139534
C27	C	1.488192	-0.198292	0.000100
C28	C	1.478780	-0.555303	0.000106
C29	C	1.713084	0.118423	0.000118
C30	C	1.852495	0.120885	0.000118
C31	C	1.474316	0.276232	0.000102
C32	C	1.476793	0.369197	0.000101
N33	N	1.483475	0.123197	0.346769
N34	N	1.483504	0.123202	-0.346560
C35	C	1.568878	0.066794	0.423427
C36	C	1.568890	0.066794	0.576764
C37	C	1.398091	0.179608	0.576770
C38	C	1.398074	0.179603	0.423436
H39	H	1.289086	-0.432803	-0.100215
C40	C	1.710312	-0.520438	-0.266950
C41	C	1.689484	-0.472765	-0.138973
H42	H	1.794685	-0.546414	-0.267732
H43	H	1.653591	-0.562430	-0.269991
H44	H	1.696804	-0.484795	-0.349920
H45	H	1.702983	-0.508409	-0.056003
H46	H	1.746222	-0.430768	-0.135918
H47	H	1.293209	-0.289135	-0.099627
H48	H	1.328522	0.225533	0.361017
H49	H	0.891826	-0.017129	0.000150
H50	H	1.655713	-0.318971	0.144382
C51	C	1.080422	-0.102697	0.000103
C52	C	1.152418	-0.034312	0.000095
H53	H	1.135035	-0.153612	0.000091
H54	H	1.028718	-0.100434	0.085051
H55	H	1.028699	-0.100427	-0.084846
H56	H	1.204135	-0.036578	0.085050
H57	H	1.204143	-0.036575	-0.084862
H58	H	1.289319	-0.433866	0.098738
C59	C	1.163958	0.291558	0.125271
C60	C	1.089541	0.285574	0.000061
H61	H	1.198245	0.344048	0.125253
H62	H	1.113488	0.287491	0.210211
H63	H	1.230625	0.247200	0.125249
H64	H	1.022868	0.329929	0.000088
H65	H	1.140014	0.289649	-0.084901
H66	H	1.328561	0.225533	0.639208
H67	H	0.837506	0.259330	0.000111
C68	C	1.684293	-0.560508	0.148076
C69	C	1.686048	-0.473097	0.147881
H70	H	1.768306	-0.586895	0.153362
H71	H	1.637790	-0.576587	0.230319
H72	H	1.645609	-0.577321	0.060664
H73	H	1.724723	-0.456283	0.235299
H74	H	1.732570	-0.457012	0.065631
C75	C	1.571730	-0.257903	-0.364035
C76	C	1.486042	-0.297267	-0.278468
H77	H	1.530527	-0.235386	-0.449807
H78	H	1.602563	-0.213830	-0.309411
H79	H	1.640205	-0.297802	-0.390936
H80	H	1.417572	-0.257365	-0.251557
H81	H	1.455191	-0.341345	-0.333102
H82	H	1.292840	-0.289697	0.099974
H83	H	1.638415	0.020864	0.361008
H84	H	1.638432	0.020865	0.639175
C85	C	1.443614	-0.359598	0.361603
C86	C	1.489903	-0.295760	0.278960
H87	H	1.404409	-0.336181	0.447882
H88	H	1.383640	-0.385674	0.305324
H89	H	1.511410	-0.400227	0.387669
H90	H	1.422106	-0.255134	0.252885
H91	H	1.549882	-0.269671	0.335250
C92	C	1.389754	-0.503316	-0.245769
C93	C	1.492213	-0.458752	-0.280036
H94	H	1.352330	-0.520638	-0.333640
H95	H	1.418267	-0.551338	-0.188992
H96	H	1.329169	-0.468186	-0.191455
H97	H	1.552803	-0.493884	-0.334340
H98	H	1.463703	-0.410722	-0.336837
H99	H	1.500569	-0.448936	0.243305
C100	C	1.716741	-0.261704	-0.032026
C101	C	1.689871	-0.312214	-0.150872
H102	H	1.801382	-0.248423	-0.039015
H103	H	1.660987	-0.211322	-0.033211
H104	H	1.706096	-0.291121	0.056750
H105	H	1.700507	-0.282795	-0.239648
H106	H	1.745642	-0.362604	-0.149701
