data_functionalizedCrystal
_audit_creation_method	'MofGen! by Chris Wilmer'
_symmetry_space_group_name_H-M	'P1'
_symmetry_Int_Tables_number	1
_symmetry_cell_setting	triclinic
loop_
_symmetry_equiv_pos_as_xyz
  x,y,z
_cell_length_a	17.666332
_cell_length_b	15.995350
_cell_length_c	15.995350
_cell_angle_alpha	96.507625
_cell_angle_beta	90.004241
_cell_angle_gamma	89.994295
loop_
_atom_site_label
_atom_site_type_symbol
_atom_site_fract_x
_atom_site_fract_y
_atom_site_fract_z
O1	O	0.062880	-1.110991	0.107928
O2	O	0.062896	-0.867216	0.121256
O3	O	0.062887	-0.995767	-0.007296
O4	O	0.062889	-0.982440	0.236479
O5	O	-0.063010	-0.995745	-0.007303
O6	O	-0.063001	-0.867193	0.121249
O7	O	-0.063016	-1.110969	0.107921
Cu8	Cu	-0.074504	-0.989079	0.114584
Cu9	Cu	0.074383	-0.989106	0.114592
O10	O	-0.063008	-0.982417	0.236473
C11	C	-0.000051	-0.836010	0.120701
C12	C	-0.000045	-0.743060	0.119049
N13	N	-0.179224	-0.989066	0.114578
C14	C	-0.000060	-0.995205	-0.038494
C15	C	-0.000056	-0.993553	-0.131444
C16	C	-0.218837	-1.046007	0.057683
C17	C	-0.298085	-1.046012	0.057679
C18	C	-0.337716	-0.989084	0.114584
C19	C	-0.298093	-0.932132	0.171483
C20	C	-0.218847	-0.932124	0.171480
N21	N	-0.462133	-0.978426	0.188673
N22	N	-0.537414	-0.978439	0.188673
C23	C	-0.576480	-0.989106	0.114596
N24	N	-0.537421	-0.999776	0.040516
N25	N	-0.462134	-0.999766	0.040517
C26	C	-0.423645	-0.989087	0.114594
C27	C	-0.702023	-1.046056	0.057692
C28	C	-0.781272	-1.046055	0.057687
C29	C	-0.781278	-0.932179	0.171499
C30	C	-0.702030	-0.932176	0.171497
C31	C	-0.662408	-0.989119	0.114594
N32	N	0.179103	-0.989125	0.114592
C33	C	-0.000068	-1.142175	0.108476
C34	C	-0.000069	-1.235125	0.110127
C35	C	-0.000061	-0.405312	0.113117
C36	C	-0.000342	-0.452746	0.021565
C37	C	-0.000053	-0.549436	0.023217
C38	C	-0.000053	-0.572873	0.116060
C39	C	0.071837	-0.531798	0.161220
C40	C	0.071892	-0.435163	0.158920
C41	C	-0.071276	-0.434798	0.160804
C42	C	-0.072221	-0.531743	0.160782
C43	C	-0.000047	-0.667570	0.117727
C44	C	-0.000062	-0.310614	0.111452
C45	C	-0.000058	-0.987621	-0.469192
C46	C	0.000230	-0.896069	-0.421758
C47	C	-0.000054	-0.897721	-0.325068
C48	C	-0.000056	-0.990564	-0.301631
C49	C	-0.071951	-1.035707	-0.342713
C50	C	-0.072011	-1.033408	-0.439349
C51	C	0.071157	-1.035324	-0.439699
C52	C	0.072107	-1.035303	-0.342753
C53	C	-0.000058	-0.992231	-0.206934
C54	C	-0.000061	-0.985956	-0.563890
C55	C	-0.000059	-0.982980	0.267671
C56	C	-0.000059	-0.984631	0.360621
H57	H	-0.330344	-1.092382	0.011347
H58	H	-0.669775	-0.885812	0.217829
C59	C	-0.824862	-0.869558	0.234093
H60	H	-0.877733	-0.877721	0.225950
H61	H	-0.811885	-0.813679	0.224968
H62	H	-0.811868	-0.878653	0.289983
H63	H	-0.125451	-1.004334	-0.314334
H64	H	-0.669760	-1.092420	0.011357
C65	C	-0.341680	-0.869496	0.234063
H66	H	-0.306734	-0.835572	0.267940
H67	H	-0.372592	-0.899598	0.268946
H68	H	-0.372595	-0.834654	0.203901
H69	H	-0.186592	-0.885754	0.217812
C70	C	0.144484	-0.410438	0.114433
H71	H	0.173661	-0.459432	0.097929
H72	H	0.173227	-0.372469	0.151842
H73	H	0.131346	-0.384175	0.066066
H74	H	-0.186578	-1.092372	0.011348
C75	C	-0.824847	-1.108695	-0.004899
H76	H	-0.789896	-1.142609	-0.038779
H77	H	-0.855770	-1.078588	-0.039776
H78	H	-0.855751	-1.143547	0.025254
C79	C	-0.069793	-0.849448	-0.287424
H80	H	-0.098066	-0.828756	-0.331235
H81	H	-0.053765	-0.803629	-0.248452
H82	H	-0.100588	-0.886188	-0.259373
H83	H	0.071638	-1.102825	-0.471460
C84	C	-0.144601	-0.988904	-0.464084
H85	H	-0.145280	-0.987111	-0.523244
H86	H	-0.145716	-0.933193	-0.436284
H87	H	-0.187596	-1.018962	-0.447993
C88	C	-0.069669	-0.587833	-0.024737
H89	H	-0.098380	-0.544343	-0.045410
H90	H	-0.100082	-0.616118	0.012164
H91	H	-0.053492	-0.626717	-0.070565
H92	H	-0.051898	-0.434215	-0.015033
H93	H	0.075155	-0.402915	0.226136
C94	C	0.068914	-0.426288	-0.027647
H95	H	0.098001	-0.386463	0.007359
H96	H	0.052381	-0.401743	-0.075845
H97	H	0.099096	-0.474341	-0.044802
C98	C	0.069689	-0.587087	-0.025043
H99	H	0.097959	-0.543279	-0.045729
H100	H	0.053661	-0.626057	-0.070866
H101	H	0.100485	-0.615142	0.011701
H102	H	-0.076563	-0.547108	0.228485
C103	C	0.143960	-0.990781	-0.305869
H104	H	0.130048	-0.945121	-0.265572
H105	H	0.172191	-0.970220	-0.349767
H106	H	0.173966	-1.029538	-0.279491
C107	C	0.075458	-0.550884	0.253361
H108	H	0.033058	-0.584155	0.265134
H109	H	0.074789	-0.499597	0.289667
H110	H	0.120758	-0.580693	0.262122
H111	H	0.051483	-0.862234	-0.296643
H112	H	0.125340	-0.560182	0.129859
C113	C	-0.144890	-0.407046	0.120370
H114	H	-0.132878	-0.377215	0.074020
H115	H	-0.172958	-0.371569	0.160771
H116	H	-0.174241	-0.455237	0.101352
C117	C	-0.076440	-1.124202	-0.482921
H118	H	-0.076505	-1.123413	-0.542221
H119	H	-0.121613	-1.149987	-0.466324
H120	H	-0.033928	-1.155217	-0.467106
C121	C	-0.144070	-0.568624	0.116247
H122	H	-0.130154	-0.608924	0.070591
H123	H	-0.172305	-0.524726	0.095679
H124	H	-0.174073	-0.594999	0.155000
H125	H	0.125649	-1.005401	-0.460236
C126	C	-0.071934	-0.391897	0.251991
H127	H	-0.029046	-0.356183	0.260991
H128	H	-0.070353	-0.433566	0.289811
H129	H	-0.116803	-0.359457	0.261419
C130	C	0.069871	-0.846639	-0.446796
H131	H	0.099395	-0.881388	-0.486406
H132	H	0.099478	-0.829806	-0.398219
H133	H	0.053700	-0.798230	-0.471232
H134	H	-0.051035	-0.859630	-0.441355
C135	C	-0.075574	-1.127848	-0.323628
H136	H	-0.033173	-1.139631	-0.290353
H137	H	-0.074910	-1.164154	-0.374915
H138	H	-0.120874	-1.136598	-0.293823
H139	H	0.076446	-1.103008	-0.327391
