data_functionalizedCrystal
_audit_creation_method	'MofGen! by Chris Wilmer'
_symmetry_space_group_name_H-M	'P1'
_symmetry_Int_Tables_number	1
_symmetry_cell_setting	triclinic
loop_
_symmetry_equiv_pos_as_xyz
  x,y,z
_cell_length_a	14.519709
_cell_length_b	15.995350
_cell_length_c	12.996460
_cell_angle_alpha	89.996086
_cell_angle_beta	90.000034
_cell_angle_gamma	83.586260
loop_
_atom_site_label
_atom_site_type_symbol
_atom_site_fract_x
_atom_site_fract_y
_atom_site_fract_z
O1	O	1.223669	0.109760	-0.085428
O2	O	1.723669	0.609760	0.414572
O3	O	0.955169	0.122686	-0.085458
O4	O	1.455169	0.622686	0.414542
O5	O	1.096759	-0.005654	-0.085441
O6	O	1.596759	0.494346	0.414559
O7	O	1.082080	0.238099	-0.085445
O8	O	1.582080	0.738099	0.414555
O9	O	1.096744	-0.005661	0.085693
O10	O	1.596744	0.494339	0.585693
O11	O	0.955154	0.122678	0.085675
O12	O	1.455154	0.622678	0.585675
O13	O	1.223655	0.109753	0.085706
O14	O	1.723655	0.609753	0.585706
Cu15	Cu	1.089403	0.116215	0.101317
Cu16	Cu	1.589403	0.616215	0.601317
Cu17	Cu	1.089421	0.116224	-0.101069
Cu18	Cu	1.589421	0.616224	0.398931
O19	O	1.082065	0.238092	0.085689
O20	O	1.582065	0.738092	0.585689
C21	C	0.920803	0.122080	0.000104
C22	C	1.420803	0.622080	0.500104
C23	C	0.818425	0.120275	0.000092
C24	C	1.318425	0.620275	0.500092
C25	C	0.443541	0.113629	0.000139
C26	C	0.943541	0.613629	0.500139
C27	C	0.547846	0.115475	0.000126
C28	C	1.047846	0.615475	0.500126
C29	C	0.630980	0.116952	0.000115
C30	C	1.130980	0.616952	0.500115
C31	C	0.735291	0.118797	0.000104
C32	C	1.235291	0.618797	0.500104
C33	C	1.096145	-0.036853	0.000124
C34	C	1.596145	0.463147	0.500124
C35	C	1.094325	-0.129806	0.000118
C36	C	1.594325	0.370194	0.500118
C37	C	1.087791	-0.467563	0.000120
C38	C	1.587791	0.032437	0.500120
C39	C	0.986954	-0.420280	-0.000275
C40	C	1.486954	0.079720	0.499725
C41	C	0.988773	-0.323587	0.000111
C42	C	1.488773	0.176413	0.500111
C43	C	1.091032	-0.299998	0.000118
C44	C	1.591032	0.200002	0.500118
C45	C	1.140761	-0.341005	0.097848
C46	C	1.640761	0.158995	0.597848
C47	C	1.138227	-0.437645	0.097930
C48	C	1.638227	0.062355	0.597930
C49	C	1.140327	-0.437992	-0.096681
C50	C	1.640327	0.062008	0.403319
C51	C	1.140303	-0.341046	-0.097973
C52	C	1.640303	0.158954	0.402027
C53	C	1.092869	-0.205298	0.000121
C54	C	1.592869	0.294702	0.500121
C55	C	1.085957	-0.562264	0.000125
C56	C	1.585957	-0.062264	0.500125
C57	C	1.258021	0.110359	0.000141
C58	C	1.758021	0.610359	0.500141
C59	C	1.360399	0.112164	0.000146
C60	C	1.860399	0.612164	0.500146
C61	C	1.082679	0.269292	0.000122
C62	C	1.582679	0.769292	0.500122
C63	C	1.084498	0.362245	0.000121
C64	C	1.584498	0.862245	0.500121
N65	N	1.089398	0.116209	0.243664
N66	N	1.589398	0.616209	0.743664
N67	N	1.089433	0.116223	-0.243416
N68	N	1.589433	0.616223	0.256584
C69	C	1.089419	0.116224	0.663478
C70	C	1.589419	0.616224	1.163478
C71	C	1.089411	0.116223	0.546673
C72	C	1.589411	0.616223	1.046673
C73	C	1.089409	0.116217	0.453575
C74	C	1.589409	0.616217	0.953575
C75	C	1.089399	0.116214	0.336762
C76	C	1.589399	0.616214	0.836762
H77	H	0.946656	-0.438869	-0.070359
H78	H	1.446656	0.061131	0.429641
C79	C	0.861251	-0.228723	0.062695
C80	C	1.361251	0.271277	0.562695
C81	C	0.935640	-0.286051	0.094840
C82	C	1.435640	0.213949	0.594840
H83	H	0.828447	-0.205557	0.121183
H84	H	1.328447	0.294443	0.621183
H85	H	0.884048	-0.184891	0.024282
H86	H	1.384048	0.315109	0.524282
H87	H	0.820801	-0.256849	0.020834
H88	H	1.320801	0.243151	0.520834
H89	H	0.976094	-0.257924	0.136695
H90	H	1.476094	0.242076	0.636695
H91	H	0.912843	-0.329890	0.133270
H92	H	1.412843	0.170110	0.633270
H93	H	0.946823	-0.439937	0.069410
H94	H	1.446823	0.060063	0.569410
C95	C	0.902444	-0.349435	-0.151968
C96	C	1.402444	0.150565	0.348032
C97	C	0.935992	-0.285286	-0.094453
C98	C	1.435992	0.214714	0.405547
H99	H	0.869849	-0.325789	-0.210344
H100	H	1.369849	0.174211	0.289656
H101	H	0.952913	-0.388230	-0.173956
H102	H	1.452913	0.111770	0.326044
H103	H	0.861804	-0.377782	-0.110613
H104	H	1.361804	0.122218	0.389387
H105	H	0.976637	-0.256943	-0.135806
H106	H	1.476637	0.243057	0.364194
H107	H	0.885516	-0.246476	-0.072467
H108	H	1.385516	0.253524	0.427533
C109	C	1.062458	-0.390264	0.254980
C110	C	1.562458	0.109736	0.754980
C111	C	1.089247	-0.462434	0.196534
C112	C	1.589247	0.037566	0.696534
H113	H	1.032213	-0.405566	0.315850
H114	H	1.532213	0.094434	0.815850
H115	H	1.115719	-0.363928	0.272835
H116	H	1.615719	0.136072	0.772835
H117	H	1.021259	-0.352360	0.215893
H118	H	1.521259	0.147640	0.715893
H119	H	1.130451	-0.500336	0.235617
H120	H	1.630451	-0.000336	0.735617
H121	H	1.035979	-0.488783	0.178680
H122	H	1.535979	0.011217	0.678680
H123	H	1.215887	-0.326767	0.101488
H124	H	1.715887	0.173233	0.601488
C125	C	1.144087	-0.438544	-0.281386
C126	C	1.644087	0.061456	0.218614
C127	C	1.095834	-0.465778	-0.196681
C128	C	1.595834	0.034222	0.303319
H129	H	1.116614	-0.455703	-0.343116
H130	H	1.616614	0.044297	0.156884
H131	H	1.141465	-0.378953	-0.280126
H132	H	1.641465	0.121047	0.219874
H133	H	1.206906	-0.462518	-0.278368
H134	H	1.706906	0.037482	0.221632
H135	H	1.033016	-0.441798	-0.199695
H136	H	1.533016	0.058202	0.300305
H137	H	1.098446	-0.525380	-0.197942
H138	H	1.598446	-0.025380	0.302058
C139	C	1.236875	-0.568438	0.104084
C140	C	1.736875	-0.068438	0.604084
C141	C	1.238164	-0.481037	0.103948
C142	C	1.738164	0.018963	0.603948
H143	H	1.298570	-0.595222	0.107801
H144	H	1.798570	-0.095222	0.607801
H145	H	1.202723	-0.584300	0.161860
H146	H	1.702723	-0.084300	0.661860
H147	H	1.208469	-0.585068	0.042674
H148	H	1.708469	-0.085068	0.542674
H149	H	1.266563	-0.464406	0.165362
H150	H	1.766563	0.035594	0.665362
H151	H	1.272329	-0.465169	0.046167
H152	H	1.772329	0.034831	0.546167
H153	H	1.106210	-0.312678	0.170570
H154	H	1.606210	0.187322	0.670570
C155	C	1.302087	-0.419198	-0.094396
C156	C	1.802087	0.080802	0.405604
C157	C	1.240692	-0.480718	-0.097567
C158	C	1.740692	0.019282	0.402433
H159	H	1.364044	-0.445581	-0.094930
H160	H	1.864044	0.054419	0.405070
H161	H	1.292176	-0.383510	-0.152691
H162	H	1.792176	0.116490	0.347309
H163	H	1.291687	-0.386791	-0.033406
H164	H	1.791687	0.113209	0.466594
H165	H	1.251087	-0.513122	-0.158562
H166	H	1.751087	-0.013122	0.341438
H167	H	1.250607	-0.516421	-0.039266
H168	H	1.750607	-0.016421	0.460734
H169	H	1.103946	-0.313849	-0.170271
H170	H	1.603946	0.186151	0.329729
H171	H	1.214875	-0.325572	-0.103868
H172	H	1.714875	0.174428	0.396132
