data_functionalizedCrystal
_audit_creation_method	'MofGen! by Chris Wilmer'
_symmetry_space_group_name_H-M	'P1'
_symmetry_Int_Tables_number	1
_symmetry_cell_setting	triclinic
loop_
_symmetry_equiv_pos_as_xyz
  x,y,z
_cell_length_a	16.120530
_cell_length_b	13.032721
_cell_length_c	13.034296
_cell_angle_alpha	89.133654
_cell_angle_beta	79.563197
_cell_angle_gamma	85.323259
loop_
_atom_site_label
_atom_site_type_symbol
_atom_site_fract_x
_atom_site_fract_y
_atom_site_fract_z
Zn1	Zn	1.306904	0.406996	-0.725549
Zn2	Zn	1.640238	0.740330	-0.392215
Zn3	Zn	1.973571	1.073663	-0.058882
Zn4	Zn	1.271886	0.598932	-0.572940
Zn5	Zn	1.605220	0.932265	-0.239607
Zn6	Zn	1.938553	1.265598	0.093727
Zn7	Zn	1.147575	0.420176	-0.542368
Zn8	Zn	1.480909	0.753509	-0.209035
Zn9	Zn	1.814242	1.086842	0.124298
Zn10	Zn	1.151997	0.570459	-0.736414
Zn11	Zn	1.485331	0.903793	-0.403081
Zn12	Zn	1.818664	1.237126	-0.069747
O13	O	1.219591	0.499141	-0.644318
O14	O	1.552924	0.832474	-0.310984
O15	O	1.886258	1.165808	0.022349
O16	O	1.419113	0.438857	-0.713552
O17	O	1.752446	0.772191	-0.380219
O18	O	2.085780	1.105524	-0.046885
O19	O	1.238890	0.592651	-0.423808
O20	O	1.572224	0.925984	-0.090475
O21	O	1.905557	1.259317	0.242858
O22	O	1.181515	0.275208	-0.549326
O23	O	1.514848	0.608541	-0.215993
O24	O	1.848182	0.941874	0.117341
O25	O	1.393386	0.579871	-0.601431
O26	O	1.726719	0.913205	-0.268098
O27	O	2.060052	1.246538	0.065236
O28	O	1.298574	0.265525	-0.683908
O29	O	1.631907	0.598858	-0.350575
O30	O	1.965240	0.932192	-0.017241
O31	O	1.147559	0.461320	-0.401347
O32	O	1.480893	0.794653	-0.068014
O33	O	1.814226	1.127986	0.265319
O34	O	1.031308	0.433711	-0.559862
O35	O	1.364641	0.767044	-0.226528
O36	O	1.697975	1.100378	0.106805
O37	O	1.189052	0.531344	-0.880049
O38	O	1.522385	0.864678	-0.546716
O39	O	1.855719	1.198011	-0.213382
O40	O	1.034557	0.544124	-0.702426
O41	O	1.367890	0.877457	-0.369093
O42	O	1.701223	1.210790	-0.035759
O43	O	1.302862	0.411249	-0.872066
O44	O	1.636195	0.744582	-0.538733
O45	O	1.969528	1.077915	-0.205400
O46	O	1.243178	0.738375	-0.611967
O47	O	1.576512	1.071708	-0.278633
O48	O	1.909845	1.405041	0.054700
O49	O	1.155096	0.717456	-0.732070
O50	O	1.488430	1.050789	-0.398737
O51	O	1.821763	1.384123	-0.065404
C52	C	1.195842	0.765049	-0.676539
C53	C	1.529176	1.098382	-0.343206
C54	C	1.862509	1.431716	-0.009872
C55	C	1.185763	0.878806	-0.690364
C56	C	1.519096	1.212139	-0.357030
C57	C	1.852430	1.545472	-0.023697
C58	C	1.002633	0.487259	-0.629006
C59	C	1.335967	0.820592	-0.295673
C60	C	1.669300	1.153925	0.037661
C61	C	0.909819	0.482197	-0.622483
C62	C	1.243152	0.815530	-0.289150
C63	C	1.576485	1.148864	0.044183
C64	C	1.250356	0.466650	-0.914726
C65	C	1.583690	0.799984	-0.581393
C66	C	1.917023	1.133317	-0.248059
C67	C	1.263467	0.452805	-1.029958
C68	C	1.596800	0.786138	-0.696624
C69	C	1.930133	1.119471	-0.363291
C70	C	0.739888	0.472931	-0.610580
C71	C	1.073222	0.806264	-0.277247
C72	C	1.406555	1.139598	0.056086
C73	C	0.700136	0.525417	-0.678140
C74	C	1.033469	0.858750	-0.344807
C75	C	1.366802	1.192084	-0.011473
C76	C	0.605581	0.520261	-0.671517
C77	C	0.938914	0.853595	-0.338184
C78	C	1.272247	1.186928	-0.004850
C79	C	0.834452	0.478085	-0.617202
C80	C	1.167785	0.811419	-0.283868
C81	C	1.501119	1.144752	0.049465
C82	C	1.437395	0.511070	-0.659690
C83	C	1.770729	0.844404	-0.326357
C84	C	2.104062	1.177737	0.006977
C85	C	1.530211	0.516154	-0.666241
C86	C	1.863544	0.849487	-0.332907
C87	C	2.196877	1.182820	0.000426
C88	C	1.243457	0.232193	-0.611995
C89	C	1.576791	0.565526	-0.278661
C90	C	1.910124	0.898859	0.054672
C91	C	1.253628	0.118435	-0.598221
C92	C	1.586961	0.451769	-0.264887
C93	C	1.920294	0.785102	0.068446
C94	C	1.224901	0.939834	-0.637152
C95	C	1.558234	1.273168	-0.303819
C96	C	1.891568	1.606501	0.029514
C97	C	1.214484	1.057408	-0.651439
C98	C	1.547818	1.390742	-0.318106
C99	C	1.881151	1.724075	0.015227
C100	C	1.213001	0.506053	-1.085281
C101	C	1.546334	0.839386	-0.751948
C102	C	1.879667	1.172720	-0.418615
C103	C	1.226550	0.491744	-1.204380
C104	C	1.559883	0.825078	-0.871046
C105	C	1.893216	1.158411	-0.537713
C106	C	1.189000	0.531434	-0.374956
C107	C	1.522333	0.864767	-0.041623
C108	C	1.855666	1.198100	0.291711
C109	C	1.176077	0.545000	-0.259701
C110	C	1.509410	0.878333	0.073632
C111	C	1.842744	1.211666	0.406966
H112	H	0.737116	0.574223	-0.740954
H113	H	1.070449	0.907556	-0.407621
H114	H	1.403782	1.240889	-0.074288
Br115	Br	1.087347	0.638660	-1.191707
Br116	Br	1.420680	0.971993	-0.858374
Br117	Br	1.754014	1.305327	-0.525041
Br118	Br	0.678257	0.391587	-0.505893
Br119	Br	1.011590	0.724920	-0.172560
Br120	Br	1.344923	1.058253	0.160774
H121	H	1.294853	1.083646	-0.542088
H122	H	1.628187	1.416980	-0.208754
H123	H	1.961520	1.750313	0.124579
H124	H	1.144548	0.913600	-0.746501
H125	H	1.477881	1.246933	-0.413168
H126	H	1.811215	1.580267	-0.079834
Br127	Br	1.145786	1.115384	-0.745016
Br128	Br	1.479119	1.448717	-0.411682
Br129	Br	1.812452	1.782051	-0.078349
Br130	Br	1.124270	0.599700	-1.017279
Br131	Br	1.457603	0.933034	-0.683946
Br132	Br	1.790936	1.266367	-0.350612
H133	H	1.266124	0.905042	-0.581023
H134	H	1.599457	1.238376	-0.247689
H135	H	1.932791	1.571709	0.085644
H136	H	1.279792	0.435563	-1.245183
H137	H	1.613125	0.768896	-0.911850
H138	H	1.946459	1.102230	-0.578517
H139	H	1.316705	0.396628	-1.070766
H140	H	1.650039	0.729961	-0.737432
H141	H	1.983372	1.063294	-0.404099
