data_functionalizedCrystal
_audit_creation_method	'MofGen! by Chris Wilmer'
_symmetry_space_group_name_H-M	'P1'
_symmetry_Int_Tables_number	1
_symmetry_cell_setting	triclinic
loop_
_symmetry_equiv_pos_as_xyz
  x,y,z
_cell_length_a	9.065215
_cell_length_b	10.967829
_cell_length_c	8.140239
_cell_angle_alpha	77.868595
_cell_angle_beta	89.997810
_cell_angle_gamma	84.859043
loop_
_atom_site_label
_atom_site_type_symbol
_atom_site_fract_x
_atom_site_fract_y
_atom_site_fract_z
O1	O	1.959363	0.182969	-0.188388
O2	O	1.529993	0.197982	-0.192645
O3	O	1.754580	0.008937	-0.139117
O4	O	1.734776	0.372013	-0.241916
O5	O	1.754568	0.008935	0.134110
O6	O	1.529980	0.197980	0.080582
O7	O	1.959351	0.182967	0.084840
Zn8	Zn	1.744664	0.190473	0.126092
Zn9	Zn	1.744680	0.190476	-0.233898
O10	O	1.734763	0.372011	0.031311
C11	C	1.475008	0.196539	-0.055624
C12	C	1.311189	0.192227	-0.054406
C13	C	1.753132	-0.037570	0.010660
C14	C	1.748818	-0.176143	0.049885
C15	C	1.746901	-0.237916	-0.074170
C16	C	1.742442	-0.381139	-0.033633
C17	C	2.014335	0.184410	-0.052185
C18	C	2.178154	0.188721	-0.053414
C19	C	1.736211	0.418518	-0.118470
C20	C	1.740526	0.557092	-0.157705
N21	N	1.744663	0.190470	0.371775
N22	N	1.744692	0.190469	-0.479578
H23	H	1.748555	-0.184770	-0.210388
C24	C	1.739922	-0.451883	0.148041
C25	C	1.614165	-0.407711	0.225422
C26	C	1.611781	-0.472860	0.392769
H27	H	1.826369	-0.439197	0.205883
H28	H	1.737136	-0.538733	0.151223
H29	H	1.616963	-0.320882	0.222251
H30	H	1.527697	-0.420399	0.167631
H31	H	1.608996	-0.559710	0.395951
H32	H	1.698234	-0.460170	0.450595
H33	H	1.526450	-0.442908	0.445289
C34	C	1.742651	-0.371832	-0.339249
C35	C	1.746591	-0.243901	-0.343372
C36	C	1.748493	-0.178381	-0.510578
H37	H	1.656076	-0.384465	-0.396908
H38	H	1.827869	-0.401524	-0.392211
H39	H	1.661381	-0.214218	-0.290434
H40	H	1.833160	-0.231230	-0.285748
H41	H	1.833711	-0.208073	-0.563540
H42	H	1.661916	-0.191024	-0.568223
H43	H	1.751180	-0.091575	-0.513398
H44	H	1.747149	-0.229288	0.186102
