data_functionalizedCrystal
_audit_creation_method	'MofGen! by Chris Wilmer'
_symmetry_space_group_name_H-M	'P1'
_symmetry_Int_Tables_number	1
_symmetry_cell_setting	triclinic
loop_
_symmetry_equiv_pos_as_xyz
  x,y,z
_cell_length_a	18.050589
_cell_length_b	16.120530
_cell_length_c	16.120256
_cell_angle_alpha	90.128265
_cell_angle_beta	92.877403
_cell_angle_gamma	87.123928
loop_
_atom_site_label
_atom_site_type_symbol
_atom_site_fract_x
_atom_site_fract_y
_atom_site_fract_z
Zn1	Zn	-0.376262	1.247404	-0.534589
Zn2	Zn	0.123738	1.747404	-0.034589
Zn3	Zn	-0.494483	1.254344	-0.395538
Zn4	Zn	0.005517	1.754344	0.104462
Zn5	Zn	-0.363709	1.115396	-0.388506
Zn6	Zn	0.136291	1.615396	0.111494
Zn7	Zn	-0.493803	1.108300	-0.527508
Zn8	Zn	0.006197	1.608300	-0.027508
O9	O	-0.432065	1.181361	-0.461535
O10	O	0.067935	1.681361	0.038465
O11	O	-0.397483	1.364690	-0.522050
O12	O	0.102517	1.864690	-0.022050
O13	O	-0.472167	1.241786	-0.278239
O14	O	0.027833	1.741786	0.221761
O15	O	-0.261454	1.132972	-0.407905
O16	O	0.238546	1.632972	0.092095
O17	O	-0.484340	1.369789	-0.419890
O18	O	0.015660	1.869789	0.080110
O19	O	-0.270677	1.229958	-0.515232
O20	O	0.229323	1.729958	-0.015232
O21	O	-0.376088	1.139701	-0.273073
O22	O	0.123912	1.639701	0.226927
O23	O	-0.375428	0.998089	-0.401038
O24	O	0.124572	1.498089	0.098962
O25	O	-0.483180	1.120879	-0.644814
O26	O	0.016820	1.620879	-0.144814
O27	O	-0.471007	0.992875	-0.503162
O28	O	0.028993	1.492875	-0.003162
O29	O	-0.396823	1.223078	-0.650016
O30	O	0.103177	1.723078	-0.150016
O31	O	-0.598314	1.234905	-0.413024
O32	O	-0.098314	1.734905	0.086976
O33	O	-0.597814	1.127608	-0.509981
O34	O	-0.097814	1.627608	-0.009981
C35	C	-0.421782	0.965310	-0.450569
C36	C	0.078218	1.465310	0.049431
C37	C	-0.417402	0.872881	-0.445898
C38	C	0.082598	1.372881	0.054102
C39	C	-0.409388	0.703652	-0.437376
C40	C	0.090612	1.203652	0.062624
C41	C	-0.454798	0.659907	-0.485756
C42	C	0.045202	1.159907	0.014244
C43	C	-0.450339	0.565742	-0.481014
C44	C	0.049661	1.065742	0.018986
C45	C	-0.413846	0.797826	-0.442116
C46	C	0.086154	1.297826	0.057884
C47	C	-0.625011	1.181261	-0.461516
C48	C	-0.125011	1.681261	0.038484
C49	C	-0.707560	1.181293	-0.461540
C50	C	-0.207560	1.681293	0.038460
C51	C	-0.906767	1.123000	-0.514249
C52	C	-0.406767	1.623000	-0.014249
C53	C	-0.951987	1.106577	-0.437343
C54	C	-0.451987	1.606577	0.062657
C55	C	-0.858694	1.181374	-0.461555
C56	C	-0.358694	1.681374	0.038445
C57	C	-0.960558	1.197838	-0.538472
C58	C	-0.460558	1.697838	-0.038472
C59	C	-1.004684	1.181451	-0.461576
C60	C	-0.504684	1.681451	0.038424
C61	C	-0.902823	1.164914	-0.384607
C62	C	-0.402823	1.664914	0.115393
C63	C	-0.911394	1.256206	-0.485789
C64	C	-0.411394	1.756206	0.014211
C65	C	-0.956591	1.239815	-0.408832
C66	C	-0.456591	1.739815	0.091168
C67	C	-0.774593	1.181328	-0.461544
C68	C	-0.274593	1.681328	0.038456
C69	C	-1.088783	1.181498	-0.461579
C70	C	-0.588783	1.681498	0.038421
C71	C	-0.238366	1.181483	-0.461574
C72	C	0.261634	1.681483	0.038426
C73	C	-0.155823	1.181535	-0.461590
C74	C	0.344177	1.681535	0.038410
C75	C	-0.441326	1.170413	-0.678431
C76	C	0.058674	1.670413	-0.178431
C77	C	-0.445273	1.165747	-0.770859
C78	C	0.054727	1.665747	-0.270859
C79	C	-0.442388	1.398256	-0.472545
C80	C	0.057612	1.898256	0.027455
C81	C	-0.446787	1.490683	-0.477236
C82	C	0.053213	1.990683	0.022764
C83	C	-0.411464	1.205689	-0.983841
C84	C	0.088536	1.705689	-0.483841
C85	C	-0.452447	1.157201	-0.940079
C86	C	0.047553	1.657201	-0.440079
C87	C	-0.448454	1.161958	-0.845916
C88	C	0.051546	1.661958	-0.345916
C89	C	-0.415455	1.200934	-1.078013
C90	C	0.084545	1.700934	-0.578013
C91	C	-0.422788	1.192314	-0.245486
C92	C	0.077212	1.692314	0.254514
C93	C	-0.418639	1.197141	-0.153067
C94	C	0.081361	1.697141	0.346933
H95	H	-0.884892	1.073570	-0.558741
H96	H	-0.384892	1.573570	-0.058741
O97	O	-0.353462	0.659589	-0.377795
O98	O	0.146538	1.159589	0.122205
H99	H	-0.320879	0.706158	-0.343084
H100	H	0.179121	1.206158	0.156916
H101	H	-0.373382	1.250770	-0.950590
H102	H	0.126618	1.750770	-0.450590
H103	H	-0.497023	0.693175	-0.530737
H104	H	0.002977	1.193175	-0.030737
O105	O	-0.975802	1.022800	-0.410189
O106	O	-0.475802	1.522800	0.089811
H107	H	-0.955853	0.974416	-0.454013
H108	H	-0.455853	1.474416	0.045987
H109	H	-0.877689	1.150945	-0.319546
H110	H	-0.377689	1.650945	0.180454
O111	O	-0.985384	1.305255	-0.349754
O112	O	-0.485384	1.805255	0.150246
H113	H	-0.962028	1.291422	-0.285995
H114	H	-0.462028	1.791422	0.214005
O115	O	-0.887723	1.340064	-0.512868
O116	O	-0.387723	1.840064	-0.012868
H117	H	-0.910987	1.353594	-0.576725
H118	H	-0.410987	1.853594	-0.076725
H119	H	-0.985778	1.211732	-0.603511
H120	H	-0.485778	1.711732	-0.103511
H121	H	-0.490527	1.112113	-0.973333
H122	H	0.009473	1.612113	-0.473333
