data_functionalizedCrystal
_audit_creation_method	'MofGen! by Chris Wilmer'
_symmetry_space_group_name_H-M	'P1'
_symmetry_Int_Tables_number	1
_symmetry_cell_setting	triclinic
loop_
_symmetry_equiv_pos_as_xyz
  x,y,z
_cell_length_a	15.538191
_cell_length_b	15.186229
_cell_length_c	16.109301
_cell_angle_alpha	89.994833
_cell_angle_beta	65.366787
_cell_angle_gamma	89.995330
loop_
_atom_site_label
_atom_site_type_symbol
_atom_site_fract_x
_atom_site_fract_y
_atom_site_fract_z
O1	O	1.249993	-0.073231	-0.270055
O2	O	0.975705	-0.073233	-0.174047
O3	O	1.120384	-0.073223	-0.345355
O4	O	1.105314	-0.073241	-0.098748
O5	O	1.120375	0.073234	-0.345353
O6	O	0.975695	0.073224	-0.174046
O7	O	1.249984	0.073226	-0.270054
Zn8	Zn	1.112838	0.096479	-0.222050
Zn9	Zn	1.112851	-0.096485	-0.222052
O10	O	1.105305	0.073216	-0.098747
C11	C	0.940602	-0.000005	-0.164002
C12	C	0.836019	-0.000005	-0.134081
N13	N	1.112836	0.228171	-0.222052
N14	N	1.112860	-0.228178	-0.222059
C15	C	0.548320	0.000003	-0.431335
C16	C	0.450045	0.000000	-0.403199
C17	C	0.427554	-0.000011	-0.244941
C18	C	0.525828	-0.000004	-0.273063
C19	C	0.586204	0.000002	-0.366262
C20	C	0.563712	-0.000005	-0.207990
C21	C	0.661978	-0.000003	-0.236111
C22	C	0.722360	0.000000	-0.329305
C23	C	0.684470	0.000004	-0.394382
C24	C	0.503335	-0.000018	-0.114793
C25	C	0.541219	-0.000019	-0.049719
C26	C	0.639487	-0.000010	-0.077840
C27	C	0.699869	-0.000007	-0.171034
C28	C	0.677377	-0.000014	-0.012763
C29	C	0.775643	-0.000011	-0.040883
C30	C	0.798135	-0.000004	-0.199155
C31	C	1.285087	-0.000004	-0.280100
C32	C	1.389670	-0.000009	-0.310020
C33	C	1.119769	0.000006	-0.376145
C34	C	1.117939	0.000007	-0.467888
C35	C	1.176922	0.453899	-0.297894
C36	C	1.176925	0.546088	-0.297897
C37	C	1.048768	0.546088	-0.146212
C38	C	1.048761	0.453900	-0.146212
C39	C	1.112843	0.407808	-0.222054
C40	C	1.112853	0.592185	-0.222056
C41	C	1.112856	0.692142	-0.222059
C42	C	1.112840	0.307845	-0.222053
C43	C	1.199533	-0.000006	-0.714764
C44	C	1.197806	-0.000013	-0.800964
C45	C	1.026149	-0.000011	-0.729329
C46	C	1.027877	-0.000010	-0.643131
C47	C	1.114572	-0.000003	-0.635852
C48	C	1.111117	-0.000011	-0.808250
C49	C	1.109244	-0.000019	-0.901711
C50	C	1.116446	0.000003	-0.542385
C51	C	1.105920	-0.000015	-0.067957
C52	C	1.107750	-0.000022	0.023786
H53	H	0.847297	0.000006	-0.275046
H54	H	1.229102	0.583613	-0.359653
H55	H	1.266990	-0.000017	-0.865214
H56	H	0.996594	0.583626	-0.084462
H57	H	0.996576	0.416371	-0.084453
C58	C	0.930790	-0.000002	-0.737345
N59	N	0.858963	0.000012	-0.743382
H60	H	1.270125	-0.000002	-0.708843
H61	H	0.492048	-0.000027	0.026163
C62	C	0.614739	0.000014	-0.533858
N63	N	0.664766	0.000019	-0.611075
H64	H	1.229101	0.416372	-0.359650
C65	C	0.817318	-0.000010	0.030701
N66	N	0.848708	-0.000012	0.084620
H67	H	0.733632	0.000014	-0.470273
C68	C	0.934408	-0.000011	-0.556320
N69	N	0.864011	-0.000016	-0.490935
H70	H	0.802374	-0.000009	-0.352199
H71	H	0.423321	-0.000022	-0.091900
C72	C	0.408377	0.000001	-0.474792
N73	N	0.376994	-0.000000	-0.528716
H74	H	0.378383	-0.000020	-0.169059
H75	H	0.628205	-0.000027	0.063119
