data_functionalizedCrystal
_audit_creation_method	'MofGen! by Chris Wilmer'
_symmetry_space_group_name_H-M	'P1'
_symmetry_Int_Tables_number	1
_symmetry_cell_setting	triclinic
loop_
_symmetry_equiv_pos_as_xyz
  x,y,z
_cell_length_a	21.606444
_cell_length_b	21.606444
_cell_length_c	21.606444
_cell_angle_alpha	60.001331
_cell_angle_beta	90.002531
_cell_angle_gamma	59.999398
loop_
_atom_site_label
_atom_site_type_symbol
_atom_site_fract_x
_atom_site_fract_y
_atom_site_fract_z
Zr1	Zr	0.596223	0.677450	-0.081192
O2	O	0.497392	0.806573	-0.180016
O3	O	0.626521	0.548331	-0.050900
O4	O	0.626513	0.677455	-0.180018
O5	O	0.497405	0.677445	0.050957
O6	O	0.728365	0.677455	-0.180016
O7	O	0.497400	0.677449	-0.050897
O8	O	0.728379	0.446475	0.050953
O9	O	0.497391	0.908424	-0.180012
O10	O	0.715453	0.601438	-0.037976
O11	O	0.639445	0.601435	0.038036
O12	O	0.639436	0.753462	-0.113985
O13	O	0.563429	0.753459	-0.037973
Zr14	Zr	0.758673	0.677443	0.081256
Zr15	Zr	0.758665	0.677450	-0.081189
Zr16	Zr	0.596231	0.677443	0.081254
Zr17	Zr	0.596221	0.839891	-0.081186
Zr18	Zr	0.758675	0.515003	0.081251
O19	O	0.728375	0.806563	0.050964
O20	O	0.728364	0.806573	-0.180012
O21	O	0.497404	0.806563	0.050961
O22	O	0.857505	0.548321	0.180081
O23	O	0.857493	0.548330	-0.050896
O24	O	0.626533	0.548321	0.180077
O25	O	0.857491	0.677449	-0.050892
O26	O	0.728383	0.677439	0.180083
O27	O	0.626531	0.677439	0.180081
O28	O	0.857497	0.677444	0.050962
O29	O	0.626511	0.908424	-0.180010
O30	O	0.728386	0.446470	0.180075
O31	O	0.857506	0.446470	0.180077
O32	O	0.857499	0.446475	0.050955
O33	O	0.497397	0.908418	-0.050890
O34	O	0.626517	0.908418	-0.050888
O35	O	0.715460	0.601432	0.114049
O36	O	0.791467	0.601435	0.038038
O37	O	0.715451	0.753459	-0.037971
O38	O	0.639444	0.753455	0.038041
C39	C	0.677450	0.474259	0.000026
C40	C	0.677451	0.405299	0.000024
C41	C	0.717124	0.372903	-0.039655
C42	C	0.717127	0.308103	-0.039650
C43	C	0.677452	0.275704	0.000030
C44	C	0.637777	0.308103	0.039713
C45	C	0.637779	0.372897	0.039712
C46	C	0.637768	0.046794	0.039719
C47	C	0.637767	-0.018003	0.039716
C48	C	0.717116	-0.018001	-0.039642
C49	C	0.717118	0.046793	-0.039643
C50	C	0.677447	0.079183	0.000043
C51	C	0.677446	0.149445	0.000038
C52	C	0.677448	0.205448	0.000031
C53	C	0.474258	0.677447	0.000029
C54	C	0.405297	0.677447	0.000028
C55	C	0.372896	0.677452	-0.056086
C56	C	0.308102	0.677448	-0.056083
C57	C	0.275707	0.677445	0.000031
C58	C	0.308114	0.677437	0.056151
C59	C	0.372910	0.677435	0.056151
C60	C	0.046800	0.677443	0.056154
C61	C	-0.018001	0.677448	0.056148
C62	C	-0.018008	0.677456	-0.056080
C63	C	0.046788	0.677454	-0.056081
C64	C	0.079192	0.677442	0.000041
C65	C	0.149449	0.677445	0.000038
C66	C	0.205447	0.677448	0.000032
C67	C	0.880639	0.677447	0.000036
C68	C	0.949599	0.677447	0.000037
C69	C	0.677438	0.677456	-0.203162
C70	C	0.677434	0.677459	-0.272125
C71	C	0.677446	0.880635	0.000039
C72	C	0.677445	0.949595	0.000041
C73	C	0.637754	0.756813	-0.344199
C74	C	0.637761	0.756810	-0.408994
C75	C	0.677443	0.677453	-0.401713
C76	C	0.717129	0.598092	-0.329631
C77	C	0.717126	0.598096	-0.264837
C78	C	0.717141	0.598077	-0.590934
C79	C	0.717138	0.598080	-0.655734
C80	C	0.637775	0.756792	-0.735090
C81	C	0.637773	0.756795	-0.670297
C82	C	0.677461	0.677435	-0.598221
C83	C	0.677454	0.677439	-0.527963
C84	C	0.677446	0.677448	-0.471969
C85	C	0.677459	0.677438	0.203227
C86	C	0.677462	0.677435	0.272189
C87	C	0.880641	0.474259	0.000029
C88	C	0.949602	0.405298	0.000028
C89	C	0.677461	0.474250	0.203220
C90	C	0.677465	0.405287	0.272181
C91	C	0.880651	0.474250	0.203224
C92	C	0.949616	0.405287	0.272185
C93	C	0.474245	0.880644	-0.203159
C94	C	0.405280	0.949607	-0.272120
C95	C	0.474256	0.880635	0.000036
C96	C	0.405294	0.949595	0.000037
C97	C	0.677436	0.880644	-0.203156
C98	C	0.677432	0.949607	-0.272116
C99	C	0.942309	0.372916	-0.039658
C100	C	1.007099	0.308129	-0.039674
C101	C	1.079183	0.275722	0.000000
C102	C	1.086475	0.308111	0.039687
C103	C	1.021685	0.372901	0.039698
C104	C	0.717146	0.372899	0.344250
C105	C	0.717147	0.308110	0.409052
C106	C	0.677471	0.275706	0.401782
C107	C	0.637785	0.308099	0.329705
C108	C	0.637780	0.372892	0.264905
C109	C	1.021685	0.372902	0.264893
C110	C	1.086491	0.308113	0.329683
C111	C	1.079227	0.275705	0.401764
C112	C	1.007151	0.308096	0.409055
C113	C	0.942346	0.372888	0.344266
C114	C	0.333212	0.981999	-0.264828
C115	C	0.268405	1.046808	-0.329618
C116	C	0.275669	1.079220	-0.401700
C117	C	0.347745	1.046825	-0.408990
C118	C	0.412550	0.982022	-0.344201
C119	C	0.412588	0.981985	0.039716
C120	C	0.347797	1.046789	0.039714
C121	C	0.275714	1.079198	0.000038
C122	C	0.268421	1.046806	-0.039646
C123	C	0.333211	0.982008	-0.039648
C124	C	0.717115	0.981991	-0.264822
C125	C	0.717126	1.046781	-0.329611
C126	C	0.677448	1.079189	-0.401693
C127	C	0.637764	1.046798	-0.408986
C128	C	0.637758	0.982006	-0.344197
H129	H	0.749432	0.281726	-0.071958
O130	O	0.872381	0.404349	0.351452
C131	C	0.864072	0.441841	0.391413
H132	H	0.922402	0.412584	0.427162
H133	H	0.830010	0.427610	0.429944
H134	H	0.833083	0.515644	0.349450
H135	H	0.605459	1.073196	-0.467684
H136	H	0.749429	0.399281	-0.071970
H137	H	0.222964	1.131962	0.000046
H138	H	0.749457	0.533458	-0.532254
O139	O	0.599372	0.276442	0.078319
C140	C	0.650354	0.185651	0.133996
H141	H	0.702571	0.158220	0.117295
H142	H	0.621604	0.152045	0.138795
H143	H	0.668111	0.173272	0.190916
H144	H	0.605457	-0.044381	0.072030
H145	H	0.605435	0.821435	-0.350137
O146	O	1.028813	0.404204	0.194903
C147	C	1.068753	0.335031	0.186628
H148	H	1.104552	0.270232	0.244967
H149	H	1.107234	0.344801	0.152496
H150	H	1.026772	0.334123	0.155730
H151	H	-0.044375	0.677444	0.101847
H152	H	0.605439	0.955646	-0.350147
H153	H	0.605451	0.821428	-0.467678
O154	O	0.872252	0.404541	-0.078258
C155	C	0.832401	0.495332	-0.133953
H156	H	0.857141	0.522809	-0.117268
H157	H	0.770042	0.528904	-0.138760
H158	H	0.837794	0.507698	-0.190866
H159	H	0.209722	1.073204	-0.071950
H160	H	0.073160	0.677461	-0.101776
H161	H	1.145174	0.281716	0.071988
O162	O	0.354797	1.078221	0.078330
C163	C	0.319710	1.062369	0.134029
H164	H	0.275536	1.054330	0.117339
H165	H	0.290958	1.119911	0.138848
H166	H	0.364261	1.000050	0.190937
H167	H	0.605456	0.821416	-0.676233
H168	H	1.001248	0.281699	0.467753
H169	H	1.001147	0.281766	-0.071992
H170	H	1.027635	0.399259	0.072020
O171	O	0.325985	0.950609	-0.078199
C172	C	0.248467	0.993129	-0.113227
H173	H	0.213925	1.019833	-0.082103
H174	H	0.239422	0.944530	-0.111088
H175	H	0.229371	1.049403	-0.174814
H176	H	0.749425	0.955614	-0.206134
O177	O	0.599185	0.276735	0.322515
C178	C	0.564173	0.319190	0.245009
H179	H	0.556299	0.384876	0.210438
H180	H	0.506543	0.330336	0.235992
H181	H	0.601364	0.276691	0.225925
H182	H	1.132001	0.222947	0.454514
H183	H	0.073177	0.677436	0.101849
H184	H	1.131933	0.222965	-0.000015
H185	H	0.749455	0.399276	0.350184
H186	H	0.327283	0.955613	-0.206141
O187	O	0.482512	0.950712	-0.351395
C188	C	0.490810	1.019864	-0.391354
H189	H	0.432475	1.084682	-0.427093
H190	H	0.524864	1.010115	-0.429894
H191	H	0.521800	1.020714	-0.349389
H192	H	0.471276	0.955602	0.072031
H193	H	0.749466	0.281743	0.467734
H194	H	0.749441	1.073146	-0.323658
O195	O	0.677351	0.212872	0.464710
C196	C	0.602276	0.244517	0.464596
H197	H	0.565702	0.319121	0.427950
H198	H	0.601489	0.219067	0.525043
H199	H	0.578931	0.220954	0.440705
O200	O	0.599351	0.404326	0.194858
C201	C	0.650294	0.388461	0.155016
H202	H	0.702514	0.380409	0.179748
H203	H	0.621506	0.446002	0.092653
H204	H	0.668055	0.326144	0.160428
H205	H	0.749422	0.073173	-0.071957
H206	H	0.209724	1.073173	-0.323667
H207	H	0.222895	1.131987	-0.454449
O208	O	0.755649	-0.049596	-0.078121
C209	C	0.747130	-0.113720	-0.069628
H210	H	0.732524	-0.142061	-0.016037
H211	H	0.802357	-0.168229	-0.065085
H212	H	0.699622	-0.082723	-0.120892
O213	O	0.599164	0.078186	0.078277
C214	C	0.564160	0.035680	0.113311
H215	H	0.556300	0.008986	0.082186
H216	H	0.506524	0.084286	0.111179
H217	H	0.601350	-0.020600	0.174895
O218	O	0.599283	0.833940	-0.805067
C219	C	0.628465	0.882211	-0.813375
H220	H	0.657520	0.859646	-0.755046
H221	H	0.580172	0.954808	-0.847457
H222	H	0.671298	0.871212	-0.844339
O223	O	1.156456	0.276810	0.322487
C224	C	1.164744	0.345968	0.282515
H225	H	1.106406	0.410780	0.246768
H226	H	1.198804	0.336211	0.243981
H227	H	1.195724	0.346837	0.324470
H228	H	0.353651	1.073223	-0.467687
O229	O	0.677506	1.142158	-0.464547
C230	C	0.721058	1.163771	-0.442643
H231	H	0.724036	1.145908	-0.382832
H232	H	0.693590	1.237005	-0.483570
H233	H	0.780765	1.125878	-0.443814
H234	H	0.605471	0.399275	0.072020
H235	H	0.399264	0.677460	-0.101784
H236	H	0.281721	0.677451	-0.101775
O237	O	-0.049354	0.677340	-0.110575
C238	C	0.004173	0.601936	-0.107006
H239	H	0.063788	0.576800	-0.078482
H240	H	-0.002093	0.618898	-0.166820
H241	H	-0.005893	0.549139	-0.072831
O242	O	0.276533	0.677471	0.110587
C243	C	0.212404	0.677454	0.098566
H244	H	0.189769	0.705019	0.036560
H245	H	0.166649	0.719719	0.113273
H246	H	0.228937	0.607614	0.136144
H247	H	0.399291	0.677430	0.101846
O248	O	0.755627	0.521065	-0.648794
C249	C	0.747131	0.538083	-0.721440
H250	H	0.693535	0.606281	-0.764387
H251	H	0.742594	0.487397	-0.720724
H252	H	0.798392	0.534331	-0.737950
O253	O	0.755612	0.521081	-0.322688
C254	C	0.747078	0.538087	-0.395329
H255	H	0.693469	0.606277	-0.438266
H256	H	0.742541	0.487386	-0.394583
H257	H	0.798322	0.534348	-0.411876
O258	O	0.755681	0.520933	-0.194879
C259	C	0.790722	0.450888	-0.202344
H260	H	0.759602	0.474149	-0.260164
H261	H	0.788591	0.395386	-0.155870
H262	H	0.852308	0.426489	-0.197033
