data_functionalizedCrystal
_audit_creation_method	'MofGen! by Chris Wilmer'
_symmetry_space_group_name_H-M	'P1'
_symmetry_Int_Tables_number	1
_symmetry_cell_setting	triclinic
loop_
_symmetry_equiv_pos_as_xyz
  x,y,z
_cell_length_a	19.288864
_cell_length_b	14.519709
_cell_length_c	18.366186
_cell_angle_alpha	89.992822
_cell_angle_beta	89.977106
_cell_angle_gamma	83.408195
loop_
_atom_site_label
_atom_site_type_symbol
_atom_site_fract_x
_atom_site_fract_y
_atom_site_fract_z
O1	O	0.921767	0.115045	-0.060785
O2	O	1.421767	0.615045	0.439215
O3	O	0.719562	0.130564	-0.060735
O4	O	1.219562	0.630564	0.439265
O5	O	0.826026	-0.011468	-0.060755
O6	O	1.326026	0.488532	0.439245
O7	O	0.815303	0.257077	-0.060765
O8	O	1.315303	0.757077	0.439235
O9	O	0.826007	-0.011475	0.060345
O10	O	1.326007	0.488525	0.560345
O11	O	0.719544	0.130557	0.060364
O12	O	1.219544	0.630557	0.560364
O13	O	0.921749	0.115038	0.060315
O14	O	1.421749	0.615038	0.560315
Zn15	Zn	0.820643	0.122797	0.079567
Zn16	Zn	1.320643	0.622797	0.579567
Zn17	Zn	0.820667	0.122806	-0.079987
Zn18	Zn	1.320667	0.622806	0.420013
O19	O	0.815285	0.257070	0.060334
O20	O	1.315285	0.757070	0.560334
C21	C	0.693675	0.130061	-0.000179
C22	C	1.193675	0.630061	0.499821
C23	C	0.616566	0.128562	-0.000160
C24	C	1.116566	0.628562	0.499840
C25	C	0.825517	-0.045828	-0.000205
C26	C	1.325517	0.454172	0.499795
C27	C	0.824019	-0.148200	-0.000204
C28	C	1.324019	0.351800	0.499796
C29	C	0.572169	0.211900	-0.000175
C30	C	1.072169	0.711900	0.499825
C31	C	0.499717	0.210492	-0.000183
C32	C	0.999717	0.710492	0.499817
C33	C	0.471665	0.125741	-0.000191
C34	C	0.971665	0.625741	0.499809
C35	C	0.516071	0.042392	-0.000172
C36	C	1.016071	0.542392	0.499828
C37	C	0.588521	0.043803	-0.000156
C38	C	1.088521	0.543803	0.499844
C39	C	0.363169	0.059120	-0.042639
C40	C	0.863169	0.559120	0.457361
C41	C	0.290720	0.057713	-0.042659
C42	C	0.790720	0.557713	0.457341
C43	C	0.248203	0.121387	-0.000234
C44	C	0.748203	0.621387	0.499766
C45	C	0.278144	0.186484	0.042200
C46	C	0.778144	0.686484	0.542200
C47	C	0.350595	0.187894	0.042215
C48	C	0.850595	0.687894	0.542215
C49	C	0.393105	0.124202	-0.000207
C50	C	0.893105	0.624202	0.499793
C51	C	0.125246	0.203203	-0.000257
C52	C	0.625246	0.703203	0.499743
C53	C	0.052792	0.201792	-0.000260
C54	C	0.552792	0.701792	0.499740
C55	C	0.069148	0.033689	-0.000257
C56	C	0.569148	0.533689	0.499743
C57	C	0.141599	0.035103	-0.000246
C58	C	0.641599	0.535103	0.499754
C59	C	0.169644	0.119863	-0.000249
C60	C	0.669644	0.619863	0.499751
C61	C	0.818507	-0.523061	-0.000222
C62	C	1.318507	-0.023061	0.499778
C63	C	0.820037	-0.418762	-0.000216
C64	C	1.320037	0.081238	0.499784
C65	C	0.821263	-0.335633	-0.000212
C66	C	1.321263	0.164367	0.499788
C67	C	0.822794	-0.231329	-0.000208
C68	C	1.322794	0.268671	0.499792
C69	C	0.947636	0.115541	-0.000243
C70	C	1.447636	0.615541	0.499757
C71	C	1.024745	0.117040	-0.000267
C72	C	1.524745	0.617040	0.499733
C73	C	0.815794	0.291430	-0.000217
C74	C	1.315794	0.791430	0.499783
C75	C	0.817291	0.393802	-0.000223
C76	C	1.317291	0.893802	0.499777
N77	N	0.820632	0.122790	0.188458
N78	N	1.320632	0.622790	0.688458
N79	N	0.820684	0.122805	-0.188878
N80	N	1.320684	0.622805	0.311122
C81	C	0.867790	0.059929	0.226549
C82	C	1.367790	0.559929	0.726549
C83	C	0.867794	0.059925	0.302777
C84	C	1.367794	0.559925	0.802777
C85	C	0.820648	0.122797	0.340910
C86	C	1.320648	0.622797	0.840910
C87	C	0.773481	0.185663	0.302809
C88	C	1.273481	0.685663	0.802809
C89	C	0.773473	0.185659	0.226583
C90	C	1.273473	0.685659	0.726583
C91	C	0.811652	0.206826	0.461669
C92	C	1.311652	0.706826	0.961669
C93	C	0.811664	0.206831	0.537894
C94	C	1.311664	0.706831	1.037894
C95	C	0.820667	0.122809	0.576018
C96	C	1.320667	0.622809	1.076018
C97	C	0.829673	0.038778	0.537908
C98	C	1.329673	0.538778	1.037908
C99	C	0.829665	0.038775	0.461681
C100	C	1.329665	0.538775	0.961681
C101	C	0.820650	0.122808	0.423565
C102	C	1.320650	0.622808	0.923565
C103	C	0.867832	0.059938	0.696765
C104	C	1.367832	0.559938	1.196765
C105	C	0.867832	0.059933	0.772994
C106	C	1.367832	0.559933	1.272994
C107	C	0.773522	0.185679	0.773025
C108	C	1.273522	0.685679	1.273025
C109	C	0.773519	0.185677	0.696797
C110	C	1.273519	0.685677	1.196797
C111	C	0.820678	0.122807	0.658671
C112	C	1.320678	0.622807	1.158671
H113	H	0.594998	0.280918	-0.000179
H114	H	1.094998	0.780918	0.499821
N115	N	0.260125	-0.008767	-0.086000
N116	N	0.760125	0.491233	0.414000
N117	N	0.217057	0.017853	-0.134583
N118	N	0.717057	0.517853	0.365417
H119	H	0.195448	-0.029100	-0.165193
H120	H	0.695448	0.470900	0.334807
N121	N	0.381192	0.254363	0.085566
N122	N	0.881192	0.754363	0.585566
N123	N	0.445881	0.255605	0.085575
N124	N	0.945881	0.755605	0.585575
H125	H	0.467492	0.302546	0.116195
H126	H	0.967492	0.802546	0.616195
H127	H	0.906187	0.008734	0.195510
H128	H	1.406187	0.508734	0.695510
N129	N	0.725321	0.249898	0.341747
N130	N	1.225321	0.749898	0.841747
N131	N	0.683218	0.306023	0.307723
N132	N	1.183218	0.806023	0.807723
H133	H	0.649201	0.351389	0.335221
H134	H	1.149201	0.851389	0.835221
N135	N	0.916004	-0.004296	0.811895
N136	N	1.416004	0.495704	1.311895
N137	N	0.958102	-0.060422	0.777842
N138	N	1.458102	0.439578	1.277842
H139	H	0.992124	-0.105786	0.805316
H140	H	1.492124	0.394214	1.305316
N141	N	0.915969	-0.004299	0.341687
N142	N	1.415969	0.495701	0.841687
N143	N	0.958067	-0.060428	0.307637
N144	N	1.458067	0.439572	0.807637
H145	H	0.992091	-0.105786	0.335115
H146	H	1.492091	0.394214	0.835115
H147	H	0.906230	0.008743	0.665722
H148	H	1.406230	0.508743	1.165722
N149	N	0.725353	0.249910	0.657896
N150	N	1.225353	0.749910	1.157896
N151	N	0.726410	0.335150	0.666401
N152	N	1.226410	0.835150	1.166401
H153	H	0.692389	0.380518	0.638929
H154	H	1.192389	0.880518	1.138929
N155	N	0.406586	-0.005941	-0.085974
N156	N	0.906586	0.494059	0.414026
N157	N	0.379847	-0.064052	-0.123860
N158	N	0.879847	0.435948	0.376140
H159	H	0.410509	-0.110003	-0.154463
H160	H	0.910509	0.389997	0.345537
H161	H	0.493226	-0.026613	-0.000188
H162	H	0.993226	0.473387	0.499812
N163	N	0.234730	0.251560	0.085521
N164	N	0.734730	0.751560	0.585521
N165	N	0.188866	0.306919	0.055863
N166	N	0.688866	0.806919	0.555863
H167	H	0.158205	0.352888	0.086451
H168	H	0.658205	0.852888	0.586451
N169	N	0.633865	-0.041338	-0.000138
N170	N	1.133865	0.458662	0.499862
N171	N	0.608814	-0.117005	-0.000138
N172	N	1.108814	0.382995	0.499862
H173	H	0.640839	-0.177137	-0.000125
H174	H	1.140839	0.322863	0.499875
N175	N	0.838862	-0.047061	0.422764
N176	N	1.338862	0.452939	0.922764
N177	N	0.846903	-0.122078	0.456804
N178	N	1.346903	0.377922	0.956804
H179	H	0.853396	-0.182702	0.429319
H180	H	1.353396	0.317298	0.929319
H181	H	0.837003	-0.029640	0.568947
H182	H	1.337003	0.470360	1.068947
H183	H	0.148080	0.272220	-0.000249
H184	H	0.648080	0.772220	0.499751
N185	N	0.725360	0.249888	0.811978
N186	N	1.225360	0.749888	1.311978
N187	N	0.725369	0.249880	0.880037
N188	N	1.225369	0.749880	1.380037
H189	H	0.691351	0.295226	0.907552
H190	H	1.191351	0.795226	1.407552
N191	N	0.802475	0.292670	0.576807
N192	N	1.302475	0.792670	1.076807
N193	N	0.794430	0.367682	0.542762
N194	N	1.294430	0.867682	1.042762
H195	H	0.787941	0.428310	0.570243
H196	H	1.287941	0.928310	1.070243
N197	N	0.802453	0.292654	0.422724
N198	N	1.302453	0.792654	0.922724
N199	N	0.752012	0.309610	0.380213
N200	N	1.252012	0.809610	0.880213
H201	H	0.745515	0.370225	0.352709
H202	H	1.245515	0.870225	0.852709
H203	H	0.046308	-0.035317	-0.000308
H204	H	0.546308	0.464683	0.499692
N205	N	0.725304	0.249891	0.187682
N206	N	1.225304	0.749891	0.687682
N207	N	0.726359	0.335131	0.196188
N208	N	1.226359	0.835131	0.696188
H209	H	0.692339	0.380498	0.168714
H210	H	1.192339	0.880498	0.668714
N211	N	0.454367	0.295632	-0.000194
N212	N	0.954367	0.795632	0.499806
N213	N	0.479415	0.371301	-0.000193
N214	N	0.979415	0.871301	0.499807
H215	H	0.447389	0.431432	-0.000201
H216	H	0.947389	0.931432	0.499799
N217	N	0.007443	0.286927	-0.000256
N218	N	0.507443	0.786927	0.499744
N219	N	0.010039	0.343357	0.050790
N220	N	0.510039	0.843357	0.550790
H221	H	-0.021989	0.403488	0.050795
H222	H	0.478011	0.903488	0.550795
N223	N	0.186943	-0.050034	-0.000233
N224	N	0.686943	0.449966	0.499767
N225	N	0.161891	-0.125700	-0.000237
N226	N	0.661891	0.374300	0.499763
H227	H	0.193915	-0.185834	-0.000225
H228	H	0.693915	0.314166	0.499775
