data_functionalizedCrystal
_audit_creation_method	'MofGen! by Chris Wilmer'
_symmetry_space_group_name_H-M	'P1'
_symmetry_Int_Tables_number	1
_symmetry_cell_setting	triclinic
loop_
_symmetry_equiv_pos_as_xyz
  x,y,z
_cell_length_a	18.215407
_cell_length_b	17.640280
_cell_length_c	18.215399
_cell_angle_alpha	78.773632
_cell_angle_beta	89.985195
_cell_angle_gamma	78.795292
loop_
_atom_site_label
_atom_site_type_symbol
_atom_site_fract_x
_atom_site_fract_y
_atom_site_fract_z
Zn1	Zn	1.184369	-0.314776	-0.356899
Zn2	Zn	1.209194	-0.446963	-0.208982
Zn3	Zn	1.061311	-0.314794	-0.233848
Zn4	Zn	1.086165	-0.446900	-0.332023
O5	O	1.135260	-0.380858	-0.282938
O6	O	1.290649	-0.332330	-0.337282
O7	O	1.189564	-0.429465	-0.109290
O8	O	1.056844	-0.204185	-0.270987
O9	O	1.308888	-0.429447	-0.228608
O10	O	1.147254	-0.204172	-0.361393
O11	O	1.080916	-0.332361	-0.127558
O12	O	0.961620	-0.332299	-0.246866
O13	O	1.099204	-0.429340	-0.438314
O14	O	0.979880	-0.429357	-0.318996
O15	O	1.171354	-0.332269	-0.456590
O16	O	1.213664	-0.557562	-0.204487
O17	O	1.123276	-0.557516	-0.294885
C18	C	0.944047	-0.380824	-0.282930
C19	C	0.862249	-0.380828	-0.282941
C20	C	0.587713	-0.330387	-0.339581
C21	C	0.664569	-0.330374	-0.339581
C22	C	0.683553	-0.431356	-0.226306
C23	C	0.606698	-0.431372	-0.226310
C24	C	0.558779	-0.380883	-0.282947
C25	C	0.712490	-0.380854	-0.282944
C26	C	0.795821	-0.380841	-0.282943
C27	C	0.475443	-0.380897	-0.282948
C28	C	1.173881	-0.586218	-0.244304
C29	C	1.190471	-0.674072	-0.227801
C30	C	1.009531	-0.963028	-0.408578
C31	C	1.025121	-1.045580	-0.393047
C32	C	1.119300	-1.045563	-0.299011
C33	C	1.103721	-0.963010	-0.314536
C34	C	1.048834	-0.921749	-0.369320
C35	C	1.143025	-0.921730	-0.275278
C36	C	1.127443	-0.839184	-0.290800
C37	C	1.072558	-0.797917	-0.345579
C38	C	1.033253	-0.839202	-0.384841
C39	C	1.197907	-0.962992	-0.220491
C40	C	1.237211	-0.921713	-0.181233
C41	C	1.221634	-0.839165	-0.196758
C42	C	1.166748	-0.797898	-0.251538
C43	C	1.260939	-0.797879	-0.157496
C44	C	1.245357	-0.715333	-0.173018
C45	C	1.151167	-0.715352	-0.267059
C46	C	1.327219	-0.380894	-0.282946
C47	C	1.409021	-0.380909	-0.282950
C48	C	1.135282	-0.380795	-0.474903
C49	C	1.135292	-0.380768	-0.556707
C50	C	1.096507	-0.174697	-0.321739
C51	C	1.079993	-0.086843	-0.338273
C52	C	1.078752	-0.330172	-0.754421
C53	C	1.078762	-0.330156	-0.831282
C54	C	1.191902	-0.431270	-0.812249
C55	C	1.191889	-0.431290	-0.735388
C56	C	1.135314	-0.380736	-0.706477
C57	C	1.135337	-0.380701	-0.860199
C58	C	1.135348	-0.380684	-0.943536
C59	C	1.135302	-0.380754	-0.623134
C60	C	1.135268	-0.380864	-0.091731
C61	C	1.135359	-0.380669	-0.009969
H62	H	0.583142	-0.472496	-0.180190
Br63	Br	0.935050	-0.907023	-0.482937
H64	H	1.281897	-0.955319	-0.136627
H65	H	1.237964	-0.472429	-0.835798
H66	H	1.106478	-0.681755	-0.311675
H67	H	1.237951	-0.472468	-0.696349
H68	H	0.548699	-0.289276	-0.385699
H69	H	0.722577	-0.472460	-0.180193
Br70	Br	0.703833	-0.261846	-0.416449
H71	H	1.059868	-0.730702	-0.358210
H72	H	0.988564	-0.805606	-0.429457
Br73	Br	0.971762	-1.101601	-0.446321
H74	H	1.163987	-1.079169	-0.254404
H75	H	1.210593	-1.030207	-0.207858
H76	H	1.305622	-0.831486	-0.112887
H77	H	1.032685	-0.289008	-0.730884
Br78	Br	1.298689	-0.659305	-0.119729
Br79	Br	1.001986	-0.261545	-0.896345
