data_functionalizedCrystal
_audit_creation_method	'MofGen! by Chris Wilmer'
_symmetry_space_group_name_H-M	'P1'
_symmetry_Int_Tables_number	1
_symmetry_cell_setting	triclinic
loop_
_symmetry_equiv_pos_as_xyz
  x,y,z
_cell_length_a	16.992695
_cell_length_b	16.992695
_cell_length_c	7.681187
_cell_angle_alpha	83.880724
_cell_angle_beta	96.135631
_cell_angle_gamma	90.668223
loop_
_atom_site_label
_atom_site_type_symbol
_atom_site_fract_x
_atom_site_fract_y
_atom_site_fract_z
O1	O	0.173901	1.043876	0.146369
O2	O	0.673901	1.543876	0.646369
O3	O	0.172071	0.815475	0.146388
O4	O	0.672071	1.315475	0.646388
O5	O	0.058785	0.928761	0.146365
O6	O	0.558785	1.428761	0.646365
O7	O	0.287187	0.930591	0.146393
O8	O	0.787187	1.430591	0.646393
O9	O	0.044805	0.942705	-0.146508
O10	O	0.544805	1.442705	0.353492
O11	O	0.158091	0.829420	-0.146485
O12	O	0.658091	1.329420	0.353515
O13	O	0.159921	1.057821	-0.146504
O14	O	0.659921	1.557821	0.353496
Zn15	Zn	0.156786	0.945834	-0.192994
Zn16	Zn	0.656786	1.445834	0.307006
Zn17	Zn	0.175206	0.927462	0.192879
Zn18	Zn	0.675206	1.427462	0.692879
O19	O	0.273207	0.944535	-0.146481
O20	O	0.773207	1.444535	0.353519
C21	C	0.162725	0.793087	-0.000046
C22	C	0.662725	1.293087	0.499954
C23	C	0.155697	0.705602	-0.000039
C24	C	0.655697	1.205602	0.499961
C25	C	0.022435	0.933377	-0.000071
C26	C	0.522435	1.433377	0.499929
C27	C	-0.065049	0.926348	-0.000070
C28	C	0.434951	1.426348	0.499930
N29	N	0.144215	0.958378	-0.456342
N30	N	0.644215	1.458378	0.043658
C31	C	-0.111041	0.994167	-0.000078
C32	C	0.388959	1.494167	0.499922
C33	C	-0.193240	0.987557	-0.000060
C34	C	0.306760	1.487557	0.499940
C35	C	-0.229448	0.913129	-0.000048
C36	C	0.270552	1.413129	0.499952
C37	C	-0.183451	0.845305	-0.000036
C38	C	0.316549	1.345305	0.499964
C39	C	-0.101252	0.851915	-0.000040
C40	C	0.398748	1.351915	0.499960
C41	C	-0.474761	0.885733	-0.000022
C42	C	0.025239	1.385733	0.499978
C43	C	-0.556967	0.879128	-0.000022
C44	C	-0.056967	1.379128	0.499978
C45	C	-0.566751	1.021381	-0.000044
C46	C	-0.066751	1.521381	0.499956
C47	C	-0.484550	1.027985	-0.000059
C48	C	0.015450	1.527985	0.499941
C49	C	-0.438559	0.960161	-0.000037
C50	C	0.061441	1.460161	0.499963
N51	N	-0.313470	0.906371	-0.000036
N52	N	0.186530	1.406371	0.499964
N53	N	-0.354539	0.966919	-0.000037
N54	N	0.145461	1.466919	0.499963
C55	C	0.309557	0.939919	-0.000040
C56	C	0.809557	1.439919	0.499960
C57	C	0.397042	0.946947	-0.000030
C58	C	0.897042	1.446947	0.499970
C59	C	0.169267	1.080209	-0.000066
C60	C	0.669267	1.580209	0.499934
C61	C	0.176296	1.167693	-0.000061
C62	C	0.676296	1.667693	0.499939
C63	C	0.108478	1.213684	-0.000063
C64	C	0.608478	1.713684	0.499937
C65	C	0.115087	1.295885	-0.000069
C66	C	0.615087	1.795885	0.499931
C67	C	0.189515	1.332093	-0.000059
C68	C	0.689515	1.832093	0.499941
C69	C	0.257338	1.286096	-0.000062
C70	C	0.757338	1.786096	0.499938
C71	C	0.250728	1.203897	-0.000069
C72	C	0.750728	1.703897	0.499931
C73	C	0.216910	1.577407	-0.000049
C74	C	0.716910	2.077407	0.499951
C75	C	0.223515	1.659611	-0.000037
C76	C	0.723515	2.159611	0.499963
C77	C	0.081263	1.669395	-0.000047
C78	C	0.581263	2.169395	0.499953
C79	C	0.074660	1.587193	-0.000043
C80	C	0.574660	2.087193	0.499957
C81	C	0.142483	1.541204	-0.000055
C82	C	0.642483	2.041204	0.499945
N83	N	0.196272	1.416115	-0.000060
N84	N	0.696272	1.916115	0.499940
N85	N	0.135724	1.457184	-0.000068
N86	N	0.635724	1.957184	0.499932
N87	N	0.187771	0.914923	0.456227
N88	N	0.687771	1.414923	0.956227
H89	H	-0.081567	1.054775	-0.000098
H90	H	0.418433	1.554775	0.499902
H91	H	0.232214	0.870578	0.531473
H92	H	0.732214	1.370578	1.031473
H93	H	0.099775	1.002733	0.468403
H94	H	0.599775	1.502733	0.968403
H95	H	-0.230684	1.042782	-0.000070
H96	H	0.269316	1.542782	0.499930
H97	H	-0.604205	1.076599	-0.000059
H98	H	-0.104205	1.576599	0.499941
Cl99	Cl	-0.439035	1.121553	-0.000017
Cl100	Cl	0.060965	1.621553	0.499983
H101	H	-0.586445	0.818518	-0.000041
H102	H	-0.086445	1.318518	0.499959
Cl103	Cl	-0.416955	0.800467	0.000010
Cl104	Cl	0.083045	1.300467	0.500010
Cl105	Cl	0.029824	1.353700	-0.000082
Cl106	Cl	0.529824	1.853700	0.499918
H107	H	-0.212937	0.784703	-0.000015
H108	H	0.287063	1.284703	0.499985
H109	H	0.026046	1.706848	-0.000039
H110	H	0.526046	2.206848	0.499961
Cl111	Cl	-0.043433	0.766654	-0.000024
Cl112	Cl	0.456567	1.266654	0.499976
H113	H	0.047871	1.184209	-0.000060
H114	H	0.547871	1.684209	0.499940
Cl115	Cl	0.317089	1.705129	-0.000027
Cl116	Cl	0.817089	2.205129	0.499973
H117	H	0.014053	1.557719	-0.000051
H118	H	0.514053	2.057719	0.499949
Cl119	Cl	0.302175	1.519601	-0.000040
Cl120	Cl	0.802175	2.019601	0.499960
Cl121	Cl	0.350905	1.331615	-0.000053
Cl122	Cl	0.850905	1.831615	0.499947
H123	H	0.305952	1.166452	-0.000074
H124	H	0.805952	1.666452	0.499926
