data_functionalizedCrystal
_audit_creation_method	'MofGen! by Chris Wilmer'
_symmetry_space_group_name_H-M	'P1'
_symmetry_Int_Tables_number	1
_symmetry_cell_setting	triclinic
loop_
_symmetry_equiv_pos_as_xyz
  x,y,z
_cell_length_a	27.732025
_cell_length_b	19.188930
_cell_length_c	18.266242
_cell_angle_alpha	90.022918
_cell_angle_beta	90.008162
_cell_angle_gamma	97.110871
loop_
_atom_site_label
_atom_site_type_symbol
_atom_site_fract_x
_atom_site_fract_y
_atom_site_fract_z
O1	O	0.060349	-0.925757	-0.061093
O2	O	0.560349	-0.425757	0.438907
O3	O	0.068472	-0.722393	-0.061040
O4	O	0.568472	-0.222393	0.438960
O5	O	-0.005968	-0.830400	-0.061090
O6	O	0.494032	-0.330400	0.438910
O7	O	0.134789	-0.817751	-0.061042
O8	O	0.634789	-0.317751	0.438958
O9	O	-0.005971	-0.830381	0.060672
O10	O	0.494029	-0.330381	0.560672
O11	O	0.068469	-0.722375	0.060722
O12	O	0.568469	-0.222375	0.560722
O13	O	0.060345	-0.925739	0.060669
O14	O	0.560345	-0.425739	0.560669
Zn15	Zn	0.064406	-0.824054	0.080028
Zn16	Zn	0.564406	-0.324054	0.580028
Zn17	Zn	0.064411	-0.824078	-0.080399
Zn18	Zn	0.564411	-0.324078	0.419601
O19	O	0.134785	-0.817733	0.060720
O20	O	0.634785	-0.317733	0.560720
C21	C	0.068207	-0.696375	-0.000152
C22	C	0.568207	-0.196375	0.499848
C23	C	0.067418	-0.618876	-0.000133
C24	C	0.567418	-0.118876	0.499867
C25	C	0.060610	-0.951758	-0.000220
C26	C	0.560610	-0.451758	0.499780
C27	C	0.061400	-1.029257	-0.000244
C28	C	0.561400	-0.529257	0.499756
C29	C	-0.023977	-0.830127	-0.000216
C30	C	0.476023	-0.330127	0.499784
C31	C	-0.077635	-0.829335	-0.000238
C32	C	0.422365	-0.329335	0.499762
C33	C	-0.460816	-0.823717	-0.066566
C34	C	0.039184	-0.323717	0.433434
C35	C	-0.259148	-0.826681	-0.066591
C36	C	0.240852	-0.326681	0.433409
O37	O	-0.233077	-0.827101	-0.123040
O38	O	0.266923	-0.327101	0.376960
N39	N	-0.233927	-0.827042	-0.000220
N40	N	0.266073	-0.327042	0.499780
C41	C	-0.259128	-0.826666	0.066161
C42	C	0.240872	-0.326666	0.566161
O43	O	-0.233049	-0.827048	0.122613
O44	O	0.266951	-0.327048	0.622613
C45	C	-0.460796	-0.823707	0.066185
C46	C	0.039204	-0.323707	0.566185
C47	C	-0.486013	-0.823339	-0.000190
C48	C	0.013987	-0.323339	0.499810
C49	C	-0.486033	-0.823350	-0.132936
C50	C	0.013967	-0.323350	0.367064
C51	C	-0.536447	-0.822605	-0.132929
C52	C	-0.036447	-0.322605	0.367071
C53	C	-0.561644	-0.822227	-0.066553
C54	C	-0.061644	-0.322227	0.433447
C55	C	-0.536426	-0.822594	-0.000183
C56	C	-0.036426	-0.322594	0.499817
C57	C	-0.485996	-0.823336	0.132565
C58	C	0.014004	-0.323336	0.632565
C59	C	-0.536416	-0.822598	0.132565
C60	C	-0.036416	-0.322598	0.632565
C61	C	-0.561633	-0.822230	0.066190
C62	C	-0.061633	-0.322230	0.566190
C63	C	-0.612037	-0.821471	0.066199
C64	C	-0.112037	-0.321471	0.566199
N65	N	-0.637257	-0.821110	-0.000171
N66	N	-0.137257	-0.321110	0.499829
C67	C	-0.612060	-0.821488	-0.066547
C68	C	-0.112060	-0.321488	0.433453
C69	C	-0.153249	-0.828219	0.066144
C70	C	0.346751	-0.328219	0.566144
C71	C	-0.102832	-0.828957	0.066138
C72	C	0.397168	-0.328957	0.566138
C73	C	-0.102856	-0.828974	-0.066614
C74	C	0.397144	-0.328974	0.433386
C75	C	-0.153273	-0.828230	-0.066607
C76	C	0.346727	-0.328230	0.433393
C77	C	-0.178469	-0.827858	-0.000226
C78	C	0.321531	-0.327858	0.499774
C79	C	-0.717933	-0.819923	-0.066528
C80	C	-0.217933	-0.319923	0.433472
C81	C	-0.768351	-0.819175	-0.066515
C82	C	-0.268351	-0.319175	0.433485
C83	C	-0.768323	-0.819162	0.066236
C84	C	-0.268323	-0.319162	0.566236
C85	C	-0.717909	-0.819907	0.066224
C86	C	-0.217909	-0.319907	0.566224
C87	C	-0.692716	-0.820289	-0.000164
C88	C	-0.192716	-0.320289	0.499836
O89	O	-0.638139	-0.821059	0.122619
O90	O	-0.138139	-0.321059	0.622619
O91	O	-0.638149	-0.821122	-0.122990
O92	O	-0.138149	-0.321122	0.377010
C93	C	-0.410402	-0.824462	-0.066573
C94	C	0.089598	-0.324462	0.433427
C95	C	-0.385185	-0.824829	-0.000204
C96	C	0.114815	-0.324829	0.499796
C97	C	-0.410382	-0.824451	0.066172
C98	C	0.089618	-0.324451	0.566172
C99	C	-0.334768	-0.825567	-0.000209
C100	C	0.165232	-0.325567	0.499791
C101	C	-0.309572	-0.825945	-0.066585
C102	C	0.190428	-0.325945	0.433415
C103	C	-0.334792	-0.825585	-0.132956
C104	C	0.165208	-0.325585	0.367044
C105	C	-0.385206	-0.824840	-0.132949
C106	C	0.114794	-0.324840	0.367051
C107	C	-0.385161	-0.824811	0.132543
C108	C	0.114839	-0.324811	0.632543
C109	C	-0.334748	-0.825556	0.132531
C110	C	0.165252	-0.325556	0.632531
C111	C	-0.309551	-0.825934	0.066155
C112	C	0.190449	-0.325934	0.566155
C113	C	0.152795	-0.818005	-0.000156
C114	C	0.652795	-0.318005	0.499844
C115	C	0.206453	-0.818797	-0.000139
C116	C	0.706453	-0.318797	0.499861
N117	N	0.064402	-0.824043	0.189515
N118	N	0.564402	-0.324043	0.689515
C119	C	0.111097	-0.573668	-0.000130
C120	C	0.611097	-0.073668	0.499870
C121	C	0.110355	-0.500849	-0.000138
C122	C	0.610355	-0.000849	0.499862
C123	C	0.065931	-0.473241	-0.000165
C124	C	0.565931	0.026759	0.499835
C125	C	0.022247	-0.518458	-0.000164
C126	C	0.522247	-0.018458	0.499836
C127	C	0.022990	-0.591276	-0.000148
C128	C	0.522990	-0.091276	0.499852
N129	N	0.031977	-0.365487	-0.041647
N130	N	0.531977	0.134513	0.458353
N131	N	0.031274	-0.296313	-0.041663
N132	N	0.531274	0.203687	0.458337
C133	C	0.063690	-0.253847	-0.000210
C134	C	0.563690	0.246153	0.499790
N135	N	0.096843	-0.283166	0.041251
N136	N	0.596843	0.216834	0.541251
N137	N	0.097547	-0.352346	0.041264
N138	N	0.597547	0.147654	0.541264
C139	C	0.065121	-0.394284	-0.000181
C140	C	0.565121	0.105716	0.499819
C141	C	0.106567	-0.129680	-0.000215
C142	C	0.606567	0.370320	0.499785
C143	C	0.105823	-0.056860	-0.000218
C144	C	0.605823	0.443140	0.499782
C145	C	0.017714	-0.074471	-0.000251
C146	C	0.517714	0.425529	0.499749
C147	C	0.018459	-0.147289	-0.000240
C148	C	0.518459	0.352711	0.499760
C149	C	0.062887	-0.174889	-0.000225
C150	C	0.562887	0.325111	0.499775
N151	N	0.064411	-0.824095	-0.189886
N152	N	0.564411	-0.324095	0.310114
C153	C	0.031456	-0.871884	0.227801
C154	C	0.531456	-0.371884	0.727801
C155	C	0.031454	-0.871888	0.304446
C156	C	0.531454	-0.371888	0.804446
C157	C	0.064406	-0.824059	0.342802
C158	C	0.564406	-0.324059	0.842802
C159	C	0.097355	-0.776209	0.304506
C160	C	0.597355	-0.276209	0.804506
C161	C	0.097353	-0.776201	0.227863
C162	C	0.597353	-0.276201	0.727863
N163	N	0.107197	-0.814705	0.463150
N164	N	0.607197	-0.314705	0.963150
N165	N	0.107197	-0.814717	0.535958
N166	N	0.607197	-0.314717	1.035958
C167	C	0.064413	-0.824078	0.573724
C168	C	0.564413	-0.324078	1.073724
N169	N	0.021628	-0.833441	0.535932
N170	N	0.521628	-0.333441	1.035932
N171	N	0.021628	-0.833433	0.463117
N172	N	0.521628	-0.333433	0.963117
C173	C	0.064412	-0.824061	0.425909
C174	C	0.564412	-0.324061	0.925909
C175	C	0.031462	-0.871926	0.695118
C176	C	0.531462	-0.371926	1.195118
C177	C	0.031459	-0.871926	0.771764
C178	C	0.531459	-0.371926	1.271764
C179	C	0.097364	-0.776250	0.771823
C180	C	0.597364	-0.276250	1.271823
C181	C	0.097363	-0.776247	0.695178
C182	C	0.597363	-0.276247	1.195178
C183	C	0.064412	-0.824089	0.656830
C184	C	0.564412	-0.324089	1.156830
H185	H	-0.788880	-0.818873	-0.120568
H186	H	-0.288880	-0.318873	0.379432
C187	C	0.133641	-0.723668	0.653061
C188	C	0.633641	-0.223668	1.153061
N189	N	0.160979	-0.684078	0.621339
N190	N	0.660979	-0.184078	1.121339
H191	H	0.147273	-0.596134	-0.000119
H192	H	0.647273	-0.096134	0.499881
H193	H	0.004628	-0.910881	0.802938
H194	H	0.504628	-0.410881	1.302938
C195	C	-0.004786	-0.924525	0.346570
C196	C	0.495214	-0.424525	0.846570
N197	N	-0.032080	-0.964175	0.378295
N198	N	0.467920	-0.464175	0.878295
C199	C	-0.029592	-0.197020	-0.000253
C200	C	0.470408	0.302980	0.499747
N201	N	-0.065787	-0.234478	-0.000261
N202	N	0.434213	0.265522	0.499739
C203	C	-0.180958	-0.827800	0.139173
C204	C	0.319042	-0.327800	0.639173
N205	N	-0.201825	-0.827480	0.194179
N206	N	0.298175	-0.327480	0.694179
C207	C	0.153876	-0.007130	-0.000204
C208	C	0.653876	0.492870	0.499796
N209	N	0.190071	0.030326	-0.000191
N210	N	0.690071	0.530326	0.499809
H211	H	0.124182	-0.737243	0.196689
H212	H	0.624182	-0.237243	0.696689
C213	C	-0.004788	-0.924546	0.652933
C214	C	0.495212	-0.424546	1.152933
N215	N	-0.032093	-0.964179	0.621161
N216	N	0.467907	-0.464179	1.121161
H217	H	-0.697426	-0.820235	-0.120587
H218	H	-0.197426	-0.320235	0.379413
H219	H	0.124192	-0.737304	0.803051
H220	H	0.624192	-0.237304	1.303051
H221	H	-0.556975	-0.822310	-0.186978
H222	H	-0.056975	-0.322310	0.313022
C223	C	-0.458268	-0.823743	0.205584
C224	C	0.041732	-0.323743	0.705584
N225	N	-0.437385	-0.824052	0.260586
N226	N	0.062615	-0.324052	0.760586
C227	C	-0.458325	-0.823762	-0.205961
C228	C	0.041675	-0.323762	0.294039
N229	N	-0.437457	-0.824067	-0.260969
N230	N	0.062543	-0.324067	0.239031
H231	H	-0.173801	-0.827929	-0.120655
H232	H	0.326199	-0.327929	0.379345
H233	H	-0.697374	-0.820178	0.120272
H234	H	-0.197374	-0.320178	0.620272
C235	C	-0.004795	-0.924505	0.185623
C236	C	0.495205	-0.424505	0.685623
N237	N	-0.032101	-0.964137	0.153854
N238	N	0.467899	-0.464137	0.653854
H239	H	-0.012580	-0.628085	-0.000151
H240	H	0.487420	-0.128085	0.499849
H241	H	0.124184	-0.737264	0.335739
H242	H	0.624184	-0.237264	0.835739
H243	H	-0.082331	-0.829277	-0.120660
H244	H	0.417669	-0.329277	0.379340
C245	C	-0.075098	-0.829352	0.139156
C246	C	0.424902	-0.329352	0.639156
N247	N	-0.054211	-0.829654	0.194155
N248	N	0.445789	-0.329654	0.694155
C249	C	-0.796049	-0.818744	0.139246
C250	C	-0.296049	-0.318744	0.639246
N251	N	-0.816934	-0.818433	0.194238
N252	N	-0.316934	-0.318433	0.694238
C253	C	-0.564128	-0.822185	0.205591
C254	C	-0.064128	-0.322185	0.705591
N255	N	-0.585000	-0.821871	0.260594
N256	N	-0.085000	-0.321871	0.760594
C257	C	0.155438	-0.160042	-0.000189
C258	C	0.655438	0.339958	0.499811
N259	N	0.192248	-0.182909	-0.000169
N260	N	0.692248	0.317091	0.499831
C261	C	0.158407	-0.451111	-0.000143
C262	C	0.658407	0.048889	0.499857
N263	N	0.194600	-0.413651	-0.000151
N264	N	0.694600	0.086349	0.499849
C265	C	-0.307066	-0.826004	-0.205970
C266	C	0.192934	-0.326004	0.294030
N267	N	-0.286181	-0.826326	-0.260961
N268	N	0.213819	-0.326326	0.239039
C269	C	-0.307014	-0.825959	0.205553
C270	C	0.192986	-0.325959	0.705553
N271	N	-0.286128	-0.826269	0.260553
N272	N	0.213872	-0.326269	0.760553
H273	H	-0.405672	-0.824506	0.186595
H274	H	0.094328	-0.324506	0.686595
C275	C	-0.031153	-0.044107	-0.000279
C276	C	0.468847	0.455893	0.499721
N277	N	-0.067960	-0.021233	-0.000299
N278	N	0.432040	0.478767	0.499701
C279	C	-0.026619	-0.488088	-0.000194
C280	C	0.473381	0.011912	0.499806
N281	N	-0.063427	-0.465214	-0.000214
N282	N	0.436573	0.034786	0.499786
H283	H	-0.405733	-0.824540	-0.186998
H284	H	0.094267	-0.324540	0.313002
