data_functionalizedCrystal
_audit_creation_method	'MofGen! by Chris Wilmer'
_symmetry_space_group_name_H-M	'P1'
_symmetry_Int_Tables_number	1
_symmetry_cell_setting	triclinic
loop_
_symmetry_equiv_pos_as_xyz
  x,y,z
_cell_length_a	12.594517
_cell_length_b	16.625546
_cell_length_c	16.625539
_cell_angle_alpha	90.028532
_cell_angle_beta	89.982613
_cell_angle_gamma	89.977732
loop_
_atom_site_label
_atom_site_type_symbol
_atom_site_fract_x
_atom_site_fract_y
_atom_site_fract_z
Zn1	Zn	1.627178	0.321019	-0.455905
Zn2	Zn	2.127178	0.821019	0.044095
Zn3	Zn	1.627061	0.455858	-0.321067
Zn4	Zn	2.127061	0.955858	0.178933
Zn5	Zn	1.449194	0.321043	-0.321084
Zn6	Zn	1.949194	0.821043	0.178916
Zn7	Zn	1.449144	0.455813	-0.455856
Zn8	Zn	1.949144	0.955813	0.044144
O9	O	1.538144	0.388433	-0.388478
O10	O	2.038144	0.888433	0.111522
O11	O	1.776108	0.338915	-0.438031
O12	O	2.276108	0.838915	0.061969
O13	O	1.603439	0.438003	-0.208237
O14	O	2.103439	0.938003	0.291763
O15	O	1.472874	0.208207	-0.338996
O16	O	1.972874	0.708207	0.161004
O17	O	1.776023	0.437980	-0.338967
O18	O	2.276023	0.937980	0.161033
O19	O	1.603638	0.208190	-0.438048
O20	O	2.103638	0.708190	0.061952
O21	O	1.472761	0.338955	-0.208250
O22	O	1.972761	0.838955	0.291750
O23	O	1.300242	0.338911	-0.338949
O24	O	1.800242	0.838911	0.161051
O25	O	1.472789	0.437904	-0.568695
O26	O	1.972789	0.937904	-0.068695
O27	O	1.300205	0.437927	-0.437965
O28	O	1.800205	0.937927	0.062035
O29	O	1.603590	0.338871	-0.568731
O30	O	2.103590	0.838871	-0.068731
O31	O	1.603390	0.568685	-0.338919
O32	O	2.103390	1.068685	0.161081
O33	O	1.472676	0.568652	-0.437948
O34	O	1.972676	1.068652	0.062052
C35	C	1.261603	0.388417	-0.388454
C36	C	1.761603	0.888417	0.111546
C37	C	1.143298	0.388430	-0.388463
C38	C	1.643298	0.888430	0.111537
C39	C	1.538044	0.597924	-0.388444
C40	C	2.038044	1.097924	0.111556
C41	C	1.538098	0.687545	-0.388457
C42	C	2.038098	1.187545	0.111543
C43	C	1.538197	0.388380	-0.598787
C44	C	2.038197	0.888380	-0.098787
C45	C	1.538219	0.388357	-0.688408
C46	C	2.038219	0.888357	-0.188408
C47	C	1.074034	0.334502	-0.334711
C48	C	1.574034	0.834502	0.165289
C49	C	1.003214	0.408049	-0.314872
C50	C	1.503214	0.908049	0.185128
C51	C	1.003319	0.314919	-0.408316
C52	C	1.503319	0.814919	0.091684
C53	C	1.074036	0.462015	-0.368586
C54	C	1.574036	0.962015	0.131414
C55	C	1.074148	0.368836	-0.462064
C56	C	1.574148	0.868836	0.037936
C57	C	1.003360	0.442433	-0.442253
C58	C	1.503360	0.942433	0.057747
C59	C	1.815765	0.388450	-0.388502
C60	C	2.315765	0.888450	0.111498
C61	C	1.934071	0.388457	-0.388513
C62	C	2.434071	0.888457	0.111487
C63	C	1.538275	0.178124	-0.388530
C64	C	2.038275	0.678124	0.111470
C65	C	1.538330	0.088503	-0.388552
C66	C	2.038330	0.588503	0.111448
C67	C	1.538284	1.015721	-0.388541
C68	C	2.038284	1.515721	0.111459
C69	C	1.538229	0.924412	-0.388520
C70	C	2.038229	1.424412	0.111480
C71	C	1.538190	0.851636	-0.388498
C72	C	2.038190	1.351636	0.111502
C73	C	1.538137	0.760322	-0.388478
C74	C	2.038137	1.260322	0.111522
C75	C	1.538236	0.388340	-0.761191
C76	C	2.038236	0.888340	-0.261191
C77	C	1.538261	0.388310	-0.852499
C78	C	2.038261	0.888310	-0.352499
C79	C	1.538286	0.388281	-0.925276
C80	C	2.038286	0.888281	-0.425276
C81	C	1.538313	0.388252	-1.016590
C82	C	2.038313	0.888252	-0.516590
C83	C	1.538154	0.388428	-0.178987
C84	C	2.038154	0.888428	0.321013
C85	C	1.538338	0.388224	-0.089367
C86	C	2.038338	0.888224	0.410633
H87	H	0.972058	0.424639	-0.252651
H88	H	1.472058	0.924639	0.247349
C89	C	1.047640	0.542409	-0.540876
C90	C	1.547640	1.042409	-0.040876
C91	C	0.961721	0.504083	-0.503644
C92	C	1.461721	1.004083	-0.003644
H93	H	1.021930	0.580473	-0.578769
H94	H	1.521930	1.080473	-0.078769
H95	H	1.090131	0.503550	-0.567714
H96	H	1.590131	1.003550	-0.067714
H97	H	1.089119	0.569207	-0.501393
H98	H	1.589119	1.069207	-0.001393
H99	H	0.920246	0.477280	-0.543127
H100	H	1.420246	0.977280	-0.043127
H101	H	0.919212	0.542948	-0.476805
H102	H	1.419212	1.042948	0.023195
C103	C	0.850214	0.232076	-0.431448
C104	C	1.350214	0.732076	0.068552
C105	C	0.961381	0.230982	-0.430959
C106	C	1.461381	0.730982	0.069041
H107	H	0.824328	0.180254	-0.445416
H108	H	1.324328	0.680254	0.054584
H109	H	0.826025	0.270324	-0.469707
H110	H	1.326025	0.770324	0.030293
H111	H	0.824898	0.246379	-0.379545
H112	H	1.324898	0.746379	0.120455
H113	H	0.986698	0.216684	-0.482864
H114	H	1.486698	0.716684	0.017136
H115	H	0.985580	0.192720	-0.392698
H116	H	1.485580	0.692720	0.107302
C117	C	1.227421	0.347360	-0.545263
C118	C	1.727421	0.847360	-0.045263
C119	C	1.116256	0.346410	-0.546033
C120	C	1.616256	0.846410	-0.046033
H121	H	1.253417	0.333513	-0.597103
H122	H	1.753417	0.833513	-0.097103
H123	H	1.252660	0.309578	-0.506929
H124	H	1.752660	0.809578	-0.006929
H125	H	1.251577	0.399641	-0.531247
H126	H	1.751577	0.899641	-0.031247
H127	H	1.092100	0.294128	-0.560043
H128	H	1.592100	0.794128	-0.060043
H129	H	1.091007	0.384194	-0.584379
H130	H	1.591007	0.884194	-0.084379
H131	H	1.104970	0.524212	-0.351746
H132	H	1.604970	1.024212	0.148254
C133	C	1.080122	0.293729	-0.196265
C134	C	1.580122	0.793729	0.303735
C135	C	1.115937	0.272997	-0.273276
C136	C	1.615937	0.772997	0.226724
H137	H	1.105997	0.255763	-0.158339
H138	H	1.605997	0.755763	0.341661
H139	H	1.004713	0.293655	-0.195526
H140	H	1.504713	0.793655	0.304474
H141	H	1.105384	0.345828	-0.182699
H142	H	1.605384	0.845828	0.317301
H143	H	1.090668	0.220901	-0.286845
H144	H	1.590668	0.720901	0.213155
H145	H	1.191362	0.273063	-0.274017
H146	H	1.691362	0.773063	0.225983
