data_functionalizedCrystal
_audit_creation_method	'MofGen! by Chris Wilmer'
_symmetry_space_group_name_H-M	'P1'
_symmetry_Int_Tables_number	1
_symmetry_cell_setting	triclinic
loop_
_symmetry_equiv_pos_as_xyz
  x,y,z
_cell_length_a	12.594517
_cell_length_b	12.594516
_cell_length_c	12.759393
_cell_angle_alpha	90.029124
_cell_angle_beta	90.014978
_cell_angle_gamma	90.016010
loop_
_atom_site_label
_atom_site_type_symbol
_atom_site_fract_x
_atom_site_fract_y
_atom_site_fract_z
Zn1	Zn	1.627274	-0.423681	0.593901
Zn2	Zn	1.627163	-0.601700	0.418228
Zn3	Zn	1.449276	-0.423736	0.418251
Zn4	Zn	1.449260	-0.601617	0.593880
O5	O	1.538243	-0.512683	0.506065
O6	O	1.776205	-0.447307	0.570596
O7	O	1.603526	-0.578150	0.271210
O8	O	1.472941	-0.274783	0.441569
O9	O	1.776123	-0.578097	0.441530
O10	O	1.603715	-0.274742	0.570618
O11	O	1.472833	-0.447401	0.271227
O12	O	1.300328	-0.447321	0.441549
O13	O	1.472914	-0.577956	0.740904
O14	O	1.300316	-0.578009	0.570584
O15	O	1.603700	-0.447227	0.740919
O16	O	1.603510	-0.750635	0.441511
O17	O	1.472806	-0.750574	0.570562
C18	C	1.261702	-0.512663	0.506067
C19	C	1.143397	-0.512680	0.506093
C20	C	1.003405	-0.583890	0.576145
C21	C	1.074174	-0.609803	0.480260
C22	C	1.074199	-0.486814	0.601968
C23	C	1.003381	-0.538677	0.410126
C24	C	1.003399	-0.415644	0.531899
C25	C	1.074137	-0.441519	0.435948
C26	C	1.538173	-0.789224	0.506055
C27	C	1.538241	-0.907530	0.506085
C28	C	1.467144	-0.976789	0.576227
C29	C	1.441209	-1.047659	0.480362
C30	C	1.564272	-1.047458	0.601967
C31	C	1.512255	-0.976842	0.410170
C32	C	1.635363	-0.976635	0.531839
C33	C	1.609466	-1.047474	0.435908
C34	C	1.815864	-0.512705	0.506063
C35	C	1.934169	-0.512714	0.506062
C36	C	1.538318	-0.512576	0.780098
C37	C	1.538349	-0.512530	0.896875
C38	C	1.538342	-0.235063	0.506098
C39	C	1.538384	-0.116757	0.506112
C40	C	1.538230	-0.512714	0.233098
C41	C	1.538405	-0.512459	0.116321
C42	C	1.606459	-0.444453	0.951747
C43	C	1.606484	-0.444415	1.061471
C44	C	1.470287	-0.580540	1.061442
C45	C	1.470257	-0.580572	0.951720
C46	C	1.674551	-0.376411	0.896902
C47	C	1.742667	-0.308329	0.951773
C48	C	1.742692	-0.308291	1.061497
C49	C	1.674602	-0.376334	1.116350
H50	H	1.105261	-0.691879	0.458412
F51	F	1.114861	-0.458199	0.707961
F52	F	1.688136	-1.087786	0.358306
F53	F	1.742608	-0.935829	0.560341
F54	F	0.962896	-0.567416	0.304100
F55	F	1.592974	-1.088008	0.707935
F56	F	1.815116	-0.235903	0.893394
F57	F	1.114468	-0.362817	0.358414
F58	F	1.815187	-0.235834	1.119893
H59	H	1.674540	-0.376437	0.807559
F60	F	1.674619	-0.376277	1.233129
F61	F	1.397766	-0.653026	0.893319
H62	H	1.414851	-0.635937	1.106112
H63	H	1.406912	-0.945751	0.635457
F64	F	0.962807	-0.662640	0.653497
F65	F	1.333936	-1.088433	0.451894
H66	H	0.972288	-0.333591	0.553774
H67	H	1.490201	-0.945951	0.329073
