data_functionalizedCrystal
_audit_creation_method	'MofGen! by Chris Wilmer'
_symmetry_space_group_name_H-M	'P1'
_symmetry_Int_Tables_number	1
_symmetry_cell_setting	triclinic
loop_
_symmetry_equiv_pos_as_xyz
  x,y,z
_cell_length_a	17.699083
_cell_length_b	19.188930
_cell_length_c	16.776229
_cell_angle_alpha	89.988225
_cell_angle_beta	89.998886
_cell_angle_gamma	83.213899
loop_
_atom_site_label
_atom_site_type_symbol
_atom_site_fract_x
_atom_site_fract_y
_atom_site_fract_z
O1	O	1.003962	0.088294	-0.066185
O2	O	1.503962	0.588294	0.433815
O3	O	0.783569	0.099782	-0.066213
O4	O	1.283569	0.599782	0.433787
O5	O	0.900126	-0.007611	-0.066183
O6	O	1.400126	0.492389	0.433817
O7	O	0.887405	0.195686	-0.066215
O8	O	1.387405	0.695686	0.433785
O9	O	0.900110	-0.007617	0.066394
O10	O	1.400110	0.492383	0.566394
O11	O	0.783553	0.099775	0.066364
O12	O	1.283553	0.599775	0.566364
O13	O	1.003947	0.088288	0.066391
O14	O	1.503947	0.588288	0.566391
Zn15	Zn	0.893748	0.094030	0.087427
Zn16	Zn	1.393748	0.594030	0.587427
Zn17	Zn	0.893768	0.094039	-0.087249
Zn18	Zn	1.393768	0.594039	0.412751
O19	O	0.887390	0.195680	0.066361
O20	O	1.387390	0.695680	0.566361
C21	C	0.755365	0.099367	0.000072
C22	C	1.255365	0.599367	0.500072
C23	C	0.671348	0.098132	0.000062
C24	C	1.171348	0.598132	0.500062
C25	C	0.899706	-0.033625	0.000108
C26	C	1.399706	0.466375	0.500108
C27	C	0.898469	-0.111131	0.000114
C28	C	1.398469	0.388869	0.500114
C29	C	0.622644	0.161169	0.000053
C30	C	1.122644	0.661169	0.500053
C31	C	0.543702	0.160004	0.000063
C32	C	1.043702	0.660004	0.500063
C33	C	0.513466	0.095802	0.000078
C34	C	1.013466	0.595802	0.500078
C35	C	0.562176	0.032761	0.000090
C36	C	1.062176	0.532761	0.500090
C37	C	0.641117	0.033926	0.000085
C38	C	1.141117	0.533926	0.500085
C39	C	0.243819	0.028060	0.000111
C40	C	0.743819	0.528060	0.500111
C41	C	0.164873	0.026900	0.000113
C42	C	0.664873	0.526900	0.500113
C43	C	0.146405	0.154139	0.000088
C44	C	0.646405	0.654139	0.500088
C45	C	0.225345	0.155304	0.000084
C46	C	0.725345	0.655304	0.500084
C47	C	0.274049	0.092263	0.000100
C48	C	0.774049	0.592263	0.500100
C49	C	0.359646	0.093526	0.000090
C50	C	0.859646	0.593526	0.500090
C51	C	0.427870	0.094538	0.000082
C52	C	0.927870	0.594538	0.500082
C53	C	0.966861	-0.155978	0.000127
C54	C	1.466861	0.344022	0.500127
C55	C	0.965699	-0.228804	0.000114
C56	C	1.465699	0.271196	0.500114
C57	C	0.896142	-0.256778	0.000105
C58	C	1.396142	0.243222	0.500105
C59	C	0.827741	-0.211921	0.000088
C60	C	1.327741	0.288079	0.500088
C61	C	0.828905	-0.139098	0.000093
C62	C	1.328905	0.360902	0.500093
N63	N	0.842969	-0.364845	0.045216
N64	N	1.342969	0.135155	0.545216
N65	N	0.841868	-0.434025	0.045213
N66	N	1.341868	0.065975	0.545213
C67	C	0.892632	-0.476191	0.000088
C68	C	1.392632	0.023809	0.500088
N69	N	0.944550	-0.446565	-0.045024
N70	N	1.444550	0.053435	0.454976
N71	N	0.945653	-0.377379	-0.045018
N72	N	1.445653	0.122621	0.454982
C73	C	0.894873	-0.335742	0.000099
C74	C	1.394873	0.164258	0.500099
C75	C	0.959769	-0.600004	0.000085
C76	C	1.459769	-0.100004	0.500085
C77	C	0.958604	-0.672830	0.000067
C78	C	1.458604	-0.172830	0.500067
C79	C	0.820644	-0.655946	0.000049
C80	C	1.320644	-0.155946	0.500049
C81	C	0.821811	-0.583121	0.000059
C82	C	1.321811	-0.083121	0.500059
C83	C	0.891375	-0.555155	0.000081
C84	C	1.391375	-0.055155	0.500081
C85	C	1.032151	0.088703	0.000104
C86	C	1.532151	0.588703	0.500104
C87	C	1.116167	0.089938	0.000109
C88	C	1.616167	0.589938	0.500109
C89	C	0.887810	0.221695	0.000069
C90	C	1.387810	0.721695	0.500069
C91	C	0.889046	0.299201	0.000057
C92	C	1.389046	0.799201	0.500057
N93	N	0.893739	0.094024	0.206638
N94	N	1.393739	0.594024	0.706638
N95	N	0.893782	0.094040	-0.206460
N96	N	1.393782	0.594040	0.293540
C97	C	0.945366	0.046490	0.248368
C98	C	1.445366	0.546490	0.748368
C99	C	0.945370	0.046490	0.331821
C100	C	1.445370	0.546490	0.831821
C101	C	0.893751	0.094027	0.373541
C102	C	1.393751	0.594027	0.873541
C103	C	0.842118	0.141563	0.331805
C104	C	1.342118	0.641563	0.831805
C105	C	0.842111	0.141559	0.248354
C106	C	1.342111	0.641559	0.748354
C107	C	0.842146	0.141576	0.668352
C108	C	1.342146	0.641576	1.168352
C109	C	0.842158	0.141578	0.751808
C110	C	1.342158	0.641578	1.251808
C111	C	0.945405	0.046507	0.751818
C112	C	1.445405	0.546507	1.251818
C113	C	0.945398	0.046503	0.668368
C114	C	1.445398	0.546503	1.168368
C115	C	0.893763	0.094037	0.626639
C116	C	1.393763	0.594037	1.126639
C117	C	0.893758	0.094036	0.536150
C118	C	1.393758	0.594036	1.036150
C119	C	0.893759	0.094031	0.464028
C120	C	1.393759	0.594031	0.964028
H121	H	0.504050	0.211335	0.000054
H122	H	1.004050	0.711335	0.500054
O123	O	0.135465	-0.035452	-0.000009
O124	O	0.635465	0.464548	0.499991
C125	C	0.090340	-0.039926	-0.068659
C126	C	0.590340	0.460074	0.431341
H127	H	0.108892	-0.003475	-0.116661
H128	H	0.608892	0.496525	0.383339
H129	H	0.097609	-0.096209	-0.091691
H130	H	0.597609	0.403791	0.408309
H131	H	0.028032	-0.023711	-0.053140
H132	H	0.528032	0.476289	0.446860
H133	H	0.249959	0.207584	0.000068
H134	H	0.749959	0.707584	0.500068
H135	H	0.647256	0.213450	0.000040
H136	H	1.147256	0.713450	0.500040
H137	H	0.283465	-0.023272	0.000125
H138	H	0.783465	0.476728	0.500125
O139	O	0.762486	-0.095501	-0.000056
O140	O	1.262486	0.404499	0.499944
C141	C	0.759050	-0.052841	-0.068704
C142	C	1.259050	0.447159	0.431296
H143	H	0.797849	-0.079565	-0.116692
H144	H	1.297849	0.420435	0.383308
H145	H	0.698060	-0.044542	-0.091761
H146	H	1.198060	0.455458	0.408239
H147	H	0.778463	0.000078	-0.053170
H148	H	1.278463	0.500078	0.446830
O149	O	0.532681	-0.029545	0.000070
O150	O	1.032681	0.470455	0.500070
C151	C	0.452563	-0.017058	0.000090
C152	C	0.952563	0.482942	0.500090
H153	H	0.433842	0.037460	-0.025019
H154	H	0.933842	0.537460	0.474981
H155	H	0.428460	-0.058131	-0.038391
H156	H	0.928460	0.441869	0.461609
H157	H	0.430600	-0.020407	0.063695
H158	H	0.930600	0.479593	0.563695
H159	H	0.106741	0.205470	0.000079
H160	H	0.606741	0.705470	0.500079
H161	H	0.680771	-0.017406	0.000093
H162	H	1.180771	0.482594	0.500093
O163	O	0.791934	0.187780	0.792213
O164	O	1.291934	0.687780	1.292213
C165	C	0.746368	0.229744	0.737489
C166	C	1.246368	0.729744	1.237489
H167	H	0.745604	0.201118	0.678009
H168	H	1.245604	0.701118	1.178009
H169	H	0.685895	0.240458	0.761610
H170	H	1.185895	0.740458	1.261610
H171	H	0.770757	0.281587	0.728596
H172	H	1.270757	0.781587	1.228596
H173	H	0.987409	0.007784	0.365797
H174	H	1.487409	0.507784	0.865797
H175	H	0.800070	0.180265	0.214378
H176	H	1.300070	0.680265	0.714378
H177	H	1.023506	-0.133213	0.000142
H178	H	1.523506	0.366787	0.500142
O179	O	0.755444	-0.539453	0.000020
O180	O	1.255444	-0.039453	0.500020
C181	C	0.771385	-0.469179	0.000047
C182	C	1.271385	0.030821	0.500047
H183	H	0.830828	-0.466482	-0.025043
H184	H	1.330828	0.033518	0.474957
H185	H	0.727781	-0.436103	-0.038448
H186	H	1.227781	0.063897	0.461552
H187	H	0.768438	-0.448127	0.063651
H188	H	1.268438	0.051873	0.563651
H189	H	0.764009	-0.678722	0.000038
H190	H	1.264009	-0.178722	0.500038
H191	H	0.987434	0.007797	0.634402
H192	H	1.487434	0.507797	1.134402
H193	H	1.021394	-0.265325	0.000121
H194	H	1.521394	0.234675	0.500121
O195	O	0.995486	0.000352	0.792479
O196	O	1.495486	0.500352	1.292479
C197	C	0.984439	0.010554	0.875081
C198	C	1.484439	0.510554	1.375081
H199	H	0.924180	0.036717	0.886481
H200	H	1.424180	0.536717	1.386481
H201	H	0.993043	-0.042332	0.906808
H202	H	1.493043	0.457668	1.406808
H203	H	1.027158	0.045526	0.898749
H204	H	1.527158	0.545526	1.398749
H205	H	0.771107	-0.234702	0.000079
H206	H	1.271107	0.265298	0.500079
H207	H	1.016412	-0.577233	0.000099
H208	H	1.516412	-0.077233	0.500099
O209	O	1.025114	-0.716298	0.000114
O210	O	1.525114	-0.216298	0.500114
C211	C	1.086757	-0.675994	0.000115
C212	C	1.586757	-0.175994	0.500115
H213	H	1.067360	-0.621614	0.025217
H214	H	1.567360	-0.121614	0.525217
H215	H	1.134655	-0.702948	0.038615
H216	H	1.634655	-0.202948	0.538615
H217	H	1.108104	-0.670828	-0.063482
H218	H	1.608104	-0.170828	0.436518
H219	H	0.987404	0.007783	0.214405
H220	H	1.487404	0.507783	0.714405
O221	O	0.792101	0.187788	0.627740
O222	O	1.292101	0.687788	1.127740
C223	C	0.832486	0.230826	0.579470
C224	C	1.332486	0.730826	1.079470
H225	H	0.891796	0.202943	0.566959
H226	H	1.391796	0.702943	1.066959
H227	H	0.800850	0.241919	0.520793
H228	H	1.300850	0.741919	1.020793
H229	H	0.837468	0.282418	0.611624
H230	H	1.337468	0.782418	1.111624
H231	H	0.800085	0.180266	0.365778
H232	H	1.300085	0.680266	0.865778
