data_functionalizedCrystal
_audit_creation_method	'MofGen! by Chris Wilmer'
_symmetry_space_group_name_H-M	'P1'
_symmetry_Int_Tables_number	1
_symmetry_cell_setting	triclinic
loop_
_symmetry_equiv_pos_as_xyz
  x,y,z
_cell_length_a	12.759401
_cell_length_b	17.640280
_cell_length_c	12.759393
_cell_angle_alpha	78.768965
_cell_angle_beta	89.979062
_cell_angle_gamma	78.802151
loop_
_atom_site_label
_atom_site_type_symbol
_atom_site_fract_x
_atom_site_fract_y
_atom_site_fract_z
Zn1	Zn	1.690818	-0.314597	-0.509562
Zn2	Zn	1.726238	-0.446790	-0.298393
Zn3	Zn	1.515128	-0.314639	-0.333886
Zn4	Zn	1.550623	-0.446735	-0.474045
O5	O	1.620702	-0.380691	-0.403971
O6	O	1.842539	-0.332138	-0.481560
O7	O	1.698203	-0.429301	-0.156069
O8	O	1.508756	-0.204028	-0.386908
O9	O	1.868562	-0.429260	-0.326415
O10	O	1.637835	-0.203997	-0.515976
O11	O	1.543101	-0.332210	-0.182146
O12	O	1.372814	-0.332157	-0.352468
O13	O	1.569251	-0.429166	-0.625788
O14	O	1.398892	-0.429207	-0.455443
O15	O	1.672252	-0.332085	-0.651883
O16	O	1.732620	-0.557389	-0.291976
O17	O	1.603596	-0.557349	-0.421027
C18	C	1.347732	-0.380681	-0.403953
C19	C	1.230959	-0.380696	-0.403965
C20	C	1.675832	-0.586048	-0.348819
C21	C	1.699513	-0.673900	-0.325259
C22	C	1.189724	-0.431307	-0.457458
C23	C	1.080001	-0.431310	-0.457478
C24	C	1.052757	-0.330089	-0.350505
C25	C	1.162477	-0.330082	-0.350491
C26	C	1.441231	-0.962869	-0.583333
C27	C	1.463485	-1.045420	-0.561162
C28	C	1.597921	-1.045396	-0.426917
C29	C	1.575682	-0.962844	-0.449081
C30	C	1.497335	-0.921586	-0.527289
C31	C	1.631786	-0.921561	-0.393036
C32	C	1.609545	-0.839016	-0.415195
C33	C	1.531199	-0.797753	-0.493397
C34	C	1.475094	-0.839041	-0.549447
C35	C	1.710127	-0.962820	-0.314823
C36	C	1.766231	-0.921538	-0.258779
C37	C	1.743996	-0.838991	-0.280942
C38	C	1.665650	-0.797728	-0.359145
C39	C	1.800101	-0.797703	-0.224892
C40	C	1.777860	-0.715158	-0.247051
C41	C	1.643409	-0.715183	-0.381303
C42	C	1.894738	-0.380701	-0.403990
C43	C	2.011516	-0.380705	-0.403998
C44	C	1.620760	-0.380615	-0.678025
C45	C	1.620785	-0.380582	-0.794811
C46	C	1.565385	-0.174531	-0.459363
C47	C	1.541813	-0.086679	-0.482967
C48	C	1.674420	-0.330024	-0.863264
C49	C	1.674429	-0.329990	-0.972997
C50	C	1.567166	-0.431079	-0.945813
C51	C	1.567151	-0.431109	-0.836083
C52	C	1.620689	-0.380709	-0.130999
C53	C	1.620808	-0.380519	-0.014274
H54	H	1.245479	-0.472518	-0.501003
Cl55	Cl	1.028167	-0.494937	-0.524731
H56	H	1.718089	-0.288880	-0.829665
Cl57	Cl	0.966660	-0.266466	-0.283281
Cl58	Cl	1.696413	-1.097270	-0.328605
H59	H	1.513085	-0.730539	-0.511429
Cl60	Cl	1.214318	-0.266446	-0.283246
H61	H	1.579618	-0.681589	-0.444996
Cl62	Cl	1.741871	-0.266435	-1.059047
Cl63	Cl	1.376609	-0.787168	-0.647778
H64	H	1.863883	-0.831307	-0.161208
H65	H	1.823545	-0.681545	-0.201412
H66	H	1.377441	-0.929275	-0.647026
Cl67	Cl	1.499751	-0.494599	-0.997705
Cl68	Cl	1.392933	-1.097315	-0.631615
H69	H	1.728236	-1.030034	-0.296788
Cl70	Cl	1.864724	-0.973412	-0.160467
Cl71	Cl	1.499711	-0.494669	-0.750022
