data_functionalizedCrystal
_audit_creation_method	'MofGen! by Chris Wilmer'
_symmetry_space_group_name_H-M	'P1'
_symmetry_Int_Tables_number	1
_symmetry_cell_setting	triclinic
loop_
_symmetry_equiv_pos_as_xyz
  x,y,z
_cell_length_a	18.101398
_cell_length_b	21.295417
_cell_length_c	18.101389
_cell_angle_alpha	89.977434
_cell_angle_beta	89.975673
_cell_angle_gamma	90.025773
loop_
_atom_site_label
_atom_site_type_symbol
_atom_site_fract_x
_atom_site_fract_y
_atom_site_fract_z
Zn1	Zn	1.132124	-0.250755	-0.418817
Zn2	Zn	1.632124	0.249245	0.081183
Zn3	Zn	1.132021	-0.356008	-0.294967
Zn4	Zn	1.632021	0.143992	0.205033
Zn5	Zn	1.008283	-0.250748	-0.294979
Zn6	Zn	1.508283	0.249252	0.205021
Zn7	Zn	1.008235	-0.355981	-0.418755
Zn8	Zn	1.508235	0.144019	0.081245
O9	O	1.070166	-0.303373	-0.356880
O10	O	1.570166	0.196627	0.143120
O11	O	1.235743	-0.264731	-0.402409
O12	O	1.735743	0.235269	0.097591
O13	O	1.115584	-0.342054	-0.191335
O14	O	1.615584	0.157946	0.308665
O15	O	1.024774	-0.162660	-0.311437
O16	O	1.524774	0.337340	0.188563
O17	O	1.235668	-0.342060	-0.311417
O18	O	1.735668	0.157940	0.188583
O19	O	1.115759	-0.162664	-0.402421
O20	O	1.615759	0.337336	0.097579
O21	O	1.024674	-0.264720	-0.191344
O22	O	1.524674	0.235280	0.308656
O23	O	0.904644	-0.264694	-0.311377
O24	O	1.404644	0.235306	0.188623
O25	O	1.024692	-0.342014	-0.522397
O26	O	1.524692	0.157986	-0.022397
O27	O	0.904609	-0.342008	-0.402315
O28	O	1.404609	0.157992	0.097685
O29	O	1.115713	-0.264705	-0.522442
O30	O	1.615713	0.235295	-0.022442
O31	O	1.115538	-0.444094	-0.311357
O32	O	1.615538	0.055906	0.188643
O33	O	1.024592	-0.444074	-0.402304
O34	O	1.524592	0.055926	0.097696
C35	C	0.877755	-0.303348	-0.356841
C36	C	1.377755	0.196652	0.143159
C37	C	0.795441	-0.303352	-0.356842
C38	C	1.295441	0.196648	0.143158
C39	C	0.496350	-0.303391	-0.356904
C40	C	0.996350	0.196609	0.143096
C41	C	0.527673	-0.254504	-0.299967
C42	C	1.027673	0.245496	0.200033
C43	C	0.613291	-0.254635	-0.299724
C44	C	1.113291	0.245365	0.200276
C45	C	0.644733	-0.303371	-0.356873
C46	C	1.144733	0.196629	0.143127
C47	C	0.613615	-0.369679	-0.335543
C48	C	1.113615	0.130321	0.164457
C49	C	0.527970	-0.369407	-0.335147
C50	C	1.027970	0.130593	0.164853
C51	C	0.527965	-0.286547	-0.435305
C52	C	1.027965	0.213453	0.064695
C53	C	0.613615	-0.285070	-0.434877
C54	C	1.113615	0.214930	0.065123
C55	C	0.728592	-0.303364	-0.356857
C56	C	1.228592	0.196636	0.143143
C57	C	0.412491	-0.303403	-0.356919
C58	C	0.912491	0.196597	0.143081
C59	C	1.070069	-0.466925	-0.356839
C60	C	1.570069	0.033075	0.143161
C61	C	1.070095	-0.536893	-0.356846
C62	C	1.570095	-0.036893	0.143154
C63	C	1.117492	-0.569749	-0.309538
C64	C	1.617492	-0.069749	0.190462
C65	C	1.117527	-0.635491	-0.309555
C66	C	1.617527	-0.135491	0.190445
C67	C	1.070151	-0.668375	-0.356871
C68	C	1.570151	-0.168375	0.143129
C69	C	1.022751	-0.635511	-0.404188
C70	C	1.522751	-0.135511	0.095812
C71	C	1.022722	-0.569770	-0.404175
C72	C	1.522722	-0.069770	0.095825
N73	N	1.005367	-0.771637	-0.362504
N74	N	1.505367	-0.271637	0.137496
N75	N	1.005396	-0.834089	-0.362512
N76	N	1.505396	-0.334089	0.137488
C77	C	1.070234	-0.866450	-0.356914
C78	C	1.570234	-0.366450	0.143086
N79	N	1.135044	-0.834001	-0.351293
N80	N	1.635044	-0.334001	0.148707
N81	N	1.135014	-0.771543	-0.351282
N82	N	1.635014	-0.271543	0.148718
C83	C	1.070177	-0.739661	-0.356891
C84	C	1.570177	-0.239661	0.143109
C85	C	1.117673	-0.970592	-0.309622
C86	C	1.617673	-0.470592	0.190378
C87	C	1.117709	-1.036335	-0.309644
C88	C	1.617709	-0.536335	0.190356
C89	C	1.022926	-1.036354	-0.404273
C90	C	1.522926	-0.536354	0.095727
C91	C	1.022897	-0.970612	-0.404255
C92	C	1.522897	-0.470612	0.095745
C93	C	1.070269	-0.937734	-0.356925
C94	C	1.570269	-0.437734	0.143075
C95	C	1.263328	-0.303399	-0.356919
C96	C	1.763328	0.196601	0.143081
C97	C	1.345642	-0.303410	-0.356935
C98	C	1.845642	0.196590	0.143065
C99	C	1.070209	-0.303357	-0.550042
C100	C	1.570209	0.196643	-0.050042
C101	C	1.070227	-0.303350	-0.632356
C102	C	1.570227	0.196650	-0.132356
C103	C	1.070283	-0.139183	-0.356937
C104	C	1.570283	0.360817	0.143063
C105	C	1.070334	-0.069215	-0.356961
C106	C	1.570334	0.430785	0.143039
C107	C	1.070270	-0.303232	-0.931447
C108	C	1.570270	0.196768	-0.431447
C109	C	1.012805	-0.351719	-0.900093
C110	C	1.512805	0.148281	-0.400093
C111	C	1.012960	-0.351944	-0.814475
C112	C	1.512960	0.148056	-0.314475
C113	C	1.070248	-0.303291	-0.783064
C114	C	1.570248	0.196709	-0.283064
C115	C	1.148274	-0.321303	-0.814168
C116	C	1.648274	0.178697	-0.314168
C117	C	1.147953	-0.321621	-0.899813
C118	C	1.647953	0.178379	-0.399813
C119	C	1.050388	-0.236626	-0.899877
C120	C	1.550388	0.263374	-0.399877
C121	C	1.048652	-0.237011	-0.814226
C122	C	1.548652	0.262989	-0.314226
C123	C	1.070240	-0.303323	-0.699205
C124	C	1.570240	0.196677	-0.199205
C125	C	1.070283	-0.303202	-1.015306
C126	C	1.570283	0.196798	-0.515306
C127	C	1.070166	-0.303344	-0.164469
C128	C	1.570166	0.196656	0.335531
C129	C	1.070291	-0.303173	-0.082155
C130	C	1.570291	0.196827	0.417845
H131	H	0.506124	-0.265512	-0.242211
H132	H	1.006124	0.234488	0.257789
C133	C	0.907073	-0.387865	-0.967924
C134	C	1.407073	0.112135	-0.467924
C135	C	0.934459	-0.336660	-0.927880
C136	C	1.434459	0.163340	-0.427880
H137	H	0.858703	-0.378568	-0.985079
H138	H	1.358703	0.121432	-0.485079
H139	H	0.938460	-0.395899	-1.008904
H140	H	1.438460	0.104101	-0.508904
H141	H	0.905473	-0.423854	-0.936940
H142	H	1.405473	0.076146	-0.436940
H143	H	0.936064	-0.300672	-0.958866
H144	H	1.436064	0.199328	-0.458866
H145	H	0.903064	-0.328618	-0.886894
H146	H	1.403064	0.171382	-0.386894
H147	H	0.507249	-0.407065	-0.374809
H148	H	1.007249	0.092935	0.125191
H149	H	0.633980	-0.407079	-0.375715
H150	H	1.133980	0.092921	0.124285
C151	C	1.241613	-0.401418	-0.900713
C152	C	1.741613	0.098582	-0.400713
C153	C	1.170704	-0.387352	-0.926784
C154	C	1.670704	0.112648	-0.426784
H155	H	1.255655	-0.442001	-0.917356
H156	H	1.755655	0.057999	-0.417356
H157	H	1.275672	-0.371171	-0.918858
H158	H	1.775672	0.128829	-0.418858
H159	H	1.241596	-0.400632	-0.848242
H160	H	1.741596	0.099368	-0.348242
H161	H	1.170722	-0.388135	-0.979255
H162	H	1.670722	0.111865	-0.479255
H163	H	1.136636	-0.417608	-0.908643
H164	H	1.636636	0.082392	-0.408643
H165	H	1.165420	-0.369476	-0.792722
H166	H	1.665420	0.130524	-0.292722
C167	C	1.243654	-0.248545	-0.867450
C168	C	1.743654	0.251455	-0.367450
C169	C	1.207717	-0.276026	-0.927822
C170	C	1.707717	0.223974	-0.427822
H171	H	1.280553	-0.220401	-0.884741
H172	H	1.780553	0.279599	-0.384741
H173	H	1.208779	-0.226203	-0.838371
H174	H	1.708779	0.273797	-0.338371
H175	H	1.266014	-0.280395	-0.838301
H176	H	1.766014	0.219605	-0.338301
H177	H	1.185353	-0.244176	-0.956968
H178	H	1.685353	0.255824	-0.456968
H179	H	1.242598	-0.298368	-0.956913
H180	H	1.742598	0.201632	-0.456913
C181	C	0.613510	-0.311704	-0.563755
C182	C	1.113510	0.188296	-0.063755
C183	C	0.642512	-0.329631	-0.495222
C184	C	1.142512	0.170369	0.004778
H185	H	0.631356	-0.339215	-0.601007
H186	H	1.131356	0.160785	-0.101007
H187	H	0.561122	-0.313801	-0.562051
H188	H	1.061122	0.186199	-0.062051
H189	H	0.628396	-0.269939	-0.574689
H190	H	1.128396	0.230061	-0.074689
H191	H	0.627622	-0.371394	-0.484285
H192	H	1.127622	0.128606	0.015715
H193	H	0.694912	-0.327540	-0.496924
H194	H	1.194912	0.172460	0.003076
C195	C	0.460036	-0.303635	-0.547420
C196	C	0.960036	0.196365	-0.047420
C197	C	0.500618	-0.334610	-0.492580
C198	C	1.000618	0.165390	0.007420
H199	H	0.443154	-0.333309	-0.582776
H200	H	0.943154	0.166691	-0.082776
H201	H	0.418857	-0.283162	-0.525580
H202	H	0.918857	0.216838	-0.025580
H203	H	0.490581	-0.273434	-0.571103
H204	H	0.990581	0.226566	-0.071103
H205	H	0.470071	-0.364808	-0.468893
H206	H	0.970071	0.135192	0.031107
H207	H	0.541803	-0.355093	-0.514421
H208	H	1.041803	0.144907	-0.014421
C209	C	1.030939	-0.419119	-0.709457
C210	C	1.530939	0.080881	-0.209457
C211	C	1.030714	-0.418584	-0.786810
C212	C	1.530714	0.081416	-0.286810
H213	H	1.041897	-0.460264	-0.692381
H214	H	1.541897	0.039736	-0.192381
H215	H	1.067327	-0.390689	-0.691833
H216	H	1.567327	0.109311	-0.191833
H217	H	0.983739	-0.406778	-0.691700
H218	H	1.483739	0.093222	-0.191700
H219	H	1.077916	-0.430921	-0.804567
H220	H	1.577916	0.069079	-0.304567
H221	H	0.994324	-0.447025	-0.804442
H222	H	1.494324	0.052975	-0.304442
H223	H	0.984355	-1.063127	-0.442802
H224	H	1.484355	-0.563127	0.057198
H225	H	1.192239	-0.287098	-0.793825
H226	H	1.692239	0.212902	-0.293825
C227	C	1.097408	-0.183551	-0.708138
C228	C	1.597408	0.316449	-0.208138
C229	C	1.101036	-0.185654	-0.785369
C230	C	1.601036	0.314346	-0.285369
H231	H	1.129757	-0.151850	-0.690325
H232	H	1.629757	0.348150	-0.190325
H233	H	1.048275	-0.174314	-0.693265
H234	H	1.548275	0.325686	-0.193265
H235	H	1.111743	-0.223063	-0.688448
H236	H	1.611743	0.276937	-0.188448
H237	H	1.086696	-0.146143	-0.805060
H238	H	1.586696	0.353857	-0.305060
H239	H	1.150180	-0.194887	-0.800249
H240	H	1.650180	0.305113	-0.300249
C241	C	0.558406	-0.181636	-0.473288
C242	C	1.058406	0.318364	0.026712
C243	C	0.498848	-0.222411	-0.461488
C244	C	0.998848	0.277589	0.038512
H245	H	0.540428	-0.142042	-0.489451
H246	H	1.040428	0.357958	0.010549
H247	H	0.585050	-0.176444	-0.428511
H248	H	1.085050	0.323556	0.071489
H249	H	0.590124	-0.198768	-0.509917
H250	H	1.090124	0.301232	-0.009917
H251	H	0.467132	-0.205281	-0.424856
H252	H	0.967132	0.294719	0.075144
H253	H	0.472191	-0.227602	-0.506271
H254	H	0.972191	0.272398	-0.006271
H255	H	0.955101	-0.340671	-0.793443
H256	H	1.455101	0.159329	-0.293443
H257	H	0.633745	-0.265769	-0.241630
H258	H	1.133745	0.234231	0.258370
H259	H	1.156067	-0.542982	-0.271002
H260	H	1.656067	-0.042982	0.228998
C261	C	0.977133	-0.210985	-1.006233
C262	C	1.477133	0.289015	-0.506233
C263	C	0.974917	-0.214466	-0.929015
C264	C	1.474917	0.285534	-0.429015
H265	H	0.930538	-0.197311	-1.024222
H266	H	1.430538	0.302689	-0.524222
H267	H	1.014273	-0.182027	-1.020908
H268	H	1.514273	0.317973	-0.520908
H269	H	0.988080	-0.251260	-1.025936
H270	H	1.488080	0.248740	-0.525936
H271	H	0.963976	-0.174190	-0.909312
H272	H	1.463976	0.325810	-0.409312
H273	H	0.937765	-0.243425	-0.914334
H274	H	1.437765	0.256575	-0.414334
H275	H	0.634331	-0.205465	-0.313095
H276	H	1.134331	0.294535	0.186905
H277	H	1.025801	-0.400788	-0.921614
H278	H	1.525801	0.099212	-0.421614
C279	C	1.211197	-0.628876	-0.216001
C280	C	1.711197	-0.128876	0.283999
C281	C	1.169624	-0.671617	-0.257546
C282	C	1.669624	-0.171617	0.242454
H283	H	1.243355	-0.651179	-0.183889
H284	H	1.743355	-0.151179	0.316111
H285	H	1.239501	-0.603204	-0.248286
H286	H	1.739501	-0.103204	0.251714
H287	H	1.178927	-0.603267	-0.187642
H288	H	1.678927	-0.103267	0.312358
H289	H	1.201894	-0.697223	-0.285909
H290	H	1.701894	-0.197223	0.214091
H291	H	1.141318	-0.697300	-0.225256
H292	H	1.641318	-0.197300	0.274744
C293	C	1.012343	-0.495798	-0.503766
C294	C	1.512343	0.004202	-0.003766
C295	C	0.970617	-0.533651	-0.456177
C296	C	1.470617	-0.033651	0.043823
H297	H	0.980173	-0.473503	-0.535872
H298	H	1.480173	0.026497	-0.035872
H299	H	1.040545	-0.466811	-0.475580
H300	H	1.540545	0.033189	0.024420
H301	H	1.044602	-0.521414	-0.532130
H302	H	1.544602	-0.021414	-0.032130
H303	H	0.938362	-0.508035	-0.427810
H304	H	1.438362	-0.008035	0.072190
H305	H	0.942403	-0.562642	-0.484366
H306	H	1.442403	-0.062642	0.015634
C307	C	1.217260	-0.896590	-0.299415
C308	C	1.717260	-0.396590	0.200585
C309	C	1.169749	-0.934448	-0.257605
C310	C	1.669749	-0.434448	0.242395
H311	H	1.249406	-0.874276	-0.267300
H312	H	1.749406	-0.374276	0.232700
H313	H	1.245577	-0.922199	-0.331710
H314	H	1.745577	-0.422199	0.168290
H315	H	1.189014	-0.867612	-0.327580
H316	H	1.689014	-0.367612	0.172420
H317	H	1.197994	-0.963429	-0.229443
H318	H	1.697994	-0.463429	0.270557
H319	H	1.141429	-0.908836	-0.225297
H320	H	1.641429	-0.408836	0.274703
H321	H	0.984178	-0.662290	-0.442715
H322	H	1.484178	-0.162290	0.057285
C323	C	1.211380	-1.029709	-0.216093
C324	C	1.711380	-0.529709	0.283907
C325	C	1.169812	-1.072453	-0.257638
C326	C	1.669812	-0.572453	0.242362
H327	H	1.243542	-1.052009	-0.183984
H328	H	1.743542	-0.552009	0.316016
H329	H	1.239679	-1.004033	-0.248378
H330	H	1.739679	-0.504033	0.251622
H331	H	1.179107	-1.004104	-0.187732
H332	H	1.679107	-0.504104	0.312268
H333	H	1.202084	-1.098056	-0.286003
H334	H	1.702084	-0.598056	0.213997
H335	H	1.141510	-1.098141	-0.225348
H336	H	1.641510	-0.598141	0.274652
H337	H	0.507959	-0.383693	-0.277832
H338	H	1.007959	0.116307	0.222168
H339	H	0.984298	-0.943858	-0.442774
H340	H	1.484298	-0.443858	0.057226
H341	H	0.507102	-0.205183	-0.313191
H342	H	1.007102	0.294817	0.186809
H343	H	1.092243	-0.200501	-0.920156
H344	H	1.592243	0.299499	-0.420156
C345	C	0.719818	-0.391831	-0.260529
C346	C	1.219818	0.108169	0.239471
C347	C	0.642537	-0.389289	-0.259006
C348	C	1.142537	0.110711	0.240994
H349	H	0.737677	-0.403928	-0.213276
H350	H	1.237677	0.096072	0.286724
H351	H	0.735256	-0.421642	-0.296362
H352	H	1.235256	0.078358	0.203638
H353	H	0.738933	-0.351643	-0.272970
H354	H	1.238933	0.148357	0.227030
H355	H	0.623422	-0.429479	-0.246571
H356	H	1.123422	0.070521	0.253429
H357	H	0.627092	-0.359476	-0.223162
H358	H	1.127092	0.140524	0.276838
H359	H	0.633959	-0.236275	-0.450961
H360	H	1.133959	0.263725	0.049039
H361	H	0.991232	-0.223428	-0.793895
H362	H	1.491232	0.276572	-0.293895
