data_functionalizedCrystal
_audit_creation_method	'MofGen! by Chris Wilmer'
_symmetry_space_group_name_H-M	'P1'
_symmetry_Int_Tables_number	1
_symmetry_cell_setting	triclinic
loop_
_symmetry_equiv_pos_as_xyz
  x,y,z
_cell_length_a	11.792254
_cell_length_b	10.489741
_cell_length_c	10.268362
_cell_angle_alpha	89.995004
_cell_angle_beta	89.995475
_cell_angle_gamma	84.368886
loop_
_atom_site_label
_atom_site_type_symbol
_atom_site_fract_x
_atom_site_fract_y
_atom_site_fract_z
O1	O	1.507372	0.174910	-0.108298
O2	O	2.007372	0.674910	0.391702
O3	O	1.177082	0.192911	-0.108301
O4	O	1.677082	0.692911	0.391699
O5	O	1.349742	-0.001713	-0.108292
O6	O	1.849742	0.498287	0.391708
O7	O	1.334711	0.369533	-0.108308
O8	O	1.834711	0.869533	0.391692
O9	O	1.349727	-0.001721	0.108309
O10	O	1.849727	0.498279	0.608309
O11	O	1.177066	0.192903	0.108299
O12	O	1.677066	0.692903	0.608299
O13	O	1.507357	0.174902	0.108302
O14	O	2.007357	0.674902	0.608302
Cu15	Cu	1.342210	0.183901	0.128078
Cu16	Cu	1.842210	0.683901	0.628078
Cu17	Cu	1.342228	0.183911	-0.128077
Cu18	Cu	1.842228	0.683911	0.371923
O19	O	1.334696	0.369525	0.108293
O20	O	1.834696	0.869525	0.608293
C21	C	1.134780	0.191773	-0.000001
C22	C	1.634780	0.691773	0.499999
C23	C	1.008758	0.188379	-0.000002
C24	C	1.508758	0.688379	0.499998
C25	C	0.906414	0.185621	-0.000008
C26	C	1.406414	0.685621	0.499992
C27	C	0.778018	0.182173	-0.000008
C28	C	1.278018	0.682173	0.499992
C29	C	1.348600	-0.049245	0.000008
C30	C	1.848600	0.450755	0.500008
C31	C	1.345203	-0.190863	0.000005
C32	C	1.845203	0.309137	0.500005
C33	C	1.235344	-0.258634	-0.000005
C34	C	1.735344	0.241366	0.499995
C35	C	1.287233	-0.350935	0.106791
C36	C	1.787233	0.149065	0.606791
C37	C	1.287274	-0.350901	-0.106761
C38	C	1.787274	0.149099	0.393239
C39	C	1.397137	-0.281298	0.106889
C40	C	1.897137	0.218702	0.606889
C41	C	1.397163	-0.281255	-0.106758
C42	C	1.897163	0.218745	0.393242
C43	C	1.449132	-0.373529	0.000064
C44	C	1.949132	0.126471	0.500064
C45	C	1.549658	0.176040	-0.000001
C46	C	2.049658	0.676040	0.499999
C47	C	1.675680	0.179434	-0.000008
C48	C	2.175680	0.679434	0.499992
C49	C	1.335839	0.417057	-0.000009
C50	C	1.835839	0.917057	0.499991
C51	C	1.339235	0.558675	-0.000016
C52	C	1.839235	1.058675	0.499984
N53	N	1.342206	0.183894	0.308244
N54	N	1.842206	0.683894	0.808244
N55	N	1.342241	0.183909	-0.308243
N56	N	1.842241	0.683909	0.191757
C57	C	1.342222	0.183908	0.573915
C58	C	1.842222	0.683908	1.073915
C59	C	1.342210	0.183904	0.426077
C60	C	1.842210	0.683904	0.926077
H61	H	1.145019	-0.208680	0.000102
H62	H	1.645019	0.291320	0.500102
H63	H	1.240782	-0.381706	-0.197057
H64	H	1.740782	0.118294	0.302943
H65	H	1.240743	-0.381794	0.197078
H66	H	1.740743	0.118206	0.697078
C67	C	1.571255	-0.440721	0.000143
C68	C	2.071255	0.059279	0.500143
H69	H	1.610084	-0.416900	0.076076
H70	H	2.110084	0.083100	0.576076
H71	H	1.610580	-0.415810	-0.075000
H72	H	2.110580	0.084190	0.425000
H73	H	1.568438	-0.530917	-0.000567
H74	H	2.068438	-0.030917	0.499433
H75	H	1.443574	-0.250625	0.197278
H76	H	1.943574	0.249375	0.697278
C77	C	1.459910	-0.239507	-0.228730
C78	C	1.959910	0.260493	0.271270
H79	H	1.420776	-0.263073	-0.304543
H80	H	1.920776	0.236927	0.195457
H81	H	1.535428	-0.280434	-0.229499
H82	H	2.035428	0.219566	0.270501
H83	H	1.462212	-0.149242	-0.227414
H84	H	1.962212	0.350758	0.272586
