data_functionalizedCrystal
_audit_creation_method	'MofGen! by Chris Wilmer'
_symmetry_space_group_name_H-M	'P1'
_symmetry_Int_Tables_number	1
_symmetry_cell_setting	triclinic
loop_
_symmetry_equiv_pos_as_xyz
  x,y,z
_cell_length_a	10.654550
_cell_length_b	11.026607
_cell_length_c	9.730223
_cell_angle_alpha	89.997552
_cell_angle_beta	89.999957
_cell_angle_gamma	96.535474
loop_
_atom_site_label
_atom_site_type_symbol
_atom_site_fract_x
_atom_site_fract_y
_atom_site_fract_z
O1	O	1.704907	0.170767	-0.114181
O2	O	1.342961	0.187037	-0.114206
O3	O	1.493936	0.001997	-0.114190
O4	O	1.553932	0.355808	-0.114196
O5	O	1.493923	0.001991	0.114390
O6	O	1.342947	0.187032	0.114374
O7	O	1.704894	0.170762	0.114399
Zn8	Zn	1.523918	0.178896	0.150679
Zn9	Zn	1.523936	0.178903	-0.150485
O10	O	1.553918	0.355803	0.114384
C11	C	1.295897	0.185840	0.000081
C12	C	1.155678	0.182266	0.000072
C13	C	1.099841	0.291214	0.000074
C14	C	0.968090	0.287849	0.000098
C15	C	0.948022	0.066576	0.000112
C16	C	1.079771	0.069943	0.000098
C17	C	1.482861	-0.043310	0.000097
C18	C	1.449867	-0.178302	0.000090
C19	C	1.540970	-0.251341	0.000094
C20	C	1.506871	-0.390862	0.000087
C21	C	1.751958	0.171959	0.000109
C22	C	1.892177	0.175533	0.000110
C23	C	1.564993	0.401109	0.000093
C24	C	1.597988	0.536101	0.000091
N25	N	1.523915	0.178891	0.356215
N26	N	1.523947	0.178899	-0.356022
C27	C	1.590804	0.096990	0.428148
C28	C	1.590817	0.096990	0.572031
C29	C	1.457050	0.260803	0.572036
C30	C	1.457031	0.260796	0.428155
H31	H	1.161641	0.382675	0.000063
O32	O	1.664158	-0.202781	-0.000144
C33	C	1.864011	-0.186894	-0.118518
C34	C	1.724519	-0.241942	-0.118432
H35	H	1.912861	-0.218555	-0.214128
H36	H	1.869639	-0.083027	-0.118606
H37	H	1.912825	-0.218418	-0.022812
H38	H	1.675618	-0.210513	-0.214121
H39	H	1.718982	-0.345803	-0.118272
H40	H	0.922635	0.376566	0.000102
O41	O	1.391888	0.340243	0.641863
C42	C	1.189207	0.409560	0.685857
C43	C	1.262843	0.319505	0.606719
H44	H	1.084865	0.392842	0.657450
H45	H	1.200604	0.395497	0.801064
H46	H	1.227666	0.507081	0.657570
H47	H	1.224433	0.221949	0.634890
H48	H	1.251448	0.333674	0.491531
H49	H	1.346625	-0.219062	0.000074
O50	O	0.874339	-0.042559	0.000364
C51	C	0.816939	-0.232747	0.118742
C52	C	0.900433	-0.109179	0.118652
H53	H	0.838026	-0.286655	0.214353
H54	H	0.713160	-0.216516	0.118835
H55	H	0.837884	-0.286586	0.023037
H56	H	0.879599	-0.055276	0.214341
H57	H	1.004186	-0.125496	0.118488
O58	O	1.392216	0.340532	0.358335
C59	C	1.366200	0.551275	0.314350
C60	C	1.439723	0.461120	0.393481
H61	H	1.404563	0.648790	0.342759
H62	H	1.377693	0.537304	0.199142
H63	H	1.261836	0.534462	0.342641
H64	H	1.544112	0.477879	0.365306
H65	H	1.428124	0.475113	0.508671
O66	O	1.133958	-0.035930	-0.000151
C67	C	1.157058	-0.224053	-0.118520
C68	C	1.095632	-0.104194	-0.118433
H69	H	1.126074	-0.279290	-0.214127
H70	H	1.264269	-0.202423	-0.118618
H71	H	1.126234	-0.279221	-0.022811
H72	H	1.126356	-0.048968	-0.214127
H73	H	0.988431	-0.125910	-0.118264
H74	H	1.403623	-0.431617	0.000071
O75	O	1.721229	-0.415494	0.000044
C76	C	1.938926	-0.455443	0.000151
C77	C	1.799412	-0.510423	0.000171
H78	H	2.002177	-0.532166	0.000282
H79	H	1.959019	-0.396759	-0.095529
H80	H	1.958864	-0.396686	0.095792
H81	H	1.779377	-0.569235	-0.095406
H82	H	1.779390	-0.569036	0.095913
H83	H	1.645263	0.030296	0.369577
O84	O	1.655907	0.017389	0.641693
C85	C	1.788525	-0.145137	0.626494
C86	C	1.714887	-0.055030	0.547433
H87	H	1.836208	-0.203729	0.550320
H88	H	1.863327	-0.092138	0.693806
H89	H	1.720469	-0.206313	0.693904
H90	H	1.782845	0.006168	0.479948
H91	H	1.640069	-0.108105	0.480208
