data_functionalizedCrystal
_audit_creation_method	'MofGen! by Chris Wilmer'
_symmetry_space_group_name_H-M	'P1'
_symmetry_Int_Tables_number	1
_symmetry_cell_setting	triclinic
loop_
_symmetry_equiv_pos_as_xyz
  x,y,z
_cell_length_a	14.519709
_cell_length_b	10.654550
_cell_length_c	9.730223
_cell_angle_alpha	89.995747
_cell_angle_beta	90.002325
_cell_angle_gamma	84.082538
loop_
_atom_site_label
_atom_site_type_symbol
_atom_site_fract_x
_atom_site_fract_y
_atom_site_fract_z
O1	O	1.224719	0.164623	-0.114110
O2	O	0.956343	0.184009	-0.114152
O3	O	1.096702	-0.008483	-0.114122
O4	O	1.084361	0.357114	-0.114141
O5	O	1.096693	-0.008488	0.114458
O6	O	0.956334	0.184004	0.114428
O7	O	1.224710	0.164617	0.114470
Zn8	Zn	1.090521	0.174310	0.150741
Zn9	Zn	1.090533	0.174317	-0.150423
O10	O	1.084352	0.357109	0.114439
C11	C	1.095791	-0.055275	0.000167
C12	C	1.093080	-0.194692	0.000165
C13	C	0.921974	0.183103	0.000132
C14	C	0.819579	0.180396	0.000116
C15	C	1.175721	-0.274972	0.000177
C16	C	1.173168	-0.405968	0.000160
C17	C	1.005326	-0.376391	0.000124
C18	C	1.007880	-0.245397	0.000131
C19	C	0.444631	0.170428	0.000179
C20	C	0.548954	0.173196	0.000162
C21	C	0.632102	0.175412	0.000147
C22	C	0.736431	0.178180	0.000131
C23	C	1.259079	0.165524	0.000182
C24	C	1.361475	0.168231	0.000189
C25	C	1.085262	0.403901	0.000147
C26	C	1.087973	0.543318	0.000140
N27	N	1.090519	0.174304	0.356277
N28	N	1.090541	0.174312	-0.355960
C29	C	1.152691	0.089105	0.428216
C30	C	1.152701	0.089105	0.572099
C31	C	1.028363	0.259516	0.572091
C32	C	1.028350	0.259508	0.428210
H33	H	1.240463	-0.471328	0.000167
H34	H	1.203326	0.019727	0.630669
H35	H	1.245096	-0.233692	0.000202
H36	H	0.935959	-0.417692	0.000099
O37	O	0.918742	-0.158794	0.000133
H38	H	0.859068	-0.216057	0.000134
H39	H	1.203313	0.019725	0.369652
H40	H	0.977747	0.328889	0.630673
H41	H	0.977717	0.328889	0.369633
