data_functionalizedCrystal
_audit_creation_method	'MofGen! by Chris Wilmer'
_symmetry_space_group_name_H-M	'P1'
_symmetry_Int_Tables_number	1
_symmetry_cell_setting	triclinic
loop_
_symmetry_equiv_pos_as_xyz
  x,y,z
_cell_length_a	14.044191
_cell_length_b	10.654550
_cell_length_c	9.130313
_cell_angle_alpha	89.999890
_cell_angle_beta	90.001968
_cell_angle_gamma	88.838340
loop_
_atom_site_label
_atom_site_type_symbol
_atom_site_fract_x
_atom_site_fract_y
_atom_site_fract_z
O1	O	1.259695	0.303022	-0.121721
O2	O	1.759695	0.803022	0.378279
O3	O	0.983654	0.292080	-0.121740
O4	O	1.483654	0.792080	0.378260
O5	O	1.128021	0.115450	-0.121725
O6	O	1.628021	0.615450	0.378275
O7	O	1.115328	0.479652	-0.121736
O8	O	1.615328	0.979652	0.378264
O9	O	1.128019	0.115455	0.121874
O10	O	1.628019	0.615455	0.621874
O11	O	0.983652	0.292085	0.121859
O12	O	1.483652	0.792085	0.621859
O13	O	1.259693	0.303027	0.121878
O14	O	1.759693	0.803027	0.621878
Cu15	Cu	1.121672	0.297556	0.144111
Cu16	Cu	1.621672	0.797556	0.644111
Cu17	Cu	1.121674	0.297550	-0.143973
Cu18	Cu	1.621674	0.797550	0.356027
O19	O	1.115326	0.479657	0.121862
O20	O	1.615326	0.979657	0.621862
C21	C	1.127088	0.068560	0.000073
C22	C	1.627088	0.568560	0.500073
C23	C	1.124300	-0.071163	0.000068
C24	C	1.624300	0.428837	0.500068
C25	C	0.948307	0.287295	0.000057
C26	C	1.448307	0.787295	0.500057
C27	C	0.842987	0.273016	0.000050
C28	C	1.342987	0.773016	0.500050
C29	C	1.209301	-0.142104	0.000078
C30	C	1.709301	0.357896	0.500078
C31	C	1.206675	-0.273389	0.000067
C32	C	1.706675	0.226611	0.500067
C33	C	1.034039	-0.262779	0.000043
C34	C	1.534039	0.237221	0.500043
C35	C	1.036666	-0.131497	0.000043
C36	C	1.536666	0.368503	0.500043
C37	C	1.308971	-0.148231	0.000098
C38	C	1.808971	0.351769	0.500098
C39	C	1.306345	-0.279515	0.000088
C40	C	1.806345	0.220485	0.500088
C41	C	0.593195	0.348181	0.000062
C42	C	1.093195	0.848181	0.500062
C43	C	0.650158	0.246931	0.000063
C44	C	1.150158	0.746931	0.500063
C45	C	0.757458	0.261448	0.000056
C46	C	1.257458	0.761448	0.500056
C47	C	0.485885	0.333666	0.000069
C48	C	0.985885	0.833666	0.500069
C49	C	1.295040	0.307812	0.000077
C50	C	1.795040	0.807812	0.500077
C51	C	1.400360	0.322091	0.000075
C52	C	1.900360	0.822091	0.500075
C53	C	1.116259	0.526546	0.000062
C54	C	1.616259	1.026546	0.500062
C55	C	1.119047	0.666270	0.000057
C56	C	1.619047	1.166270	0.500057
N57	N	1.121678	0.297560	0.346733
N58	N	1.621678	0.797560	0.846733
N59	N	1.121676	0.297537	-0.346596
N60	N	1.621676	0.797537	0.153404
C61	C	1.185620	0.219379	0.423392
C62	C	1.685620	0.719379	0.923392
C63	C	1.185618	0.219364	0.576729
C64	C	1.685618	0.719364	1.076729
C65	C	1.057727	0.375722	0.576735
C66	C	1.557727	0.875722	1.076735
C67	C	1.057726	0.375729	0.423401
C68	C	1.557726	0.875729	0.923401
C69	C	1.259460	0.129111	0.423390
C70	C	1.759460	0.629111	0.923390
C71	C	1.259457	0.129096	0.576727
C72	C	1.759457	0.629096	1.076727
H73	H	0.967450	-0.073741	0.000014
H74	H	1.467450	0.426259	0.500014
H75	H	0.618341	0.149345	-0.000037
H76	H	1.118341	0.649345	0.499963
H77	H	1.336468	-0.322133	-0.105089
H78	H	1.836468	0.177867	0.394911
H79	H	0.625010	0.445759	0.000055
H80	H	1.125010	0.945759	0.500055
F81	F	1.355427	-0.329168	0.133337
F82	F	1.855427	0.170832	0.633337
H83	H	1.005651	0.439379	0.360987
H84	H	1.505651	0.939379	0.860987
F85	F	0.989668	0.458909	0.658341
F86	F	1.489668	0.958909	1.158341
H87	H	1.243264	0.030951	0.381772
H88	H	1.743264	0.530951	0.881772
H89	H	1.328330	0.166623	0.375835
H90	H	1.828330	0.666623	0.875835
H91	H	1.236411	0.035557	0.624275
H92	H	1.736411	0.535557	1.124275
H93	H	1.332351	0.157942	0.618348
H94	H	1.832351	0.657942	1.118348
H95	H	1.347956	-0.114956	-0.101838
H96	H	1.847956	0.385044	0.398162
F97	F	0.940779	-0.327003	0.000012
F98	F	1.440779	0.172997	0.500012
H99	H	1.340709	-0.109411	0.105282
H100	H	1.840709	0.390589	0.605282
