data_functionalizedCrystal
_audit_creation_method	'MofGen! by Chris Wilmer'
_symmetry_space_group_name_H-M	'P1'
_symmetry_Int_Tables_number	1
_symmetry_cell_setting	triclinic
loop_
_symmetry_equiv_pos_as_xyz
  x,y,z
_cell_length_a	12.759401
_cell_length_b	13.897448
_cell_length_c	12.759393
_cell_angle_alpha	90.030963
_cell_angle_beta	89.982549
_cell_angle_gamma	89.981387
loop_
_atom_site_label
_atom_site_type_symbol
_atom_site_fract_x
_atom_site_fract_y
_atom_site_fract_z
Zn1	Zn	1.606208	0.383981	-0.593989
Zn2	Zn	1.606091	0.545311	-0.418312
Zn3	Zn	1.430514	0.384029	-0.418328
Zn4	Zn	1.430484	0.545233	-0.593953
O5	O	1.518324	0.464638	-0.506146
O6	O	1.753214	0.405394	-0.570693
O7	O	1.582764	0.523969	-0.271293
O8	O	1.453881	0.249041	-0.441652
O9	O	1.753128	0.523922	-0.441624
O10	O	1.582963	0.249005	-0.570709
O11	O	1.453768	0.405476	-0.271305
O12	O	1.283489	0.405400	-0.441617
O13	O	1.453831	0.523790	-0.740979
O14	O	1.283467	0.523836	-0.570648
O15	O	1.582935	0.405318	-0.741006
O16	O	1.582735	0.680282	-0.441589
O17	O	1.453717	0.680225	-0.570632
C18	C	1.245357	0.464616	-0.506131
C19	C	1.128580	0.464629	-0.506150
C20	C	1.073756	0.403028	-0.573460
C21	C	0.964032	0.403046	-0.573467
C22	C	0.963966	0.526276	-0.438849
C23	C	1.073688	0.526252	-0.438838
C24	C	1.073793	0.331885	-0.651184
C25	C	0.964069	0.331904	-0.651191
C26	C	1.518239	0.715253	-0.506128
C27	C	1.518298	0.822466	-0.506155
C28	C	1.518401	1.018761	-0.506230
C29	C	1.518341	0.909529	-0.506192
C30	C	1.792357	0.464662	-0.506161
C31	C	1.909134	0.464672	-0.506167
C32	C	1.518392	0.464540	-0.780179
C33	C	1.518422	0.464498	-0.896956
C34	C	1.518430	1.213045	-0.506199
C35	C	1.518452	1.105831	-0.506253
C36	C	1.451282	0.402787	-0.951830
C37	C	1.451314	0.402759	-1.061554
C38	C	1.585634	0.526154	-1.061520
C39	C	1.585596	0.526187	-0.951798
C40	C	1.373736	0.331543	-0.951851
C41	C	1.373768	0.331514	-1.061575
C42	C	1.518317	0.464666	-0.233178
C43	C	1.518491	0.464437	-0.116402
H44	H	0.919259	0.576447	-0.384047
H45	H	0.930035	0.260908	-0.622190
H46	H	1.103567	0.257148	-0.629529
H47	H	1.640326	0.576378	-1.106186
H48	H	1.292345	0.351546	-0.922074
H49	H	1.395592	0.256797	-1.091371
H50	H	0.934321	0.352005	-0.732527
Cl51	Cl	1.418773	0.222005	-0.899322
Cl52	Cl	1.669991	0.603781	-0.882816
Cl53	Cl	1.142607	0.603668	-0.354185
H54	H	1.107855	0.358723	-0.728422
Cl55	Cl	1.254435	0.372815	-1.114118
