data_functionalizedCrystal
_audit_creation_method	'MofGen! by Chris Wilmer'
_symmetry_space_group_name_H-M	'P1'
_symmetry_Int_Tables_number	1
_symmetry_cell_setting	triclinic
loop_
_symmetry_equiv_pos_as_xyz
  x,y,z
_cell_length_a	14.044220
_cell_length_b	16.974800
_cell_length_c	13.101032
_cell_angle_alpha	90.290548
_cell_angle_beta	93.665102
_cell_angle_gamma	88.279480
loop_
_atom_site_label
_atom_site_type_symbol
_atom_site_fract_x
_atom_site_fract_y
_atom_site_fract_z
O1	O	0.120886	1.057546	0.002518
O2	O	0.620886	1.557546	0.502518
O3	O	0.135124	0.829311	-0.016419
O4	O	0.635124	1.329311	0.483581
O5	O	-0.009991	0.940002	-0.007225
O6	O	0.490009	1.440002	0.492775
O7	O	0.266002	0.946855	-0.006677
O8	O	0.766002	1.446855	0.493323
O9	O	0.000432	0.932051	0.162545
O10	O	0.500432	1.432051	0.662545
O11	O	0.145547	0.821359	0.153351
O12	O	0.645547	1.321359	0.653351
O13	O	0.131309	1.049594	0.172288
O14	O	0.631309	1.549594	0.672288
Zn15	Zn	0.140083	0.934214	0.189774
Zn16	Zn	0.640083	1.434214	0.689774
Zn17	Zn	0.126350	0.944691	-0.033905
Zn18	Zn	0.626350	1.444691	0.466095
O19	O	0.276425	0.938903	0.163093
O20	O	0.776425	1.438903	0.663093
C21	C	0.139603	0.795950	0.066028
C22	C	0.639603	1.295950	0.566028
C23	C	0.137407	0.708389	0.058763
C24	C	0.637407	1.208389	0.558763
C25	C	0.142055	0.662923	0.147894
C26	C	0.642055	1.162923	0.647894
C27	C	0.139977	0.580651	0.141071
C28	C	0.639977	1.080651	0.641071
C29	C	0.133257	0.543847	0.045116
C30	C	0.633257	1.043847	0.545116
C31	C	0.128607	0.589319	-0.044022
C32	C	0.628607	1.089319	0.455978
C33	C	0.130678	0.671590	-0.037198
C34	C	0.630678	1.171590	0.462802
C35	C	0.126447	0.298259	0.014783
C36	C	0.626447	0.798259	0.514783
C37	C	0.124378	0.215983	0.007966
C38	C	0.624378	0.715983	0.507966
C39	C	0.135747	0.207320	0.193059
C40	C	0.635747	0.707320	0.693059
C41	C	0.137823	0.289593	0.199875
C42	C	0.637823	0.789593	0.699875
C43	C	0.133167	0.335058	0.110737
C44	C	0.633167	0.835058	0.610737
N45	N	0.131136	0.459752	0.038139
N46	N	0.631136	0.959752	0.538139
N47	N	0.135282	0.419152	0.117715
N48	N	0.635282	0.919152	0.617715
C49	C	-0.040105	0.933027	0.077412
C50	C	0.459895	1.433027	0.577412
C51	C	-0.145364	0.924081	0.076671
C52	C	0.354636	1.424081	0.576671
C53	C	-0.338088	0.907727	0.075299
C54	C	0.161912	1.407727	0.575299
C55	C	-0.395485	0.971176	0.080560
C56	C	0.104515	1.471176	0.580560
C57	C	-0.502723	0.962076	0.079797
C58	C	-0.002723	1.462076	0.579797
C59	C	-0.230840	0.916825	0.076062
C60	C	0.269160	1.416825	0.576062
C61	C	0.306539	0.945878	0.078454
C62	C	0.806539	1.445878	0.578454
C63	C	0.411798	0.954825	0.079189
C64	C	0.911798	1.454825	0.579189
C65	C	0.126831	1.082956	0.089839
C66	C	0.626831	1.582956	0.589839
C67	C	0.129026	1.170517	0.097097
C68	C	0.629026	1.670517	0.597097
N69	N	0.149455	0.927070	0.342429
N70	N	0.649455	1.427070	0.842429
C71	C	0.104229	0.961554	0.605203
C72	C	0.604229	1.461554	1.105203
C73	C	0.162206	0.917356	0.550659
C74	C	0.662206	1.417356	1.050659
C75	C	0.155109	0.922762	0.434789
C76	C	0.655109	1.422762	0.934789
C77	C	0.111324	0.956149	0.721083
C78	C	0.611324	1.456149	1.221083
N79	N	0.116983	0.951838	0.813439
N80	N	0.616983	1.451838	1.313439
H81	H	0.143745	0.543637	0.213651
H82	H	0.643745	1.043637	0.713651
H83	H	0.126895	0.708608	-0.109778
H84	H	0.626895	1.208608	0.390222
F85	F	-0.379126	0.827798	0.068662
F86	F	0.120874	1.327798	0.568662
F87	F	-0.354447	1.051110	0.087200
F88	F	0.145553	1.551110	0.587200
F89	F	0.117229	0.176815	-0.094168
F90	F	0.617229	0.676815	0.405832
F91	F	0.144980	0.328756	0.302003
F92	F	0.644980	0.828756	0.802003
H93	H	0.122652	0.335268	-0.057799
H94	H	0.622652	0.835268	0.442201
F95	F	0.234052	0.862592	0.603365
F96	F	0.734052	1.362592	1.103365
H97	H	0.139536	0.170294	0.265630
H98	H	0.639536	0.670294	0.765630
F99	F	0.149212	0.702086	0.250023
F100	F	0.649212	1.202086	0.750023
F101	F	0.121426	0.550148	-0.146145
F102	F	0.621426	1.050148	0.353855
H103	H	0.049267	1.003451	0.564883
H104	H	0.549267	1.503451	1.064883
