data_functionalizedCrystal
_audit_creation_method	'MofGen! by Chris Wilmer'
_symmetry_space_group_name_H-M	'P1'
_symmetry_Int_Tables_number	1
_symmetry_cell_setting	triclinic
loop_
_symmetry_equiv_pos_as_xyz
  x,y,z
_cell_length_a	6.394989
_cell_length_b	16.176319
_cell_length_c	17.699077
_cell_angle_alpha	90.001789
_cell_angle_beta	84.889144
_cell_angle_gamma	90.000493
loop_
_atom_site_label
_atom_site_type_symbol
_atom_site_fract_x
_atom_site_fract_y
_atom_site_fract_z
O1	O	-0.264062	0.068730	-1.006767
O2	O	-0.298439	0.068734	-0.786739
O3	O	0.022830	0.068733	-0.899876
O4	O	-0.585330	0.068731	-0.893630
O5	O	0.022829	-0.068761	-0.899878
O6	O	-0.298439	-0.068760	-0.786741
O7	O	-0.264062	-0.068763	-1.006769
Cu8	Cu	-0.281251	-0.081315	-0.896756
Cu9	Cu	-0.281250	0.081286	-0.896753
O10	O	-0.585331	-0.068762	-0.893632
C11	C	-0.297209	-0.000012	-0.758531
C12	C	-0.293520	-0.000011	-0.674475
N13	N	-0.281250	-0.195681	-0.896763
C14	C	-0.265292	-0.000015	-1.034978
C15	C	-0.268981	-0.000011	-1.119034
C16	C	0.100645	-0.000011	-0.898642
C17	C	0.336860	-0.000010	-0.894868
N18	N	-0.281234	0.195651	-0.896752
C19	C	-0.291782	-0.074959	-0.634991
C20	C	-0.288283	-0.074960	-0.556012
C21	C	-0.286536	-0.000012	-0.516519
C22	C	-0.288268	0.074942	-0.556009
C23	C	-0.291752	0.074942	-0.634986
C24	C	-0.274212	0.074944	-0.237502
C25	C	-0.270734	0.074938	-0.158519
C26	C	-0.270742	-0.074959	-0.158528
C27	C	-0.274227	-0.074959	-0.237506
C28	C	-0.275947	-0.000005	-0.276989
C29	C	-0.279738	-0.000005	-0.362626
C30	C	-0.282760	-0.000011	-0.430883
C31	C	-0.408039	0.761046	-0.943771
C32	C	-0.408030	0.674499	-0.943773
C33	C	-0.281243	0.631227	-0.896762
C34	C	-0.154440	0.674506	-0.849751
C35	C	-0.154439	0.761052	-0.849754
C36	C	-0.154440	0.325478	-0.849739
C37	C	-0.154455	0.238927	-0.849738
C38	C	-0.408031	0.238925	-0.943759
C39	C	-0.408030	0.325470	-0.943761
C40	C	-0.281220	0.368743	-0.896754
C41	C	-0.281227	0.462587	-0.896754
C42	C	-0.281245	0.537384	-0.896757
H43	H	-0.286833	-0.135991	-0.523869
H44	H	-0.511281	0.203683	-0.982036
H45	H	-0.511270	0.639269	-0.982054
C46	C	-0.041823	0.541843	-0.807997
C47	C	-0.015072	0.626946	-0.798072
H48	H	0.044208	0.512485	-0.776086
H49	H	-0.003073	0.527664	-0.859420
H50	H	-0.184746	0.527662	-0.795204
H51	H	0.127849	0.641128	-0.810870
H52	H	-0.053809	0.641131	-0.746638
C53	C	-0.265399	0.141494	-0.037446
C54	C	-0.268803	0.157327	-0.115105
H55	H	-0.264222	0.192355	-0.010645
H56	H	-0.143092	0.110699	-0.029121
H57	H	-0.386598	0.110701	-0.019902
H58	H	-0.147596	0.188116	-0.132650
H59	H	-0.391122	0.188135	-0.123434
H60	H	-0.293172	0.135973	-0.667133
C61	C	-0.658682	0.752342	-1.036714
C62	C	-0.547407	0.808606	-0.995450
H63	H	-0.744710	0.781704	-1.068623
H64	H	-0.744226	0.718591	-1.002647
H65	H	-0.562565	0.718583	-1.066867
H66	H	-0.643524	0.842362	-0.965293
H67	H	-0.461856	0.842372	-1.029521
H68	H	-0.051182	0.360700	-0.811463
C69	C	-0.288616	0.223114	-0.563938
C70	C	-0.286358	0.157329	-0.512600
H71	H	-0.287433	0.273976	-0.537139
H72	H	-0.411713	0.219993	-0.590130
H73	H	-0.168208	0.219993	-0.599355
H74	H	-0.406775	0.160447	-0.477186
H75	H	-0.163248	0.160451	-0.486395
C76	C	-0.658670	0.316774	-1.036707
C77	C	-0.547391	0.373034	-0.995441
H78	H	-0.744690	0.346139	-1.068617
H79	H	-0.744222	0.283024	-1.002641
H80	H	-0.562556	0.283013	-1.066859
H81	H	-0.643505	0.406791	-0.965284
H82	H	-0.461831	0.406798	-1.029511
C83	C	0.096201	0.752366	-0.756809
C84	C	-0.015078	0.808621	-0.798077
H85	H	0.182232	0.781735	-0.724904
H86	H	0.181743	0.718610	-0.790874
H87	H	0.000087	0.718611	-0.726652
H88	H	0.081036	0.842373	-0.828239
H89	H	-0.100626	0.842392	-0.764008
H90	H	-0.275660	-0.135989	-0.269657
H91	H	-0.293222	-0.135991	-0.667140
C92	C	0.195583	0.212285	-0.816931
C93	C	-0.015067	0.191357	-0.798066
H94	H	0.281625	0.182913	-0.785034
H95	H	0.213697	0.270014	-0.810187
H96	H	0.234296	0.198109	-0.868364
H97	H	-0.053785	0.205539	-0.746634
H98	H	-0.033191	0.133616	-0.804803
C99	C	-0.090201	-0.202739	-0.141029
C100	C	-0.268825	-0.157354	-0.115130
H101	H	-0.089033	-0.253606	-0.114240
H102	H	0.032104	-0.171947	-0.132693
H103	H	-0.092556	-0.213454	-0.193718
H104	H	-0.266462	-0.146633	-0.062442
H105	H	-0.391161	-0.188152	-0.123459
C106	C	-0.273857	0.223113	-0.229548
C107	C	-0.276114	0.157332	-0.280895
H108	H	-0.275041	0.273977	-0.256341
H109	H	-0.150759	0.219991	-0.203357
H110	H	-0.394264	0.219988	-0.194132
H111	H	-0.155697	0.160453	-0.316308
H112	H	-0.399224	0.160456	-0.307099
