data_functionalizedCrystal
_audit_creation_method	'MofGen! by Chris Wilmer'
_symmetry_space_group_name_H-M	'P1'
_symmetry_Int_Tables_number	1
_symmetry_cell_setting	triclinic
loop_
_symmetry_equiv_pos_as_xyz
  x,y,z
_cell_length_a	10.685980
_cell_length_b	16.120444
_cell_length_c	16.120256
_cell_angle_alpha	95.616860
_cell_angle_beta	88.280062
_cell_angle_gamma	97.501748
loop_
_atom_site_label
_atom_site_type_symbol
_atom_site_fract_x
_atom_site_fract_y
_atom_site_fract_z
Zn1	Zn	1.864187	-0.266960	-0.579451
Zn2	Zn	1.864024	-0.399654	-0.446755
Zn3	Zn	1.664433	-0.269515	-0.430054
Zn4	Zn	1.641835	-0.417403	-0.575753
O5	O	1.758620	-0.338383	-0.508003
O6	O	2.040750	-0.276065	-0.570386
O7	O	1.846938	-0.376032	-0.328030
O8	O	1.700456	-0.151751	-0.444430
O9	O	2.040630	-0.373555	-0.472895
O10	O	1.847214	-0.149874	-0.554192
O11	O	1.700299	-0.280419	-0.315760
O12	O	1.484851	-0.297630	-0.440844
O13	O	1.661941	-0.403806	-0.692753
O14	O	1.468248	-0.406283	-0.547888
O15	O	1.825302	-0.293276	-0.695470
O16	O	1.825025	-0.519434	-0.469308
O17	O	1.661784	-0.532474	-0.564082
C18	C	1.430763	-0.354160	-0.492153
C19	C	1.290502	-0.360931	-0.485392
C20	C	1.740967	-0.556400	-0.518126
C21	C	1.733529	-0.649664	-0.522490
C22	C	1.797503	-0.855491	-0.485559
C23	C	1.719970	-0.820413	-0.530468
C24	C	1.727516	-0.725400	-0.526028
C25	C	1.789958	-0.950513	-0.489998
C26	C	2.087757	-0.322545	-0.523916
C27	C	2.228015	-0.315796	-0.530697
C28	C	1.741119	-0.350236	-0.725166
C29	C	1.733661	-0.355287	-0.817707
C30	C	1.776374	-0.119514	-0.497861
C31	C	1.783940	-0.026246	-0.493538
C32	C	1.797512	-0.312022	-1.029715
C33	C	1.720005	-0.364475	-0.987133
C34	C	1.727605	-0.359361	-0.892856
C35	C	1.789913	-0.317135	-1.124001
C36	C	1.776130	-0.326513	-0.291686
C37	C	1.783852	-0.321214	-0.199146
H38	H	1.647924	-0.861739	-0.572250
C39	C	1.622657	-0.430335	-1.033527
H40	H	1.575023	-0.462571	-0.994410
H41	H	1.665286	-0.466375	-1.071492
H42	H	1.567591	-0.402684	-1.063292
C43	C	1.217815	-0.420139	-0.426003
H44	H	1.129915	-0.417084	-0.429099
H45	H	1.244843	-0.403697	-0.370533
H46	H	1.233829	-0.476172	-0.441752
C47	C	1.894861	-0.246172	-0.983322
H48	H	1.942490	-0.213928	-1.022434
H49	H	1.949912	-0.273825	-0.953554
H50	H	1.852227	-0.210127	-0.945358
C51	C	1.300690	-0.256593	-0.590088
H52	H	1.242684	-0.229181	-0.617599
H53	H	1.346604	-0.288269	-0.630255
H54	H	1.357613	-0.215789	-0.559041
C55	C	1.894813	-0.799670	-0.429110
H56	H	1.887168	-0.742210	-0.433489
H57	H	1.977495	-0.810499	-0.446081
H58	H	1.879788	-0.811849	-0.372925
