data_functionalizedCrystal
_audit_creation_method	'MofGen! by Chris Wilmer'
_symmetry_space_group_name_H-M	'P1'
_symmetry_Int_Tables_number	1
_symmetry_cell_setting	triclinic
loop_
_symmetry_equiv_pos_as_xyz
  x,y,z
_cell_length_a	10.685976
_cell_length_b	25.639240
_cell_length_c	10.685314
_cell_angle_alpha	94.322321
_cell_angle_beta	99.040959
_cell_angle_gamma	85.670377
loop_
_atom_site_label
_atom_site_type_symbol
_atom_site_fract_x
_atom_site_fract_y
_atom_site_fract_z
Zn1	Zn	1.885284	-0.285978	-0.568387
Zn2	Zn	1.901370	-0.367196	-0.356113
Zn3	Zn	1.689304	-0.273568	-0.372479
Zn4	Zn	1.672956	-0.367163	-0.584610
O5	O	1.787229	-0.323476	-0.470397
O6	O	2.065029	-0.301959	-0.526590
O7	O	1.886813	-0.349596	-0.180669
O8	O	1.715411	-0.202054	-0.398526
O9	O	2.076847	-0.361630	-0.370633
O10	O	1.859397	-0.211172	-0.542459
O11	O	1.731009	-0.280808	-0.192693
O12	O	1.509525	-0.280776	-0.414257
O13	O	1.687548	-0.361573	-0.760073
O14	O	1.497514	-0.349540	-0.570109
O15	O	1.843545	-0.301927	-0.748154
O16	O	1.870961	-0.440351	-0.386364
O17	O	1.703145	-0.440327	-0.554240
C18	C	1.457467	-0.313808	-0.495720
C19	C	1.316391	-0.309685	-0.506584
C20	C	1.787057	-0.459310	-0.470312
C21	C	1.787096	-0.517426	-0.470309
C22	C	1.862231	-0.882510	-0.545487
C23	C	1.862267	-0.937116	-0.545509
O24	O	1.925944	-0.969358	-0.609343
N25	N	1.787395	-0.959724	-0.470507
C26	C	1.712474	-0.927722	-0.395485
O27	O	1.648792	-0.951965	-0.331693
C28	C	1.712432	-0.873117	-0.395470
C29	C	1.787318	-0.850513	-0.470468
C30	C	1.937110	-0.859906	-0.620480
C31	C	1.937076	-0.805303	-0.620455
C32	C	1.862163	-0.773305	-0.545437
C33	C	1.787284	-0.795910	-0.470443
C34	C	1.637505	-0.841116	-0.320457
C35	C	1.637469	-0.786507	-0.320449
C36	C	1.712355	-0.763903	-0.395447
C37	C	1.712338	-0.709310	-0.395400
N38	N	1.787209	-0.686703	-0.470403
C39	C	1.862122	-0.718700	-0.545421
C40	C	1.712565	-1.042397	-0.395525
C41	C	1.712612	-1.097001	-0.395532
C42	C	1.862404	-1.106391	-0.545558
C43	C	1.862362	-1.051786	-0.545543
C44	C	1.787436	-1.019789	-0.470528
C45	C	1.862046	-0.604031	-0.545362
C46	C	1.862009	-0.549423	-0.545327
C47	C	1.712213	-0.540037	-0.395306
C48	C	1.712254	-0.594640	-0.395336
C49	C	1.787174	-0.626636	-0.470374
O50	O	1.648689	-0.677035	-0.331604
O51	O	1.925780	-0.694450	-0.609216
C52	C	2.118278	-0.333182	-0.444976
C53	C	2.259352	-0.337319	-0.434143
C54	C	1.761929	-0.333131	-0.801455
C55	C	1.751147	-0.337245	-0.942532
C56	C	1.787433	-0.187113	-0.470508
C57	C	1.787521	-0.129003	-0.470556
C58	C	1.812503	-0.313823	-0.140622
C59	C	1.823531	-0.309569	0.000473
H60	H	1.318452	-0.364136	-0.363812
H61	H	1.651647	-1.115400	-0.334446
H62	H	1.998051	-0.786902	-0.681528
N63	N	1.636015	-1.009716	-0.318899
N64	N	1.518262	-1.012674	-0.336221
H65	H	1.464194	-0.989597	-0.282107
H66	H	1.893742	-0.282719	-0.940388
N67	N	1.938522	-0.526343	-0.621939
N68	N	2.005400	-0.554923	-0.688913
H69	H	2.059436	-0.538625	-0.743020
N70	N	1.663042	-0.370914	-1.016709
N71	N	1.576607	-0.352279	-1.096930
H72	H	1.514379	-0.376057	-1.149327
H73	H	1.257296	-0.282874	-0.576922
H74	H	1.998112	-0.885953	-0.681576
N75	N	1.938577	-0.636701	-0.622021
N76	N	2.005423	-0.616502	-0.688967
H77	H	2.059480	-0.639575	-0.743103
N78	N	1.938866	-1.028708	-0.622155
N79	N	2.005750	-1.057290	-0.689120
H80	H	2.059784	-1.040993	-0.743232
H81	H	1.923400	-1.132454	-0.606645
N82	N	1.560985	-0.864188	-0.243856
N83	N	1.494091	-0.835602	-0.176909
H84	H	1.440035	-0.851895	-0.122813
N85	N	1.560916	-0.753832	-0.243821
N86	N	1.494063	-0.774026	-0.176874
H87	H	1.439997	-0.750950	-0.122753
H88	H	1.651287	-0.613045	-0.334256
H89	H	1.651224	-0.513976	-0.334223
