data_functionalizedCrystal
_audit_creation_method	'MofGen! by Chris Wilmer'
_symmetry_space_group_name_H-M	'P1'
_symmetry_Int_Tables_number	1
_symmetry_cell_setting	triclinic
loop_
_symmetry_equiv_pos_as_xyz
  x,y,z
_cell_length_a	12.759401
_cell_length_b	10.685594
_cell_length_c	12.759393
_cell_angle_alpha	85.657714
_cell_angle_beta	90.018567
_cell_angle_gamma	94.383930
loop_
_atom_site_label
_atom_site_type_symbol
_atom_site_fract_x
_atom_site_fract_y
_atom_site_fract_z
Zn1	Zn	1.574210	-0.502314	0.626054
Zn2	Zn	1.560641	-0.713360	0.463849
Zn3	Zn	1.398508	-0.502376	0.450398
Zn4	Zn	1.385044	-0.713259	0.639484
O5	O	1.479601	-0.607827	0.544946
O6	O	1.719430	-0.530326	0.604547
O7	O	1.539090	-0.685441	0.315048
O8	O	1.433129	-0.325789	0.462449
O9	O	1.709461	-0.685381	0.485375
O10	O	1.562217	-0.325744	0.591503
O11	O	1.419972	-0.530432	0.305165
O12	O	1.249702	-0.530334	0.475471
O13	O	1.410181	-0.685208	0.784719
O14	O	1.239810	-0.685268	0.614392
O15	O	1.549161	-0.530228	0.774853
O16	O	1.526034	-0.889925	0.498397
O17	O	1.397023	-0.889851	0.627435
C18	C	1.206635	-0.607798	0.544930
C19	C	1.089857	-0.607815	0.544950
C20	C	1.040170	-0.527231	0.607116
C21	C	0.930444	-0.527255	0.607124
C22	C	0.920103	-0.688459	0.482797
C23	C	1.029827	-0.688428	0.482784
C24	C	1.046139	-0.434164	0.678899
C25	C	0.936414	-0.434189	0.678907
C26	C	1.458623	-0.935673	0.565856
C27	C	1.449745	-1.075927	0.574837
C28	C	1.753632	-0.607858	0.544963
C29	C	1.870408	-0.607871	0.544971
C30	C	1.479682	-0.607700	0.818972
C31	C	1.479717	-0.607646	0.935745
C32	C	1.500689	-0.278701	0.523978
C33	C	1.509675	-0.138447	0.515042
C34	C	1.479586	-0.607863	0.271981
C35	C	1.479777	-0.607562	0.155186
C36	C	1.552094	-0.526940	0.985471
C37	C	1.552122	-0.526894	1.095192
C38	C	1.407393	-0.688271	1.105453
C39	C	1.407361	-0.688310	0.995733
C40	C	1.635655	-0.433774	0.979548
C41	C	1.635683	-0.433728	1.089269
H42	H	1.070279	-0.754035	0.432151
C43	C	0.893958	-0.469723	0.791052
N44	N	0.861980	-0.496488	0.875516
H45	H	0.871213	-0.754091	0.432184
C46	C	1.094784	-0.302088	0.641209
N47	N	1.131422	-0.202610	0.612819
C48	C	1.089139	-0.481596	0.786271
N49	N	1.121527	-0.517326	0.867143
H50	H	1.567781	-1.084676	0.456983
H51	H	1.348481	-0.753942	1.154308
H52	H	1.391644	-1.129706	0.632907
C53	C	1.327727	-0.777073	0.941038
N54	N	1.267741	-0.843931	0.899841
C55	C	1.614660	-0.301760	0.930915
N56	N	1.598844	-0.202331	0.894286
H57	H	1.710692	-0.468808	0.947749
C58	C	1.604405	-0.308270	1.127262
N59	N	1.580859	-0.213771	1.155879
H60	H	0.908297	-0.341315	0.643978
C61	C	1.743348	-0.469102	1.131762
N62	N	1.824438	-0.495750	1.163767
