data_functionalizedCrystal
_audit_creation_method	'MofGen! by Chris Wilmer'
_symmetry_space_group_name_H-M	'P1'
_symmetry_Int_Tables_number	1
_symmetry_cell_setting	triclinic
loop_
_symmetry_equiv_pos_as_xyz
  x,y,z
_cell_length_a	19.288859
_cell_length_b	17.699083
_cell_length_c	17.766277
_cell_angle_alpha	89.992740
_cell_angle_beta	89.989768
_cell_angle_gamma	83.208370
loop_
_atom_site_label
_atom_site_type_symbol
_atom_site_fract_x
_atom_site_fract_y
_atom_site_fract_z
O1	O	0.921467	0.094395	-0.062610
O2	O	1.421467	0.594395	0.437390
O3	O	0.719221	0.107137	-0.062609
O4	O	1.219221	0.607137	0.437391
O5	O	0.826058	-0.009432	-0.062603
O6	O	1.326058	0.490568	0.437397
O7	O	0.814630	0.210963	-0.062616
O8	O	1.314630	0.710963	0.437384
O9	O	0.826040	-0.009437	0.062585
O10	O	1.326040	0.490563	0.562585
O11	O	0.719203	0.107131	0.062580
O12	O	1.219203	0.607131	0.562580
O13	O	0.921449	0.094389	0.062578
O14	O	1.421449	0.594389	0.562578
Cu15	Cu	0.820324	0.100759	0.074010
Cu16	Cu	1.320324	0.600759	0.574010
Cu17	Cu	0.820346	0.100766	-0.074040
Cu18	Cu	1.320346	0.600766	0.425960
O19	O	0.814612	0.210957	0.062572
O20	O	1.314612	0.710957	0.562572
C21	C	0.693335	0.106724	-0.000014
C22	C	1.193335	0.606724	0.499986
C23	C	0.616230	0.105496	-0.000014
C24	C	1.116230	0.605496	0.499986
C25	C	0.052260	0.165583	-0.000018
C26	C	0.552260	0.665583	0.499982
C27	C	0.124708	0.166744	-0.000022
C28	C	0.624708	0.666744	0.499978
C29	C	0.169334	0.098347	-0.000017
C30	C	0.669334	0.598347	0.499983
C31	C	0.141506	0.028784	-0.000027
C32	C	0.641506	0.528784	0.499973
C33	C	0.069060	0.027626	-0.000030
C34	C	0.569060	0.527626	0.499970
C35	C	0.290537	0.047335	0.043848
C36	C	0.790537	0.547335	0.543848
C37	C	0.362982	0.048497	0.043856
C38	C	0.862982	0.548497	0.543856
C39	C	0.392784	0.101919	-0.000009
C40	C	0.892784	0.601919	0.499991
C41	C	0.350130	0.154191	-0.043873
C42	C	0.850130	0.654191	0.456127
C43	C	0.277683	0.153033	-0.043877
C44	C	0.777683	0.653033	0.456123
C45	C	0.247891	0.099596	-0.000013
C46	C	0.747891	0.599596	0.499987
C47	C	0.499159	0.172736	-0.000009
C48	C	0.999159	0.672736	0.499991
C49	C	0.571609	0.173894	-0.000018
C50	C	1.071609	0.673894	0.499982
C51	C	0.588406	0.035932	-0.000015
C52	C	1.088406	0.535932	0.499985
C53	C	0.515958	0.034776	-0.000014
C54	C	1.015958	0.534776	0.499986
C55	C	0.471338	0.103180	-0.000007
C56	C	0.971338	0.603180	0.499993
C57	C	0.825639	-0.037631	-0.000009
C58	C	1.325639	0.462369	0.499991
C59	C	0.824411	-0.121647	-0.000008
C60	C	1.324411	0.378353	0.499992
C61	C	0.887122	-0.170358	-0.000008
C62	C	1.387122	0.329642	0.499992
C63	C	0.885964	-0.249299	-0.000015
C64	C	1.385964	0.250701	0.499985
C65	C	0.822093	-0.279529	-0.000016
C66	C	1.322093	0.220471	0.499984
C67	C	0.759378	-0.230812	-0.000019
C68	C	1.259378	0.269188	0.499981
C69	C	0.760537	-0.151872	-0.000018
C70	C	1.260537	0.348128	0.499982
C71	C	0.754702	-0.549169	-0.000025
C72	C	1.254702	-0.049169	0.499975
C73	C	0.753547	-0.628115	-0.000024
C74	C	1.253547	-0.128115	0.499976
C75	C	0.880129	-0.646596	-0.000022
C76	C	1.380129	-0.146596	0.499978
C77	C	0.881288	-0.567656	-0.000021
C78	C	1.381288	-0.067656	0.499979
C79	C	0.818572	-0.518946	-0.000027
C80	C	1.318572	-0.018946	0.499973
C81	C	0.819829	-0.433349	-0.000022
C82	C	1.319829	0.066651	0.499978
C83	C	0.820836	-0.365125	-0.000017
C84	C	1.320836	0.134875	0.499983
C85	C	0.947335	0.094801	-0.000018
C86	C	1.447335	0.594801	0.499982
C87	C	1.024440	0.096030	-0.000024
C88	C	1.524440	0.596030	0.499976
C89	C	0.815031	0.239157	-0.000024
C90	C	1.315031	0.739157	0.499976
C91	C	0.816259	0.323173	-0.000029
C92	C	1.316259	0.823173	0.499971
N93	N	0.820313	0.100754	0.178140
N94	N	1.320313	0.600754	0.678140
N95	N	0.820362	0.100766	-0.178171
N96	N	1.320362	0.600766	0.321829
C97	C	0.867636	0.049163	0.217529
C98	C	1.367636	0.549163	0.717529
C99	C	0.867640	0.049159	0.296331
C100	C	1.367640	0.549159	0.796331
C101	C	0.820328	0.100760	0.335740
C102	C	1.320328	0.600760	0.835740
C103	C	0.772996	0.152355	0.296341
C104	C	1.272996	0.652355	0.796341
C105	C	0.772989	0.152352	0.217541
C106	C	1.272989	0.652352	0.717541
C107	C	0.811111	0.169722	0.460574
C108	C	1.311111	0.669722	0.960574
C109	C	0.811123	0.169726	0.539373
C110	C	1.311123	0.669726	1.039373
C111	C	0.820347	0.100769	0.578787
C112	C	1.320347	0.600769	1.078787
C113	C	0.829573	0.031805	0.539392
C114	C	1.329573	0.531805	1.039392
C115	C	0.829565	0.031802	0.460592
C116	C	1.329565	0.531802	0.960592
C117	C	0.820330	0.100769	0.421186
C118	C	1.320330	0.600769	0.921186
C119	C	0.867676	0.049170	0.703622
C120	C	1.367676	0.549170	1.203622
C121	C	0.867675	0.049165	0.782425
C122	C	1.367675	0.549165	1.282425
C123	C	0.773035	0.152368	0.782434
C124	C	1.273035	0.652368	1.282434
C125	C	0.773033	0.152366	0.703632
C126	C	1.273033	0.652366	1.203632
C127	C	0.820357	0.100768	0.664231
C128	C	1.320357	0.600768	1.164231
H129	H	0.242958	0.195594	-0.079594
H130	H	0.742958	0.695594	0.420406
H131	H	0.177845	-0.026905	-0.000024
H132	H	0.677845	0.473095	0.499976
H133	H	0.397705	0.005937	0.079577
H134	H	0.897705	0.505937	0.579577
F135	F	0.601215	0.247926	-0.000019
F136	F	1.101215	0.747926	0.499981
F137	F	0.722641	0.207270	0.338284
F138	F	1.222641	0.707270	0.838284
F139	F	0.918041	-0.005751	0.824348
F140	F	1.418041	0.494249	1.324348
F141	F	0.039452	-0.046406	-0.000038
F142	F	0.539452	0.453594	0.499962
F143	F	0.486349	-0.039254	-0.000021
F144	F	0.986349	0.460746	0.499979
F145	F	0.258831	-0.009557	0.090504
F146	F	0.758831	0.490443	0.590504
H147	H	0.147363	0.223385	-0.000011
H148	H	0.647363	0.723385	0.499989
H149	H	0.939133	-0.145752	-0.000002
H150	H	1.439133	0.354248	0.499998
H151	H	0.937029	-0.288957	-0.000012
H152	H	1.437029	0.211043	0.499988
F153	F	0.381840	0.211057	-0.090555
F154	F	0.881840	0.711057	0.409445
F155	F	0.004777	0.238386	-0.000019
F156	F	0.504777	0.738386	0.499981
H157	H	0.837083	-0.024346	0.571481
H158	H	1.337083	0.475654	1.071481
F159	F	0.451670	0.245536	-0.000005
F160	F	0.951670	0.745536	0.499995
F161	F	0.635895	-0.036862	-0.000018
F162	F	1.135895	0.463138	0.499982
F163	F	0.946877	-0.698443	-0.000017
F164	F	1.446877	-0.198443	0.499983
H165	H	0.933297	-0.543048	-0.000015
H166	H	1.433297	-0.043048	0.499985
F167	F	0.685564	-0.660285	-0.000027
F168	F	1.185564	-0.160285	0.499973
F169	F	0.687954	-0.497338	-0.000034
F170	F	1.187954	0.002662	0.499966
F171	F	0.691402	-0.262987	-0.000030
F172	F	1.191402	0.237013	0.499970
H173	H	0.906169	0.007147	0.185451
H174	H	1.406169	0.507147	0.685451
H175	H	0.709471	-0.112212	-0.000019
H176	H	1.209471	0.387788	0.499981
H177	H	0.803588	0.225879	0.428490
H178	H	1.303588	0.725879	0.928490
F179	F	0.722620	0.207265	0.175618
F180	F	1.222620	0.707265	0.675618
H181	H	0.906177	0.007146	0.328408
H182	H	1.406177	0.507146	0.828408
F183	F	0.839379	-0.041592	0.418667
F184	F	1.339379	0.458408	0.918667
F185	F	0.918040	-0.005748	0.661688
F186	F	1.418040	0.494252	1.161688
F187	F	0.722668	0.207279	0.661708
F188	F	1.222668	0.707279	1.161708
F189	F	0.722678	0.207280	0.824373
F190	F	1.222678	0.707280	1.324373
F191	F	0.801309	0.243123	0.581293
F192	F	1.301309	0.743123	1.081293
