data_functionalizedCrystal
_audit_creation_method	'MofGen! by Chris Wilmer'
_symmetry_space_group_name_H-M	'P1'
_symmetry_Int_Tables_number	1
_symmetry_cell_setting	triclinic
loop_
_symmetry_equiv_pos_as_xyz
  x,y,z
_cell_length_a	21.295417
_cell_length_b	21.395364
_cell_length_c	21.395355
_cell_angle_alpha	90.025677
_cell_angle_beta	89.978549
_cell_angle_gamma	89.975461
loop_
_atom_site_label
_atom_site_type_symbol
_atom_site_fract_x
_atom_site_fract_y
_atom_site_fract_z
Zn1	Zn	-0.250782	-0.957860	-0.354267
Zn2	Zn	-0.356034	-0.957763	-0.249485
Zn3	Zn	-0.250772	-0.853075	-0.249502
Zn4	Zn	-0.356007	-0.853044	-0.354223
O5	O	-0.303399	-0.905435	-0.301869
O6	O	-0.264760	-1.045525	-0.340379
O7	O	-0.342077	-0.943848	-0.161809
O8	O	-0.162684	-0.867028	-0.263425
O9	O	-0.342088	-1.045453	-0.263396
O10	O	-0.162692	-0.944013	-0.340396
O11	O	-0.264742	-0.866934	-0.161822
O12	O	-0.264715	-0.765393	-0.263382
O13	O	-0.342042	-0.866976	-0.441907
O14	O	-0.342031	-0.765371	-0.340320
O15	O	-0.264734	-0.943984	-0.441939
O16	O	-0.444120	-0.943818	-0.263352
O17	O	-0.444100	-0.866882	-0.340303
C18	C	-0.303370	-0.742648	-0.301848
C19	C	-0.303372	-0.673007	-0.301854
C20	C	-0.263207	-0.171247	-0.342014
C21	C	-0.263204	-0.236682	-0.342015
C22	C	-0.303399	-0.269368	-0.301870
C23	C	-0.343610	-0.236613	-0.261733
C24	C	-0.343616	-0.171179	-0.261737
C25	C	-0.308276	-0.373005	-0.245405
C26	C	-0.308266	-0.438438	-0.245400
C27	C	-0.303384	-0.471189	-0.301857
C28	C	-0.298499	-0.438499	-0.358322
C29	C	-0.298505	-0.373065	-0.358326
C30	C	-0.303397	-0.340321	-0.301861
C31	C	-0.263175	-0.574889	-0.341996
C32	C	-0.263177	-0.640325	-0.341999
C33	C	-0.343579	-0.640255	-0.261711
C34	C	-0.343581	-0.574820	-0.261714
C35	C	-0.303375	-0.542140	-0.301856
C36	C	-0.466950	-0.905353	-0.301834
C37	C	-0.536918	-0.905376	-0.301841
C38	C	-0.569774	-0.945472	-0.261813
C39	C	-0.635517	-0.945501	-0.261828
C40	C	-0.668401	-0.905423	-0.301862
C41	C	-0.635537	-0.865324	-0.341897
C42	C	-0.569795	-0.865300	-0.341886
N43	N	-0.771662	-0.850613	-0.306632
N44	N	-0.834113	-0.850638	-0.306638
C45	C	-0.866475	-0.905493	-0.301898
N46	N	-0.834027	-0.960325	-0.297139
N47	N	-0.771570	-0.960300	-0.297129
C48	C	-0.739686	-0.905445	-0.301879
C49	C	-0.970617	-0.945625	-0.261884
C50	C	-1.036361	-0.945655	-0.261903
C51	C	-1.036379	-0.865472	-0.341969
C52	C	-0.970637	-0.865448	-0.341954
C53	C	-0.937760	-0.905523	-0.301908
C54	C	-0.139208	-0.905535	-0.301918
C55	C	-0.069240	-0.905577	-0.301938
C56	C	-0.303386	-0.905487	-0.465293
C57	C	-0.303380	-0.905510	-0.534934
C58	C	-0.303421	-0.068859	-0.301885
C59	C	-0.303411	-0.138500	-0.301879
C60	C	-0.263125	-0.945606	-0.567665
C61	C	-0.263097	-0.945605	-0.633100
C62	C	-0.303338	-0.905515	-0.665802
C63	C	-0.343596	-0.865411	-0.633063
C64	C	-0.343618	-0.865408	-0.567629
C65	C	-0.360017	-0.900539	-0.769465
C66	C	-0.359997	-0.900546	-0.834898
C67	C	-0.303271	-0.905518	-0.867623
C68	C	-0.246564	-0.910498	-0.834907
C69	C	-0.246585	-0.910495	-0.769473
C70	C	-0.303318	-0.905512	-0.736755
C71	C	-0.262982	-0.945616	-0.971307
C72	C	-0.262954	-0.945610	-1.036744
C73	C	-0.343459	-0.865420	-1.036705
C74	C	-0.343481	-0.865422	-0.971269
C75	C	-0.303244	-0.905523	-0.938574
C76	C	-0.303366	-0.905420	-0.139082
C77	C	-0.303194	-0.905519	-0.069441
H78	H	-0.312239	-0.465049	-0.199422
H79	H	-0.376217	-0.832771	-1.063330
N80	N	-0.222016	-0.986551	-0.534259
N81	N	-0.222035	-0.986541	-0.475837
H82	H	-0.193000	-1.015456	-0.452241
N83	N	-0.313267	-0.339563	-0.187725
N84	N	-0.317620	-0.368755	-0.137317
H85	H	-0.321145	-0.345138	-0.096581
N86	N	-0.222122	-0.270134	-0.383007
N87	N	-0.164032	-0.262841	-0.378945
H88	H	-0.135015	-0.286465	-0.407894
N89	N	-0.669134	-0.824384	-0.382782
N90	N	-0.705861	-0.784483	-0.360703
H91	H	-0.729590	-0.755568	-0.389580
H92	H	-0.230313	-0.978255	-0.659755
H93	H	-0.543043	-0.832648	-0.374482
N94	N	-0.293515	-0.339683	-0.416004
N95	N	-0.289154	-0.368925	-0.466411
H96	H	-0.285631	-0.345350	-0.507147
N97	N	-0.384629	-0.673644	-0.220703
N98	N	-0.362420	-0.710145	-0.180816
H99	H	-0.391414	-0.733729	-0.151854
H100	H	-0.294520	-0.465164	-0.404295
H101	H	-0.376338	-0.263230	-0.229049
N102	N	-0.384614	-0.824477	-0.937830
N103	N	-0.424743	-0.846496	-0.901324
H104	H	-0.453793	-0.817575	-0.877706
N105	N	-0.669078	-0.986460	-0.220931
N106	N	-0.639716	-1.022235	-0.185178
H107	H	-0.663417	-1.051160	-0.156292
H108	H	-0.943848	-0.978258	-0.229278
N109	N	-0.384652	-0.541375	-0.220713
N110	N	-0.420541	-0.570564	-0.184874
H111	H	-0.449551	-0.546944	-0.155916
H112	H	-0.406171	-0.896495	-0.861530
N113	N	-1.069915	-0.986626	-0.221017
N114	N	-1.040550	-1.022405	-0.185271
H115	H	-1.064247	-1.051343	-0.156395
N116	N	-0.384691	-0.137735	-0.220737
N117	N	-0.420581	-0.166923	-0.184899
H118	H	-0.449591	-0.143303	-0.155941
H119	H	-1.063153	-0.832843	-0.374569
H120	H	-0.943884	-0.832795	-0.374545
H121	H	-0.543008	-0.978105	-0.229207
H122	H	-0.200413	-0.914548	-0.742839
H123	H	-0.200372	-0.914548	-0.861551
N124	N	-0.221877	-0.986577	-0.937915
N125	N	-0.185930	-1.022370	-0.967150
H126	H	-0.156897	-1.051300	-0.943569
H127	H	-0.230169	-0.978261	-1.063392
N128	N	-0.417963	-0.895494	-0.736031
N129	N	-0.417976	-0.895512	-0.677608
H130	H	-0.458900	-0.891959	-0.653994
N131	N	-0.384693	-0.824459	-0.666473
N132	N	-0.384669	-0.824467	-0.724896
H133	H	-0.413692	-0.795541	-0.748493
N134	N	-0.222135	-0.137883	-0.383025
N135	N	-0.226382	-0.145225	-0.440831
H136	H	-0.197372	-0.121663	-0.469796
H137	H	-0.376398	-0.832754	-0.540979
H138	H	-0.230440	-0.666987	-0.374686
N139	N	-0.222119	-0.541513	-0.383017
N140	N	-0.186238	-0.570762	-0.418864
H141	H	-0.157247	-0.547193	-0.447840
