data_functionalizedCrystal
_audit_creation_method	'MofGen! by Chris Wilmer'
_symmetry_space_group_name_H-M	'P1'
_symmetry_Int_Tables_number	1
_symmetry_cell_setting	triclinic
loop_
_symmetry_equiv_pos_as_xyz
  x,y,z
_cell_length_a	19.902436
_cell_length_b	17.052862
_cell_length_c	17.052862
_cell_angle_alpha	61.493325
_cell_angle_beta	90.001774
_cell_angle_gamma	70.261738
loop_
_atom_site_label
_atom_site_type_symbol
_atom_site_fract_x
_atom_site_fract_y
_atom_site_fract_z
Zr1	Zr	0.778744	0.816599	-0.200387
O2	O	0.704540	0.944501	-0.328522
O3	O	0.785154	0.665877	-0.146195
O4	O	0.821159	0.783676	-0.307005
O5	O	0.658717	0.860630	-0.057826
O6	O	0.931735	0.783664	-0.306994
O7	O	0.668535	0.826702	-0.167713
O8	O	0.867328	0.572943	-0.019335
O9	O	0.723125	1.071351	-0.345484
O10	O	0.890148	0.736314	-0.141091
O11	O	0.800300	0.761643	-0.059092
O12	O	0.842692	0.900336	-0.248424
O13	O	0.752844	0.925665	-0.166425
Zr14	Zr	0.939442	0.870691	-0.025113
Zr15	Zr	0.955100	0.816579	-0.200370
Zr16	Zr	0.763087	0.870710	-0.025130
Zr17	Zr	0.808384	1.018910	-0.227440
Zr18	Zr	0.909802	0.668380	0.001940
O19	O	0.933032	1.021413	-0.079305
O20	O	0.955295	0.944474	-0.328497
O21	O	0.682277	1.021441	-0.079329
O22	O	1.013646	0.742788	0.103022
O23	O	1.035909	0.665849	-0.146171
O24	O	0.762891	0.742816	0.102997
O25	O	1.059469	0.826659	-0.167674
O26	O	0.897027	0.903614	0.081505
O27	O	0.786451	0.903626	0.081494
O28	O	1.049652	0.860587	-0.057787
O29	O	0.863304	1.071336	-0.345470
O30	O	0.854882	0.615954	0.119970
O31	O	0.995062	0.615938	0.119984
O32	O	1.007507	0.572927	-0.019321
O33	O	0.710679	1.114362	-0.206179
O34	O	0.850858	1.114347	-0.206165
O35	O	0.875495	0.786954	0.022924
O36	O	0.965343	0.761624	-0.059075
O37	O	0.917886	0.925647	-0.166408
O38	O	0.828038	0.950976	-0.084409
C39	C	0.822018	0.590585	-0.078911
C40	C	0.809435	0.504698	-0.067426
C41	C	0.961564	0.209717	-0.206276
C42	C	0.973385	0.290415	-0.217073
C43	C	0.932399	0.343989	-0.179662
C44	C	0.879589	0.316859	-0.131453
C45	C	0.867762	0.236159	-0.120661
C46	C	0.838597	0.370430	-0.094047
C47	C	0.785788	0.343300	-0.045838
C48	C	0.773964	0.262607	-0.035048
C49	C	0.814950	0.209032	-0.072459
C50	C	0.850424	0.451131	-0.104839
C51	C	0.756623	0.477572	-0.019224
C52	C	0.744801	0.396875	-0.008427
C53	C	0.638499	0.843669	-0.112772
C54	C	0.563631	0.843677	-0.112779
C55	C	0.291619	0.843634	-0.112740
C56	C	0.290151	0.947179	-0.180200
C57	C	0.368025	0.947165	-0.180496
C58	C	0.426567	0.843656	-0.112760
C59	C	0.418836	0.772691	-0.142552
C60	C	0.340754	0.773337	-0.143035
C61	C	0.330004	0.810206	-0.015350
C62	C	0.407266	0.812408	-0.015787
C63	C	0.502836	0.843663	-0.112769
C64	C	0.215351	0.843623	-0.112733
C65	C	1.079687	0.843620	-0.112728
C66	C	1.154555	0.843612	-0.112721
C67	C	0.878678	0.775960	-0.331970
C68	C	0.885325	0.752988	-0.406371
C69	C	0.896168	1.096705	-0.146589
C70	C	0.908751	1.182591	-0.158074
C71	C	0.804964	1.030716	-0.840208
C72	C	0.798715	1.052302	-0.770306
C73	C	0.820367	0.977475	-0.679319
C74	C	0.848269	0.881059	-0.658240
C75	C	0.854514	0.859471	-0.728148
C76	C	0.869917	0.806231	-0.567260
C77	C	0.897819	0.709814	-0.546181
C78	C	0.904063	0.688230	-0.616083
C79	C	0.882411	0.763056	-0.707070
C80	C	0.863672	0.827819	-0.497352
C81	C	0.913222	0.656574	-0.385292
C82	C	0.919472	0.634988	-0.455194
C83	C	0.839508	0.911330	0.106470
C84	C	0.832861	0.934301	0.180871
C85	C	1.042612	0.590560	-0.078889
C86	C	1.104897	0.504666	-0.067397
C87	C	0.802433	0.658269	0.140309
C88	C	0.783203	0.595355	0.226194
C89	C	1.023027	0.658245	0.140330
C90	C	1.078665	0.595322	0.226224
C91	C	0.695159	1.029044	-0.365830
C92	C	0.639522	1.091967	-0.451724
C93	C	0.675574	1.096729	-0.146611
C94	C	0.613290	1.182624	-0.158103
C95	C	0.915753	1.029020	-0.365809
C96	C	0.934983	1.091935	-0.451694
C97	C	1.094896	0.451114	-0.104819
C98	C	1.153415	0.370413	-0.094039
C99	C	1.221933	0.343261	-0.045831
C100	C	1.231934	0.396821	-0.008409
C101	C	1.173416	0.477524	-0.019195
C102	C	0.813423	0.579024	0.309346
C103	C	0.795352	0.519922	0.390050
C104	C	0.747065	0.477147	0.387601
C105	C	0.716842	0.493483	0.304441
C106	C	0.734909	0.552590	0.223738
C107	C	1.151700	0.552551	0.223757
C108	C	1.203986	0.493438	0.304455
C109	C	1.183235	0.477091	0.387619
C110	C	1.110193	0.519869	0.390082
C111	C	1.057909	0.578987	0.309385
C112	C	0.566488	1.134748	-0.449259
C113	C	0.514205	1.193887	-0.529960
C114	C	0.534957	1.210238	-0.613124
C115	C	0.607998	1.167455	-0.615587
C116	C	0.660280	1.108323	-0.534888
C117	C	0.623292	1.236181	-0.120690
C118	C	0.564778	1.316899	-0.131492
C119	C	0.496260	1.344053	-0.179703
C120	C	0.486259	1.290490	-0.217121
C121	C	0.544774	1.209779	-0.206324
C122	C	0.983272	1.134693	-0.449216
C123	C	1.001355	1.193799	-0.529907
C124	C	0.971144	1.210152	-0.613076
C125	C	0.922852	1.167387	-0.615551
C126	C	0.904774	1.108276	-0.534861
H127	H	0.942027	0.409696	-0.188455
H128	H	0.536619	1.166173	-0.236789
H129	H	1.039112	0.473216	-0.144085
H130	H	0.985869	1.258286	-0.678772
C131	C	1.174544	0.570526	0.132285
N132	N	1.191757	0.584066	0.063389
C133	C	0.813500	1.001224	-0.602428
N134	N	0.808332	1.019116	-0.544512
H135	H	0.448620	1.409775	-0.188488
C136	C	1.016518	1.116712	-0.357738
N137	N	1.041567	1.103167	-0.288838
C138	C	1.142397	0.311504	-0.135200
N139	N	1.134095	0.267134	-0.166201
C140	C	0.889276	0.739317	-0.783971
N141	N	0.894443	0.721439	-0.841896
H142	H	0.492378	1.258389	-0.678828
H143	H	0.926776	0.609721	-0.598914
H144	H	0.942189	0.556485	-0.438042
C145	C	0.715904	0.232729	0.018034
N146	N	0.672188	0.210211	0.058037
H147	H	0.930850	0.595644	-0.311207
H148	H	1.287729	0.374702	0.030842
H149	H	1.269576	0.277545	-0.037054
C150	C	0.698658	1.206333	-0.067658
N151	N	0.755424	1.183861	-0.027719
H152	H	1.181568	0.521119	0.011285
C153	C	0.866536	0.626074	0.312061
N154	N	0.906539	0.661514	0.314112
C155	C	1.087377	0.501869	0.481573
N156	N	1.070193	0.488303	0.550487
C157	C	0.382840	0.982967	-0.277883
N158	N	0.394000	1.009929	-0.351238
C159	C	1.054473	1.240836	-0.527164
N160	N	1.094480	1.276264	-0.525095
C161	C	0.727206	0.412120	0.476387
N162	N	0.712254	0.363138	0.543264
C163	C	0.701668	0.570534	0.132275
N164	N	0.676629	0.584044	0.063387
C165	C	0.889654	1.185346	-0.707041
N166	N	0.864657	1.198864	-0.775953
H167	H	0.819969	0.506629	0.457754
H168	H	0.572934	1.360498	-0.101016
H169	H	0.430464	1.312612	-0.256374
C170	C	0.372587	1.020631	-0.154771
N171	N	0.376013	1.075984	-0.135414
C172	C	1.284327	0.446381	0.301726
N173	N	1.344838	0.410936	0.299668
H174	H	0.998440	0.613804	0.311406
H175	H	0.677526	0.458647	0.302460
H176	H	0.865451	1.073468	-0.536891
C177	C	1.240757	0.412049	0.476382
N178	N	1.284086	0.363054	0.543236
H179	H	0.893422	0.473213	-0.144091
H180	H	1.016381	0.312502	-0.256325
H181	H	0.549577	1.121438	-0.381549
H182	H	0.994926	0.166097	-0.236738
C183	C	0.768029	1.158356	-0.793498
N184	N	0.744917	1.238243	-0.810969
C185	C	0.801942	0.120267	-0.060597
N186	N	0.792143	0.053411	-0.051669
H187	H	0.719747	1.073488	-0.536905
C188	C	0.433864	1.240937	-0.527230
N189	N	0.373352	1.276375	-0.525171
H190	H	0.701803	0.374774	0.030824
H191	H	0.787333	1.091629	-0.914290
C192	C	0.253372	0.982906	-0.277024
N193	N	0.225671	1.009811	-0.349951
C194	C	0.630812	1.185441	-0.707076
N195	N	0.647993	1.198982	-0.775987
H196	H	0.459588	0.695856	-0.095106
C197	C	0.243487	1.021015	-0.154653
N198	N	0.208340	1.076628	-0.135405
H199	H	0.723246	0.521195	0.011236
H200	H	0.316254	0.795215	-0.214338
H201	H	0.432233	0.793805	-0.213102
C202	C	0.345311	0.669582	-0.079818
N203	N	0.348746	0.591433	-0.032207
H204	H	0.296476	0.858157	0.011052
H205	H	0.410708	0.864360	0.006612
H206	H	0.448238	0.738075	0.037461
C207	C	0.334849	0.707414	0.052615
N208	N	0.338494	0.629994	0.103800
H209	H	0.840952	0.906322	-0.514524
