data_functionalizedCrystal
_audit_creation_method	'MofGen! by Chris Wilmer'
_symmetry_space_group_name_H-M	'P1'
_symmetry_Int_Tables_number	1
_symmetry_cell_setting	triclinic
loop_
_symmetry_equiv_pos_as_xyz
  x,y,z
_cell_length_a	23.096457
_cell_length_b	23.096457
_cell_length_c	17.052832
_cell_angle_alpha	53.477712
_cell_angle_beta	77.683059
_cell_angle_gamma	60.000612
loop_
_atom_site_label
_atom_site_type_symbol
_atom_site_fract_x
_atom_site_fract_y
_atom_site_fract_z
Zr1	Zr	0.574370	0.633748	-0.105349
O2	O	0.502107	0.754535	-0.233507
O3	O	0.596521	0.512961	-0.066064
O4	O	0.622894	0.633750	-0.233515
O5	O	0.454933	0.633745	0.066035
O6	O	0.718175	0.633751	-0.233520
O7	O	0.475734	0.633746	-0.066055
O8	O	0.670999	0.417682	0.066020
O9	O	0.502109	0.849814	-0.233505
O10	O	0.677078	0.562644	-0.049311
O11	O	0.590447	0.562642	0.049270
O12	O	0.621497	0.704855	-0.147882
O13	O	0.534867	0.704853	-0.049301
Zr14	Zr	0.693158	0.633749	0.105312
Zr15	Zr	0.726333	0.633751	-0.105357
Zr16	Zr	0.541195	0.633746	0.105320
Zr17	Zr	0.574374	0.785707	-0.105346
Zr18	Zr	0.693154	0.481789	0.105309
O19	O	0.671007	0.754536	0.066027
O20	O	0.718178	0.754539	-0.233518
O21	O	0.454936	0.754533	0.066038
O22	O	0.765421	0.512962	0.233469
O23	O	0.812592	0.512964	-0.066075
O24	O	0.549350	0.512958	0.233480
O25	O	0.812595	0.633752	-0.066072
O26	O	0.644634	0.633747	0.233478
O27	O	0.549353	0.633746	0.233483
O28	O	0.791794	0.633751	0.066018
O29	O	0.622899	0.849816	-0.233511
O30	O	0.644629	0.417681	0.233473
O31	O	0.765419	0.417683	0.233467
O32	O	0.791789	0.417684	0.066013
O33	O	0.475739	0.849813	-0.066051
O34	O	0.596529	0.849815	-0.066057
O35	O	0.646031	0.562642	0.147845
O36	O	0.732662	0.562644	0.049263
O37	O	0.677081	0.704855	-0.049308
O38	O	0.590450	0.704853	0.049273
C39	C	0.633760	0.443670	-0.000023
C40	C	0.633759	0.379160	-0.000024
C41	C	0.592745	-0.028872	-0.072786
C42	C	0.592739	0.031747	-0.072785
C43	C	0.633769	0.009570	-0.000019
C44	C	0.674797	-0.073236	0.072766
C45	C	0.674797	-0.133852	0.072769
N46	N	0.692547	0.065672	0.022010
N47	N	0.692546	0.123259	0.022001
C48	C	0.633771	0.192200	-0.000023
N49	N	0.574997	0.201387	-0.022057
N50	N	0.575000	0.143797	-0.022052
C51	C	0.633774	0.075292	-0.000014
C52	C	0.592736	0.340724	-0.072799
C53	C	0.592728	0.401342	-0.072792
C54	C	0.674793	0.296356	0.072756
C55	C	0.674794	0.235741	0.072752
C56	C	0.633767	0.257930	-0.000030
C57	C	0.443682	0.633745	-0.000009
C58	C	0.379170	0.633744	-0.000006
C59	C	0.377878	0.559514	0.051438
C60	C	0.317262	0.559512	0.051442
C61	C	0.257941	0.633746	-0.000016
C62	C	0.259236	0.707986	-0.051462
C63	C	0.319850	0.707986	-0.051457
N64	N	0.148335	0.689003	-0.083764
N65	N	0.090756	0.688998	-0.083767
C66	C	0.075311	0.633753	-0.000034
N67	N	0.119627	0.578500	0.083702
N68	N	0.177213	0.578502	0.083703
C69	C	0.192212	0.633755	-0.000027
C70	C	0.008294	0.559516	0.051419
C71	C	-0.052325	0.559518	0.051426
C72	C	-0.110350	0.707995	-0.051488
C73	C	-0.049732	0.707990	-0.051485
C74	C	0.009588	0.633749	-0.000034
C75	C	0.823846	0.633752	-0.000028
C76	C	0.888358	0.633753	-0.000032
C77	C	0.675261	0.633751	-0.263534
C78	C	0.689345	0.633751	-0.352968
C79	C	0.633768	0.823827	-0.000015
C80	C	0.633770	0.888337	-0.000013
C81	C	0.519073	0.633742	-0.605050
C82	C	0.505842	0.633736	-0.521018
C83	C	0.551716	0.633740	-0.479002
C84	C	0.610825	0.633750	-0.521025
C85	C	0.624060	0.633749	-0.605061
C86	C	0.656703	0.633747	-0.479012
C87	C	0.715812	0.633757	-0.521036
C88	C	0.729045	0.633757	-0.605063
C89	C	0.683170	0.633753	-0.647080
C90	C	0.643468	0.633748	-0.394977
C91	C	0.748455	0.633755	-0.394987
C92	C	0.761686	0.633761	-0.479019
C93	C	0.592267	0.633746	0.263496
C94	C	0.578183	0.633746	0.352931
C95	C	0.823842	0.443674	-0.000032
C96	C	0.888352	0.379164	-0.000037
C97	C	0.592263	0.443668	0.263492
C98	C	0.578177	0.379157	0.352925
C99	C	0.782345	0.443671	0.263483
C100	C	0.832771	0.379161	0.352912
C101	C	0.485184	0.823825	-0.263520
C102	C	0.434757	0.888336	-0.352950
C103	C	0.443686	0.823823	-0.000005
C104	C	0.379176	0.888333	-0.000000
C105	C	0.675265	0.823829	-0.263530
C106	C	0.689351	0.888340	-0.352963
C107	C	0.889635	0.348869	-0.051503
C108	C	0.950246	0.288264	-0.051527
C109	C	1.009574	0.257950	-0.000079
C110	C	1.008291	0.288251	0.051388
C111	C	0.947680	0.348859	0.051406
C112	C	0.600576	0.348862	0.446388
C113	C	0.587337	0.288255	0.530428
C114	C	0.551705	0.257940	0.521003
C115	C	0.529303	0.288241	0.427531
C116	C	0.542538	0.348851	0.343493
C117	C	0.901679	0.348867	0.343451
C118	C	0.949068	0.288261	0.427472
C119	C	0.927547	0.257946	0.520953
C120	C	0.858632	0.288246	0.530413
C121	C	0.811245	0.348855	0.446393
C122	C	0.365849	0.918637	-0.343489
C123	C	0.318461	0.979262	-0.427509
C124	C	0.339981	1.009580	-0.520991
C125	C	0.408896	0.979276	-0.530450
C126	C	0.456283	0.918657	-0.446430
C127	C	0.377895	0.918634	0.051457
C128	C	0.317287	0.979256	0.051457
C129	C	0.257959	1.009572	0.000007
C130	C	0.259242	0.979268	-0.051457
C131	C	0.319851	0.918652	-0.051463
C132	C	0.724985	0.918636	-0.343507
C133	C	0.738233	0.979243	-0.427531
C134	C	0.715840	1.009558	-0.521010
C135	C	0.680204	0.979256	-0.530464
C136	C	0.666961	0.918646	-0.446441
H137	H	0.708203	-0.091289	0.132014
H138	H	0.540940	0.633736	-0.410579
N139	N	0.924908	0.381546	0.242637
H140	H	0.952922	0.406698	0.234766
H141	H	0.884409	0.424507	0.190893
N142	N	0.321246	0.788053	-0.106960
H143	H	0.368647	0.776788	-0.099152
H144	H	0.290188	0.820473	-0.079942
H145	H	0.637942	0.893986	-0.454154
N146	N	0.548478	0.364651	-0.151285
H147	H	0.554706	0.313688	-0.140246
H148	H	0.561313	0.398170	-0.218058
H149	H	0.056592	0.499065	0.093335
N150	N	0.321229	0.885959	-0.106949
H151	H	0.352875	0.896500	-0.158737
H152	H	0.274425	0.914375	-0.139473
H153	H	-0.053372	0.499068	0.093325
H154	H	0.208612	1.058930	0.000019
N155	N	0.749142	0.885939	-0.242686
H156	H	0.728441	0.932181	-0.234808
H157	H	0.799829	0.860775	-0.234883
N158	N	1.023392	0.255587	0.417257
H159	H	1.029830	0.283986	0.345287
H160	H	1.045024	0.194740	0.449881
H161	H	0.708205	-0.201268	0.132031
H162	H	0.661975	1.003948	-0.606585
N163	N	0.611513	0.255577	0.631231
H164	H	0.643011	0.194731	0.668389
H165	H	0.571591	0.266186	0.668321
H166	H	0.540933	0.208588	0.589440
N167	N	0.951617	0.255581	-0.107025
H168	H	0.999014	0.212588	-0.099240
H169	H	0.936134	0.301878	-0.178981
H170	H	0.426195	0.893955	0.093361
H171	H	0.726627	1.058911	-0.589419
H172	H	0.500290	0.263550	0.419872
H173	H	1.058923	0.208598	-0.000100
H174	H	0.457716	0.633728	-0.486805
N175	N	0.978661	0.192575	0.611571
H176	H	1.025579	0.177987	0.591383
H177	H	0.972267	0.142316	0.651980
H178	H	0.693941	0.633761	-0.715508
N179	N	0.776670	1.011916	-0.417322
H180	H	0.788838	0.983517	-0.345352
H181	H	0.747734	1.072764	-0.449944
H182	H	-0.158649	0.768437	-0.093387
N183	N	0.288869	1.074953	-0.611611
H184	H	0.295204	1.125256	-0.652061
H185	H	0.241975	1.089474	-0.591347
H186	H	0.512391	0.893986	-0.454145
N187	N	0.548499	-0.004942	-0.151286
H188	H	0.522509	0.056709	-0.197388
H189	H	0.515953	-0.027800	-0.119469
N190	N	0.244134	1.011937	-0.417303
H191	H	0.232614	1.037070	-0.380165
H192	H	0.232665	0.965649	-0.380218
N193	N	0.548487	0.121055	-0.151276
H194	H	0.522496	0.125913	-0.197380
H195	H	0.577459	0.148485	-0.189435
N196	N	0.835426	0.255544	0.631241
H197	H	0.875906	0.212550	0.683023
H198	H	0.807402	0.230431	0.639032
H199	H	0.595341	0.633740	-0.360769
N200	N	-0.048332	0.788054	-0.106985
H201	H	-0.095108	0.835082	-0.139588
H202	H	-0.016650	0.791281	-0.158713
H203	H	0.559318	0.468757	-0.132053
N204	N	0.719049	0.272419	0.151247
H205	H	0.690124	0.295228	0.189484
H206	H	0.751627	0.295227	0.119431
N207	N	0.719048	0.146440	0.151237
H208	H	0.745042	0.141586	0.197334
H209	H	0.751589	0.119006	0.119409
H210	H	0.755138	0.373512	0.454110
N211	N	0.441858	0.479443	0.106925
H212	H	0.431839	0.432417	0.139513
H213	H	0.460480	0.476200	0.158662
H214	H	0.348314	0.893955	-0.267379
N215	N	0.797933	0.633761	-0.349673
H216	H	0.803456	0.684244	-0.399287
H217	H	0.842886	0.583245	-0.329295
H218	H	0.426411	1.003970	-0.606572
H219	H	0.316210	0.499063	0.093334
H220	H	0.210929	1.003961	-0.093347
N221	N	0.195257	0.788054	-0.106957
H222	H	0.156661	0.776791	-0.099156
H223	H	0.200977	0.820476	-0.178916
N224	N	0.469604	0.633726	-0.650357
H225	H	0.486961	0.633724	-0.709964
H226	H	0.424634	0.684207	-0.670665
N227	N	0.792788	0.633786	-0.650404
H228	H	0.819838	0.633800	-0.611047
H229	H	0.780812	0.684280	-0.720257
H230	H	0.809814	0.633768	-0.513245
H231	H	0.841335	0.373550	-0.093410
N232	N	0.315911	1.011932	0.106968
H233	H	0.362692	0.983519	0.139566
H234	H	0.284230	1.001387	0.158699
H235	H	0.524299	0.373509	0.267395
H236	H	1.056604	0.263561	0.093275
H237	H	0.946645	0.373517	0.093321
H238	H	0.629589	0.373537	0.454080
