data_functionalizedCrystal
_audit_creation_method	'MofGen! by Chris Wilmer'
_symmetry_space_group_name_H-M	'P1'
_symmetry_Int_Tables_number	1
_symmetry_cell_setting	triclinic
loop_
_symmetry_equiv_pos_as_xyz
  x,y,z
_cell_length_a	21.295418
_cell_length_b	21.295417
_cell_length_c	21.295412
_cell_angle_alpha	89.969332
_cell_angle_beta	89.957310
_cell_angle_gamma	90.046319
loop_
_atom_site_label
_atom_site_type_symbol
_atom_site_fract_x
_atom_site_fract_y
_atom_site_fract_z
Zn1	Zn	0.962349	-0.250359	-0.356234
Zn2	Zn	1.295683	0.082974	-0.022900
Zn3	Zn	1.629016	0.416308	0.310433
Zn4	Zn	0.962254	-0.355628	-0.250959
Zn5	Zn	1.295587	-0.022294	0.082374
Zn6	Zn	1.628920	0.311039	0.415708
Zn7	Zn	0.857074	-0.250405	-0.250943
Zn8	Zn	1.190408	0.082928	0.082390
Zn9	Zn	1.523741	0.416261	0.415723
Zn10	Zn	0.857042	-0.355623	-0.356155
Zn11	Zn	1.190375	-0.022290	-0.022822
Zn12	Zn	1.523709	0.311043	0.310511
O13	O	0.909680	-0.303004	-0.303573
O14	O	1.243013	0.030329	0.029760
O15	O	1.576346	0.363663	0.363094
O16	O	1.050426	-0.264306	-0.342308
O17	O	1.383759	0.069028	-0.008975
O18	O	1.717093	0.402361	0.324359
O19	O	0.948275	-0.341691	-0.162868
O20	O	1.281608	-0.008357	0.170466
O21	O	1.614942	0.324976	0.503799
O22	O	0.871093	-0.162310	-0.264937
O23	O	1.204426	0.171024	0.068397
O24	O	1.537760	0.504357	0.401730
O25	O	1.050356	-0.341646	-0.264963
O26	O	1.383689	-0.008313	0.068370
O27	O	1.717022	0.325021	0.401704
O28	O	0.948438	-0.162276	-0.342293
O29	O	1.281771	0.171058	-0.008960
O30	O	1.615105	0.504391	0.324374
O31	O	0.871000	-0.264384	-0.162856
O32	O	1.204334	0.068949	0.170477
O33	O	1.537667	0.402282	0.503811
O34	O	0.768981	-0.264380	-0.264861
O35	O	1.102314	0.068953	0.068473
O36	O	1.435647	0.402286	0.401806
O37	O	0.871038	-0.341639	-0.444255
O38	O	1.204371	-0.008306	-0.110922
O39	O	1.537704	0.325028	0.222411
O40	O	0.768957	-0.341684	-0.342160
O41	O	1.102290	-0.008350	-0.008826
O42	O	1.435623	0.324983	0.324507
O43	O	0.948406	-0.264302	-0.444313
O44	O	1.281740	0.069032	-0.110979
O45	O	1.615073	0.402365	0.222354
O46	O	0.948243	-0.443716	-0.264887
O47	O	1.281577	-0.110383	0.068446
O48	O	1.614910	0.222950	0.401779
O49	O	0.870945	-0.443713	-0.342175
O50	O	1.204278	-0.110380	-0.008841
O51	O	1.537611	0.222953	0.324492
C52	C	0.746128	-0.303037	-0.303500
C53	C	1.079461	0.030296	0.029833
C54	C	1.412795	0.363630	0.363166
C55	C	0.676160	-0.303066	-0.303484
C56	C	1.009493	0.030267	0.029849
C57	C	1.342827	0.363600	0.363182
C58	C	0.643297	-0.343371	-0.343674
C59	C	0.976631	-0.010038	-0.010340
C60	C	1.309964	0.323295	0.322993
C61	C	0.577555	-0.343356	-0.343702
C62	C	0.910888	-0.010023	-0.010369
C63	C	1.244222	0.323311	0.322965
C64	C	0.544678	-0.303042	-0.303530
C65	C	0.878011	0.030291	0.029804
C66	C	1.211344	0.363625	0.363137
C67	C	0.577548	-0.262729	-0.263337
C68	C	0.910881	0.070604	0.069996
C69	C	1.244215	0.403938	0.403329
C70	C	0.643289	-0.262741	-0.263315
C71	C	0.976623	0.070592	0.070018
C72	C	1.309956	0.403926	0.403352
N73	N	0.441403	-0.298123	-0.248472
N74	N	0.774736	0.035210	0.084861
N75	N	1.108069	0.368543	0.418195
N76	N	0.378951	-0.298116	-0.248495
N77	N	0.712284	0.035218	0.084838
N78	N	1.045618	0.368551	0.418171
C79	C	0.346603	-0.303002	-0.303596
C80	C	0.679936	0.030332	0.029737
C81	C	1.013270	0.363665	0.363070
N82	N	0.379065	-0.307908	-0.358675
N83	N	0.712399	0.025425	-0.025341
N84	N	1.045732	0.358758	0.307992
N85	N	0.441522	-0.307920	-0.358650
N86	N	0.774856	0.025414	-0.025317
N87	N	1.108189	0.358747	0.308016
C88	C	0.473392	-0.303024	-0.303550
C89	C	0.806726	0.030309	0.029783
C90	C	1.140059	0.363643	0.363117
C91	C	0.242455	-0.343292	-0.343820
C92	C	0.575788	-0.009959	-0.010486
C93	C	0.909121	0.323374	0.322847
C94	C	0.176711	-0.343272	-0.343849
C95	C	0.510044	-0.009939	-0.010516
C96	C	0.843378	0.323394	0.322818
C97	C	0.176706	-0.262649	-0.263479
C98	C	0.510039	0.070685	0.069854
C99	C	0.843372	0.404018	0.403188
C100	C	0.242448	-0.262665	-0.263455
C101	C	0.575781	0.070668	0.069878
C102	C	0.909115	0.404002	0.403211
C103	C	0.275319	-0.302990	-0.303625
C104	C	0.608652	0.030343	0.029709
C105	C	0.941985	0.363676	0.363042
C106	C	0.909597	-0.466556	-0.303538
C107	C	1.242931	-0.133222	0.029795
C108	C	1.576264	0.200111	0.363129
C109	C	0.909620	-0.536524	-0.303544
C110	C	1.242953	-0.203190	0.029789
C111	C	1.576286	0.130143	0.363123
C112	C	0.949905	-0.569371	-0.263342
C113	C	1.283238	-0.236038	0.069991
C114	C	1.616571	0.097296	0.403325
C115	C	0.949934	-0.635113	-0.263356
C116	C	1.283268	-0.301780	0.069977
C117	C	1.616601	0.031553	0.403311
C118	C	0.909667	-0.668006	-0.303566
C119	C	1.243001	-0.334673	0.029767
C120	C	1.576334	-0.001339	0.363101
C121	C	0.869379	-0.635151	-0.343776
C122	C	1.202713	-0.301818	-0.010443
C123	C	1.536046	0.031516	0.322891
C124	C	0.869355	-0.569410	-0.343765
C125	C	1.202689	-0.236076	-0.010432
C126	C	1.536022	0.097257	0.322902
N127	N	0.854600	-0.771287	-0.308340
N128	N	1.187934	-0.437954	0.024993
N129	N	1.521267	-0.104620	0.358326
N130	N	0.854625	-0.833739	-0.308347
N131	N	1.187958	-0.500405	0.024986
N132	N	1.521291	-0.167072	0.358320
C133	C	0.909738	-0.866081	-0.303602
C134	C	1.243071	-0.532747	0.029731
C135	C	1.576405	-0.199414	0.363065
N136	N	0.964827	-0.833612	-0.298838
N137	N	1.298160	-0.500279	0.034496
N138	N	1.631494	-0.166946	0.367829
N139	N	0.964802	-0.771155	-0.298828
N140	N	1.298135	-0.437822	0.034506
N141	N	1.631468	-0.104488	0.367839
C142	C	0.909689	-0.739291	-0.303582
C143	C	1.243022	-0.405958	0.029751
C144	C	1.576356	-0.072625	0.363084
C145	C	0.950058	-0.970214	-0.263413
C146	C	1.283392	-0.636880	0.069920
C147	C	1.616725	-0.303547	0.403254
C148	C	0.950089	-1.035957	-0.263431
C149	C	1.283422	-0.702624	0.069902
C150	C	1.616756	-0.369291	0.403235
C151	C	0.869528	-1.035993	-0.343848
C152	C	1.202862	-0.702660	-0.010515
C153	C	1.536195	-0.369327	0.322819
C154	C	0.869504	-0.970251	-0.343833
C155	C	1.202837	-0.636918	-0.010500
C156	C	1.536170	-0.303584	0.322834
C157	C	0.909768	-0.937365	-0.303612
C158	C	1.243101	-0.604032	0.029721
C159	C	1.576434	-0.270698	0.363055
C160	C	1.073870	-0.302971	-0.303646
C161	C	1.407203	0.030362	0.029687
C162	C	1.740537	0.363696	0.363021
C163	C	1.143838	-0.302957	-0.303677
C164	C	1.477172	0.030376	0.029656
C165	C	1.810505	0.363710	0.362990
C166	C	0.909729	-0.302965	-0.467763
C167	C	1.243062	0.030369	-0.134430
C168	C	1.576396	0.363702	0.198903
C169	C	0.909750	-0.302948	-0.537731
C170	C	1.243083	0.030385	-0.204398
C171	C	1.576417	0.363719	0.128935
C172	C	0.909780	-0.138814	-0.303622
C173	C	1.243113	0.194520	0.029712
C174	C	1.576446	0.527853	0.363045
C175	C	0.909822	-0.068845	-0.303642
C176	C	1.243156	0.264488	0.029691
C177	C	1.576489	0.597821	0.363024
C178	C	0.869524	-0.262690	-0.570582
C179	C	1.202857	0.070643	-0.237249
C180	C	1.536190	0.403977	0.096085
C181	C	0.869522	-0.262678	-0.636325
C182	C	1.202855	0.070655	-0.302991
C183	C	1.536188	0.403988	0.030342
C184	C	0.909757	-0.302918	-0.669214
C185	C	1.243090	0.030415	-0.335881
C186	C	1.576423	0.363749	-0.002547
C187	C	0.949986	-0.343184	-0.636355
C188	C	1.283319	-0.009850	-0.303022
C189	C	1.616653	0.323483	0.030311
C190	C	0.949983	-0.343199	-0.570614
C191	C	1.283316	-0.009865	-0.237281
C192	C	1.616649	0.323468	0.096053
N193	N	0.964861	-0.307710	-0.772471
N194	N	1.298195	0.025623	-0.439137
N195	N	1.631528	0.358956	-0.105804
N196	N	0.964863	-0.307692	-0.834922
N197	N	1.298196	0.025641	-0.501589
N198	N	1.631529	0.358974	-0.168255
C199	C	0.909768	-0.302876	-0.867289
C200	C	1.243102	0.030457	-0.533955
C201	C	1.576435	0.363791	-0.200622
N202	N	0.854671	-0.298066	-0.834845
N203	N	1.188005	0.035267	-0.501511
N204	N	1.521338	0.368601	-0.168178
N205	N	0.854671	-0.298081	-0.772387
N206	N	1.188004	0.035253	-0.439054
N207	N	1.521337	0.368586	-0.105721
C208	C	0.909765	-0.302906	-0.740499
C209	C	1.243098	0.030427	-0.407166
C210	C	1.576431	0.363760	-0.073833
C211	C	0.869536	-0.262603	-0.971425
C212	C	1.202870	0.070730	-0.638092
C213	C	1.536203	0.404063	-0.304758
C214	C	0.869533	-0.262596	-1.037169
C215	C	1.202866	0.070737	-0.703836
C216	C	1.536200	0.404071	-0.370502
C217	C	0.950003	-0.343098	-1.037198
C218	C	1.283336	-0.009765	-0.703865
C219	C	1.616670	0.323569	-0.370531
C220	C	0.950001	-0.343109	-0.971456
C221	C	1.283334	-0.009775	-0.638122
C222	C	1.616667	0.323558	-0.304789
C223	C	0.909768	-0.302858	-0.938573
C224	C	1.243102	0.030475	-0.605240
C225	C	1.576435	0.363809	-0.271906
C226	C	0.909667	-0.302997	-0.140021
C227	C	1.243000	0.030336	0.193312
C228	C	1.576334	0.363669	0.526645
C229	C	0.909768	-0.302837	-0.070054
C230	C	1.243101	0.030497	0.263280
C231	C	1.576435	0.363830	0.596613
H232	H	0.149955	-0.376092	-0.376580
H233	H	0.483289	-0.042759	-0.043247
H234	H	0.816622	0.290574	0.290087
N235	N	0.826136	-0.219201	-0.935955
N236	N	1.159469	0.114132	-0.602622
N237	N	1.492802	0.447465	-0.269289
H238	H	0.832240	-0.225316	-0.889323
H239	H	1.165573	0.108017	-0.555990
H240	H	1.498907	0.441351	-0.222656
H241	H	0.835959	-0.174239	-0.947469
H242	H	1.169292	0.159094	-0.614136
H243	H	1.502625	0.492428	-0.280803
H244	H	0.836761	-0.229917	-0.543813
H245	H	1.170094	0.103416	-0.210480
H246	H	1.503428	0.436750	0.122853
H247	H	0.982765	-0.375861	-1.063976
H248	H	1.316098	-0.042527	-0.730643
H249	H	1.649431	0.290806	-0.397309
H250	H	0.836697	-0.943505	-0.376567
H251	H	1.170030	-0.610172	-0.043233
H252	H	1.503364	-0.276838	0.290100
N253	N	0.826139	-0.219178	-1.072604
N254	N	1.159473	0.114156	-0.739271
N255	N	1.492806	0.447489	-0.405938
H256	H	0.800654	-0.193683	-1.041795
H257	H	1.133988	0.139651	-0.708462
H258	H	1.467321	0.472984	-0.375128
H259	H	0.851783	-0.190038	-1.099911
H260	H	1.185116	0.143295	-0.766578
H261	H	1.518449	0.476629	-0.433244
H262	H	0.550793	-0.376177	-0.376431
H263	H	0.884126	-0.042844	-0.043098
H264	H	1.217460	0.290490	0.290235
H265	H	0.269205	-0.229847	-0.230726
H266	H	0.602538	0.103486	0.102608
H267	H	0.935872	0.436819	0.435941
H268	H	0.982759	-0.375890	-0.944708
H269	H	1.316092	-0.042556	-0.611375
H270	H	1.649426	0.290777	-0.278042
H271	H	0.982692	-0.542597	-0.230593
H272	H	1.316025	-0.209264	0.102740
H273	H	1.649358	0.124070	0.436073
H274	H	0.670057	-0.376207	-0.376384
H275	H	1.003390	-0.042873	-0.043050
H276	H	1.336723	0.290460	0.290283
H277	H	0.269220	-0.376124	-0.376531
H278	H	0.602553	-0.042791	-0.043198
H279	H	0.935886	0.290542	0.290135
N280	N	0.678736	-0.219274	-0.219958
N281	N	1.012070	0.114060	0.113375
N282	N	1.345403	0.447393	0.446709
H283	H	0.725371	-0.225401	-0.226037
H284	H	1.058705	0.107932	0.107296
H285	H	1.392038	0.441265	0.440629
H286	H	0.667304	-0.174326	-0.229842
H287	H	1.000638	0.159008	0.103491
H288	H	1.333971	0.492341	0.436825
H289	H	0.982741	-0.661863	-0.230619
H290	H	1.316075	-0.328530	0.102715
H291	H	1.649408	0.004804	0.436048
N292	N	0.993494	-0.934745	-0.220040
N293	N	1.326827	-0.601411	0.113294
N294	N	1.660160	-0.268078	0.446627
H295	H	1.022640	-0.907414	-0.245654
H296	H	1.355973	-0.574081	0.087679
H297	H	1.689307	-0.240748	0.421012
H298	H	0.967875	-0.907557	-0.190835
H299	H	1.301208	-0.574224	0.142498
H300	H	1.634541	-0.240891	0.475831
N301	N	0.993545	-1.071389	-0.220072
N302	N	1.326878	-0.738056	0.113262
N303	N	1.660212	-0.404722	0.446595
H304	H	1.019045	-1.040578	-0.194591
H305	H	1.352379	-0.707244	0.138742
H306	H	1.685712	-0.373911	0.472075
H307	H	0.967944	-1.098718	-0.190916
H308	H	1.301277	-0.765385	0.142417
H309	H	1.634611	-0.432052	0.475750
N310	N	0.826133	-0.219257	-0.671768
N311	N	1.159466	0.114077	-0.338434
N312	N	1.492799	0.447410	-0.005101
H313	H	0.800645	-0.193761	-0.640961
H314	H	1.133978	0.139572	-0.307627
H315	H	1.467311	0.472905	0.025706
H316	H	0.851781	-0.190117	-0.699070
H317	H	1.185114	0.143216	-0.365736
H318	H	1.518448	0.476549	-0.032403
N319	N	0.993378	-0.386591	-0.671824
N320	N	1.326711	-0.053258	-0.338491
N321	N	1.660044	0.280076	-0.005157
H322	H	0.987277	-0.380473	-0.718456
H323	H	1.320610	-0.047140	-0.385123
H324	H	1.653943	0.286194	-0.051789
H325	H	1.038342	-0.376792	-0.660367
H326	H	1.371675	-0.043459	-0.327034
H327	H	1.705009	0.289875	0.006300
H328	H	0.149937	-0.229821	-0.230773
H329	H	0.483271	0.103512	0.102560
H330	H	0.816604	0.436846	0.435894
N331	N	0.993375	-0.386622	-0.535182
N332	N	1.326708	-0.053289	-0.201849
N333	N	1.660041	0.280045	0.131484
H334	H	1.038358	-0.376834	-0.546660
H335	H	1.371691	-0.043501	-0.213326
H336	H	1.705024	0.289833	0.120007
H337	H	0.987217	-0.380505	-0.488557
H338	H	1.320550	-0.047172	-0.155223
H339	H	1.653883	0.286161	0.178110
N340	N	0.542090	-0.219255	-0.220001
N341	N	0.875424	0.114078	0.113332
N342	N	1.208757	0.447411	0.446666
H343	H	0.514864	-0.190113	-0.245640
H344	H	0.848198	0.143220	0.087693
H345	H	1.181531	0.476553	0.421026
H346	H	0.514799	-0.244848	-0.190802
H347	H	0.848133	0.088485	0.142531
H348	H	1.181466	0.421818	0.475864
N349	N	0.825950	-0.670623	-0.387148
N350	N	1.159283	-0.337290	-0.053814
N351	N	1.492616	-0.003957	0.279519
H352	H	0.832076	-0.717255	-0.381053
H353	H	1.165409	-0.383922	-0.047720
H354	H	1.498743	-0.050588	0.285614
H355	H	0.780993	-0.659190	-0.377292
H356	H	1.114326	-0.325856	-0.043959
H357	H	1.447660	0.007477	0.289374
N358	N	0.825902	-0.533977	-0.387127
N359	N	1.159236	-0.200643	-0.053793
N360	N	1.492569	0.132690	0.279540
H361	H	0.800398	-0.564787	-0.412604
H362	H	1.133731	-0.231454	-0.079271
H363	H	1.467064	0.101880	0.254063
H364	H	0.796774	-0.506755	-0.361459
H365	H	1.130107	-0.173422	-0.028126
H366	H	1.463440	0.159912	0.305207
N367	N	0.826101	-1.071461	-0.387224
N368	N	1.159435	-0.738127	-0.053890
N369	N	1.492768	-0.404794	0.279443
H370	H	0.832230	-1.118093	-0.381132
H371	H	1.165563	-0.784759	-0.047799
H372	H	1.498897	-0.451426	0.285534
H373	H	0.781144	-1.060031	-0.377369
H374	H	1.114477	-0.726697	-0.044035
H375	H	1.447811	-0.393364	0.289298
