data_functionalizedCrystal
_audit_creation_method	'MofGen! by Chris Wilmer'
_symmetry_space_group_name_H-M	'P1'
_symmetry_Int_Tables_number	1
_symmetry_cell_setting	triclinic
loop_
_symmetry_equiv_pos_as_xyz
  x,y,z
_cell_length_a	6.817900
_cell_length_b	17.296643
_cell_length_c	19.453114
_cell_angle_alpha	99.776586
_cell_angle_beta	101.709288
_cell_angle_gamma	102.619114
loop_
_atom_site_label
_atom_site_type_symbol
_atom_site_fract_x
_atom_site_fract_y
_atom_site_fract_z
V1	V	-4.007289	-0.111964	-0.226121
O2	O	-3.994723	0.004520	-0.214543
O3	O	-3.959373	-0.221178	-0.231571
O4	O	-3.950198	-0.110619	-0.321549
O5	O	-4.003961	-0.106804	-0.123942
V6	V	-4.491981	-0.097986	-0.213050
O7	O	-4.265985	-0.142625	-0.254794
O8	O	-4.683483	-0.067326	-0.184377
O9	O	-4.316691	0.011228	-0.207600
O10	O	-4.621944	-0.214470	-0.224628
O11	O	-4.612706	-0.103146	-0.315229
O12	O	-4.325865	-0.099331	-0.117622
C13	C	-3.804772	-0.247790	-0.229809
C14	C	-3.846824	-0.337077	-0.234900
C15	C	-4.086505	-0.842651	-0.266951
C16	C	-4.046983	-0.758757	-0.262167
C17	C	-3.992763	-0.705092	-0.194705
C18	C	-3.978083	-0.735325	-0.132024
C19	C	-4.017619	-0.819218	-0.136808
C20	C	-3.871680	-0.451203	-0.177003
C21	C	-3.832138	-0.367305	-0.172223
C22	C	-3.901045	-0.390742	-0.302367
C23	C	-3.940566	-0.474636	-0.307146
C24	C	-3.925894	-0.504862	-0.244464
C25	C	-3.952358	-0.619338	-0.189814
C26	C	-3.966313	-0.590615	-0.249357
C27	C	-3.793069	-0.106761	-0.344584
C28	C	-3.827677	-0.106384	-0.422642
C29	C	-4.025736	-0.110238	-0.463144
C30	C	-4.058255	-0.109884	-0.536489
C31	C	-3.892712	-0.105692	-0.569331
C32	C	-3.694623	-0.101832	-0.528818
C33	C	-3.662105	-0.102178	-0.455474
N34	N	-3.833157	-0.148109	-0.690818
N35	N	-3.864060	-0.147782	-0.760493
C36	C	-3.990674	-0.104648	-0.790313
N37	N	-4.085252	-0.061863	-0.747828
N38	N	-4.054354	-0.062194	-0.678148
C39	C	-3.927952	-0.105316	-0.648860
C40	C	-4.224006	-0.108118	-0.910343
C41	C	-4.256515	-0.107759	-0.983688
C42	C	-3.892881	-0.099715	-0.976017
C43	C	-3.860373	-0.100066	-0.902673
C44	C	-4.025945	-0.104271	-0.869841
C45	C	-4.134633	0.037836	-0.209361
C46	C	-4.071820	0.127121	-0.204274
C47	C	-4.146337	-0.103192	-0.094584
C48	C	-4.090967	-0.103565	-0.016524
H49	H	-4.005659	-0.843827	-0.085770
H50	H	-3.787970	-0.323611	-0.117285
H51	H	-3.699098	-0.096936	-0.869697
H52	H	-3.859727	-0.475802	-0.125964
H53	H	-3.758088	-0.096294	-1.002755
H54	H	-4.010469	-0.634312	-0.304284
H55	H	-4.358823	-0.111539	-0.883610
H56	H	-3.933946	-0.691624	-0.077095
H57	H	-4.130638	-0.886340	-0.321885
H58	H	-4.058926	-0.734149	-0.313205
H59	H	-3.912988	-0.366123	-0.353399
H60	H	-3.908204	-0.575635	-0.134886
H61	H	-4.160560	-0.113660	-0.436417
H62	H	-3.984718	-0.518325	-0.362080
H63	H	-4.219546	-0.113028	-0.569473
H64	H	-3.559837	-0.098416	-0.555562
H65	H	-3.500816	-0.099033	-0.422495
H66	H	-4.417799	-0.110892	-1.016663
