data_functionalizedCrystal
_audit_creation_method	'MofGen! by Chris Wilmer'
_symmetry_space_group_name_H-M	'P1'
_symmetry_Int_Tables_number	1
_symmetry_cell_setting	triclinic
loop_
_symmetry_equiv_pos_as_xyz
  x,y,z
_cell_length_a	9.065218
_cell_length_b	13.339070
_cell_length_c	8.140239
_cell_angle_alpha	89.998768
_cell_angle_beta	89.997198
_cell_angle_gamma	100.322590
loop_
_atom_site_label
_atom_site_type_symbol
_atom_site_fract_x
_atom_site_fract_y
_atom_site_fract_z
O1	O	2.018452	0.148888	-0.136612
O2	O	1.593929	0.161101	-0.136613
O3	O	1.757469	0.007285	-0.136608
O4	O	1.854912	0.302704	-0.136617
O5	O	1.757456	0.007283	0.136619
O6	O	1.593916	0.161099	0.136614
O7	O	2.018439	0.148886	0.136615
Zn8	Zn	1.806175	0.154992	0.179995
Zn9	Zn	1.806193	0.154995	-0.179993
O10	O	1.854899	0.302703	0.136610
C11	C	1.538478	0.159926	-0.000000
C12	C	1.373267	0.156417	-0.000001
C13	C	1.741002	-0.030556	0.000003
C14	C	1.691939	-0.143308	-0.000004
C15	C	2.073430	-0.504605	-0.000001
C16	C	2.119533	-0.398670	0.000015
C17	C	2.012638	-0.334824	0.000010
C18	C	1.859634	-0.376924	-0.000010
C19	C	1.813527	-0.482870	-0.000013
C20	C	1.752734	-0.313089	-0.000002
C21	C	1.599730	-0.355188	-0.000022
C22	C	1.553631	-0.461124	-0.000026
C23	C	1.660525	-0.524969	-0.000021
C24	C	1.798841	-0.207143	0.000000
C25	C	1.538938	-0.185408	-0.000011
C26	C	1.492836	-0.291343	-0.000027
C27	C	2.073890	0.150061	-0.000001
C28	C	2.239101	0.153570	-0.000011
C29	C	1.871366	0.340544	-0.000005
C30	C	1.920429	0.453295	-0.000009
N31	N	1.806174	0.154990	0.425678
N32	N	1.806203	0.154989	-0.425676
H33	H	1.923418	-0.172877	0.000017
H34	H	2.050184	-0.248568	0.000023
H35	H	1.622996	-0.611232	-0.000040
H36	H	1.368256	-0.325636	-0.000042
O37	O	2.177057	-0.566769	-0.000060
C38	C	2.103549	-0.669299	-0.000014
H39	H	1.985580	-0.674421	-0.051754
H40	H	2.169022	-0.716510	-0.079325
H41	H	2.096605	-0.699875	0.131070
H42	H	1.429045	-0.495398	-0.000030
O43	O	1.435284	-0.123253	-0.000096
C44	C	1.508786	-0.020721	-0.000056
H45	H	1.626766	-0.015596	-0.051778
H46	H	1.443325	0.026486	-0.079386
H47	H	1.515700	0.009856	0.131025
H48	H	2.244108	-0.364400	0.000033
