data_functionalizedCrystal
_audit_creation_method	'MofGen! by Chris Wilmer'
_symmetry_space_group_name_H-M	'P1'
_symmetry_Int_Tables_number	1
_symmetry_cell_setting	triclinic
loop_
_symmetry_equiv_pos_as_xyz
  x,y,z
_cell_length_a	25.639242
_cell_length_b	13.033615
_cell_length_c	13.033109
_cell_angle_alpha	90.874218
_cell_angle_beta	97.212591
_cell_angle_gamma	82.821435
loop_
_atom_site_label
_atom_site_type_symbol
_atom_site_fract_x
_atom_site_fract_y
_atom_site_fract_z
Zn1	Zn	-0.802328	-0.483443	-0.529807
Zn2	Zn	-0.780432	-0.633601	-0.335997
Zn3	Zn	-0.705350	-0.461627	-0.357811
Zn4	Zn	-0.702583	-0.655349	-0.507901
O5	O	-0.747673	-0.558505	-0.432879
O6	O	-0.872590	-0.503391	-0.504136
O7	O	-0.762466	-0.592556	-0.194968
O8	O	-0.728536	-0.320606	-0.398924
O9	O	-0.856502	-0.613711	-0.361745
O10	O	-0.799786	-0.336635	-0.525289
O11	O	-0.707303	-0.466208	-0.210995
O12	O	-0.631817	-0.487296	-0.377683
O13	O	-0.723821	-0.650777	-0.654730
O14	O	-0.629784	-0.629622	-0.487953
O15	O	-0.797103	-0.524479	-0.670824
O16	O	-0.759783	-0.780400	-0.340504
O17	O	-0.702588	-0.796378	-0.466800
C18	C	-0.611829	-0.558452	-0.432808
C19	C	-0.553714	-0.558458	-0.432799
C20	C	-0.728525	-0.825708	-0.398930
C21	C	-0.720383	-0.940023	-0.384441
C22	C	-0.762596	-0.592487	-0.701138
C23	C	-0.768955	-0.606969	-0.815454
C24	C	-0.192292	-0.632703	-0.490195
C25	C	-0.137688	-0.632710	-0.490207
O26	O	-0.108551	-0.695785	-0.538967
N27	N	-0.111435	-0.558527	-0.432913
C28	C	-0.139790	-0.484325	-0.375610
O29	O	-0.112445	-0.421226	-0.326878
C30	C	-0.194393	-0.484314	-0.375604
C31	C	-0.220642	-0.558509	-0.432894
C32	C	-0.218541	-0.706892	-0.547481
C33	C	-0.273141	-0.706885	-0.547466
C34	C	-0.301492	-0.632691	-0.490165
C35	C	-0.275242	-0.558503	-0.432879
C36	C	-0.222747	-0.410108	-0.318307
C37	C	-0.277355	-0.410104	-0.318306
C38	C	-0.303604	-0.484299	-0.375596
C39	C	-0.358193	-0.484302	-0.375563
N40	N	-0.384446	-0.558486	-0.432858
C41	C	-0.356095	-0.632680	-0.490159
C42	C	-0.025118	-0.484352	-0.375629
C43	C	0.029485	-0.484366	-0.375629
C44	C	0.031583	-0.632751	-0.490228
C45	C	-0.023021	-0.632740	-0.490222
C46	C	-0.051371	-0.558536	-0.432924
C47	C	-0.470759	-0.632662	-0.490123
C48	C	-0.525364	-0.632652	-0.490100
C49	C	-0.527457	-0.484265	-0.375506
C50	C	-0.472857	-0.484277	-0.375524
C51	C	-0.444510	-0.558481	-0.432841
O52	O	-0.387364	-0.421257	-0.326832
O53	O	-0.383448	-0.695760	-0.538893
C54	C	0.115953	-0.558553	-0.432939
C55	C	0.057840	-0.558558	-0.432935
C56	C	-0.766912	-0.290262	-0.466983
C57	C	-0.775110	-0.175952	-0.481516
C58	C	-0.743512	-0.117059	-0.425473
C59	C	-0.751985	0.001086	-0.440492
C60	C	-0.744497	-0.550910	-0.874349
C61	C	-0.751069	-0.565876	-0.992501
C62	C	-0.732844	-0.524580	-0.165673
C63	C	-0.726607	-0.509809	-0.051395
H64	H	-0.546733	-0.693074	-0.536753
N65	N	-0.816927	-0.129494	-0.555642
N66	N	-0.863942	-0.140570	-0.547330
H67	H	-0.893478	-0.107763	-0.599681
H68	H	-0.785310	0.038125	-0.499600
H69	H	-0.451484	-0.423864	-0.328871
H70	H	-0.300436	-0.349670	-0.271653
N71	N	-0.801339	-0.681058	-0.861926
N72	N	-0.849416	-0.672747	-0.850906
H73	H	-0.872289	-0.725072	-0.883726
N74	N	-0.712121	-0.476813	-0.827866
N75	N	-0.706826	-0.464765	-0.731952
H76	H	-0.683959	-0.412433	-0.699123
N77	N	-0.678572	0.013539	-0.310286
N78	N	-0.648861	0.068851	-0.257590
H79	H	-0.619332	0.036055	-0.205219
N80	N	-0.783437	-0.639993	-1.038978
N81	N	-0.788727	-0.652049	-1.134891
H82	H	-0.811587	-0.704394	-1.167718
N83	N	-0.701704	-0.163491	-0.351314
N84	N	-0.654685	-0.152412	-0.359593
H85	H	-0.625159	-0.185196	-0.307209
H86	H	-0.700799	-0.450734	-1.014352
H87	H	-0.447686	-0.693084	-0.536799
H88	H	-0.294509	-0.767301	-0.594120
H89	H	-0.044390	-0.693155	-0.536874
N90	N	-0.189595	-0.782705	-0.606011
N91	N	-0.188524	-0.876701	-0.586965
H92	H	-0.168084	-0.930256	-0.628300
N93	N	0.060548	-0.708553	-0.548750
N94	N	0.097731	-0.769436	-0.504137
H95	H	0.118188	-0.822971	-0.545463
N96	N	0.056288	-0.408585	-0.317085
N97	N	0.030963	-0.342352	-0.265926
H98	H	0.049890	-0.288826	-0.224579
H99	H	-0.048198	-0.423925	-0.328963
N100	N	-0.195951	-0.334315	-0.259775
N101	N	-0.221282	-0.268079	-0.208628
H102	H	-0.202358	-0.214545	-0.167286
H103	H	-0.550550	-0.423860	-0.328849
