data_functionalizedCrystal
_audit_creation_method	'MofGen! by Chris Wilmer'
_symmetry_space_group_name_H-M	'P1'
_symmetry_Int_Tables_number	1
_symmetry_cell_setting	triclinic
loop_
_symmetry_equiv_pos_as_xyz
  x,y,z
_cell_length_a	12.837943
_cell_length_b	15.021413
_cell_length_c	12.837942
_cell_angle_alpha	90.004978
_cell_angle_beta	85.171060
_cell_angle_gamma	90.007011
loop_
_atom_site_label
_atom_site_type_symbol
_atom_site_fract_x
_atom_site_fract_y
_atom_site_fract_z
O1	O	1.402340	0.074015	-0.272127
O2	O	1.099207	0.074021	-0.258684
O3	O	1.244052	0.074013	-0.113839
O4	O	1.257495	0.074023	-0.416972
O5	O	1.244029	-0.074052	-0.113859
O6	O	1.099183	-0.074044	-0.258704
O7	O	1.402317	-0.074049	-0.272147
Zn8	Zn	1.250746	-0.097555	-0.265429
Zn9	Zn	1.250777	0.097526	-0.265402
O10	O	1.257472	-0.074041	-0.416993
C11	C	1.060126	-0.000011	-0.254153
C12	C	0.943711	-0.000009	-0.240608
C13	C	0.718837	-0.000016	-0.403437
C14	C	0.609454	-0.000015	-0.390716
C15	C	0.615562	-0.000012	-0.202445
C16	C	0.724944	-0.000013	-0.215166
C17	C	0.776578	-0.000014	-0.315666
C18	C	0.885962	-0.000008	-0.328386
C19	C	0.892067	-0.000012	-0.140116
C20	C	0.782685	-0.000011	-0.127395
N21	N	1.250733	-0.230692	-0.265447
C22	C	1.183742	-0.470372	-0.332388
C23	C	1.280341	-0.529707	-0.362050
C24	C	1.250757	-0.412299	-0.265424
C25	C	1.154186	-0.529706	-0.235788
C26	C	1.250772	-0.587723	-0.265403
C27	C	1.347409	-0.470328	-0.295137
C28	C	1.221187	-0.470321	-0.168829
C29	C	1.317851	-0.529630	-0.198457
C30	C	1.250747	-0.311242	-0.265439
C31	C	1.250793	-0.688778	-0.265388
C32	C	1.441398	-0.000015	-0.276679
C33	C	1.557813	-0.000011	-0.290223
N34	N	1.250798	0.230664	-0.265376
C35	C	1.239499	-0.000019	-0.074780
C36	C	1.225954	-0.000017	0.041635
C37	C	1.262025	-0.000007	-0.456052
C38	C	1.275569	-0.000003	-0.572467
C39	C	1.388784	-0.000001	0.266510
C40	C	1.376062	0.000000	0.375892
C41	C	1.187791	-0.000006	0.369785
C42	C	1.200513	-0.000007	0.260402
C43	C	1.301012	-0.000007	0.208769
C44	C	1.313732	-0.000015	0.099384
C45	C	1.125462	-0.000014	0.093279
C46	C	1.112741	-0.000013	0.202661
H47	H	0.573502	-0.000085	-0.120623
H48	H	0.562446	-0.000019	-0.462189
H49	H	0.760878	-0.000015	-0.485268
Br50	Br	1.495186	0.000013	0.454253
H51	H	1.127138	-0.444353	-0.389074
H52	H	0.740630	-0.000021	-0.045571
Br53	Br	0.976356	-0.000002	0.272745
H54	H	1.053992	-0.000026	0.046254
Br55	Br	0.970436	0.000010	-0.020989
H56	H	1.374599	-0.555485	-0.141822
H57	H	1.105969	0.000003	0.411844
H58	H	0.928000	-0.000010	-0.410218
H59	H	1.429111	-0.444356	-0.320291
H60	H	1.395564	-0.000017	0.057346
H61	H	1.305365	-0.555792	-0.443730
Br62	Br	1.018058	-0.573183	-0.194026
Br63	Br	1.179436	-0.426807	-0.032725
H64	H	1.470614	-0.000009	0.224469
