data_functionalizedCrystal
_audit_creation_method	'MofGen! by Chris Wilmer'
_symmetry_space_group_name_H-M	'P1'
_symmetry_Int_Tables_number	1
_symmetry_cell_setting	triclinic
loop_
_symmetry_equiv_pos_as_xyz
  x,y,z
_cell_length_a	18.215407
_cell_length_b	16.120444
_cell_length_c	18.215399
_cell_angle_alpha	87.129468
_cell_angle_beta	90.019833
_cell_angle_gamma	92.927051
loop_
_atom_site_label
_atom_site_type_symbol
_atom_site_fract_x
_atom_site_fract_y
_atom_site_fract_z
Zn1	Zn	1.110207	-0.331908	0.430964
Zn2	Zn	1.610207	0.168092	0.930964
Zn3	Zn	1.103872	-0.471330	0.314134
Zn4	Zn	1.603872	0.028670	0.814134
Zn5	Zn	0.987139	-0.331935	0.307912
Zn6	Zn	1.487139	0.168065	0.807912
Zn7	Zn	0.980864	-0.471284	0.437157
Zn8	Zn	1.480864	0.028716	0.937157
O9	O	1.045520	-0.401614	0.372542
O10	O	1.545520	0.098386	0.872542
O11	O	1.212351	-0.350410	0.415478
O12	O	1.712351	0.149590	0.915478
O13	O	1.088361	-0.452870	0.210326
O14	O	1.588361	0.047130	0.710326
O15	O	1.008741	-0.215265	0.319039
O16	O	1.508741	0.284735	0.819039
O17	O	1.207696	-0.452843	0.329644
O18	O	1.707696	0.047157	0.829644
O19	O	1.099160	-0.215245	0.409445
O20	O	1.599160	0.284755	0.909445
O21	O	1.002598	-0.350457	0.205755
O22	O	1.502598	0.149543	0.705755
O23	O	0.883322	-0.350412	0.325045
O24	O	1.383322	0.149588	0.825045
O25	O	0.998047	-0.452764	0.539319
O26	O	1.498047	0.047236	1.039319
O27	O	0.878712	-0.452791	0.420001
O28	O	1.378712	0.047209	0.920001
O29	O	1.093075	-0.350365	0.534768
O30	O	1.593075	0.149635	1.034768
O31	O	1.082277	-0.587990	0.335650
O32	O	1.582277	-0.087990	0.835650
O33	O	0.991903	-0.587956	0.426034
O34	O	1.491903	-0.087956	0.926034
C35	C	0.854315	-0.401600	0.372520
C36	C	1.354315	0.098400	0.872520
C37	C	0.772515	-0.401614	0.372529
C38	C	1.272515	0.098386	0.872529
C39	C	0.581936	-0.455006	0.421917
C40	C	1.081936	0.044994	0.921917
C41	C	0.505077	-0.455009	0.421927
C42	C	1.005077	0.044991	0.921927
C43	C	0.509856	-0.348237	0.323183
C44	C	1.009856	0.151763	0.823183
C45	C	0.586713	-0.348231	0.323178
C46	C	1.086713	0.151769	0.823178
C47	C	0.622751	-0.401620	0.372544
C48	C	1.122751	0.098380	0.872544
C49	C	0.469035	-0.401629	0.372559
C50	C	0.969035	0.098371	0.872559
C51	C	0.385701	-0.401631	0.372568
C52	C	0.885701	0.098369	0.872568
C53	C	0.706090	-0.401617	0.372536
C54	C	1.206090	0.098383	0.872536
C55	C	1.035742	-0.618223	0.382205
C56	C	1.535742	-0.118223	0.882205
C57	C	1.031625	-0.710890	0.386364
C58	C	1.531625	-0.210890	0.886364
C59	C	1.067053	-0.921830	0.351127
C60	C	1.567053	-0.421830	0.851127
C61	C	1.024124	-0.880547	0.393964
C62	C	1.524124	-0.380547	0.893964
C63	C	1.028299	-0.786141	0.389734
C64	C	1.528299	-0.286141	0.889734
C65	C	1.062879	-1.016244	0.355356
C66	C	1.562879	-0.516244	0.855356
C67	C	1.237472	-0.401629	0.372564
C68	C	1.737472	0.098371	0.872564
C69	C	1.319271	-0.401635	0.372574
C70	C	1.819271	0.098365	0.872574
C71	C	1.045568	-0.401557	0.564492
C72	C	1.545568	0.098443	1.064492
C73	C	1.045588	-0.401532	0.646290
C74	C	1.545588	0.098468	1.146290
C75	C	1.055357	-0.184159	0.362857
C76	C	1.555357	0.315841	0.862857
C77	C	1.059549	-0.091492	0.358730
C78	C	1.559549	0.408508	0.858730
C79	C	1.045518	-0.401611	0.181336
C80	C	1.545518	0.098389	0.681336
C81	C	1.045651	-0.401401	0.099528
C82	C	1.545651	0.098599	0.599528
C83	C	1.095088	-0.348163	0.832114
C84	C	1.595088	0.151837	1.332114
C85	C	1.095098	-0.348139	0.908971
C86	C	1.595098	0.151861	1.408971
C87	C	0.996145	-0.454772	0.913699
C88	C	1.496145	0.045228	1.413699
C89	C	0.996133	-0.454792	0.836842
C90	C	1.496133	0.045208	1.336842
C91	C	1.045608	-0.401488	0.796052
C92	C	1.545608	0.098512	1.296052
C93	C	1.045631	-0.401445	0.949766
C94	C	1.545631	0.098555	1.449766
C95	C	1.045641	-0.401419	1.033099
C96	C	1.545641	0.098581	1.533099
C97	C	1.045597	-0.401513	0.712714
C98	C	1.545597	0.098487	1.212714
H99	H	0.611276	-0.498477	0.462116
H100	H	1.111276	0.001523	0.962116
H101	H	1.106937	-0.886276	0.311279
H102	H	1.606937	-0.386276	0.811279
C103	C	1.149504	-0.289525	0.787243
C104	C	1.649504	0.210475	1.287243
C105	C	1.203927	-0.230864	0.826914
C106	C	1.703927	0.269136	1.326914
C107	C	1.258343	-0.172221	0.782046
C108	C	1.758343	0.327779	1.282046
C109	C	1.258334	-0.172239	0.697507
C110	C	1.758334	0.327761	1.197507
C111	C	1.203909	-0.230902	0.657831
C112	C	1.703909	0.269098	1.157831
C113	C	1.149493	-0.289545	0.702699
C114	C	1.649493	0.210455	1.202699
H115	H	1.203936	-0.230849	0.889499
H116	H	1.703936	0.269151	1.389499
H117	H	1.298632	-0.128795	0.811417
H118	H	1.798632	0.371205	1.311417
H119	H	1.298616	-0.128828	0.664292
H120	H	1.798616	0.371172	1.164292
H121	H	1.203900	-0.230917	0.595246
H122	H	1.703900	0.269083	1.095246
H123	H	1.109204	-0.332971	0.673328
H124	H	1.609204	0.167029	1.173328
H125	H	0.471849	-0.498480	0.462132
H126	H	0.971849	0.001520	0.962132
C127	C	0.470211	-0.289518	0.268877
C128	C	0.970211	0.210482	0.768877
C129	C	0.385671	-0.289526	0.268876
C130	C	0.885671	0.210474	0.768876
C131	C	0.346029	-0.230807	0.214566
C132	C	0.846029	0.269193	0.714566
C133	C	0.390927	-0.172082	0.160257
C134	C	0.890927	0.327918	0.660257
C135	C	0.475472	-0.172072	0.160256
C136	C	0.975472	0.327928	0.660256
C137	C	0.515114	-0.230790	0.214566
C138	C	1.015114	0.269210	0.714566
H139	H	0.352430	-0.333000	0.309080
H140	H	0.852430	0.167000	0.809080
H141	H	0.283443	-0.230815	0.214567
H142	H	0.783443	0.269185	0.714567
H143	H	0.361581	-0.128615	0.120053
H144	H	0.861581	0.371385	0.620053
H145	H	0.508713	-0.128598	0.120051
H146	H	1.008713	0.371402	0.620051
H147	H	0.577701	-0.230783	0.214564
H148	H	1.077701	0.269217	0.714564
H149	H	0.955835	-0.498215	0.807480
H150	H	1.455835	0.001785	1.307480
C151	C	0.631614	-0.289505	0.268860
C152	C	1.131614	0.210495	0.768860
C153	C	0.625326	-0.194737	0.270768
C154	C	1.125326	0.305263	0.770768
C155	C	0.670226	-0.136012	0.216454
C156	C	1.170226	0.363988	0.716454
C157	C	0.721415	-0.172056	0.160232
C158	C	1.221415	0.327944	0.660232
C159	C	0.727706	-0.266828	0.158323
C160	C	1.227706	0.233172	0.658323
C161	C	0.682806	-0.325553	0.212637
C162	C	1.182806	0.174447	0.712637
H163	H	0.587430	-0.168051	0.312388
H164	H	1.087430	0.331949	0.812388
H165	H	0.665569	-0.065855	0.217868
H166	H	1.165569	0.434145	0.717868
H167	H	0.754653	-0.128584	0.120026
H168	H	1.254653	0.371416	0.620026
H169	H	0.765601	-0.293514	0.116702
H170	H	1.265601	0.206486	0.616702
H171	H	0.687463	-0.395710	0.211223
H172	H	1.187463	0.104290	0.711223
H173	H	0.955866	-0.498171	0.946920
H174	H	1.455866	0.001829	1.446920
C175	C	0.970228	-0.928574	0.447794
C176	C	1.470228	-0.428574	0.947794
C177	C	0.909870	-0.988545	0.418475
C178	C	1.409870	-0.488545	0.918475
C179	C	0.855972	-1.036575	0.472299
C180	C	1.355972	-0.536575	0.972299
C181	C	0.862434	-1.024634	0.555444
C182	C	1.362434	-0.524634	1.055444
C183	C	0.922795	-0.964661	0.584768
C184	C	1.422795	-0.464661	1.084768
C185	C	0.976692	-0.916631	0.530943
C186	C	1.476692	-0.416631	1.030943
H187	H	0.905084	-0.997386	0.356923
H188	H	1.405084	-0.497386	0.856923
H189	H	0.811289	-1.080971	0.450592
H190	H	1.311289	-0.580971	0.950592
H191	H	0.822536	-1.060189	0.595288
H192	H	1.322536	-0.560189	1.095288
H193	H	0.927580	-0.955820	0.646320
H194	H	1.427580	-0.455820	1.146320
H195	H	1.021376	-0.872235	0.552651
H196	H	1.521376	-0.372235	1.052651
C197	C	1.149529	-0.289481	0.948639
C198	C	1.649529	0.210519	1.448639
C199	C	1.232881	-0.296295	0.938393
C200	C	1.732881	0.203705	1.438393
C201	C	1.287314	-0.237633	0.978059
C202	C	1.787314	0.262367	1.478059
C203	C	1.258394	-0.172158	1.027972
C204	C	1.758394	0.327842	1.527972
C205	C	1.175038	-0.165342	1.038220
C206	C	1.675038	0.334658	1.538220
C207	C	1.120605	-0.224003	0.998554
C208	C	1.620605	0.275997	1.498554
H209	H	1.254293	-0.344766	0.901443
H210	H	1.754293	0.155234	1.401443
H211	H	1.349020	-0.242679	0.970473
H212	H	1.849020	0.257321	1.470473
H213	H	1.298688	-0.128733	1.057335
H214	H	1.798688	0.371267	1.557335
H215	H	1.153626	-0.116871	1.075170
H216	H	1.653626	0.383129	1.575170
H217	H	1.058899	-0.218957	1.006140
H218	H	1.558899	0.281043	1.506140
