data_functionalizedCrystal
_audit_creation_method	'MofGen! by Chris Wilmer'
_symmetry_space_group_name_H-M	'P1'
_symmetry_Int_Tables_number	1
_symmetry_cell_setting	triclinic
loop_
_symmetry_equiv_pos_as_xyz
  x,y,z
_cell_length_a	17.038272
_cell_length_b	17.038272
_cell_length_c	15.500227
_cell_angle_alpha	93.033254
_cell_angle_beta	86.956295
_cell_angle_gamma	91.111556
loop_
_atom_site_label
_atom_site_type_symbol
_atom_site_fract_x
_atom_site_fract_y
_atom_site_fract_z
O1	O	1.052160	0.167139	-0.071836
O2	O	1.552160	0.667139	0.428164
O3	O	0.824350	0.164430	-0.071862
O4	O	1.324350	0.664430	0.428138
O5	O	0.936901	0.051879	-0.071842
O6	O	1.436901	0.551879	0.428158
O7	O	0.939609	0.279690	-0.071856
O8	O	1.439609	0.779690	0.428144
O9	O	0.930069	0.058680	0.072045
O10	O	1.430069	0.558680	0.572045
O11	O	0.817518	0.171231	0.072026
O12	O	1.317518	0.671231	0.572026
O13	O	1.045328	0.173940	0.072051
O14	O	1.545328	0.673940	0.572051
Cu15	Cu	0.930799	0.173207	0.085177
Cu16	Cu	1.430799	0.673207	0.585177
Cu17	Cu	0.938879	0.165164	-0.084987
Cu18	Cu	1.438879	0.665164	0.415013
O19	O	0.932777	0.286491	0.072032
O20	O	1.432777	0.786491	0.572032
C21	C	0.791641	0.165368	0.000079
C22	C	1.291641	0.665368	0.500079
C23	C	0.704358	0.158019	0.000069
C24	C	1.204358	0.658019	0.500069
C25	C	0.658749	0.225482	0.000066
C26	C	1.158749	0.725482	0.500066
C27	C	0.576737	0.218574	0.000078
C28	C	1.076737	0.718574	0.500078
C29	C	0.540335	0.144201	0.000088
C30	C	1.040335	0.644201	0.500088
C31	C	0.585950	0.076733	0.000094
C32	C	1.085950	0.576733	0.500094
C33	C	0.667961	0.083642	0.000088
C34	C	1.167961	0.583642	0.500088
C35	C	0.292946	0.119792	0.000112
C36	C	0.792946	0.619792	0.500112
C37	C	0.210929	0.112887	0.000116
C38	C	0.710929	0.612887	0.500116
C39	C	0.201721	0.254729	0.000102
C40	C	0.701721	0.754729	0.500102
C41	C	0.283734	0.261632	0.000091
C42	C	0.783734	0.761632	0.500091
C43	C	0.329342	0.194164	0.000101
C44	C	0.829342	0.694164	0.500101
C45	C	0.456505	0.137138	0.000098
C46	C	0.956505	0.637138	0.500098
C47	C	0.413170	0.201228	0.000098
C48	C	0.913170	0.701228	0.500098
C49	C	0.931022	0.025987	0.000101
C50	C	1.431022	0.525987	0.500101
C51	C	0.923674	-0.061297	0.000100
C52	C	1.423674	0.438703	0.500100
C53	C	0.991137	-0.106906	0.000108
C54	C	1.491137	0.393094	0.500108
C55	C	0.984229	-0.188918	0.000100
C56	C	1.484229	0.311082	0.500100
C57	C	0.909856	-0.225320	0.000088
C58	C	1.409856	0.274680	0.500088
C59	C	0.842388	-0.179705	0.000077
C60	C	1.342388	0.320295	0.500077
C61	C	0.849297	-0.097694	0.000080
C62	C	1.349297	0.402306	0.500080
C63	C	0.885446	-0.472708	0.000074
C64	C	1.385446	0.027292	0.500074
C65	C	0.878541	-0.554725	0.000074
C66	C	1.378541	-0.054725	0.500074
C67	C	1.020383	-0.563932	0.000094
C68	C	1.520383	-0.063932	0.500094
C69	C	1.027286	-0.481919	0.000102
C70	C	1.527286	0.018081	0.500102
C71	C	0.959818	-0.436312	0.000087
C72	C	1.459818	0.063688	0.500087
C73	C	0.902792	-0.309149	0.000082
C74	C	1.402792	0.190851	0.500082
C75	C	0.966882	-0.352484	0.000087
C76	C	1.466882	0.147516	0.500087
C77	C	1.078037	0.173003	0.000109
C78	C	1.578037	0.673003	0.500109
C79	C	1.165320	0.180351	0.000113
C80	C	1.665320	0.680351	0.500113
C81	C	0.938656	0.312383	0.000087
C82	C	1.438656	0.812383	0.500087
C83	C	0.946004	0.399667	0.000082
C84	C	1.446004	0.899667	0.500082
N85	N	0.925122	0.178864	0.204861
N86	N	1.425122	0.678864	0.704861
N87	N	0.944561	0.159501	-0.204671
N88	N	1.444561	0.659501	0.295329
C89	C	0.972833	0.131192	0.250145
C90	C	1.472833	0.631192	0.750145
C91	C	0.968547	0.135478	0.340718
C92	C	1.468547	0.635478	0.840718
C93	C	0.916555	0.187440	0.386003
C94	C	1.416555	0.687440	0.886003
C95	C	0.868839	0.235114	0.340712
C96	C	1.368839	0.735114	0.840712
C97	C	0.873121	0.230823	0.250142
C98	C	1.373121	0.730823	0.750142
C99	C	0.901128	0.202884	0.659467
C100	C	1.401128	0.702884	1.159467
C101	C	0.896851	0.207172	0.750044
C102	C	1.396851	0.707172	1.250044
C103	C	0.996559	0.107535	0.750044
C104	C	1.496559	0.607535	1.250044
C105	C	1.000840	0.103252	0.659471
C106	C	1.500840	0.603252	1.159471
C107	C	0.953121	0.150923	0.614188
C108	C	1.453121	0.650923	1.114188
C109	C	0.912174	0.191824	0.478582
C110	C	1.412174	0.691824	0.978582
C111	C	0.957498	0.146534	0.521610
C112	C	1.457498	0.646534	1.021610
H113	H	0.705095	0.028706	0.000090
H114	H	1.205095	0.528706	0.500090
O115	O	1.051117	0.052696	0.615252
O116	O	1.551117	0.552696	1.115252
C117	C	1.104852	0.095220	0.562554
C118	C	1.604852	0.595220	1.062554
H119	H	1.109509	0.158500	0.589834
H120	H	1.609509	0.658500	1.089834
H121	H	1.165027	0.066935	0.561156
H122	H	1.665027	0.566935	1.061156
H123	H	1.083474	0.094612	0.494059
H124	H	1.583474	0.594612	0.994059
H125	H	0.869842	0.234135	0.515461
H126	H	1.369842	0.734135	1.015461
H127	H	1.015175	0.088882	0.213280
H128	H	1.515175	0.588882	0.713280
O129	O	0.532551	0.284187	0.000036
O130	O	1.032551	0.784187	0.500036
C131	C	0.582265	0.351312	0.000043
C132	C	1.082265	0.851312	0.500043
H133	H	0.643363	0.334155	-0.027204
H134	H	1.143363	0.834155	0.472796
H135	H	0.557324	0.396940	-0.041734
H136	H	1.057324	0.896940	0.458266
H137	H	0.586307	0.377119	0.069069
H138	H	1.086307	0.877119	0.569069
H139	H	0.426857	0.076584	0.000130
H140	H	0.926857	0.576584	0.500130
H141	H	0.842237	-0.338796	0.000075
H142	H	1.342237	0.161204	0.500075
H143	H	1.087848	-0.452287	0.000111
H144	H	1.587848	0.047713	0.500111
O145	O	1.063322	-0.071421	0.000157
O146	O	1.563322	0.428579	0.500157
C147	C	1.054959	0.010744	0.000136
C148	C	1.554959	0.510744	0.500136
H149	H	0.993661	0.027191	0.027373
H150	H	1.493661	0.527191	0.527373
H151	H	1.100896	0.040940	0.041915
H152	H	1.600896	0.540940	0.541915
H153	H	1.063558	0.030540	-0.068893
H154	H	1.563558	0.530540	0.431107
O155	O	0.175692	0.040579	0.000163
O156	O	0.675692	0.540579	0.500163
C157	C	0.233532	-0.017491	0.000148
C158	C	0.733532	0.482509	0.500148
H159	H	0.289352	0.009509	0.027389
H160	H	0.789352	0.509509	0.527389
H161	H	0.211073	-0.067111	0.041925
H162	H	0.711073	0.432889	0.541925
H163	H	0.246942	-0.041826	-0.068881
H164	H	0.746942	0.458174	0.431119
H165	H	1.007397	0.096659	0.377588
H166	H	1.507397	0.596659	0.877588
O167	O	0.157496	0.320327	0.000214
O168	O	0.657496	0.820327	0.500214
C169	C	0.171193	0.368672	0.074741
C170	C	0.671193	0.868672	0.574741
H171	H	0.230872	0.354694	0.099583
H172	H	0.730872	0.854694	0.599583
H173	H	0.170581	0.432995	0.057978
H174	H	0.670581	0.932995	0.557978
H175	H	0.123205	0.357421	0.126928
H176	H	0.623205	0.857421	0.626928
O177	O	1.042865	0.061109	0.793940
O178	O	1.542865	0.561109	1.293940
C179	C	1.025956	-0.018535	0.771837
C180	C	1.525956	0.481465	1.271837
H181	H	0.998804	-0.023579	0.706080
H182	H	1.498804	0.476421	1.206080
H183	H	1.082558	-0.053403	0.768740
H184	H	1.582558	0.446597	1.268740
H185	H	0.982836	-0.043025	0.822819
H186	H	1.482836	0.456975	1.322819
H187	H	0.330070	0.064854	0.000122
H188	H	0.830070	0.564854	0.500122
H189	H	0.781832	-0.209350	0.000063
H190	H	1.281832	0.290650	0.500063
O191	O	0.694149	0.297705	-0.000099
O192	O	1.194149	0.797705	0.499901
C193	C	0.744851	0.302417	-0.074614
C194	C	1.244851	0.802417	0.425386
H195	H	0.725217	0.257626	-0.126694
H196	H	1.225217	0.757626	0.373306
H197	H	0.742888	0.364037	-0.099633
H198	H	1.242888	0.864037	0.400367
H199	H	0.807447	0.289400	-0.057770
H200	H	1.307447	0.789400	0.442230
O201	O	0.818288	0.285484	0.384797
O202	O	1.318288	0.785484	0.884797
C203	C	0.764557	0.242654	0.437188
C204	C	1.264557	0.742654	0.937188
H205	H	0.791110	0.183943	0.450761
H206	H	1.291110	0.683943	0.950761
H207	H	0.751304	0.277617	0.500873
H208	H	1.251304	0.777617	1.000873
H209	H	0.707810	0.231771	0.402295
H210	H	1.207810	0.731771	0.902295
O211	O	0.550716	0.004428	0.000139
O212	O	1.050716	0.504428	0.500139
C213	C	0.608562	-0.053636	0.000118
C214	C	1.108562	0.446364	0.500118
H215	H	0.664381	-0.026633	0.027358
H216	H	1.164381	0.473367	0.527358
H217	H	0.586110	-0.103260	0.041893
H218	H	1.086110	0.396740	0.541893
H219	H	0.621972	-0.077968	-0.068912
H220	H	1.121972	0.422032	0.431088
O221	O	0.318996	0.333921	-0.000036
O222	O	0.818996	0.833921	0.499964
C223	C	0.299683	0.371832	-0.074573
C224	C	0.799683	0.871832	0.425427
H225	H	0.242627	0.345459	-0.099405
H226	H	0.742627	0.845459	0.400595
H227	H	0.291855	0.437266	-0.057826
H228	H	0.791855	0.937266	0.442174
H229	H	0.348946	0.363427	-0.126761
H230	H	0.848946	0.863427	0.373239
O231	O	0.826860	0.277249	0.206187
O232	O	1.326860	0.777249	0.706187
C233	C	0.843732	0.356896	0.228317
C234	C	1.343732	0.856896	0.728317
H235	H	0.905455	0.362680	0.253205
H236	H	1.405455	0.862680	0.753205
H237	H	0.840133	0.392880	0.168747
H238	H	1.340133	0.892880	0.668747
H239	H	0.799251	0.379532	0.280891
H240	H	1.299251	0.879532	0.780891
H241	H	1.039164	-0.226049	0.000108
H242	H	1.539164	0.273951	0.500108
O243	O	1.085839	-0.608354	0.000063
O244	O	1.585839	-0.108354	0.500063
C245	C	1.063796	-0.688544	0.000080
C246	C	1.563796	-0.188544	0.500080
H247	H	1.003196	-0.697074	-0.027166
H248	H	1.503196	-0.197074	0.472834
H249	H	1.108447	-0.724624	-0.041693
H250	H	1.608447	-0.224624	0.458307
H251	H	1.061922	-0.708778	0.069109
H252	H	1.561922	-0.208778	0.569109
H253	H	0.830508	-0.435584	0.000061
H254	H	1.330508	0.064416	0.500061
H255	H	0.854510	0.249490	0.786912
H256	H	1.354510	0.749490	1.286912
O257	O	0.854749	0.249274	0.615621
O258	O	1.354749	0.749274	1.115621
C259	C	0.807931	0.296043	0.675016
C260	C	1.307931	0.796043	1.175016
H261	H	0.837140	0.302147	0.739570
H262	H	1.337140	0.802147	1.239570
H263	H	0.801354	0.356718	0.648840
H264	H	1.301354	0.856718	1.148840
H265	H	0.747442	0.267086	0.684666
H266	H	1.247442	0.767086	1.184666
H267	H	0.794361	-0.060560	0.000073
H268	H	1.294361	0.439440	0.500073
O269	O	0.806234	-0.589963	0.000015
O270	O	1.306234	-0.089963	0.500015
C271	C	0.748164	-0.532123	0.000019
C272	C	1.248164	-0.032123	0.500019
H273	H	0.775173	-0.476297	-0.027214
H274	H	1.275173	0.023703	0.472786
H275	H	0.698559	-0.554574	-0.041770
H276	H	1.198559	-0.054574	0.458230
H277	H	0.723805	-0.518727	0.069043
H278	H	1.223805	-0.018727	0.569043
O279	O	0.448569	0.273448	-0.000068
O280	O	0.948569	0.773448	0.499932
C281	C	0.499274	0.278145	-0.074582
C282	C	0.999274	0.778145	0.425418
H283	H	0.479635	0.233352	-0.126658
H284	H	0.979635	0.733352	0.373342
H285	H	0.497321	0.339763	-0.099609
H286	H	0.997321	0.839763	0.400391
H287	H	0.561867	0.265120	-0.057735
H288	H	1.061867	0.765120	0.442265
O289	O	1.039088	-0.317043	-0.000018
O290	O	1.539088	0.182957	0.499982
C291	C	1.050875	-0.273414	-0.074547
C292	C	1.550875	0.226586	0.425453
H293	H	0.991514	-0.258310	-0.099405
H294	H	1.491514	0.241690	0.400595
H295	H	1.084944	-0.216897	-0.057780
H296	H	1.584944	0.283103	0.442220
H297	H	1.085696	-0.309752	-0.126723
H298	H	1.585696	0.190248	0.373277
O299	O	1.007881	0.095989	0.477546
O300	O	1.507881	0.595989	0.977546
C301	C	0.965053	0.042225	0.425213
C302	C	1.465053	0.542225	0.925213
H303	H	0.906333	0.068758	0.411639
H304	H	1.406333	0.568758	0.911639
H305	H	1.000009	0.028948	0.361524
H306	H	1.500009	0.528948	0.861524
H307	H	0.954185	-0.014504	0.460155
H308	H	1.454185	0.485496	0.960155
