data_functionalizedCrystal
_audit_creation_method	'MofGen! by Chris Wilmer'
_symmetry_space_group_name_H-M	'P1'
_symmetry_Int_Tables_number	1
_symmetry_cell_setting	triclinic
loop_
_symmetry_equiv_pos_as_xyz
  x,y,z
_cell_length_a	10.723024
_cell_length_b	10.723022
_cell_length_c	13.101032
_cell_angle_alpha	93.392665
_cell_angle_beta	93.394933
_cell_angle_gamma	95.532452
loop_
_atom_site_label
_atom_site_type_symbol
_atom_site_fract_x
_atom_site_fract_y
_atom_site_fract_z
O1	O	-1.664003	0.168202	-0.085220
O2	O	-1.300850	0.184956	-0.085220
O3	O	-1.490804	-0.004997	-0.085217
O4	O	-1.474049	0.358155	-0.085224
O5	O	-1.477158	0.008646	0.085213
O6	O	-1.287204	0.198599	0.085210
O7	O	-1.650357	0.181846	0.085210
Zn8	Zn	-1.466614	0.192388	0.112269
Zn9	Zn	-1.484593	0.174413	-0.112280
O10	O	-1.460403	0.371798	0.085206
C11	C	-1.247528	0.190558	-0.000005
C12	C	-1.108973	0.186910	-0.000005
C13	C	-0.917217	0.073603	-0.000003
C14	C	-1.060420	0.077371	-0.000003
C15	C	-1.482762	-0.044675	-0.000003
C16	C	-1.479115	-0.183230	-0.000006
C17	C	-0.703679	0.176243	-0.000005
C18	C	-0.842233	0.179891	-0.000005
C19	C	-1.369576	-0.231791	-0.000008
C20	C	-1.365804	-0.374994	-0.000012
C21	C	-1.468445	0.411476	-0.000010
C22	C	-1.472092	0.550030	-0.000013
N23	N	-1.454353	0.204656	0.265518
C24	C	-1.513532	0.145456	0.525428
C25	C	-1.437682	0.221347	0.474554
C26	C	-1.446960	0.212057	0.358236
C27	C	-1.504255	0.154744	0.641758
N28	N	-1.496857	0.162151	0.734471
H29	H	-1.124853	-0.013620	-0.000008
H30	H	-1.044548	0.277905	-0.000011
F31	F	-0.896890	0.302481	-0.000001
H32	H	-1.585434	0.073513	0.481630
H33	H	-1.272017	-0.416807	-0.000019
F34	F	-0.862559	-0.048986	0.000006
H35	H	-1.570104	-0.247672	-0.000003
H36	H	-1.365777	0.293296	0.518358
H37	H	-1.565887	-0.408169	-0.000050
F38	F	-1.250641	-0.147566	-0.000001
