data_functionalizedCrystal
_audit_creation_method	'MofGen! by Chris Wilmer'
_symmetry_space_group_name_H-M	'P1'
_symmetry_Int_Tables_number	1
_symmetry_cell_setting	triclinic
loop_
_symmetry_equiv_pos_as_xyz
  x,y,z
_cell_length_a	13.032831
_cell_length_b	15.297327
_cell_length_c	13.033109
_cell_angle_alpha	107.902170
_cell_angle_beta	76.665514
_cell_angle_gamma	93.742008
loop_
_atom_site_label
_atom_site_type_symbol
_atom_site_fract_x
_atom_site_fract_y
_atom_site_fract_z
Zn1	Zn	1.587185	-0.634181	-0.919127
Zn2	Zn	1.541562	-0.763090	-0.764422
Zn3	Zn	1.394822	-0.590304	-0.711221
Zn4	Zn	1.386591	-0.763011	-0.919452
O5	O	1.477540	-0.687646	-0.828556
O6	O	1.726493	-0.669677	-0.920734
O7	O	1.506448	-0.721840	-0.605475
O8	O	1.442878	-0.469897	-0.716400
O9	O	1.692974	-0.764386	-0.807073
O10	O	1.584206	-0.502133	-0.869147
O11	O	1.398639	-0.594895	-0.566389
O12	O	1.248370	-0.594818	-0.716715
O13	O	1.428848	-0.764251	-1.071299
O14	O	1.242322	-0.721705	-0.869701
O15	O	1.576224	-0.669600	-1.071060
O16	O	1.498466	-0.889307	-0.807388
O17	O	1.384610	-0.889249	-0.921288
C18	C	1.207656	-0.653492	-0.787471
C19	C	1.092197	-0.638905	-0.769925
C20	C	1.435725	-0.922014	-0.870174
C21	C	1.417935	-1.022293	-0.888029
C22	C	1.037731	-0.695259	-0.837713
C23	C	0.918398	-0.680185	-0.819580
C24	C	1.605153	-1.305013	-0.701377
C25	C	1.621867	-1.210795	-0.684595
C26	C	1.570886	-1.163665	-0.735453
C27	C	1.503187	-1.210763	-0.803094
C28	C	1.486466	-1.304989	-0.819870
C29	C	1.452198	-1.163641	-0.853946
C30	C	1.384500	-1.210738	-0.921587
C31	C	1.367782	-1.304955	-0.938361
C32	C	1.418763	-1.352085	-0.887504
C33	C	1.468919	-1.069414	-0.837170
C34	C	1.350232	-1.069390	-0.955663
C35	C	1.333519	-1.163608	-0.972444
C36	C	1.748478	-0.721935	-0.869801
C37	C	1.863935	-0.736547	-0.887378
C38	C	1.506707	-0.721811	-1.111664
C39	C	1.519136	-0.736370	-1.232307
C40	C	1.519549	-0.452370	-0.786803
C41	C	1.537451	-0.352110	-0.769010
C42	C	1.471336	-0.680051	-1.266755
C43	C	1.484181	-0.695097	-1.391446
C44	C	1.448557	-0.653557	-0.546547
C45	C	1.436374	-0.638770	-0.425889
H46	H	1.079448	-0.754664	-0.909177
Cl47	Cl	1.562046	-0.786750	-1.488426
H48	H	1.646648	-1.343394	-0.659969
H49	H	0.876688	-0.620771	-0.748118
Cl50	Cl	1.397288	-1.470429	-0.908093
H51	H	0.905647	-0.795954	-0.958850
Cl52	Cl	1.027802	-0.547178	-0.659595
H53	H	1.420898	-0.620698	-1.203935
Cl54	Cl	1.592213	-1.045289	-0.714695
H55	H	1.569568	-0.795727	-1.295128
Cl56	Cl	1.282670	-1.364161	-1.023390
Cl57	Cl	1.248414	-1.222828	-1.057476
Cl58	Cl	1.554023	-1.010217	-0.752138
H59	H	1.676985	-1.172451	-0.629521
Cl60	Cl	1.286130	-1.010146	-1.019594
Cl61	Cl	1.358472	-0.547139	-1.328912
