data_functionalizedCrystal
_audit_creation_method	'MofGen! by Chris Wilmer'
_symmetry_space_group_name_H-M	'P1'
_symmetry_Int_Tables_number	1
_symmetry_cell_setting	triclinic
loop_
_symmetry_equiv_pos_as_xyz
  x,y,z
_cell_length_a	20.299480
_cell_length_b	20.298645
_cell_length_c	20.294903
_cell_angle_alpha	60.007695
_cell_angle_beta	60.015306
_cell_angle_gamma	59.991039
loop_
_atom_site_label
_atom_site_type_symbol
_atom_site_fract_x
_atom_site_fract_y
_atom_site_fract_z
O1	O	0.091305	-0.962534	0.804873
O2	O	0.034397	-0.749399	0.648508
O3	O	0.169355	-0.884263	0.648401
O4	O	-0.043654	-0.827670	0.804979
O5	O	0.214132	-0.839502	0.693072
O6	O	0.079173	-0.704639	0.693178
O7	O	0.136081	-0.917774	0.849544
Zn8	Zn	0.114736	-0.804099	0.778453
Zn9	Zn	0.055742	-0.863073	0.719598
O10	O	0.001122	-0.782910	0.849650
N11	N	0.155000	-0.763857	0.818624
N12	N	0.015485	-0.903322	0.679427
C13	C	0.179343	-0.615641	0.842971
C14	C	0.179443	-0.739552	0.966834
C15	C	0.303264	-0.739536	0.842917
C16	C	0.179356	-0.739528	0.842952
C17	C	0.210353	-0.708565	0.873918
C18	C	-0.132622	-0.927446	0.654695
C19	C	-0.008595	-0.927622	0.530981
C20	C	-0.008820	-1.051459	0.654914
C21	C	-0.008800	-0.927618	0.654995
C22	C	-0.039709	-0.958538	0.623897
N23	N	0.376268	-0.763873	0.818558
O24	O	0.652281	-0.777347	0.619856
O25	O	0.652556	-0.934198	0.832777
O26	O	0.652445	-0.933836	0.697731
O27	O	0.652392	-0.777709	0.754902
O28	O	0.518259	-0.889182	0.742556
O29	O	0.518369	-0.889544	0.877602
O30	O	0.518095	-0.732693	0.664680
Zn31	Zn	0.496927	-0.804029	0.778258
Zn32	Zn	0.673724	-0.862862	0.719200
O33	O	0.518205	-0.733055	0.799726
N34	N	0.794383	-0.903019	0.678891
N35	N	0.154981	-0.542636	0.818657
O36	O	-0.043628	-0.266455	0.805024
O37	O	0.169291	-0.266451	0.648191
O38	O	0.034217	-0.266468	0.648577
O39	O	0.091446	-0.266438	0.804638
O40	O	0.078998	-0.400670	0.693303
O41	O	0.214071	-0.400653	0.692918
O42	O	0.001152	-0.400657	0.849750
Zn43	Zn	0.114722	-0.421963	0.778435
Zn44	Zn	0.055722	-0.245145	0.719506
O45	O	0.136226	-0.400640	0.849364
N46	N	0.015453	-0.124472	0.679286
N47	N	0.155155	-0.763898	1.039838
O48	O	0.141555	-0.962488	1.315987
O49	O	-0.015254	-0.749480	1.316022
O50	O	-0.014890	-0.884527	1.315962
O51	O	0.141192	-0.827441	1.316047
O52	O	0.029815	-0.839777	1.181768
O53	O	0.029452	-0.704730	1.181828
O54	O	0.186261	-0.917739	1.181793
Zn55	Zn	0.114954	-0.804130	1.160504
Zn56	Zn	0.056053	-0.863089	1.337311
O57	O	0.185897	-0.782692	1.181853
N58	N	0.015850	-0.903330	1.457977
C59	C	0.051451	-0.700162	0.649301
C60	C	0.218580	-0.867175	0.649169
C61	C	0.119026	-0.967011	0.848750
C62	C	-0.048103	-0.799998	0.848882
C63	C	0.585495	-0.933471	0.882014
C64	C	0.585361	-0.933023	0.714775
C65	C	0.585151	-0.733419	0.615444
C66	C	0.585291	-0.733869	0.782682
C67	C	0.218449	-0.333386	0.648902
C68	C	0.051232	-0.333573	0.649435
C69	C	-0.048061	-0.333556	0.848984
C70	C	0.119212	-0.333537	0.848507
C71	C	-0.014496	-0.700269	1.248929
C72	C	-0.014037	-0.867500	1.248828
C73	C	0.185503	-0.966949	1.248886
C74	C	0.185054	-0.799709	1.248957
H75	H	0.279759	-0.879241	0.599998
C76	C	0.299733	-0.332772	0.582964
C77	C	0.288672	-0.263597	0.515697
C78	C	0.363533	-0.263015	0.454935
H79	H	0.333689	-0.332623	0.602285
H80	H	0.324057	-0.379449	0.568046
H81	H	0.264360	-0.216932	0.530614
H82	H	0.254730	-0.263731	0.496352
H83	H	0.387856	-0.309693	0.440017
H84	H	0.397483	-0.262869	0.474264
H85	H	0.356037	-0.216085	0.409285
C86	C	-0.129716	-0.783750	0.914359
C87	C	-0.179442	-0.704994	0.885329
C88	C	-0.254624	-0.689994	0.945628
H89	H	-0.154003	-0.820963	0.929103
H90	H	-0.122695	-0.789772	0.960212
H91	H	-0.186464	-0.698980	0.839491
H92	H	-0.155180	-0.667765	0.870591
H93	H	-0.247603	-0.696015	0.991480
H94	H	-0.278904	-0.727211	0.960367
H95	H	-0.288369	-0.636555	0.925942
C96	C	0.584997	-0.667635	0.533978
C97	C	0.584933	-0.598687	0.534099
C98	C	0.584780	-0.538067	0.459071
H99	H	0.631758	-0.685995	0.492829
H100	H	0.538164	-0.654914	0.524157
H101	H	0.631761	-0.611407	0.543911
H102	H	0.538176	-0.580303	0.575232
H103	H	0.537947	-0.525346	0.449250
H104	H	0.631541	-0.556435	0.417928
H105	H	0.584729	-0.491277	0.459146
H106	H	-0.109209	-0.333558	0.898221
C107	C	-0.079278	-0.883889	1.248677
C108	C	-0.050008	-0.962653	1.248610
C109	C	-0.110081	-0.977775	1.248460
H110	H	-0.125217	-0.877932	1.295442
H111	H	-0.093936	-0.846679	1.201843
H112	H	-0.035361	-0.999852	1.295440
H113	H	-0.004077	-0.968628	1.201849
H114	H	-0.124739	-0.940565	1.201626
H115	H	-0.156016	-0.971815	1.295225
H116	H	-0.090227	-1.031214	1.248407
C117	C	0.585227	-0.668557	0.799158
C118	C	0.585292	-0.697816	0.877926
C119	C	0.585222	-0.637671	0.893136
H120	H	0.631971	-0.653788	0.761988
H121	H	0.538377	-0.622681	0.793227
H122	H	0.632136	-0.743677	0.883850
H123	H	0.538551	-0.712579	0.915112
H124	H	0.538373	-0.591795	0.887205
H125	H	0.631967	-0.622906	0.855962
H126	H	0.585259	-0.657511	0.946583
H127	H	0.234736	-1.028122	1.248866
C128	C	0.135369	-1.048713	0.914119
C129	C	0.214115	-1.098367	0.884973
C130	C	0.229195	-1.173640	0.945164
H131	H	0.129408	-1.041834	0.960017
H132	H	0.098148	-1.072977	0.928812
H133	H	0.251325	-1.074108	0.870291
H134	H	0.220095	-1.105269	0.839082
H135	H	0.191974	-1.197904	0.959857
H136	H	0.223229	-1.166753	0.991058
H137	H	0.282622	-1.207342	0.925394
H138	H	0.585565	-0.982710	0.943168
H139	H	0.585383	-0.982069	0.702538
H140	H	0.131466	-0.333527	0.897533
H141	H	0.038975	-0.333574	0.600406
C142	C	0.250468	-0.783331	1.248810
C143	C	0.268810	-0.718452	1.179774
C144	C	0.329072	-0.703348	1.179606
H145	H	0.231920	-0.770474	1.295561
H146	H	0.297463	-0.829953	1.248761
H147	H	0.221824	-0.671840	1.179831
H148	H	0.287371	-0.731291	1.133012
H149	H	0.376067	-0.749970	1.179556
H150	H	0.310518	-0.690495	1.226360
H151	H	0.341530	-0.659332	1.132762
C152	C	0.035078	-0.618490	0.583902
C153	C	-0.043682	-0.568850	0.613034
C154	C	-0.058797	-0.493613	0.552808
H155	H	0.072259	-0.594164	0.569151
H156	H	0.041056	-0.625455	0.538038
H157	H	-0.049652	-0.561884	0.658884
H158	H	-0.080879	-0.593151	0.627779
H159	H	-0.052819	-0.500577	0.506944
H160	H	-0.021611	-0.469294	0.538061
H161	H	-0.112238	-0.459925	0.572563
C162	C	-0.080054	-0.618660	1.248982
C163	C	-0.051150	-0.568875	1.249034
C164	C	-0.111522	-0.493695	1.249093
H165	H	-0.094764	-0.594407	1.202191
H166	H	-0.125903	-0.625689	1.295790
H167	H	-0.005315	-0.561845	1.202230
H168	H	-0.036445	-0.593103	1.295821
H169	H	-0.157372	-0.500723	1.295902
H170	H	-0.126229	-0.469449	1.202302
H171	H	-0.091922	-0.459909	1.249136
