data_functionalizedCrystal
_audit_creation_method	'MofGen! by Chris Wilmer'
_symmetry_space_group_name_H-M	'P1'
_symmetry_Int_Tables_number	1
_symmetry_cell_setting	triclinic
loop_
_symmetry_equiv_pos_as_xyz
  x,y,z
_cell_length_a	14.044220
_cell_length_b	14.472310
_cell_length_c	14.044220
_cell_angle_alpha	90.001238
_cell_angle_beta	93.188878
_cell_angle_gamma	90.008418
loop_
_atom_site_label
_atom_site_type_symbol
_atom_site_fract_x
_atom_site_fract_y
_atom_site_fract_z
O1	O	1.277180	0.076746	0.230162
O2	O	1.777180	0.576746	0.730162
O3	O	1.000508	0.076770	0.221856
O4	O	1.500508	0.576770	0.721856
O5	O	1.134691	0.076749	0.087673
O6	O	1.634691	0.576749	0.587673
O7	O	1.142997	0.076767	0.364345
O8	O	1.642997	0.576767	0.864345
O9	O	1.134654	-0.076933	0.087679
O10	O	1.634654	0.423067	0.587679
O11	O	1.000471	-0.076912	0.221862
O12	O	1.500471	0.423088	0.721862
O13	O	1.277143	-0.076936	0.230167
O14	O	1.777143	0.423064	0.730167
Cu15	Cu	1.138804	-0.090956	0.226015
Cu16	Cu	1.638804	0.409044	0.726015
Cu17	Cu	1.138848	0.090790	0.226009
Cu18	Cu	1.638848	0.590790	0.726009
O19	O	1.142960	-0.076915	0.364350
O20	O	1.642960	0.423085	0.864350
C21	C	0.964868	-0.000069	0.218223
C22	C	1.464868	0.499931	0.718223
C23	C	0.858725	-0.000060	0.207379
C24	C	1.358725	0.499940	0.707379
N25	N	1.138780	-0.218787	0.226019
N26	N	1.638780	0.281213	0.726019
C27	C	0.664388	-0.000079	0.187553
C28	C	1.164388	0.499921	0.687553
C29	C	0.613258	-0.000078	0.264467
C30	C	1.113258	0.499922	0.764467
C31	C	0.505122	-0.000089	0.253435
C32	C	1.005122	0.499911	0.753435
C33	C	0.772534	-0.000069	0.198583
C34	C	1.272534	0.499931	0.698583
C35	C	1.138846	-0.592879	0.226005
C36	C	1.638846	-0.092879	0.726005
C37	C	1.066762	-0.553702	0.297518
C38	C	1.566762	-0.053702	0.797518
C39	C	1.066968	-0.446614	0.297819
C40	C	1.566968	0.053386	0.797819
C41	C	1.138812	-0.407287	0.226012
C42	C	1.638812	0.092713	0.726012
C43	C	1.240266	-0.446131	0.256192
C44	C	1.740266	0.053869	0.756192
C45	C	1.239871	-0.553253	0.256710
C46	C	1.739871	-0.053253	0.756710
C47	C	1.110345	-0.553412	0.124155
C48	C	1.610345	-0.053412	0.624155
C49	C	1.108117	-0.446285	0.124630
C50	C	1.608117	0.053715	0.624630
C51	C	1.138800	-0.302399	0.226015
C52	C	1.638800	0.197601	0.726015
C53	C	1.138866	-0.697767	0.226005
C54	C	1.638866	-0.197767	0.726005
C55	C	1.312783	-0.000096	0.233800
C56	C	1.812783	0.499904	0.733800
C57	C	1.418926	-0.000098	0.244645
C58	C	1.918926	0.499902	0.744645
C59	C	1.131037	-0.000092	0.052054
C60	C	1.631037	0.499908	0.552054
C61	C	1.120193	-0.000092	-0.054088
C62	C	1.620193	0.499908	0.445912
N63	N	1.138878	0.218621	0.225997
N64	N	1.638878	0.718621	0.725997
C65	C	1.100366	-0.000077	-0.248426
C66	C	1.600366	0.499923	0.251574
C67	C	1.177281	-0.000081	-0.299556
C68	C	1.677281	0.499919	0.200444
C69	C	1.166249	-0.000072	-0.407692
C70	C	1.666249	0.499928	0.092308
C71	C	1.111397	-0.000085	-0.140280
C72	C	1.611397	0.499915	0.359720
C73	C	1.146614	-0.000072	0.399969
C74	C	1.646614	0.499928	0.899969
C75	C	1.157459	-0.000066	0.506112
C76	C	1.657459	0.499934	1.006112
H77	H	0.650697	-0.000069	0.338600
H78	H	1.150697	0.499931	0.838600
Br79	Br	1.332577	-0.596451	0.173815
Br80	Br	1.832577	-0.096451	0.673815
Br81	Br	0.601990	-0.000092	0.063998
Br82	Br	1.101990	0.499908	0.563998
Br83	Br	0.976812	-0.000059	-0.310824
Br84	Br	1.476812	0.499941	0.189176
H85	H	0.991826	-0.420352	0.278595
H86	H	1.491826	0.079648	0.778595
Br87	Br	1.300843	-0.000099	-0.237160
Br88	Br	1.800843	0.499901	0.262840
H89	H	0.991399	-0.579484	0.278487
H90	H	1.491399	-0.079484	0.778487
H91	H	1.295538	-0.420656	0.205843
H92	H	1.795538	0.079344	0.705843
H93	H	1.085627	-0.580608	0.372490
H94	H	1.585627	-0.080608	0.872490
H95	H	1.086045	-0.420976	0.373224
H96	H	1.586045	0.079024	0.873224
Br97	Br	1.279588	-0.594881	0.380940
Br98	Br	1.779588	-0.094881	0.880940
H99	H	1.264447	-0.419291	0.329931
H100	H	1.764447	0.080709	0.829931
H101	H	1.033443	-0.420897	0.101922
H102	H	1.533443	0.079103	0.601922
Br103	Br	1.188870	-0.401687	0.030686
Br104	Br	1.688870	0.098313	0.530686
Br105	Br	0.988937	-0.598486	0.079286
Br106	Br	1.488937	-0.098486	0.579286
H107	H	1.162814	-0.578746	0.070838
H108	H	1.662814	-0.078746	0.570838
