data_functionalizedCrystal
_audit_creation_method	'MofGen! by Chris Wilmer'
_symmetry_space_group_name_H-M	'P1'
_symmetry_Int_Tables_number	1
_symmetry_cell_setting	triclinic
loop_
_symmetry_equiv_pos_as_xyz
  x,y,z
_cell_length_a	23.532407
_cell_length_b	22.610064
_cell_length_c	10.654550
_cell_angle_alpha	90.004269
_cell_angle_beta	96.333196
_cell_angle_gamma	90.002839
loop_
_atom_site_label
_atom_site_type_symbol
_atom_site_fract_x
_atom_site_fract_y
_atom_site_fract_z
O1	O	0.756257	0.049111	-0.152421
O2	O	0.590537	0.049128	-0.174478
O3	O	0.677207	0.049115	0.019410
O4	O	0.669587	0.049123	-0.346310
O5	O	0.677192	-0.049254	0.019382
O6	O	0.590522	-0.049241	-0.174506
O7	O	0.756241	-0.049259	-0.152450
Zn8	Zn	0.673379	-0.064868	-0.163483
Zn9	Zn	0.673399	0.064738	-0.163445
O10	O	0.669571	-0.049246	-0.346338
C11	C	0.569310	-0.000054	-0.173931
C12	C	0.506082	-0.000048	-0.172242
C13	C	0.107657	-0.000072	-0.276389
C14	C	0.048247	-0.000076	-0.274820
O15	O	0.012131	-0.000095	-0.371366
N16	N	0.024869	-0.000078	-0.159554
C17	C	0.060906	-0.000082	-0.045849
O18	O	0.035567	-0.000084	0.052339
C19	C	0.120315	-0.000082	-0.047419
C20	C	0.143689	-0.000075	-0.162693
C21	C	0.131031	-0.000065	-0.391654
C22	C	0.190438	-0.000061	-0.393222
C23	C	0.226470	-0.000063	-0.279525
C24	C	0.203095	-0.000070	-0.164261
C25	C	0.156351	-0.000090	0.066285
C26	C	0.215764	-0.000091	0.064705
C27	C	0.239138	-0.000084	-0.050569
C28	C	0.298534	-0.000067	-0.052133
N29	N	0.321911	-0.000066	-0.167399
C30	C	0.285879	-0.000063	-0.281096
C31	C	-0.063858	-0.000081	-0.042560
C32	C	-0.123266	-0.000077	-0.040989
C33	C	-0.135922	-0.000072	-0.269961
C34	C	-0.076512	-0.000073	-0.271531
C35	C	-0.040481	-0.000080	-0.157827
C36	C	0.410637	-0.000053	-0.284380
C37	C	0.470049	-0.000046	-0.285938
C38	C	0.482700	-0.000053	-0.056967
C39	C	0.423293	-0.000057	-0.055408
C40	C	0.387262	-0.000059	-0.169125
O41	O	0.334684	-0.000050	0.044362
O42	O	0.311227	-0.000069	-0.379267
N43	N	0.673369	-0.153321	-0.163507
C44	C	0.711778	-0.561968	-0.077605
C45	C	0.711781	-0.623888	-0.077595
O46	O	0.744414	-0.655911	-0.004577
N47	N	0.673399	-0.654858	-0.163419
C48	C	0.635007	-0.623905	-0.249249
O49	O	0.602359	-0.655933	-0.322247
C50	C	0.635001	-0.561986	-0.249251
C51	C	0.673391	-0.531019	-0.163430
C52	C	0.750164	-0.531001	0.008210
C53	C	0.750162	-0.469085	0.008199
C54	C	0.711774	-0.438136	-0.077627
C55	C	0.673388	-0.469103	-0.163441
C56	C	0.596607	-0.531034	-0.335074
C57	C	0.596605	-0.469111	-0.335068
C58	C	0.634994	-0.438144	-0.249248
C59	C	0.634998	-0.376239	-0.249278
N60	N	0.673381	-0.345269	-0.163455
C61	C	0.711769	-0.376218	-0.077629
C62	C	0.635020	-0.753938	-0.249237
C63	C	0.635027	-0.815856	-0.249242
C64	C	0.711801	-0.815835	-0.077586
C65	C	0.711796	-0.753916	-0.077588
C66	C	0.673402	-0.722968	-0.163413
C67	C	0.711761	-0.246190	-0.077659
C68	C	0.711757	-0.184269	-0.077681
C69	C	0.634981	-0.184296	-0.249332
C70	C	0.634987	-0.246212	-0.249315
C71	C	0.673379	-0.277157	-0.163468
O72	O	0.602381	-0.344176	-0.322256
O73	O	0.744406	-0.344182	-0.004632
C74	C	0.777469	-0.000075	-0.152997
C75	C	0.840697	-0.000078	-0.154686
C76	C	0.676640	-0.000069	0.066176
C77	C	0.674966	-0.000068	0.205567
N78	N	0.673413	0.153190	-0.163411
C79	C	0.670138	-0.000060	-0.393104
C80	C	0.671812	-0.000057	-0.532494
C81	C	0.725996	-0.000073	0.286669
C82	C	0.724419	-0.000066	0.417640
C83	C	0.620779	-0.000051	0.386393
C84	C	0.622356	-0.000054	0.255425
H85	H	0.512048	-0.000053	0.035602
Br86	Br	0.553095	-0.000039	0.145347
H87	H	0.577945	-0.000040	0.427004
H88	H	0.489077	-0.000039	-0.379812
H89	H	0.565347	-0.556239	-0.404957
H90	H	0.381308	-0.000056	-0.376980
Br91	Br	0.582913	-0.711944	-0.365732
H92	H	0.743058	-0.841044	-0.007700
H93	H	0.565338	-0.443917	-0.404956
Br94	Br	0.582887	-0.142285	-0.365810
H95	H	0.404261	-0.000055	0.038457
H96	H	0.209463	-0.000054	-0.487090
H97	H	0.603773	-0.841065	-0.319138
H98	H	0.768834	-0.000083	0.246079
H99	H	0.765973	-0.000069	0.483669
H100	H	0.603733	-0.271426	-0.319210
H101	H	0.743023	-0.271379	-0.007753
H102	H	0.101699	-0.000066	-0.484244
Br103	Br	0.763862	-0.142245	0.038792
H104	H	-0.057486	-0.000070	-0.365397
H105	H	-0.142291	-0.000074	0.052879
Br106	Br	-0.184834	-0.000071	-0.424265
H107	H	-0.034524	-0.000082	0.050038
H108	H	0.245099	-0.000098	0.157299
Br109	Br	0.124645	-0.000088	0.222738
H110	H	0.781420	-0.443875	0.078085
H111	H	0.781424	-0.556193	0.078106
Br112	Br	0.763897	-0.711896	0.038887
