data_functionalizedCrystal
_audit_creation_method	'MofGen! by Chris Wilmer'
_symmetry_space_group_name_H-M	'P1'
_symmetry_Int_Tables_number	1
_symmetry_cell_setting	triclinic
loop_
_symmetry_equiv_pos_as_xyz
  x,y,z
_cell_length_a	14.908571
_cell_length_b	19.120786
_cell_length_c	14.908308
_cell_angle_alpha	89.316475
_cell_angle_beta	89.824947
_cell_angle_gamma	89.019960
loop_
_atom_site_label
_atom_site_type_symbol
_atom_site_fract_x
_atom_site_fract_y
_atom_site_fract_z
Zn1	Zn	1.326486	-0.364755	0.566477
Zn2	Zn	1.329365	-0.475309	0.409721
Zn3	Zn	1.185494	-0.351330	0.408252
Zn4	Zn	1.170436	-0.474479	0.551420
O5	O	1.252945	-0.416468	0.483967
O6	O	1.452386	-0.385386	0.552599
O7	O	1.317787	-0.453592	0.284006
O8	O	1.209293	-0.255305	0.434927
O9	O	1.454502	-0.466610	0.437431
O10	O	1.312880	-0.265169	0.551175
O11	O	1.212085	-0.362505	0.282927
O12	O	1.057978	-0.361700	0.420327
O13	O	1.183630	-0.465195	0.678937
O14	O	1.046915	-0.452177	0.525513
O15	O	1.298279	-0.384581	0.689999
O16	O	1.303186	-0.573005	0.422831
O17	O	1.186422	-0.572395	0.526937
C18	C	1.019901	-0.405392	0.471127
C19	C	0.920201	-0.400672	0.465654
C20	C	0.721386	-0.486147	0.564738
C21	C	0.627709	-0.481714	0.559598
C22	C	0.639169	-0.387369	0.450242
C23	C	0.732846	-0.391802	0.455381
C24	C	0.773951	-0.441194	0.512630
C25	C	0.867630	-0.445630	0.517764
C26	C	0.879087	-0.351282	0.408413
C27	C	0.785410	-0.346849	0.403274
C28	C	1.243506	-0.598062	0.473430
C29	C	1.239548	-0.675754	0.468957
C30	C	1.291575	-0.717328	0.527424
C31	C	1.287852	-0.790327	0.523222
C32	C	1.232106	-0.821751	0.460549
C33	C	1.180074	-0.780171	0.402079
C34	C	1.183792	-0.707173	0.406286
C35	C	1.218179	-1.041904	0.444821
C36	C	1.214466	-1.114908	0.440617
C37	C	1.322244	-1.125059	0.561761
C38	C	1.325961	-1.052059	0.565958
C39	C	1.273925	-1.010486	0.507492
C40	C	1.228302	-0.896368	0.456250
C41	C	1.277725	-0.935870	0.511796
C42	C	1.486900	-0.427588	0.496858
C43	C	1.586597	-0.432327	0.502352
C44	C	1.238954	-0.426293	0.717924
C45	C	1.232991	-0.430480	0.817623
C46	C	1.262445	-0.234168	0.494567
C47	C	1.266493	-0.156482	0.499083
C48	C	1.266937	-0.406634	0.250926
C49	C	1.273083	-0.402259	0.151249
C50	C	1.341170	-0.354387	1.016488
C51	C	1.335570	-0.358318	1.110164
C52	C	1.216189	-0.442270	1.098652
C53	C	1.221789	-0.438338	1.004976
C54	C	1.284282	-0.394396	0.963898
C55	C	1.289885	-0.390469	0.870220
C56	C	1.170500	-0.474416	0.858710
C57	C	1.164901	-0.478347	0.952386
H58	H	0.921896	-0.314679	0.365981
C59	C	0.766605	-0.540475	0.627703
H60	H	0.721882	-0.566612	0.658004
H61	H	0.803622	-0.571171	0.593568
H62	H	0.802198	-0.517154	0.670399
C63	C	0.593946	-0.333039	0.387282
H64	H	0.638667	-0.306895	0.356987
H65	H	0.558344	-0.356352	0.344594
H66	H	0.556938	-0.302339	0.421430
C67	C	1.345084	-0.836057	0.587533
H68	H	1.378825	-0.806887	0.625453
H69	H	1.306957	-0.864555	0.623056
H70	H	1.384796	-0.864933	0.553761
C71	C	1.387297	-1.017498	0.634885
H72	H	1.417750	-1.052714	0.669105
H73	H	1.429901	-0.989428	0.604385
H74	H	1.352078	-0.989039	0.673697
H75	H	1.175811	-1.008060	0.397214
C76	C	1.096168	-0.526682	0.997577
H77	H	1.100983	-0.523297	1.060900
H78	H	1.037350	-0.512952	0.979499
H79	H	1.107780	-0.573624	0.980221
C80	C	1.398151	-0.314312	1.168011
H81	H	1.436173	-0.287585	1.130126
H82	H	1.363243	-0.283764	1.204436
H83	H	1.433661	-0.344444	1.205149
H84	H	1.364608	-1.158916	0.609361
H85	H	0.751929	-0.306634	0.356666
C86	C	1.358617	-0.342130	0.825034
H87	H	1.391687	-0.318860	0.869775
H88	H	1.398496	-0.369183	0.789088
H89	H	1.328063	-0.308513	0.788374
H90	H	0.901096	-0.485848	0.564377
C91	C	1.153136	-1.149472	0.371680
H92	H	1.122670	-1.114258	0.337468
H93	H	1.188361	-1.177927	0.332875
H94	H	1.110528	-1.177549	0.402177
C95	C	1.352884	-0.682768	0.596375
H96	H	1.383325	-0.717987	0.630602
H97	H	1.395499	-0.654688	0.565906
H98	H	1.317638	-0.654319	0.635176
H99	H	1.134681	-0.805762	0.351053
C100	C	1.166987	-0.930933	0.387309
H101	H	1.136528	-0.895721	0.353089
H102	H	1.202217	-0.959392	0.348513
H103	H	1.124373	-0.959007	0.417802
C104	C	1.409905	-0.306053	0.971299
H105	H	1.442982	-0.282785	1.016037
H106	H	1.449778	-0.333110	0.935351
H107	H	1.379354	-0.272434	0.934640
H108	H	1.141425	-0.673323	0.358678
H109	H	1.323110	-0.910283	0.562827
C110	C	1.147447	-0.490593	1.143849
H111	H	1.152263	-0.487202	1.207171
H112	H	1.088633	-0.476855	1.125769
H113	H	1.159047	-0.537538	1.126502
H114	H	1.124180	-0.506996	0.815880
H115	H	0.584914	-0.518318	0.602032
