data_functionalizedCrystal
_audit_creation_method	'MofGen! by Chris Wilmer'
_symmetry_space_group_name_H-M	'P1'
_symmetry_Int_Tables_number	1
_symmetry_cell_setting	triclinic
loop_
_symmetry_equiv_pos_as_xyz
  x,y,z
_cell_length_a	29.839131
_cell_length_b	18.215407
_cell_length_c	29.839125
_cell_angle_alpha	90.010341
_cell_angle_beta	89.982291
_cell_angle_gamma	89.962959
loop_
_atom_site_label
_atom_site_type_symbol
_atom_site_fract_x
_atom_site_fract_y
_atom_site_fract_z
Zn1	Zn	-0.178969	-1.124933	-0.253986
Zn2	Zn	-0.254081	-1.124822	-0.178855
Zn3	Zn	-0.178960	-1.001882	-0.178870
Zn4	Zn	-0.254067	-1.001796	-0.253959
O5	O	-0.216519	-1.063358	-0.216418
O6	O	-0.188942	-1.227903	-0.244024
O7	O	-0.244118	-1.108503	-0.115990
O8	O	-0.116094	-1.018287	-0.188852
O9	O	-0.244127	-1.227821	-0.188826
O10	O	-0.116101	-1.108693	-0.244039
O11	O	-0.188927	-1.018179	-0.116001
O12	O	-0.188913	-0.898886	-0.188826
O13	O	-0.244103	-1.018141	-0.316830
O14	O	-0.244094	-0.898823	-0.243994
O15	O	-0.188929	-1.108610	-0.316849
O16	O	-0.316946	-1.108420	-0.188801
O17	O	-0.316936	-1.018034	-0.243979
C18	C	-0.216502	-0.872152	-0.216409
C19	C	-0.216505	-0.790353	-0.216416
C20	C	-0.187826	-0.602201	-0.245202
C21	C	-0.187828	-0.525342	-0.245203
C22	C	-0.245206	-0.525268	-0.187637
C23	C	-0.245201	-0.602125	-0.187634
C24	C	-0.216511	-0.640590	-0.216419
C25	C	-0.216519	-0.486874	-0.216423
C26	C	-0.216521	-0.403540	-0.216424
C27	C	-0.216508	-0.723929	-0.216417
C28	C	-0.333242	-1.063225	-0.216395
C29	C	-0.383176	-1.063236	-0.216401
C30	C	-0.692812	-1.110508	-0.187728
C31	C	-0.880485	-1.110599	-0.187746
O32	O	-0.904744	-1.150686	-0.163350
N33	N	-0.903961	-1.063511	-0.216451
C34	C	-0.880516	-1.016400	-0.245157
O35	O	-0.904790	-0.976356	-0.269577
C36	C	-0.692844	-1.016314	-0.245142
C37	C	-0.669370	-1.063400	-0.216431
C38	C	-0.669339	-1.157591	-0.159020
C39	C	-0.622423	-1.157565	-0.159014
C40	C	-0.598981	-1.110456	-0.187717
C41	C	-0.622455	-1.063374	-0.216425
C42	C	-0.669399	-0.969207	-0.273849
C43	C	-0.622478	-0.969191	-0.273844
C44	C	-0.599005	-1.016277	-0.245133
C45	C	-0.552097	-1.016239	-0.245122
N46	N	-0.528622	-1.063327	-0.216416
C47	C	-0.552063	-1.110436	-0.187713
C48	C	-0.979046	-1.016448	-0.245163
C49	C	-1.025964	-1.016469	-0.245166
C50	C	-1.025930	-1.110669	-0.187755
C51	C	-0.979012	-1.110644	-0.187750
C52	C	-0.955571	-1.063536	-0.216457
C53	C	-0.453538	-1.110377	-0.187703
C54	C	-0.406618	-1.110345	-0.187698
C55	C	-0.406656	-1.016148	-0.245111
C56	C	-0.453572	-1.016177	-0.245114
C57	C	-0.477011	-1.063298	-0.216408
O58	O	-0.527810	-0.976178	-0.269508
O59	O	-0.527781	-1.150485	-0.163304
C60	C	-0.739728	-1.110534	-0.187734
C61	C	-0.763201	-1.063452	-0.216442
C62	C	-0.739759	-1.016343	-0.245145
C63	C	-0.810119	-1.063472	-0.216446
C64	C	-0.833561	-1.110581	-0.187743
C65	C	-0.810085	-1.157669	-0.159037
C66	C	-0.763170	-1.157643	-0.159032
C67	C	-0.763235	-0.969255	-0.273851
C68	C	-0.810151	-0.969284	-0.273854
C69	C	-0.833593	-1.016393	-0.245151
C70	C	-0.099341	-1.063512	-0.216450
C71	C	-0.049406	-1.063577	-0.216464
C72	C	-0.216515	-1.063378	-0.333596
C73	C	-0.216513	-1.063387	-0.383530
C74	C	-0.216532	-0.255311	-0.216426
C75	C	-0.216525	-0.337110	-0.216426
C76	C	-0.187709	-1.110543	-0.693187
C77	C	-0.187671	-1.110580	-0.880860
O78	O	-0.163223	-1.150619	-0.905136
N79	N	-0.216393	-1.063484	-0.904316
C80	C	-0.245125	-1.016373	-0.880850
O81	O	-0.269551	-0.976311	-0.905107
C82	C	-0.245161	-1.016334	-0.693178
C83	C	-0.216440	-1.063437	-0.669725
C84	C	-0.158990	-1.157642	-0.669734
C85	C	-0.159001	-1.157636	-0.622818
C86	C	-0.187732	-1.110530	-0.599356
C87	C	-0.216451	-1.063430	-0.622809
C88	C	-0.273890	-0.969219	-0.669713
C89	C	-0.273896	-0.969212	-0.622792
C90	C	-0.245175	-1.016316	-0.599339
C91	C	-0.245193	-1.016318	-0.552431
N92	N	-0.216471	-1.063413	-0.528976
C93	C	-0.187740	-1.110519	-0.552438
C94	C	-0.245105	-1.016398	-0.979381
C95	C	-0.245097	-1.016409	-1.026299
C96	C	-0.187641	-1.110615	-1.026305
C97	C	-0.187652	-1.110607	-0.979387
C98	C	-0.216382	-1.063494	-0.955925
C99	C	-0.187767	-1.110502	-0.453912
C100	C	-0.187783	-1.110493	-0.406993
C101	C	-0.245236	-1.016285	-0.406990
C102	C	-0.245222	-1.016296	-0.453906
C103	C	-0.216484	-1.063407	-0.477366
O104	O	-0.269625	-0.976293	-0.528127
O105	O	-0.163311	-1.150563	-0.528174
C106	C	-0.187697	-1.110550	-0.740103
C107	C	-0.216416	-1.063451	-0.763556
C108	C	-0.245147	-1.016345	-0.740093
C109	C	-0.216408	-1.063461	-0.810474
C110	C	-0.187677	-1.110567	-0.833936
C111	C	-0.158955	-1.157663	-0.810480
C112	C	-0.158967	-1.157656	-0.763565
C113	C	-0.273870	-0.969249	-0.763549
C114	C	-0.273856	-0.969261	-0.810464
C115	C	-0.245125	-1.016367	-0.833927
C116	C	-0.216491	-1.063381	-0.099695
C117	C	-0.216366	-1.063515	-0.049761
H118	H	-0.387507	-1.148688	-0.164317
H119	H	-0.164394	-1.148853	-0.387899
H120	H	-0.268503	-0.978033	-0.960283
H121	H	-1.045072	-0.978120	-0.268541
H122	H	-0.297278	-0.930862	-0.688801
H123	H	-0.472685	-0.977838	-0.268494
H124	H	-0.268560	-0.633382	-0.164193
H125	H	-0.387562	-0.977790	-0.268479
H126	H	-0.164469	-0.494089	-0.268640
H127	H	-0.135563	-1.196020	-0.829592
H128	H	-0.297248	-0.930904	-0.829556
H129	H	-0.297287	-0.930838	-0.603692
H130	H	-0.268613	-0.977947	-0.473002
H131	H	-0.472617	-1.148749	-0.164329
H132	H	-0.164248	-1.148971	-1.045416
H133	H	-0.268489	-0.978061	-1.045390
H134	H	-0.268564	-0.493941	-0.164202
H135	H	-0.164464	-0.633516	-0.268639
H136	H	-0.603314	-1.195908	-0.135637
H137	H	-0.744061	-1.195985	-0.135653
H138	H	-0.688420	-1.195956	-0.135647
H139	H	-0.959964	-0.978085	-0.268540
H140	H	-0.164365	-1.148861	-0.473008
H141	H	-1.045025	-1.149027	-0.164384
H142	H	-0.959902	-1.148985	-0.164371
H143	H	-0.135613	-1.195991	-0.603727
H144	H	-0.268629	-0.977934	-0.387879
H145	H	-0.688503	-0.930861	-0.297227
H146	H	-0.744152	-0.930894	-0.297224
H147	H	-0.829180	-1.196024	-0.135666
H148	H	-0.603395	-0.930831	-0.297222
H149	H	-0.135591	-1.196002	-0.688832
H150	H	-0.164264	-1.148962	-0.960294
H151	H	-0.135579	-1.196012	-0.744473
H152	H	-0.297267	-0.930890	-0.744451
H153	H	-0.829259	-0.930935	-0.297233
