data_functionalizedCrystal
_audit_creation_method	'MofGen! by Chris Wilmer'
_symmetry_space_group_name_H-M	'P1'
_symmetry_Int_Tables_number	1
_symmetry_cell_setting	triclinic
loop_
_symmetry_equiv_pos_as_xyz
  x,y,z
_cell_length_a	21.295420
_cell_length_b	21.295417
_cell_length_c	12.759393
_cell_angle_alpha	90.039170
_cell_angle_beta	90.021840
_cell_angle_gamma	90.028757
loop_
_atom_site_label
_atom_site_type_symbol
_atom_site_fract_x
_atom_site_fract_y
_atom_site_fract_z
Zn1	Zn	0.962338	-0.250601	0.594019
Zn2	Zn	1.295671	0.082732	0.927353
Zn3	Zn	1.629004	0.416065	1.260686
Zn4	Zn	0.962245	-0.355885	0.418316
Zn5	Zn	1.295579	-0.022552	0.751650
Zn6	Zn	1.628912	0.310781	1.084983
Zn7	Zn	0.857066	-0.250631	0.418349
Zn8	Zn	1.190399	0.082702	0.751682
Zn9	Zn	1.523733	0.416036	1.085015
Zn10	Zn	0.857030	-0.355834	0.593947
Zn11	Zn	1.190364	-0.022500	0.927281
Zn12	Zn	1.523697	0.310833	1.260614
O13	O	0.909670	-0.303238	0.506158
O14	O	1.243003	0.030095	0.839491
O15	O	1.576336	0.363429	1.172825
O16	O	1.050415	-0.264577	0.570729
O17	O	1.383748	0.068756	0.904062
O18	O	1.717081	0.402090	1.237395
O19	O	0.948269	-0.341957	0.271299
O20	O	1.281603	-0.008624	0.604633
O21	O	1.614936	0.324709	0.937966
O22	O	0.871084	-0.162538	0.441695
O23	O	1.204418	0.170796	0.775029
O24	O	1.537751	0.504129	1.108362
O25	O	1.050347	-0.341929	0.441640
O26	O	1.383680	-0.008595	0.774974
O27	O	1.717014	0.324738	1.108307
O28	O	0.948427	-0.162516	0.570760
O29	O	1.281760	0.170817	0.904093
O30	O	1.615093	0.504151	1.237427
O31	O	0.870995	-0.264627	0.271323
O32	O	1.204328	0.068706	0.604657
O33	O	1.537661	0.402039	0.937990
O34	O	0.768972	-0.264577	0.441626
O35	O	1.102305	0.068757	0.774959
O36	O	1.435639	0.402090	1.108292
O37	O	0.871023	-0.341840	0.740978
O38	O	1.204357	-0.008507	1.074312
O39	O	1.537690	0.324826	1.407645
O40	O	0.768946	-0.341869	0.570637
O41	O	1.102279	-0.008535	0.903971
O42	O	1.435612	0.324798	1.237304
O43	O	0.948392	-0.264527	0.741031
O44	O	1.281725	0.068807	1.074364
O45	O	1.615059	0.402140	1.407698
O46	O	0.948235	-0.443968	0.441570
O47	O	1.281568	-0.110635	0.774904
O48	O	1.614901	0.222699	1.108237
O49	O	0.870934	-0.443930	0.570606
O50	O	1.204267	-0.110596	0.903939
O51	O	1.537600	0.222737	1.237273
C52	C	0.746118	-0.303221	0.506128
C53	C	1.079452	0.030113	0.839461
C54	C	1.412785	0.363446	1.172794
C55	C	0.676150	-0.303229	0.506140
C56	C	1.009483	0.030105	0.839473
C57	C	1.342817	0.363438	1.172806
C58	C	0.176695	-0.343558	0.573269
C59	C	0.510028	-0.010225	0.906603
C60	C	0.843362	0.323109	1.239936
C61	C	0.242437	-0.343558	0.573258
C62	C	0.575771	-0.010225	0.906591
C63	C	0.909104	0.323109	1.239925
C64	C	0.275311	-0.303252	0.506191
C65	C	0.608644	0.030081	0.839524
C66	C	0.941977	0.363415	1.172858
C67	C	0.242436	-0.262954	0.439111
C68	C	0.575769	0.070379	0.772444
C69	C	0.909103	0.403712	1.105777
C70	C	0.176695	-0.262960	0.439116
C71	C	0.510028	0.070374	0.772450
C72	C	0.843361	0.403707	1.105783
N73	N	0.378552	-0.248136	0.498292
N74	N	0.711885	0.085197	0.831626
N75	N	1.045218	0.418531	1.164959
N76	N	0.441003	-0.248133	0.498293
N77	N	0.774336	0.085201	0.831626
N78	N	1.107670	0.418534	1.164960
C79	C	0.473385	-0.303234	0.506169
C80	C	0.806719	0.030099	0.839502
C81	C	1.140052	0.363432	1.172835
N82	N	0.440957	-0.358341	0.514064
N83	N	0.774290	-0.025007	0.847397
N84	N	1.107624	0.308326	1.180730
N85	N	0.378500	-0.358343	0.514068
N86	N	0.711833	-0.025010	0.847402
N87	N	1.045166	0.308323	1.180735
C88	C	0.346596	-0.303242	0.506177
C89	C	0.679929	0.030091	0.839510
C90	C	1.013263	0.363425	1.172844
C91	C	0.577538	-0.343533	0.573227
C92	C	0.910871	-0.010200	0.906561
C93	C	1.244204	0.323134	1.239894
C94	C	0.643281	-0.343534	0.573209
C95	C	0.976615	-0.010201	0.906542
C96	C	1.309948	0.323132	1.239876
C97	C	0.643279	-0.262925	0.439067
C98	C	0.976612	0.070408	0.772400
C99	C	1.309945	0.403742	1.105734
C100	C	0.577536	-0.262929	0.439080
C101	C	0.910870	0.070404	0.772413
C102	C	1.244203	0.403737	1.105747
C103	C	0.544670	-0.303232	0.506166
C104	C	0.878003	0.030101	0.839499
C105	C	1.211336	0.363434	1.172832
C106	C	0.909587	-0.466789	0.506100
C107	C	1.242921	-0.133456	0.839433
C108	C	1.576254	0.199877	1.172766
C109	C	0.909610	-0.536758	0.506110
C110	C	1.242943	-0.203424	0.839443
C111	C	1.576276	0.129909	1.172777
C112	C	0.949896	-0.569623	0.438990
C113	C	1.283229	-0.236290	0.772323
C114	C	1.616563	0.097043	1.105657
C115	C	0.949926	-0.635366	0.439014
C116	C	1.283259	-0.302032	0.772347
C117	C	1.616592	0.031301	1.105680
C118	C	0.909657	-0.668240	0.506146
C119	C	1.242991	-0.334907	0.839480
C120	C	1.576324	-0.001573	1.172813
C121	C	0.869368	-0.635367	0.573279
C122	C	1.202701	-0.302033	0.906613
C123	C	1.536035	0.031300	1.239946
C124	C	0.869344	-0.569625	0.573261
C125	C	1.202678	-0.236292	0.906594
C126	C	1.536011	0.097041	1.239928
N127	N	0.854590	-0.771504	0.514145
N128	N	1.187923	-0.438170	0.847479
N129	N	1.521257	-0.104837	1.180812
N130	N	0.854615	-0.833955	0.514157
N131	N	1.187948	-0.500622	0.847490
N132	N	1.521281	-0.167288	1.180823
C133	C	0.909728	-0.866315	0.506206
C134	C	1.243061	-0.532981	0.839540
C135	C	1.576395	-0.199648	1.172873
N136	N	0.964817	-0.833864	0.498224
N137	N	1.298150	-0.500530	0.831558
N138	N	1.631484	-0.167197	1.164891
N139	N	0.964792	-0.771407	0.498208
N140	N	1.298125	-0.438073	0.831541
N141	N	1.631458	-0.104740	1.164875
C142	C	0.909679	-0.739525	0.506174
C143	C	1.243012	-0.406192	0.839507
C144	C	1.576346	-0.072859	1.172841
C145	C	0.950050	-0.970466	0.439109
C146	C	1.283383	-0.637133	0.772442
C147	C	1.616716	-0.303799	1.105775
C148	C	0.950080	-1.036210	0.439140
C149	C	1.283414	-0.702876	0.772473
C150	C	1.616747	-0.369543	1.105806
C151	C	0.869517	-1.036209	0.573400
C152	C	1.202851	-0.702876	0.906733
C153	C	1.536184	-0.369542	1.240066
C154	C	0.869492	-0.970467	0.573374
C155	C	1.202826	-0.637133	0.906707
C156	C	1.536159	-0.303800	1.240041
C157	C	0.909758	-0.937599	0.506223
C158	C	1.243091	-0.604266	0.839556
C159	C	1.576424	-0.270932	1.172890
C160	C	1.073860	-0.303255	0.506189
C161	C	1.407193	0.030078	0.839522
C162	C	1.740527	0.363411	1.172856
C163	C	1.143828	-0.303263	0.506202
C164	C	1.477161	0.030070	0.839535
C165	C	1.810495	0.363404	1.172869
C166	C	0.909714	-0.303174	0.780191
C167	C	1.243047	0.030159	1.113525
C168	C	1.576381	0.363492	1.446858
C169	C	0.909733	-0.303147	0.896968
C170	C	1.243066	0.030186	1.230302
C171	C	1.576399	0.363519	1.563635
C172	C	0.909770	-0.139048	0.506239
C173	C	1.243103	0.194286	0.839573
C174	C	1.576436	0.527619	1.172906
C175	C	0.909812	-0.069079	0.506274
C176	C	1.243146	0.264254	0.839607
C177	C	1.576479	0.597587	1.172941
C178	C	0.909662	-0.303256	0.233191
C179	C	1.242995	0.030078	0.566524
C180	C	1.576329	0.363411	0.899857
C181	C	0.909765	-0.303105	0.116415
C182	C	1.243099	0.030228	0.449748
C183	C	1.576432	0.363561	0.783081
C184	C	0.950024	-0.262886	0.951859
C185	C	1.283358	0.070447	1.285193
C186	C	1.616691	0.403780	1.618526
C187	C	0.950039	-0.262864	1.061584
C188	C	1.283373	0.070470	1.394917
C189	C	1.616706	0.403803	1.728250
C190	C	0.869469	-0.343368	1.061516
C191	C	1.202803	-0.010035	1.394849
C192	C	1.536136	0.323298	1.728182
C193	C	0.869452	-0.343387	0.951793
C194	C	1.202785	-0.010054	1.285127
C195	C	1.536118	0.323279	1.618460
C196	C	0.996543	-0.216409	0.951900
C197	C	1.329876	0.116924	1.285233
C198	C	1.663209	0.450257	1.618566
C199	C	0.996558	-0.216387	1.061624
C200	C	1.329891	0.116947	1.394957
C201	C	1.663224	0.450280	1.728291
H202	H	0.149935	-0.230145	0.384502
H203	H	0.483268	0.103188	0.717835
H204	H	0.816602	0.436522	1.051168
H205	H	0.670040	-0.376352	0.627820
H206	H	1.003374	-0.043018	0.961153
H207	H	1.336707	0.290315	1.294487
Cl208	Cl	0.818748	-0.676693	0.657679
Cl209	Cl	1.152082	-0.343360	0.991013
Cl210	Cl	1.485415	-0.010027	1.324346
H211	H	0.836538	-0.542865	0.627920
H212	H	1.169871	-0.209532	0.961253
H213	H	1.503204	0.123801	1.294586
Cl214	Cl	0.976426	-0.141145	0.905965
Cl215	Cl	1.309759	0.192188	1.239298
Cl216	Cl	1.643092	0.525522	1.572632
H217	H	0.670043	-0.230109	0.384456
H218	H	1.003377	0.103224	0.717789
H219	H	1.336710	0.436558	1.051123
Cl220	Cl	0.818898	-1.077531	0.657803
Cl221	Cl	1.152231	-0.744197	0.991137
Cl222	Cl	1.485565	-0.410864	1.324470
Cl223	Cl	1.000736	-1.077527	0.354760
Cl224	Cl	1.334069	-0.744194	0.688093
Cl225	Cl	1.667402	-0.410860	1.021426
H226	H	0.149939	-0.376378	0.627892
H227	H	0.483272	-0.043045	0.961225
H228	H	0.816606	0.290289	1.294559
H229	H	1.045308	-0.229445	1.091404
H230	H	1.378641	0.103888	1.424737
H231	H	1.711975	0.437221	1.758071
H232	H	0.982838	-0.943704	0.384433
H233	H	1.316172	-0.610371	0.717767
H234	H	1.649505	-0.277037	1.051100
Cl235	Cl	0.536217	-0.394202	0.657556
Cl236	Cl	0.869550	-0.060868	0.990890
Cl237	Cl	1.202883	0.272465	1.324223
Cl238	Cl	0.283761	-0.212286	0.354794
Cl239	Cl	0.617095	0.121047	0.688127
Cl240	Cl	0.950428	0.454380	1.021460
H241	H	0.982684	-0.542864	0.384314
H242	H	1.316017	-0.209531	0.717648
H243	H	1.649351	0.123802	1.050981
Cl244	Cl	0.283764	-0.394218	0.657579
Cl245	Cl	0.617098	-0.060884	0.990912
Cl246	Cl	0.950431	0.272449	1.324246
H247	H	0.550776	-0.230115	0.384470
H248	H	0.884109	0.103219	0.717803
H249	H	1.217442	0.436552	1.051137
H250	H	0.982734	-0.662130	0.384357
H251	H	1.316067	-0.328797	0.717690
H252	H	1.649400	0.004537	1.051024
H253	H	1.042836	-0.233888	0.917864
H254	H	1.376169	0.099446	1.251198
H255	H	1.709503	0.432779	1.584531
H256	H	0.836685	-0.943706	0.628025
H257	H	1.170018	-0.610372	0.961358
H258	H	1.503351	-0.277039	1.294692
H259	H	0.836640	-0.376169	0.907105
H260	H	1.169974	-0.042836	1.240438
H261	H	1.503307	0.290497	1.573772
Cl262	Cl	0.969556	-0.144907	1.114214
Cl263	Cl	1.302889	0.188426	1.447547
Cl264	Cl	1.636222	0.521759	1.780880
Cl265	Cl	0.818833	-0.393953	1.130446
Cl266	Cl	1.152167	-0.060620	1.463779
Cl267	Cl	1.485500	0.272714	1.797113
