data_functionalizedCrystal
_audit_creation_method	'MofGen! by Chris Wilmer'
_symmetry_space_group_name_H-M	'P1'
_symmetry_Int_Tables_number	1
_symmetry_cell_setting	triclinic
loop_
_symmetry_equiv_pos_as_xyz
  x,y,z
_cell_length_a	10.654541
_cell_length_b	16.992695
_cell_length_c	15.455313
_cell_angle_alpha	87.152573
_cell_angle_beta	92.705766
_cell_angle_gamma	87.576076
loop_
_atom_site_label
_atom_site_type_symbol
_atom_site_fract_x
_atom_site_fract_y
_atom_site_fract_z
O1	O	-1.682527	-0.106780	-0.072105
O2	O	-1.317956	-0.117280	-0.072113
O3	O	-1.498779	0.002120	-0.072102
O4	O	-1.501703	-0.226181	-0.072116
O5	O	-1.488436	-0.004680	0.072159
O6	O	-1.307612	-0.124080	0.072149
O7	O	-1.672183	-0.113580	0.072156
Cu8	Cu	-1.488954	-0.119451	0.085325
Cu9	Cu	-1.501185	-0.111410	-0.085281
O10	O	-1.491360	-0.232980	0.072146
C11	C	-1.265919	-0.119909	0.000017
C12	C	-1.126277	-0.117604	0.000014
C13	C	-1.489847	0.027953	0.000029
C14	C	-1.478628	0.115058	0.000028
C15	C	-1.724220	-0.110951	0.000025
C16	C	-1.863863	-0.113256	0.000022
C17	C	-1.110646	-0.260379	-0.000005
C18	C	-1.037228	-0.330680	-0.000018
C19	C	-0.906022	-0.328509	-0.000019
C20	C	-0.848232	-0.256029	-0.000004
C21	C	-0.921650	-0.185728	0.000009
C22	C	-1.052858	-0.187907	0.000007
C23	C	-0.937281	-0.042955	0.000035
C24	C	-1.068487	-0.045124	0.000029
C25	C	-0.879491	0.029525	0.000050
C26	C	-0.952910	0.099828	0.000057
C27	C	-1.084123	0.097653	0.000057
C28	C	-1.141905	0.025177	0.000043
C29	C	-1.500292	-0.258813	0.000013
C30	C	-1.511512	-0.345918	0.000008
N31	N	-1.480359	-0.125106	0.205320
C32	C	-1.586879	0.164711	0.000031
C33	C	-1.576330	0.246555	0.000023
C34	C	-1.457529	0.278745	0.000017
C35	C	-1.349271	0.229087	0.000012
C36	C	-1.359821	0.147244	0.000014
C37	C	-1.413803	0.522581	0.000005
C38	C	-1.403261	0.604430	0.000005
C39	C	-1.630322	0.621892	0.000014
C40	C	-1.640861	0.540047	0.000022
C41	C	-1.532603	0.490396	0.000012
N42	N	-1.446744	0.362403	0.000011
N43	N	-1.543390	0.406740	0.000011
N44	N	-1.509789	-0.105748	-0.205276
C45	C	-1.557210	-0.074400	0.250719
C46	C	-1.550723	-0.078684	0.341526
C47	C	-1.467391	-0.133679	0.386933
C48	C	-1.390532	-0.184387	0.341528
C49	C	-1.397013	-0.180099	0.250722
C50	C	-1.439412	-0.152168	0.658513
C51	C	-1.432938	-0.156455	0.749325
C52	C	-1.593129	-0.050749	0.749317
C53	C	-1.599608	-0.046469	0.658509
C54	C	-1.522745	-0.097175	0.613112
N55	N	-1.460761	-0.138061	0.479753
N56	N	-1.529369	-0.092788	0.520294
H57	H	-1.217481	-0.262153	-0.000024
H58	H	-1.664480	0.286979	0.000027
Cl59	Cl	-0.714545	0.032254	0.000053
Cl60	Cl	-1.223728	0.084824	0.000007
Cl61	Cl	-1.689747	0.012994	0.806391
Cl62	Cl	-1.253900	0.644895	0.000003
Cl63	Cl	-1.277705	0.460173	-0.000011
H64	H	-0.741396	-0.254268	0.000006
H65	H	-1.376828	-0.193456	0.621558
Cl66	Cl	-0.880253	0.190934	0.000083
Cl67	Cl	-1.199921	0.269555	-0.000006
H68	H	-1.613300	-0.037394	0.378489
Cl69	Cl	-1.661983	-0.005263	0.193645
Cl70	Cl	-1.704371	0.022667	0.601426
Cl71	Cl	-1.176409	0.186038	0.000080
H72	H	-1.322674	-0.229163	0.378504
H73	H	-1.365076	-0.201241	0.786292
Cl74	Cl	-1.109883	-0.421792	-0.000038
H75	H	-0.846244	-0.385754	-0.000023
Cl76	Cl	-1.306850	0.022438	0.000037
H77	H	-1.334432	-0.221388	0.213760
H78	H	-1.683619	0.138508	0.000041
H79	H	-1.737601	0.513845	0.000026
H80	H	-1.718459	0.662327	0.000021
