data_functionalizedCrystal
_audit_creation_method	'MofGen! by Chris Wilmer'
_symmetry_space_group_name_H-M	'P1'
_symmetry_Int_Tables_number	1
_symmetry_cell_setting	triclinic
loop_
_symmetry_equiv_pos_as_xyz
  x,y,z
_cell_length_a	6.817900
_cell_length_b	17.982783
_cell_length_c	16.255661
_cell_angle_alpha	95.649221
_cell_angle_beta	103.488922
_cell_angle_gamma	102.448572
loop_
_atom_site_label
_atom_site_type_symbol
_atom_site_fract_x
_atom_site_fract_y
_atom_site_fract_z
V1	V	-4.021529	-0.106028	-0.264224
O2	O	-4.014408	0.004462	-0.258833
O3	O	-3.968017	-0.209627	-0.262765
O4	O	-3.973157	-0.104675	-0.379303
O5	O	-4.009233	-0.101217	-0.141488
V6	V	-4.505816	-0.092779	-0.249502
O7	O	-4.281112	-0.135090	-0.296519
O8	O	-4.696430	-0.063717	-0.217207
O9	O	-4.336122	0.010819	-0.250961
O10	O	-4.630334	-0.203269	-0.254893
O11	O	-4.635509	-0.097591	-0.372238
O12	O	-4.330981	-0.094133	-0.134423
C13	C	-3.811773	-0.234874	-0.258686
C14	C	-3.849308	-0.319569	-0.258260
C15	C	-3.827256	-0.348297	-0.180521
C16	C	-3.862543	-0.427878	-0.180124
C17	C	-3.919868	-0.478729	-0.257466
C18	C	-3.941927	-0.449995	-0.335211
C19	C	-3.906654	-0.370416	-0.335608
C20	C	-4.084182	-0.770930	-0.333612
C21	C	-4.119448	-0.850514	-0.333209
C22	C	-4.040071	-0.828392	-0.178128
C23	C	-4.004798	-0.748812	-0.178525
C24	C	-4.026870	-0.720086	-0.256270
C25	C	-3.988611	-0.633796	-0.256700
C26	C	-3.958113	-0.565018	-0.257036
C27	C	-3.818329	-0.100996	-0.407341
C28	C	-3.860030	-0.100575	-0.501421
C29	C	-3.770832	-0.095549	-0.724223
C30	C	-3.924077	-0.160419	-0.793915
C31	C	-3.936453	-0.099786	-0.673667
C32	C	-3.857534	-0.034174	-0.771610
C33	C	-4.010258	-0.099021	-0.840048
C34	C	-4.089177	-0.164714	-0.742130
C35	C	-4.022575	-0.038412	-0.719808
C36	C	-4.175956	-0.103300	-0.789481
C37	C	-3.893930	-0.100228	-0.577819
C38	C	-4.052798	-0.098585	-0.935895
C39	C	-4.155707	0.036062	-0.255038
C40	C	-4.097411	0.120756	-0.255469
C41	C	-4.149151	-0.097814	-0.106381
C42	C	-4.086690	-0.098231	-0.012300
H43	H	-3.844589	-0.451265	-0.116821
Cl44	Cl	-3.706950	0.051004	-0.792293
Cl45	Cl	-4.111912	-0.734827	-0.431348
Cl46	Cl	-4.012338	-0.864509	-0.080390
H47	H	-3.924633	-0.347028	-0.398911
Cl48	Cl	-3.505902	-0.090617	-0.680229
H49	H	-4.166130	-0.891916	-0.396194
H50	H	-3.988618	-0.491405	-0.398184
H51	H	-3.882883	-0.212002	-0.826173
Cl52	Cl	-4.086051	0.041232	-0.669964
Cl53	Cl	-4.239741	-0.249984	-0.721628
H54	H	-3.780562	-0.306899	-0.117540
Cl55	Cl	-3.932724	-0.684890	-0.081291
Cl56	Cl	-4.441061	-0.108383	-0.833266
