data_functionalizedCrystal
_audit_creation_method	'MofGen! by Chris Wilmer'
_symmetry_space_group_name_H-M	'P1'
_symmetry_Int_Tables_number	1
_symmetry_cell_setting	triclinic
loop_
_symmetry_equiv_pos_as_xyz
  x,y,z
_cell_length_a	16.974800
_cell_length_b	13.339070
_cell_length_c	15.455313
_cell_angle_alpha	93.394339
_cell_angle_beta	90.973911
_cell_angle_gamma	99.476486
loop_
_atom_site_label
_atom_site_type_symbol
_atom_site_fract_x
_atom_site_fract_y
_atom_site_fract_z
O1	O	1.077288	0.129038	0.003523
O2	O	1.577288	0.629038	0.503523
O3	O	0.851236	0.144496	-0.012353
O4	O	1.351236	0.644496	0.487647
O5	O	0.938318	-0.010570	-0.006234
O6	O	1.438318	0.489430	0.493766
O7	O	0.990206	0.284104	-0.002595
O8	O	1.490206	0.784104	0.497405
O9	O	0.933331	-0.001739	0.137677
O10	O	1.433331	0.498261	0.637677
O11	O	0.846248	0.153327	0.131559
O12	O	1.346248	0.653327	0.631559
O13	O	1.072301	0.137869	0.147435
O14	O	1.572301	0.637869	0.647435
Cu15	Cu	0.958819	0.146404	0.152637
Cu16	Cu	1.458819	0.646404	0.652637
Cu17	Cu	0.964718	0.135961	-0.017555
Cu18	Cu	1.464718	0.635961	0.482445
O19	O	0.985218	0.292935	0.141316
O20	O	1.485218	0.792935	0.641316
C21	C	0.819219	0.148162	0.057530
C22	C	1.319219	0.648162	0.557530
C23	C	0.731246	0.145916	0.051351
C24	C	1.231246	0.645916	0.551351
C25	C	0.687201	0.149672	0.126897
C26	C	1.187201	0.649672	0.626897
C27	C	0.604540	0.147545	0.121094
C28	C	1.104540	0.647545	0.621094
C29	C	0.565925	0.141670	0.039745
C30	C	1.065925	0.641670	0.539745
C31	C	0.609975	0.137911	-0.035806
C32	C	1.109975	0.637911	0.464194
C33	C	0.692634	0.140030	-0.030003
C34	C	1.192634	0.640030	0.469997
C35	C	0.319000	0.134809	0.013975
C36	C	0.819000	0.634809	0.513975
C37	C	0.236335	0.132693	0.008177
C38	C	0.736335	0.632693	0.508177
C39	C	0.230906	0.142326	0.165079
C40	C	0.730906	0.642326	0.665079
C41	C	0.313567	0.144451	0.170875
C42	C	0.813567	0.644451	0.670875
C43	C	0.357610	0.140686	0.095324
C44	C	0.857610	0.640686	0.595324
N45	N	0.481432	0.139499	0.033811
N46	N	0.981432	0.639499	0.533811
N47	N	0.442100	0.142849	0.101258
N48	N	0.942100	0.642849	0.601258
C49	C	0.927060	-0.043869	0.065105
C50	C	1.427060	0.456131	0.565105
C51	C	0.900934	-0.156245	0.063267
C52	C	1.400934	0.343755	0.563267
C53	C	1.104073	-0.520460	0.077533
C54	C	1.604073	-0.020460	0.577533
C55	C	1.128622	-0.414877	0.079266
C56	C	1.628622	0.085123	0.579266
C57	C	1.071702	-0.350214	0.075266
C58	C	1.571702	0.149786	0.575266
C59	C	0.990230	-0.391144	0.069534
C60	C	1.490230	0.108856	0.569534
C61	C	0.965678	-0.496737	0.067808
C62	C	1.465678	0.003263	0.567808
C63	C	0.933307	-0.326491	0.065541
C64	C	1.433307	0.173509	0.565541
C65	C	0.851835	-0.367422	0.059809
C66	C	1.351835	0.132578	0.559809
C67	C	0.827288	-0.473005	0.058083
C68	C	1.327288	0.026995	0.558083
C69	C	0.884207	-0.537667	0.062083
C70	C	1.384207	-0.037667	0.562083
C71	C	0.957858	-0.220898	0.067266
C72	C	1.457858	0.279102	0.567266
C73	C	0.819463	-0.197176	0.057541
C74	C	1.319463	0.302824	0.557541
C75	C	0.794915	-0.302759	0.055809
C76	C	1.294915	0.197241	0.555809
C77	C	1.104318	0.134203	0.077550
C78	C	1.604318	0.634203	0.577550
C79	C	1.192291	0.136449	0.083723
C80	C	1.692291	0.636449	0.583723
C81	C	0.996477	0.326234	0.069975
C82	C	1.496477	0.826234	0.569975
C83	C	1.022602	0.438610	0.071808
C84	C	1.522602	0.938610	0.571808
N85	N	0.954676	0.153749	0.272342
N86	N	1.454676	0.653749	0.772342
N87	N	0.968865	0.128608	-0.137259
N88	N	1.468865	0.628608	0.362741
C89	C	0.991695	0.087896	0.320337
C90	C	1.491695	0.587896	0.820337
C91	C	0.988571	0.093459	0.410925
C92	C	1.488571	0.593459	0.910925
C93	C	0.948432	0.164882	0.453517
C94	C	1.448432	0.664882	0.953517
C95	C	0.911408	0.230739	0.405515
C96	C	1.411408	0.730739	0.905515
C97	C	0.914528	0.225169	0.314928
C98	C	1.414528	0.725169	0.814928
C99	C	0.934961	0.188895	0.724152
C100	C	1.434961	0.688895	1.224152
C101	C	0.931846	0.194461	0.814746
C102	C	1.431846	0.694461	1.314746
C103	C	1.009008	0.057180	0.820149
C104	C	1.509008	0.557180	1.320149
C105	C	1.012128	0.051621	0.729560
C106	C	1.512128	0.551621	1.229560
C107	C	0.975100	0.117474	0.681566
C108	C	1.475100	0.617474	1.181566
N109	N	0.945240	0.170573	0.546113
N110	N	1.445240	0.670573	1.046113
N111	N	0.978288	0.111777	0.588972
N112	N	1.478288	0.611777	1.088972
H113	H	0.204898	0.127911	-0.058070
H114	H	0.704898	0.627911	0.441930
H115	H	0.773114	-0.144526	0.054288
H116	H	1.273114	0.355474	0.554288
H117	H	1.194956	-0.381559	0.083934
H118	H	1.694956	0.118441	0.583934
C119	C	0.729675	0.156137	0.216380
C120	C	1.229675	0.656137	0.716380
H121	H	0.785213	0.156871	0.209020
H122	H	1.285213	0.656871	0.709020
H123	H	0.708129	0.098793	0.247181
H124	H	1.208129	0.598793	0.747181
H125	H	0.721893	0.216750	0.248142
H126	H	1.221893	0.716750	0.748142
C127	C	0.556163	0.152291	0.204195
C128	C	1.056163	0.652291	0.704195
H129	H	0.501424	0.150361	0.189092
H130	H	1.001424	0.650361	0.689092
H131	H	0.575684	0.213761	0.237537
H132	H	1.075684	0.713761	0.737537
H133	H	0.561547	0.095840	0.237222
H134	H	1.061547	0.595840	0.737222
C135	C	1.166674	-0.591587	0.081936
C136	C	1.666674	-0.091587	0.581936
H137	H	1.140382	-0.660331	0.080083
H138	H	1.640382	-0.160331	0.580083
H139	H	1.197388	-0.576080	0.134401
H140	H	1.697388	-0.076080	0.634401
H141	H	1.200870	-0.582241	0.034025
H142	H	1.700870	-0.082241	0.534025
C143	C	0.367443	0.130693	-0.069125
C144	C	0.867443	0.630693	0.430875
H145	H	0.422202	0.132790	-0.054024
H146	H	0.922202	0.632790	0.445976
H147	H	0.361890	0.187347	-0.101818
H148	H	0.861890	0.687347	0.398182
H149	H	0.348131	0.069390	-0.102798
H150	H	0.848131	0.569390	0.397202
C151	C	1.049724	-0.015260	0.872943
C152	C	1.549724	0.484740	1.372943
H153	H	1.042114	-0.001723	0.932993
H154	H	1.542114	0.498277	1.432993
H155	H	1.105271	-0.004996	0.861948
H156	H	1.605271	0.495004	1.361948
H157	H	1.026892	-0.083763	0.856466
H158	H	1.526892	0.416237	1.356466
C159	C	0.705300	-0.347790	0.049513
C160	C	1.205300	0.152210	0.549513
H161	H	0.698835	-0.419933	0.049064
H162	H	1.198835	0.080067	0.549064
H163	H	0.682629	-0.328691	-0.002386
H164	H	1.182629	0.171309	0.497614
H165	H	0.679152	-0.322537	0.097991
H166	H	1.179152	0.177463	0.597991
H167	H	0.864224	-0.623643	0.060669
H168	H	1.364224	-0.123643	0.560669
C169	C	0.182462	0.146502	0.248177
C170	C	0.682462	0.646502	0.748177
H171	H	0.127704	0.144405	0.233074
H172	H	0.627704	0.644405	0.733074
H173	H	0.201791	0.207813	0.281822
H174	H	0.701791	0.707813	0.781822
H175	H	0.187998	0.089859	0.280900
H176	H	0.687998	0.589859	0.780900
C177	C	1.035846	0.009328	0.273493
C178	C	1.535846	0.509328	0.773493
H179	H	1.057439	-0.029101	0.315054
H180	H	1.557439	0.470899	0.815054
H181	H	1.077852	0.043683	0.241005
H182	H	1.577852	0.543683	0.741005
H183	H	0.999475	-0.035087	0.235530
H184	H	1.499475	0.464913	0.735530
H185	H	0.760947	-0.506326	0.053422
H186	H	1.260947	-0.006326	0.553422
H187	H	1.024193	-0.187583	0.071933
H188	H	1.524193	0.312417	0.571933
H189	H	0.899159	0.252627	0.849420
H190	H	1.399159	0.752627	1.349420
C191	C	1.029301	0.021030	0.463717
C192	C	1.529301	0.521030	0.963717
H193	H	1.053663	-0.022293	0.425377
H194	H	1.553663	0.477707	0.925377
H195	H	0.990511	-0.019044	0.496430
H196	H	1.490511	0.480956	0.996430
H197	H	1.068875	0.059749	0.501904
H198	H	1.568875	0.559749	1.001904
C199	C	1.098705	-0.234076	0.077160
C200	C	1.598705	0.265924	0.577160
H201	H	1.155378	-0.218960	0.081137
H202	H	1.655378	0.281040	0.581137
H203	H	1.076960	-0.202722	0.125934
H204	H	1.576960	0.297278	0.625934
H205	H	1.080447	-0.208895	0.025558
H206	H	1.580447	0.291105	0.525558
C207	C	1.056274	-0.026950	0.682715
C208	C	1.556274	0.473050	1.182715
H209	H	1.077868	-0.065380	0.724274
H210	H	1.577868	0.434620	1.224274
H211	H	1.098279	0.007407	0.650227
H212	H	1.598279	0.507407	1.150227
H213	H	1.019902	-0.071364	0.644752
H214	H	1.519902	0.428636	1.144752
C215	C	0.894241	0.261339	0.671370
C216	C	1.394241	0.761339	1.171370
H217	H	0.869899	0.304679	0.709714
H218	H	1.369899	0.804679	1.209714
H219	H	0.854667	0.222640	0.633180
H220	H	1.354667	0.722640	1.133180
H221	H	0.933044	0.301410	0.638661
H222	H	1.433044	0.801410	1.138661
C223	C	0.567501	0.131450	-0.125289
C224	C	1.067501	0.631450	0.374711
H225	H	0.511965	0.130737	-0.117927
H226	H	1.011965	0.630737	0.382073
H227	H	0.575280	0.070846	-0.157056
H228	H	1.075280	0.570846	0.342944
H229	H	0.589050	0.188803	-0.156085
H230	H	1.089050	0.688803	0.343915
H231	H	0.878722	0.288889	0.440198
H232	H	1.378722	0.788889	0.940198
H233	H	0.728495	0.136973	-0.091520
H234	H	1.228495	0.636973	0.408480
H235	H	0.345001	0.149230	0.237118
H236	H	0.845001	0.649230	0.737118
C237	C	0.873811	0.297612	0.262134
C238	C	1.373811	0.797612	0.762134
H239	H	0.849466	0.340953	0.300473
H240	H	1.349466	0.840953	0.800473
H241	H	0.834240	0.258909	0.223943
H242	H	1.334240	0.758909	0.723943
H243	H	0.912615	0.337682	0.229425
H244	H	1.412615	0.837682	0.729425
