data_functionalizedCrystal
_audit_creation_method	'MofGen! by Chris Wilmer'
_symmetry_space_group_name_H-M	'P1'
_symmetry_Int_Tables_number	1
_symmetry_cell_setting	triclinic
loop_
_symmetry_equiv_pos_as_xyz
  x,y,z
_cell_length_a	19.077105
_cell_length_b	21.295417
_cell_length_c	19.076919
_cell_angle_alpha	92.266620
_cell_angle_beta	90.076224
_cell_angle_gamma	87.726672
loop_
_atom_site_label
_atom_site_type_symbol
_atom_site_fract_x
_atom_site_fract_y
_atom_site_fract_z
Zn1	Zn	1.058236	-0.304534	-0.440387
Zn2	Zn	1.062864	-0.405747	-0.322870
Zn3	Zn	0.945454	-0.296102	-0.318181
Zn4	Zn	0.940686	-0.405368	-0.435623
O5	O	1.001810	-0.352938	-0.379265
O6	O	1.157181	-0.321649	-0.428754
O7	O	1.051222	-0.387832	-0.223917
O8	O	0.960474	-0.209134	-0.334424
O9	O	1.160581	-0.396009	-0.342415
O10	O	1.043334	-0.215330	-0.424208
O11	O	0.964962	-0.307276	-0.220472
O12	O	0.846490	-0.306908	-0.329804
O13	O	0.952346	-0.395362	-0.534586
O14	O	0.842987	-0.387185	-0.416088
O15	O	1.038710	-0.321280	-0.538086
O16	O	1.046598	-0.493783	-0.337795
O17	O	0.956834	-0.493504	-0.420634
C18	C	0.819242	-0.346091	-0.371921
C19	C	0.741139	-0.343178	-0.368795
C20	C	0.702642	-0.383663	-0.412179
C21	C	0.629255	-0.380918	-0.409246
C22	C	0.594366	-0.337689	-0.362924
C23	C	0.632868	-0.297199	-0.319538
C24	C	0.706253	-0.299942	-0.322476
C25	C	0.375080	-0.324994	-0.349333
C26	C	0.301690	-0.322256	-0.346397
C27	C	0.298082	-0.405974	-0.436106
C28	C	0.371470	-0.408715	-0.439037
C29	C	0.409965	-0.368223	-0.395653
N30	N	0.519353	-0.334883	-0.359923
N31	N	0.484976	-0.371027	-0.398658
C32	C	1.001719	-0.516485	-0.379223
C33	C	1.001744	-0.586454	-0.379231
C34	C	1.048522	-0.619448	-0.336144
C35	C	1.048554	-0.685192	-0.336161
C36	C	1.001796	-0.717939	-0.379257
C37	C	0.955015	-0.684937	-0.422352
C38	C	0.954989	-0.619195	-0.422339
N39	N	0.940111	-0.819089	-0.382141
N40	N	0.940138	-0.881541	-0.382149
C41	C	1.001873	-0.916018	-0.379300
N42	N	1.063583	-0.885683	-0.376429
N43	N	1.063555	-0.823224	-0.376417
C44	C	1.001820	-0.789226	-0.379276
C45	C	1.048690	-1.020300	-0.336230
C46	C	1.048724	-1.086046	-0.336252
C47	C	0.955178	-1.085789	-0.422439
C48	C	0.955151	-1.020045	-0.422421
C49	C	1.001906	-0.987304	-0.379313
C50	C	1.185090	-0.359812	-0.386639
C51	C	1.263193	-0.362741	-0.389782
C52	C	0.994480	-0.359220	-0.562545
C53	C	0.991356	-0.361897	-0.640648
C54	C	1.001919	-0.188754	-0.379324
C55	C	1.001966	-0.118788	-0.379349
C56	C	1.034851	-0.324586	-0.679164
C57	C	1.031907	-0.327098	-0.752550
C58	C	0.985472	-0.366925	-0.787418
C59	C	0.941972	-0.404238	-0.748896
C60	C	0.944913	-0.401722	-0.675512
C61	C	0.971853	-0.378584	-1.006698
C62	C	0.968917	-0.381099	-1.080087
C63	C	1.058852	-0.303958	-1.083736
C64	C	1.061791	-0.301448	-1.010350
C65	C	1.018289	-0.338758	-0.971835
N66	N	0.982464	-0.369496	-0.862429
N67	N	1.021294	-0.336183	-0.896824
C68	C	1.009152	-0.346637	-0.196700
C69	C	1.012412	-0.343787	-0.118604
H70	H	0.597915	-0.413886	-0.444573
C71	C	0.903704	-0.983751	-0.469835
N72	N	0.864960	-0.956415	-0.505558
H73	H	1.072666	-0.292156	-0.650780
C74	C	1.079757	-0.286054	-0.794915
N75	N	1.115799	-0.255137	-0.826823
H76	H	1.086820	-1.112908	-0.301168
H77	H	1.086764	-0.993641	-0.301131
C78	C	0.923996	-0.419624	-0.964340
N79	N	0.887947	-0.450537	-0.932434
C80	C	1.106692	-0.262911	-1.126108
N81	N	1.142724	-0.231990	-1.158023
H82	H	0.917110	-1.112451	-0.457532
H83	H	1.099606	-0.269018	-0.981966
H84	H	0.916895	-0.592330	-0.457426
C85	C	0.741014	-0.431219	-0.463137
N86	N	0.769913	-0.467037	-0.501522
C87	C	0.748599	-0.255406	-0.274748
N88	N	0.780493	-0.221859	-0.238799
C89	C	0.890886	-0.448042	-0.787253
N90	N	0.852406	-0.481036	-0.816143
C91	C	0.917830	-0.424912	-1.118440
N92	N	0.879353	-0.457910	-1.147328
C93	C	0.255732	-0.450508	-0.483830
N94	N	0.223833	-0.484050	-0.519780
H95	H	0.399871	-0.443918	-0.476755
C96	C	0.897066	-0.442768	-0.633144
N97	N	0.861025	-0.473684	-0.601233
C98	C	0.417415	-0.280455	-0.301605
N99	N	0.449305	-0.246907	-0.265653
C100	C	0.263313	-0.274698	-0.295439
N101	N	0.234408	-0.238880	-0.257057
H102	H	1.086595	-0.592792	-0.301045
C103	C	0.594487	-0.249646	-0.268585
N104	N	0.565579	-0.213829	-0.230205
C105	C	1.100012	-0.721493	-0.288757
N106	N	1.138769	-0.748832	-0.253050
C107	C	0.903578	-0.720960	-0.469755
N108	N	0.864835	-0.748093	-0.505461
