data_functionalizedCrystal
_audit_creation_method	'MofGen! by Chris Wilmer'
_symmetry_space_group_name_H-M	'P1'
_symmetry_Int_Tables_number	1
_symmetry_cell_setting	triclinic
loop_
_symmetry_equiv_pos_as_xyz
  x,y,z
_cell_length_a	14.519709
_cell_length_b	14.519731
_cell_length_c	13.930277
_cell_angle_alpha	89.994465
_cell_angle_beta	89.998398
_cell_angle_gamma	83.684499
loop_
_atom_site_label
_atom_site_type_symbol
_atom_site_fract_x
_atom_site_fract_y
_atom_site_fract_z
O1	O	1.223880	0.120889	-0.079708
O2	O	1.723880	0.620889	0.420292
O3	O	0.955405	0.135126	-0.079738
O4	O	1.455405	0.635126	0.420262
O5	O	1.096751	-0.006230	-0.079713
O6	O	1.596751	0.493770	0.420287
O7	O	1.082535	0.262245	-0.079732
O8	O	1.582535	0.762245	0.420268
O9	O	1.096731	-0.006233	0.079949
O10	O	1.596731	0.493767	0.579949
O11	O	0.955385	0.135123	0.079924
O12	O	1.455385	0.635123	0.579924
O13	O	1.223861	0.120886	0.079954
O14	O	1.723861	0.620886	0.579954
Zn15	Zn	1.089620	0.128004	0.105289
Zn16	Zn	1.589620	0.628004	0.605289
Zn17	Zn	1.089646	0.128008	-0.105073
Zn18	Zn	1.589646	0.628008	0.394927
O19	O	1.082515	0.262242	0.079929
O20	O	1.582515	0.762242	0.579929
C21	C	0.921035	0.134461	0.000090
C22	C	1.421035	0.634461	0.500090
C23	C	0.818654	0.132473	0.000079
C24	C	1.318654	0.632473	0.500079
C25	C	0.443757	0.125153	0.000123
C26	C	0.943757	0.625153	0.500123
C27	C	0.548065	0.127186	0.000110
C28	C	1.048065	0.627186	0.500110
C29	C	0.631202	0.128813	0.000100
C30	C	1.131202	0.628813	0.500100
C31	C	0.735517	0.130846	0.000089
C32	C	1.235517	0.630846	0.500089
C33	C	1.096075	-0.040591	0.000118
C34	C	1.596075	0.459409	0.500118
C35	C	1.094079	-0.142971	0.000118
C36	C	1.594079	0.357029	0.500118
C37	C	1.092457	-0.226115	0.000116
C38	C	1.592457	0.273885	0.500116
C39	C	1.090430	-0.330424	0.000108
C40	C	1.590430	0.169576	0.500108
C41	C	1.088822	-0.413563	0.000102
C42	C	1.588822	0.086437	0.500102
C43	C	1.086795	-0.517878	0.000096
C44	C	1.586795	-0.017878	0.500096
C45	C	1.258230	0.121551	0.000124
C46	C	1.758230	0.621551	0.500124
C47	C	1.360612	0.123539	0.000129
C48	C	1.860612	0.623539	0.500129
C49	C	1.083191	0.296603	0.000096
C50	C	1.583191	0.796603	0.500096
C51	C	1.085187	0.398983	0.000090
C52	C	1.585187	0.898983	0.500090
N53	N	1.089609	0.128001	0.248855
N54	N	1.589609	0.628001	0.748855
N55	N	1.089664	0.128004	-0.248639
N56	N	1.589664	0.628004	0.251361
C57	C	1.027055	0.190576	0.701113
C58	C	1.527055	0.690576	1.201113
C59	C	1.152261	0.065433	0.701104
C60	C	1.652261	0.565433	1.201104
C61	C	1.152251	0.065430	0.600609
C62	C	1.652251	0.565430	1.100609
C63	C	1.089642	0.128002	0.550361
C64	C	1.589642	0.628002	1.050361
C65	C	1.027044	0.190576	0.600608
C66	C	1.527044	0.690576	1.100608
C67	C	1.214853	0.002863	0.550353
C68	C	1.714853	0.502863	1.050353
C69	C	1.214846	0.002859	0.449851
C70	C	1.714846	0.502859	0.949851
C71	C	1.152232	0.065427	0.399602
C72	C	1.652232	0.565427	0.899602
C73	C	1.089631	0.128003	0.449856
C74	C	1.589631	0.628003	0.949856
C75	C	1.027022	0.190574	0.399608
C76	C	1.527022	0.690574	0.899608
C77	C	0.964416	0.253147	0.449860
C78	C	1.464416	0.753147	0.949860
C79	C	0.964430	0.253144	0.550359
C80	C	1.464430	0.753144	1.050359
C81	C	1.152217	0.065429	0.299103
C82	C	1.652217	0.565429	0.799103
C83	C	1.027011	0.190575	0.299103
C84	C	1.527011	0.690575	0.799103
H85	H	0.976024	0.241526	0.258197
H86	H	1.476024	0.741526	0.758197
Cl87	Cl	0.885717	0.331811	0.386680
Cl88	Cl	1.385717	0.831811	0.886680
H89	H	0.913460	0.304089	0.591280
H90	H	1.413460	0.804089	1.091280
Cl91	Cl	1.293564	-0.075789	0.613519
Cl92	Cl	1.793564	0.424211	1.113519
Cl93	Cl	0.948350	0.269232	0.764282
Cl94	Cl	1.448350	0.769232	1.264282
Cl95	Cl	1.230972	-0.013219	0.764270
Cl96	Cl	1.730972	0.486781	1.264270
Cl97	Cl	1.230922	-0.013222	0.235935
Cl98	Cl	1.730922	0.486778	0.735935
H99	H	1.265821	-0.048092	0.408942
H100	H	1.765821	0.451908	0.908942
