data_functionalizedCrystal
_audit_creation_method	'MofGen! by Chris Wilmer'
_symmetry_space_group_name_H-M	'P1'
_symmetry_Int_Tables_number	1
_symmetry_cell_setting	triclinic
loop_
_symmetry_equiv_pos_as_xyz
  x,y,z
_cell_length_a	12.759401
_cell_length_b	11.169416
_cell_length_c	11.169409
_cell_angle_alpha	90.029517
_cell_angle_beta	90.021365
_cell_angle_gamma	90.005763
loop_
_atom_site_label
_atom_site_type_symbol
_atom_site_fract_x
_atom_site_fract_y
_atom_site_fract_z
Zn1	Zn	1.606347	-0.477661	0.678616
Zn2	Zn	1.606269	-0.678402	0.477942
Zn3	Zn	1.430645	-0.477736	0.477945
Zn4	Zn	1.430670	-0.678306	0.678582
O5	O	1.518483	-0.578026	0.578271
O6	O	1.753358	-0.504298	0.652009
O7	O	1.582929	-0.651854	0.309993
O8	O	1.453974	-0.309777	0.504579
O9	O	1.753300	-0.651781	0.504575
O10	O	1.583062	-0.309721	0.652011
O11	O	1.453898	-0.504427	0.309995
O12	O	1.283627	-0.504334	0.504546
O13	O	1.454017	-0.651619	0.846536
O14	O	1.283645	-0.651692	0.651954
O15	O	1.583086	-0.504206	0.846561
O16	O	1.582953	-0.846339	0.504543
O17	O	1.453941	-0.846269	0.651952
C18	C	1.245515	-0.578012	0.578247
C19	C	1.128739	-0.578034	0.578266
C20	C	1.518470	-0.889851	0.578269
C21	C	1.518561	-1.023251	0.578309
C22	C	1.518563	-0.577893	0.891314
C23	C	1.518598	-0.577836	1.024714
C24	C	1.073914	-0.654880	0.654900
C25	C	0.964190	-0.654885	0.654924
C26	C	0.964125	-0.501194	0.501669
C27	C	1.073847	-0.501184	0.501652
C28	C	0.814302	-0.697941	0.796419
C29	C	0.759473	-0.774806	0.873043
C30	C	0.795090	-0.891931	0.891270
C31	C	0.885533	-0.932216	0.832855
C32	C	0.940356	-0.855358	0.756223
C33	C	0.904741	-0.738216	0.738019
C34	C	1.223737	-0.458140	0.360155
C35	C	1.278562	-0.381287	0.283515
C36	C	1.242948	-0.264160	0.265276
C37	C	1.152501	-0.223880	0.323669
C38	C	1.097676	-0.300733	0.400309
C39	C	1.133298	-0.417859	0.418550
C40	C	1.792516	-0.578042	0.578296
C41	C	1.909293	-0.578049	0.578306
C42	C	1.518524	-0.264984	0.578299
C43	C	1.518541	-0.131584	0.578311
C44	C	1.518463	-0.578072	0.266446
C45	C	1.518632	-0.577791	0.133047
H46	H	1.118603	-0.717453	0.717287
H47	H	1.287591	-0.201591	0.202859
N48	N	0.775883	-0.571609	0.776765
H49	H	0.824339	-0.529026	0.719362
H50	H	0.774772	-0.527535	0.855730
H51	H	1.352208	-0.414094	0.235968
N52	N	0.735961	-0.974830	0.973924
H53	H	0.772246	-1.055145	0.976607
H54	H	0.662019	-0.985485	0.943427
N55	N	1.037894	-0.898792	0.693213
H56	H	1.052138	-0.984659	0.716379
H57	H	1.099387	-0.847192	0.717344
H58	H	1.252750	-0.553512	0.375010
H59	H	0.685835	-0.741995	0.920605
H60	H	0.919419	-0.438628	0.439291
H61	H	1.024034	-0.267923	0.447864
N62	N	1.114078	-0.097549	0.304003
H63	H	1.040987	-0.099671	0.269320
H64	H	1.162604	-0.055048	0.246624
N65	N	0.923935	-1.058557	0.852492
H66	H	0.875481	-1.101134	0.909900
H67	H	0.997043	-1.056359	0.887117
