data_functionalizedCrystal
_audit_creation_method	'MofGen! by Chris Wilmer'
_symmetry_space_group_name_H-M	'P1'
_symmetry_Int_Tables_number	1
_symmetry_cell_setting	triclinic
loop_
_symmetry_equiv_pos_as_xyz
  x,y,z
_cell_length_a	27.731994
_cell_length_b	27.731996
_cell_length_c	26.210047
_cell_angle_alpha	89.989354
_cell_angle_beta	89.989666
_cell_angle_gamma	82.620961
loop_
_atom_site_label
_atom_site_type_symbol
_atom_site_fract_x
_atom_site_fract_y
_atom_site_fract_z
O1	O	0.640942	0.057393	-0.042363
O2	O	0.500143	0.066166	-0.042381
O3	O	0.574929	-0.008620	-0.042360
O4	O	0.566157	0.132179	-0.042383
O5	O	0.574905	-0.008620	0.042498
O6	O	0.500120	0.066166	0.042477
O7	O	0.640919	0.057393	0.042495
Cu8	Cu	0.570517	0.061779	0.050235
Cu9	Cu	0.570545	0.061779	-0.050120
O10	O	0.566133	0.132179	0.042475
C11	C	0.482124	0.065986	0.000046
C12	C	0.428468	0.065443	0.000040
C13	C	0.095737	0.062027	0.046316
C14	C	-0.105920	0.059966	0.046322
O15	O	-0.132004	0.059678	0.085661
N16	N	-0.131122	0.059710	0.000066
C17	C	-0.105906	0.059966	-0.046195
O18	O	-0.131969	0.059696	-0.085538
C19	C	0.095751	0.062024	-0.046200
C20	C	0.120950	0.062285	0.000059
C21	C	0.120936	0.062288	0.092572
C22	C	0.171347	0.062806	0.092570
C23	C	0.196560	0.063064	0.046312
C24	C	0.171361	0.062803	0.000057
C25	C	0.120966	0.062277	-0.092460
C26	C	0.171384	0.062790	-0.092458
C27	C	0.196583	0.063051	-0.046199
C28	C	0.246984	0.063579	-0.046202
N29	N	0.272186	0.063835	0.000054
C30	C	0.246974	0.063577	0.046311
C31	C	-0.211780	0.058886	-0.046188
C32	C	-0.262194	0.058373	-0.046187
C33	C	-0.262204	0.058372	0.046330
C34	C	-0.211789	0.058889	0.046328
C35	C	-0.186578	0.059142	0.000068
C36	C	0.352841	0.064666	0.046303
C37	C	0.403256	0.065186	0.046297
C38	C	0.403262	0.065184	-0.046220
C39	C	0.352851	0.064667	-0.046214
C40	C	0.327642	0.064406	0.000052
O41	O	0.273099	0.063861	-0.085521
O42	O	0.273046	0.063837	0.085649
C43	C	0.045326	0.061509	0.046318
C44	C	0.020127	0.061249	0.000063
C45	C	0.045340	0.061507	-0.046194
C46	C	-0.030287	0.060735	0.000064
C47	C	-0.055499	0.060478	0.046322
C48	C	-0.030297	0.060734	0.092578
C49	C	0.020114	0.061252	0.092576
C50	C	0.020138	0.061251	-0.092450
C51	C	-0.030274	0.060733	-0.092445
C52	C	-0.055486	0.060475	-0.046187
C53	C	0.574737	-0.026628	0.000071
C54	C	0.574194	-0.080284	0.000076
C55	C	0.570792	-0.412999	-0.046206
C56	C	0.568731	-0.614657	-0.046215
O57	O	0.568454	-0.640728	-0.085554
N58	N	0.568462	-0.639874	0.000041
C59	C	0.568706	-0.614673	0.046302
O60	O	0.568425	-0.640748	0.085645
C61	C	0.570763	-0.413016	0.046311
C62	C	0.571037	-0.387802	0.000052
C63	C	0.571065	-0.387785	-0.092461
C64	C	0.571583	-0.337374	-0.092458
C65	C	0.571828	-0.312177	-0.046200
C66	C	0.571555	-0.337391	0.000055
C67	C	0.571003	-0.387816	0.092571
C68	C	0.571516	-0.337398	0.092569
C69	C	0.571790	-0.312184	0.046311
C70	C	0.572317	-0.261783	0.046315
N71	N	0.572586	-0.236566	0.000060
C72	C	0.572341	-0.261763	-0.046198
C73	C	0.567626	-0.720547	0.046294
C74	C	0.567113	-0.770961	0.046292
C75	C	0.567137	-0.770941	-0.046225
C76	C	0.567654	-0.720526	-0.046222
C77	C	0.567895	-0.695329	0.000038
C78	C	0.573429	-0.155896	-0.046189
C79	C	0.573949	-0.105481	-0.046182
C80	C	0.573922	-0.105505	0.046335
C81	C	0.573405	-0.155916	0.046328
C82	C	0.573157	-0.181110	0.000062
O83	O	0.572589	-0.235680	0.085634
O84	O	0.572611	-0.235678	-0.085535
C85	C	0.570274	-0.463410	-0.046209
C86	C	0.570001	-0.488624	0.000046
C87	C	0.570246	-0.463427	0.046304
C88	C	0.569487	-0.539039	0.000044
C89	C	0.569243	-0.564236	-0.046213
C90	C	0.569511	-0.539019	-0.092469
C91	C	0.570029	-0.488608	-0.092466
C92	C	0.569977	-0.488644	0.092560
C93	C	0.569460	-0.539055	0.092553
C94	C	0.569215	-0.564253	0.046296
C95	C	0.658938	0.057573	0.000067
C96	C	0.712594	0.058115	0.000070
C97	C	0.566325	0.150186	0.000043
C98	C	0.566868	0.203842	0.000034
N99	N	0.570501	0.061779	0.120818
N100	N	0.570565	0.061776	-0.120704
C101	C	0.599632	0.090885	0.473331
C102	C	0.599646	0.090885	0.686990
O103	O	0.624403	0.115626	0.714611
N104	N	0.570556	0.061774	0.713712
C105	C	0.541463	0.032659	0.687017
O106	O	0.516724	0.007895	0.714648
C107	C	0.541452	0.032658	0.473359
C108	C	0.570540	0.061774	0.446640
C109	C	0.628718	0.119998	0.446612
C110	C	0.628713	0.120000	0.393200
C111	C	0.599620	0.090889	0.366509
C112	C	0.570534	0.061775	0.393228
C113	C	0.512361	0.003541	0.446665
C114	C	0.512362	0.003542	0.393247
C115	C	0.541450	0.032658	0.366527
C116	C	0.541436	0.032666	0.313125
N117	N	0.570526	0.061776	0.286403
C118	C	0.599618	0.090888	0.313094
C119	C	0.541470	0.032663	0.799190
C120	C	0.541472	0.032664	0.852604
C121	C	0.599657	0.090889	0.852574
C122	C	0.599652	0.090890	0.799159
C123	C	0.570560	0.061774	0.772468
C124	C	0.599603	0.090890	0.200926
C125	C	0.599593	0.090890	0.147510
C126	C	0.541411	0.032664	0.147545
C127	C	0.541419	0.032665	0.200957
C128	C	0.570519	0.061779	0.227646
O129	O	0.516696	0.007933	0.285471
O130	O	0.624361	0.115640	0.285454
C131	C	0.599638	0.090883	0.526743
C132	C	0.570552	0.061770	0.553463
C133	C	0.541459	0.032659	0.526771
C134	C	0.570554	0.061771	0.606877
C135	C	0.599646	0.090882	0.633569
C136	C	0.628736	0.119993	0.606846
C137	C	0.628730	0.119995	0.553435
C138	C	0.512369	0.003548	0.553493
C139	C	0.512377	0.003549	0.606905
C140	C	0.541469	0.032661	0.633596
H141	H	0.100414	0.062077	0.130242
H142	H	-0.050834	0.060526	0.130242
Br143	Br	0.639131	0.130404	0.762902
H144	H	0.488679	-0.020159	0.531766
H145	H	0.517780	0.008961	0.874355
H146	H	0.569241	-0.559581	0.130225
Br147	Br	0.501976	-0.006846	0.762974
Br148	Br	0.318650	0.064322	-0.108994
H149	H	0.517727	0.008963	0.222713
H150	H	0.623343	0.114594	0.874315
H151	H	0.191860	0.063015	0.130239
H152	H	0.573225	-0.176403	-0.083863
H153	H	0.623300	0.114597	0.222651
H154	H	0.488675	-0.020169	0.468411
H155	H	0.423799	0.065396	-0.083881
Br156	Br	0.566803	-0.805146	-0.109003
H157	H	0.652411	0.143704	0.468339
Br158	Br	0.668215	0.159504	0.643081
Br159	Br	0.054346	0.061599	-0.155235
Br160	Br	-0.296388	0.058030	-0.108970
Br161	Br	0.437451	0.065543	0.109082
Br162	Br	0.472884	-0.035981	0.357027
Br163	Br	0.574256	-0.071299	0.109110
Br164	Br	0.566753	-0.805175	0.109074
Br165	Br	0.318636	0.064310	0.109093
Br166	Br	0.472892	-0.035966	0.643160
H167	H	-0.191276	0.059102	0.083997
H168	H	0.570781	-0.408336	0.130240
H169	H	0.571804	-0.316850	-0.130126
Br170	Br	0.574323	-0.071266	-0.108966
Br171	Br	-0.064466	0.060383	-0.155231
H172	H	0.570252	-0.468083	-0.130135
H173	H	0.517724	0.008964	0.125803
H174	H	0.652417	0.143704	0.531684
Br175	Br	-0.296430	0.058022	0.109108
Br176	Br	0.569183	-0.573225	-0.155247
H177	H	0.100458	0.062064	-0.130130
Br178	Br	0.668182	0.159526	0.356946
H179	H	-0.191257	0.059092	-0.083861
Br180	Br	0.573045	-0.190137	0.109108
H181	H	0.623280	0.114602	0.125758
Br182	Br	0.205598	0.063132	-0.155244
H183	H	0.040627	0.061464	0.130245
H184	H	0.570864	-0.408295	-0.130131
H185	H	0.571705	-0.316884	0.130242
H186	H	0.567825	-0.700036	0.083967
Br187	Br	0.568025	-0.686313	-0.109004
H188	H	0.570177	-0.468134	0.130229
