data_functionalizedCrystal
_audit_creation_method	'MofGen! by Chris Wilmer'
_symmetry_space_group_name_H-M	'P1'
_symmetry_Int_Tables_number	1
_symmetry_cell_setting	triclinic
loop_
_symmetry_equiv_pos_as_xyz
  x,y,z
_cell_length_a	17.019383
_cell_length_b	17.038272
_cell_length_c	14.421503
_cell_angle_alpha	89.995673
_cell_angle_beta	93.883595
_cell_angle_gamma	87.246883
loop_
_atom_site_label
_atom_site_type_symbol
_atom_site_fract_x
_atom_site_fract_y
_atom_site_fract_z
O1	O	1.053363	0.099636	0.161143
O2	O	1.386696	0.432970	0.494477
O3	O	1.720029	0.766303	0.827810
O4	O	0.824551	0.112327	0.142892
O5	O	1.157884	0.445661	0.476225
O6	O	1.491218	0.778994	0.809559
O7	O	0.937597	-0.007832	0.151902
O8	O	1.270930	0.325501	0.485235
O9	O	1.604264	0.658834	0.818568
O10	O	0.940317	0.219796	0.152133
O11	O	1.273650	0.553129	0.485467
O12	O	1.606983	0.886463	0.818800
O13	O	0.937578	-0.007815	-0.002323
O14	O	1.270911	0.325519	0.331010
O15	O	1.604245	0.658852	0.664344
O16	O	0.824532	0.112345	-0.011333
O17	O	1.157866	0.445678	0.322000
O18	O	1.491199	0.779012	0.655334
O19	O	1.053344	0.099654	0.006918
O20	O	1.386677	0.432988	0.340252
O21	O	1.720011	0.766321	0.673585
Cu22	Cu	0.938936	0.106001	-0.016289
Cu23	Cu	1.272270	0.439335	0.317044
Cu24	Cu	1.605603	0.772668	0.650377
Cu25	Cu	0.938959	0.105980	0.166100
Cu26	Cu	1.272292	0.439314	0.499433
Cu27	Cu	1.605625	0.772647	0.832766
O28	O	0.940298	0.219814	-0.002091
O29	O	1.273631	0.553147	0.331242
O30	O	1.606965	0.886481	0.664575
C31	C	0.795120	0.111853	0.063433
C32	C	1.128454	0.445187	0.396766
C33	C	1.461787	0.778520	0.730099
C34	C	0.707454	0.110405	0.056440
C35	C	1.040787	0.443738	0.389773
C36	C	1.374120	0.777072	0.723106
C37	C	0.666271	0.109717	0.137216
C38	C	0.999604	0.443050	0.470549
C39	C	1.332937	0.776384	0.803882
C40	C	0.583898	0.108369	0.130631
C41	C	0.917231	0.441702	0.463965
C42	C	1.250564	0.775035	0.797298
C43	C	0.542709	0.107703	0.043270
C44	C	0.876043	0.441036	0.376604
C45	C	1.209376	0.774370	0.709937
C46	C	0.583898	0.108394	-0.037511
C47	C	0.917231	0.441727	0.295822
C48	C	1.250565	0.775060	0.629155
C49	C	0.666269	0.109748	-0.030926
C50	C	0.999602	0.443081	0.302407
C51	C	1.332936	0.776414	0.635740
C52	C	0.294001	0.103621	0.019182
C53	C	0.627334	0.436954	0.352515
C54	C	0.960668	0.770288	0.685849
C55	C	0.211624	0.102265	0.012603
C56	C	0.544958	0.435598	0.345936
C57	C	0.878291	0.768931	0.679269
C58	C	0.211630	0.102241	0.180746
C59	C	0.544963	0.435574	0.514080
C60	C	0.878296	0.768908	0.847413
C61	C	0.294003	0.103590	0.187324
C62	C	0.627336	0.436924	0.520657
C63	C	0.960669	0.770257	0.853991
C64	C	0.335184	0.104285	0.106542
C65	C	0.668517	0.437618	0.439875
C66	C	1.001850	0.770952	0.773209
C67	C	0.458511	0.106322	0.036538
C68	C	0.791844	0.439656	0.369872
C69	C	1.125178	0.772989	0.703205
C70	C	0.419380	0.105671	0.113275
C71	C	0.752714	0.439005	0.446608
C72	C	1.086047	0.772338	0.779942
C73	C	0.935114	-0.036950	0.074592
C74	C	1.268447	0.296384	0.407925
C75	C	1.601781	0.629717	0.741259
C76	C	0.927734	-0.123737	0.074004
C77	C	1.261067	0.209597	0.407337
C78	C	1.594400	0.542930	0.740670
C79	C	0.995493	-0.173906	0.079408
C80	C	1.328827	0.159427	0.412741
C81	C	1.662160	0.492761	0.746074
C82	C	0.988554	-0.255451	0.078863
C83	C	1.321887	0.077882	0.412196
C84	C	1.655221	0.411216	0.745530
C85	C	0.913854	-0.286825	0.072908
C86	C	1.247188	0.046509	0.406241
C87	C	1.580521	0.379842	0.739574
C88	C	0.846089	-0.236649	0.067506
C89	C	1.179423	0.096684	0.400839
C90	C	1.512756	0.430018	0.734173
C91	C	0.853029	-0.155106	0.068057
C92	C	1.186363	0.178228	0.401391
C93	C	1.519696	0.511561	0.734724
C94	C	0.889337	-0.532563	0.070965
C95	C	1.222670	-0.199229	0.404298
C96	C	1.556003	0.134104	0.737631
C97	C	0.882402	-0.614112	0.070411
C98	C	1.215735	-0.280779	0.403744
C99	C	1.549068	0.052554	0.737078
C100	C	1.024867	-0.632909	0.081769
C101	C	1.358200	-0.299575	0.415103
C102	C	1.691534	0.033758	0.748436
C103	C	1.031800	-0.551363	0.082315
C104	C	1.365134	-0.218030	0.415648
C105	C	1.698467	0.115304	0.748981
C106	C	0.964036	-0.501194	0.076918
C107	C	1.297369	-0.167861	0.410251
C108	C	1.630702	0.165472	0.743585
C109	C	0.906759	-0.370177	0.072348
C110	C	1.240093	-0.036843	0.405681
C111	C	1.573426	0.296490	0.739014
C112	C	0.971131	-0.417844	0.077485
C113	C	1.304464	-0.084511	0.410818
C114	C	1.637798	0.248822	0.744151
C115	C	1.082775	0.100128	0.086380
C116	C	1.416108	0.433462	0.419713
C117	C	1.749441	0.766795	0.753046
C118	C	1.170441	0.101576	0.093379
C119	C	1.503775	0.434910	0.426712
C120	C	1.837108	0.768243	0.760045
C121	C	0.942781	0.248931	0.075220
C122	C	1.276114	0.582265	0.408554
C123	C	1.609448	0.915598	0.741887
C124	C	0.950161	0.335718	0.075815
C125	C	1.283495	0.669051	0.409148
C126	C	1.616828	1.002385	0.742481
N127	N	0.938926	0.106016	-0.144571
N128	N	1.272260	0.439349	0.188762
N129	N	1.605593	0.772682	0.522095
C130	C	0.886642	0.161553	-0.398392
C131	C	1.219976	0.494886	-0.065059
C132	C	1.553309	0.828219	0.268275
C133	C	0.958934	0.176650	-0.454427
C134	C	1.292268	0.509983	-0.121094
C135	C	1.625601	0.843317	0.212239
C136	C	0.938944	0.105997	-0.333731
C137	C	1.272278	0.439330	-0.000398
C138	C	1.605611	0.772664	0.332935
C139	C	0.866672	0.090918	-0.461788
C140	C	1.200005	0.424251	-0.128455
C141	C	1.533339	0.757584	0.204878
C142	C	0.938955	0.105981	-0.516452
C143	C	1.272289	0.439314	-0.183118
C144	C	1.605622	0.772647	0.150215
C145	C	1.011275	0.121130	-0.388403
C146	C	1.344608	0.454463	-0.055069
C147	C	1.677941	0.787796	0.278264
C148	C	0.918963	0.035367	-0.395762
C149	C	1.252297	0.368700	-0.062429
C150	C	1.585630	0.702033	0.270904
C151	C	0.991305	0.050434	-0.451766
C152	C	1.324638	0.383767	-0.118432
C153	C	1.657971	0.717101	0.214901
C154	C	0.938937	0.106008	-0.228471
C155	C	1.272270	0.439342	0.104863
C156	C	1.605604	0.772675	0.438196
C157	C	0.938971	0.105969	-0.621710
C158	C	1.272304	0.439302	-0.288376
C159	C	1.605638	0.772635	0.044957
N160	N	0.938974	0.105960	0.294382
N161	N	1.272308	0.439293	0.627715
N162	N	1.605641	0.772626	0.961049
H163	H	0.178091	0.101677	0.246514
H164	H	0.511424	0.435011	0.579848
H165	H	0.844758	0.768344	0.913181
H166	H	0.842463	0.208572	-0.374815
H167	H	1.175796	0.541905	-0.041482
H168	H	1.509130	0.875238	0.291851
H169	H	1.035591	0.003443	-0.475164
H170	H	1.368924	0.336776	-0.141830
H171	H	1.702258	0.670109	0.191503
H172	H	0.785267	-0.262200	0.062663
H173	H	1.118600	0.071133	0.395996
H174	H	1.451934	0.404467	0.729330
F175	F	0.540071	0.107637	0.216605
F176	F	0.873405	0.440970	0.549938
F177	F	1.206738	0.774304	0.883271
F178	F	0.786779	0.074255	-0.503675
F179	F	1.120112	0.407588	-0.170341
F180	F	1.453446	0.740922	0.162992
F181	F	0.780910	-0.101712	0.062309
F182	F	1.114243	0.231622	0.395642
F183	F	1.447577	0.564955	0.728975
F184	F	1.075000	-0.140523	0.085737
F185	F	1.408333	0.192810	0.419070
F186	F	1.741666	0.526143	0.752404
H187	H	0.975845	0.236373	-0.480247
H188	H	1.309178	0.569707	-0.146913
H189	H	1.642511	0.903040	0.186420
H190	H	0.327521	0.104181	-0.046597
H191	H	0.660855	0.437515	0.286737
H192	H	0.994188	0.770848	0.620070
H193	H	1.031951	-0.392296	0.082354
H194	H	1.365285	-0.058963	0.415687
H195	H	1.698618	0.274371	0.749021
H196	H	0.834157	-0.491725	0.066570
H197	H	1.167490	-0.158391	0.399903
H198	H	1.500824	0.174942	0.733237
F199	F	1.091193	0.137882	-0.346670
F200	F	1.424527	0.471215	-0.013336
F201	F	1.757860	0.804548	0.319997
H202	H	0.902032	-0.024337	-0.369923
H203	H	1.235365	0.308996	-0.036590
H204	H	1.568699	0.642329	0.296744
H205	H	0.699799	0.110311	-0.096703
H206	H	1.033132	0.443645	0.236631
H207	H	1.366466	0.776978	0.569964
F208	F	0.710099	0.110420	0.230198
F209	F	1.043433	0.443753	0.563531
F210	F	1.376766	0.777086	0.896865
H211	H	0.178090	0.101745	-0.058541
H212	H	0.511423	0.435078	0.274793
H213	H	0.844756	0.768412	0.608126
F214	F	0.540060	0.107691	-0.130488
F215	F	0.873393	0.441025	0.202845
F216	F	1.206726	0.774358	0.536179
H217	H	0.327533	0.104127	0.258462
H218	H	0.660866	0.437460	0.591796
H219	H	0.994200	0.770793	0.925129
H220	H	0.452919	0.106218	0.184404
H221	H	0.786252	0.439551	0.517737
H222	H	1.119586	0.772884	0.851071
H223	H	0.424967	0.105778	-0.034591
H224	H	0.758300	0.439111	0.298742
H225	H	1.091633	0.772445	0.632075
H226	H	1.092629	-0.525825	0.087164
H227	H	1.425962	-0.192492	0.420497
H228	H	1.759295	0.140842	0.753831
F229	F	1.096982	-0.686307	0.087514
F230	F	1.430315	-0.352974	0.420847
F231	F	1.763649	-0.019640	0.754180
F232	F	1.060674	-0.308842	0.084613
F233	F	1.394007	0.024491	0.417946
F234	F	1.727341	0.357825	0.751279
H235	H	0.821569	-0.639653	0.065546
H236	H	1.154902	-0.306320	0.398879
H237	H	1.488236	0.027013	0.732213
F238	F	0.827260	-0.403574	0.066014
F239	F	1.160594	-0.070241	0.399347
F240	F	1.493927	0.263092	0.732680
