data_functionalizedCrystal
_audit_creation_method	'MofGen! by Chris Wilmer'
_symmetry_space_group_name_H-M	'P1'
_symmetry_Int_Tables_number	1
_symmetry_cell_setting	triclinic
loop_
_symmetry_equiv_pos_as_xyz
  x,y,z
_cell_length_a	14.971486
_cell_length_b	16.176319
_cell_length_c	14.971486
_cell_angle_alpha	89.992992
_cell_angle_beta	96.385871
_cell_angle_gamma	90.002456
loop_
_atom_site_label
_atom_site_type_symbol
_atom_site_fract_x
_atom_site_fract_y
_atom_site_fract_z
O1	O	1.186948	0.068652	-0.116565
O2	O	1.686948	0.568652	0.383435
O3	O	0.926548	0.068674	-0.130524
O4	O	1.426548	0.568674	0.369476
O5	O	1.063728	0.068657	0.006656
O6	O	1.563728	0.568657	0.506656
O7	O	1.049769	0.068670	-0.253744
O8	O	1.549769	0.568670	0.246256
O9	O	1.063709	-0.068837	0.006665
O10	O	1.563709	0.431163	0.506665
O11	O	0.926529	-0.068819	-0.130515
O12	O	1.426529	0.431181	0.369485
O13	O	1.186929	-0.068841	-0.116556
O14	O	1.686929	0.431159	0.383444
Cu15	Cu	1.056727	-0.081384	-0.123535
Cu16	Cu	1.556727	0.418616	0.376465
Cu17	Cu	1.056750	0.081217	-0.123545
Cu18	Cu	1.556750	0.581217	0.376455
O19	O	1.049750	-0.068824	-0.253736
O20	O	1.549750	0.431176	0.246264
C21	C	0.893214	-0.000069	-0.129895
C22	C	1.393214	0.499931	0.370105
C23	C	0.793917	-0.000061	-0.128024
C24	C	1.293917	0.499939	0.371976
N25	N	1.056718	-0.195749	-0.123527
N26	N	1.556718	0.304251	0.376473
C27	C	0.736691	-0.000058	-0.208614
C28	C	1.236691	0.499942	0.291386
C29	C	0.643392	-0.000070	-0.206850
C30	C	1.143392	0.499930	0.293150
C31	C	0.607320	-0.000080	-0.124497
C32	C	1.107320	0.499920	0.375503
C33	C	0.664552	-0.000085	-0.043902
C34	C	1.164552	0.499915	0.456098
C35	C	0.757850	-0.000079	-0.045666
C36	C	1.257850	0.499921	0.454334
C37	C	0.470090	-0.000097	-0.040231
C38	C	0.970090	0.499903	0.459769
C39	C	0.376786	-0.000102	-0.038466
C40	C	0.876786	0.499898	0.461534
C41	C	0.355632	-0.000088	-0.201415
C42	C	0.855632	0.499912	0.298585
C43	C	0.448930	-0.000082	-0.203179
C44	C	0.948930	0.499918	0.296821
C45	C	0.506156	-0.000086	-0.122584
C46	C	1.006156	0.499914	0.377416
C47	C	1.117480	-0.239022	-0.062809
C48	C	1.617480	0.260978	0.437191
C49	C	1.117484	-0.325569	-0.062808
C50	C	1.617484	0.174431	0.437192
C51	C	1.056731	-0.368842	-0.123530
C52	C	1.556731	0.131158	0.376470
C53	C	0.995963	-0.325564	-0.184251
C54	C	1.495963	0.174436	0.315749
C55	C	0.995955	-0.239018	-0.184247
C56	C	1.495955	0.260982	0.315753
C57	C	0.995994	-0.674592	-0.184268
C58	C	1.495994	-0.174592	0.315732
C59	C	0.996008	-0.761144	-0.184269
C60	C	1.496008	-0.261144	0.315731
C61	C	1.117523	-0.761142	-0.062829
C62	C	1.617523	-0.261142	0.437171
C63	C	1.117515	-0.674597	-0.062825
C64	C	1.617515	-0.174597	0.437175
C65	C	1.056744	-0.631326	-0.123542
C66	C	1.556744	-0.131326	0.376458
C67	C	1.056739	-0.537482	-0.123541
C68	C	1.556739	-0.037482	0.376459
C69	C	1.056740	-0.462685	-0.123536
C70	C	1.556740	0.037315	0.376464
C71	C	1.220263	-0.000096	-0.117185
C72	C	1.720263	0.499904	0.382815
C73	C	1.319561	-0.000099	-0.119056
C74	C	1.819561	0.499901	0.380944
C75	C	1.063094	-0.000090	0.039985
C76	C	1.563094	0.499910	0.539985
C77	C	1.061223	-0.000089	0.139282
C78	C	1.561223	0.499911	0.639282
N79	N	1.056766	0.195583	-0.123546
N80	N	1.556766	0.695583	0.376454
C81	C	1.050384	-0.000075	-0.287065
C82	C	1.550384	0.499925	0.212935
C83	C	1.052254	-0.000071	-0.386362
C84	C	1.552254	0.499929	0.113638
C85	C	1.141812	-0.000096	0.196507
C86	C	1.641812	0.499904	0.696507
C87	C	1.140049	-0.000088	0.289807
C88	C	1.640049	0.499912	0.789807
C89	C	1.057696	-0.000078	0.325879
C90	C	1.557696	0.499922	0.825879
C91	C	0.977101	-0.000068	0.268646
C92	C	1.477101	0.499932	0.768646
C93	C	0.978865	-0.000070	0.175349
C94	C	1.478865	0.499930	0.675349
C95	C	0.973430	-0.000064	0.463109
C96	C	1.473430	0.499936	0.963109
C97	C	0.971665	-0.000063	0.556413
C98	C	1.471665	0.499937	1.056413
C99	C	1.134614	-0.000082	0.577567
C100	C	1.634614	0.499918	1.077567
C101	C	1.136378	-0.000085	0.484269
C102	C	1.636378	0.499915	0.984269
C103	C	1.055782	-0.000076	0.427043
C104	C	1.555782	0.499924	0.927043
H105	H	0.766054	-0.000050	-0.275675
H106	H	1.266054	0.499950	0.224325
H107	H	1.205673	-0.000096	0.336396
H108	H	1.705673	0.499904	0.836396
Cl109	Cl	0.872107	-0.000053	0.391168
Cl110	Cl	1.372107	0.499947	0.891168
H111	H	1.166956	-0.203794	-0.013365
H112	H	1.666956	0.296206	0.486635
H113	H	0.946492	-0.360802	-0.233689
H114	H	1.446492	0.139198	0.266311
Cl115	Cl	1.245348	-0.000118	0.151169
Cl116	Cl	1.745348	0.499882	0.651169
H117	H	1.166989	-0.639366	-0.013382
H118	H	1.666989	-0.139366	0.486618
Cl119	Cl	1.193919	-0.815544	0.013507
Cl120	Cl	1.693919	-0.315544	0.513507
H121	H	0.946514	-0.639368	-0.233708
H122	H	1.446514	-0.139368	0.266292
Cl123	Cl	1.239909	-0.000093	0.438922
Cl124	Cl	1.739909	0.499907	0.938922
Cl125	Cl	1.235935	-0.000088	0.649508
Cl126	Cl	1.735935	0.499912	1.149508
Cl127	Cl	0.873570	-0.000045	0.313995
Cl128	Cl	1.373570	0.499955	0.813995
Cl129	Cl	0.868134	-0.000051	0.601760
Cl130	Cl	1.368134	0.499949	1.101760
H131	H	1.166960	-0.360800	-0.013366
H132	H	1.666960	0.139200	0.486634
Cl133	Cl	0.877548	-0.000058	0.103407
Cl134	Cl	1.377548	0.499942	0.603407
H135	H	0.596802	-0.000067	-0.272474
H136	H	1.096802	0.499933	0.227526
H137	H	0.309033	-0.000089	-0.267039
H138	H	0.809033	0.499911	0.232961
Cl139	Cl	0.494276	-0.000061	-0.306711
Cl140	Cl	0.994276	0.499939	0.193289
H141	H	0.347419	-0.000110	0.028593
H142	H	0.847419	0.499890	0.528593
H143	H	0.946532	-0.796376	-0.233718
H144	H	1.446532	-0.296376	0.266282
H145	H	0.516682	-0.000101	0.025399
H146	H	1.016682	0.499899	0.525399
H147	H	0.635175	-0.000105	0.023152
H148	H	1.135175	0.499895	0.523152
H149	H	0.804443	-0.000080	0.019958
H150	H	1.304443	0.499920	0.519958
Cl151	Cl	0.919562	-0.184620	-0.260579
Cl152	Cl	1.419562	0.315380	0.239421
