data_functionalizedCrystal
_audit_creation_method	'MofGen! by Chris Wilmer'
_symmetry_space_group_name_H-M	'P1'
_symmetry_Int_Tables_number	1
_symmetry_cell_setting	triclinic
loop_
_symmetry_equiv_pos_as_xyz
  x,y,z
_cell_length_a	6.817900
_cell_length_b	15.301126
_cell_length_c	10.943624
_cell_angle_alpha	93.526548
_cell_angle_beta	108.838799
_cell_angle_gamma	104.177575
loop_
_atom_site_label
_atom_site_type_symbol
_atom_site_fract_x
_atom_site_fract_y
_atom_site_fract_z
V1	V	-4.091711	-0.124735	-0.402943
O2	O	-4.074352	0.006018	-0.394869
O3	O	-4.046281	-0.247352	-0.400576
O4	O	-4.070041	-0.122806	-0.578504
O5	O	-4.050427	-0.119390	-0.215710
V6	V	-4.571490	-0.109097	-0.380502
O7	O	-4.361181	-0.159039	-0.452171
O8	O	-4.752217	-0.074793	-0.331274
O9	O	-4.393714	0.013520	-0.382869
O10	O	-4.706246	-0.239850	-0.388576
O11	O	-4.730171	-0.114442	-0.567735
O12	O	-4.369953	-0.111026	-0.204941
C13	C	-3.891139	-0.277244	-0.394320
C14	C	-3.935460	-0.377485	-0.393554
C15	C	-3.921447	-0.118371	-0.621283
C16	C	-3.985033	-0.117605	-0.764807
C17	C	-4.139502	-0.429171	-0.399649
C18	C	-4.181137	-0.523358	-0.398937
C19	C	-4.018724	-0.565857	-0.392121
C20	C	-3.814667	-0.514165	-0.386030
C21	C	-3.773039	-0.419980	-0.386751
C22	C	-3.901445	-0.710476	-0.384525
C23	C	-3.943074	-0.804667	-0.383801
C24	C	-4.309544	-0.813854	-0.396711
C25	C	-4.267915	-0.719669	-0.397432
C26	C	-4.063859	-0.667983	-0.391338
C27	C	-3.830847	-0.112446	-0.841938
C28	C	-4.005603	-0.189024	-0.948169
C29	C	-3.923600	-0.039671	-0.914312
C30	C	-4.158986	-0.194255	-0.869161
C31	C	-4.076916	-0.044835	-0.835281
C32	C	-4.251805	-0.121434	-0.941482
C33	C	-4.212197	0.043407	-0.389122
C34	C	-4.147116	0.143647	-0.389896
C35	C	-4.181889	-0.115463	-0.162156
C36	C	-4.097541	-0.116225	-0.018630
H37	H	-4.347286	-0.565437	-0.403902
H38	H	-3.652351	-0.108749	-0.798478
H39	H	-3.824705	0.025644	-0.934869
H40	H	-3.976118	-0.249982	-0.997309
C41	C	-4.115679	0.036488	-0.769496
C42	C	-3.920480	0.090098	-0.677122
C43	C	-3.956078	0.165023	-0.616477
H44	H	-4.171670	0.071885	-0.833300
H45	H	-4.216231	0.015544	-0.727192
H46	H	-3.819964	0.111042	-0.719425
H47	H	-3.864459	0.054728	-0.613292
H48	H	-4.056630	0.144080	-0.574173
H49	H	-4.012073	0.200413	-0.680290
H50	H	-3.823648	0.201402	-0.553786
C51	C	-4.291168	-0.281503	-0.842321
C52	C	-4.433220	-0.334910	-0.960920
C53	C	-4.555028	-0.415282	-0.936243
H54	H	-4.197323	-0.314571	-0.796106
H55	H	-4.371320	-0.266723	-0.791362
H56	H	-4.353075	-0.349691	-1.011858
H57	H	-4.527110	-0.301869	-1.007153
H58	H	-4.635180	-0.400502	-0.885284
H59	H	-4.461166	-0.448343	-0.890025
H60	H	-4.651438	-0.451525	-1.016706
C61	C	-3.766706	-0.850837	-0.376149
C62	C	-3.724497	-0.892472	-0.263709
C63	C	-3.562025	-0.935005	-0.256609
H64	H	-3.812673	-0.895683	-0.451169
H65	H	-3.639135	-0.806591	-0.372560
H66	H	-3.852042	-0.936714	-0.267308
H67	H	-3.678497	-0.847646	-0.188669
H68	H	-3.434453	-0.890759	-0.253020
H69	H	-3.608007	-0.979846	-0.331635
H70	H	-3.533351	-0.963252	-0.180314
H71	H	-4.430391	-0.125252	-0.984739
H72	H	-3.682434	-0.548776	-0.380489
H73	H	-4.271757	-0.394574	-0.405186
H74	H	-4.475686	-0.855939	-0.401653
C75	C	-4.444143	-0.673426	-0.405028
C76	C	-4.486254	-0.631749	-0.517432
C77	C	-4.648562	-0.589131	-0.524467
H78	H	-4.571794	-0.717602	-0.408630
H79	H	-4.398002	-0.628593	-0.329952
H80	H	-4.532404	-0.676577	-0.592489
H81	H	-4.358650	-0.587560	-0.513855
H82	H	-4.602421	-0.544298	-0.449390
H83	H	-4.776199	-0.633313	-0.528065
H84	H	-4.677142	-0.560841	-0.600725
H85	H	-3.735289	-0.668397	-0.379573
C86	C	-3.551327	-0.363876	-0.379857
C87	C	-3.395553	-0.371845	-0.264140
C88	C	-3.191291	-0.320167	-0.257742
H89	H	-3.520080	-0.385603	-0.452654
H90	H	-3.549672	-0.301679	-0.381192
H91	H	-3.397202	-0.434029	-0.262816
H92	H	-3.426728	-0.350112	-0.191322
H93	H	-3.189637	-0.257969	-0.259077
H94	H	-3.160067	-0.341898	-0.330544
H95	H	-3.085577	-0.325560	-0.179223
