data_functionalizedCrystal
_audit_creation_method	'MofGen! by Chris Wilmer'
_symmetry_space_group_name_H-M	'P1'
_symmetry_Int_Tables_number	1
_symmetry_cell_setting	triclinic
loop_
_symmetry_equiv_pos_as_xyz
  x,y,z
_cell_length_a	22.610064
_cell_length_b	14.519709
_cell_length_c	14.519709
_cell_angle_alpha	83.680145
_cell_angle_beta	90.003132
_cell_angle_gamma	89.997369
loop_
_atom_site_label
_atom_site_type_symbol
_atom_site_fract_x
_atom_site_fract_y
_atom_site_fract_z
O1	O	0.049109	-1.223874	-0.120879
O2	O	0.049127	-0.955397	-0.135115
O3	O	0.049112	-1.096754	0.006241
O4	O	0.049124	-1.082517	-0.262235
O5	O	-0.049257	-1.096729	0.006221
O6	O	-0.049242	-0.955372	-0.135136
O7	O	-0.049260	-1.223849	-0.120899
Zn8	Zn	-0.064869	-1.089606	-0.128021
Zn9	Zn	0.064736	-1.089639	-0.127994
O10	O	-0.049245	-1.082492	-0.262256
C11	C	-0.000055	-0.921025	-0.134462
C12	C	-0.000048	-0.818643	-0.132474
N13	N	-0.153322	-1.089591	-0.128039
C14	C	-0.000073	-1.096078	0.040591
C15	C	-0.000073	-1.094090	0.142972
C16	C	-0.561970	-1.152235	-0.065411
C17	C	-0.623890	-1.152240	-0.065404
O18	O	-0.655914	-1.205463	-0.012169
N19	N	-0.654859	-1.089639	-0.127975
C20	C	-0.623905	-1.027022	-0.190550
O21	O	-0.655933	-0.973775	-0.243770
C22	C	-0.561986	-1.027014	-0.190551
C23	C	-0.531020	-1.089626	-0.127983
C24	C	-0.531004	-1.214841	-0.002846
C25	C	-0.469088	-1.214837	-0.002855
C26	C	-0.438139	-1.152227	-0.065427
C27	C	-0.469105	-1.089622	-0.127991
C28	C	-0.531034	-0.964394	-0.253121
C29	C	-0.469111	-0.964391	-0.253117
C30	C	-0.438145	-1.027002	-0.190548
C31	C	-0.376240	-1.027009	-0.190571
N32	N	-0.345270	-1.089610	-0.128000
C33	C	-0.376220	-1.152219	-0.065428
C34	C	-0.753939	-1.027044	-0.190541
C35	C	-0.815856	-1.027056	-0.190544
C36	C	-0.815837	-1.152272	-0.065397
C37	C	-0.753918	-1.152264	-0.065399
C38	C	-0.722970	-1.089645	-0.127970
C39	C	-0.246193	-1.152207	-0.065450
C40	C	-0.184271	-1.152200	-0.065467
C41	C	-0.184296	-1.026981	-0.190610
C42	C	-0.246212	-1.026991	-0.190598
C43	C	-0.277159	-1.089607	-0.128010
O44	O	-0.344176	-0.973810	-0.243777
O45	O	-0.344185	-1.205449	-0.012209
N46	N	0.153189	-1.089662	-0.127968
C47	C	-0.000077	-1.258221	-0.121553
C48	C	-0.000080	-1.360602	-0.123541
C49	C	-0.000076	-0.443748	-0.125154
C50	C	-0.000068	-0.548056	-0.127187
C51	C	-0.000062	-0.631192	-0.128814
C52	C	-0.000055	-0.735507	-0.130847
C53	C	-0.000059	-1.083168	-0.296606
C54	C	-0.000055	-1.085156	-0.398987
C55	C	-0.000057	-1.086770	0.517868
C56	C	-0.000061	-1.088803	0.413560
C57	C	-0.000065	-1.090430	0.330423
C58	C	-0.000069	-1.092463	0.226109
H59	H	-0.159061	-1.203189	-0.014516
H60	H	-0.728744	-0.976054	-0.241501
C61	C	-0.435029	-1.283701	0.065980
C62	C	-0.443544	-1.281976	0.171002
C63	C	-0.409488	-1.350840	0.239843
C64	C	-0.366917	-1.421429	0.203664
C65	C	-0.358401	-1.423156	0.098637
C66	C	-0.392456	-1.354292	0.029795
H67	H	-0.475059	-1.229720	0.197789
H68	H	-0.415793	-1.349561	0.317591
H69	H	-0.341707	-1.472406	0.254624
H70	H	-0.326886	-1.475413	0.071850
H71	H	-0.386151	-1.355571	-0.047952
C72	C	-0.565088	-0.895515	-0.321942
C73	C	-0.556572	-0.790503	-0.320141
C74	C	-0.590626	-0.721617	-0.388963
C75	C	-0.633195	-0.757743	-0.459586
C76	C	-0.641713	-0.862761	-0.461390
C77	C	-0.607659	-0.931646	-0.392567
H78	H	-0.525058	-0.763756	-0.267859
H79	H	-0.584321	-0.643877	-0.387628
H80	H	-0.658404	-0.706750	-0.510533
H81	H	-0.673227	-0.889508	-0.513672
H82	H	-0.613964	-1.009387	-0.393903
C83	C	-0.280276	-0.958123	-0.259429
C84	C	-0.271760	-0.853109	-0.257645
C85	C	-0.305818	-0.784233	-0.326471
C86	C	-0.348392	-0.820370	-0.397081
C87	C	-0.356910	-0.925389	-0.398867
C88	C	-0.322852	-0.994265	-0.330041
H89	H	-0.240242	-0.826353	-0.205373
H90	H	-0.299512	-0.706490	-0.325148
H91	H	-0.373604	-0.769383	-0.448030
H92	H	-0.388428	-0.952145	-0.451139
H93	H	-0.329158	-1.072008	-0.331364
H94	H	-0.841065	-0.976082	-0.241503
C95	C	-0.150246	-0.958109	-0.259435
C96	C	-0.082138	-0.958103	-0.259433
C97	C	-0.048086	-0.889225	-0.328253
C98	C	-0.082143	-0.820352	-0.397076
C99	C	-0.150255	-0.820355	-0.397082
C100	C	-0.184306	-0.889234	-0.328261
H101	H	-0.056923	-1.009089	-0.208483
H102	H	0.002335	-0.889223	-0.328249
H103	H	-0.056936	-0.769364	-0.448021
H104	H	-0.175469	-0.769369	-0.448031
H105	H	-0.234728	-0.889236	-0.328266
H106	H	-0.271382	-1.203194	-0.014485
C107	C	-0.849890	-1.221139	0.003441
C108	C	-0.892456	-1.184983	0.074047
C109	C	-0.926511	-1.253845	0.142879
C110	C	-0.918000	-1.358862	0.141105
C111	C	-0.875432	-1.395023	0.070496
C112	C	-0.841377	-1.326161	0.001664
H113	H	-0.898758	-1.107238	0.075362
H114	H	-0.958023	-1.227076	0.195148
H115	H	-0.943210	-1.409838	0.192059
H116	H	-0.869130	-1.472768	0.069181
H117	H	-0.809865	-1.352930	-0.050605
H118	H	-0.443915	-0.913396	-0.304069
H119	H	-0.556198	-1.265825	0.048112
H120	H	-0.728709	-1.203247	-0.014450
