data_functionalizedCrystal
_audit_creation_method	'MofGen! by Chris Wilmer'
_symmetry_space_group_name_H-M	'P1'
_symmetry_Int_Tables_number	1
_symmetry_cell_setting	triclinic
loop_
_symmetry_equiv_pos_as_xyz
  x,y,z
_cell_length_a	19.902436
_cell_length_b	14.560438
_cell_length_c	19.902436
_cell_angle_alpha	59.996093
_cell_angle_beta	89.998137
_cell_angle_gamma	59.996467
loop_
_atom_site_label
_atom_site_type_symbol
_atom_site_fract_x
_atom_site_fract_y
_atom_site_fract_z
Zr1	Zr	0.647320	1.005185	-0.088116
O2	O	0.540028	1.196817	-0.195413
O3	O	0.680210	0.813575	-0.055225
O4	O	0.680212	1.005193	-0.195404
O5	O	0.540026	1.005186	0.055343
O6	O	0.790790	1.005175	-0.195395
O7	O	0.540027	1.005199	-0.055234
O8	O	0.790788	0.662405	0.055360
O9	O	0.540028	1.347956	-0.195411
O10	O	0.776761	0.892366	-0.041189
O11	O	0.694237	0.892370	0.041327
O12	O	0.694238	1.117975	-0.123715
O13	O	0.611713	1.117979	-0.041200
Zr14	Zr	0.823678	1.005136	0.088256
Zr15	Zr	0.823680	1.005157	-0.088101
Zr16	Zr	0.647317	1.005165	0.088242
Zr17	Zr	0.647319	1.246234	-0.088113
Zr18	Zr	0.823678	0.764088	0.088254
O19	O	0.790787	1.196747	0.055365
O20	O	0.790790	1.196777	-0.195393
O21	O	0.540025	1.196787	0.055345
O22	O	0.930969	0.813505	0.195553
O23	O	0.930972	0.813534	-0.055204
O24	O	0.680207	0.813545	0.195533
O25	O	0.930972	1.005136	-0.055202
O26	O	0.790786	1.005129	0.195544
O27	O	0.680207	1.005147	0.195535
O28	O	0.930970	1.005123	0.055375
O29	O	0.680211	1.347933	-0.195400
O30	O	0.790787	0.662389	0.195541
O31	O	0.930970	0.662366	0.195552
O32	O	0.930971	0.662383	0.055371
O33	O	0.540026	1.347939	-0.055230
O34	O	0.680209	1.347916	-0.055219
O35	O	0.776759	0.892347	0.123856
O36	O	0.859284	0.892343	0.041340
O37	O	0.776761	1.117952	-0.041186
O38	O	0.694236	1.117956	0.041329
C39	C	0.735499	0.703646	0.000067
C40	C	0.735500	0.601314	0.000066
C41	C	0.778574	0.553238	-0.043008
C42	C	0.778575	0.457080	-0.043001
C43	C	0.692423	0.457088	0.043154
C44	C	0.692426	0.553237	0.043152
C45	C	0.821647	0.601315	-0.086093
C46	C	0.864724	0.553240	-0.129171
C47	C	0.864726	0.457082	-0.129165
C48	C	0.821651	0.409000	-0.086080
C49	C	0.514899	1.005196	0.000052
C50	C	0.440029	1.005208	0.000046
C51	C	0.168027	1.005145	0.000078
C52	C	0.144460	1.147463	-0.051732
C53	C	0.222298	1.147552	-0.052019
C54	C	0.302970	1.005177	0.000062
C55	C	0.300560	0.934506	-0.037900
C56	C	0.222332	0.935416	-0.038283
C57	C	0.223318	0.932478	0.089874
C58	C	0.300239	0.935153	0.089736
C59	C	0.379237	1.005188	0.000054
C60	C	0.091762	1.005130	0.000084
C61	C	0.956099	1.005125	0.000088
C62	C	1.030968	1.005113	0.000094
C63	C	0.735501	1.005187	-0.220526
C64	C	0.735502	1.005196	-0.295395
C65	C	0.735498	1.306676	0.000073
C66	C	0.735498	1.409008	0.000075
C67	C	0.735500	1.005172	-0.432456
C68	C	0.683447	1.147480	-0.513028
C69	C	0.683167	1.147536	-0.590919
C70	C	0.735498	1.005150	-0.567403
C71	C	0.697806	0.934078	-0.513125
C72	C	0.697413	0.935019	-0.435574
C73	C	0.825274	0.932903	-0.434725
C74	C	0.825137	0.935552	-0.513594
C75	C	0.735497	1.005130	-0.643667
C76	C	0.735498	1.005187	-0.356191
C77	C	0.735496	1.005135	0.220667
C78	C	0.735495	1.005126	0.295535
C79	C	0.956099	0.703610	0.000085
C80	C	1.030969	0.601267	0.000090
C81	C	0.735497	0.703620	0.220664
C82	C	0.735496	0.601279	0.295531
C83	C	0.956097	0.703584	0.220682
C84	C	1.030966	0.601232	0.295555
C85	C	0.514901	1.306738	-0.220541
C86	C	0.440032	1.409090	-0.295414
C87	C	0.514898	1.306712	0.000056
C88	C	0.440028	1.409055	0.000051
C89	C	0.735501	1.306702	-0.220523
C90	C	0.735501	1.409042	-0.295390
C91	C	1.023053	0.553217	-0.042994
C92	C	1.093394	0.457068	-0.043006
C93	C	1.171651	0.408963	0.000072
C94	C	1.179566	0.457022	0.043158
C95	C	1.109225	0.553176	0.043164
C96	C	0.778572	0.553207	0.373776
C97	C	0.778568	0.457061	0.444129
C98	C	0.735493	0.408982	0.436234
C99	C	0.692412	0.457064	0.357981
C100	C	0.692411	0.553215	0.287630
C101	C	1.109209	0.553164	0.287644
C102	C	1.179563	0.457007	0.357989
C103	C	1.171672	0.408912	0.436244
C104	C	1.093420	0.456989	0.444153
C105	C	1.023068	0.553151	0.373809
C106	C	0.361788	1.457169	-0.287503
C107	C	0.291434	1.553357	-0.357848
C108	C	0.299325	1.601456	-0.436103
C109	C	0.377577	1.553373	-0.444013
C110	C	0.447930	1.457194	-0.373669
C111	C	0.447945	1.457115	0.043128
C112	C	0.377603	1.553291	0.043120
C113	C	0.299346	1.601399	0.000040
C114	C	0.291431	1.553335	-0.043043
C115	C	0.361772	1.457167	-0.043039
C116	C	0.778585	1.457091	-0.287470
C117	C	0.778602	1.553238	-0.357809
C118	C	0.735530	1.601341	-0.436068
C119	C	0.692445	1.553283	-0.443987
C120	C	0.692433	1.457131	-0.373649
H121	H	0.221020	1.203283	-0.026754
F122	F	1.117663	0.604298	0.089028
H123	H	0.813649	0.592342	0.380220
F124	F	0.299761	1.002487	0.126813
F125	F	1.262837	0.405853	0.349554
F126	F	0.224490	1.703749	0.000044
F127	F	0.531225	1.405935	0.088981
F128	F	0.821664	0.306649	-0.086069
H129	H	0.227705	1.592519	-0.078118
F130	F	0.735547	1.703678	-0.510922
F131	F	0.910575	0.405914	-0.175007
H132	H	0.708572	1.203638	-0.514849
H133	H	0.959361	0.592276	0.380262
H134	H	0.813685	1.592356	-0.351345
F135	F	0.646583	0.405912	0.089004
H136	H	0.657341	0.417904	0.351565
H137	H	1.087007	0.417816	0.507878
F138	F	0.824425	0.405903	0.527404
F139	F	0.735501	0.306648	0.511116
H140	H	0.617616	1.202781	-0.513687
F141	F	0.939772	0.604399	-0.088849
F142	F	0.646566	0.604361	0.204357
F143	F	0.386044	1.604422	0.088979
F144	F	1.084953	0.405933	-0.088863
F145	F	0.824432	1.405913	-0.204187
H146	H	1.115650	0.592309	0.223931
F147	F	1.246508	0.306625	0.000058
H148	H	0.511637	1.418049	-0.380120
F149	F	0.646601	1.604500	-0.527283
H150	H	0.853299	0.987377	-0.551038
F151	F	0.821645	0.703658	-0.086106
F152	F	0.910571	0.604404	-0.175015
F153	F	0.646581	0.604407	0.088995
F154	F	1.246555	0.306565	0.511104
F155	F	0.646568	1.406014	-0.382091
H156	H	0.105293	1.203318	-0.026398
F157	F	0.092296	1.220126	-0.137791
F158	F	0.353371	1.405993	-0.204225
H159	H	0.220524	1.203346	-0.118257
H160	H	0.616943	1.203040	-0.629861
H161	H	0.355315	1.418040	-0.078116
H162	H	0.227725	1.592490	-0.351392
H163	H	0.185790	0.985648	-0.104361
H164	H	0.242033	1.679771	-0.493375
H165	H	0.241679	0.830999	-0.002987
F166	F	0.374817	0.797676	0.009050
F167	F	0.302586	0.998671	-0.123447
F168	F	0.385963	1.604575	-0.527304
H169	H	0.187005	0.978014	0.121586
H170	H	0.357698	0.831281	0.131588
H171	H	0.243235	0.827639	0.128660
F172	F	0.611079	1.000268	-0.435697
F173	F	0.716172	1.220402	-0.642569
H174	H	0.864233	0.828068	-0.377937
H175	H	0.732891	0.830592	-0.378510
H176	H	0.733915	0.829372	-0.493327
H177	H	0.856792	0.978755	-0.431852
F178	F	0.880066	0.799802	-0.489351
F179	F	0.612298	0.997831	-0.561946
H180	H	1.243292	0.417842	0.078230
