data_functionalizedCrystal
_audit_creation_method	'MofGen! by Chris Wilmer'
_symmetry_space_group_name_H-M	'P1'
_symmetry_Int_Tables_number	1
_symmetry_cell_setting	triclinic
loop_
_symmetry_equiv_pos_as_xyz
  x,y,z
_cell_length_a	29.839134
_cell_length_b	21.295417
_cell_length_c	21.295411
_cell_angle_alpha	90.021644
_cell_angle_beta	90.025746
_cell_angle_gamma	90.008818
loop_
_atom_site_label
_atom_site_type_symbol
_atom_site_fract_x
_atom_site_fract_y
_atom_site_fract_z
Zn1	Zn	-0.686808	0.251045	-0.355931
Zn2	Zn	-0.686738	0.356297	-0.250657
Zn3	Zn	-0.611675	0.251006	-0.250674
Zn4	Zn	-0.611653	0.356241	-0.355886
O5	O	-0.649219	0.303647	-0.303287
O6	O	-0.749666	0.265047	-0.341978
O7	O	-0.676761	0.342337	-0.162569
O8	O	-0.621680	0.162922	-0.264663
O9	O	-0.749615	0.342375	-0.264633
O10	O	-0.676880	0.162951	-0.341995
O11	O	-0.621612	0.264980	-0.162582
O12	O	-0.548805	0.264925	-0.264619
O13	O	-0.621642	0.342279	-0.443982
O14	O	-0.548789	0.342241	-0.341918
O15	O	-0.676859	0.264992	-0.444015
O16	O	-0.676740	0.444379	-0.264589
O17	O	-0.621575	0.444337	-0.341901
C18	C	-0.532496	0.303573	-0.303266
C19	C	-0.482562	0.303557	-0.303272
C20	C	-0.125997	0.263437	-0.343623
C21	C	-0.313670	0.263397	-0.343615
O22	O	-0.337954	0.229224	-0.377930
N23	N	-0.337116	0.303590	-0.303282
C24	C	-0.313642	0.343799	-0.262952
O25	O	-0.337891	0.377989	-0.228651
C26	C	-0.125970	0.343842	-0.262964
C27	C	-0.102526	0.303642	-0.303295
C28	C	-0.102553	0.223241	-0.383951
C29	C	-0.055637	0.223249	-0.383951
C30	C	-0.032166	0.263454	-0.343622
C31	C	-0.055610	0.303650	-0.303294
C32	C	-0.102496	0.384053	-0.222637
C33	C	-0.055575	0.384061	-0.222645
C34	C	-0.032131	0.343861	-0.262976
C35	C	0.014777	0.343862	-0.262965
N36	N	0.038223	0.303669	-0.303298
C37	C	0.014752	0.263465	-0.343626
C38	C	-0.412172	0.343772	-0.262947
C39	C	-0.459090	0.343761	-0.262943
C40	C	-0.459115	0.263360	-0.343607
C41	C	-0.412197	0.263369	-0.343608
C42	C	-0.388726	0.303580	-0.303280
C43	C	0.113278	0.263485	-0.343621
C44	C	0.160197	0.263494	-0.343615
C45	C	0.160218	0.343897	-0.262954
C46	C	0.113303	0.343885	-0.262957
C47	C	0.089834	0.303677	-0.303296
O48	O	0.039089	0.378022	-0.228672
O49	O	0.039009	0.229290	-0.377932
C50	C	-0.172912	0.263429	-0.343624
C51	C	-0.196356	0.303626	-0.303296
C52	C	-0.172885	0.343830	-0.262968
C53	C	-0.243274	0.303614	-0.303292
C54	C	-0.266746	0.263410	-0.343621
C55	C	-0.243299	0.223217	-0.383953
C56	C	-0.196384	0.223225	-0.383953
C57	C	-0.196331	0.384022	-0.222635
C58	C	-0.243247	0.384011	-0.222638
C59	C	-0.266718	0.343806	-0.262967
C60	C	-0.649160	0.467199	-0.303252
C61	C	-0.649176	0.537167	-0.303258
C62	C	-0.649256	0.303634	-0.467477
C63	C	-0.649272	0.303628	-0.537445
C64	C	0.233603	0.303708	-0.303301
C65	C	0.183669	0.303698	-0.303287
C66	C	-0.649290	0.139457	-0.303336
C67	C	-0.649320	0.069489	-0.303357
C68	C	-0.677926	0.570034	-0.263043
C69	C	-0.677947	0.635777	-0.263057
C70	C	-0.649210	0.668649	-0.303280
C71	C	-0.620458	0.635774	-0.343503
C72	C	-0.620441	0.570033	-0.343492
N73	N	-0.609910	0.771895	-0.308072
N74	N	-0.609927	0.834347	-0.308078
C75	C	-0.649260	0.866724	-0.303316
N76	N	-0.688575	0.834291	-0.298534
N77	N	-0.688557	0.771834	-0.298525
C78	C	-0.649225	0.739935	-0.303296
C79	C	-0.678035	0.970877	-0.263114
C80	C	-0.678057	1.036621	-0.263133
C81	C	-0.620564	1.036617	-0.343575
C82	C	-0.620546	0.970874	-0.343560
C83	C	-0.649281	0.938008	-0.303326
C84	C	-0.678022	0.263383	-0.570330
C85	C	-0.678021	0.263356	-0.636073
C86	C	-0.649275	0.303585	-0.668928
C87	C	-0.620520	0.343833	-0.636035
C88	C	-0.620518	0.343854	-0.570294
N89	N	-0.645809	0.358651	-0.772143
N90	N	-0.645813	0.358628	-0.834595
C91	C	-0.649278	0.303521	-0.867003
N92	N	-0.652747	0.248436	-0.834600
N93	N	-0.652745	0.248459	-0.772143
C94	C	-0.649274	0.303566	-0.740213
C95	C	-0.678029	0.263243	-0.971173
C96	C	-0.678025	0.263215	-1.036917
C97	C	-0.620526	0.343697	-1.036878
C98	C	-0.620528	0.343720	-0.971136
C99	C	-0.649281	0.303494	-0.938287
C100	C	-0.649207	0.303615	-0.139735
C101	C	-0.649278	0.303443	-0.069768
H102	H	0.094175	0.230743	-0.376469
F103	F	-0.708661	1.071600	-0.220332
H104	H	-0.701439	0.230485	-0.944427
F105	F	-0.589929	0.386507	-1.071841
H106	H	-0.036553	0.190517	-0.416795
F107	F	0.088351	0.386672	-0.220035
H108	H	-0.597168	1.063381	-0.376328
H109	H	-0.597029	0.543272	-0.376240
F110	F	0.185146	0.220705	-0.386542
F111	F	-0.127526	0.180448	-0.426880
H112	H	-0.597133	0.944112	-0.376304
H113	H	-0.597113	0.376585	-0.662790
F114	F	-0.387199	0.386566	-0.220015
H115	H	-0.701324	0.543277	-0.230284
F116	F	-0.127436	0.426832	-0.179703
H117	H	-0.036467	0.416808	-0.189806
F118	F	-0.589929	0.386557	-0.936136
F119	F	-0.708547	0.670764	-0.220253
H120	H	-0.393112	0.230634	-0.376448
F121	F	-0.171358	0.426810	-0.179704
H122	H	-0.597061	0.662543	-0.376253
H123	H	-0.478234	0.230623	-0.376443
F124	F	-0.708622	0.220568	-0.535374
H125	H	-0.478174	0.376489	-0.230095
H126	H	-0.701432	0.230580	-0.662853
F127	F	0.185206	0.386681	-0.220034
H128	H	-0.597104	0.376626	-0.543519
F129	F	-0.268288	0.180427	-0.426872
F130	F	-0.708631	0.220385	-1.071916
H131	H	-0.701434	0.944116	-0.230356
F132	F	-0.171439	0.180440	-0.426880
H133	H	-0.262331	0.416745	-0.189790
