data_functionalizedCrystal
_audit_creation_method	'MofGen! by Chris Wilmer'
_symmetry_space_group_name_H-M	'P1'
_symmetry_Int_Tables_number	1
_symmetry_cell_setting	triclinic
loop_
_symmetry_equiv_pos_as_xyz
  x,y,z
_cell_length_a	15.944493
_cell_length_b	15.944551
_cell_length_c	14.421503
_cell_angle_alpha	89.996660
_cell_angle_beta	89.992936
_cell_angle_gamma	96.513109
loop_
_atom_site_label
_atom_site_type_symbol
_atom_site_fract_x
_atom_site_fract_y
_atom_site_fract_z
O1	O	1.114560	-0.108089	-0.077101
O2	O	1.447893	0.225245	0.256232
O3	O	1.781226	0.558578	0.589565
O4	O	0.870003	-0.121496	-0.077106
O5	O	1.203337	0.211838	0.256227
O6	O	1.536670	0.545171	0.589561
O7	O	0.998960	0.007484	-0.077095
O8	O	1.332293	0.340817	0.256238
O9	O	1.665626	0.674151	0.589571
O10	O	0.985603	-0.237068	-0.077112
O11	O	1.318937	0.096265	0.256221
O12	O	1.652270	0.429598	0.589554
O13	O	0.998938	0.007465	0.077128
O14	O	1.332272	0.340798	0.410461
O15	O	1.665605	0.674132	0.743795
O16	O	0.869982	-0.121515	0.077117
O17	O	1.203315	0.211819	0.410451
O18	O	1.536649	0.545152	0.743784
O19	O	1.114538	-0.108108	0.077122
O20	O	1.447872	0.225226	0.410455
O21	O	1.781205	0.558559	0.743789
Cu22	Cu	0.992258	-0.114813	0.091201
Cu23	Cu	1.325591	0.218520	0.424535
Cu24	Cu	1.658925	0.551854	0.757868
Cu25	Cu	0.992283	-0.114790	-0.091186
Cu26	Cu	1.325617	0.218543	0.242148
Cu27	Cu	1.658950	0.551876	0.575481
O28	O	0.985582	-0.237087	0.077111
O29	O	1.318915	0.096246	0.410445
O30	O	1.652248	0.429579	0.743778
C31	C	0.838698	-0.120957	0.000005
C32	C	1.172031	0.212376	0.333338
C33	C	1.505364	0.545709	0.666672
C34	C	0.745449	-0.119314	0.000003
C35	C	1.078783	0.214019	0.333337
C36	C	1.412116	0.547352	0.666670
C37	C	0.509689	-0.195235	-0.000002
C38	C	0.843023	0.138098	0.333331
C39	C	1.176356	0.471432	0.666664
C40	C	0.459120	-0.154303	0.076045
C41	C	0.792454	0.179030	0.409378
C42	C	1.125787	0.512363	0.742711
C43	C	0.574728	-0.116270	0.000005
C44	C	0.908062	0.217063	0.333339
C45	C	1.241395	0.550396	0.666672
C46	C	0.459146	-0.154266	-0.076008
C47	C	0.792479	0.179068	0.257326
C48	C	1.125813	0.512401	0.590659
C49	C	0.409819	-0.113336	0.000003
C50	C	0.743152	0.219998	0.333337
C51	C	1.076485	0.553331	0.666670
C52	C	0.525388	-0.075360	0.076115
C53	C	0.858721	0.257973	0.409449
C54	C	1.192054	0.591306	0.742782
C55	C	0.525417	-0.075334	-0.076005
C56	C	0.858750	0.257999	0.257328
C57	C	1.192083	0.591333	0.590661
C58	C	0.474880	-0.034345	0.000060
C59	C	0.808214	0.298989	0.333394
C60	C	1.141547	0.632322	0.666727
C61	C	0.669728	-0.117963	0.000007
C62	C	1.003061	0.215370	0.333341
C63	C	1.336395	0.548704	0.666674
C64	C	0.314821	-0.111637	0.000008
C65	C	0.648155	0.221697	0.333341
C66	C	0.981488	0.555030	0.666675
C67	C	0.998395	0.038768	0.000017
C68	C	1.331728	0.372102	0.333350
C69	C	1.665061	0.705435	0.666683
C70	C	0.996732	0.132014	0.000017
C71	C	1.330066	0.465347	0.333350
C72	C	1.663399	0.798681	0.666684
C73	C	1.145844	-0.108646	0.000009
C74	C	1.479177	0.224687	0.333342
C75	C	1.812510	0.558021	0.666676
C76	C	1.239092	-0.110289	0.000004
C77	C	1.572426	0.223044	0.333338
C78	C	1.905759	0.556378	0.666671
N79	N	0.992246	-0.114828	0.219483
N80	N	1.325580	0.218505	0.552816
N81	N	1.658913	0.551838	0.886149
C82	C	0.986147	-0.268372	-0.000003
C83	C	1.319480	0.064962	0.333331
C84	C	1.652814	0.398295	0.666664
C85	C	0.987809	-0.361617	-0.000009
C86	C	1.321143	-0.028284	0.333324
C87	C	1.654476	0.305049	0.666657
C88	C	0.912826	0.346853	0.000003
C89	C	1.246159	0.680187	0.333336
C90	C	1.579492	1.013520	0.666669
C91	C	0.951779	0.407869	0.076045
C92	C	1.285112	0.741203	0.409378
C93	C	1.618445	1.074536	0.742712
C94	C	0.993725	0.302739	0.000010
C95	C	1.327058	0.636073	0.333343
C96	C	1.660392	0.969406	0.666677
C97	C	0.951819	0.407872	-0.076007
C98	C	1.285152	0.741205	0.257326
C99	C	1.618485	1.074538	0.590659
C100	C	0.990814	0.467651	-0.000001
C101	C	1.324147	0.800985	0.333332
C102	C	1.657481	1.134318	0.666666
C103	C	1.032700	0.362527	0.076115
C104	C	1.366033	0.695860	0.409448
C105	C	1.699367	1.029194	0.742782
C106	C	1.032729	0.362523	-0.076006
C107	C	1.366062	0.695856	0.257328
C108	C	1.699396	1.029190	0.590661
C109	C	1.071741	0.423521	0.000055
C110	C	1.405074	0.756855	0.333389
C111	C	1.738407	1.090188	0.666722
C112	C	0.995399	0.207737	0.000017
C113	C	1.328733	0.541071	0.333350
C114	C	1.662066	0.874404	0.666684
C115	C	0.989146	0.562652	-0.000002
C116	C	1.322479	0.895986	0.333332
C117	C	1.655812	1.229319	0.666665
N118	N	0.992302	-0.114768	-0.219467
N119	N	1.325635	0.218565	0.113867
N120	N	1.658968	0.551898	0.447200
C121	C	0.932607	-0.174442	0.469131
C122	C	1.265940	0.158891	0.802465
C123	C	1.599273	0.492225	1.135798
C124	C	1.008509	-0.190733	0.530934
C125	C	1.341842	0.142600	0.864268
C126	C	1.675175	0.475933	1.197601
C127	C	0.992267	-0.114808	0.408644
C128	C	1.325600	0.218525	0.741978
C129	C	1.658934	0.551858	1.075311
C130	C	0.916384	-0.098537	0.530935
C131	C	1.249718	0.234797	0.864269
C132	C	1.583051	0.568130	1.197602
C133	C	0.992280	-0.114791	0.591366
C134	C	1.325613	0.218542	0.924699
C135	C	1.658947	0.551876	1.258032
C136	C	1.068207	-0.131138	0.469086
C137	C	1.401541	0.202196	0.802420
C138	C	1.734874	0.535529	1.135753
C139	C	0.976033	-0.038908	0.469082
C140	C	1.309367	0.294426	0.802415
C141	C	1.642700	0.627759	1.135748
C142	C	1.051990	-0.055167	0.530857
C143	C	1.385323	0.278166	0.864190
C144	C	1.718657	0.611500	1.197523
C145	C	0.992258	-0.114821	0.303383
C146	C	1.325592	0.218513	0.636716
C147	C	1.658925	0.551846	0.970050
C148	C	0.992297	-0.114778	0.696625
C149	C	1.325631	0.218555	1.029958
C150	C	1.658964	0.551889	1.363291
H151	H	0.554206	-0.042040	0.140471
H152	H	0.887540	0.291293	0.473804
H153	H	1.220873	0.624626	0.807137
F154	F	1.159587	0.466883	0.000110
F155	F	1.492920	0.800216	0.333444
F156	F	1.826253	1.133549	0.666777
F157	F	1.077428	0.336229	-0.160037
F158	F	1.410761	0.669562	0.173296
F159	F	1.744094	1.002896	0.506630
F160	F	0.454659	0.054626	0.000124
F161	F	0.787992	0.387960	0.333457
F162	F	1.121325	0.721293	0.666791
H163	H	1.066879	0.342536	0.140473
H164	H	1.400213	0.675869	0.473807
H165	H	1.733546	1.009202	0.807140
H166	H	0.525313	-0.263254	0.000064
H167	H	0.858646	0.070079	0.333397
H168	H	1.191980	0.403412	0.666731
H169	H	0.430174	-0.187659	0.140331
H170	H	0.763507	0.145674	0.473664
H171	H	1.096841	0.479007	0.806998
H172	H	0.554372	-0.042003	-0.140295
H173	H	0.887705	0.291330	0.193038
H174	H	1.221038	0.624663	0.526372
H175	H	0.430217	-0.187622	-0.140290
H176	H	0.763550	0.145712	0.193043
H177	H	1.096883	0.479045	0.526376
H178	H	0.917552	0.427962	0.140331
H179	H	1.250886	0.761296	0.473665
H180	H	1.584219	1.094629	0.806998
H181	H	0.852207	-0.084782	0.558105
H182	H	1.185540	0.248552	0.891439
H183	H	1.518873	0.581885	1.224772
F184	F	0.907087	0.434133	-0.160030
F185	F	1.240421	0.767466	0.173304
F186	F	1.573754	1.100800	0.506637
H187	H	0.845675	0.313532	0.000077
H188	H	1.179009	0.646865	0.333411
H189	H	1.512342	0.980198	0.666744
F190	F	0.958040	0.044954	0.433540
F191	F	1.291373	0.378287	0.766874
F192	F	1.624707	0.711620	1.100207
H193	H	0.882205	-0.224912	0.442029
H194	H	1.215538	0.108421	0.775363
H195	H	1.548872	0.441754	1.108696
H196	H	1.022251	-0.254913	0.558102
H197	H	1.355585	0.078420	0.891436
H198	H	1.688918	0.411753	1.224769
H199	H	1.102504	-0.004726	0.557789
H200	H	1.435837	0.328607	0.891122
H201	H	1.769170	0.661940	1.224455
H202	H	1.132399	-0.144970	0.442033
H203	H	1.465733	0.188364	0.775366
H204	H	1.799066	0.521697	1.108699
