data_functionalizedCrystal
_audit_creation_method	'MofGen! by Chris Wilmer'
_symmetry_space_group_name_H-M	'P1'
_symmetry_Int_Tables_number	1
_symmetry_cell_setting	triclinic
loop_
_symmetry_equiv_pos_as_xyz
  x,y,z
_cell_length_a	16.109301
_cell_length_b	9.798715
_cell_length_c	16.109301
_cell_angle_alpha	89.995181
_cell_angle_beta	96.538519
_cell_angle_gamma	90.000981
loop_
_atom_site_label
_atom_site_type_symbol
_atom_site_fract_x
_atom_site_fract_y
_atom_site_fract_z
O1	O	1.103131	0.113409	-0.106866
O2	O	0.861069	0.113431	-0.120165
O3	O	0.988750	0.113406	0.007516
O4	O	0.975450	0.113435	-0.234546
O5	O	0.988740	-0.113577	0.007517
O6	O	0.861060	-0.113551	-0.120164
O7	O	1.103122	-0.113573	-0.106865
Zn8	Zn	0.982089	-0.149600	-0.113514
Zn9	Zn	0.982102	0.149458	-0.113515
O10	O	0.975441	-0.113547	-0.234545
C11	C	0.830090	-0.000057	-0.119626
C12	C	0.737794	-0.000049	-0.118011
N13	N	0.982087	-0.353700	-0.113513
C14	C	0.515522	-0.000056	-0.190018
C15	C	0.428801	-0.000065	-0.188494
C16	C	0.448676	-0.000078	-0.037006
C17	C	0.535394	-0.000078	-0.038530
C18	C	0.568815	-0.000061	-0.115039
C19	C	0.395376	-0.000069	-0.111990
C20	C	0.301350	-0.000079	-0.110337
C21	C	0.662847	-0.000054	-0.116693
C22	C	1.030143	-0.421476	-0.161298
C23	C	1.030157	-0.578639	-0.161297
C24	C	1.134101	-0.000082	-0.107404
C25	C	1.226397	-0.000081	-0.109019
C26	C	0.988206	-0.000086	0.038491
C27	C	0.986591	-0.000088	0.130786
N28	N	0.982111	0.353558	-0.113510
C29	C	0.975984	-0.000053	-0.265521
C30	C	0.977600	-0.000042	-0.357816
C31	C	1.058599	-0.000073	0.353059
C32	C	1.057075	-0.000061	0.439779
C33	C	0.905586	-0.000053	0.419905
C34	C	0.907111	-0.000055	0.333186
C35	C	0.983620	-0.000071	0.299766
C36	C	0.980571	-0.000058	0.473205
C37	C	0.978918	-0.000046	0.567231
C38	C	0.985273	-0.000081	0.205734
H39	H	0.542730	-0.000052	-0.252317
F40	F	0.413100	-0.000091	0.044416
F41	F	0.592117	-0.000092	0.041277
H42	H	0.385413	-0.000064	-0.249550
H43	H	0.846050	-0.000049	0.289792
F44	F	1.083913	-0.345247	-0.214770
F45	F	1.140026	-0.000089	0.317493
H46	H	1.071295	-0.636925	-0.202212
F47	F	0.824164	-0.000034	0.455481
H48	H	0.940956	-0.412026	-0.072599
H49	H	0.940962	-0.588164	-0.072601
F50	F	1.136878	-0.000060	0.496495
