data_functionalizedCrystal
_audit_creation_method	'MofGen! by Chris Wilmer'
_symmetry_space_group_name_H-M	'P1'
_symmetry_Int_Tables_number	1
_symmetry_cell_setting	triclinic
loop_
_symmetry_equiv_pos_as_xyz
  x,y,z
_cell_length_a	15.944551
_cell_length_b	11.026607
_cell_length_c	14.421503
_cell_angle_alpha	89.993572
_cell_angle_beta	89.999260
_cell_angle_gamma	96.042377
loop_
_atom_site_label
_atom_site_type_symbol
_atom_site_fract_x
_atom_site_fract_y
_atom_site_fract_z
O1	O	-1.138185	-0.156518	0.077010
O2	O	-0.896552	-0.175814	0.077033
O3	O	-0.997342	0.010488	0.077020
O4	O	-1.037395	-0.342821	0.077023
O5	O	-0.997327	0.010508	-0.077203
O6	O	-0.896537	-0.175794	-0.077191
O7	O	-1.138170	-0.156498	-0.077213
Cu8	Cu	-1.017352	-0.166145	-0.091284
Cu9	Cu	-1.017370	-0.166168	0.091103
O10	O	-1.037380	-0.342801	-0.077200
C11	C	-0.865130	-0.175003	-0.000076
C12	C	-0.771521	-0.172602	-0.000067
C13	C	-0.989946	0.055710	-0.000090
C14	C	-0.967919	0.190426	-0.000084
C15	C	-1.169593	-0.157309	-0.000102
C16	C	-1.263202	-0.159711	-0.000105
C17	C	-0.538340	-0.051382	-0.000086
C18	C	-0.485836	-0.107682	0.075955
C19	C	-0.600138	-0.168257	-0.000078
C20	C	-0.485848	-0.107690	-0.076098
C21	C	-0.434590	-0.164052	-0.000093
C22	C	-0.548868	-0.224589	0.076025
C23	C	-0.548883	-0.224581	-0.076095
C24	C	-0.496410	-0.280966	-0.000036
C25	C	-0.695506	-0.170676	-0.000069
C26	C	-0.339224	-0.161642	-0.000095
C27	C	-1.044776	-0.388022	-0.000088
C28	C	-1.066803	-0.522738	-0.000088
N29	N	-1.017346	-0.166127	-0.219565
C30	C	-1.028739	0.264226	-0.000089
C31	C	-1.005975	0.403463	-0.000083
C32	C	-1.063400	-0.079295	-0.531000
C33	C	-1.096914	-0.188619	-0.469164
C34	C	-1.017370	-0.166162	-0.591454
C35	C	-0.983885	-0.056824	-0.469195
C36	C	-1.017360	-0.166139	-0.408733
C37	C	-1.050930	-0.275541	-0.530979
C38	C	-0.937857	-0.143674	-0.531016
C39	C	-0.971350	-0.253078	-0.469209
C40	C	-1.017378	-0.166174	-0.696715
C41	C	-1.017353	-0.166140	-0.303474
N42	N	-1.017381	-0.166176	0.219385
H43	H	-0.557010	0.045614	0.000007
C44	C	-0.586166	-0.291291	-0.162948
N45	N	-0.614250	-0.341528	-0.228373
H46	H	-1.135731	0.437372	-0.000024
H47	H	-1.164153	-0.207639	-0.441996
H48	H	-0.458259	-0.058257	0.140241
H49	H	-1.079319	-0.368019	-0.558005
H50	H	-0.477929	-0.378063	0.000007
C51	C	-0.448606	-0.040870	-0.162944
N52	N	-0.420558	0.009467	-0.228354
H53	H	-0.898996	0.230323	-0.000072
H54	H	-1.097662	0.224329	-0.000101
H55	H	-0.932429	-0.326608	-0.442249
H56	H	-1.102377	-0.005926	-0.558129
C57	C	-0.847033	-0.117940	-0.567738
N58	N	-0.778621	-0.098548	-0.595394
H59	H	-0.576328	-0.273994	0.140382
C60	C	-0.945627	0.068080	-0.432535
N61	N	-0.916817	0.162161	-0.404926
H62	H	-0.937047	0.443354	-0.000071
