data_functionalizedCrystal
_audit_creation_method	'MofGen! by Chris Wilmer'
_symmetry_space_group_name_H-M	'P1'
_symmetry_Int_Tables_number	1
_symmetry_cell_setting	triclinic
loop_
_symmetry_equiv_pos_as_xyz
  x,y,z
_cell_length_a	10.685901
_cell_length_b	10.686285
_cell_length_c	10.686551
_cell_angle_alpha	80.915481
_cell_angle_beta	89.651709
_cell_angle_gamma	81.630962
loop_
_atom_site_label
_atom_site_type_symbol
_atom_site_fract_x
_atom_site_fract_y
_atom_site_fract_z
Zn1	Zn	2.015779	-0.617391	-0.511258
Zn2	Zn	2.015677	-0.845962	-0.282764
Zn3	Zn	1.789736	-0.614992	-0.317831
Zn4	Zn	1.819812	-0.813330	-0.511267
O5	O	1.910251	-0.722919	-0.405780
O6	O	2.192336	-0.662371	-0.466268
O7	O	1.973077	-0.827976	-0.110836
O8	O	1.807178	-0.436647	-0.358161
O9	O	2.192261	-0.830302	-0.298395
O10	O	1.973250	-0.438409	-0.500271
O11	O	1.807079	-0.658283	-0.136600
O12	O	1.617156	-0.626642	-0.358170
O13	O	1.858437	-0.774686	-0.687845
O14	O	1.639252	-0.772360	-0.500287
O15	O	2.002413	-0.630730	-0.687838
O16	O	2.002239	-1.020297	-0.298404
O17	O	1.858338	-0.996322	-0.466284
C18	C	1.582421	-0.695701	-0.433035
C19	C	1.442179	-0.684085	-0.444722
C20	C	1.933577	-1.054636	-0.378564
C21	C	1.943675	-1.196552	-0.366954
C22	C	2.239361	-0.750244	-0.378419
C23	C	2.379609	-0.761888	-0.366759
C24	C	1.933791	-0.699335	-0.734907
C25	C	1.943823	-0.689286	-0.875161
C26	C	1.886870	-0.389907	-0.433126
C27	C	1.876907	-0.247998	-0.444780
C28	C	1.886869	-0.746324	-0.077935
C29	C	1.877057	-0.756035	0.062310
H30	H	1.433330	-0.837388	-0.291079
C31	C	1.789462	-0.843624	-0.865057
N32	N	1.723482	-0.909595	-0.810343
C33	C	1.369600	-0.582083	-0.546973
N34	N	1.314931	-0.505252	-0.623984
C35	C	1.789253	-1.160828	-0.546805
N36	N	1.723233	-1.095163	-0.623653
H37	H	2.008556	-1.261085	-0.291428
H38	H	2.008668	-0.624452	-0.928932
