data_functionalizedCrystal
_audit_creation_method	'MofGen! by Chris Wilmer'
_symmetry_space_group_name_H-M	'P1'
_symmetry_Int_Tables_number	1
_symmetry_cell_setting	triclinic
loop_
_symmetry_equiv_pos_as_xyz
  x,y,z
_cell_length_a	12.594517
_cell_length_b	12.594516
_cell_length_c	12.759393
_cell_angle_alpha	90.029726
_cell_angle_beta	90.013208
_cell_angle_gamma	90.007702
loop_
_atom_site_label
_atom_site_type_symbol
_atom_site_fract_x
_atom_site_fract_y
_atom_site_fract_z
Zn1	Zn	1.627316	-0.423808	0.593809
Zn2	Zn	1.627215	-0.601824	0.418131
Zn3	Zn	1.449315	-0.423847	0.418168
Zn4	Zn	1.449316	-0.601732	0.593792
O5	O	1.538290	-0.512802	0.505975
O6	O	1.776249	-0.447444	0.570497
O7	O	1.603573	-0.578269	0.271115
O8	O	1.472969	-0.274896	0.441489
O9	O	1.776174	-0.578231	0.441427
O10	O	1.603746	-0.274867	0.570532
O11	O	1.472871	-0.447510	0.271142
O12	O	1.300369	-0.447421	0.441473
O13	O	1.472971	-0.578075	0.740816
O14	O	1.300370	-0.578113	0.570504
O15	O	1.603747	-0.447355	0.740828
O16	O	1.603574	-0.750757	0.441411
O17	O	1.472872	-0.750690	0.570468
C18	C	1.261750	-0.512762	0.505991
C19	C	1.143444	-0.512770	0.506023
C20	C	1.074222	-0.583993	0.576067
C21	C	1.003407	-0.486946	0.601906
C22	C	1.003460	-0.609897	0.480160
C23	C	1.074187	-0.415672	0.531912
C24	C	1.074246	-0.538689	0.410122
C25	C	1.003463	-0.441575	0.435925
C26	C	1.538241	-0.789343	0.505957
C27	C	1.538317	-0.907649	0.505984
C28	C	1.609489	-0.976900	0.435865
C29	C	1.635502	-1.047595	0.531754
C30	C	1.512437	-1.047752	0.410156
C31	C	1.564381	-0.976786	0.601924
C32	C	1.441270	-0.976937	0.480261
C33	C	1.467247	-1.047600	0.576216
C34	C	1.815911	-0.512843	0.505960
C35	C	1.934217	-0.512861	0.505953
C36	C	1.538370	-0.512700	0.780009
C37	C	1.538404	-0.512657	0.896785
C38	C	1.538369	-0.235181	0.506016
C39	C	1.538402	-0.116876	0.506034
C40	C	1.538272	-0.512827	0.233008
C41	C	1.538445	-0.512571	0.116232
C42	C	1.606504	-0.444580	0.951655
C43	C	1.606522	-0.444534	1.061379
C44	C	1.470337	-0.580651	1.061354
C45	C	1.470314	-0.580691	0.951632
H46	H	1.105386	-0.560608	0.329073
C47	C	1.396599	-0.654651	1.120961
C48	C	1.456860	-0.722879	1.183921
C49	C	1.388970	-0.791075	1.238833
H50	H	1.350224	-0.614036	1.163856
H51	H	1.356053	-0.695263	1.072599
H52	H	1.497387	-0.682271	1.232277
H53	H	1.503232	-0.763517	1.141051
H54	H	1.348425	-0.831686	1.190471
H55	H	1.342599	-0.750451	1.281722
H56	H	1.429848	-0.837381	1.281550
H57	H	1.105294	-0.644107	0.635377
C58	C	0.961959	-0.457965	0.710076
C59	C	0.997778	-0.532750	0.783131
C60	C	0.959608	-0.506106	0.882785
H61	H	0.987188	-0.389524	0.729054
H62	H	0.886532	-0.457623	0.709144
H63	H	1.073190	-0.533082	0.784066
H64	H	0.972553	-0.601197	0.764187
H65	H	0.884180	-0.505763	0.881853
H66	H	0.984839	-0.437663	0.901753
H67	H	0.983897	-0.556847	0.932363
C68	C	1.680342	-0.370658	1.121142
C69	C	1.665768	-0.385155	1.228972
C70	C	1.733740	-0.317102	1.284057
H71	H	1.751893	-0.386183	1.103292
H72	H	1.664769	-0.299126	1.103224
H73	H	1.681348	-0.456670	1.246882
H74	H	1.594230	-0.369621	1.246854
H75	H	1.718167	-0.245570	1.266139
H76	H	1.805287	-0.332633	1.266198
H77	H	1.723854	-0.326921	1.357225
H78	H	1.414851	-0.636126	0.906955
C79	C	1.115490	-0.306245	0.561377
C80	C	1.177295	-0.313860	0.652288
C81	C	1.215350	-0.213080	0.679473
H82	H	1.157590	-0.279012	0.505785
H83	H	1.057272	-0.259952	0.573761
H84	H	1.235505	-0.360137	0.639899
H85	H	1.135218	-0.341075	0.707899
H86	H	1.157132	-0.166786	0.691856
H87	H	1.257445	-0.185854	0.623875
H88	H	1.257281	-0.218231	0.741163
C89	C	0.962169	-0.719460	0.451174
C90	C	0.998041	-0.793647	0.524795
C91	C	0.960037	-0.894589	0.498132
H92	H	0.886754	-0.718683	0.450753
H93	H	0.987491	-0.738395	0.383568
H94	H	0.972714	-0.774718	0.592383
H95	H	1.073452	-0.794458	0.525226
H96	H	0.985358	-0.913523	0.430526
H97	H	0.884622	-0.893801	0.497711
H98	H	0.984378	-0.944939	0.548073
H99	H	1.490512	-1.078924	0.329094
H100	H	1.407096	-1.078448	0.635604
C101	C	1.689840	-0.935703	0.356854
C102	C	1.740520	-1.021622	0.308394
C103	C	1.814557	-0.983711	0.235621
H104	H	1.654459	-0.894278	0.305388
H105	H	1.741083	-0.893141	0.391837
H106	H	1.689286	-1.064166	0.273413
H107	H	1.775922	-1.063056	0.359834
H108	H	1.865799	-0.941149	0.270604
H109	H	1.779167	-0.942286	0.184161
H110	H	1.848959	-1.042000	0.202739
C111	C	1.745072	-1.088773	0.560766
C112	C	1.813458	-1.002834	0.577870
C113	C	1.914410	-1.040716	0.604573
H114	H	1.740395	-1.130200	0.622783
H115	H	1.771850	-1.131327	0.505244
H116	H	1.786687	-0.960298	0.633388
H117	H	1.818167	-0.961399	0.515866
H118	H	1.941187	-1.083270	0.549051
H119	H	1.909721	-1.082143	0.666588
H120	H	1.960824	-0.982413	0.616173
H121	H	1.661945	-0.389179	0.907003
C122	C	0.962345	-0.361061	0.357041
C123	C	0.998355	-0.259628	0.384568
C124	C	0.960484	-0.185429	0.311939
H125	H	0.987650	-0.378710	0.289106
H126	H	0.886915	-0.361873	0.357052
H127	H	1.073769	-0.258819	0.384546
H128	H	0.973053	-0.241946	0.452491
H129	H	0.885054	-0.186241	0.311949
H130	H	0.985791	-0.203088	0.244008
H131	H	0.984903	-0.116597	0.330610
H132	H	1.586224	-0.945746	0.683056
H133	H	1.359187	-0.945874	0.458447
