data_functionalizedCrystal
_audit_creation_method	'MofGen! by Chris Wilmer'
_symmetry_space_group_name_H-M	'P1'
_symmetry_Int_Tables_number	1
_symmetry_cell_setting	triclinic
loop_
_symmetry_equiv_pos_as_xyz
  x,y,z
_cell_length_a	25.639239
_cell_length_b	19.121102
_cell_length_c	19.120904
_cell_angle_alpha	89.911827
_cell_angle_beta	92.410104
_cell_angle_gamma	92.407118
loop_
_atom_site_label
_atom_site_type_symbol
_atom_site_fract_x
_atom_site_fract_y
_atom_site_fract_z
Zn1	Zn	-0.255751	-1.054765	-0.442042
Zn2	Zn	-0.339618	-1.059658	-0.324799
Zn3	Zn	-0.248315	-0.942536	-0.319827
Zn4	Zn	-0.339266	-0.937469	-0.437001
O5	O	-0.295738	-0.998607	-0.380917
O6	O	-0.270136	-1.153518	-0.430680
O7	O	-0.324541	-1.048290	-0.226035
O8	O	-0.176139	-0.957496	-0.336067
O9	O	-0.331752	-1.157113	-0.344542
O10	O	-0.181603	-1.039950	-0.425859
O11	O	-0.257461	-0.962241	-0.222382
O12	O	-0.257121	-0.843760	-0.331180
O13	O	-0.331153	-0.948861	-0.535775
O14	O	-0.323942	-0.840037	-0.417267
O15	O	-0.269795	-1.035037	-0.539478
O16	O	-0.412733	-1.043377	-0.339654
O17	O	-0.412475	-0.953605	-0.422089
C18	C	-0.289687	-0.816461	-0.373137
C19	C	-0.287111	-0.738537	-0.369826
C20	C	-0.431575	-0.998491	-0.380880
C21	C	-0.489690	-0.998504	-0.380890
C22	C	-0.301264	-0.990838	-0.563775
C23	C	-0.303619	-0.987527	-0.641698
C24	C	-0.850185	-1.045465	-0.338075
C25	C	-0.904791	-1.045491	-0.338085
O26	O	-0.933135	-1.085298	-0.301642
N27	N	-0.931982	-0.998728	-0.380969
C28	C	-0.904565	-0.951940	-0.423850
O29	O	-0.932708	-0.912167	-0.460327
C30	C	-0.849961	-0.951917	-0.423843
C31	C	-0.822772	-0.998679	-0.380951
C32	C	-0.822997	-1.092223	-0.295188
C33	C	-0.768395	-1.092195	-0.295176
C34	C	-0.740982	-1.045409	-0.338052
C35	C	-0.768171	-0.998651	-0.380940
C36	C	-0.822546	-0.905133	-0.466727
C37	C	-0.767938	-0.905115	-0.466716
C38	C	-0.740749	-0.951876	-0.423825
C39	C	-0.686156	-0.951837	-0.423805
N40	N	-0.658965	-0.998600	-0.380921
C41	C	-0.686378	-1.045386	-0.338045
C42	C	-1.019238	-0.951992	-0.423863
C43	C	-1.073841	-0.952011	-0.423867
C44	C	-1.074063	-1.045564	-0.338103
C45	C	-1.019459	-1.045541	-0.338096
C46	C	-0.992047	-0.998756	-0.380980
C47	C	-0.571710	-1.045324	-0.338024
C48	C	-0.517103	-1.045290	-0.338014
C49	C	-0.516886	-0.951740	-0.423780
C50	C	-0.571488	-0.951771	-0.423788
C51	C	-0.598899	-0.998569	-0.380907
O52	O	-0.657777	-0.912052	-0.460232
O53	O	-0.658229	-1.085159	-0.301581
C54	C	-0.159371	-0.998742	-0.380971
C55	C	-0.101259	-0.998800	-0.380993
C56	C	-0.301813	-1.181464	-0.388728
C57	C	-0.304401	-1.259387	-0.392057
C58	C	-0.320740	-0.700012	-0.413021
C59	C	-0.318313	-0.626794	-0.409912
C60	C	-0.282260	-0.592104	-0.363605
C61	C	-0.248627	-0.630634	-0.320408
C62	C	-0.251052	-0.703850	-0.323520
C63	C	-0.273194	-0.371134	-0.351972
C64	C	-0.270773	-0.297913	-0.348862
C65	C	-0.340458	-0.294078	-0.438367
C66	C	-0.342882	-0.367296	-0.441472
C67	C	-0.309247	-0.405820	-0.398278
C68	C	-0.279779	-0.517264	-0.360425
C69	C	-0.311726	-0.480658	-0.401462
C70	C	-0.272781	-1.030837	-0.680236
C71	C	-0.274992	-1.027718	-0.753453
C72	C	-0.308044	-0.981292	-0.788130
C73	C	-0.338883	-0.937977	-0.749587
C74	C	-0.336669	-0.941093	-0.676372
C75	C	-0.316324	-0.969635	-1.009097
C76	C	-0.318536	-0.966523	-1.082318
C77	C	-0.254644	-1.056263	-1.086178
C78	C	-0.252436	-1.059378	-1.012961
C79	C	-0.283273	-1.016061	-0.974424
C80	C	-0.310306	-0.978104	-0.862970
C81	C	-0.281008	-1.019246	-0.899586
C82	C	-0.290196	-1.006386	-0.198772
C83	C	-0.287698	-1.009833	-0.120856
H84	H	-0.494968	-1.083369	-0.303084
O85	O	-1.100310	-0.906679	-0.465566
C86	C	-1.134532	-0.944643	-0.512604
H87	H	-1.143701	-0.998843	-0.490194
H88	H	-1.115288	-0.950089	-0.564884
C89	C	-1.174267	-0.838972	-0.551162
C90	C	-1.185531	-0.905540	-0.523634
H91	H	-1.205724	-0.814851	-0.557969
H92	H	-1.151210	-0.813394	-0.519473
H93	H	-1.158228	-0.843520	-0.594725
H94	H	-1.201563	-0.900991	-0.480068
H95	H	-1.208592	-0.931116	-0.555316
H96	H	-0.245869	-1.068644	-0.652007
O97	O	-0.992551	-0.906505	-0.465417
C98	C	-0.958312	-0.862926	-0.423529
H99	H	-0.949337	-0.889949	-0.371480
H100	H	-0.977445	-0.811321	-0.413563
C101	C	-0.918213	-0.815339	-0.525475
C102	C	-0.907187	-0.848531	-0.461549
H103	H	-0.886678	-0.806456	-0.548927
H104	H	-0.941282	-0.844696	-0.553696
H105	H	-0.934158	-0.772338	-0.517160
H106	H	-0.891249	-0.891534	-0.469865
H107	H	-0.884115	-0.819181	-0.433330
O108	O	-0.213675	-0.596908	-0.275352
C109	C	-0.240613	-0.556435	-0.228208
H110	H	-0.282381	-0.578654	-0.224709
H111	H	-0.241259	-0.500029	-0.247522
C112	C	-0.161442	-0.531117	-0.159642
C113	C	-0.212742	-0.558410	-0.155340
H114	H	-0.144249	-0.532332	-0.114695
H115	H	-0.143292	-0.558382	-0.191405
H116	H	-0.161987	-0.484114	-0.175741
H117	H	-0.212196	-0.605415	-0.139250
H118	H	-0.230891	-0.531154	-0.123572
O119	O	-0.741390	-0.859600	-0.508396
C120	C	-0.777103	-0.818352	-0.546265
H121	H	-0.815087	-0.817184	-0.517449
H122	H	-0.785338	-0.841729	-0.600623
C123	C	-0.707025	-0.744727	-0.588523
C124	C	-0.753677	-0.743288	-0.553127
H125	H	-0.692574	-0.698425	-0.592759
H126	H	-0.682964	-0.772518	-0.563012
H127	H	-0.713894	-0.764211	-0.633817
H128	H	-0.746806	-0.723813	-0.507831
H129	H	-0.777736	-0.715492	-0.578631
H130	H	-0.350100	-0.728252	-0.450727
H131	H	-0.997325	-1.083618	-0.303171
O132	O	-0.849538	-1.137698	-0.253467
C133	C	-0.813822	-1.178969	-0.215632
H134	H	-0.773896	-1.150336	-0.211962
H135	H	-0.810510	-1.231099	-0.243618
C136	C	-0.882252	-1.227476	-0.145964
C137	C	-0.833215	-1.192307	-0.141452
H138	H	-0.894215	-1.235707	-0.100207
H139	H	-0.906315	-1.199674	-0.171455
H140	H	-0.879485	-1.270914	-0.169288
H141	H	-0.835984	-1.148866	-0.118136
H142	H	-0.809152	-1.220102	-0.115954
H143	H	-0.372241	-0.395536	-0.479179
O144	O	-0.597823	-0.906321	-0.465514
C145	C	-0.561914	-0.865007	-0.503339
H146	H	-0.523991	-0.893594	-0.507000
H147	H	-0.553619	-0.812871	-0.475351
C148	C	-0.631701	-0.816579	-0.573023
C149	C	-0.585125	-0.851693	-0.577524
H150	H	-0.646018	-0.808363	-0.618783
H151	H	-0.655894	-0.844411	-0.547538
H152	H	-0.624782	-0.773137	-0.549696
H153	H	-0.592046	-0.895138	-0.600842
H154	H	-0.560934	-0.823868	-0.603015
H155	H	-0.844673	-0.867052	-0.501650
H156	H	-0.337219	-0.940307	-0.891213
H157	H	-0.594021	-1.083432	-0.303108
H158	H	-0.367840	-0.262704	-0.473534
H159	H	-1.096393	-1.083662	-0.303194
H160	H	-0.494558	-0.913645	-0.458687
O161	O	-0.224669	-1.098404	-1.123507
C162	C	-0.195011	-1.140033	-1.077199
H163	H	-0.214930	-1.144662	-1.025104
H164	H	-0.154217	-1.114728	-1.068328
C165	C	-0.166350	-1.207753	-1.172951
C166	C	-0.190817	-1.213443	-1.108969
H167	H	-0.163761	-1.253035	-1.192549
H168	H	-0.186329	-1.179705	-1.204150
H169	H	-0.132357	-1.186663	-1.165550
H170	H	-0.224812	-1.234525	-1.116372
H171	H	-0.170843	-1.241496	-1.077771
H172	H	-0.345698	-0.595430	-0.445086
H173	H	-0.241408	-0.269669	-0.311157
H174	H	-0.245810	-0.402492	-0.316795
O175	O	-0.218440	-0.741251	-0.281456
C176	C	-0.227071	-0.726294	-0.210795
H177	H	-0.268058	-0.706285	-0.206297
H178	H	-0.197059	-0.684592	-0.190730
C179	C	-0.171335	-0.817895	-0.172312
C180	C	-0.221677	-0.793324	-0.166787
H181	H	-0.168006	-0.859240	-0.145164
H182	H	-0.165518	-0.827970	-0.219917
H183	H	-0.146331	-0.783137	-0.155592
H184	H	-0.246680	-0.828078	-0.183515
H185	H	-0.227498	-0.783256	-0.119183
O186	O	-0.741960	-1.137528	-0.253437
C187	C	-0.707715	-1.099575	-0.206419
H188	H	-0.722243	-1.044553	-0.199686
H189	H	-0.666899	-1.096212	-0.227976
C190	C	-0.687974	-1.204565	-0.143306
C191	C	-0.705820	-1.136988	-0.135031
H192	H	-0.686803	-1.227644	-0.099271
H193	H	-0.711045	-1.230136	-0.174984
H194	H	-0.653963	-1.201753	-0.161272
H195	H	-0.739833	-1.139801	-0.117074
H196	H	-0.682756	-1.111418	-0.103348
H197	H	-0.341441	-0.934373	-0.977730
O198	O	-0.346678	-0.514429	-0.446481
C199	C	-0.319736	-0.554873	-0.493646
H200	H	-0.279702	-0.566908	-0.469488
H201	H	-0.314694	-0.524467	-0.544418
C202	C	-0.400368	-0.609087	-0.538889
C203	C	-0.351199	-0.623874	-0.509215
H204	H	-0.419776	-0.651648	-0.548496
H205	H	-0.418520	-0.581837	-0.507115
H206	H	-0.396159	-0.583747	-0.581196
H207	H	-0.355408	-0.649206	-0.466905
H208	H	-0.333049	-0.651130	-0.540982
O209	O	-0.244687	-0.483597	-0.315515
C210	C	-0.193656	-0.500896	-0.331713
H211	H	-0.193441	-0.518659	-0.388581
H212	H	-0.180221	-0.544994	-0.295965
C213	C	-0.156618	-0.414412	-0.251030
C214	C	-0.156353	-0.436223	-0.320879
H215	H	-0.133607	-0.374520	-0.244345
H216	H	-0.190998	-0.402759	-0.240115
H217	H	-0.145423	-0.451166	-0.221248
H218	H	-0.167554	-0.399472	-0.350659
H219	H	-0.121974	-0.447868	-0.331799
H220	H	-0.249882	-1.062987	-0.784827
O221	O	-0.366551	-0.898951	-0.638904
C222	C	-0.334004	-0.855511	-0.594615
H223	H	-0.293349	-0.850283	-0.616507
H224	H	-0.331248	-0.879547	-0.540053
C225	C	-0.407026	-0.789077	-0.563480
C226	C	-0.357094	-0.782650	-0.590372
H227	H	-0.421270	-0.744133	-0.560859
H228	H	-0.428955	-0.818344	-0.593316
H229	H	-0.404723	-0.809109	-0.518014
H230	H	-0.359399	-0.762626	-0.635840
H231	H	-0.335167	-0.753378	-0.560543
O232	O	-0.220277	-1.104366	-0.979210
C233	C	-0.183895	-1.066263	-0.935197
H234	H	-0.200255	-1.013597	-0.921935
H235	H	-0.145760	-1.057369	-0.963122
C236	C	-0.153476	-1.172485	-0.883598
C237	C	-0.173571	-1.107802	-0.867305
H238	H	-0.147105	-1.198109	-0.841720
H239	H	-0.177985	-1.198156	-0.913252
H240	H	-0.121699	-1.165064	-0.906870
H241	H	-0.205351	-1.115224	-0.844041
H242	H	-0.149067	-1.082133	-0.837646
O243	O	-0.350655	-0.921359	-1.115894
C244	C	-0.377408	-0.883806	-1.066182
H245	H	-0.354335	-0.883617	-1.013896
H246	H	-0.417733	-0.909768	-1.059475
C247	C	-0.411664	-0.808204	-1.155787
C248	C	-0.383323	-0.807967	-1.091570
H249	H	-0.415316	-0.761424	-1.171449
H250	H	-0.393642	-0.833506	-1.189280
H251	H	-0.445266	-0.829842	-1.150190
H252	H	-0.349720	-0.786337	-1.097171
H253	H	-0.401340	-0.782660	-1.058079
O254	O	-0.371049	-0.892977	-0.783307
C255	C	-0.407416	-0.931053	-0.827364
H256	H	-0.411814	-0.987203	-0.807660
H257	H	-0.393009	-0.931124	-0.882963
C258	C	-0.455260	-0.827734	-0.851202
C259	C	-0.460665	-0.896697	-0.826998
H260	H	-0.488106	-0.806541	-0.850980
H261	H	-0.430758	-0.802080	-0.821523
H262	H	-0.443252	-0.827802	-0.897533
H263	H	-0.472666	-0.896627	-0.780666
H264	H	-0.485170	-0.922350	-0.856670
O265	O	-0.248870	-1.064248	-0.865824
C266	C	-0.212487	-1.026168	-0.821794
H267	H	-0.228828	-0.973485	-0.808550
H268	H	-0.174339	-1.017308	-0.849696
C269	C	-0.182133	-1.132410	-0.770163
C270	C	-0.202205	-1.067707	-0.753892
H271	H	-0.175788	-1.158033	-0.728280
H272	H	-0.206643	-1.158066	-0.799829
H273	H	-0.150345	-1.125017	-0.793417
H274	H	-0.233995	-1.075100	-0.730648
H275	H	-0.177699	-1.042053	-0.724221
