data_functionalizedCrystal
_audit_creation_method	'MofGen! by Chris Wilmer'
_symmetry_space_group_name_H-M	'P1'
_symmetry_Int_Tables_number	1
_symmetry_cell_setting	triclinic
loop_
_symmetry_equiv_pos_as_xyz
  x,y,z
_cell_length_a	10.968094
_cell_length_b	14.750522
_cell_length_c	11.026607
_cell_angle_alpha	78.938605
_cell_angle_beta	83.620158
_cell_angle_gamma	92.269229
loop_
_atom_site_label
_atom_site_type_symbol
_atom_site_fract_x
_atom_site_fract_y
_atom_site_fract_z
O1	O	1.624141	-0.188822	-0.114314
O2	O	1.285243	-0.132764	-0.147320
O3	O	1.426604	-0.156150	0.044703
O4	O	1.482781	-0.165436	-0.306336
O5	O	1.370989	-0.306609	0.089461
O6	O	1.229629	-0.283223	-0.102561
O7	O	1.568527	-0.339281	-0.069556
Zn8	Zn	1.390248	-0.335141	-0.078952
Zn9	Zn	1.463522	-0.136904	-0.137923
O10	O	1.427166	-0.315895	-0.261578
C11	C	1.213375	-0.200705	-0.125922
C12	C	1.082085	-0.178988	-0.128831
N13	N	1.340248	-0.470433	-0.038705
C14	C	0.859040	-0.224796	-0.109938
C15	C	0.994732	-0.247251	-0.106937
C16	C	1.653081	-0.873952	-0.290602
C17	C	1.618068	-0.968664	-0.262380
C18	C	1.443958	-0.939853	-0.122135
C19	C	1.478953	-0.845135	-0.150350
C20	C	1.583516	-0.812193	-0.234584
C21	C	1.409388	-0.783376	-0.094332
C22	C	1.444384	-0.688667	-0.122540
C23	C	1.548945	-0.655717	-0.206767
C24	C	1.618512	-0.717484	-0.262792
C25	C	1.304830	-0.816321	-0.010092
C26	C	1.235265	-0.754562	0.045927
C27	C	1.270256	-0.659851	0.017712
C28	C	1.374817	-0.626901	-0.066515
C29	C	1.200689	-0.598084	0.073737
C30	C	1.235685	-0.503376	0.045528
C31	C	1.409813	-0.532192	-0.094724
C32	C	1.640395	-0.271338	-0.090954
C33	C	1.771688	-0.293049	-0.088047
C34	C	1.388433	-0.229664	0.111874
C35	C	1.357541	-0.224551	0.245339
N36	N	1.513529	-0.001613	-0.178161
C37	C	1.465337	-0.242379	-0.328750
C38	C	1.496232	-0.247486	-0.462217
C39	C	1.442844	-0.238660	0.322590
C40	C	1.410917	-0.233375	0.460533
H41	H	0.833368	-0.149737	-0.130894
H42	H	1.020397	-0.322314	-0.085966
H43	H	0.797358	-0.368108	-0.067078
Br44	Br	1.039327	-0.053874	-0.163803
H45	H	1.115560	-0.624922	0.142329
Br46	Br	1.603971	-0.265303	0.262621
Br47	Br	1.657366	-0.274132	0.477825
H48	H	1.703647	-0.690659	-0.331397
H49	H	1.314246	-0.217378	0.496512
Br50	Br	1.302057	-0.984570	-0.007821
Br51	Br	1.551731	-0.487477	-0.209031
H52	H	1.577439	-0.578599	-0.229731
Br53	Br	1.196422	-0.197885	0.305301
H54	H	1.738216	-0.847127	-0.359207
H55	H	1.674724	-1.018947	-0.308005
H56	H	1.276346	-0.893441	0.012880
Br57	Br	1.093364	-0.799279	0.160241
Br58	Br	1.141300	-0.419557	0.121586
