data_functionalizedCrystal
_audit_creation_method	'MofGen! by Chris Wilmer'
_symmetry_space_group_name_H-M	'P1'
_symmetry_Int_Tables_number	1
_symmetry_cell_setting	triclinic
loop_
_symmetry_equiv_pos_as_xyz
  x,y,z
_cell_length_a	12.645331
_cell_length_b	12.645330
_cell_length_c	16.959447
_cell_angle_alpha	89.971796
_cell_angle_beta	89.984215
_cell_angle_gamma	90.012860
loop_
_atom_site_label
_atom_site_type_symbol
_atom_site_fract_x
_atom_site_fract_y
_atom_site_fract_z
Zn1	Zn	1.620695	-0.422012	-0.446951
Zn2	Zn	1.620614	-0.599304	-0.314778
Zn3	Zn	1.443431	-0.422056	-0.314785
Zn4	Zn	1.443407	-0.599235	-0.446913
O5	O	1.532037	-0.510652	-0.380857
O6	O	1.769031	-0.445541	-0.429431
O7	O	1.597087	-0.575839	-0.204168
O8	O	1.466990	-0.273703	-0.332337
O9	O	1.768972	-0.575797	-0.332323
O10	O	1.597224	-0.273671	-0.429438
O11	O	1.466911	-0.445615	-0.204173
O12	O	1.295081	-0.445548	-0.332299
O13	O	1.466948	-0.575679	-0.557529
O14	O	1.295063	-0.575721	-0.429373
O15	O	1.597201	-0.445474	-0.557557
O16	O	1.597063	-0.747642	-0.332286
O17	O	1.466870	-0.747591	-0.429365
C18	C	1.256607	-0.510632	-0.380833
C19	C	1.138777	-0.510650	-0.380842
C20	C	1.093871	-0.428631	-0.319873
C21	C	0.971311	-0.428328	-0.320082
C22	C	0.970931	-0.480855	-0.464284
C23	C	1.093529	-0.480242	-0.463903
C24	C	1.093575	-0.622708	-0.359157
C25	C	0.970968	-0.622123	-0.357349
C26	C	1.531984	-0.786081	-0.380838
C27	C	1.532058	-0.903911	-0.380856
C28	C	1.613831	-1.071463	-0.319660
C29	C	1.614097	-0.948903	-0.319810
C30	C	1.562344	-0.948291	-0.464176
C31	C	1.562993	-1.070889	-0.463851
C32	C	1.419966	-1.071240	-0.359555
C33	C	1.420504	-0.948636	-0.357686
C34	C	1.808542	-0.510672	-0.380881
C35	C	1.926372	-0.510680	-0.380891
C36	C	1.532081	-0.510564	-0.587025
C37	C	1.532100	-0.510527	-0.674882
C38	C	1.532119	-0.234146	-0.380893
C39	C	1.532154	-0.116316	-0.380908
C40	C	1.464409	-0.578206	-1.046345
C41	C	1.600043	-0.442623	-1.046370
C42	C	1.600015	-0.442646	-0.963824
C43	C	1.532184	-0.510451	-0.922535
C44	C	1.464381	-0.578233	-0.963792
C45	C	1.667824	-0.374872	-0.922561
C46	C	1.667799	-0.374893	-0.840010
C47	C	1.599962	-0.442693	-0.798719
C48	C	1.532156	-0.510477	-0.839981
C49	C	1.464325	-0.578282	-0.798692
C50	C	1.396513	-0.646062	-0.839953
C51	C	1.396544	-0.646033	-0.922501
C52	C	1.599930	-0.442722	-0.716171
C53	C	1.464297	-0.578309	-0.716139
C54	C	1.532054	-0.510663	-0.175490
C55	C	1.532240	-0.510401	-0.087634
H56	H	0.940369	-0.686475	-0.398493
H57	H	1.409051	-0.633515	-0.682527
C58	C	1.133671	-0.557462	-0.527402
N59	N	1.163902	-0.615616	-0.575234
H60	H	1.359110	-1.100247	-0.404164
C61	C	0.930602	-0.453447	-0.236556
N62	N	0.899945	-0.472356	-0.173639
H63	H	1.122613	-0.683811	-0.403565
H64	H	1.644996	-1.099401	-0.481939
C65	C	1.674520	-0.368170	-0.670788
N66	N	1.730703	-0.312011	-0.636607
H67	H	0.940241	-0.399866	-0.482941
H68	H	1.696479	-1.102193	-0.333626
H69	H	1.392422	-1.102251	-0.299856
H70	H	1.504665	-0.919144	-0.511033
H71	H	1.397667	-0.919641	-0.296370
H72	H	1.409195	-0.633388	-1.079943
H73	H	1.341290	-0.701274	-0.806324
C74	C	0.931610	-0.559098	-0.527362
N75	N	0.901990	-0.618031	-0.574872
C76	C	0.931610	-0.652524	-0.274438
N77	N	0.901958	-0.675421	-0.211990
C78	C	1.588461	-0.908370	-0.236354
N79	N	1.569141	-0.877846	-0.173493
H80	H	1.655273	-0.387426	-1.079992
H81	H	1.341339	-0.701219	-0.956103
C82	C	1.671881	-0.906708	-0.489017
N83	N	1.754388	-0.875390	-0.507722
H84	H	1.723054	-0.319676	-0.956184
C85	C	1.333853	-0.907275	-0.413532
N86	N	1.268590	-0.876123	-0.455602
H87	H	1.123286	-0.447024	-0.257838
C88	C	1.135487	-0.317087	-0.339078
N89	N	1.166830	-0.233071	-0.353549
C90	C	1.742382	-0.300323	-0.794631
N91	N	1.798554	-0.244152	-0.760451
C92	C	1.132180	-0.369600	-0.488660
N93	N	1.161286	-0.286260	-0.507305
C94	C	1.135279	-0.659493	-0.278367
N95	N	1.166690	-0.687187	-0.217512
C96	C	1.588564	-1.111401	-0.235952
N97	N	1.569530	-1.141487	-0.172902
C98	C	0.931698	-0.316165	-0.339545
N99	N	0.901862	-0.231680	-0.354210
H100	H	1.697191	-0.919494	-0.333934
C101	C	1.486126	-1.110970	-0.527611
N102	N	1.428238	-1.141154	-0.575640
