data_functionalizedCrystal
_audit_creation_method	'MofGen! by Chris Wilmer'
_symmetry_space_group_name_H-M	'P1'
_symmetry_Int_Tables_number	1
_symmetry_cell_setting	triclinic
loop_
_symmetry_equiv_pos_as_xyz
  x,y,z
_cell_length_a	6.817900
_cell_length_b	17.513362
_cell_length_c	17.110486
_cell_angle_alpha	95.939181
_cell_angle_beta	99.060439
_cell_angle_gamma	106.557224
loop_
_atom_site_label
_atom_site_type_symbol
_atom_site_fract_x
_atom_site_fract_y
_atom_site_fract_z
V1	V	-3.992678	-0.110089	-0.247447
O2	O	-3.964580	0.005535	-0.241987
O3	O	-3.960067	-0.218524	-0.246476
O4	O	-3.922278	-0.108289	-0.355038
O5	O	-4.002631	-0.105463	-0.132673
V6	V	-4.477111	-0.096272	-0.233632
O7	O	-4.251941	-0.140399	-0.277753
O8	O	-4.668046	-0.065963	-0.203326
O9	O	-4.286516	0.012162	-0.234603
O10	O	-4.622607	-0.211896	-0.239092
O11	O	-4.584556	-0.100898	-0.348406
O12	O	-4.324305	-0.098073	-0.126040
C13	C	-3.809621	-0.244961	-0.242758
C14	C	-3.864098	-0.333607	-0.242681
C15	C	-3.707801	-0.371197	-0.238669
C16	C	-3.758995	-0.454488	-0.238587
C17	C	-3.966491	-0.500188	-0.242523
C18	C	-4.122797	-0.462592	-0.246534
C19	C	-4.071599	-0.379301	-0.246610
C20	C	-4.130174	-0.751873	-0.242487
C21	C	-4.181363	-0.835169	-0.242413
C22	C	-3.817556	-0.827060	-0.234465
C23	C	-3.766376	-0.743769	-0.234546
C24	C	-3.922684	-0.706179	-0.238552
C25	C	-4.018826	-0.585325	-0.242442
C26	C	-3.870346	-0.621043	-0.238628
C27	C	-3.761416	-0.104344	-0.381240
C28	C	-3.785244	-0.103590	-0.469201
C29	C	-3.978305	-0.107215	-0.514583
C30	C	-4.000682	-0.106505	-0.597231
C31	C	-3.829999	-0.102176	-0.634497
C32	C	-3.636921	-0.098548	-0.589109
C33	C	-3.614543	-0.099252	-0.506461
C34	C	-3.888464	-0.099846	-0.883837
C35	C	-3.910860	-0.099145	-0.966491
C36	C	-4.274619	-0.107101	-0.974607
C37	C	-4.252226	-0.107809	-0.891958
C38	C	-4.059149	-0.104177	-0.846577
C39	C	-3.852869	-0.101453	-0.718978
C40	C	-4.036278	-0.104894	-0.762097
C41	C	-4.100305	0.038595	-0.238318
C42	C	-4.025066	0.127240	-0.238400
C43	C	-4.148510	-0.102020	-0.099835
C44	C	-4.103920	-0.102770	-0.011873
H45	H	-3.701401	-0.583830	-0.235419
H46	H	-3.597414	-0.706565	-0.231338
N47	N	-3.657929	-0.865471	-0.230375
N48	N	-3.703656	-0.939837	-0.230308
H49	H	-3.590912	-0.966965	-0.227418
N50	N	-4.426572	-0.112210	-0.853897
N51	N	-4.417265	-0.057026	-0.799579
H52	H	-4.540403	-0.060135	-0.772699
N53	N	-4.393330	-0.881859	-0.246453
N54	N	-4.530458	-0.884027	-0.305221
H55	H	-4.680153	-0.917005	-0.308080
N56	N	-3.417327	-0.095560	-0.460116
N57	N	-3.335454	-0.149280	-0.475738
H58	H	-3.196162	-0.146670	-0.443008
H59	H	-4.431815	-0.110057	-1.011566
H60	H	-3.771857	-0.095617	-0.996830
H61	H	-3.713905	-0.097931	-0.749330
H62	H	-4.157886	-0.109453	-0.634177
N63	N	-3.691266	-0.096171	-0.837499
N64	N	-3.675618	-0.152146	-0.799594
H65	H	-3.536338	-0.149556	-0.766868
N66	N	-3.462585	-0.094117	-0.627184
N67	N	-3.482586	-0.093489	-0.700976
H68	H	-3.359459	-0.090361	-0.727867
H69	H	-3.538842	-0.333995	-0.235470
H70	H	-4.175243	-0.108416	-0.731751
N71	N	-4.230789	-0.631993	-0.246468
N72	N	-4.325834	-0.616652	-0.193050
H73	H	-4.475537	-0.649612	-0.195894
N74	N	-4.289888	-0.713508	-0.246601
N75	N	-4.438445	-0.734295	-0.305354
H76	H	-4.551261	-0.707202	-0.308264
H77	H	-3.631713	-0.485089	-0.235308
H78	H	-4.198874	-0.348696	-0.249872
N79	N	-4.334736	-0.509280	-0.250544
N80	N	-4.380427	-0.583645	-0.250476
H81	H	-4.530112	-0.616620	-0.253309
H82	H	-4.117301	-0.110745	-0.484248
