data_functionalizedCrystal
_audit_creation_method	'MofGen! by Chris Wilmer'
_symmetry_space_group_name_H-M	'P1'
_symmetry_Int_Tables_number	1
_symmetry_cell_setting	triclinic
loop_
_symmetry_equiv_pos_as_xyz
  x,y,z
_cell_length_a	16.625548
_cell_length_b	12.645330
_cell_length_c	16.625539
_cell_angle_alpha	90.026386
_cell_angle_beta	90.020568
_cell_angle_gamma	90.013714
loop_
_atom_site_label
_atom_site_type_symbol
_atom_site_fract_x
_atom_site_fract_y
_atom_site_fract_z
Zn1	Zn	1.232735	-0.422007	0.455920
Zn2	Zn	1.566069	-0.088674	0.789253
Zn3	Zn	1.899402	0.244659	1.122587
Zn4	Zn	1.232662	-0.599293	0.321092
Zn5	Zn	1.565995	-0.265960	0.654425
Zn6	Zn	1.899328	0.067373	0.987759
Zn7	Zn	1.097897	-0.422048	0.321101
Zn8	Zn	1.431231	-0.088714	0.654434
Zn9	Zn	1.764564	0.244619	0.987767
Zn10	Zn	1.097891	-0.599232	0.455882
Zn11	Zn	1.431224	-0.265899	0.789215
Zn12	Zn	1.764557	0.067434	1.122548
O13	O	1.165296	-0.510645	0.388499
O14	O	1.498630	-0.177312	0.721832
O15	O	1.831963	0.156022	1.055165
O16	O	1.345558	-0.445533	0.438047
O17	O	1.678891	-0.112200	0.771381
O18	O	2.012225	0.221134	1.104714
O19	O	1.214757	-0.575824	0.208261
O20	O	1.548090	-0.242490	0.541594
O21	O	1.881424	0.090843	0.874927
O22	O	1.115817	-0.273695	0.339004
O23	O	1.449151	0.059638	0.672338
O24	O	1.782484	0.392972	1.005671
O25	O	1.345504	-0.575784	0.338990
O26	O	1.678837	-0.242451	0.672323
O27	O	2.012171	0.090882	1.005656
O28	O	1.214882	-0.273665	0.438056
O29	O	1.548216	0.059668	0.771389
O30	O	1.881549	0.393001	1.104722
O31	O	1.115746	-0.445602	0.208267
O32	O	1.449079	-0.112269	0.541600
O33	O	1.782413	0.221065	0.874934
O34	O	0.985064	-0.445543	0.338967
O35	O	1.318397	-0.112210	0.672301
O36	O	1.651731	0.221124	1.005634
O37	O	1.115806	-0.575681	0.568719
O38	O	1.449140	-0.242347	0.902053
O39	O	1.782473	0.090986	1.235386
O40	O	0.985059	-0.575720	0.437990
O41	O	1.318393	-0.242387	0.771324
O42	O	1.651726	0.090947	1.104657
O43	O	1.214876	-0.445474	0.568747
O44	O	1.548210	-0.112141	0.902081
O45	O	1.881543	0.221193	1.235414
O46	O	1.214751	-0.747632	0.338952
O47	O	1.548084	-0.414299	0.672286
O48	O	1.881417	-0.080966	1.005619
O49	O	1.115735	-0.747588	0.437982
O50	O	1.449068	-0.414254	0.771315
O51	O	1.782402	-0.080921	1.104648
C52	C	0.955806	-0.510630	0.388476
C53	C	1.289139	-0.177297	0.721809
C54	C	1.622472	0.156037	1.055143
C55	C	0.866184	-0.510649	0.388486
C56	C	1.199518	-0.177316	0.721819
C57	C	1.532851	0.156018	1.055152
C58	C	0.538009	-0.510656	0.388520
C59	C	0.871342	-0.177323	0.721853
C60	C	1.204675	0.156011	1.055187
C61	C	0.629317	-0.510651	0.388508
C62	C	0.962651	-0.177318	0.721841
C63	C	1.295984	0.156016	1.055174
C64	C	0.702094	-0.510653	0.388502
C65	C	1.035427	-0.177320	0.721835
C66	C	1.368760	0.156014	1.055169
C67	C	0.793408	-0.510647	0.388491
C68	C	1.126741	-0.177314	0.721825
C69	C	1.460075	0.156020	1.055158
C70	C	1.165256	-0.786075	0.388480
C71	C	1.498589	-0.452742	0.721813
C72	C	1.831923	-0.119408	1.055146
C73	C	1.165312	-0.903905	0.388498
C74	C	1.498646	-0.570572	0.721832
C75	C	1.831979	-0.237238	1.055165
C76	C	1.227503	-1.071453	0.326072
C77	C	1.560837	-0.738120	0.659406
C78	C	1.894170	-0.404786	0.992739
C79	C	1.227706	-0.948893	0.326225
C80	C	1.561039	-0.615559	0.659559
C81	C	1.894372	-0.282226	0.992892
C82	C	1.188356	-0.948288	0.473491
C83	C	1.521689	-0.614954	0.806824
C84	C	1.855022	-0.281621	1.140158
C85	C	1.188849	-1.070886	0.473160
C86	C	1.522183	-0.737552	0.806493
C87	C	1.855516	-0.404219	1.139826
C88	C	1.080054	-1.071234	0.366769
C89	C	1.413387	-0.737901	0.700103
C90	C	1.746721	-0.404567	1.033436
C91	C	1.080463	-0.948630	0.364863
C92	C	1.413796	-0.615296	0.698197
C93	C	1.747129	-0.281963	1.031530
C94	C	1.375605	-0.510661	0.388522
C95	C	1.708939	-0.177328	0.721855
C96	C	2.042272	0.156006	1.055188
C97	C	1.465226	-0.510668	0.388532
C98	C	1.798560	-0.177335	0.721865
C99	C	2.131893	0.155999	1.055198
C100	C	1.165349	-0.510566	0.598808
C101	C	1.498682	-0.177233	0.932141
C102	C	1.832015	0.156101	1.265474
C103	C	1.165371	-0.510532	0.688429
C104	C	1.498704	-0.177199	1.021762
C105	C	1.832038	0.156134	1.355095
C106	C	1.165359	-0.234140	0.388535
C107	C	1.498692	0.099193	0.721869
C108	C	1.832026	0.432527	1.055202
C109	C	1.165386	-0.116310	0.388551
C110	C	1.498719	0.217024	0.721884
C111	C	1.832052	0.550357	1.055218
C112	C	1.165291	-0.510647	0.179008
C113	C	1.498624	-0.177314	0.512341
C114	C	1.831957	0.156019	0.845674
C115	C	1.165424	-0.510382	0.089387
C116	C	1.498758	-0.177049	0.422720
C117	C	1.832091	0.156284	0.756054
C118	C	1.165408	-0.510414	1.016605
C119	C	1.498742	-0.177080	1.349938
C120	C	1.832075	0.156253	1.683271
C121	C	1.165396	-0.510450	0.925296
C122	C	1.498729	-0.177117	1.258629
C123	C	1.832062	0.156216	1.591963
C124	C	1.165390	-0.510474	0.852520
C125	C	1.498723	-0.177141	1.185853
C126	C	1.832057	0.156193	1.519186
C127	C	1.165377	-0.510509	0.761205
C128	C	1.498710	-0.177175	1.094539
C129	C	1.832043	0.156158	1.427872
H130	H	1.213289	-0.918889	0.263205
H131	H	1.546622	-0.585556	0.596538
H132	H	1.879955	-0.252222	0.929871
H133	H	1.031683	-0.918017	0.407033
H134	H	1.365017	-0.584684	0.740366
H135	H	1.698350	-0.251350	1.073699
C136	C	1.208357	-1.111517	0.240706
C137	C	1.541690	-0.778183	0.574040
C138	C	1.875023	-0.444850	0.907373
H139	H	1.162303	-1.155950	0.242399
H140	H	1.495637	-0.822617	0.575732
H141	H	1.828970	-0.489284	0.909066
H142	H	1.198045	-1.052981	0.206432
H143	H	1.531379	-0.719648	0.539766
H144	H	1.864712	-0.386314	0.873099
H145	H	1.252931	-1.150398	0.220632
H146	H	1.586264	-0.817065	0.553966
H147	H	1.919597	-0.483732	0.887299
H148	H	1.290366	-1.102182	0.340318
H149	H	1.623700	-0.768848	0.673652
H150	H	1.957033	-0.435515	1.006985
H151	H	1.033771	-1.100244	0.412275
H152	H	1.367104	-0.766910	0.745608
H153	H	1.700438	-0.433577	1.078942
C154	C	1.313083	-0.909155	0.345693
C155	C	1.646416	-0.575822	0.679026
C156	C	1.979750	-0.242488	1.012360
H157	H	1.347776	-0.967940	0.353547
H158	H	1.681110	-0.634607	0.686880
H159	H	2.014443	-0.301274	1.020214
H160	H	1.332415	-0.867466	0.302289
H161	H	1.665748	-0.534133	0.635622
H162	H	1.999081	-0.200800	0.968956
H163	H	1.311732	-0.867556	0.393269
H164	H	1.645065	-0.534222	0.726602
H165	H	1.978399	-0.200889	1.059936
H166	H	1.063088	-0.919632	0.302316
H167	H	1.396421	-0.586299	0.635649
H168	H	1.729754	-0.252966	0.968982
H169	H	1.251222	-1.099397	0.491610
H170	H	1.584556	-0.766064	0.824943
H171	H	1.917889	-0.432730	1.158277
C172	C	1.130396	-1.110973	0.538198
C173	C	1.463729	-0.777639	0.871531
C174	C	1.797062	-0.444306	1.204864
H175	H	1.106458	-1.052328	0.564709
H176	H	1.439791	-0.718995	0.898042
H177	H	1.773124	-0.385661	1.231375
H178	H	1.089650	-1.152784	0.513804
H179	H	1.422983	-0.819451	0.847137
H180	H	1.756317	-0.486118	1.180470
H181	H	1.159031	-1.152521	0.576220
H182	H	1.492365	-0.819188	0.909553
H183	H	1.825698	-0.485854	1.242887
H184	H	1.144489	-0.919144	0.521290
H185	H	1.477823	-0.585810	0.854623
H186	H	1.811156	-0.252477	1.187956
H187	H	1.250024	-0.917498	0.492249
H188	H	1.583358	-0.584165	0.825582
H189	H	1.916691	-0.250832	1.158916
C190	C	1.051747	-1.113111	0.284500
C191	C	1.385080	-0.779777	0.617833
C192	C	1.718414	-0.446444	0.951166
H193	H	1.091711	-1.158480	0.262664
H194	H	1.425045	-0.825147	0.595997
H195	H	1.758378	-0.491814	0.929331
H196	H	1.002996	-1.151339	0.291040
H197	H	1.336329	-0.818006	0.624374
H198	H	1.669663	-0.484673	0.957707
H199	H	1.043091	-1.055340	0.249031
H200	H	1.376424	-0.722007	0.582364
H201	H	1.709758	-0.388673	0.915697
