data_functionalizedCrystal
_audit_creation_method	'MofGen! by Chris Wilmer'
_symmetry_space_group_name_H-M	'P1'
_symmetry_Int_Tables_number	1
_symmetry_cell_setting	triclinic
loop_
_symmetry_equiv_pos_as_xyz
  x,y,z
_cell_length_a	6.817900
_cell_length_b	16.418049
_cell_length_c	14.125465
_cell_angle_alpha	95.891231
_cell_angle_beta	100.398878
_cell_angle_gamma	103.389670
loop_
_atom_site_label
_atom_site_type_symbol
_atom_site_fract_x
_atom_site_fract_y
_atom_site_fract_z
V1	V	-3.990825	-0.115166	-0.300313
O2	O	-3.979535	0.006275	-0.294248
O3	O	-3.942095	-0.229066	-0.298594
O4	O	-3.926976	-0.113069	-0.431137
O5	O	-3.994759	-0.110525	-0.160788
V6	V	-4.476498	-0.100678	-0.283584
O7	O	-4.247369	-0.146945	-0.337010
O8	O	-4.670152	-0.068899	-0.246887
O9	O	-4.302021	0.013222	-0.285303
O10	O	-4.605185	-0.222119	-0.289649
O11	O	-4.589961	-0.105319	-0.423109
O12	O	-4.317140	-0.102775	-0.152760
C13	C	-3.787516	-0.256843	-0.293943
C14	C	-3.828857	-0.349956	-0.293410
C15	C	-3.768229	-0.108876	-0.463013
C16	C	-3.797307	-0.107916	-0.569965
C17	C	-4.105464	-0.568437	-0.297014
C18	C	-4.144296	-0.655927	-0.296522
C19	C	-3.781216	-0.647406	-0.286889
C20	C	-3.742389	-0.559918	-0.287388
C21	C	-3.904519	-0.520435	-0.292446
C22	C	-3.982178	-0.695414	-0.291454
C23	C	-4.024280	-0.790275	-0.290920
C24	C	-3.862415	-0.425569	-0.292982
C25	C	-3.850605	-0.106155	-0.765783
C26	C	-4.036087	-0.109688	-0.818114
C27	C	-4.065745	-0.108708	-0.927074
C28	C	-3.820939	-0.107135	-0.656813
C29	C	-4.119943	0.040994	-0.289951
C30	C	-4.057839	0.134107	-0.290490
C31	C	-4.139230	-0.106971	-0.120879
C32	C	-4.089391	-0.107927	-0.013926
H33	H	-4.237482	-0.536293	-0.301131
H34	H	-3.714093	-0.102396	-0.802810
O35	O	-3.547217	-0.513178	-0.282821
C36	C	-3.264326	-0.398322	-0.193989
C37	C	-3.485368	-0.451174	-0.199052
H38	H	-3.214237	-0.348191	-0.126256
H39	H	-3.259863	-0.366105	-0.261605
H40	H	-3.155174	-0.441591	-0.190327
H41	H	-3.594649	-0.407963	-0.202682
H42	H	-3.489664	-0.483400	-0.131436
O43	O	-4.339364	-0.702623	-0.300814
C44	C	-4.565629	-0.795125	-0.222025
C45	C	-4.344607	-0.742296	-0.217055
H46	H	-4.569950	-0.827200	-0.154305
H47	H	-4.615816	-0.845369	-0.289656
H48	H	-4.674790	-0.751859	-0.225769
H49	H	-4.235294	-0.785494	-0.213274
H50	H	-4.294590	-0.692044	-0.149434
O51	O	-4.198772	-0.114219	-0.773803
C52	C	-4.317033	-0.119270	-0.623207
C53	C	-4.132638	-0.114148	-0.673273
H54	H	-4.263621	-0.119196	-0.541918
H55	H	-4.441324	-0.180033	-0.655982
H56	H	-4.382648	-0.062306	-0.634654
H57	H	-4.066849	-0.171068	-0.661844
H58	H	-4.008477	-0.053350	-0.640490
H59	H	-3.649221	-0.679564	-0.282769
