data_functionalizedCrystal
_audit_creation_method	'MofGen! by Chris Wilmer'
_symmetry_space_group_name_H-M	'P1'
_symmetry_Int_Tables_number	1
_symmetry_cell_setting	triclinic
loop_
_symmetry_equiv_pos_as_xyz
  x,y,z
_cell_length_a	16.992694
_cell_length_b	10.540539
_cell_length_c	15.455313
_cell_angle_alpha	92.694186
_cell_angle_beta	87.142206
_cell_angle_gamma	87.596857
loop_
_atom_site_label
_atom_site_type_symbol
_atom_site_fract_x
_atom_site_fract_y
_atom_site_fract_z
O1	O	1.045302	0.264111	-0.072015
O2	O	0.817001	0.261155	-0.072041
O3	O	0.936360	0.078379	-0.072026
O4	O	0.925943	0.446887	-0.072030
O5	O	0.929534	0.088785	0.072235
O6	O	0.810175	0.271561	0.072220
O7	O	1.038476	0.274517	0.072246
Cu8	Cu	0.923702	0.273989	0.085405
Cu9	Cu	0.931774	0.261683	-0.085200
O10	O	0.919117	0.457293	0.072232
C11	C	0.784354	0.262557	0.000086
C12	C	0.697247	0.251216	0.000077
C13	C	0.932166	0.036211	0.000103
C14	C	0.929829	-0.104941	0.000098
C15	C	0.647619	0.360636	0.000076
C16	C	0.565773	0.349973	0.000088
C17	C	0.533555	0.229889	0.000094
C18	C	0.583189	0.120461	0.000097
C19	C	0.665034	0.131125	0.000092
C20	C	0.289709	0.185692	0.000118
C21	C	0.207858	0.175036	0.000121
C22	C	0.190446	0.404549	0.000114
C23	C	0.272294	0.415202	0.000103
C24	C	0.321921	0.305774	0.000110
N25	N	0.449895	0.218988	0.000104
N26	N	0.405579	0.316677	0.000107
C27	C	0.840284	-0.296163	-0.000236
C28	C	0.842638	-0.149316	0.000089
C29	C	0.967891	-0.157014	0.082483
C30	C	0.964912	-0.303812	0.082552
C31	C	0.974447	-0.316010	-0.081500
C32	C	0.975302	-0.169037	-0.082589
C33	C	1.071122	0.273115	0.000117
C34	C	1.158230	0.284456	0.000121
C35	C	0.923311	0.499461	0.000101
C36	C	0.925648	0.640612	0.000100
N37	N	0.918030	0.282645	0.205400
N38	N	0.937452	0.253018	-0.205195
C39	C	0.968756	0.205027	0.250801
C40	C	0.964474	0.211585	0.341608
C41	C	0.909469	0.295768	0.387013
C42	C	0.858738	0.373389	0.341607
C43	C	0.863017	0.366823	0.250801
C44	C	0.891000	0.324073	0.658593
C45	C	0.886727	0.330635	0.749405
C46	C	0.992462	0.168829	0.749400
C47	C	0.996739	0.162277	0.658592
C48	C	0.946005	0.239893	0.613193
N49	N	0.905093	0.302477	0.479833
N50	N	0.950379	0.233177	0.520375
H51	H	0.673844	0.458421	0.000071
F52	F	0.798916	-0.343019	-0.077459
F53	F	0.512958	0.466434	0.000084
H54	H	0.298519	0.512986	0.000088
F55	F	1.018461	0.128975	0.389927
H56	H	0.821710	0.430026	0.213837
H57	H	0.556951	0.022687	0.000115
H58	H	0.947484	-0.135239	-0.143535
H59	H	0.813948	0.441928	0.378581
H60	H	0.150032	0.493639	0.000110
H61	H	1.039106	-0.139658	-0.087557
F62	F	0.173572	0.047222	0.000143
H63	H	0.949182	-0.354516	-0.143942
H64	H	0.330106	0.096587	0.000125
F65	F	0.717852	0.014665	0.000095
H66	H	0.803202	-0.325110	0.058505
F67	F	0.926002	-0.098864	0.162610
H68	H	1.013550	0.136482	0.213837
F69	F	1.055282	0.072682	0.610269
H70	H	1.033766	0.105637	0.786371
F71	F	0.920568	-0.338386	0.163036
F72	F	0.828180	0.420243	0.797723
H73	H	0.812416	-0.113837	-0.058968
H74	H	0.806591	-0.106178	0.059237
H75	H	1.027442	-0.346069	0.086296
H76	H	1.031777	-0.128883	0.085553
F77	F	0.837008	0.406680	0.610283
F78	F	1.056797	-0.370648	-0.082217
