data_functionalizedCrystal
_audit_creation_method	'MofGen! by Chris Wilmer'
_symmetry_space_group_name_H-M	'P1'
_symmetry_Int_Tables_number	1
_symmetry_cell_setting	triclinic
loop_
_symmetry_equiv_pos_as_xyz
  x,y,z
_cell_length_a	16.109301
_cell_length_b	10.654550
_cell_length_c	9.130313
_cell_angle_alpha	89.995631
_cell_angle_beta	89.999196
_cell_angle_gamma	83.973206
loop_
_atom_site_label
_atom_site_type_symbol
_atom_site_fract_x
_atom_site_fract_y
_atom_site_fract_z
O1	O	1.104090	0.161420	-0.121706
O2	O	0.862148	0.181509	-0.121729
O3	O	0.988682	-0.011350	-0.121708
O4	O	0.977556	0.354279	-0.121728
O5	O	0.988673	-0.011356	0.121891
O6	O	0.862139	0.181503	0.121869
O7	O	1.104082	0.161415	0.121893
Cu8	Cu	0.983110	0.171458	0.144123
Cu9	Cu	0.983120	0.171465	-0.143960
O10	O	0.977548	0.354274	0.121871
C11	C	0.987861	-0.058140	0.000090
C12	C	0.985417	-0.197550	0.000088
C13	C	0.831164	0.180692	0.000067
C14	C	0.738854	0.178253	0.000058
C15	C	1.059918	-0.278046	0.000095
C16	C	1.057616	-0.409036	0.000076
C17	C	0.906306	-0.379020	0.000051
C18	C	0.908608	-0.248033	0.000059
C19	C	0.517228	0.287019	0.000070
C20	C	0.430494	0.284717	0.000079
C21	C	0.449008	0.055896	0.000085
C22	C	0.535741	0.058199	0.000086
C23	C	0.569848	0.173764	0.000071
C24	C	0.396382	0.169159	0.000079
C25	C	0.302341	0.166662	0.000090
C26	C	0.663895	0.176262	0.000063
C27	C	1.135066	0.162231	0.000093
C28	C	1.227376	0.164671	0.000092
C29	C	0.978369	0.401063	0.000069
C30	C	0.980813	0.540473	0.000062
N31	N	0.983108	0.171453	0.346746
N32	N	0.983128	0.171460	-0.346583
C33	C	1.039157	0.086091	0.423407
C34	C	1.039165	0.086091	0.576744
C35	C	0.927073	0.256827	0.576745
C36	C	0.927062	0.256820	0.423411
H37	H	1.122460	-0.236948	0.000115
H38	H	0.843771	-0.420140	0.000031
H39	H	1.084792	0.016578	0.360991
O40	O	0.379415	0.394766	-0.000188
C41	C	0.394993	0.464944	-0.126338
H42	H	0.424249	0.398635	-0.214515
H43	H	0.439568	0.537614	-0.097823
C44	C	0.276342	0.614451	-0.075244
C45	C	0.312268	0.533008	-0.183549
H46	H	0.225315	0.656441	-0.110532
H47	H	0.265848	0.567175	0.009749
H48	H	0.313497	0.674998	-0.051491
H49	H	0.275119	0.472453	-0.207287
H50	H	0.322754	0.580276	-0.268548
H51	H	0.544996	0.381119	0.000068
O52	O	0.416011	-0.056467	0.000146
C53	C	0.481057	-0.155935	0.000109
H54	H	0.540167	-0.120758	0.046237
H55	H	0.493132	-0.190854	-0.116759
C56	C	0.383349	-0.308141	0.038974
C57	C	0.455948	-0.264939	0.095640
H58	H	0.367860	-0.375383	0.097896
H59	H	0.339526	-0.241129	0.038993
H60	H	0.393421	-0.337232	-0.058415
H61	H	0.445872	-0.235835	0.193020
H62	H	0.499769	-0.331949	0.095640
O63	O	0.586946	-0.051740	-0.000112
C64	C	0.637657	-0.057258	-0.126291
H65	H	0.642610	0.042423	-0.168353
H66	H	0.608802	-0.114603	-0.214634
C67	C	0.719253	-0.242906	-0.036301
C68	C	0.725343	-0.120475	-0.087956
H69	H	0.773341	-0.281906	-0.012658
H70	H	0.685087	-0.239192	0.048706
H71	H	0.695204	-0.290677	-0.109930
H72	H	0.749381	-0.072702	-0.014321
H73	H	0.759516	-0.124182	-0.172950
H74	H	1.118283	-0.474572	0.000079
O75	O	1.093692	0.003125	0.650985
C76	C	1.143138	-0.072240	0.550432
H77	H	1.144363	-0.020751	0.441125
H78	H	1.115612	-0.165548	0.534141
C79	C	1.231175	-0.161314	0.744511
C80	C	1.232685	-0.098069	0.610260
H81	H	1.286411	-0.177253	0.781417
H82	H	1.197861	-0.110543	0.812257
H83	H	1.208233	-0.239064	0.730916
H84	H	1.255618	-0.020315	0.623860
H85	H	1.266006	-0.148828	0.542518
O86	O	0.872603	0.339581	0.651385
C87	C	0.820924	0.272302	0.740081
H88	H	0.853476	0.174049	0.763057
H89	H	0.759426	0.263737	0.681010
C90	C	0.763595	0.463781	0.857509
C91	C	0.803579	0.343108	0.885738
H92	H	0.752892	0.507458	0.947354
H93	H	0.798409	0.509109	0.797749
H94	H	0.712351	0.456626	0.808279
H95	H	0.854826	0.350264	0.934950
H96	H	0.768772	0.297782	0.945509
H97	H	0.847937	-0.182489	0.000049
H98	H	0.881417	0.326332	0.360989
