data_functionalizedCrystal
_audit_creation_method	'MofGen! by Chris Wilmer'
_symmetry_space_group_name_H-M	'P1'
_symmetry_Int_Tables_number	1
_symmetry_cell_setting	triclinic
loop_
_symmetry_equiv_pos_as_xyz
  x,y,z
_cell_length_a	11.792241
_cell_length_b	22.610064
_cell_length_c	11.792254
_cell_angle_alpha	89.996071
_cell_angle_beta	84.196007
_cell_angle_gamma	90.004081
loop_
_atom_site_label
_atom_site_type_symbol
_atom_site_fract_x
_atom_site_fract_y
_atom_site_fract_z
O1	O	1.506924	0.049127	0.155552
O2	O	1.176583	0.049141	0.171584
O3	O	1.349762	0.049130	-0.001602
O4	O	1.333744	0.049139	0.328738
O5	O	1.349732	-0.049239	-0.001576
O6	O	1.176553	-0.049228	0.171610
O7	O	1.506893	-0.049242	0.155577
Zn8	Zn	1.341718	-0.064853	0.163597
Zn9	Zn	1.341758	0.064753	0.163564
O10	O	1.333714	-0.049230	0.328763
C11	C	1.134277	-0.000042	0.170590
C12	C	1.008263	-0.000036	0.167576
N13	N	1.341699	-0.153306	0.163619
C14	C	0.777551	-0.000054	0.162033
C15	C	0.905936	-0.000044	0.165112
C16	C	1.418446	-0.561952	0.086889
C17	C	1.418451	-0.623872	0.086881
O18	O	1.483656	-0.655895	0.021659
N19	N	1.341757	-0.654843	0.163540
C20	C	1.265045	-0.623890	0.240205
O21	O	1.199810	-0.655919	0.305409
C22	C	1.265034	-0.561972	0.240207
C23	C	1.341741	-0.531004	0.163550
C24	C	1.495145	-0.530984	0.010238
C25	C	1.495141	-0.469069	0.010248
C26	C	1.418436	-0.438121	0.086909
C27	C	1.341737	-0.469088	0.163560
C28	C	1.188317	-0.531020	0.316866
C29	C	1.188313	-0.469097	0.316860
C30	C	1.265020	-0.438130	0.240204
C31	C	1.265028	-0.376225	0.240232
N32	N	1.341722	-0.345254	0.163572
C33	C	1.418426	-0.376202	0.086911
C34	C	1.265071	-0.753924	0.240194
C35	C	1.265086	-0.815842	0.240199
C36	C	1.418491	-0.815819	0.086873
C37	C	1.418481	-0.753900	0.086875
C38	C	1.341765	-0.722953	0.163535
C39	C	1.418411	-0.246175	0.086938
C40	C	1.418403	-0.184254	0.086958
C41	C	1.264994	-0.184282	0.240280
C42	C	1.265006	-0.246197	0.240264
C43	C	1.341719	-0.277142	0.163584
O44	O	1.199853	-0.344162	0.305417
O45	O	1.483639	-0.344166	0.021708
C46	C	1.549199	-0.000058	0.156571
C47	C	1.675213	-0.000059	0.159586
C48	C	1.348738	-0.000055	-0.043880
C49	C	1.345718	-0.000054	-0.169893
N50	N	1.341787	0.153205	0.163533
C51	C	1.343264	-0.000052	-0.272229
C52	C	1.340196	-0.000046	-0.400616
C53	C	1.334738	-0.000045	0.371041
C54	C	1.337758	-0.000041	0.497054
H55	H	1.480871	-0.159042	0.024535
C56	C	1.180623	-0.150234	0.324602
H57	H	1.134943	-0.177542	0.370263
H58	H	1.133133	-0.126079	0.283447
H59	H	1.221745	-0.126080	0.372131
C60	C	1.579506	-0.435012	-0.074089
H61	H	1.625174	-0.462319	-0.119749
H62	H	1.627008	-0.410854	-0.032955
H63	H	1.538375	-0.410862	-0.121617
H64	H	1.480877	-0.271363	0.024497
C65	C	1.579526	-0.565021	-0.074094
H66	H	1.568558	-0.606334	-0.063136
H67	H	1.655343	-0.554862	-0.061251
H68	H	1.566726	-0.554867	-0.149930
C69	C	1.502849	-0.719841	0.002545
H70	H	1.548524	-0.747146	-0.043112
H71	H	1.550343	-0.695682	0.043685
H72	H	1.461721	-0.695692	-0.044987
C73	C	1.103948	-0.565071	0.401200
H74	H	1.058267	-0.537763	0.446844
H75	H	1.145066	-0.589223	0.448727
H76	H	1.056442	-0.589228	0.360056
C77	C	1.180693	-0.719887	0.324542
H78	H	1.135032	-0.747205	0.370199
H79	H	1.133186	-0.695733	0.283408
H80	H	1.221816	-0.695735	0.372073
C81	C	1.502854	-0.849870	0.002535
H82	H	1.491859	-0.891181	0.013509
H83	H	1.578681	-0.839723	0.015360
H84	H	1.490047	-0.839720	-0.073302
H85	H	1.202636	-0.841051	0.302632
H86	H	1.125838	-0.443903	0.379286
C87	C	1.180588	-0.280263	0.324541
H88	H	1.134888	-0.252961	0.370180
H89	H	1.221650	-0.304437	0.372079
H90	H	1.133106	-0.304398	0.283328
