data_functionalizedCrystal
_audit_creation_method	'MofGen! by Chris Wilmer'
_symmetry_space_group_name_H-M	'P1'
_symmetry_Int_Tables_number	1
_symmetry_cell_setting	triclinic
loop_
_symmetry_equiv_pos_as_xyz
  x,y,z
_cell_length_a	19.288835
_cell_length_b	17.766277
_cell_length_c	10.654550
_cell_angle_alpha	89.993836
_cell_angle_beta	83.804445
_cell_angle_gamma	89.982162
loop_
_atom_site_label
_atom_site_type_symbol
_atom_site_fract_x
_atom_site_fract_y
_atom_site_fract_z
O1	O	-0.922391	0.062742	-0.156477
O2	O	-0.720266	0.062711	-0.177649
O3	O	-0.825976	0.062722	0.015777
O4	O	-0.816681	0.062730	-0.349902
O5	O	-0.825957	-0.062466	0.015787
O6	O	-0.720247	-0.062478	-0.177639
O7	O	-0.922372	-0.062447	-0.156467
Cu8	Cu	-0.821308	-0.073893	-0.167052
Cu9	Cu	-0.821330	0.074157	-0.167064
O10	O	-0.816662	-0.062458	-0.349893
C11	C	-0.694375	0.000113	-0.176969
C12	C	-0.617257	0.000101	-0.174943
C13	C	-0.581058	0.068342	-0.173975
C14	C	-0.508598	0.068350	-0.172057
C15	C	-0.472343	0.000112	-0.171082
C16	C	-0.508551	-0.068139	-0.172057
C17	C	-0.581008	-0.068144	-0.173988
C18	C	-0.362505	-0.052161	-0.094465
C19	C	-0.290050	-0.052153	-0.092527
C20	C	-0.248860	0.000126	-0.165134
C21	C	-0.280135	0.052409	-0.239663
C22	C	-0.352592	0.052403	-0.241594
C23	C	-0.393775	0.000110	-0.168990
C24	C	-0.134091	0.068380	-0.162088
C25	C	-0.061629	0.068385	-0.160178
C26	C	-0.061584	-0.068105	-0.160166
C27	C	-0.134043	-0.068108	-0.162089
C28	C	-0.170293	0.000137	-0.163044
N29	N	-0.821297	-0.178023	-0.167043
C30	C	-0.868121	-0.217405	-0.081436
C31	C	-0.868125	-0.296207	-0.081430
C32	C	-0.821312	-0.335624	-0.167053
C33	C	-0.774480	-0.296232	-0.252667
C34	C	-0.774472	-0.217432	-0.252662
C35	C	-0.812762	-0.460460	-0.281476
C36	C	-0.812775	-0.539259	-0.281482
C37	C	-0.821331	-0.578670	-0.167068
C38	C	-0.829889	-0.539273	-0.052642
C39	C	-0.829882	-0.460472	-0.052637
C40	C	-0.821315	-0.421069	-0.167067
C41	C	-0.868161	-0.703498	-0.081448
C42	C	-0.868161	-0.782301	-0.081440
C43	C	-0.774518	-0.782325	-0.252688
C44	C	-0.774516	-0.703523	-0.252684
C45	C	-0.821341	-0.664115	-0.167066
C46	C	0.051738	0.000147	-0.157155
C47	C	-0.025379	0.000146	-0.159205
C48	C	-0.825284	0.000128	0.062565
C49	C	-0.823242	0.000129	0.201964
N50	N	-0.821346	0.178287	-0.167063
C51	C	-0.817354	0.000137	-0.396681
C52	C	-0.819396	0.000142	-0.536080
C53	C	-0.885482	0.000139	0.282794
C54	C	-0.883560	0.000148	0.413774
C55	C	-0.757151	0.000134	0.383080
C56	C	-0.759075	0.000131	0.252103
H57	H	-0.246599	0.094977	-0.298792
H58	H	-0.163518	-0.123678	-0.162869
Cl59	Cl	-0.179664	0.154171	-0.163301
H60	H	-0.032156	0.123957	-0.159398
Cl61	Cl	-0.966150	0.000139	0.219767
H62	H	-0.906256	-0.328277	-0.011716
H63	H	-0.934242	0.000157	0.479581
Cl64	Cl	-0.926982	-0.167863	0.026202
H65	H	-0.708388	0.000125	0.186287
Cl66	Cl	-0.715626	-0.345783	-0.360302
H67	H	-0.479027	-0.123698	-0.171267
H68	H	-0.610567	0.123912	-0.174753
Cl69	Cl	-0.626519	-0.153940	-0.175203
Cl70	Cl	-0.016012	-0.153891	-0.158953
H71	H	-0.704908	0.000134	0.423919
H72	H	-0.479118	0.123922	-0.171271
Cl73	Cl	-0.802020	-0.588779	-0.425330
H74	H	-0.264591	-0.094721	-0.031834
Cl75	Cl	-0.414280	-0.117891	-0.003179
Cl76	Cl	-0.840633	-0.410947	0.091205
Cl77	Cl	-0.391908	0.118124	-0.335289
H78	H	-0.836856	-0.571360	0.040525
Cl79	Cl	-0.927023	-0.653954	0.026193
Cl80	Cl	-0.927025	-0.831813	0.026196
Cl81	Cl	-0.715662	-0.831872	-0.360319
H82	H	-0.736390	-0.671457	-0.322399
Cl83	Cl	-0.802070	-0.410923	-0.425329
H84	H	-0.736342	-0.185367	-0.322374
