data_functionalizedCrystal
_audit_creation_method	'MofGen! by Chris Wilmer'
_symmetry_space_group_name_H-M	'P1'
_symmetry_Int_Tables_number	1
_symmetry_cell_setting	triclinic
loop_
_symmetry_equiv_pos_as_xyz
  x,y,z
_cell_length_a	17.640112
_cell_length_b	16.625546
_cell_length_c	17.640968
_cell_angle_alpha	78.766516
_cell_angle_beta	92.139080
_cell_angle_gamma	101.247770
loop_
_atom_site_label
_atom_site_type_symbol
_atom_site_fract_x
_atom_site_fract_y
_atom_site_fract_z
Zn1	Zn	1.247778	-0.023167	-0.195079
Zn2	Zn	1.747778	0.476833	0.304921
Zn3	Zn	1.222008	-0.189521	-0.068091
Zn4	Zn	1.722008	0.310479	0.431909
Zn5	Zn	1.095110	-0.075617	-0.093723
Zn6	Zn	1.595110	0.424383	0.406277
Zn7	Zn	1.120749	-0.178908	-0.220673
Zn8	Zn	1.620749	0.321092	0.279327
O9	O	1.171411	-0.116803	-0.144392
O10	O	1.671411	0.383197	0.355608
O11	O	1.350629	-0.027726	-0.156795
O12	O	1.850629	0.472274	0.343205
O13	O	1.183660	-0.200804	0.034783
O14	O	1.683660	0.299196	0.534783
O15	O	1.115417	0.044187	-0.107184
O16	O	1.615417	0.544187	0.392816
O17	O	1.331696	-0.149946	-0.063498
O18	O	1.831696	0.350054	0.436502
O19	O	1.227581	0.082722	-0.181650
O20	O	1.727581	0.582722	0.318350
O21	O	1.090428	-0.117119	0.015951
O22	O	1.590428	0.382881	0.515951
O23	O	0.992242	-0.106828	-0.132002
O24	O	1.492242	0.393172	0.367998
O25	O	1.159114	-0.131856	-0.323552
O26	O	1.659114	0.368144	0.176448
O27	O	1.011078	-0.182715	-0.225272
O28	O	1.511078	0.317285	0.274728
O29	O	1.252442	-0.017434	-0.304748
O30	O	1.752442	0.482566	0.195252
O31	O	1.208521	-0.300961	-0.088315
O32	O	1.708521	0.199039	0.411685
O33	O	1.134126	-0.293163	-0.200417
O34	O	1.634126	0.206837	0.299583
C35	C	0.974106	-0.149311	-0.184196
C36	C	1.474106	0.350689	0.315804
C37	C	0.889701	-0.163234	-0.201243
C38	C	1.389701	0.336766	0.298757
C39	C	0.563039	-0.011024	-0.014898
C40	C	1.063039	0.488976	0.485102
C41	C	0.483730	-0.024119	-0.030926
C42	C	0.983730	0.475881	0.469074
C43	C	0.503365	-0.103324	-0.127880
C44	C	1.003365	0.396676	0.372120
C45	C	0.582678	-0.090232	-0.111863
C46	C	1.082678	0.409768	0.388137
C47	C	0.612508	-0.044082	-0.055370
C48	C	1.112508	0.455918	0.444630
C49	C	0.632147	-0.123289	-0.152335
C50	C	1.132147	0.376711	0.347665
C51	C	0.711452	-0.110201	-0.136316
C52	C	1.211452	0.389799	0.363684
C53	C	0.741288	-0.064056	-0.079824
C54	C	1.241288	0.435944	0.420176
C55	C	0.691813	-0.030994	-0.039351
C56	C	1.191813	0.469006	0.460649
C57	C	0.602314	-0.169444	-0.208823
C58	C	1.102314	0.330556	0.291177
C59	C	0.651783	-0.202502	-0.249296
C60	C	1.151783	0.297498	0.250704
C61	C	0.731091	-0.189409	-0.233281
C62	C	1.231091	0.310591	0.266719
C63	C	0.760927	-0.143264	-0.176789
C64	C	1.260927	0.356736	0.323211
C65	C	0.780566	-0.222471	-0.273754
C66	C	1.280566	0.277529	0.226246
C67	C	0.859871	-0.209383	-0.257735
C68	C	1.359871	0.290617	0.242265
C69	C	0.840232	-0.130176	-0.160770
C70	C	1.340232	0.369824	0.339230
C71	C	1.171333	-0.326314	-0.144374
C72	C	1.671333	0.173686	0.355626
C73	C	1.171374	-0.415926	-0.144378
C74	C	1.671374	0.084074	0.355622
C75	C	1.171522	-0.744060	-0.144431
C76	C	1.671522	-0.244060	0.355569
C77	C	1.171479	-0.652763	-0.144419
C78	C	1.671479	-0.152763	0.355581
C79	C	1.171448	-0.579996	-0.144404
C80	C	1.671448	-0.079996	0.355596
C81	C	1.171406	-0.488693	-0.144393
C82	C	1.671406	0.011307	0.355607
C83	C	1.369487	-0.084169	-0.104432
C84	C	1.869487	0.415831	0.395568
C85	C	1.453895	-0.070262	-0.087404
C86	C	1.953895	0.429738	0.412596
C87	C	1.211513	-0.067611	-0.342476
C88	C	1.711513	0.432389	0.157524
C89	C	1.228602	-0.046647	-0.426888
C90	C	1.728602	0.453353	0.073112
C91	C	1.171514	0.093533	-0.144422
C92	C	1.671514	0.593533	0.355578
C93	C	1.171558	0.183166	-0.144434
C94	C	1.671558	0.683166	0.355566
C95	C	1.041880	-0.275571	-0.753453
C96	C	1.541880	0.224429	-0.253453
C97	C	1.057954	-0.255860	-0.832768
C98	C	1.557954	0.244140	-0.332768
C99	C	1.155128	-0.136723	-0.813179
C100	C	1.655128	0.363277	-0.313179
C101	C	1.139059	-0.156422	-0.733861
C102	C	1.639059	0.343578	-0.233861
C103	C	1.082435	-0.225847	-0.704005
C104	C	1.582435	0.274153	-0.204005
C105	C	1.179615	-0.106698	-0.684413
C106	C	1.679615	0.393302	-0.184413
C107	C	1.163551	-0.126397	-0.605102
C108	C	1.663551	0.373603	-0.105102
C109	C	1.106931	-0.195821	-0.575239
C110	C	1.606931	0.304179	-0.075239
C111	C	1.066371	-0.245547	-0.624694
C112	C	1.566371	0.254453	-0.124694
C113	C	1.236243	-0.037276	-0.714270
C114	C	1.736243	0.462724	-0.214270
C115	C	1.276798	0.012448	-0.664822
C116	C	1.776798	0.512448	-0.164822
C117	C	1.260730	-0.007248	-0.585510
C118	C	1.760730	0.492752	-0.085510
C119	C	1.204111	-0.076672	-0.555647
C120	C	1.704111	0.423328	-0.055647
C121	C	1.301290	0.042478	-0.536055
C122	C	1.801290	0.542478	-0.036055
C123	C	1.285226	0.022778	-0.456744
C124	C	1.785226	0.522778	0.043256
C125	C	1.188046	-0.096371	-0.476336
C126	C	1.688046	0.403629	0.023664
C127	C	1.131509	-0.165740	0.052931
C128	C	1.631509	0.334260	0.552931
C129	C	1.114568	-0.186451	0.137372
C130	C	1.614568	0.313549	0.637372
H131	H	0.716104	0.006601	0.006640
H132	H	1.216104	0.506601	0.506640
H133	H	0.479066	-0.140902	-0.173874
H134	H	0.979066	0.359098	0.326126
H135	H	1.024924	-0.296357	-0.873027
H136	H	1.524924	0.203643	-0.373027
C137	C	1.004113	-0.321939	-0.591842
C138	C	1.504113	0.178061	-0.091842
H139	H	0.982268	-0.348744	-0.632647
H140	H	1.482268	0.151256	-0.132647
H141	H	0.964764	-0.304262	-0.567568
H142	H	1.464764	0.195738	-0.067568
H143	H	1.026917	-0.359956	-0.555046
H144	H	1.526917	0.140044	-0.055046
H145	H	0.537739	-0.180099	-0.221864
H146	H	1.037739	0.319901	0.278136
H147	H	1.141919	-0.152888	-0.452030
H148	H	1.641919	0.347112	0.047970
H149	H	0.627484	-0.240080	-0.295290
H150	H	1.127484	0.259920	0.204710
H151	H	1.093855	-0.211862	-0.510658
H152	H	1.593855	0.288138	-0.010658
H153	H	0.756265	-0.260053	-0.319745
H154	H	1.256265	0.239947	0.180255
H155	H	0.443455	0.002811	0.002031
H156	H	0.943455	0.502811	0.502031
C157	C	1.253916	-0.015602	-0.801510
C158	C	1.753916	0.484398	-0.301510
H159	H	1.293454	0.032859	-0.812208
H160	H	1.793454	0.532859	-0.312208
H161	H	1.208554	-0.005270	-0.829346
H162	H	1.708554	0.494730	-0.329346
H163	H	1.270659	-0.061025	-0.816794
H164	H	1.770659	0.438975	-0.316794
H165	H	1.322904	0.068973	-0.689141
H166	H	1.822904	0.568973	-0.189141
C167	C	0.979622	-0.351963	-0.720601
C168	C	1.479622	0.148037	-0.220601
H169	H	0.957777	-0.378768	-0.761406
H170	H	1.457777	0.121232	-0.261406
H171	H	0.940272	-0.334286	-0.696327
H172	H	1.440272	0.165714	-0.196327
H173	H	1.002426	-0.389981	-0.683805
H174	H	1.502426	0.110019	-0.183805
H175	H	0.900151	-0.236301	-0.290693
H176	H	1.400151	0.263699	0.209307
H177	H	1.318249	0.063269	-0.416482
H178	H	1.818249	0.563269	0.083518
C179	C	0.595859	0.039754	0.047233
C180	C	1.095859	0.539754	0.547233
H181	H	0.555040	0.057571	0.069045
H182	H	1.055040	0.557571	0.569045
H183	H	0.632702	0.087169	0.024366
H184	H	1.132702	0.587169	0.524366
H185	H	0.620075	0.005837	0.086627
H186	H	1.120075	0.505837	0.586627
H187	H	1.347399	0.098999	-0.560375
H188	H	1.847399	0.598999	-0.060375
C189	C	0.873055	-0.079406	-0.098634
C190	C	1.373055	0.420594	0.401366
H191	H	0.927372	-0.076344	-0.094896
H192	H	1.427372	0.423656	0.405104
H193	H	0.849712	-0.105940	-0.050214
H194	H	1.349712	0.394060	0.449786
H195	H	0.862342	-0.024604	-0.112471
H196	H	1.362342	0.475396	0.387529
H197	H	0.805864	-0.053403	-0.066781
H198	H	1.305864	0.446597	0.433219
H199	H	1.201233	-0.080199	-0.837498
H200	H	1.701233	0.419801	-0.337498
