data_functionalizedCrystal
_audit_creation_method	'MofGen! by Chris Wilmer'
_symmetry_space_group_name_H-M	'P1'
_symmetry_Int_Tables_number	1
_symmetry_cell_setting	triclinic
loop_
_symmetry_equiv_pos_as_xyz
  x,y,z
_cell_length_a	14.044220
_cell_length_b	10.654550
_cell_length_c	9.730223
_cell_angle_alpha	90.000193
_cell_angle_beta	89.999999
_cell_angle_gamma	91.163110
loop_
_atom_site_label
_atom_site_type_symbol
_atom_site_fract_x
_atom_site_fract_y
_atom_site_fract_z
O1	O	1.259693	-0.302980	-0.114280
O2	O	0.983652	-0.292047	-0.114284
O3	O	1.128019	-0.115412	-0.114277
O4	O	1.115326	-0.479615	-0.114287
O5	O	1.128017	-0.115417	0.114303
O6	O	0.983650	-0.292052	0.114296
O7	O	1.259691	-0.302985	0.114300
Zn8	Zn	1.121671	-0.297519	0.150590
Zn9	Zn	1.121673	-0.297513	-0.150574
O10	O	1.115324	-0.479620	0.114293
C11	C	0.948305	-0.287263	0.000006
C12	C	0.842986	-0.272988	0.000004
C13	C	1.295038	-0.307769	0.000007
C14	C	1.400358	-0.322044	-0.000000
C15	C	1.593191	-0.348143	0.000000
C16	C	1.650158	-0.246895	0.000004
C17	C	1.757457	-0.261416	0.000004
C18	C	1.485882	-0.333623	-0.000000
C19	C	1.127086	-0.068523	0.000011
C20	C	1.124298	0.071201	0.000007
C21	C	1.116257	-0.526509	0.000001
C22	C	1.119045	-0.666233	-0.000003
N23	N	1.121676	-0.297523	0.356126
C24	C	1.209299	0.142144	0.000012
C25	C	1.206673	0.273429	0.000002
C26	C	1.034038	0.262814	-0.000012
C27	C	1.036664	0.131532	-0.000012
C28	C	1.296932	0.081813	0.000031
C29	C	1.381941	0.152758	0.000038
C30	C	1.379315	0.284043	0.000028
C31	C	1.291681	0.344383	0.000012
N32	N	1.121675	-0.297500	-0.356110
C33	C	1.185618	-0.219340	0.428055
C34	C	1.185616	-0.219324	0.571938
C35	C	1.057725	-0.375686	0.571950
C36	C	1.057724	-0.375694	0.428070
C37	C	1.249570	-0.141169	0.356112
C38	C	1.313518	-0.062980	0.428041
C39	C	1.313516	-0.062965	0.571924
C40	C	1.249565	-0.141138	0.643878
H41	H	1.618346	-0.149307	-0.000093
F42	F	1.469786	0.359543	0.000021
H43	H	1.289550	0.451284	-0.000011
F44	F	0.940778	0.327037	-0.000028
H45	H	1.453289	0.103620	0.000017
F46	F	0.946197	0.056024	-0.000018
F47	F	1.249560	-0.141104	0.797012
F48	F	1.634769	-0.475689	-0.000012
H49	H	1.299080	-0.025085	0.000043
H50	H	1.249580	-0.141177	0.238955
F51	F	1.381568	0.020223	0.351462
H52	H	1.365579	0.000708	0.630487
H53	H	1.005660	-0.439333	0.630544
F54	F	0.989666	-0.458904	0.351517
