data_functionalizedCrystal
_audit_creation_method	'MofGen! by Chris Wilmer'
_symmetry_space_group_name_H-M	'P1'
_symmetry_Int_Tables_number	1
_symmetry_cell_setting	triclinic
loop_
_symmetry_equiv_pos_as_xyz
  x,y,z
_cell_length_a	10.686220
_cell_length_b	12.759400
_cell_length_c	10.686551
_cell_angle_alpha	85.594162
_cell_angle_beta	90.308082
_cell_angle_gamma	94.396325
loop_
_atom_site_label
_atom_site_type_symbol
_atom_site_fract_x
_atom_site_fract_y
_atom_site_fract_z
Zn1	Zn	1.972289	-0.256138	-0.562385
Zn2	Zn	1.956061	-0.446298	-0.352626
Zn3	Zn	1.746408	-0.283014	-0.368703
Zn4	Zn	1.762491	-0.444169	-0.578404
O5	O	1.859312	-0.357405	-0.465529
O6	O	2.145678	-0.271007	-0.521128
O7	O	1.914727	-0.436777	-0.179213
O8	O	1.776432	-0.132422	-0.394419
O9	O	2.133755	-0.410716	-0.367019
O10	O	1.942386	-0.112677	-0.536717
O11	O	1.760696	-0.316813	-0.191024
O12	O	1.572999	-0.314748	-0.409952
O13	O	1.803844	-0.407088	-0.751824
O14	O	1.584816	-0.433148	-0.564018
O15	O	1.957981	-0.268942	-0.740056
O16	O	1.930323	-0.593042	-0.382552
O17	O	1.788108	-0.591478	-0.548429
C18	C	1.533391	-0.376634	-0.490468
C19	C	1.393964	-0.384884	-0.501167
C20	C	1.859236	-0.630378	-0.465509
C21	C	1.859321	-0.747148	-0.465533
C22	C	1.933468	-0.802778	-0.379243
C23	C	1.933548	-0.912495	-0.379275
C24	C	1.785323	-0.910942	-0.551894
C25	C	1.785251	-0.801226	-0.551866
C26	C	2.007538	-0.748700	-0.292910
C27	C	2.081690	-0.804330	-0.206611
C28	C	2.081770	-0.914047	-0.206644
C29	C	2.007698	-0.968133	-0.292976
C30	C	2.186505	-0.338101	-0.440494
C31	C	2.325936	-0.329875	-0.429825
C32	C	1.884517	-0.334779	-0.792730
C33	C	1.895257	-0.325138	-0.932163
C34	C	1.859425	-0.083361	-0.465575
C35	C	1.859473	0.033420	-0.465594
C36	C	1.834278	-0.379862	-0.139596
C37	C	1.823780	-0.389193	-0.000145
H38	H	1.345532	-0.438301	-0.570429
C39	C	1.730003	-0.473248	-0.934678
C40	C	1.624675	-0.439689	-0.852111
C41	C	1.530896	-0.523745	-0.786635
C42	C	1.542446	-0.641358	-0.803726
C43	C	1.647778	-0.674923	-0.886297
C44	C	1.741557	-0.590867	-0.951773
H45	H	1.616122	-0.352619	-0.839456
H46	H	1.452923	-0.498897	-0.725511
H47	H	1.473025	-0.703581	-0.755256
H48	H	1.656331	-0.761993	-0.898952
H49	H	1.819530	-0.615714	-1.012897
C50	C	1.989039	-0.241079	-0.997635
C51	C	1.977490	-0.123466	-0.980541
C52	C	2.071270	-0.039409	-1.046013
C53	C	2.176599	-0.072966	-1.128579
C54	C	2.188154	-0.190585	-1.145677
C55	C	2.094374	-0.274642	-1.080205
H56	H	1.899514	-0.098620	-0.919418
H57	H	2.062716	0.047660	-1.033356
H58	H	2.246021	-0.010742	-1.177045
H59	H	2.266129	-0.215431	-1.206800
H60	H	2.102928	-0.361711	-1.092862
H61	H	2.007477	-0.659363	-0.292870
C62	C	1.391345	-0.257718	-0.336253
C63	C	1.374272	-0.138617	-0.348089
C64	C	1.439690	-0.066459	-0.254516
C65	C	1.522182	-0.113402	-0.149106
C66	C	1.539260	-0.232509	-0.137266
C67	C	1.473841	-0.304668	-0.230839
H68	H	1.313202	-0.103861	-0.426124
H69	H	1.427048	0.021713	-0.263282
H70	H	1.570609	-0.059986	-0.079838
H71	H	1.600329	-0.267265	-0.059231
H72	H	1.486484	-0.392839	-0.222073
C73	C	2.163172	-0.744840	-0.111656
C74	C	2.163089	-0.624159	-0.111613
C75	C	2.244575	-0.564671	-0.016657
C76	C	2.326144	-0.625865	0.078256
C77	C	2.326230	-0.746554	0.078216
C78	C	2.244744	-0.806042	-0.016740
H79	H	2.102704	-0.578853	-0.181876
H80	H	2.244511	-0.475329	-0.016628
H81	H	2.386465	-0.581829	0.148548
H82	H	2.386615	-0.791860	0.148479
H83	H	2.244808	-0.895384	-0.016769
C84	C	1.703841	-0.970435	-0.646846
C85	C	1.703915	-1.091118	-0.646875
C86	C	1.622428	-1.150610	-0.741827
C87	C	1.540866	-1.089418	-0.836749
C88	C	1.540789	-0.968728	-0.836724
C89	C	1.622276	-0.909236	-0.741772
H90	H	1.764294	-1.136422	-0.576605
H91	H	1.622485	-1.239953	-0.741845
H92	H	1.480544	-1.133457	-0.907038
H93	H	1.480409	-0.923424	-0.906994
H94	H	1.622219	-0.819893	-0.741754
H95	H	2.142158	-0.959338	-0.136384
H96	H	2.007780	-1.057471	-0.293004
H97	H	1.724875	-0.755932	-0.622133
