data_functionalizedCrystal
_audit_creation_method	'MofGen! by Chris Wilmer'
_symmetry_space_group_name_H-M	'P1'
_symmetry_Int_Tables_number	1
_symmetry_cell_setting	triclinic
loop_
_symmetry_equiv_pos_as_xyz
  x,y,z
_cell_length_a	10.489741
_cell_length_b	10.489741
_cell_length_c	8.965430
_cell_angle_alpha	90.000707
_cell_angle_beta	89.998843
_cell_angle_gamma	84.539174
loop_
_atom_site_label
_atom_site_type_symbol
_atom_site_fract_x
_atom_site_fract_y
_atom_site_fract_z
O1	O	1.694053	0.179958	-0.123946
O2	O	1.322858	0.196851	-0.123969
O3	O	1.516902	0.002807	-0.123948
O4	O	1.500009	0.374003	-0.123967
O5	O	1.516886	0.002820	0.124130
O6	O	1.322841	0.196864	0.124110
O7	O	1.694037	0.179971	0.124133
Cu8	Cu	1.508438	0.188419	0.146773
Cu9	Cu	1.508457	0.188404	-0.146609
O10	O	1.499993	0.374016	0.124112
C11	C	1.275318	0.195582	0.000067
C12	C	1.133688	0.191765	0.000059
C13	C	1.065548	0.068300	0.000079
C14	C	0.973430	0.126617	-0.122237
C15	C	0.973447	0.126659	0.122349
C16	C	1.043435	0.250133	-0.122358
C17	C	1.043462	0.250158	0.122338
C18	C	0.951371	0.308564	-0.000007
C19	C	1.515618	-0.044718	0.000090
C20	C	1.511801	-0.186348	0.000087
C21	C	1.388336	-0.254488	0.000069
C22	C	1.446652	-0.346604	0.122388
C23	C	1.446697	-0.346591	-0.122198
C24	C	1.570167	-0.276599	0.122508
C25	C	1.570195	-0.276576	-0.122189
C26	C	1.628600	-0.368665	0.000161
C27	C	1.741577	0.181241	0.000093
C28	C	1.883206	0.185058	0.000092
C29	C	1.501277	0.421541	0.000070
C30	C	1.505094	0.563170	0.000063
N31	N	1.508433	0.188429	0.353122
N32	N	1.508471	0.188384	-0.352958
C33	C	1.418666	0.278138	0.450418
C34	C	1.534163	0.303949	0.549838
C35	C	1.392986	0.162629	0.549830
C36	C	1.623988	0.214298	0.450352
C37	C	1.482735	0.072927	0.450336
C38	C	1.598314	0.098690	0.549711
H39	H	1.074270	0.302327	-0.225883
O40	O	0.892455	0.429794	-0.000350
C41	C	0.861385	0.631783	-0.129577
C42	C	0.928167	0.494519	-0.129385
H43	H	0.890255	0.684162	-0.233876
H44	H	0.753123	0.628068	-0.128678
H45	H	0.891409	0.684766	-0.026245
H46	H	0.898248	0.441456	-0.232700
H47	H	1.036417	0.498326	-0.130207
O48	O	0.936510	0.064089	-0.245486
C49	C	0.953338	-0.133202	-0.384889
C50	C	0.995222	-0.062542	-0.245239
H51	H	1.000809	-0.235587	-0.384751
H52	H	0.844821	-0.134793	-0.384258
H53	H	0.983447	-0.081492	-0.489110
H54	H	0.965201	-0.114196	-0.140945
H55	H	1.103736	-0.060939	-0.246002
H56	H	1.622355	-0.245761	0.226035
O57	O	1.080472	0.312248	0.245853
C58	C	1.087105	0.317417	0.514430
C59	C	1.045143	0.246973	0.374660
H60	H	1.058534	0.264687	0.618606
H61	H	1.195440	0.320500	0.512740
H62	H	1.038323	0.419283	0.515410
H63	H	1.093833	0.145077	0.373589
H64	H	0.936797	0.243994	0.376404
H65	H	0.942463	0.074402	0.225758
H66	H	1.286824	-0.204837	0.000185
H67	H	1.555925	0.401606	0.593543
H68	H	1.394404	-0.377610	0.225794
H69	H	1.730204	-0.418089	0.000235
H70	H	1.622398	-0.245537	-0.225600
H71	H	1.115238	-0.033196	-0.000069
H72	H	1.394447	-0.377561	-0.225620
H73	H	1.342824	0.354072	0.406821
H74	H	1.295338	0.140828	0.593530
H75	H	1.721659	0.236216	0.406840
H76	H	1.674327	0.022803	0.593034
H77	H	1.460937	-0.024699	0.406596
