data_functionalizedCrystal
_audit_creation_method	'MofGen! by Chris Wilmer'
_symmetry_space_group_name_H-M	'P1'
_symmetry_Int_Tables_number	1
_symmetry_cell_setting	triclinic
loop_
_symmetry_equiv_pos_as_xyz
  x,y,z
_cell_length_a	11.792241
_cell_length_b	10.540539
_cell_length_c	10.268362
_cell_angle_alpha	89.996859
_cell_angle_beta	89.999626
_cell_angle_gamma	84.359454
loop_
_atom_site_label
_atom_site_type_symbol
_atom_site_fract_x
_atom_site_fract_y
_atom_site_fract_z
O1	O	1.507362	0.173992	-0.108167
O2	O	1.177067	0.191924	-0.108197
O3	O	1.349750	-0.001773	-0.108180
O4	O	1.334679	0.367689	-0.108184
O5	O	1.349735	-0.001781	0.108421
O6	O	1.177052	0.191916	0.108404
O7	O	1.507347	0.173984	0.108433
Cu8	Cu	1.342198	0.182949	0.128196
Cu9	Cu	1.342216	0.182959	-0.127959
O10	O	1.334664	0.367681	0.108416
C11	C	1.134766	0.190793	0.000100
C12	C	1.008743	0.187422	0.000088
C13	C	0.778015	0.181223	0.000126
C14	C	0.906409	0.184667	0.000105
C15	C	1.348612	-0.049076	0.000118
C16	C	1.345231	-0.190014	0.000111
C17	C	1.215660	-0.373018	-0.000387
C18	C	1.219087	-0.226411	0.000101
C19	C	1.405928	-0.251874	0.123806
C20	C	1.401623	-0.398404	0.123910
C21	C	1.404206	-0.398921	-0.122405
C22	C	1.405368	-0.251943	-0.124041
C23	C	1.549648	0.175114	0.000134
C24	C	1.675671	0.178486	0.000137
C25	C	1.335802	0.414984	0.000116
C26	C	1.339183	0.555921	0.000114
N27	N	1.342194	0.182942	0.308362
N28	N	1.342229	0.182956	-0.308125
C29	C	1.342210	0.182956	0.574032
C30	C	1.342197	0.182952	0.426195
H31	H	1.165836	-0.401453	-0.089091
H32	H	1.363386	-0.430338	-0.216158
H33	H	1.492343	-0.446668	0.129529
C34	C	1.531072	-0.222096	0.130042
H35	H	1.566156	-0.260404	0.205555
H36	H	1.533974	-0.132424	0.133748
H37	H	1.570299	-0.255117	0.054670
C38	C	1.348945	-0.194167	0.248150
H39	H	1.288174	-0.132392	0.224947
H40	H	1.403462	-0.154774	0.298203
H41	H	1.320017	-0.259746	0.298000
H42	H	1.360956	-0.210937	-0.215547
H43	H	1.497336	-0.228021	-0.131502
H44	H	1.356752	-0.426461	0.216366
H45	H	1.495319	-0.446444	-0.123229
H46	H	1.166026	-0.403067	0.087812
C47	C	1.154553	-0.168634	-0.119669
H48	H	1.125996	-0.234758	-0.169060
H49	H	1.204917	-0.125397	-0.172001
H50	H	1.092905	-0.110119	-0.091829
C51	C	1.154116	-0.169788	0.120083
H52	H	1.125531	-0.236402	0.168723
H53	H	1.092482	-0.111131	0.092503
H54	H	1.204268	-0.126917	0.173065
