data_functionalizedCrystal
_audit_creation_method	'MofGen! by Chris Wilmer'
_symmetry_space_group_name_H-M	'P1'
_symmetry_Int_Tables_number	1
_symmetry_cell_setting	triclinic
loop_
_symmetry_equiv_pos_as_xyz
  x,y,z
_cell_length_a	14.044209
_cell_length_b	12.503572
_cell_length_c	14.044209
_cell_angle_alpha	86.158573
_cell_angle_beta	93.187953
_cell_angle_gamma	93.834595
loop_
_atom_site_label
_atom_site_type_symbol
_atom_site_fract_x
_atom_site_fract_y
_atom_site_fract_z
O1	O	-1.282198	-0.089202	-0.225106
O2	O	-1.032198	0.160798	0.024894
O3	O	-0.782198	0.410798	0.274894
O4	O	-0.532198	0.660798	0.524894
O5	O	-1.005528	-0.089232	-0.216801
O6	O	-0.755528	0.160768	0.033199
O7	O	-0.505528	0.410768	0.283199
O8	O	-0.255528	0.660768	0.533199
O9	O	-1.139711	-0.089202	-0.082619
O10	O	-0.889711	0.160798	0.167381
O11	O	-0.639711	0.410798	0.417381
O12	O	-0.389711	0.660798	0.667381
O13	O	-1.148016	-0.089232	-0.359289
O14	O	-0.898016	0.160768	-0.109289
O15	O	-0.648016	0.410768	0.140711
O16	O	-0.398016	0.660768	0.390711
O17	O	-1.129621	0.089438	-0.092728
O18	O	-0.879621	0.339438	0.157272
O19	O	-0.629621	0.589438	0.407272
O20	O	-0.379621	0.839438	0.657272
O21	O	-0.995439	0.089408	-0.226911
O22	O	-0.745439	0.339408	0.023089
O23	O	-0.495439	0.589408	0.273089
O24	O	-0.245439	0.839408	0.523089
O25	O	-1.272109	0.089438	-0.235216
O26	O	-1.022109	0.339438	0.014784
O27	O	-0.772109	0.589438	0.264784
O28	O	-0.522109	0.839438	0.514784
Cu29	Cu	-1.132852	0.105734	-0.231986
Cu30	Cu	-0.882852	0.355734	0.018014
Cu31	Cu	-0.632852	0.605734	0.268014
Cu32	Cu	-0.382852	0.855734	0.518014
Cu33	Cu	-1.144785	-0.105528	-0.220031
Cu34	Cu	-0.894785	0.144472	0.029969
Cu35	Cu	-0.644785	0.394472	0.279969
Cu36	Cu	-0.394785	0.644472	0.529969
O37	O	-1.137926	0.089408	-0.369398
O38	O	-0.887926	0.339408	-0.119398
O39	O	-0.637926	0.589408	0.130602
O40	O	-0.387926	0.839408	0.380602
C41	C	-0.964862	0.000084	-0.218220
C42	C	-0.714862	0.250084	0.031780
C43	C	-0.464862	0.500084	0.281780
C44	C	-0.214862	0.750084	0.531780
C45	C	-0.858720	0.000073	-0.207376
C46	C	-0.608720	0.250073	0.042624
C47	C	-0.358720	0.500073	0.292624
C48	C	-0.108720	0.750073	0.542624
N49	N	-1.124467	0.254324	-0.240395
N50	N	-0.874467	0.504324	0.009605
N51	N	-0.624467	0.754324	0.259605
N52	N	-0.374467	1.004324	0.509605
C53	C	-0.664381	0.000094	-0.187553
C54	C	-0.414381	0.250094	0.062447
C55	C	-0.164381	0.500094	0.312447
C56	C	0.085619	0.750094	0.562447
C57	C	-0.613251	0.000090	-0.264467
C58	C	-0.363251	0.250090	-0.014467
C59	C	-0.113251	0.500090	0.235533
C60	C	0.136749	0.750090	0.485533
C61	C	-0.505114	0.000102	-0.253437
C62	C	-0.255114	0.250102	-0.003437
C63	C	-0.005114	0.500102	0.246563
C64	C	0.244886	0.750102	0.496563
C65	C	-0.772528	0.000083	-0.198581
C66	C	-0.522528	0.250083	0.051419
C67	C	-0.272528	0.500083	0.301419
C68	C	-0.022528	0.750083	0.551419
C69	C	-1.131031	0.000119	-0.052052
C70	C	-0.881031	0.250119	0.197948
C71	C	-0.631031	0.500119	0.447948
C72	C	-0.381031	0.750119	0.697948
C73	C	-1.120187	0.000123	0.054091
C74	C	-0.870187	0.250123	0.304091
C75	C	-0.620187	0.500123	0.554091
C76	C	-0.370187	0.750123	0.804091
C77	C	-0.312775	0.000116	-0.233798
C78	C	-0.062775	0.250116	0.016202
C79	C	0.187225	0.500116	0.266202
C80	C	0.437225	0.750116	0.516202
C81	C	-0.418918	0.000111	-0.244648
C82	C	-0.168918	0.250111	0.005352
C83	C	0.081082	0.500111	0.255352
C84	C	0.331082	0.750111	0.505352
N85	N	-1.153177	-0.254119	-0.211615
N86	N	-0.903177	-0.004119	0.038385
N87	N	-0.653177	0.245881	0.288385
N88	N	-0.403177	0.495881	0.538385
C89	C	-1.112132	0.473437	-0.252774
C90	C	-0.862132	0.723437	-0.002774
C91	C	-0.612132	0.973437	0.247226
C92	C	-0.362132	1.223437	0.497226
C93	C	-1.165509	0.526776	-0.199240
C94	C	-0.915509	0.776776	0.050760
C95	C	-0.665509	1.026776	0.300760
C96	C	-0.415509	1.276776	0.550760
C97	C	-1.158646	0.648698	-0.206127
C98	C	-0.908646	0.898698	0.043873
C99	C	-0.658646	1.148698	0.293873
C100	C	-0.408646	1.398698	0.543873
C101	C	-1.118994	0.351504	-0.245887
C102	C	-0.868994	0.601504	0.004113
C103	C	-0.618994	0.851504	0.254113
C104	C	-0.368994	1.101504	0.504113
C105	C	-1.100363	0.000112	0.248429
C106	C	-0.850363	0.250112	0.498429
C107	C	-0.600363	0.500112	0.748429
C108	C	-0.350363	0.750112	0.998429
C109	C	-1.177277	0.000119	0.299559
C110	C	-0.927277	0.250119	0.549559
C111	C	-0.677277	0.500119	0.799559
C112	C	-0.427277	0.750119	1.049559
C113	C	-1.166247	0.000112	0.407695
C114	C	-0.916247	0.250112	0.657695
C115	C	-0.666247	0.500112	0.907695
C116	C	-0.416247	0.750112	1.157695
C117	C	-1.111391	0.000118	0.140282
C118	C	-0.861391	0.250118	0.390282
C119	C	-0.611391	0.500118	0.640282
C120	C	-0.361391	0.750118	0.890282
C121	C	-1.146608	0.000093	0.600035
C122	C	-0.896608	0.250093	0.850035
C123	C	-0.646608	0.500093	1.100035
C124	C	-0.396608	0.750093	1.350035
C125	C	-1.157457	0.000107	0.493891
C126	C	-0.907457	0.250107	0.743891
C127	C	-0.657457	0.500107	0.993891
C128	C	-0.407457	0.750107	1.243891
H129	H	-0.650690	0.000077	-0.338600
H130	H	-0.400690	0.250077	-0.088600
H131	H	-0.150690	0.500077	0.161400
H132	H	0.099310	0.750077	0.411400
H133	H	-0.626944	0.000108	-0.113426
H134	H	-0.376944	0.250108	0.136574
H135	H	-0.126944	0.500108	0.386574
H136	H	0.123056	0.750108	0.636574
H137	H	-1.216363	0.480874	-0.148236
H138	H	-0.966363	0.730874	0.101764
H139	H	-0.716363	0.980874	0.351764
H140	H	-0.466363	1.230874	0.601764
Cl141	Cl	-0.985914	0.000096	0.306229
Cl142	Cl	-0.735914	0.250096	0.556229
Cl143	Cl	-0.485914	0.500096	0.806229
Cl144	Cl	-0.235914	0.750096	1.056229
Cl145	Cl	-1.033626	0.544299	-0.331520
Cl146	Cl	-0.783626	0.794299	-0.081520
Cl147	Cl	-0.533626	1.044299	0.168480
Cl148	Cl	-0.283626	1.294299	0.418480
H149	H	-1.251414	0.000053	0.262124
H150	H	-1.001414	0.250053	0.512124
H151	H	-0.751414	0.500053	0.762124
H152	H	-0.501414	0.750053	1.012124
