data_functionalizedCrystal
_audit_creation_method	'MofGen! by Chris Wilmer'
_symmetry_space_group_name_H-M	'P1'
_symmetry_Int_Tables_number	1
_symmetry_cell_setting	triclinic
loop_
_symmetry_equiv_pos_as_xyz
  x,y,z
_cell_length_a	15.944551
_cell_length_b	15.944499
_cell_length_c	14.421503
_cell_angle_alpha	89.989779
_cell_angle_beta	89.990818
_cell_angle_gamma	96.511826
loop_
_atom_site_label
_atom_site_type_symbol
_atom_site_fract_x
_atom_site_fract_y
_atom_site_fract_z
O1	O	-0.108114	1.114556	-0.077157
O2	O	-0.121515	0.870001	-0.077145
O3	O	0.007462	0.998957	-0.077157
O4	O	-0.237090	0.985600	-0.077146
O5	O	0.007442	0.998935	0.077066
O6	O	-0.121534	0.869979	0.077078
O7	O	-0.108133	1.114535	0.077066
Cu8	Cu	-0.114835	0.992255	0.091154
Cu9	Cu	-0.114813	0.992281	-0.091233
O10	O	-0.237110	0.985579	0.077078
C11	C	-0.120976	0.838695	-0.000032
C12	C	-0.119331	0.745447	-0.000029
C13	C	-0.194263	0.453911	-0.000039
C14	C	-0.155302	0.514951	-0.076083
C15	C	-0.113355	0.409810	-0.000050
C16	C	-0.155299	0.514916	0.075970
C17	C	-0.116296	0.574719	-0.000038
C18	C	-0.074371	0.469622	-0.076157
C19	C	-0.074380	0.469581	0.075964
C20	C	-0.035360	0.530603	-0.000098
C21	C	-0.111663	0.314810	-0.000058
C22	C	-0.117981	0.669718	-0.000037
C23	C	-0.268394	0.986144	-0.000033
C24	C	-0.361640	0.987806	-0.000029
C25	C	-0.576481	1.071713	-0.000047
C26	C	-0.637514	1.032739	0.075996
C27	C	-0.532365	0.990814	-0.000037
C28	C	-0.637480	1.032741	-0.076056
C29	C	-0.697277	0.993725	-0.000049
C30	C	-0.592170	0.951818	0.076069
C31	C	-0.592130	0.951831	-0.076052
C32	C	-0.653145	0.912798	0.000010
C33	C	-0.437363	0.989139	-0.000029
C34	C	-0.792278	0.995393	-0.000050
C35	C	0.038746	0.998392	-0.000049
C36	C	0.131992	0.996729	-0.000059
C37	C	-0.108672	1.145840	-0.000049
C38	C	-0.110317	1.239089	-0.000059
N39	N	-0.114851	0.992244	0.219435
N40	N	-0.114791	0.992299	-0.219514
C41	C	-0.174463	0.932604	0.469094
C42	C	-0.190756	1.008506	0.530894
C43	C	-0.114831	0.992264	0.408597
C44	C	-0.098557	0.916382	0.530891
C45	C	-0.114813	0.992277	0.591318
C46	C	-0.131162	1.068204	0.469036
C47	C	-0.038930	0.976030	0.469027
C48	C	-0.055191	1.051987	0.530799
C49	C	-0.114843	0.992255	0.303336
C50	C	-0.114800	0.992294	0.696577
H51	H	-0.261409	0.420581	-0.000109
O52	O	-0.080330	0.831375	0.566887
H53	H	-0.017803	0.817470	0.541050
H54	H	-0.189518	0.535058	-0.140364
O55	O	-0.029074	0.443182	-0.161416
H56	H	-0.028218	0.373673	-0.160771
O57	O	-0.149482	1.153236	0.433203
H58	H	-0.158545	1.195495	0.492644
H59	H	-0.254936	1.022248	0.558069
H60	H	0.031846	0.563780	-0.000142
H61	H	-0.040195	0.449455	0.140252
O62	O	0.011619	1.118890	0.566482
H63	H	-0.002088	1.181783	0.541577
O64	O	-0.532401	1.160683	-0.000087
H65	H	-0.463039	1.158739	-0.000787
O66	O	-0.664166	1.078045	0.161146
H67	H	-0.633170	1.143991	0.160987
H68	H	-0.572193	0.917618	0.140427
H69	H	-0.572000	0.917652	-0.140341
H70	H	0.025230	0.962264	0.441831
O71	O	-0.697099	0.823779	0.000065
H72	H	-0.678959	0.790402	0.063248
O73	O	-0.200648	0.541500	0.161129
H74	H	-0.266582	0.510475	0.160965
H75	H	-0.224932	0.882202	0.442001
O76	O	-0.664067	1.078083	-0.161219
H77	H	-0.633051	1.144021	-0.161057
