data_functionalizedCrystal
_audit_creation_method	'MofGen! by Chris Wilmer'
_symmetry_space_group_name_H-M	'P1'
_symmetry_Int_Tables_number	1
_symmetry_cell_setting	triclinic
loop_
_symmetry_equiv_pos_as_xyz
  x,y,z
_cell_length_a	16.992694
_cell_length_b	13.596369
_cell_length_c	16.992695
_cell_angle_alpha	90.006189
_cell_angle_beta	90.668223
_cell_angle_gamma	89.999564
loop_
_atom_site_label
_atom_site_type_symbol
_atom_site_fract_x
_atom_site_fract_y
_atom_site_fract_z
O1	O	1.050851	0.081669	0.166918
O2	O	0.822451	0.081698	0.165087
O3	O	0.935736	0.081676	0.051802
O4	O	0.937567	0.081691	0.280202
O5	O	0.935723	-0.081907	0.051795
O6	O	0.822439	-0.081885	0.165080
O7	O	1.050839	-0.081914	0.166911
Zn8	Zn	0.936637	-0.107872	0.165994
Zn9	Zn	0.936653	0.107656	0.166003
O10	O	0.937555	-0.081892	0.280195
C11	C	0.793085	-0.000090	0.162727
C12	C	0.705600	-0.000079	0.155699
N13	N	0.936632	-0.254964	0.165988
C14	C	0.659610	-0.000075	0.223517
C15	C	0.577409	-0.000089	0.216908
C16	C	0.541201	-0.000100	0.142480
C17	C	0.587198	-0.000107	0.074657
C18	C	0.669397	-0.000100	0.081267
C19	C	0.295886	-0.000128	0.115086
C20	C	0.213681	-0.000132	0.108481
C21	C	0.203898	-0.000116	0.250732
C22	C	0.286099	-0.000104	0.257335
C23	C	0.332089	-0.000115	0.189512
N24	N	0.457178	-0.000111	0.135723
N25	N	0.416110	-0.000111	0.196270
C26	C	0.936652	-0.656254	0.166004
C27	C	0.936644	-0.544603	0.166002
C28	C	0.936642	-0.455613	0.165997
C29	C	0.936634	-0.343954	0.165993
C30	C	1.080205	-0.000124	0.169270
C31	C	1.167690	-0.000128	0.176299
C32	C	0.933374	-0.000115	0.022439
C33	C	0.926345	-0.000114	-0.065046
N34	N	0.936665	0.254748	0.166004
C35	C	0.994163	-0.000124	-0.111037
C36	C	0.987554	-0.000114	-0.193238
C37	C	0.913127	-0.000101	-0.229446
C38	C	0.845303	-0.000088	-0.183449
C39	C	0.851913	-0.000091	-0.101250
C40	C	0.885732	-0.000084	-0.474760
C41	C	0.879127	-0.000084	-0.556966
C42	C	1.021379	-0.000107	-0.566749
C43	C	1.027982	-0.000116	-0.484547
C44	C	0.960159	-0.000098	-0.438558
N45	N	0.906369	-0.000093	-0.313468
N46	N	0.966917	-0.000099	-0.354537
C47	C	0.939917	-0.000098	0.309559
C48	C	0.946945	-0.000093	0.397044
H49	H	0.689084	-0.000066	0.284124
Cl50	Cl	0.168163	-0.000168	0.014908
Cl51	Cl	0.146078	-0.000105	0.335990
Cl52	Cl	0.353691	-0.000142	0.029821
H53	H	0.557710	-0.000129	0.014056
H54	H	1.076596	-0.000120	-0.604202
Cl55	Cl	0.727214	-0.000109	-0.003994
H56	H	0.539966	-0.000085	0.272133
H57	H	0.315574	-0.000083	0.317942
H58	H	1.054770	-0.000140	-0.081563
Cl59	Cl	1.072816	-0.000129	-0.251052
Cl60	Cl	1.121552	-0.000100	-0.439035
H61	H	0.818516	-0.000089	-0.586443
Cl62	Cl	0.800468	-0.000059	-0.416955
H63	H	0.784703	-0.000072	-0.212936
H64	H	0.796688	-0.000083	-0.063804
