data_functionalizedCrystal
_audit_creation_method	'MofGen! by Chris Wilmer'
_symmetry_space_group_name_H-M	'P1'
_symmetry_Int_Tables_number	1
_symmetry_cell_setting	triclinic
loop_
_symmetry_equiv_pos_as_xyz
  x,y,z
_cell_length_a	16.992694
_cell_length_b	16.992695
_cell_length_c	16.053802
_cell_angle_alpha	92.741074
_cell_angle_beta	87.249047
_cell_angle_gamma	90.668223
loop_
_atom_site_label
_atom_site_type_symbol
_atom_site_fract_x
_atom_site_fract_y
_atom_site_fract_z
O1	O	1.053959	0.163815	-0.069325
O2	O	1.553959	0.663815	0.430675
O3	O	0.825560	0.161983	-0.069350
O4	O	1.325560	0.661983	0.430650
O5	O	0.938844	0.048699	-0.069331
O6	O	1.438844	0.548699	0.430669
O7	O	0.940676	0.277099	-0.069344
O8	O	1.440676	0.777099	0.430656
O9	O	0.932607	0.054907	0.069527
O10	O	1.432607	0.554907	0.569527
O11	O	0.819323	0.168191	0.069508
O12	O	1.319323	0.668191	0.569508
O13	O	1.047722	0.170023	0.069533
O14	O	1.547722	0.670023	0.569533
Zn15	Zn	0.932532	0.170093	0.091567
Zn16	Zn	1.432532	0.670093	0.591567
Zn17	Zn	0.940750	0.161913	-0.091384
Zn18	Zn	1.440750	0.661913	0.408616
O19	O	0.934438	0.283307	0.069514
O20	O	1.434438	0.783307	0.569514
C21	C	0.793082	0.162731	0.000076
C22	C	1.293082	0.662731	0.500076
C23	C	0.705597	0.155702	0.000067
C24	C	1.205597	0.655702	0.500067
C25	C	0.933370	0.022443	0.000098
C26	C	1.433370	0.522443	0.500098
C27	C	0.926341	-0.065042	0.000097
C28	C	1.426341	0.434958	0.500097
C29	C	0.659607	0.223520	0.000064
C30	C	1.159607	0.723520	0.500064
C31	C	0.577405	0.216911	0.000076
C32	C	1.077405	0.716911	0.500076
C33	C	0.541197	0.142484	0.000085
C34	C	1.041197	0.642484	0.500085
C35	C	0.587193	0.074661	0.000091
C36	C	1.087193	0.574661	0.500091
C37	C	0.669393	0.081270	0.000085
C38	C	1.169393	0.581270	0.500085
C39	C	0.295881	0.115090	0.000109
C40	C	0.795881	0.615090	0.500109
C41	C	0.213676	0.108486	0.000112
C42	C	0.713676	0.608486	0.500112
C43	C	0.203893	0.250737	0.000099
C44	C	0.703893	0.750737	0.500099
C45	C	0.286095	0.257339	0.000088
C46	C	0.786095	0.757339	0.500088
C47	C	0.332084	0.189517	0.000098
C48	C	0.832084	0.689517	0.500098
N49	N	0.457174	0.135727	0.000094
N50	N	0.957174	0.635727	0.500094
N51	N	0.416105	0.196275	0.000094
N52	N	0.916105	0.696275	0.500094
C53	C	0.994158	-0.111032	0.000105
C54	C	1.494158	0.388968	0.500105
C55	C	0.987550	-0.193233	0.000096
C56	C	1.487550	0.306767	0.500096
C57	C	0.913123	-0.229442	0.000086
C58	C	1.413123	0.270558	0.500086
C59	C	0.845300	-0.183446	0.000075
C60	C	1.345300	0.316554	0.500075
C61	C	0.851910	-0.101246	0.000078
C62	C	1.351910	0.398754	0.500078
C63	C	0.885729	-0.474757	0.000071
C64	C	1.385729	0.025243	0.500071
C65	C	0.879124	-0.556962	0.000071
C66	C	1.379124	-0.056962	0.500071
C67	C	1.021375	-0.566745	0.000091
C68	C	1.521375	-0.066745	0.500091
C69	C	1.027978	-0.484543	0.000099
C70	C	1.527978	0.015457	0.500099
C71	C	0.960155	-0.438554	0.000083
C72	C	1.460155	0.061446	0.500083
N73	N	0.906366	-0.313465	0.000079
N74	N	1.406366	0.186535	0.500079
N75	N	0.966913	-0.354533	0.000084
N76	N	1.466913	0.145467	0.500084
C77	C	1.080201	0.169275	0.000105
C78	C	1.580201	0.669275	0.500105
C79	C	1.167685	0.176304	0.000109
C80	C	1.667685	0.676304	0.500109
C81	C	0.939913	0.309563	0.000084
C82	C	1.439913	0.809563	0.500084
C83	C	0.946942	0.397047	0.000079
C84	C	1.446942	0.897047	0.500079
N85	N	0.926930	0.175675	0.216427
N86	N	1.426930	0.675675	0.716427
N87	N	0.946358	0.156325	-0.216243
N88	N	1.446358	0.656325	0.283757
C89	C	0.975152	0.127492	0.260129
C90	C	1.475152	0.627492	0.760129
C91	C	0.971241	0.131404	0.347535
C92	C	1.471241	0.631404	0.847535
C93	C	0.919110	0.183504	0.391237
C94	C	1.419110	0.683504	0.891237
C95	C	0.870883	0.231689	0.347529
C96	C	1.370883	0.731689	0.847529
C97	C	0.874791	0.227772	0.260125
C98	C	1.374791	0.727772	0.760125
C99	C	0.902039	0.200593	0.652644
C100	C	1.402039	0.700593	1.152644
C101	C	0.898136	0.204508	0.740055
C102	C	1.398136	0.704508	1.240055
C103	C	0.998493	0.104222	0.740054
C104	C	1.498493	0.604222	1.240054
C105	C	1.002400	0.100313	0.652648
C106	C	1.502400	0.600313	1.152648
C107	C	0.954169	0.148494	0.608948
C108	C	1.454169	0.648494	1.108948
N109	N	0.915113	0.187507	0.480580
N110	N	1.415113	0.687507	0.980580
N111	N	0.958163	0.144487	0.519606
N112	N	1.458163	0.644487	1.019606
H113	H	0.689081	0.284126	0.000056
H114	H	1.189081	0.784126	0.500056
H115	H	1.010506	0.092170	0.383116
H116	H	1.510506	0.592170	0.883116
O117	O	1.025667	0.076806	0.217606
O118	O	1.525667	0.576806	0.717606
C119	C	0.982698	0.023300	0.167105
C120	C	1.482698	0.523300	0.667105
H121	H	0.923669	0.050200	0.153994
H122	H	1.423669	0.550200	0.653994
H123	H	1.017519	0.010119	0.105649
H124	H	1.517519	0.510119	0.605649
H125	H	0.972162	-0.033684	0.200836
H126	H	1.472162	0.466316	0.700836
H127	H	0.706838	0.026046	0.000087
H128	H	1.206838	0.526046	0.500087
H129	H	1.044848	0.057889	0.617067
H130	H	1.544848	0.557889	1.117067
O131	O	1.087270	-0.611378	0.000244
O132	O	1.587270	-0.111378	0.500244
C133	C	1.128937	-0.591046	0.072153
C134	C	1.628937	-0.091046	0.572153
H135	H	1.086882	-0.563345	0.122417
H136	H	1.586882	-0.063345	0.622417
H137	H	1.155772	-0.646245	0.096290
H138	H	1.655772	-0.146245	0.596290
H139	H	1.177848	-0.547107	0.055898
H140	H	1.677848	-0.047107	0.555898
O141	O	0.773050	-0.218713	-0.000047
O142	O	1.273050	0.281287	0.499953
C143	C	0.768195	-0.269165	-0.071974
C144	C	1.268195	0.230835	0.428026
H145	H	0.830034	-0.286797	-0.095943
H146	H	1.330034	0.213203	0.404057
H147	H	0.732720	-0.324174	-0.055803
H148	H	1.232720	0.175826	0.444197
H149	H	0.737905	-0.237321	-0.122336
H150	H	1.237905	0.262679	0.377664
O151	O	0.340518	0.049178	-0.000035
O152	O	0.840518	0.549178	0.499965
C153	C	0.326610	0.001071	-0.071937
C154	C	0.826610	0.501071	0.428063
H155	H	0.303408	0.038626	-0.122204
H156	H	0.803408	0.538626	0.377796
H157	H	0.383965	-0.027932	-0.096075
H158	H	0.883965	0.472068	0.403925
H159	H	0.281213	-0.046379	-0.055673
H160	H	0.781213	0.453621	0.444327
H161	H	0.166440	0.305954	0.000092
H162	H	0.666440	0.805954	0.500092
H163	H	1.088584	-0.455068	0.000108
H164	H	1.588584	0.044932	0.500108
H165	H	0.818513	-0.586440	0.000076
H166	H	1.318513	-0.086440	0.500076
O167	O	1.045219	0.057333	0.782545
O168	O	1.545219	0.557333	1.282545
C169	C	0.997757	0.008384	0.833132
C170	C	1.497757	0.508384	1.333132
H171	H	0.936772	0.001952	0.806799
H172	H	1.436772	0.501952	1.306799
H173	H	1.025907	-0.052111	0.834132
H174	H	1.525907	0.447889	1.334132
H175	H	0.992212	0.035728	0.899370
H176	H	1.492212	0.535728	1.399370
O177	O	1.066434	-0.075820	0.000262
O178	O	1.566434	0.424180	0.500262
C179	C	1.071282	-0.025341	0.072169
C180	C	1.571282	0.474659	0.572169
H181	H	1.026672	-0.045089	0.122431
H182	H	1.526672	0.454911	0.622431
H183	H	1.133178	-0.027662	0.096312
H184	H	1.633178	0.472338	0.596312
H185	H	1.057915	0.037546	0.055910
H186	H	1.557915	0.537546	0.555910
O187	O	0.820171	0.282315	0.389850
O188	O	1.320171	0.782315	0.889850
C189	C	0.778459	0.324014	0.332531
C190	C	1.278459	0.824014	0.832531
H191	H	0.778338	0.288892	0.270232
H192	H	1.278338	0.788892	0.770232
H193	H	0.715216	0.333175	0.357791
H194	H	1.215216	0.833175	0.857791
H195	H	0.808091	0.383695	0.323222
H196	H	1.308091	0.883695	0.823222
O197	O	0.828064	0.274614	0.217578
O198	O	1.328064	0.774614	0.717578
C199	C	0.875521	0.323593	0.167019
C200	C	1.375521	0.823593	0.667019
H201	H	0.935741	0.295551	0.153922
H202	H	1.435741	0.795551	0.653922
H203	H	0.846191	0.331211	0.105558
H204	H	1.346191	0.831211	0.605558
H205	H	0.883004	0.383621	0.200691
H206	H	1.383004	0.883621	0.700691
O207	O	0.532774	0.282808	-0.000079
O208	O	1.032774	0.782808	0.499921
C209	C	0.553118	0.324478	-0.071993
C210	C	1.053118	0.824478	0.428007
H211	H	0.580822	0.282426	-0.122254
H212	H	1.080822	0.782426	0.377746
H213	H	0.497923	0.351318	-0.096131
H214	H	0.997923	0.851318	0.403869
H215	H	0.597057	0.373387	-0.055745
H216	H	1.097057	0.873387	0.444255
O217	O	0.321137	0.329701	0.000121
O218	O	0.821137	0.829701	0.500121
C219	C	0.262918	0.388143	0.000100
C220	C	0.762918	0.888143	0.500100
H221	H	0.204580	0.363758	0.026394
H222	H	0.704580	0.863758	0.526394
H223	H	0.281442	0.441598	0.040409
H224	H	0.781442	0.941598	0.540409
H225	H	0.255654	0.406330	-0.066518
H226	H	0.755654	0.906330	0.433482
H227	H	0.796685	-0.063801	0.000071
H228	H	1.296685	0.436199	0.500071
H229	H	0.184198	0.047875	0.000119
H230	H	0.684198	0.547875	0.500119
H231	H	1.042774	-0.230676	0.000105
H232	H	1.542774	0.269324	0.500105
H233	H	0.830503	-0.437322	0.000059
H234	H	1.330503	0.062678	0.500059
H235	H	0.855683	0.246937	0.775633
H236	H	1.355683	0.746937	1.275633
H237	H	0.862769	0.239826	0.617070
H238	H	1.362769	0.739826	1.117070
H239	H	0.557705	0.014061	0.000110
H240	H	1.057705	0.514061	0.500110
