data_functionalizedCrystal
_audit_creation_method	'MofGen! by Chris Wilmer'
_symmetry_space_group_name_H-M	'P1'
_symmetry_Int_Tables_number	1
_symmetry_cell_setting	triclinic
loop_
_symmetry_equiv_pos_as_xyz
  x,y,z
_cell_length_a	18.101398
_cell_length_b	18.101389
_cell_length_c	18.215405
_cell_angle_alpha	90.020965
_cell_angle_beta	89.976963
_cell_angle_gamma	89.985654
loop_
_atom_site_label
_atom_site_type_symbol
_atom_site_fract_x
_atom_site_fract_y
_atom_site_fract_z
Zn1	Zn	1.132153	-0.418628	0.293098
Zn2	Zn	1.632153	0.081372	0.793098
Zn3	Zn	1.132062	-0.294781	0.416148
Zn4	Zn	1.632062	0.205219	0.916148
Zn5	Zn	1.008312	-0.294811	0.293096
Zn6	Zn	1.508312	0.205189	0.793096
Zn7	Zn	1.008276	-0.418592	0.416123
Zn8	Zn	1.508276	0.081408	0.916123
O9	O	1.070201	-0.356703	0.354616
O10	O	1.570201	0.143297	0.854616
O11	O	1.235774	-0.402203	0.309432
O12	O	1.735774	0.097797	0.809432
O13	O	1.115624	-0.191152	0.399835
O14	O	1.615624	0.308848	0.899835
O15	O	1.024793	-0.311264	0.190112
O16	O	1.524793	0.188736	0.690112
O17	O	1.235707	-0.311213	0.399837
O18	O	1.735707	0.188787	0.899837
O19	O	1.115778	-0.402232	0.190113
O20	O	1.615778	0.097768	0.690113
O21	O	1.024705	-0.191174	0.309429
O22	O	1.524705	0.308826	0.809429
O23	O	0.904674	-0.311228	0.309405
O24	O	1.404674	0.188772	0.809405
O25	O	1.024732	-0.522229	0.399794
O26	O	1.524732	-0.022229	0.899794
O27	O	0.904648	-0.402169	0.399792
O28	O	1.404648	0.097831	0.899792
O29	O	1.115743	-0.522256	0.309407
O30	O	1.615743	-0.022256	0.809407
O31	O	1.115589	-0.311177	0.519129
O32	O	1.615589	0.188823	1.019129
O33	O	1.024644	-0.402140	0.519111
O34	O	1.524644	0.097860	1.019111
C35	C	0.877790	-0.356698	0.354596
C36	C	1.377790	0.143302	0.854596
C37	C	0.795476	-0.356713	0.354605
C38	C	1.295476	0.143287	0.854605
C39	C	0.644768	-0.356712	0.354619
C40	C	1.144768	0.143288	0.854619
C41	C	0.613422	-0.413841	0.411576
C42	C	1.113422	0.086159	0.911576
C43	C	0.527804	-0.413672	0.411806
C44	C	1.027804	0.086328	0.911806
C45	C	0.496385	-0.356712	0.354632
C46	C	0.996385	0.143288	0.854632
C47	C	0.527440	-0.278569	0.375315
C48	C	1.027440	0.221431	0.875315
C49	C	0.613085	-0.278900	0.375721
C50	C	1.113085	0.221100	0.875721
C51	C	0.613238	-0.377044	0.276838
C52	C	1.113238	0.122956	0.776838
C53	C	0.527588	-0.378765	0.277265
C54	C	1.027588	0.121235	0.777265
C55	C	0.412526	-0.356708	0.354639
C56	C	0.912526	0.143292	0.854639
C57	C	0.728627	-0.356712	0.354614
C58	C	1.228627	0.143288	0.854614
C59	C	1.070244	-0.549865	0.354598
C60	C	1.570244	-0.049865	0.854598
C61	C	1.070262	-0.632179	0.354590
C62	C	1.570262	-0.132179	0.854590
C63	C	1.070305	-0.931270	0.354452
C64	C	1.570305	-0.431270	0.854452
C65	C	1.012846	-0.899928	0.411140
C66	C	1.512846	-0.399928	0.911140
C67	C	1.013001	-0.814310	0.411403
C68	C	1.513001	-0.314310	0.911403
C69	C	1.070283	-0.782888	0.354520
C70	C	1.570283	-0.282888	0.854520
C71	C	1.148311	-0.813979	0.375574
C72	C	1.648311	-0.313979	0.875574
C73	C	1.147990	-0.899624	0.375947
C74	C	1.647990	-0.399624	0.875947
C75	C	1.050415	-0.899702	0.276584
C76	C	1.550415	-0.399702	0.776584
C77	C	1.048679	-0.814051	0.277034
C78	C	1.548679	-0.314051	0.777034
C79	C	1.070275	-0.699028	0.354558
C80	C	1.570275	-0.199028	0.854558
C81	C	1.070318	-1.015130	0.354416
C82	C	1.570318	-0.515130	0.854416
C83	C	1.263363	-0.356709	0.354637
C84	C	1.763363	0.143291	0.854637
C85	C	1.345677	-0.356711	0.354646
C86	C	1.845677	0.143289	0.854646
C87	C	1.070123	-0.356668	0.545823
C88	C	1.570123	0.143332	1.045823
C89	C	1.070157	-0.356677	0.627622
C90	C	1.570157	0.143323	1.127622
C91	C	1.070201	-0.164293	0.354582
C92	C	1.570201	0.335707	0.854582
C93	C	1.070326	-0.081979	0.354382
C94	C	1.570326	0.418021	0.854382
C95	C	1.070299	-0.356755	0.162663
C96	C	1.570299	0.143245	0.662663
C97	C	1.070342	-0.356777	0.080865
C98	C	1.570342	0.143223	0.580865
C99	C	1.117623	-0.309400	0.815801
C100	C	1.617623	0.190600	1.315801
C101	C	1.117656	-0.309418	0.892659
C102	C	1.617656	0.190582	1.392659
C103	C	1.022873	-0.404060	0.892680
C104	C	1.522873	0.095940	1.392680
C105	C	1.022844	-0.404045	0.815823
C106	C	1.522844	0.095955	1.315823
C107	C	1.070218	-0.356711	0.777385
C108	C	1.570218	0.143289	1.277385
C109	C	1.070280	-0.356743	0.931101
C110	C	1.570280	0.143257	1.431101
C111	C	1.070316	-0.356763	1.014435
C112	C	1.570316	0.143237	1.514435
C113	C	1.070184	-0.356692	0.694046
C114	C	1.570184	0.143308	1.194046
H115	H	0.634916	-0.400515	0.468885
H116	H	1.134916	0.099485	0.968885
O117	O	0.640095	-0.321944	0.220624
O118	O	1.140095	0.178056	0.720624
H119	H	0.675726	-0.280277	0.247903
H120	H	1.175726	0.219723	0.747903
H121	H	0.507288	-0.400183	0.469446
H122	H	1.007288	0.099817	0.969446
O123	O	1.100083	-0.785740	0.218119
O124	O	1.600083	-0.285740	0.718119
H125	H	1.083286	-0.808787	0.164176
H126	H	1.583286	-0.308787	0.664176
O127	O	0.500493	-0.220631	0.322051
O128	O	1.000493	0.279369	0.822051
H129	H	0.464590	-0.246979	0.280174
H130	H	0.964590	0.253021	0.780174
H131	H	0.984302	-0.442596	0.923985
H132	H	1.484302	0.057404	1.423985
O133	O	1.168784	-0.258393	0.934101
O134	O	1.668784	0.241607	1.434101
H135	H	1.156110	-0.200254	0.919402
H136	H	1.656110	0.299746	1.419402
H137	H	1.192254	-0.920358	0.336450
H138	H	1.692254	-0.420358	0.836450
H139	H	0.633820	-0.234874	0.336008
H140	H	1.133820	0.265126	0.836008
H141	H	1.026133	-0.793823	0.469121
H142	H	1.526133	-0.293823	0.969121
H143	H	1.164851	-0.919602	0.432869
H144	H	1.664851	-0.419602	0.932869
H145	H	1.156199	-0.270859	0.784507
H146	H	1.656199	0.229141	1.284507
H147	H	0.984241	-0.442575	0.784543
H148	H	1.484241	0.057425	1.284543
H149	H	0.506808	-0.471604	0.398906
H150	H	1.006808	0.028396	0.898906
O151	O	0.500705	-0.454941	0.256593
O152	O	1.000705	0.045059	0.756593
H153	H	0.523000	-0.470120	0.201853
H154	H	1.023000	0.029880	0.701853
H155	H	0.634041	-0.471953	0.398825
H156	H	1.134041	0.028047	0.898825
O157	O	0.498999	-0.255410	0.449791
O158	O	0.998999	0.244590	0.949791
H159	H	0.462755	-0.299424	0.472194
H160	H	0.962755	0.200576	0.972194
H161	H	0.634862	-0.433065	0.257939
H162	H	1.134862	0.066935	0.757939
O163	O	0.639519	-0.256145	0.451019
O164	O	1.139519	0.243855	0.951019
H165	H	0.591131	-0.245013	0.486801
H166	H	1.091131	0.254987	0.986801
H167	H	1.192272	-0.793627	0.335583
H168	H	1.692272	-0.293627	0.835583
O169	O	0.499276	-0.327699	0.218088
O170	O	0.999276	0.172301	0.718088
H171	H	0.438058	-0.330598	0.216163
H172	H	0.938058	0.169402	0.716163
O173	O	0.936366	-0.786454	0.393928
O174	O	1.436366	-0.286454	0.893928
H175	H	0.898859	-0.834156	0.385218
H176	H	1.398859	-0.334156	0.885218
H177	H	0.954811	-0.920525	0.398099
H178	H	1.454811	-0.420525	0.898099
O179	O	1.030034	-0.928462	0.487124
O180	O	1.530034	-0.428462	0.987124
H181	H	1.079329	-0.964863	0.484692
H182	H	1.579329	-0.464863	0.984692
O183	O	1.171041	-0.785572	0.450171
O184	O	1.671041	-0.285572	0.950171
H185	H	1.179786	-0.832943	0.487855
H186	H	1.679786	-0.332943	0.987855
O187	O	0.976349	-0.928294	0.251183
O188	O	1.476349	-0.428294	0.751183
H189	H	0.978132	-0.989502	0.247976
H190	H	1.478132	-0.489502	0.747976
O191	O	0.972625	-0.787124	0.255986
O192	O	1.472625	-0.287124	0.755986
H193	H	0.950299	-0.751691	0.300520
H194	H	1.450299	-0.251691	0.800520
O195	O	1.105843	-0.926552	0.220632
O196	O	1.605843	-0.426552	0.720632
H197	H	1.147358	-0.962208	0.248101
H198	H	1.647358	-0.462208	0.748101
