data_functionalizedCrystal
_audit_creation_method	'MofGen! by Chris Wilmer'
_symmetry_space_group_name_H-M	'P1'
_symmetry_Int_Tables_number	1
_symmetry_cell_setting	triclinic
loop_
_symmetry_equiv_pos_as_xyz
  x,y,z
_cell_length_a	21.395362
_cell_length_b	18.215405
_cell_length_c	21.395355
_cell_angle_alpha	90.019851
_cell_angle_beta	90.043940
_cell_angle_gamma	90.040762
loop_
_atom_site_label
_atom_site_type_symbol
_atom_site_fract_x
_atom_site_fract_y
_atom_site_fract_z
Zn1	Zn	0.957885	-0.292758	0.354580
Zn2	Zn	0.957798	-0.415806	0.249800
Zn3	Zn	0.853100	-0.292792	0.249781
Zn4	Zn	0.853080	-0.415821	0.354505
O5	O	0.905466	-0.354294	0.302166
O6	O	1.045551	-0.309060	0.340720
O7	O	0.943882	-0.399496	0.162119
O8	O	0.867045	-0.189803	0.263706
O9	O	1.045487	-0.399463	0.263739
O10	O	0.944030	-0.189778	0.340702
O11	O	0.866960	-0.309118	0.162106
O12	O	0.765419	-0.309133	0.263634
O13	O	0.867010	-0.399488	0.442193
O14	O	0.765404	-0.399522	0.340573
O15	O	0.944010	-0.309074	0.442248
O16	O	0.943862	-0.518792	0.263666
O17	O	0.866926	-0.518803	0.340592
C18	C	0.742678	-0.354333	0.302094
C19	C	0.673037	-0.354367	0.302077
C20	C	0.905399	-0.545500	0.302136
C21	C	0.905428	-0.627299	0.302144
C22	C	0.640332	-0.401495	0.342080
C23	C	0.574897	-0.401477	0.342108
C24	C	0.542168	-0.354339	0.302122
C25	C	0.574881	-0.307202	0.262117
C26	C	0.640315	-0.307216	0.262094
C27	C	0.438443	-0.348410	0.245717
C28	C	0.373010	-0.348401	0.245738
C29	C	0.340348	-0.354291	0.302191
C30	C	0.373126	-0.360205	0.358625
C31	C	0.438560	-0.360219	0.358602
C32	C	0.471216	-0.354318	0.302142
C33	C	0.236691	-0.401402	0.342228
C34	C	0.171254	-0.401379	0.342256
C35	C	0.171239	-0.307107	0.262260
C36	C	0.236675	-0.307127	0.262236
C37	C	0.269396	-0.354278	0.302219
C38	C	0.945583	-0.815463	0.262163
C39	C	0.945611	-0.892322	0.262178
C40	C	0.865428	-0.892373	0.342215
C41	C	0.865404	-0.815516	0.342203
C42	C	0.905480	-0.777063	0.302173
C43	C	0.905533	-0.930779	0.302200
C44	C	0.905563	-1.014112	0.302217
C45	C	0.905451	-0.693724	0.302157
C46	C	1.068889	-0.354256	0.302240
C47	C	1.138530	-0.354239	0.302271
C48	C	0.905518	-0.354279	0.465590
C49	C	0.905540	-0.354273	0.535231
C50	C	0.905549	-0.162341	0.302210
C51	C	0.905585	-0.080542	0.302229
C52	C	0.905450	-0.354256	0.139379
C53	C	0.905549	-0.354055	0.069738
C54	C	0.945632	-0.307192	0.567974
C55	C	0.945631	-0.307161	0.633409
C56	C	0.905545	-0.354223	0.666099
C57	C	0.865445	-0.401307	0.633349
C58	C	0.865442	-0.401332	0.567914
C59	C	0.900574	-0.420488	0.769762
C60	C	0.900581	-0.420465	0.835195
C61	C	0.905548	-0.354145	0.867920
C62	C	0.910522	-0.287847	0.835205
C63	C	0.910520	-0.287872	0.769770
C64	C	0.905542	-0.354200	0.737052
C65	C	0.945642	-0.307026	0.971616
C66	C	0.945637	-0.306993	1.037052
C67	C	0.865454	-0.401146	1.036990
C68	C	0.865455	-0.401172	0.971555
C69	C	0.905553	-0.354113	0.938872
H70	H	0.666970	-0.439889	0.374638
H71	H	0.666942	-0.268837	0.229519
C72	C	1.024846	-0.823135	0.183055
C73	C	0.989639	-0.773195	0.218167
H74	H	1.052048	-0.797040	0.155897
H75	H	0.997570	-0.853160	0.159059
H76	H	1.048805	-0.853065	0.210397
H77	H	0.965676	-0.743268	0.190825
H78	H	1.016918	-0.743156	0.242165
H79	H	0.346327	-0.343590	0.199787
H80	H	0.978268	-0.923584	0.229598
H81	H	0.832798	-0.923691	0.374805
C82	C	0.097596	-0.500363	0.350827
C83	C	0.135299	-0.453184	0.386230
H84	H	0.075396	-0.532342	0.377976
H85	H	0.123069	-0.528469	0.323480
H86	H	0.068745	-0.472272	0.327022
H87	H	0.164153	-0.481275	0.410032
H88	H	0.109824	-0.425075	0.413588
H89	H	0.832812	-0.439515	0.944895
C90	C	0.511915	-0.404108	0.175453
C91	C	0.474347	-0.341939	0.183661
H92	H	0.534083	-0.400108	0.137146
H93	H	0.486353	-0.446750	0.174580
H94	H	0.540793	-0.407618	0.209065
H95	H	0.445465	-0.338431	0.150052
H96	H	0.499911	-0.299284	0.184529
C97	C	0.856696	-0.500352	0.494320
C98	C	0.821375	-0.453090	0.531916
H99	H	0.829490	-0.532302	0.472093
H100	H	0.883975	-0.528484	0.519869
H101	H	0.880571	-0.472319	0.465493
H102	H	0.797503	-0.481122	0.560747
H103	H	0.794086	-0.424955	0.506365
C104	C	0.786141	-0.823281	0.421317
C105	C	0.821318	-0.773301	0.386184
H106	H	0.758925	-0.797217	0.448466
H107	H	0.813435	-0.853207	0.445323
H108	H	0.762198	-0.853307	0.393986
H109	H	0.845264	-0.743278	0.413515
H110	H	0.794021	-0.743362	0.362176
H111	H	0.978282	-0.268872	0.541367
C112	C	0.976223	-0.182363	1.057209
C113	C	0.989710	-0.255234	1.073042
H114	H	1.003436	-0.150409	1.079424
H115	H	0.934137	-0.171598	1.067905
H116	H	0.981960	-0.175659	1.013559
H117	H	0.983968	-0.261939	1.116691
H118	H	1.031806	-0.266002	1.062350
H119	H	0.978278	-0.268818	0.660074
C120	C	0.890654	-0.551567	0.776325
C121	C	0.895043	-0.493387	0.733794
H122	H	0.887220	-0.596567	0.754119
H123	H	0.854778	-0.545045	0.801846
H124	H	0.926994	-0.552553	0.801848
H125	H	0.858700	-0.492397	0.708274
H126	H	0.930922	-0.499910	0.708262
H127	H	0.263334	-0.439792	0.374787
C128	C	0.920336	-0.156781	0.776344
C129	C	0.915977	-0.215002	0.733809
H130	H	0.923698	-0.111793	0.754142
H131	H	0.956241	-0.163226	0.801889
H132	H	0.884017	-0.155832	0.801843
H133	H	0.952298	-0.215954	0.708313
H134	H	0.880068	-0.208554	0.708254
H135	H	0.914568	-0.233843	0.861848
C136	C	1.029934	-0.296814	0.898101
C137	C	0.989715	-0.255297	0.935688
H138	H	1.057145	-0.264878	0.875927
H139	H	1.006059	-0.324853	0.869234
H140	H	1.053880	-0.328861	0.923655
H141	H	0.965764	-0.223254	0.910133
H142	H	1.013592	-0.227246	0.964559
H143	H	0.832808	-0.439457	1.063606
H144	H	0.144592	-0.268723	0.229705
H145	H	0.263303	-0.268754	0.229659
H146	H	0.896535	-0.474448	0.861827
H147	H	0.548229	-0.268820	0.229561
H148	H	0.832804	-0.439623	0.659969
C149	C	0.353029	-0.432761	0.450111
C150	C	0.337237	-0.366666	0.420688
H151	H	0.330869	-0.436748	0.488423
H152	H	0.396685	-0.433616	0.458165
H153	H	0.342232	-0.472744	0.423699
H154	H	0.348039	-0.326683	0.447098
H155	H	0.293571	-0.365805	0.412636
C156	C	0.581477	-0.494667	0.421175
C157	C	0.538938	-0.453281	0.386084
H158	H	0.559278	-0.526649	0.448322
H159	H	0.607050	-0.462652	0.445182
H160	H	0.606947	-0.522776	0.393818
H161	H	0.513471	-0.425168	0.413441
H162	H	0.513355	-0.485300	0.362076
C163	C	0.458862	-0.307751	0.459563
C164	C	0.474590	-0.366707	0.420631
H165	H	0.481109	-0.311753	0.497856
H166	H	0.415224	-0.308594	0.467656
H167	H	0.469598	-0.262923	0.439583
H168	H	0.463849	-0.411535	0.440610
H169	H	0.518238	-0.365871	0.412540
