data_functionalizedCrystal
_audit_creation_method	'MofGen! by Chris Wilmer'
_symmetry_space_group_name_H-M	'P1'
_symmetry_Int_Tables_number	1
_symmetry_cell_setting	triclinic
loop_
_symmetry_equiv_pos_as_xyz
  x,y,z
_cell_length_a	8.597340
_cell_length_b	14.519709
_cell_length_c	12.996460
_cell_angle_alpha	89.998766
_cell_angle_beta	97.695834
_cell_angle_gamma	84.511855
loop_
_atom_site_label
_atom_site_type_symbol
_atom_site_fract_x
_atom_site_fract_y
_atom_site_fract_z
O1	O	2.082780	0.137656	0.099084
O2	O	2.582780	0.637656	0.599084
O3	O	1.625887	0.148214	0.058575
O4	O	2.125887	0.648214	0.558575
O5	O	1.866448	0.008794	0.079913
O6	O	2.366448	0.508794	0.579913
O7	O	1.842220	0.277076	0.077746
O8	O	2.342220	0.777076	0.577746
O9	O	1.866417	0.008802	0.251044
O10	O	2.366417	0.508802	0.751044
O11	O	1.625856	0.148222	0.229706
O12	O	2.125856	0.648222	0.729706
O13	O	2.082749	0.137664	0.270215
O14	O	2.582749	0.637664	0.770215
Cu15	Cu	1.854300	0.142944	0.265586
Cu16	Cu	2.354300	0.642944	0.765586
Cu17	Cu	1.854337	0.142934	0.063204
Cu18	Cu	2.354337	0.642934	0.563204
O19	O	1.842189	0.277084	0.248877
O20	O	2.342189	0.777084	0.748877
C21	C	1.567398	0.147083	0.138956
C22	C	2.067398	0.647083	0.638956
C23	C	1.393166	0.143692	0.123509
C24	C	1.893166	0.643692	0.623509
C25	C	1.865303	-0.025571	0.165379
C26	C	2.365303	0.474429	0.665379
C27	C	1.861919	-0.127979	0.165079
C28	C	2.361919	0.372021	0.665079
C29	C	1.849463	-0.502976	0.163948
C30	C	2.349463	-0.002976	0.663948
C31	C	1.852922	-0.398640	0.164262
C32	C	2.352922	0.101360	0.664262
C33	C	1.855691	-0.315481	0.164514
C34	C	2.355691	0.184519	0.664514
C35	C	1.859151	-0.211138	0.164827
C36	C	2.359151	0.288862	0.664827
C37	C	2.141238	0.138794	0.189832
C38	C	2.641238	0.638794	0.689832
C39	C	2.315471	0.142186	0.205273
C40	C	2.815471	0.642186	0.705273
C41	C	1.843334	0.311449	0.163409
C42	C	2.343334	0.811449	0.663409
C43	C	1.846717	0.413857	0.163702
C44	C	2.346717	0.913857	0.663702
N45	N	1.854286	0.142950	0.407932
N46	N	2.354286	0.642950	0.907932
N47	N	1.854363	0.142921	-0.079141
N48	N	2.354363	0.642921	0.420859
C49	C	1.854293	0.142952	0.501039
C50	C	2.354293	0.642952	1.001039
C51	C	1.854307	0.142946	0.617845
C52	C	2.354307	0.642946	1.117845
C53	C	1.854327	0.142936	0.710945
C54	C	2.354327	0.642936	1.210945
C55	C	1.854344	0.142931	0.827759
C56	C	2.354344	0.642931	1.327759
H57	H	1.326383	0.142387	0.041680
H58	H	1.826383	0.642387	0.541680
H59	H	1.382247	0.143484	0.287096
H60	H	1.882247	0.643484	0.787096
