data_functionalizedCrystal
_audit_creation_method	'MofGen! by Chris Wilmer'
_symmetry_space_group_name_H-M	'P1'
_symmetry_Int_Tables_number	1
_symmetry_cell_setting	triclinic
loop_
_symmetry_equiv_pos_as_xyz
  x,y,z
_cell_length_a	16.625547
_cell_length_b	16.120256
_cell_length_c	16.625546
_cell_angle_alpha	92.872129
_cell_angle_beta	90.022405
_cell_angle_gamma	92.874068
loop_
_atom_site_label
_atom_site_type_symbol
_atom_site_fract_x
_atom_site_fract_y
_atom_site_fract_z
Zn1	Zn	1.209553	-0.471468	-0.344158
Zn2	Zn	1.459553	-0.221468	-0.094158
Zn3	Zn	1.709553	0.028532	0.155842
Zn4	Zn	1.959553	0.278532	0.405842
Zn5	Zn	1.216295	-0.332053	-0.472154
Zn6	Zn	1.466295	-0.082053	-0.222154
Zn7	Zn	1.716295	0.167947	0.027846
Zn8	Zn	1.966295	0.417947	0.277846
Zn9	Zn	1.081553	-0.332062	-0.337339
Zn10	Zn	1.331553	-0.082062	-0.087339
Zn11	Zn	1.581553	0.167938	0.162661
Zn12	Zn	1.831553	0.417938	0.412661
Zn13	Zn	1.074688	-0.471408	-0.478950
Zn14	Zn	1.324688	-0.221408	-0.228950
Zn15	Zn	1.574688	0.028592	0.021050
Zn16	Zn	1.824688	0.278592	0.271050
O17	O	1.145522	-0.401748	-0.408150
O18	O	1.395522	-0.151748	-0.158150
O19	O	1.645522	0.098252	0.091850
O20	O	1.895522	0.348252	0.341850
O21	O	1.323278	-0.452996	-0.361147
O22	O	1.573278	-0.202996	-0.111147
O23	O	1.823278	0.047004	0.138853
O24	O	2.073278	0.297004	0.388853
O25	O	1.204116	-0.215392	-0.448573
O26	O	1.454116	0.034608	-0.198573
O27	O	1.704116	0.284608	0.051427
O28	O	1.954116	0.534608	0.301427
O29	O	1.098584	-0.350583	-0.225413
O30	O	1.348584	-0.100583	0.024587
O31	O	1.598584	0.149417	0.274587
O32	O	1.848584	0.399417	0.524587
O33	O	1.328232	-0.350569	-0.455185
O34	O	1.578232	-0.100569	-0.205185
O35	O	1.828232	0.149431	0.044815
O36	O	2.078232	0.399431	0.294815
O37	O	1.192625	-0.453004	-0.230423
O38	O	1.442625	-0.203004	0.019577
O39	O	1.692625	0.046996	0.269577
O40	O	1.942625	0.296996	0.519577
O41	O	1.105122	-0.215398	-0.349525
O42	O	1.355122	0.034602	-0.099525
O43	O	1.605122	0.284602	0.150475
O44	O	1.855122	0.534602	0.400475
O45	O	0.967811	-0.350525	-0.356114
O46	O	1.217811	-0.100525	-0.106114
O47	O	1.467811	0.149475	0.143886
O48	O	1.717811	0.399475	0.393886
O49	O	1.086883	-0.588079	-0.466767
O50	O	1.336883	-0.338079	-0.216767
O51	O	1.586883	-0.088079	0.033233
O52	O	1.836883	0.161921	0.283233
O53	O	0.962767	-0.452902	-0.460155
O54	O	1.212767	-0.202902	-0.210155
O55	O	1.462767	0.047098	0.039845
O56	O	1.712767	0.297098	0.289845
O57	O	1.185968	-0.588123	-0.367737
O58	O	1.435968	-0.338123	-0.117737
O59	O	1.685968	-0.088123	0.132263
O60	O	1.935968	0.161877	0.382263
O61	O	1.197459	-0.350511	-0.585886
O62	O	1.447459	-0.100511	-0.335886
O63	O	1.697459	0.149489	-0.085886
O64	O	1.947459	0.399489	0.164114
O65	O	1.093421	-0.452894	-0.590879
O66	O	1.343421	-0.202894	-0.340879
O67	O	1.593421	0.047106	-0.090879
O68	O	1.843421	0.297106	0.159121
C69	C	0.936033	-0.401709	-0.408133
C70	C	1.186033	-0.151709	-0.158133
C71	C	1.436033	0.098291	0.091867
C72	C	1.686033	0.348291	0.341867
C73	C	0.846412	-0.401712	-0.408146
C74	C	1.096412	-0.151712	-0.158146
C75	C	1.346412	0.098288	0.091854
C76	C	1.596412	0.348288	0.341854
C77	C	0.773629	-0.401722	-0.408148
C78	C	1.023629	-0.151722	-0.158148
C79	C	1.273629	0.098278	0.091852
C80	C	1.523629	0.348278	0.341852
C81	C	0.682319	-0.401743	-0.408153
C82	C	0.932319	-0.151743	-0.158153
C83	C	1.182319	0.098257	0.091847
C84	C	1.432319	0.348257	0.341847
C85	C	0.609542	-0.401764	-0.408161
C86	C	0.859542	-0.151764	-0.158161
C87	C	1.109542	0.098236	0.091839
C88	C	1.359542	0.348236	0.341839
C89	C	0.518227	-0.401784	-0.408168
C90	C	0.768227	-0.151784	-0.158168
C91	C	1.018227	0.098216	0.091832
C92	C	1.268227	0.348216	0.341832
C93	C	1.134907	-0.619196	-0.418771
C94	C	1.384907	-0.369196	-0.168771
C95	C	1.634907	-0.119196	0.081229
C96	C	1.884907	0.130804	0.331229
C97	C	1.130384	-0.711860	-0.423296
C98	C	1.380384	-0.461860	-0.173296
C99	C	1.630384	-0.211860	0.076704
C100	C	1.880384	0.038140	0.326704
C101	C	1.169109	-0.922826	-0.384529
C102	C	1.419109	-0.672826	-0.134529
C103	C	1.669109	-0.422826	0.115471
C104	C	1.919109	-0.172826	0.365471
C105	C	1.122099	-0.881512	-0.431526
C106	C	1.372099	-0.631512	-0.181526
C107	C	1.622099	-0.381512	0.068474
C108	C	1.872099	-0.131512	0.318474
C109	C	1.126710	-0.787109	-0.426945
C110	C	1.376710	-0.537109	-0.176945
C111	C	1.626710	-0.287109	0.073055
C112	C	1.876710	-0.037109	0.323055
C113	C	1.164499	-1.017237	-0.389108
C114	C	1.414499	-0.767237	-0.139108
C115	C	1.664499	-0.517237	0.110892
C116	C	1.914499	-0.267237	0.360892
C117	C	1.355829	-0.401788	-0.408169
C118	C	1.605829	-0.151788	-0.158169
C119	C	1.855829	0.098212	0.091831
C120	C	2.105829	0.348212	0.341831
C121	C	1.445449	-0.401805	-0.408176
C122	C	1.695449	-0.151805	-0.158176
C123	C	1.945449	0.098195	0.091824
C124	C	2.195449	0.348195	0.341824
C125	C	1.145447	-0.401713	-0.617639
C126	C	1.395447	-0.151713	-0.367639
C127	C	1.645447	0.098287	-0.117639
C128	C	1.895447	0.348287	0.132361
C129	C	1.145488	-0.401726	-0.707261
C130	C	1.395488	-0.151726	-0.457261
C131	C	1.645488	0.098274	-0.207261
C132	C	1.895488	0.348274	0.042739
C133	C	1.156142	-0.185146	-0.397513
C134	C	1.406142	0.064854	-0.147513
C135	C	1.656142	0.314854	0.102487
C136	C	1.906142	0.564854	0.352487
C137	C	1.160821	-0.092483	-0.392760
C138	C	1.410821	0.157517	-0.142760
C139	C	1.660821	0.407517	0.107240
C140	C	1.910821	0.657517	0.357240
C141	C	1.145624	-0.401813	-1.035441
C142	C	1.395624	-0.151813	-0.785441
C143	C	1.645624	0.098187	-0.535441
C144	C	1.895624	0.348187	-0.285441
C145	C	1.145584	-0.401791	-0.944131
C146	C	1.395584	-0.151791	-0.694131
C147	C	1.645584	0.098209	-0.444131
C148	C	1.895584	0.348209	-0.194131
C149	C	1.145555	-0.401769	-0.871354
C150	C	1.395555	-0.151769	-0.621354
C151	C	1.645555	0.098231	-0.371354
C152	C	1.895555	0.348231	-0.121354
C153	C	1.145516	-0.401748	-0.780039
C154	C	1.395516	-0.151748	-0.530039
C155	C	1.645516	0.098252	-0.280039
C156	C	1.895516	0.348252	-0.030039
C157	C	1.145618	-0.401801	-0.197844
C158	C	1.395618	-0.151801	0.052156
C159	C	1.645618	0.098199	0.302156
C160	C	1.895618	0.348199	0.552156
C161	C	1.145659	-0.401824	-0.108224
C162	C	1.395659	-0.151824	0.141776
C163	C	1.645659	0.098176	0.391776
C164	C	1.895659	0.348176	0.641776
H165	H	1.078384	-0.917041	-0.475196
H166	H	1.328384	-0.667041	-0.225196
H167	H	1.578384	-0.417041	0.024804
H168	H	1.828384	-0.167041	0.274804
C169	C	1.228159	-0.874829	-0.325533
C170	C	1.478159	-0.624829	-0.075533
C171	C	1.728159	-0.374829	0.174467
C172	C	1.978159	-0.124829	0.424467
N173	N	1.272638	-0.838669	-0.281100
N174	N	1.522638	-0.588669	-0.031100
N175	N	1.772638	-0.338669	0.218900
N176	N	2.022638	-0.088669	0.468900
