data_functionalizedCrystal
_audit_creation_method	'MofGen! by Chris Wilmer'
_symmetry_space_group_name_H-M	'P1'
_symmetry_Int_Tables_number	1
_symmetry_cell_setting	triclinic
loop_
_symmetry_equiv_pos_as_xyz
  x,y,z
_cell_length_a	18.101398
_cell_length_b	18.101397
_cell_length_c	17.077396
_cell_angle_alpha	89.966723
_cell_angle_beta	89.977519
_cell_angle_gamma	90.015732
loop_
_atom_site_label
_atom_site_type_symbol
_atom_site_fract_x
_atom_site_fract_y
_atom_site_fract_z
Zn1	Zn	1.132162	-0.294911	-0.443939
Zn2	Zn	1.465496	0.038422	-0.110605
Zn3	Zn	1.798829	0.371755	0.222728
Zn4	Zn	1.132085	-0.418763	-0.312665
Zn5	Zn	1.465418	-0.085430	0.020668
Zn6	Zn	1.798752	0.247903	0.354001
Zn7	Zn	1.008325	-0.294930	-0.312674
Zn8	Zn	1.341659	0.038403	0.020659
Zn9	Zn	1.674992	0.371737	0.353992
Zn10	Zn	1.008295	-0.418705	-0.443877
Zn11	Zn	1.341628	-0.085372	-0.110543
Zn12	Zn	1.674962	0.247961	0.222790
O13	O	1.070217	-0.356828	-0.378289
O14	O	1.403550	-0.023494	-0.044955
O15	O	1.736884	0.309839	0.288378
O16	O	1.235785	-0.311357	-0.426547
O17	O	1.569118	0.021976	-0.093214
O18	O	1.902452	0.355310	0.240119
O19	O	1.115648	-0.402369	-0.202820
O20	O	1.448982	-0.069036	0.130514
O21	O	1.782315	0.264298	0.463847
O22	O	1.024797	-0.191295	-0.330117
O23	O	1.358131	0.142039	0.003217
O24	O	1.691464	0.475372	0.336550
O25	O	1.235728	-0.402351	-0.330101
O26	O	1.569062	-0.069017	0.003232
O27	O	1.902395	0.264316	0.336565
O28	O	1.115780	-0.191281	-0.426556
O29	O	1.449113	0.142052	-0.093223
O30	O	1.782447	0.475386	0.240111
O31	O	1.024723	-0.311389	-0.202826
O32	O	1.358056	0.021944	0.130507
O33	O	1.691389	0.355278	0.463840
O34	O	0.904688	-0.311333	-0.330056
O35	O	1.238022	0.022001	0.003277
O36	O	1.571355	0.355334	0.336610
O37	O	1.024746	-0.402252	-0.553732
O38	O	1.358079	-0.068918	-0.220399
O39	O	1.691413	0.264415	0.112935
O40	O	0.904666	-0.402270	-0.426450
O41	O	1.237999	-0.068936	-0.093117
O42	O	1.571333	0.264397	0.240217
O43	O	1.115751	-0.311301	-0.553778
O44	O	1.449084	0.022033	-0.220444
O45	O	1.782417	0.355366	0.112889
O46	O	1.115619	-0.522389	-0.330041
O47	O	1.448952	-0.189055	0.003292
O48	O	1.782286	0.144278	0.336625
O49	O	1.024671	-0.522346	-0.426441
O50	O	1.358004	-0.189013	-0.093108
O51	O	1.691338	0.144321	0.240225
C52	C	0.877806	-0.356797	-0.378248
C53	C	1.211140	-0.023464	-0.044915
C54	C	1.544473	0.309869	0.288419
C55	C	0.795492	-0.356802	-0.378249
C56	C	1.128826	-0.023469	-0.044916
C57	C	1.462159	0.309864	0.288418
C58	C	0.496401	-0.356849	-0.378315
C59	C	0.829735	-0.023515	-0.044982
C60	C	1.163068	0.309818	0.288352
C61	C	0.527716	-0.299347	-0.317962
C62	C	0.861049	0.033986	0.015371
C63	C	1.194382	0.367319	0.348704
C64	C	0.613334	-0.299502	-0.317705
C65	C	0.946667	0.033832	0.015628
C66	C	1.280001	0.367165	0.348962
C67	C	0.644784	-0.356825	-0.378282
C68	C	0.978117	-0.023492	-0.044949
C69	C	1.311450	0.309842	0.288385
C70	C	0.613681	-0.434838	-0.355675
C71	C	0.947014	-0.101504	-0.022342
C72	C	1.280348	0.231829	0.310991
C73	C	0.528036	-0.434518	-0.355256
C74	C	0.861369	-0.101185	-0.021922
C75	C	1.194702	0.232149	0.311411
C76	C	0.528010	-0.337016	-0.461416
C77	C	0.861343	-0.003682	-0.128083
C78	C	1.194676	0.329651	0.205250
C79	C	0.613660	-0.335278	-0.460963
C80	C	0.946994	-0.001945	-0.127630
C81	C	1.280327	0.331388	0.205704
C82	C	0.728643	-0.356817	-0.378265
C83	C	1.061977	-0.023483	-0.044932
C84	C	1.395310	0.309850	0.288402
C85	C	0.412542	-0.356862	-0.378330
C86	C	0.745875	-0.023529	-0.044997
C87	C	1.079208	0.309804	0.288337
C88	C	1.070154	-0.549238	-0.378251
C89	C	1.403487	-0.215905	-0.044917
C90	C	1.736820	0.117429	0.288416
C91	C	1.070194	-0.631552	-0.378261
C92	C	1.403528	-0.298219	-0.044927
C93	C	1.736861	0.035114	0.288406
C94	C	1.070289	-0.930643	-0.378332
C95	C	1.403622	-0.597310	-0.044999
C96	C	1.736955	-0.263976	0.288334
C97	C	1.127351	-0.899314	-0.317517
C98	C	1.460685	-0.565981	0.015816
C99	C	1.794018	-0.232647	0.349149
C100	C	1.127549	-0.813695	-0.317675
C101	C	1.460882	-0.480362	0.015658
C102	C	1.794216	-0.147029	0.348992
C103	C	1.070242	-0.782261	-0.378296
C104	C	1.403575	-0.448927	-0.044963
C105	C	1.736909	-0.115594	0.288371
C106	C	1.091395	-0.813266	-0.461040
C107	C	1.424729	-0.479933	-0.127706
C108	C	1.758062	-0.146599	0.205627
C109	C	1.091837	-0.898911	-0.460708
C110	C	1.425170	-0.565578	-0.127375
C111	C	1.758503	-0.232244	0.205958
C112	C	0.991921	-0.899147	-0.357120
C113	C	1.325254	-0.565813	-0.023787
C114	C	1.658587	-0.232480	0.309547
C115	C	0.992308	-0.813497	-0.355273
C116	C	1.325641	-0.480164	-0.021940
C117	C	1.658974	-0.146831	0.311394
C118	C	1.070214	-0.698401	-0.378281
C119	C	1.403547	-0.365068	-0.044947
C120	C	1.736881	-0.031734	0.288386
C121	C	1.070318	-1.014503	-0.378353
C122	C	1.403652	-0.681169	-0.045020
C123	C	1.736985	-0.347836	0.288313
C124	C	1.263379	-0.356858	-0.378330
C125	C	1.596712	-0.023525	-0.044997
C126	C	1.930045	0.309808	0.288336
C127	C	1.345693	-0.356871	-0.378348
C128	C	1.679026	-0.023538	-0.045015
C129	C	2.012360	0.309795	0.288319
C130	C	1.070253	-0.356768	-0.583033
C131	C	1.403587	-0.023434	-0.249700
C132	C	1.736920	0.309899	0.083633
C133	C	1.070269	-0.356742	-0.670283
C134	C	1.403602	-0.023409	-0.336950
C135	C	1.736936	0.309925	-0.003616
C136	C	1.070301	-0.163666	-0.378344
C137	C	1.403634	0.169668	-0.045011
C138	C	1.736967	0.503001	0.288322
C139	C	1.070336	-0.081352	-0.378368
C140	C	1.403670	0.251982	-0.045034
C141	C	1.737003	0.585315	0.288299
C142	C	1.117681	-0.404029	-1.046097
C143	C	1.451015	-0.070696	-0.712763
C144	C	1.784348	0.262638	-0.379430
C145	C	1.117663	-0.404051	-0.964116
C146	C	1.450996	-0.070717	-0.630783
C147	C	1.784329	0.262616	-0.297450
C148	C	1.070317	-0.356690	-0.923132
C149	C	1.403650	-0.023356	-0.589799
C150	C	1.736983	0.309977	-0.256465
C151	C	1.022981	-0.309309	-0.964133
C152	C	1.356314	0.024024	-0.630799
C153	C	1.689648	0.357357	-0.297466
C154	C	1.022997	-0.309292	-1.046112
C155	C	1.356330	0.024041	-0.712778
C156	C	1.689663	0.357375	-0.379445
C157	C	1.022953	-0.309348	-0.793263
C158	C	1.356287	0.023986	-0.459929
C159	C	1.689620	0.357319	-0.126596
C160	C	1.022939	-0.309364	-0.711278
C161	C	1.356272	0.023969	-0.377945
C162	C	1.689605	0.357303	-0.044611
C163	C	1.117620	-0.404106	-0.711267
C164	C	1.450953	-0.070773	-0.377934
C165	C	1.784286	0.262561	-0.044600
C166	C	1.117635	-0.404089	-0.793246
C167	C	1.450968	-0.070755	-0.459913
C168	C	1.784302	0.262578	-0.126579
C169	C	1.070300	-0.356707	-0.834241
C170	C	1.403633	-0.023374	-0.500908
C171	C	1.736967	0.309959	-0.167574
C172	C	1.070223	-0.356834	-0.174341
C173	C	1.403556	-0.023501	0.158992
C174	C	1.736890	0.309833	0.492326
C175	C	1.070351	-0.356651	-0.087092
C176	C	1.403684	-0.023317	0.246242
C177	C	1.737018	0.310016	0.579575
H178	H	0.634052	-0.478828	-0.398257
H179	H	0.967386	-0.145495	-0.064924
H180	H	1.300719	0.187838	0.268410
Br181	Br	1.185802	-0.777428	-0.491497
Br182	Br	1.519136	-0.444095	-0.158164
Br183	Br	1.852469	-0.110761	0.175169
H184	H	0.947505	-0.792106	-0.396323
H185	H	1.280838	-0.458773	-0.062990
H186	H	1.614172	-0.125440	0.270343
Br187	Br	0.958734	-0.245023	-0.908513
Br188	Br	1.292068	0.088310	-0.575179
Br189	Br	1.625401	0.421643	-0.241846
Br190	Br	0.965716	-0.779731	-0.253783
Br191	Br	1.299049	-0.446398	0.079550
Br192	Br	1.632382	-0.113064	0.412883
Br193	Br	0.958724	-0.245032	-0.848898
Br194	Br	1.292057	0.088301	-0.515565
Br195	Br	1.625390	0.421634	-0.182232
H196	H	0.507134	-0.241321	-0.331977
H197	H	0.840468	0.092012	0.001356
H198	H	1.173801	0.425345	0.334689
Br199	Br	1.105436	-0.778756	-0.215430
Br200	Br	1.438770	-0.445423	0.117904
Br201	Br	1.772103	-0.112090	0.451237
H202	H	1.156161	-0.442686	-0.677885
H203	H	1.489495	-0.109352	-0.344552
H204	H	1.822828	0.223981	-0.011218
H205	H	0.633792	-0.312613	-0.256128
H206	H	0.967125	0.020720	0.077206
H207	H	1.300458	0.354053	0.410539
Br208	Br	0.649340	-0.399998	-0.539932
Br209	Br	0.982674	-0.066664	-0.206598
Br210	Br	1.316007	0.266669	0.126735
H211	H	0.635101	-0.451948	-0.295580
H212	H	0.968434	-0.118615	0.037753
H213	H	1.301767	0.214718	0.371087
Br214	Br	1.187312	-0.932122	-0.490655
Br215	Br	1.520646	-0.598788	-0.157322
Br216	Br	1.853979	-0.265455	0.176012
H217	H	0.506427	-0.281119	-0.481970
H218	H	0.839760	0.052214	-0.148636
H219	H	1.173093	0.385548	0.184697
H220	H	0.506171	-0.312311	-0.256744
H221	H	0.839504	0.021022	0.076590
H222	H	1.172837	0.354356	0.409923
Br223	Br	0.494685	-0.462550	-0.254000
Br224	Br	0.828019	-0.129217	0.079333
Br225	Br	1.161352	0.204117	0.412667
H226	H	0.507321	-0.478812	-0.397296
H227	H	0.840654	-0.145478	-0.063963
H228	H	1.173987	0.187855	0.269370
H229	H	0.633993	-0.277870	-0.478009
H230	H	0.967326	0.055463	-0.144676
H231	H	1.300660	0.388797	0.188657
H232	H	0.634363	-0.241652	-0.331876
H233	H	0.967697	0.091681	0.001458
H234	H	1.301030	0.425014	0.334791
Br235	Br	0.958762	-0.244988	-1.101749
Br236	Br	1.292095	0.088345	-0.768416
Br237	Br	1.625429	0.421678	-0.435082
Br238	Br	1.024236	-0.779338	-0.538596
Br239	Br	1.357569	-0.446005	-0.205263
Br240	Br	1.690902	-0.112671	0.128070
H241	H	1.156240	-0.442592	-1.079460
H242	H	1.489573	-0.109259	-0.746127
H243	H	1.822906	0.224074	-0.412793
H244	H	1.156195	-0.442640	-0.930742
H245	H	1.489528	-0.109306	-0.597408
H246	H	1.822862	0.224027	-0.264075
H247	H	0.507760	-0.378897	-0.506385
H248	H	0.841093	-0.045564	-0.173051
H249	H	1.174426	0.287769	0.160282
H250	H	1.114277	-0.919959	-0.255981
H251	H	1.447611	-0.586625	0.077352
H252	H	1.780944	-0.253292	0.410686
Br253	Br	1.223580	-0.935098	-0.340638
Br254	Br	1.556914	-0.601765	-0.007305
Br255	Br	1.890247	-0.268432	0.326028
H256	H	1.185600	-0.793156	-0.331711
H257	H	1.518933	-0.459823	0.001623
H258	H	1.852266	-0.126489	0.334956
Br259	Br	1.181894	-0.468361	-0.848867
Br260	Br	1.515228	-0.135028	-0.515534
Br261	Br	1.848561	0.198305	-0.182201
Br262	Br	1.025564	-0.933453	-0.538797
Br263	Br	1.358897	-0.600119	-0.205464
Br264	Br	1.692231	-0.266786	0.127870
H265	H	0.984388	-0.270796	-0.677911
H266	H	1.317721	0.062537	-0.344578
H267	H	1.651054	0.395870	-0.011244
H268	H	0.949405	-0.919407	-0.401414
H269	H	1.282738	-0.586073	-0.068081
H270	H	1.616071	-0.252740	0.265253
Br271	Br	0.959843	-0.935252	-0.258299
Br272	Br	1.293176	-0.601918	0.075034
Br273	Br	1.626509	-0.268585	0.408367
