data_functionalizedCrystal
_audit_creation_method	'MofGen! by Chris Wilmer'
_symmetry_space_group_name_H-M	'P1'
_symmetry_Int_Tables_number	1
_symmetry_cell_setting	triclinic
loop_
_symmetry_equiv_pos_as_xyz
  x,y,z
_cell_length_a	16.974885
_cell_length_b	16.992695
_cell_length_c	15.455301
_cell_angle_alpha	92.826871
_cell_angle_beta	89.355145
_cell_angle_gamma	87.023153
loop_
_atom_site_label
_atom_site_type_symbol
_atom_site_fract_x
_atom_site_fract_y
_atom_site_fract_z
O1	O	1.055361	0.099821	-0.001883
O2	O	0.826692	0.113236	0.014156
O3	O	0.940110	-0.007611	0.006194
O4	O	0.941944	0.220668	0.006079
O5	O	0.933554	-0.013714	-0.137609
O6	O	0.820137	0.107133	-0.129647
O7	O	1.048806	0.093718	-0.145686
Cu8	Cu	0.933873	0.099868	-0.150797
Cu9	Cu	0.941625	0.107086	0.019267
O10	O	0.935388	0.214564	-0.137724
C11	C	0.794020	0.109788	-0.055684
C12	C	0.706432	0.108599	-0.049540
C13	C	0.213795	0.102240	-0.006486
C14	C	0.296092	0.103357	-0.012270
C15	C	0.333659	0.100594	-0.093550
C16	C	0.288925	0.096706	-0.169051
C17	C	0.206629	0.095584	-0.163266
C18	C	0.579402	0.103589	-0.119256
C19	C	0.661703	0.104714	-0.125035
C20	C	0.668866	0.111363	0.031746
C21	C	0.586568	0.110245	0.037523
C22	C	0.541841	0.106353	-0.037977
N23	N	0.417780	0.101738	-0.099464
N24	N	0.457722	0.105204	-0.032063
C25	C	0.934473	-0.039865	-0.065542
C26	C	0.927436	-0.126881	-0.065048
C27	C	0.995334	-0.177399	-0.069811
C28	C	0.988718	-0.259158	-0.069339
C29	C	0.914203	-0.290398	-0.064109
C30	C	0.846300	-0.239873	-0.059343
C31	C	0.852917	-0.158116	-0.059809
C32	C	0.886776	-0.533883	-0.062174
C33	C	0.880164	-0.615648	-0.061711
C34	C	1.022583	-0.634926	-0.071705
C35	C	1.029193	-0.553166	-0.072176
C36	C	0.961291	-0.502649	-0.067405
N37	N	0.907438	-0.373969	-0.063629
N38	N	0.968057	-0.419079	-0.067879
C39	C	1.081478	0.097165	-0.075844
C40	C	1.169066	0.098355	-0.081982
C41	C	0.941025	0.246819	-0.065986
C42	C	0.948062	0.333835	-0.066474
N43	N	0.928425	0.094791	-0.270411
C44	C	0.977159	0.140249	-0.319217
C45	C	0.973050	0.136404	-0.409737
C46	C	0.920202	0.087105	-0.451449
C47	C	0.871467	0.041642	-0.402637
C48	C	0.875581	0.045483	-0.312119
C49	C	0.902456	0.070534	-0.721788
C50	C	0.898345	0.066698	-0.812313
C51	C	0.999929	0.161460	-0.819407
C52	C	1.004035	0.165300	-0.728886
C53	C	0.955302	0.119834	-0.680082
N54	N	0.915999	0.083176	-0.543975
N55	N	0.959510	0.123759	-0.587558
N56	N	0.947078	0.112157	0.138881
H57	H	0.170211	0.092428	-0.224743
H58	H	1.044008	-0.300287	-0.073220
H59	H	0.785628	-0.265315	-0.055080
C60	C	0.703028	0.101635	-0.214447
H61	H	0.664606	0.099139	-0.258585
H62	H	0.731860	0.147633	-0.219765
H63	H	0.738108	0.056212	-0.220154
H64	H	0.835896	0.008466	-0.272382
H65	H	0.542996	0.100408	-0.180735
H66	H	0.183214	0.104495	0.059700
C67	C	1.053535	0.211466	-0.873089
H68	H	1.085594	0.241380	-0.835281
H69	H	1.086180	0.177720	-0.910801
H70	H	1.021901	0.246163	-0.906293
C71	C	0.812089	-0.478321	-0.056926
H72	H	0.826697	-0.425153	-0.057940
H73	H	0.779456	-0.489887	-0.104942
H74	H	0.784040	-0.485634	-0.004641
H75	H	0.797627	-0.116984	-0.055930
C76	C	1.077300	-0.143038	-0.075567
H77	H	1.071518	-0.087111	-0.075171
H78	H	1.107761	-0.158267	-0.027396
H79	H	1.103183	-0.162532	-0.127697
H80	H	0.319518	0.094452	-0.235231
H81	H	0.862775	0.033511	-0.682063
C82	C	1.111160	-0.518807	-0.077917
H83	H	1.150652	-0.560604	-0.080677
H84	H	1.114420	-0.489443	-0.128451
H85	H	1.118983	-0.485185	-0.028150
C86	C	1.097269	-0.690495	-0.076940
H87	H	1.082659	-0.743662	-0.075905
H88	H	1.125329	-0.683191	-0.129213
H89	H	1.129892	-0.678922	-0.028912
C90	C	0.813334	-0.012585	-0.448518
H91	H	0.817857	-0.008356	-0.509418
H92	H	0.825273	-0.065643	-0.434479
H93	H	0.761000	0.002805	-0.429971
H94	H	0.855306	0.026553	-0.846272
C95	C	0.798195	-0.650009	-0.055943
H96	H	0.758702	-0.608214	-0.053158
H97	H	0.790359	-0.683635	-0.105698
H98	H	0.794953	-0.679370	-0.005399
H99	H	0.332507	0.106515	0.049206
C100	C	1.035296	0.194475	-0.273341
H101	H	1.063737	0.220990	-0.315376
H102	H	1.006881	0.232165	-0.235924
H103	H	1.071151	0.163713	-0.240433
C104	C	1.026647	0.186416	-0.463423
H105	H	1.016635	0.177065	-0.523307
H106	H	1.016046	0.240731	-0.447793
H107	H	1.080333	0.172296	-0.452299
C108	C	0.545252	0.113260	0.126931
H109	H	0.583679	0.115721	0.171066
H110	H	0.510156	0.158663	0.132687
H111	H	0.516440	0.067239	0.132204
C112	C	1.062171	0.219523	-0.683005
H113	H	1.057637	0.215303	-0.622105
H114	H	1.114503	0.204140	-0.701549
H115	H	1.050226	0.272585	-0.697045
C116	C	0.718067	0.115634	0.114789
H117	H	0.772460	0.115900	0.099706
H118	H	0.702918	0.162522	0.148174
H119	H	0.709185	0.071099	0.147714
