data_functionalizedCrystal
_audit_creation_method	'MofGen! by Chris Wilmer'
_symmetry_space_group_name_H-M	'P1'
_symmetry_Int_Tables_number	1
_symmetry_cell_setting	triclinic
loop_
_symmetry_equiv_pos_as_xyz
  x,y,z
_cell_length_a	12.594517
_cell_length_b	19.120786
_cell_length_c	12.594509
_cell_angle_alpha	92.474225
_cell_angle_beta	90.022214
_cell_angle_gamma	92.464501
loop_
_atom_site_label
_atom_site_type_symbol
_atom_site_fract_x
_atom_site_fract_y
_atom_site_fract_z
Zn1	Zn	1.609120	-0.279620	0.583761
Zn2	Zn	1.601387	-0.397091	0.398168
Zn3	Zn	1.431122	-0.279650	0.405785
Zn4	Zn	1.423486	-0.397041	0.576098
O5	O	1.516279	-0.338351	0.490953
O6	O	1.757040	-0.295212	0.559160
O7	O	1.578761	-0.381545	0.250230
O8	O	1.461166	-0.181355	0.435788
O9	O	1.751358	-0.381517	0.422806
O10	O	1.591940	-0.181334	0.566546
O11	O	1.453668	-0.295262	0.255826
O12	O	1.281164	-0.295213	0.428358
O13	O	1.448151	-0.381432	0.726063
O14	O	1.275554	-0.381461	0.553487
O15	O	1.584536	-0.295164	0.731692
O16	O	1.571356	-0.495375	0.415376
O17	O	1.440653	-0.495338	0.546101
C18	C	1.239739	-0.338335	0.490918
C19	C	1.121433	-0.338346	0.490928
C20	C	1.504366	-0.520842	0.479104
C21	C	1.499367	-0.598913	0.474070
C22	C	0.984440	-0.291384	0.423036
C23	C	1.056409	-0.274271	0.521271
C24	C	1.051037	-0.355428	0.392705
C25	C	0.982617	-0.321227	0.589293
C26	C	0.977237	-0.402413	0.460659
C27	C	1.049172	-0.385324	0.558959
C28	C	1.565055	-0.635519	0.539840
C29	C	1.560353	-0.708875	0.535112
C30	C	1.489968	-0.745623	0.464609
C31	C	1.424273	-0.709012	0.398837
C32	C	1.428970	-0.635658	0.403571
C33	C	1.472378	-0.967110	0.446912
C34	C	1.467688	-1.040469	0.442181
C35	C	1.603767	-1.040327	0.578458
C36	C	1.608463	-0.966971	0.583181
C37	C	1.542764	-0.930367	0.517413
C38	C	1.485163	-0.820605	0.459773
C39	C	1.547564	-0.855387	0.522256
C40	C	1.793899	-0.338366	0.490988
C41	C	1.912204	-0.338373	0.491003
C42	C	1.516354	-0.338289	0.768578
C43	C	1.516386	-0.338263	0.886885
C44	C	1.528268	-0.155146	0.502872
C45	C	1.533376	-0.077075	0.507951
C46	C	1.516268	-0.338361	0.214411
C47	C	1.516455	-0.338190	0.096117
C48	C	1.442231	-0.385158	0.953078
C49	C	1.538237	-0.402320	1.022758
C50	C	1.420458	-0.321058	1.028008
C51	C	1.612442	-0.355459	0.955004
C52	C	1.494599	-0.274167	0.960250
C53	C	1.590674	-0.291305	1.029899
H54	H	1.091030	-0.220099	0.546924
H55	H	0.955924	-0.251629	0.365667
N56	N	1.636967	-0.597996	0.611855
N57	N	1.695610	-0.630693	0.670572
H58	H	1.746400	-0.604194	0.721437
N59	N	1.714266	-0.373772	0.914988
N60	N	1.750385	-0.431704	0.934680
H61	H	1.822295	-0.444641	0.906415
H62	H	0.942576	-0.456567	0.434991
H63	H	1.476103	-0.220010	0.932631
H64	H	1.604867	-0.825464	0.579664
N65	N	0.945061	-0.303024	0.693578
N66	N	1.009763	-0.290068	0.767849
H67	H	0.983239	-0.277210	0.841499
N68	N	1.088806	-0.373524	0.288461
N69	N	1.068511	-0.336185	0.212595
H70	H	1.095189	-0.348957	0.138971
H71	H	1.375479	-0.605853	0.350016
N72	N	1.084764	-0.435122	0.631138
N73	N	1.181958	-0.443488	0.642295
H74	H	1.207110	-0.478644	0.693285
N75	N	1.627452	-0.746256	0.602309
N76	N	1.690291	-0.713437	0.665252
H77	H	1.737681	-0.739837	0.712716
H78	H	1.427859	-0.850533	0.402366
N79	N	1.363618	-0.434988	0.910892
N80	N	1.369258	-0.498409	0.929500
H81	H	1.313742	-0.533604	0.899706
N82	N	1.561417	-0.470278	1.057366
N83	N	1.577147	-0.518964	0.990544
H84	H	1.593512	-0.566961	1.014981
N85	N	1.669473	-0.241518	1.071837
N86	N	1.765119	-0.247962	1.048517
H87	H	1.820774	-0.212802	1.078136
N88	N	1.680370	-0.929447	0.655201
N89	N	1.739016	-0.962141	0.713919
H90	H	1.789806	-0.935640	0.764781
H91	H	1.339304	-0.306537	1.060038
H92	H	1.657255	-1.070139	0.632004
H93	H	1.410368	-1.070388	0.384768
H94	H	1.366960	-0.738938	0.341436
N95	N	1.405263	-0.929736	0.379727
N96	N	1.342429	-0.962558	0.316783
H97	H	1.295025	-0.936161	0.269329
