data_functionalizedCrystal
_audit_creation_method	'MofGen! by Chris Wilmer'
_symmetry_space_group_name_H-M	'P1'
_symmetry_Int_Tables_number	1
_symmetry_cell_setting	triclinic
loop_
_symmetry_equiv_pos_as_xyz
  x,y,z
_cell_length_a	27.732066
_cell_length_b	27.731993
_cell_length_c	15.455313
_cell_angle_alpha	92.646914
_cell_angle_beta	87.353257
_cell_angle_gamma	82.635246
loop_
_atom_site_label
_atom_site_type_symbol
_atom_site_fract_x
_atom_site_fract_y
_atom_site_fract_z
O1	O	-0.055267	-0.643076	-0.071890
O2	O	0.444733	-0.143076	0.428110
O3	O	-0.064039	-0.502280	-0.071942
O4	O	0.435961	-0.002280	0.428058
O5	O	0.010744	-0.577046	-0.071917
O6	O	0.510744	-0.077046	0.428083
O7	O	-0.130050	-0.568310	-0.071915
O8	O	0.369950	-0.068310	0.428085
O9	O	0.006485	-0.572771	0.072343
O10	O	0.506485	-0.072771	0.572343
O11	O	-0.068298	-0.498005	0.072318
O12	O	0.431702	0.001995	0.572318
O13	O	-0.059526	-0.638800	0.072370
O14	O	0.440474	-0.138800	0.572370
Cu15	Cu	-0.064301	-0.568012	0.085516
Cu16	Cu	0.435699	-0.068012	0.585516
Cu17	Cu	-0.059264	-0.573068	-0.085089
Cu18	Cu	0.440736	-0.073068	0.414911
O19	O	-0.134309	-0.564034	0.072345
O20	O	0.365691	-0.064034	0.572345
C21	C	-0.065988	-0.482136	0.000181
C22	C	0.434012	0.017864	0.500181
C23	C	-0.065445	-0.428480	0.000161
C24	C	0.434555	0.071520	0.500161
C25	C	0.026621	-0.574724	0.000210
C26	C	0.526621	-0.074724	0.500210
C27	C	0.080276	-0.574168	0.000203
C28	C	0.580276	-0.074168	0.500203
C29	C	0.457339	-0.526198	0.000185
C30	C	0.957339	-0.026198	0.500185
C31	C	0.255680	-0.528245	0.000183
C32	C	0.755680	-0.028245	0.500183
O33	O	0.224421	-0.491025	0.000134
O34	O	0.724421	0.008975	0.500134
N35	N	0.236560	-0.572580	0.000199
N36	N	0.736560	-0.072580	0.500199
C37	C	0.267860	-0.616407	0.000210
C38	C	0.767860	-0.116407	0.500210
O39	O	0.246971	-0.654164	0.000214
O40	O	0.746971	-0.154164	0.500214
C41	C	0.469519	-0.614359	0.000206
C42	C	0.969519	-0.114359	0.500206
C43	C	0.488635	-0.570021	0.000199
C44	C	0.988635	-0.070021	0.500199
C45	C	0.476456	-0.481863	0.000177
C46	C	0.976456	0.018137	0.500177
C47	C	0.526868	-0.481352	0.000182
C48	C	1.026868	0.018648	0.500182
C49	C	0.558163	-0.525175	0.000196
C50	C	1.058163	-0.025175	0.500196
C51	C	0.539046	-0.569509	0.000204
C52	C	1.039046	-0.069509	0.500204
C53	C	0.500817	-0.658185	0.000211
C54	C	1.000817	-0.158185	0.500211
C55	C	0.551235	-0.657669	0.000208
C56	C	1.051235	-0.157669	0.500208
C57	C	0.570350	-0.613331	0.000200
C58	C	1.070350	-0.113331	0.500200
C59	C	0.620753	-0.612821	0.000223
C60	C	1.120753	-0.112821	0.500223
N61	N	0.639873	-0.568486	0.000207
N62	N	1.139873	-0.068486	0.500207
C63	C	0.608577	-0.524663	0.000193
C64	C	1.108577	-0.024663	0.500193
C65	C	0.161985	-0.617479	0.000214
C66	C	0.661985	-0.117479	0.500214
C67	C	0.111571	-0.617991	0.000216
C68	C	0.611571	-0.117991	0.500216
C69	C	0.099394	-0.529829	0.000187
C70	C	0.599394	-0.029829	0.500187
C71	C	0.149810	-0.529317	0.000191
C72	C	0.649810	-0.029317	0.500191
C73	C	0.181105	-0.573144	0.000198
C74	C	0.681105	-0.073144	0.500198
C75	C	0.714446	-0.523592	0.000205
C76	C	1.214446	-0.023592	0.500205
C77	C	0.764863	-0.523084	0.000214
C78	C	1.264863	-0.023084	0.500214
C79	C	0.777035	-0.611245	0.000238
C80	C	1.277035	-0.111245	0.500238
C81	C	0.726623	-0.611753	0.000234
C82	C	1.226623	-0.111753	0.500234
C83	C	0.695329	-0.567923	0.000215
C84	C	1.195329	-0.067923	0.500215
O85	O	0.652041	-0.650021	0.000262
O86	O	1.152041	-0.150021	0.500262
O87	O	0.629476	-0.486912	0.000170
O88	O	1.129476	0.013088	0.500170
C89	C	0.406927	-0.526709	0.000180
C90	C	0.906927	-0.026709	0.500180
C91	C	0.387811	-0.571044	0.000188
C92	C	0.887811	-0.071044	0.500188
C93	C	0.419106	-0.614867	0.000202
C94	C	0.919106	-0.114867	0.500202
C95	C	0.337396	-0.571556	0.000191
C96	C	0.837396	-0.071556	0.500191
C97	C	0.306101	-0.527733	0.000177
C98	C	0.806101	-0.027733	0.500177
C99	C	0.325220	-0.483398	0.000161
C100	C	0.825220	0.016602	0.500161
C101	C	0.375632	-0.482886	0.000166
C102	C	0.875632	0.017114	0.500166
C103	C	0.399987	-0.659202	0.000218
C104	C	0.899987	-0.159202	0.500218
C105	C	0.349575	-0.659710	0.000213
C106	C	0.849575	-0.159710	0.500213
C107	C	0.318279	-0.615887	0.000200
C108	C	0.818279	-0.115887	0.500200
C109	C	-0.057577	-0.658945	0.000245
C110	C	0.442423	-0.158945	0.500245
C111	C	-0.058120	-0.712601	0.000259
C112	C	0.441880	-0.212601	0.500259
C113	C	0.849813	-0.566355	0.000218
C114	C	1.349813	-0.066355	0.500218
C115	C	0.796158	-0.566907	0.000228
C116	C	1.296158	-0.066907	0.500228
C117	C	-0.059194	-0.047649	-0.078433
C118	C	0.440806	0.452351	0.421567
C119	C	-0.061261	-0.249307	-0.078457
C120	C	0.438739	0.250693	0.421543
O121	O	-0.059534	-0.277362	-0.145336
O122	O	0.440466	0.222638	0.354664
N123	N	-0.063841	-0.272197	0.000178
N124	N	0.436159	0.227803	0.500178
C125	C	-0.065901	-0.244669	0.078824
C126	C	0.434099	0.255331	0.578824
O127	O	-0.068138	-0.268766	0.145707
O128	O	0.431862	0.231234	0.645707
C129	C	-0.063831	-0.043012	0.078847
C130	C	0.436169	0.456988	0.578847
C131	C	-0.061256	-0.020125	0.000207
C132	C	0.438744	0.479875	0.500207
C133	C	-0.056619	-0.024761	-0.157067
C134	C	0.443381	0.475239	0.342933
C135	C	-0.056105	0.025651	-0.157060
C136	C	0.443895	0.525651	0.342940
C137	C	-0.058167	0.053175	-0.078420
C138	C	0.441833	0.553175	0.421580
C139	C	-0.060742	0.030287	0.000213
C140	C	0.439258	0.530287	0.500213
C141	C	-0.065888	-0.015486	0.157492
C142	C	0.434112	0.484514	0.657492
C143	C	-0.065369	0.034931	0.157491
C144	C	0.434631	0.534931	0.657491
C145	C	-0.062794	0.057818	0.078851
C146	C	0.437206	0.557818	0.578851
C147	C	-0.062290	0.108223	0.078860
C148	C	0.437710	0.608223	0.578860
N149	N	-0.059710	0.131113	0.000226
N150	N	0.440290	0.631113	0.500226
C151	C	-0.057648	0.103589	-0.078415
C152	C	0.442352	0.603589	0.421585
C153	C	-0.066989	-0.350542	0.078807
C154	C	0.433011	0.149458	0.578807
C155	C	-0.067507	-0.400956	0.078801
C156	C	0.432493	0.099044	0.578801
C157	C	-0.062865	-0.405590	-0.078480
C158	C	0.437135	0.094410	0.421520
C159	C	-0.062351	-0.355175	-0.078474
C160	C	0.437649	0.144825	0.421526
C161	C	-0.064409	-0.327652	0.000172
C162	C	0.435591	0.172348	0.500172
C163	C	-0.056570	0.209458	-0.078395
C164	C	0.443430	0.709458	0.421605
C165	C	-0.056058	0.259875	-0.078381
C166	C	0.443942	0.759875	0.421619
C167	C	-0.060697	0.264504	0.078900
C168	C	0.439303	0.764504	0.578900
C169	C	-0.061211	0.214092	0.078887
C170	C	0.438789	0.714092	0.578887
C171	C	-0.059146	0.186570	0.000232
C172	C	0.440854	0.686570	0.500232
O173	O	-0.064010	0.136308	0.145704
O174	O	0.435990	0.636308	0.645704
O175	O	-0.055401	0.127694	-0.145288
O176	O	0.444599	0.627694	0.354712
C177	C	-0.059708	-0.098061	-0.078440
C178	C	0.440292	0.401939	0.421560
C179	C	-0.062284	-0.120949	0.000193
C180	C	0.437716	0.379051	0.500193
C181	C	-0.064346	-0.093425	0.078834
C182	C	0.435654	0.406575	0.578834
C183	C	-0.062802	-0.171362	0.000188
C184	C	0.437198	0.328638	0.500188
C185	C	-0.060740	-0.198886	-0.078452
C186	C	0.439260	0.301114	0.421548
C187	C	-0.058160	-0.175996	-0.157087
C188	C	0.441840	0.324004	0.342913
C189	C	-0.057646	-0.125585	-0.157080
C190	C	0.442354	0.374415	0.342920
C191	C	-0.066926	-0.116314	0.157468
C192	C	0.433074	0.383686	0.657468
C193	C	-0.067440	-0.166726	0.157455
C194	C	0.432560	0.333274	0.657455
C195	C	-0.065378	-0.194250	0.078815
C196	C	0.434622	0.305750	0.578815
N197	N	-0.067843	-0.564460	0.205511
N198	N	0.432157	-0.064460	0.705511
N199	N	-0.055718	-0.576625	-0.205083
N200	N	0.444282	-0.076625	0.294917
C201	C	-0.036084	-0.596234	0.250915
C202	C	0.463916	-0.096234	0.750915
C203	C	-0.038768	-0.593551	0.341722
C204	C	0.461232	-0.093551	0.841722
C205	C	-0.073212	-0.559097	0.387123
C206	C	0.426788	-0.059097	0.887123
C207	C	-0.104972	-0.527320	0.341712
C208	C	0.395028	-0.027320	0.841712
C209	C	-0.102287	-0.530000	0.250907
C210	C	0.397713	-0.030000	0.750907
C211	C	-0.084793	-0.547528	0.658701
C212	C	0.415207	-0.047528	1.158701
C213	C	-0.087477	-0.544851	0.749512
C214	C	0.412523	-0.044851	1.249512
C215	C	-0.021271	-0.611082	0.749517
C216	C	0.478729	-0.111082	1.249517
C217	C	-0.018590	-0.613762	0.658709
C218	C	0.481410	-0.113762	1.158709
C219	C	-0.050349	-0.581983	0.613306
C220	C	0.449651	-0.081983	1.113306
N221	N	-0.075957	-0.556356	0.479942
N222	N	0.424043	-0.056356	0.979942
N223	N	-0.047602	-0.584722	0.520489
N224	N	0.452398	-0.084722	1.020489
H225	H	0.780424	-0.486977	0.000212
H226	H	1.280424	0.013023	0.500212
H227	H	-0.069612	-0.419585	0.142838
H228	H	0.430388	0.080415	0.642838
H229	H	0.073905	-0.494147	0.000180
H230	H	0.573905	0.005853	0.500180
H231	H	-0.054888	0.187055	-0.142442
H232	H	0.445112	0.687055	0.357558
H233	H	-0.128147	-0.504126	0.213939
H234	H	0.371853	-0.004126	0.713939
H235	H	0.711058	-0.647857	0.000252
H236	H	1.211058	-0.147857	0.500252
H237	H	0.009457	-0.641817	0.621746
H238	H	0.509457	-0.141817	1.121746
H239	H	0.096011	-0.654095	0.000235
H240	H	0.596011	-0.154095	0.500235
H241	H	-0.062378	0.286924	0.142926
H242	H	0.437622	0.786924	0.642926
H243	H	0.542427	-0.445247	0.000169
H244	H	1.042427	0.054753	0.500169
H245	H	-0.115528	-0.516792	0.786473
H246	H	0.384472	-0.016792	1.286473
H247	H	0.165370	-0.493213	0.000189
H248	H	0.665370	0.006787	0.500189
H249	H	-0.053962	0.278508	-0.142422
H250	H	0.446038	0.778508	0.357578
H251	H	-0.110653	-0.521653	0.621741
H252	H	0.389347	-0.021653	1.121741
H253	H	0.004586	-0.636955	0.786492
H254	H	0.504586	-0.136955	1.286492
H255	H	-0.012907	-0.619424	0.378691
H256	H	0.487093	-0.119424	0.878691
H257	H	-0.133017	-0.499264	0.378682
H258	H	0.366983	0.000736	0.878682
H259	H	0.688972	-0.487900	0.000189
H260	H	1.188972	0.012100	0.500189
H261	H	-0.054005	0.044281	-0.221097
H262	H	0.445995	0.544281	0.278903
H263	H	-0.069541	-0.185356	0.221498
H264	H	0.430459	0.314644	0.721498
H265	H	0.450980	-0.446175	0.000163
H266	H	0.950980	0.053825	0.500163
H267	H	0.485262	-0.694290	0.000216
H268	H	0.985262	-0.194290	0.500216
H269	H	0.187462	-0.653170	0.000220
H270	H	0.687462	-0.153170	0.500220
H271	H	0.576713	-0.693359	0.000208
H272	H	1.076713	-0.193359	0.500208
H273	H	0.802525	-0.646925	0.000253
H274	H	1.302525	-0.146925	0.500253
H275	H	0.391191	-0.446781	0.000161
H276	H	0.891191	0.053219	0.500161
H277	H	0.299731	-0.447715	0.000155
H278	H	0.799731	0.052285	0.500155
H279	H	-0.055549	-0.106954	-0.221117
H280	H	0.444451	0.393046	0.278883
H281	H	-0.056484	-0.198415	-0.221118
H282	H	0.443516	0.301585	0.278882
H283	H	-0.063318	0.195457	0.142922
H284	H	0.436682	0.695457	0.642922
H285	H	-0.068602	-0.093909	0.221508
H286	H	0.431398	0.406091	0.721508
H287	H	0.334016	-0.695818	0.000226
H288	H	0.834016	-0.195818	0.500226
H289	H	-0.068663	-0.328137	0.142853
H290	H	0.431337	0.171863	0.642853
H291	H	0.425463	-0.694889	0.000228
H292	H	0.925463	-0.194889	0.500228
H293	H	-0.054938	-0.047166	-0.221109
H294	H	0.445062	0.452834	0.278891
H295	H	-0.060254	-0.336543	-0.142509
H296	H	0.439746	0.163457	0.357491
H297	H	-0.067984	-0.034113	0.221529
H298	H	0.432016	0.465887	0.721529
H299	H	-0.061188	-0.428009	-0.142512
H300	H	0.438812	0.071991	0.357488
H301	H	-0.008038	-0.624292	0.213956
H302	H	0.491962	-0.124292	0.713956
H303	H	-0.067050	0.057338	0.221535
H304	H	0.432950	0.557338	0.721535
