data_functionalizedCrystal
_audit_creation_method	'MofGen! by Chris Wilmer'
_symmetry_space_group_name_H-M	'P1'
_symmetry_Int_Tables_number	1
_symmetry_cell_setting	triclinic
loop_
_symmetry_equiv_pos_as_xyz
  x,y,z
_cell_length_a	11.792241
_cell_length_b	14.472310
_cell_length_c	11.792241
_cell_angle_alpha	89.998842
_cell_angle_beta	95.806584
_cell_angle_gamma	90.008847
loop_
_atom_site_label
_atom_site_type_symbol
_atom_site_fract_x
_atom_site_fract_y
_atom_site_fract_z
O1	O	1.506924	0.076752	-0.155560
O2	O	2.006924	0.576752	0.344440
O3	O	1.176583	0.076773	-0.171593
O4	O	1.676583	0.576773	0.328407
O5	O	1.349770	0.076755	0.001594
O6	O	1.849770	0.576755	0.501594
O7	O	1.333737	0.076769	-0.328747
O8	O	1.833737	0.576769	0.171253
O9	O	1.349725	-0.076927	0.001584
O10	O	1.849725	0.423073	0.501584
O11	O	1.176538	-0.076909	-0.171603
O12	O	1.676538	0.423091	0.328397
O13	O	1.506879	-0.076930	-0.155570
O14	O	2.006879	0.423070	0.344430
Cu15	Cu	1.341704	-0.090952	-0.163587
Cu16	Cu	1.841704	0.409048	0.336413
Cu17	Cu	1.341757	0.090795	-0.163576
Cu18	Cu	1.841757	0.590795	0.336424
O19	O	1.333692	-0.076913	-0.328757
O20	O	1.833692	0.423087	0.171243
C21	C	1.134269	-0.000065	-0.170591
C22	C	1.634269	0.499935	0.329409
C23	C	1.008255	-0.000057	-0.167576
C24	C	1.508255	0.499943	0.332424
N25	N	1.341675	-0.218783	-0.163595
N26	N	1.841675	0.281217	0.336405
C27	C	0.777543	-0.000084	-0.162034
C28	C	1.277543	0.499916	0.337966
C29	C	0.905928	-0.000069	-0.165113
C30	C	1.405928	0.499931	0.334887
C31	C	1.341756	-0.592874	-0.163571
C32	C	1.841756	-0.092874	0.336429
C33	C	1.248772	-0.553699	-0.255925
C34	C	1.748772	-0.053699	0.244075
C35	C	1.248990	-0.446611	-0.256266
C36	C	1.748990	0.053389	0.243734
C37	C	1.341715	-0.407283	-0.163583
C38	C	1.841715	0.092717	0.336417
C39	C	1.460302	-0.446127	-0.190178
C40	C	1.960302	0.053873	0.309822
C41	C	1.459780	-0.553248	-0.190836
C42	C	1.959780	-0.053248	0.309164
C43	C	1.317207	-0.553407	-0.044353
C44	C	1.817207	-0.053407	0.455647
C45	C	1.314496	-0.446279	-0.045130
C46	C	1.814496	0.053721	0.454870
C47	C	1.341699	-0.302395	-0.163587
C48	C	1.841699	0.197605	0.336413
C49	C	1.341779	-0.697762	-0.163569
C50	C	1.841779	-0.197762	0.336431
C51	C	1.549192	-0.000090	-0.156572
C52	C	2.049192	0.499910	0.343428
C53	C	1.675206	-0.000092	-0.159587
C54	C	2.175206	0.499908	0.340413
C55	C	1.348740	-0.000085	0.043880
C56	C	1.848740	0.499915	0.543880
C57	C	1.345726	-0.000084	0.169894
C58	C	1.845726	0.499916	0.669894
N59	N	1.341795	0.218626	-0.163559
N60	N	1.841795	0.718626	0.336441
C61	C	1.334721	-0.000070	-0.371043
C62	C	1.834721	0.499930	0.128957
C63	C	1.337736	-0.000065	-0.497057
C64	C	1.837736	0.499935	0.002943
C65	C	1.340183	-0.000068	0.400606
C66	C	1.840183	0.499932	0.900606
C67	C	1.343262	-0.000077	0.272221
C68	C	1.843262	0.499923	0.772221
H69	H	1.160865	-0.420350	-0.240313
H70	H	1.660865	0.079650	0.259687
H71	H	1.264311	-0.580606	-0.343881
H72	H	1.764311	-0.080606	0.156119
Cl73	Cl	1.273265	-0.407023	-0.392846
Cl74	Cl	1.773265	0.092977	0.107154
H75	H	1.481302	-0.578222	-0.277803
H76	H	1.981302	-0.078222	0.222197
H77	H	1.377765	-0.419512	0.026872
H78	H	1.877765	0.080488	0.526872
Cl79	Cl	1.569733	-0.406799	-0.089135
Cl80	Cl	2.069733	0.093201	0.410865
Cl81	Cl	1.421882	-0.592520	0.061771
Cl82	Cl	1.921882	-0.092520	0.561771
Cl83	Cl	1.112267	-0.593483	-0.231670
Cl84	Cl	1.612267	-0.093483	0.268330
Cl85	Cl	1.494299	-0.404693	-0.322926
Cl86	Cl	1.994299	0.095307	0.177074
Cl87	Cl	1.569770	-0.593261	-0.090880
Cl88	Cl	2.069770	-0.093261	0.409120
Cl89	Cl	1.186512	-0.595157	-0.005170
Cl90	Cl	1.686512	-0.095157	0.494830
H91	H	1.227258	-0.420892	-0.024964
H92	H	1.727258	0.079108	0.475036
