data_functionalizedCrystal
_audit_creation_method	'MofGen! by Chris Wilmer'
_symmetry_space_group_name_H-M	'P1'
_symmetry_Int_Tables_number	1
_symmetry_cell_setting	triclinic
loop_
_symmetry_equiv_pos_as_xyz
  x,y,z
_cell_length_a	15.944551
_cell_length_b	15.944551
_cell_length_c	13.596369
_cell_angle_alpha	89.993059
_cell_angle_beta	89.999164
_cell_angle_gamma	83.498738
loop_
_atom_site_label
_atom_site_type_symbol
_atom_site_fract_x
_atom_site_fract_y
_atom_site_fract_z
O1	O	1.114525	0.108333	-0.081691
O2	O	1.614525	0.608333	0.418309
O3	O	0.869975	0.121690	-0.081716
O4	O	1.369975	0.621690	0.418284
O5	O	0.998928	-0.007263	-0.081694
O6	O	1.498928	0.492737	0.418306
O7	O	0.985572	0.237286	-0.081713
O8	O	1.485572	0.737286	0.418287
O9	O	0.998915	-0.007270	0.081889
O10	O	1.498915	0.492730	0.581889
O11	O	0.869963	0.121683	0.081867
O12	O	1.369963	0.621683	0.581867
O13	O	1.114512	0.108327	0.081892
O14	O	1.614512	0.608327	0.581892
Zn15	Zn	0.992235	0.115004	0.107852
Zn16	Zn	1.492235	0.615004	0.607852
Zn17	Zn	0.992252	0.115013	-0.107676
Zn18	Zn	1.492252	0.615013	0.392324
O19	O	0.985559	0.237280	0.081870
O20	O	1.485559	0.737280	0.581870
C21	C	0.838675	0.121132	0.000073
C22	C	1.338675	0.621132	0.500073
C23	C	0.745429	0.119470	0.000064
C24	C	1.245429	0.619470	0.500064
C25	C	0.530572	0.035565	0.000089
C26	C	1.030572	0.535565	0.500089
C27	C	0.469558	0.074531	-0.080569
C28	C	0.969558	0.574531	0.419431
C29	C	0.574703	0.116462	0.000075
C30	C	1.074703	0.616462	0.500075
C31	C	0.469568	0.074543	0.080711
C32	C	0.969568	0.574543	0.580711
C33	C	0.409790	0.113551	0.000091
C34	C	0.909790	0.613551	0.500091
C35	C	0.514917	0.155450	-0.080649
C36	C	1.014917	0.655450	0.419351
C37	C	0.514933	0.155451	0.080703
C38	C	1.014933	0.655451	0.580703
C39	C	0.453937	0.194476	0.000025
C40	C	0.953937	0.694476	0.500025
C41	C	0.669705	0.118137	0.000065
C42	C	1.169705	0.618137	0.500065
C43	C	0.314789	0.111883	0.000094
C44	C	0.814789	0.611883	0.500094
C45	C	0.998367	-0.038561	0.000098
C46	C	1.498367	0.461439	0.500098
C47	C	0.996705	-0.131807	0.000098
C48	C	1.496705	0.368193	0.500098
C49	C	0.912801	-0.346663	0.000076
C50	C	1.412801	0.153337	0.500076
C51	C	0.951757	-0.407684	0.080736
C52	C	1.451757	0.092316	0.580736
C53	C	0.993698	-0.302533	0.000090
C54	C	1.493698	0.197467	0.500090
C55	C	0.951789	-0.407661	-0.080544
C56	C	1.451789	0.092339	0.419456
C57	C	0.990787	-0.467445	0.000078
C58	C	1.490787	0.032555	0.500078
C59	C	1.032676	-0.362325	0.080817
C60	C	1.532676	0.137675	0.580817
C61	C	1.032697	-0.362295	-0.080535
C62	C	1.532697	0.137705	0.419465
C63	C	1.071711	-0.423298	0.000145
C64	C	1.571711	0.076702	0.500145
C65	C	0.995372	-0.207530	0.000098
C66	C	1.495372	0.292470	0.500098
C67	C	0.989119	-0.562446	0.000078
C68	C	1.489119	-0.062446	0.500078
C69	C	1.145813	0.108885	0.000101
C70	C	1.645813	0.608885	0.500101
C71	C	1.239059	0.110547	0.000104
C72	C	1.739059	0.610547	0.500104
C73	C	0.986120	0.268577	0.000076
C74	C	1.486120	0.768577	0.500076
C75	C	0.987782	0.361823	0.000069
C76	C	1.487782	0.861823	0.500069
N77	N	0.992230	0.114997	0.254944
N78	N	1.492230	0.614997	0.754944
N79	N	0.992264	0.115013	-0.254767
N80	N	1.492264	0.615013	0.245233
C81	C	0.992251	0.115014	0.656235
C82	C	1.492251	0.615014	1.156235
C83	C	0.992243	0.115012	0.544583
C84	C	1.492243	0.615012	1.044583
C85	C	0.992241	0.115006	0.455593
C86	C	1.492241	0.615006	0.955593
C87	C	0.992232	0.115003	0.343934
C88	C	1.492232	0.615003	0.843934
H89	H	0.420779	0.261683	-0.000025
H90	H	0.920779	0.761683	0.499975
H91	H	0.917567	-0.427735	-0.148740
H92	H	1.417567	0.072265	0.351260
Cl93	Cl	0.546011	0.208231	0.185982
Cl94	Cl	1.046011	0.708231	0.685982
Cl95	Cl	0.438550	0.021692	0.185990
Cl96	Cl	0.938550	0.521692	0.685990
Cl97	Cl	1.175472	-0.474497	0.000221
Cl98	Cl	1.675472	0.025503	0.500221
H99	H	0.563905	-0.031573	-0.000005
H100	H	1.063905	0.468427	0.499995
Cl101	Cl	0.545780	0.208241	-0.186047
Cl102	Cl	1.045780	0.708241	0.313953
H103	H	0.449454	0.040318	-0.148754
H104	H	0.949454	0.540318	0.351246
Cl105	Cl	0.809130	-0.295238	0.000183
Cl106	Cl	1.309130	0.204762	0.500183
H107	H	1.066858	-0.342337	0.149084
H108	H	1.566858	0.157663	0.649084
Cl109	Cl	0.898924	-0.438735	0.186009
Cl110	Cl	1.398924	0.061265	0.686009
Cl111	Cl	1.085487	-0.331207	-0.185814
Cl112	Cl	1.585487	0.168793	0.314186
