data_functionalizedCrystal
_audit_creation_method	'MofGen! by Chris Wilmer'
_symmetry_space_group_name_H-M	'P1'
_symmetry_Int_Tables_number	1
_symmetry_cell_setting	triclinic
loop_
_symmetry_equiv_pos_as_xyz
  x,y,z
_cell_length_a	8.559649
_cell_length_b	10.723023
_cell_length_c	9.198806
_cell_angle_alpha	90.002425
_cell_angle_beta	90.003321
_cell_angle_gamma	77.123106
loop_
_atom_site_label
_atom_site_type_symbol
_atom_site_fract_x
_atom_site_fract_y
_atom_site_fract_z
O1	O	2.119663	-0.042289	0.120869
O2	O	1.655165	0.022086	0.120876
O3	O	1.898129	-0.192777	0.120866
O4	O	1.876699	0.172573	0.120878
O5	O	1.898111	-0.192776	-0.120919
O6	O	1.655146	0.022086	-0.120909
O7	O	2.119645	-0.042289	-0.120916
Cu8	Cu	1.887394	-0.010102	-0.142990
Cu9	Cu	1.887415	-0.010102	0.142949
O10	O	1.876681	0.172573	-0.120907
C11	C	1.595679	0.026964	-0.000016
C12	C	1.418458	0.041486	-0.000013
C13	C	1.896561	-0.239116	-0.000025
C14	C	1.891895	-0.377192	-0.000020
C15	C	1.889825	-0.438745	0.125234
C16	C	1.885003	-0.581454	0.125242
C17	C	2.179130	-0.047168	-0.000022
C18	C	2.356351	-0.061689	-0.000015
C19	C	1.878249	0.218913	-0.000013
C20	C	1.882914	0.356989	-0.000008
N21	N	1.887391	-0.010103	-0.344104
C22	C	1.989656	-0.100517	-0.583709
C23	C	1.989635	-0.100513	-0.416296
N24	N	1.887431	-0.010111	0.344063
H25	H	1.891615	-0.385790	0.232462
H26	H	2.077148	-0.177917	-0.354183
C27	C	1.467678	-0.196036	-0.000026
N28	N	1.551540	-0.297227	-0.000038
C29	C	1.769172	0.094459	-0.572046
N30	N	1.680093	0.173223	-0.508861
H31	H	1.336042	0.140935	-0.000002
C32	C	2.107914	-0.205088	-0.667600
N33	N	2.196987	-0.283856	-0.730785
C34	C	1.882598	-0.652961	0.270116
N35	N	1.880783	-0.706823	0.379240
H36	H	1.884703	-0.590087	-0.107248
H37	H	1.890088	-0.430144	-0.107249
H38	H	1.799861	0.067297	-0.406207
