data_functionalizedCrystal
_audit_creation_method	'MofGen! by Chris Wilmer'
_symmetry_space_group_name_H-M	'P1'
_symmetry_Int_Tables_number	1
_symmetry_cell_setting	triclinic
loop_
_symmetry_equiv_pos_as_xyz
  x,y,z
_cell_length_a	10.654556
_cell_length_b	10.654551
_cell_length_c	9.130313
_cell_angle_alpha	89.998309
_cell_angle_beta	89.996068
_cell_angle_gamma	84.486385
loop_
_atom_site_label
_atom_site_type_symbol
_atom_site_fract_x
_atom_site_fract_y
_atom_site_fract_z
O1	O	1.667836	0.176435	-0.121804
O2	O	1.302358	0.193233	-0.121803
O3	O	1.493499	0.002095	-0.121804
O4	O	1.476695	0.367573	-0.121803
O5	O	1.493486	0.002089	0.121795
O6	O	1.302345	0.193227	0.121796
O7	O	1.667822	0.176429	0.121795
Cu8	Cu	1.485083	0.184828	0.144038
Cu9	Cu	1.485098	0.184835	-0.144046
O10	O	1.476681	0.367567	0.121796
C11	C	1.255554	0.191995	-0.000003
C12	C	1.116111	0.188300	-0.000003
C13	C	0.919588	0.183104	-0.132801
C14	C	1.050610	0.186568	-0.132795
C15	C	1.050584	0.186555	0.132790
C16	C	0.919565	0.183081	0.132782
C17	C	0.919603	0.183117	-0.286135
C18	C	1.050626	0.186581	-0.286128
C19	C	1.492259	-0.044706	-0.000008
C20	C	1.488566	-0.184149	-0.000018
C21	C	1.486841	-0.249658	-0.132801
C22	C	1.483361	-0.380678	-0.132794
C23	C	1.483336	-0.380670	0.132790
C24	C	1.486807	-0.249651	0.132782
C25	C	1.486861	-0.249665	-0.286135
C26	C	1.483381	-0.380685	-0.286128
C27	C	1.714627	0.177667	-0.000008
C28	C	1.854070	0.181362	-0.000018
C29	C	1.477922	0.414368	-0.000003
C30	C	1.481615	0.553811	-0.000003
N31	N	1.485081	0.184822	0.346660
N32	N	1.485110	0.184830	-0.346669
C33	C	1.569747	0.100222	0.423312
C34	C	1.569759	0.100223	0.576649
C35	C	1.400435	0.269434	0.576669
C36	C	1.400418	0.269427	0.423335
H37	H	1.075462	0.275266	-0.344985
H38	H	1.391787	-0.410253	-0.333719
H39	H	1.638683	0.031331	0.360887
O40	O	0.857840	0.289882	-0.342648
C41	C	0.706250	0.468927	-0.300100
C42	C	0.776135	0.348063	-0.235911
H43	H	0.640156	0.515988	-0.213844
H44	H	0.777644	0.536473	-0.334386
H45	H	0.649148	0.443745	-0.399645
H46	H	0.833236	0.373128	-0.136324
H47	H	0.704677	0.280551	-0.201728
O48	O	1.318029	0.351491	0.651093
C49	C	1.100302	0.423089	0.697994
C50	C	1.193486	0.330067	0.613648
H51	H	0.999590	0.405818	0.667728
H52	H	1.114751	0.408563	0.820770
H53	H	1.117593	0.523826	0.667850
H54	H	1.176252	0.229293	0.643670
H55	H	1.179015	0.344703	0.490893
O56	O	1.596201	-0.214321	-0.342652
C57	C	1.782098	-0.107357	-0.300117
C58	C	1.658322	-0.147332	-0.235920
H59	H	1.832346	-0.053166	-0.213865
H60	H	1.845436	-0.194752	-0.334403
H61	H	1.760096	-0.044479	-0.399662
H62	H	1.680208	-0.210181	-0.136332
H63	H	1.595022	-0.059882	-0.201736
O64	O	1.112125	0.079821	-0.342995
C65	C	1.093482	-0.124421	-0.449656
C66	C	1.023673	-0.003574	-0.385332
H67	H	1.022002	-0.191890	-0.483876
H68	H	1.150629	-0.099341	-0.549222
H69	H	1.159519	-0.171534	-0.363384
H70	H	0.957573	0.043598	-0.471497
H71	H	0.966608	-0.028734	-0.285736
H72	H	1.638700	0.031332	0.639054
O73	O	1.114180	0.188005	0.261823
C74	C	1.167460	0.080478	0.488852
C75	C	1.095407	0.078661	0.342759
H76	H	1.152285	-0.007903	0.554344
H77	H	1.272383	0.083174	0.466138
H78	H	1.130979	0.167571	0.554276
H79	H	1.131781	-0.008419	0.277262
H80	H	0.990493	0.076031	0.365577
O81	O	1.586891	-0.435766	-0.356546
C82	C	1.705174	-0.454301	-0.581738
C83	C	1.587923	-0.391807	-0.502161
H84	H	1.706033	-0.418804	-0.699491
H85	H	1.793908	-0.429457	-0.522997
H86	H	1.702338	-0.560989	-0.581657
H87	H	1.590636	-0.285108	-0.502220
H88	H	1.499240	-0.416752	-0.560928
H89	H	1.331466	0.338319	0.360922
O90	O	1.481411	-0.444216	0.261825
C91	C	1.371754	-0.470952	0.488856
C92	C	1.373762	-0.398915	0.342759
H93	H	1.284742	-0.434335	0.554346
H94	H	1.368891	-0.575853	0.466146
H95	H	1.460209	-0.455939	0.554279
H96	H	1.285326	-0.413825	0.277262
H97	H	1.376691	-0.294039	0.365572
O98	O	0.855759	0.181531	0.261670
C99	C	0.694578	0.286211	0.415854
C100	C	0.766723	0.288116	0.269818
H101	H	0.622595	0.372389	0.422503
H102	H	0.643882	0.196898	0.422480
H103	H	0.763923	0.287972	0.510747
H104	H	0.697463	0.286402	0.174842
H105	H	0.817439	0.377421	0.263320
H106	H	0.894782	0.094444	-0.345014
O107	O	1.383361	-0.194597	-0.356568
C108	C	1.265119	-0.176090	-0.581772
C109	C	1.382361	-0.238566	-0.502178
H110	H	1.264285	-0.211594	-0.699520
H111	H	1.176378	-0.200940	-0.523035
H112	H	1.267943	-0.069399	-0.581704
H113	H	1.379660	-0.345266	-0.502223
H114	H	1.471051	-0.213614	-0.560940
H115	H	1.488205	-0.196318	0.240907
