data_functionalizedCrystal
_audit_creation_method	'MofGen! by Chris Wilmer'
_symmetry_space_group_name_H-M	'P1'
_symmetry_Int_Tables_number	1
_symmetry_cell_setting	triclinic
loop_
_symmetry_equiv_pos_as_xyz
  x,y,z
_cell_length_a	12.759395
_cell_length_b	16.120531
_cell_length_c	12.759387
_cell_angle_alpha	92.860081
_cell_angle_beta	90.020509
_cell_angle_gamma	87.066275
loop_
_atom_site_label
_atom_site_type_symbol
_atom_site_fract_x
_atom_site_fract_y
_atom_site_fract_z
Zn1	Zn	1.584938	0.331828	0.615141
Zn2	Zn	2.084938	0.831828	1.115141
Zn3	Zn	1.575865	0.471265	0.448343
Zn4	Zn	2.075865	0.971265	0.948343
Zn5	Zn	1.409233	0.331874	0.439481
Zn6	Zn	1.909233	0.831874	0.939481
Zn7	Zn	1.400269	0.471205	0.623978
Zn8	Zn	1.900269	0.971205	1.123978
O9	O	1.492576	0.401543	0.531736
O10	O	1.992576	0.901543	1.031736
O11	O	1.730755	0.350331	0.593025
O12	O	2.230755	0.850331	1.093025
O13	O	1.553715	0.452818	0.300149
O14	O	2.053715	0.952818	0.800149
O15	O	1.440089	0.215202	0.455375
O16	O	1.940089	0.715202	0.955375
O17	O	1.724089	0.452774	0.470480
O18	O	2.224089	0.952774	0.970480
O19	O	1.569179	0.215169	0.584432
O20	O	2.069179	0.715169	1.084432
O21	O	1.431292	0.350408	0.293638
O22	O	1.931292	0.850408	0.793638
O23	O	1.261023	0.350351	0.463944
O24	O	1.761023	0.850351	0.963944
O25	O	1.424811	0.452673	0.769824
O26	O	1.924811	0.952673	1.269824
O27	O	1.254437	0.452717	0.599494
O28	O	1.754437	0.952717	1.099494
O29	O	1.560486	0.350273	0.763332
O30	O	2.060486	0.850273	1.263332
O31	O	1.545023	0.587922	0.479049
O32	O	2.045023	1.087922	0.979049
O33	O	1.416013	0.587879	0.608087
O34	O	1.916013	1.087879	1.108087
C35	C	1.219609	0.401533	0.531717
C36	C	1.719609	0.901533	1.031717
C37	C	1.102832	0.401549	0.531735
C38	C	1.602832	0.901549	1.031735
C39	C	1.478589	0.618150	0.545512
C40	C	1.978589	1.118150	1.045512
C41	C	1.472702	0.710816	0.551440
C42	C	1.972702	1.210816	1.051440
C43	C	1.096001	0.508315	0.672677
C44	C	1.596001	1.008315	1.172677
C45	C	1.037724	0.561705	0.743151
C46	C	1.537724	1.061705	1.243151
C47	C	0.928002	0.561715	0.743164
C48	C	1.428002	1.061715	1.243164
C49	C	0.876554	0.508328	0.672698
C50	C	1.376554	1.008328	1.172698
C51	C	0.934831	0.454938	0.602224
C52	C	1.434831	0.954938	1.102224
C53	C	1.044555	0.454935	0.602216
C54	C	1.544555	0.954935	1.102216
C55	C	0.941662	0.348169	0.461290
C56	C	1.441662	0.848169	0.961290
C57	C	1.051384	0.348161	0.461269
C58	C	1.551384	0.848161	0.961269
C59	C	0.890214	0.294781	0.390823
C60	C	1.390214	0.794781	0.890823
C61	C	0.948490	0.241394	0.320343
C62	C	1.448490	0.741394	0.820343
C63	C	1.058219	0.241387	0.320331
C64	C	1.558219	0.741387	0.820331
C65	C	1.109660	0.294771	0.390795
C66	C	1.609660	0.794771	0.890795
C67	C	1.461959	0.880477	0.562285
C68	C	1.961959	1.380477	1.062285
C69	C	1.523232	0.921768	0.501127
C70	C	2.023232	1.421768	1.001127
C71	C	1.517255	1.016174	0.507161
C72	C	2.017255	1.516174	1.007161
C73	C	1.467935	0.786063	0.556252
C74	C	1.967935	1.286063	1.056252
C75	C	1.766609	0.401554	0.531755
C76	C	2.266609	0.901554	1.031755
C77	C	1.883385	0.401558	0.531764
C78	C	2.383385	0.901558	1.031764
C79	C	1.492661	0.401461	0.805764
C80	C	1.992661	0.901461	1.305764
C81	C	1.492697	0.401426	0.922539
C82	C	1.992697	0.901426	1.422539
C83	C	1.506609	1.184090	0.517910
C84	C	2.006609	1.684090	1.017910
C85	C	1.512493	1.091424	0.511969
C86	C	2.012493	1.591424	1.011969
C87	C	1.492556	0.401564	0.258770
C88	C	1.992556	0.901564	0.758770
C89	C	1.492739	0.401364	0.141981
C90	C	1.992739	0.901364	0.641981
C91	C	1.633984	0.294805	0.915798
C92	C	2.133984	0.794805	1.415798
C93	C	1.704644	0.241481	0.967288
C94	C	2.204644	0.741481	1.467288
C95	C	1.704671	0.241451	1.077008
C96	C	2.204671	0.741451	1.577008
C97	C	1.634030	0.294748	1.135240
C98	C	2.134030	0.794748	1.635240
C99	C	1.563370	0.348071	1.083751
C100	C	2.063370	0.848071	1.583751
C101	C	1.563353	0.348098	0.974028
C102	C	2.063353	0.848098	1.474028
C103	C	1.422079	0.454688	1.090491
C104	C	1.922079	0.954688	1.590491
C105	C	1.422055	0.454723	0.980772
C106	C	1.922055	0.954723	1.480772
C107	C	1.351438	0.507985	1.148724
C108	C	1.851438	1.007985	1.648724
C109	C	1.280782	0.561314	1.097234
C110	C	1.780782	1.061314	1.597234
C111	C	1.280758	0.561342	0.987508
C112	C	1.780758	1.061342	1.487508
C113	C	1.351396	0.508047	0.929282
C114	C	1.851396	1.008047	1.429282
H115	H	1.185342	0.508318	0.672665
H116	H	1.685342	1.008318	1.172665
H117	H	1.580178	0.886218	0.444235
H118	H	2.080178	1.386218	0.944235
H119	H	1.634050	0.294711	1.224579
H120	H	2.134050	0.794711	1.724579
H121	H	1.351462	0.507953	1.238063
H122	H	1.851462	1.007953	1.738063
H123	H	1.351388	0.508069	0.839942
H124	H	1.851388	1.008069	1.339942
H125	H	1.405016	0.916025	0.619171
H126	H	1.905016	1.416025	1.119171
H127	H	1.079626	0.605170	0.800524
H128	H	1.579626	1.105170	1.300524
H129	H	1.633978	0.294832	0.826459
H130	H	2.133978	0.794832	1.326459
H131	H	1.199001	0.294773	0.390790
H132	H	1.699001	0.794773	0.890790
H133	H	1.762157	0.198086	0.919863
H134	H	2.262157	0.698086	1.419863
H135	H	1.762202	0.198025	1.118930
H136	H	2.262202	0.698025	1.618930
H137	H	1.223266	0.604699	1.144656
H138	H	1.723266	1.104699	1.644656
H139	H	1.223208	0.604756	0.945591
H140	H	1.723208	1.104756	1.445591
H141	H	0.880554	0.605186	0.800555
H142	H	1.380554	1.105186	1.300555
H143	H	0.800872	0.294790	0.390844
H144	H	1.300872	0.794790	0.890844
H145	H	0.787213	0.508334	0.672724
H146	H	1.287213	1.008334	1.172724
H147	H	1.105662	0.197905	0.262949
H148	H	1.605662	0.697905	0.762949
H149	H	0.906593	0.197927	0.262980
H150	H	1.406593	0.697927	0.762980
