data_functionalizedCrystal
_audit_creation_method	'MofGen! by Chris Wilmer'
_symmetry_space_group_name_H-M	'P1'
_symmetry_Int_Tables_number	1
_symmetry_cell_setting	triclinic
loop_
_symmetry_equiv_pos_as_xyz
  x,y,z
_cell_length_a	6.817900
_cell_length_b	10.943925
_cell_length_c	10.943624
_cell_angle_alpha	91.772910
_cell_angle_beta	108.838799
_cell_angle_gamma	108.844289
loop_
_atom_site_label
_atom_site_type_symbol
_atom_site_fract_x
_atom_site_fract_y
_atom_site_fract_z
V1	V	-4.115532	-0.178599	-0.402534
O2	O	-4.073202	0.008617	-0.394889
O3	O	-4.093518	-0.354165	-0.399763
O4	O	-4.093494	-0.175837	-0.578100
O5	O	-4.073227	-0.170946	-0.215317
V6	V	-4.592325	-0.156208	-0.380143
O7	O	-4.391553	-0.227716	-0.451649
O8	O	-4.766501	-0.107090	-0.331028
O9	O	-4.391132	0.019359	-0.382914
O10	O	-4.752051	-0.343424	-0.387788
O11	O	-4.752026	-0.163861	-0.567359
O12	O	-4.391156	-0.158970	-0.204576
C13	C	-3.944085	-0.396965	-0.393408
C14	C	-4.007548	-0.540493	-0.392314
C15	C	-4.274915	-0.717225	-0.397745
C16	C	-4.085582	-0.611235	-0.288089
C17	C	-4.196062	-0.644571	-0.501935
C18	C	-3.931139	-0.690208	-0.280609
C19	C	-4.041699	-0.723567	-0.494552
C20	C	-3.852230	-0.617606	-0.384865
C21	C	-3.944052	-0.169487	-0.620894
C22	C	-4.007492	-0.168390	-0.764420
C23	C	-3.852320	-0.161003	-0.841568
C24	C	-4.041701	-0.270649	-0.947548
C25	C	-3.931176	-0.056802	-0.914182
C26	C	-4.196083	-0.278139	-0.868523
C27	C	-4.085478	-0.064195	-0.835134
C28	C	-4.274995	-0.173872	-0.941083
C29	C	-4.203907	0.062152	-0.389265
C30	C	-4.119684	0.205678	-0.390368
C31	C	-4.203939	-0.165324	-0.161776
C32	C	-4.119737	-0.166414	-0.018248
H33	H	-4.103473	-0.562326	-0.200807
H34	H	-4.103238	0.023090	-0.786158
C35	C	-3.780726	0.069576	-0.942181
C36	C	-3.528913	0.100640	-0.896645
C37	C	-3.378450	0.227010	-0.924641
C38	C	-3.479799	0.322318	-0.998174
C39	C	-3.731625	0.291257	-1.043715
C40	C	-3.882089	0.164887	-1.015718
H41	H	-3.453876	0.030085	-0.842207
H42	H	-3.192031	0.250003	-0.890928
H43	H	-3.368417	0.415865	-1.018898
H44	H	-3.806662	0.361812	-1.098152
H45	H	-4.068508	0.141894	-1.049431
H46	H	-4.454311	-0.179339	-0.984327
C47	C	-4.017652	-0.789699	-0.612469
C48	C	-4.154149	-0.780089	-0.752267
C49	C	-4.130130	-0.846227	-0.870197
C50	C	-3.969613	-0.921976	-0.848330
C51	C	-3.833104	-0.931589	-0.708527
C52	C	-3.857123	-0.865451	-0.590597
H53	H	-4.272983	-0.724012	-0.768459
H54	H	-4.231183	-0.839110	-0.973689
H55	H	-3.951832	-0.970935	-0.935629
H56	H	-3.714270	-0.987666	-0.692334
H57	H	-3.756070	-0.872568	-0.487105
C58	C	-4.346522	-0.616586	-0.628309
C59	C	-4.598343	-0.662182	-0.659378
C60	C	-4.748817	-0.634202	-0.785744
C61	C	-4.647470	-0.560626	-0.881042
C62	C	-4.395635	-0.515026	-0.849976
C63	C	-4.245161	-0.543006	-0.723609
H64	H	-4.673378	-0.716652	-0.588831
H65	H	-4.935242	-0.667959	-0.808741
H66	H	-4.758860	-0.539914	-0.974586
H67	H	-4.320600	-0.460556	-0.920523
H68	H	-4.058736	-0.509249	-0.700612
H69	H	-4.454119	-0.760720	-0.403043
H70	H	-3.819723	-0.710753	-0.186971
H71	H	-3.672911	-0.574321	-0.379394
H72	H	-3.673119	-0.155709	-0.798120
H73	H	-4.023857	-0.357930	-0.996488
H74	H	-4.307485	-0.371785	-0.847969
