data_functionalizedCrystal
_audit_creation_method	'MofGen! by Chris Wilmer'
_symmetry_space_group_name_H-M	'P1'
_symmetry_Int_Tables_number	1
_symmetry_cell_setting	triclinic
loop_
_symmetry_equiv_pos_as_xyz
  x,y,z
_cell_length_a	14.971486
_cell_length_b	9.616153
_cell_length_c	14.971486
_cell_angle_alpha	89.997534
_cell_angle_beta	96.385871
_cell_angle_gamma	90.001911
loop_
_atom_site_label
_atom_site_type_symbol
_atom_site_fract_x
_atom_site_fract_y
_atom_site_fract_z
O1	O	1.186948	0.115486	-0.116559
O2	O	0.926548	0.115524	-0.130518
O3	O	1.063727	0.115494	0.006662
O4	O	1.049769	0.115516	-0.253739
O5	O	1.063709	-0.115797	0.006659
O6	O	0.926529	-0.115767	-0.130521
O7	O	1.186929	-0.115805	-0.116562
Zn8	Zn	1.056726	-0.152509	-0.123542
Zn9	Zn	1.056751	0.152228	-0.123538
O10	O	1.049750	-0.115775	-0.253742
C11	C	0.893214	-0.000117	-0.129895
C12	C	0.793917	-0.000102	-0.128024
N13	N	1.056716	-0.360483	-0.123544
C14	C	0.736691	-0.000098	-0.208614
C15	C	0.643392	-0.000118	-0.206850
C16	C	0.607320	-0.000134	-0.124497
C17	C	0.664552	-0.000143	-0.043902
C18	C	0.757850	-0.000132	-0.045666
C19	C	0.470090	-0.000163	-0.040231
C20	C	0.376786	-0.000171	-0.038466
C21	C	0.355632	-0.000149	-0.201415
C22	C	0.448930	-0.000138	-0.203179
C23	C	0.506156	-0.000144	-0.122584
C24	C	0.983114	-0.580837	-0.196683
C25	C	0.983272	-0.419669	-0.196954
C26	C	1.150069	-0.418944	-0.144030
C27	C	1.149667	-0.580162	-0.144547
C28	C	1.037898	-0.580399	-0.029674
C29	C	1.035747	-0.419172	-0.030300
C30	C	1.220263	-0.000161	-0.117185
C31	C	1.319561	-0.000166	-0.119056
C32	C	1.063094	-0.000151	0.039985
C33	C	1.061223	-0.000149	0.139282
N34	N	1.056769	0.360202	-0.123529
C35	C	1.050384	-0.000127	-0.287065
C36	C	1.052254	-0.000119	-0.386362
C37	C	1.141812	-0.000162	0.196507
C38	C	1.140049	-0.000148	0.289807
C39	C	1.057696	-0.000131	0.325879
C40	C	0.977101	-0.000114	0.268646
C41	C	0.978865	-0.000118	0.175349
C42	C	0.973430	-0.000108	0.463109
C43	C	0.971665	-0.000107	0.556413
C44	C	1.134614	-0.000138	0.577567
C45	C	1.136378	-0.000142	0.484269
C46	C	1.055782	-0.000128	0.427043
H47	H	0.766054	-0.000084	-0.275675
H48	H	0.995327	-0.381086	-0.266602
H49	H	0.913240	-0.000107	0.128756
H50	H	1.205673	-0.000161	0.336396
H51	H	0.596802	-0.000113	-0.272474
H52	H	0.907800	-0.000093	0.416517
H53	H	0.478296	-0.000112	-0.270239
H54	H	0.995008	-0.621332	-0.265937
H55	H	0.347419	-0.000186	0.028593
H56	H	1.166280	-0.617747	-0.212998
H57	H	1.203437	-0.000166	0.454903
H58	H	1.208874	-0.000184	0.167145
H59	H	1.091610	-0.618527	0.024767
H60	H	0.516682	-0.000170	0.025399
H61	H	1.085896	-0.378888	0.026695
H62	H	0.910047	-0.000091	0.298024
H63	H	0.635175	-0.000176	0.023152
H64	H	0.804443	-0.000135	0.019958
H65	H	0.904606	-0.000115	0.585780
H66	H	0.309033	-0.000150	-0.267039
H67	H	0.967075	-0.380963	-0.014756
H68	H	0.913885	-0.380146	-0.184734
H69	H	1.206186	-0.380604	-0.092171
H70	H	0.913507	-0.619639	-0.184661
H71	H	1.206192	-0.619162	-0.093371
H72	H	1.167071	-0.378551	-0.211703
H73	H	1.200238	-0.000145	0.624165
H74	H	0.971304	-0.621128	-0.009999
