data_functionalizedCrystal
_audit_creation_method	'MofGen! by Chris Wilmer'
_symmetry_space_group_name_H-M	'P1'
_symmetry_Int_Tables_number	1
_symmetry_cell_setting	triclinic
loop_
_symmetry_equiv_pos_as_xyz
  x,y,z
_cell_length_a	18.215407
_cell_length_b	19.121449
_cell_length_c	18.215399
_cell_angle_alpha	92.467880
_cell_angle_beta	90.019833
_cell_angle_gamma	87.585577
loop_
_atom_site_label
_atom_site_type_symbol
_atom_site_fract_x
_atom_site_fract_y
_atom_site_fract_z
Zn1	Zn	1.137562	-0.279608	0.403625
Zn2	Zn	1.637562	0.220392	0.903625
Zn3	Zn	1.142717	-0.397061	0.275311
Zn4	Zn	1.642717	0.102939	0.775311
Zn5	Zn	1.014496	-0.279631	0.280571
Zn6	Zn	1.514496	0.220369	0.780571
Zn7	Zn	1.019706	-0.397022	0.398338
Zn8	Zn	1.519706	0.102978	0.898338
O9	O	1.078620	-0.338330	0.339461
O10	O	1.578620	0.161670	0.839461
O11	O	1.241231	-0.295195	0.386615
O12	O	1.741231	0.204805	0.886615
O13	O	1.125685	-0.381510	0.173023
O14	O	1.625685	0.118490	0.673023
O15	O	1.026483	-0.181345	0.301308
O16	O	1.526483	0.318655	0.801308
O17	O	1.245018	-0.381487	0.292343
O18	O	1.745018	0.118513	0.792343
O19	O	1.116899	-0.181328	0.391715
O20	O	1.616899	0.318672	0.891715
O21	O	1.031482	-0.295234	0.176888
O22	O	1.531482	0.204766	0.676888
O23	O	0.912202	-0.295196	0.296182
O24	O	1.412202	0.204804	0.796182
O25	O	1.035362	-0.381421	0.502025
O26	O	1.535362	0.118579	1.002025
O27	O	0.916030	-0.381443	0.382704
O28	O	1.416030	0.118557	0.882704
O29	O	1.121951	-0.295157	0.505909
O30	O	1.621951	0.204843	1.005909
O31	O	1.130737	-0.495339	0.287217
O32	O	1.630737	0.004661	0.787217
O33	O	1.040361	-0.495310	0.377604
O34	O	1.540361	0.004690	0.877604
C35	C	0.887413	-0.338318	0.339440
C36	C	1.387413	0.161682	0.839440
C37	C	0.805615	-0.338330	0.339448
C38	C	1.305615	0.161670	0.839448
C39	C	0.619437	-0.383309	0.384439
C40	C	1.119437	0.116691	0.884439
C41	C	0.542578	-0.383312	0.384448
C42	C	1.042578	0.116688	0.884448
C43	C	0.538556	-0.293364	0.294499
C44	C	1.038556	0.206636	0.794499
C45	C	0.615414	-0.293359	0.294494
C46	C	1.115414	0.206641	0.794494
C47	C	0.655852	-0.338336	0.339463
C48	C	1.155852	0.161664	0.839463
C49	C	0.502136	-0.338343	0.339477
C50	C	1.002136	0.161657	0.839477
C51	C	0.418802	-0.338345	0.339486
C52	C	0.918802	0.161655	0.839486
C53	C	0.739191	-0.338333	0.339455
C54	C	1.239191	0.161667	0.839455
C55	C	1.086694	-0.520808	0.331282
C56	C	1.586694	-0.020808	0.831282
C57	C	1.090215	-0.598873	0.327808
C58	C	1.590215	-0.098873	0.827808
C59	C	1.044783	-0.635558	0.373196
C60	C	1.544783	-0.135558	0.873196
C61	C	1.048095	-0.708908	0.369929
C62	C	1.548095	-0.208908	0.869929
C63	C	1.096843	-0.745571	0.321276
C64	C	1.596843	-0.245571	0.821276
C65	C	1.142277	-0.708881	0.275883
C66	C	1.642277	-0.208881	0.775883
C67	C	1.138961	-0.635532	0.279147
C68	C	1.638961	-0.135532	0.779147
C69	C	1.109207	-0.967036	0.309064
C70	C	1.609207	-0.467036	0.809064
C71	C	1.112522	-1.040390	0.305805
C72	C	1.612522	-0.540390	0.805805
C73	C	1.018339	-1.040413	0.399851
C74	C	1.518339	-0.540413	0.899851
C75	C	1.015030	-0.967063	0.403114
C76	C	1.515030	-0.467063	0.903114
C77	C	1.060461	-0.930378	0.357718
C78	C	1.560461	-0.430378	0.857718
C79	C	1.100231	-0.820547	0.317937
C80	C	1.600231	-0.320547	0.817937
C81	C	1.057069	-0.855404	0.361054
C82	C	1.557069	-0.355404	0.861054
C83	C	1.270574	-0.338343	0.339482
C84	C	1.770574	0.161657	0.839482
C85	C	1.352373	-0.338348	0.339491
C86	C	1.852373	0.161652	0.839491
C87	C	1.078663	-0.338282	0.531416
C88	C	1.578663	0.161718	1.031416
C89	C	1.078681	-0.338261	0.613216
C90	C	1.578681	0.161739	1.113216
C91	C	1.070535	-0.155140	0.347688
C92	C	1.570535	0.344860	0.847688
C93	C	1.067090	-0.077076	0.351194
C94	C	1.567090	0.422924	0.851194
C95	C	1.078618	-0.338328	0.148255
C96	C	1.578618	0.161672	0.648255
C97	C	1.078733	-0.338151	0.066464
C98	C	1.578733	0.161849	0.566464
C99	C	1.123783	-0.293302	0.803436
C100	C	1.623783	0.206698	1.303436
C101	C	1.123791	-0.293281	0.880295
C102	C	1.623791	0.206719	1.380295
C103	C	1.033626	-0.383112	0.876239
C104	C	1.533626	0.116888	1.376239
C105	C	1.033615	-0.383128	0.799381
C106	C	1.533615	0.116872	1.299381
C107	C	1.078698	-0.338224	0.762981
C108	C	1.578698	0.161776	1.262981
C109	C	1.078717	-0.338188	0.916699
C110	C	1.578717	0.161812	1.416699
C111	C	1.078725	-0.338166	1.000034
C112	C	1.578725	0.161834	1.500034
C113	C	1.078689	-0.338245	0.679641
C114	C	1.578689	0.161755	1.179641
H115	H	0.645063	-0.256732	0.257870
H116	H	1.145063	0.243268	0.757870
H117	H	0.505622	-0.256747	0.257886
H118	H	1.005622	0.243253	0.757886
Cl119	Cl	0.976959	-0.439563	0.922004
Cl120	Cl	1.476959	0.060437	1.422004
Cl121	Cl	0.983500	-0.589474	0.434367
Cl122	Cl	1.483500	-0.089474	0.934367
H123	H	1.017375	-0.825551	0.400664
H124	H	1.517375	-0.325551	0.900664
Cl125	Cl	1.180479	-0.236811	0.931149
Cl126	Cl	1.680479	0.263189	1.431149
H127	H	0.975336	-0.937213	0.442731
H128	H	1.475336	-0.437213	0.942731
H129	H	0.996896	-0.419709	0.766442
H130	H	1.496896	0.080291	1.266442
Cl131	Cl	1.203560	-0.754972	0.214719
Cl132	Cl	1.703560	-0.254972	0.714719
H133	H	0.512932	-0.419933	0.421073
H134	H	1.012932	0.080067	0.921073
Cl135	Cl	0.670270	-0.439848	0.440973
Cl136	Cl	1.170270	0.060152	0.940973
H137	H	1.011093	-0.738774	0.406883
H138	H	1.511093	-0.238774	0.906883
Cl139	Cl	0.961227	-1.086534	0.456914
Cl140	Cl	1.461227	-0.586534	0.956914
H141	H	1.152222	-1.070239	0.266187
H142	H	1.652222	-0.570239	0.766187
Cl143	Cl	1.166334	-0.920928	0.252007
Cl144	Cl	1.666334	-0.420928	0.752007
Cl145	Cl	1.196073	-0.589413	0.222080
Cl146	Cl	1.696073	-0.089413	0.722080
H147	H	1.160490	-0.256736	0.773801
H148	H	1.660490	0.243264	1.273801
H149	H	1.139922	-0.850406	0.278324
H150	H	1.639922	-0.350406	0.778324
