data_functionalizedCrystal
_audit_creation_method	'MofGen! by Chris Wilmer'
_symmetry_space_group_name_H-M	'P1'
_symmetry_Int_Tables_number	1
_symmetry_cell_setting	triclinic
loop_
_symmetry_equiv_pos_as_xyz
  x,y,z
_cell_length_a	12.837943
_cell_length_b	12.811487
_cell_length_c	8.140239
_cell_angle_alpha	95.428989
_cell_angle_beta	89.998362
_cell_angle_gamma	89.413002
loop_
_atom_site_label
_atom_site_type_symbol
_atom_site_fract_x
_atom_site_fract_y
_atom_site_fract_z
O1	O	1.376633	0.272971	-0.095912
O2	O	1.074769	0.259487	-0.097931
O3	O	1.233293	0.114199	-0.119563
O4	O	1.218109	0.418260	-0.074280
O5	O	1.233284	0.114196	0.153664
O6	O	1.074760	0.259484	0.175296
O7	O	1.376624	0.272969	0.177315
Zn8	Zn	1.225691	0.266226	0.219686
Zn9	Zn	1.225702	0.266230	-0.140302
O10	O	1.218100	0.418257	0.198947
C11	C	1.036124	0.254930	0.038003
C12	C	0.920988	0.241344	0.035975
C13	C	0.680737	0.404672	0.060323
C14	C	0.572556	0.391912	0.058419
C15	C	0.596443	0.203065	0.030277
C16	C	0.704624	0.215825	0.032181
C17	C	0.746767	0.316632	0.047201
C18	C	0.854950	0.329391	0.049093
C19	C	0.878835	0.140545	0.020962
C20	C	0.770654	0.127784	0.019059
C21	C	1.232437	0.075008	0.011211
C22	C	1.229886	-0.041763	-0.006191
C23	C	1.225103	-0.261205	0.259012
C24	C	1.222707	-0.370922	0.242670
C25	C	1.222705	-0.370916	-0.055217
C26	C	1.225101	-0.261199	-0.038874
C27	C	1.226299	-0.206347	0.118245
C28	C	1.228688	-0.096628	0.134586
C29	C	1.228693	-0.096624	-0.163298
C30	C	1.226297	-0.206341	-0.179641
C31	C	1.415269	0.277525	0.041378
C32	C	1.530404	0.291111	0.043395
C33	C	1.218956	0.457447	0.068170
C34	C	1.221506	0.574219	0.085560
N35	N	1.225690	0.266224	0.465368
N36	N	1.225711	0.266224	-0.385985
H37	H	0.889260	0.411473	0.061326
O38	O	1.229992	-0.043236	0.287120
C39	C	1.322464	0.077661	0.478065
C40	C	1.321104	0.017282	0.305252
H41	H	1.396132	0.126587	0.492793
H42	H	1.251146	0.131449	0.493563
H43	H	1.321149	0.019578	0.575827
H44	H	1.322455	0.075289	0.207385
H45	H	1.392416	-0.036522	0.289896
H46	H	1.221741	-0.415596	-0.183136
H47	H	0.715049	0.486753	0.072551
H48	H	0.518797	0.463604	0.069109
H49	H	1.225326	-0.251017	-0.307563
H50	H	0.562111	0.120992	0.018184
H51	H	0.736326	0.045710	0.006848
O52	O	1.221716	-0.424268	0.379355
C53	C	1.308693	-0.551120	0.533297
C54	C	1.309960	-0.490755	0.378448
H55	H	1.380018	-0.604905	0.532598
H56	H	1.310023	-0.493119	0.648458
H57	H	1.235045	-0.600079	0.533415
H58	H	1.383596	-0.441794	0.378170
H59	H	1.308574	-0.548811	0.263357
O60	O	0.943082	0.055094	0.008006
C61	C	1.079031	-0.040127	-0.147809
C62	C	1.006351	0.056700	-0.133300
H63	H	1.130188	-0.038872	-0.262066
H64	H	1.130351	-0.038893	-0.033363
H65	H	1.030299	-0.114347	-0.158791
H66	H	1.055001	0.130970	-0.122369
H67	H	0.955027	0.055373	-0.247750
H68	H	1.226051	-0.216543	0.386945
H69	H	1.229654	-0.051947	-0.277921
