data_functionalizedCrystal
_audit_creation_method	'MofGen! by Chris Wilmer'
_symmetry_space_group_name_H-M	'P1'
_symmetry_Int_Tables_number	1
_symmetry_cell_setting	triclinic
loop_
_symmetry_equiv_pos_as_xyz
  x,y,z
_cell_length_a	14.519731
_cell_length_b	10.489741
_cell_length_c	13.596369
_cell_angle_alpha	89.994306
_cell_angle_beta	90.006433
_cell_angle_gamma	95.885987
loop_
_atom_site_label
_atom_site_type_symbol
_atom_site_fract_x
_atom_site_fract_y
_atom_site_fract_z
O1	O	-1.224768	0.167333	-0.081816
O2	O	-0.724768	0.667333	0.418184
O3	O	-0.956401	0.186995	-0.081813
O4	O	-0.456401	0.686995	0.418187
O5	O	-1.096691	-0.008497	-0.081809
O6	O	-0.596691	0.491503	0.418191
O7	O	-1.084478	0.362825	-0.081820
O8	O	-0.584478	0.862825	0.418180
O9	O	-1.096677	-0.008507	0.081774
O10	O	-0.596677	0.491493	0.581774
O11	O	-0.956387	0.186984	0.081770
O12	O	-0.456387	0.686984	0.581770
O13	O	-1.224754	0.167323	0.081767
O14	O	-0.724754	0.667323	0.581767
Zn15	Zn	-1.090568	0.177152	0.107741
Zn16	Zn	-0.590568	0.677152	0.607741
Zn17	Zn	-1.090587	0.177166	-0.107787
Zn18	Zn	-0.590587	0.677166	0.392213
O19	O	-1.084464	0.362814	0.081763
O20	O	-0.584464	0.862814	0.581763
C21	C	-0.922029	0.186068	-0.000021
C22	C	-0.422029	0.686068	0.499979
C23	C	-0.819634	0.183308	-0.000019
C24	C	-0.319634	0.683308	0.499981
C25	C	-0.736478	0.181064	-0.000021
C26	C	-0.236478	0.681064	0.499979
C27	C	-0.632154	0.178261	-0.000020
C28	C	-0.132154	0.678261	0.499980
C29	C	-0.549003	0.176037	-0.000018
C30	C	-0.049003	0.676037	0.499982
C31	C	-0.444672	0.173234	-0.000018
C32	C	0.055328	0.673234	0.499982
C33	C	-1.095762	-0.056024	-0.000018
C34	C	-0.595762	0.443976	0.499982
C35	C	-1.093002	-0.197625	-0.000019
C36	C	-0.593002	0.302375	0.499981
C37	C	-1.003739	-0.264844	-0.000025
C38	C	-0.503739	0.235156	0.499975
C39	C	-1.045899	-0.357407	0.080629
C40	C	-0.545899	0.142593	0.580629
C41	C	-1.045934	-0.357372	-0.080651
C42	C	-0.545934	0.142628	0.419349
C43	C	-1.135198	-0.288323	0.080701
C44	C	-0.635198	0.211677	0.580701
C45	C	-1.135221	-0.288278	-0.080651
C46	C	-0.635221	0.211722	0.419349
C47	C	-1.177446	-0.380814	0.000023
C48	C	-0.677446	0.119186	0.500023
C49	C	-0.259125	0.168249	-0.000023
C50	C	0.240875	0.668249	0.499977
C51	C	-0.361521	0.171010	-0.000016
C52	C	0.138479	0.671010	0.499984
C53	C	-1.085393	0.410342	-0.000030
C54	C	-0.585393	0.910342	0.499970
C55	C	-1.088153	0.551943	-0.000035
C56	C	-0.588153	1.051943	0.499965
N57	N	-1.090562	0.177142	0.254833
N58	N	-0.590562	0.677142	0.754833
N59	N	-1.090600	0.177166	-0.254878
N60	N	-0.590600	0.677166	0.245122
C61	C	-1.090586	0.177167	0.656124
C62	C	-0.590586	0.677167	1.156124
C63	C	-1.090576	0.177164	0.544472
C64	C	-0.590576	0.677164	1.044472
C65	C	-1.090574	0.177155	0.455482
C66	C	-0.590574	0.677155	0.955482
C67	C	-1.090564	0.177151	0.343823
C68	C	-0.590564	0.677151	0.843823
H69	H	-0.930348	-0.214436	0.000057
H70	H	-0.430348	0.285564	0.500057
H71	H	-1.250903	-0.430996	0.000067
H72	H	-0.750903	0.069004	0.500067
H73	H	-1.172964	-0.257618	-0.148843
H74	H	-0.672964	0.242382	0.351157
H75	H	-1.008124	-0.388033	0.148817
H76	H	-0.508124	0.111967	0.648817
C77	C	-0.994909	-0.398694	-0.172766
C78	C	-0.494909	0.101306	0.327234
H79	H	-1.035629	-0.455806	-0.210751
H80	H	-0.535629	0.044194	0.289249
H81	H	-0.974816	-0.325269	-0.210994
H82	H	-0.474816	0.174731	0.289006
H83	H	-0.942801	-0.440524	-0.153372
H84	H	-0.442801	0.059476	0.346628
H85	H	-1.172929	-0.257885	0.148965
H86	H	-0.672929	0.242115	0.648965
