data_functionalizedCrystal
_audit_creation_method	'MofGen! by Chris Wilmer'
_symmetry_space_group_name_H-M	'P1'
_symmetry_Int_Tables_number	1
_symmetry_cell_setting	triclinic
loop_
_symmetry_equiv_pos_as_xyz
  x,y,z
_cell_length_a	14.044220
_cell_length_b	14.519709
_cell_length_c	12.996460
_cell_angle_alpha	89.992910
_cell_angle_beta	89.999501
_cell_angle_gamma	88.434511
loop_
_atom_site_label
_atom_site_type_symbol
_atom_site_fract_x
_atom_site_fract_y
_atom_site_fract_z
O1	O	1.258085	0.222370	-0.085462
O2	O	1.758085	0.722370	0.414538
O3	O	0.982102	0.214346	-0.085488
O4	O	1.482102	0.714346	0.414512
O5	O	1.127411	0.084710	-0.085465
O6	O	1.627411	0.584710	0.414535
O7	O	1.112776	0.352006	-0.085485
O8	O	1.612776	0.852006	0.414515
O9	O	1.127396	0.084701	0.085669
O10	O	1.627396	0.584701	0.585669
O11	O	0.982087	0.214337	0.085646
O12	O	1.482087	0.714337	0.585646
O13	O	1.258070	0.222361	0.085672
O14	O	1.758070	0.722361	0.585672
Cu15	Cu	1.120077	0.218348	0.101285
Cu16	Cu	1.620077	0.718348	0.601285
Cu17	Cu	1.120095	0.218359	-0.101101
Cu18	Cu	1.620095	0.718359	0.398899
O19	O	1.112761	0.351997	0.085649
O20	O	1.612761	0.851997	0.585649
C21	C	1.126721	0.050290	0.000102
C22	C	1.626721	0.550290	0.500102
C23	C	1.124677	-0.052256	0.000103
C24	C	1.624677	0.447744	0.500103
C25	C	0.946774	0.210829	0.000076
C26	C	1.446774	0.710829	0.500076
C27	C	0.841531	0.200352	0.000066
C28	C	1.341531	0.700352	0.500066
C29	C	1.117153	-0.427758	0.000075
C30	C	1.617153	0.072242	0.500075
C31	C	1.119243	-0.323282	0.000083
C32	C	1.619243	0.176718	0.500083
C33	C	1.120915	-0.240010	0.000090
C34	C	1.620915	0.259990	0.500090
C35	C	1.123005	-0.135527	0.000096
C36	C	1.623005	0.364473	0.500096
C37	C	0.648837	0.181197	0.000088
C38	C	1.148837	0.681197	0.500088
C39	C	0.591329	0.255505	0.000087
C40	C	1.091329	0.755505	0.500087
C41	C	0.484108	0.244848	0.000099
C42	C	0.984108	0.744848	0.500099
C43	C	0.756068	0.191854	0.000076
C44	C	1.256068	0.691854	0.500076
C45	C	1.293398	0.225878	0.000106
C46	C	1.793398	0.725878	0.500106
C47	C	1.398641	0.236355	0.000109
C48	C	1.898641	0.736355	0.500109
C49	C	1.113451	0.386416	0.000080
C50	C	1.613451	0.886416	0.500080
C51	C	1.115494	0.488963	0.000073
C52	C	1.615494	0.988963	0.500073
N53	N	1.120071	0.218341	0.243632
N54	N	1.620071	0.718341	0.743632
N55	N	1.120108	0.218360	-0.243448
N56	N	1.620108	0.718360	0.256552
C57	C	1.120094	0.218360	0.663446
C58	C	1.620094	0.718360	1.163446
C59	C	1.120085	0.218357	0.546641
C60	C	1.620085	0.718357	1.046641
C61	C	1.120083	0.218351	0.453543
C62	C	1.620083	0.718351	0.953543
C63	C	1.120073	0.218347	0.336730
C64	C	1.620073	0.718347	0.836730
H65	H	0.622622	0.327127	0.000077
H66	H	1.122622	0.827127	0.500077
H67	H	0.617546	0.109582	0.000099
H68	H	1.117546	0.609582	0.500099
