data_functionalizedCrystal
_audit_creation_method	'MofGen! by Chris Wilmer'
_symmetry_space_group_name_H-M	'P1'
_symmetry_Int_Tables_number	1
_symmetry_cell_setting	triclinic
loop_
_symmetry_equiv_pos_as_xyz
  x,y,z
_cell_length_a	13.032831
_cell_length_b	12.645330
_cell_length_c	13.032268
_cell_angle_alpha	97.151313
_cell_angle_beta	90.886977
_cell_angle_gamma	82.822813
loop_
_atom_site_label
_atom_site_type_symbol
_atom_site_fract_x
_atom_site_fract_y
_atom_site_fract_z
Zn1	Zn	1.498478	-0.715929	-0.780858
Zn2	Zn	1.520220	-0.873876	-0.608884
Zn3	Zn	1.348336	-0.671644	-0.587098
Zn4	Zn	1.326468	-0.868144	-0.759009
O5	O	1.423375	-0.782398	-0.683962
O6	O	1.645282	-0.757814	-0.776307
O7	O	1.515670	-0.830915	-0.462076
O8	O	1.368306	-0.529182	-0.612827
O9	O	1.661256	-0.873856	-0.649958
O10	O	1.478614	-0.561718	-0.755182
O11	O	1.389388	-0.682336	-0.446071
O12	O	1.201515	-0.676778	-0.591641
O13	O	1.331034	-0.864087	-0.905824
O14	O	1.185448	-0.821146	-0.717943
O15	O	1.457409	-0.752256	-0.921877
O16	O	1.494465	-1.021452	-0.628771
O17	O	1.352116	-1.017241	-0.739067
C18	C	1.156164	-0.743535	-0.650057
C19	C	1.041847	-0.726938	-0.635577
C20	C	0.982971	-0.791061	-0.691519
C21	C	0.864818	-0.773908	-0.676555
C22	C	1.423302	-1.057816	-0.683938
C23	C	1.423360	-1.175658	-0.683974
C24	C	1.334105	-1.340692	-0.753648
C25	C	1.333733	-1.218045	-0.753341
C26	C	1.407793	-1.203807	-0.571873
C27	C	1.407248	-1.326389	-0.572295
C28	C	1.528779	-1.361707	-0.725584
C29	C	1.527810	-1.239270	-0.727870
C30	C	1.691630	-0.821414	-0.718000
C31	C	1.805944	-0.838040	-0.732505
C32	C	1.389357	-0.812472	-0.952210
C33	C	1.374860	-0.825288	-1.066522
C34	C	1.423474	-0.505912	-0.684012
C35	C	1.423516	-0.388090	-0.684033
C36	C	1.430925	-0.775669	-1.125428
C37	C	1.415944	-0.788914	-1.243575
C38	C	1.457320	-0.752374	-0.416765
C39	C	1.472016	-0.739288	-0.302479
H40	H	0.827756	-0.706302	-0.617582
H41	H	1.315763	-0.877565	-1.103557
H42	H	1.596830	-1.211611	-0.681954
H43	H	1.356842	-0.841195	-1.280605
C44	C	1.510756	-0.705031	-1.075409
C45	C	1.625824	-0.732319	-1.104914
C46	C	1.705657	-0.661679	-1.054900
C47	C	1.670424	-0.563751	-0.975381
C48	C	1.555351	-0.536459	-0.945872
C49	C	1.475517	-0.607099	-0.995886
H50	H	1.651911	-0.804815	-1.163783
H51	H	1.790842	-0.681882	-1.076745
H52	H	1.729521	-0.511459	-0.938357
H53	H	1.529264	-0.463963	-0.887003
H54	H	1.390333	-0.586895	-0.974041
H55	H	0.843003	-0.905637	-0.791489
C56	C	1.544017	-1.216350	-0.839415
C57	C	1.641415	-1.269538	-0.899938
C58	C	1.657616	-1.246616	-1.011486
C59	C	1.576419	-1.170505	-1.062510
C60	C	1.479014	-1.117311	-1.001986
C61	C	1.462813	-1.140234	-0.890439
H62	H	1.701528	-1.325885	-0.862168
H63	H	1.729722	-1.285994	-1.056289
H64	H	1.588412	-1.153536	-1.145084
H65	H	1.418901	-1.060965	-1.039757
H66	H	1.390707	-1.100856	-0.845636
H67	H	1.341878	-1.199591	-0.836032
H68	H	1.531105	-0.686993	-1.265449
H69	H	1.020037	-0.858655	-0.750496
H70	H	1.004781	-0.659337	-0.576608
C71	C	1.618545	-1.403658	-0.657322
C72	C	1.596509	-1.461571	-0.564341
C73	C	1.686265	-1.503525	-0.496073
C74	C	1.798057	-1.487567	-0.520786
C75	C	1.820099	-1.429651	-0.613771
C76	C	1.730342	-1.387697	-0.682039
H77	H	1.513749	-1.473387	-0.546043
H78	H	1.669948	-1.546398	-0.427239
H79	H	1.864500	-1.518624	-0.470250
H80	H	1.902858	-1.417835	-0.632069
H81	H	1.746659	-1.344824	-0.750872
H82	H	1.256264	-1.357903	-0.725332
C83	C	1.227938	-1.159910	-0.714679
C84	C	1.143530	-1.225073	-0.683983
C85	C	1.037731	-1.166938	-0.645317
C86	C	1.016339	-1.043641	-0.637349
C87	C	1.100750	-0.978471	-0.668046
C88	C	1.206549	-1.036606	-0.706711
H89	H	1.159363	-1.316352	-0.689881
H90	H	0.975245	-1.215182	-0.622593
H91	H	0.938020	-1.000606	-0.608727
H92	H	1.084916	-0.887192	-0.662148
H93	H	1.269035	-0.988362	-0.729436
C94	C	1.303850	-1.345973	-0.526916
C95	C	1.273275	-1.297589	-0.415662
C96	C	1.169872	-1.317166	-0.370284
C97	C	1.097044	-1.385126	-0.436160
C98	C	1.127617	-1.433515	-0.547421
C99	C	1.231019	-1.413938	-0.592798
H100	H	1.327189	-1.247277	-0.366891
H101	H	1.147241	-1.281346	-0.287922
H102	H	1.020499	-1.399618	-0.402569
H103	H	1.073703	-1.483827	-0.596192
H104	H	1.253651	-1.449758	-0.675161
C105	C	1.344830	-1.396242	-0.865688
C106	C	1.257529	-1.457020	-0.915019
C107	C	1.268258	-1.512581	-1.027061
C108	C	1.366288	-1.507363	-1.089772
C109	C	1.453596	-1.446582	-1.040442
C110	C	1.442867	-1.391021	-0.928400
H111	H	1.184955	-1.460885	-0.868596
H112	H	1.203626	-1.557575	-1.063578
H113	H	1.374230	-1.548493	-1.172712
H114	H	1.526170	-1.442717	-1.086865
H115	H	1.507499	-1.346027	-0.891883
H116	H	1.471460	-1.175923	-0.517982
C117	C	1.492398	-1.367996	-0.498824
C118	C	1.463762	-1.422138	-0.405531
C119	C	1.548902	-1.463741	-0.332054
C120	C	1.662678	-1.451203	-0.351871
C121	C	1.691319	-1.397059	-0.445169
C122	C	1.606179	-1.355455	-0.518646
H123	H	1.379534	-1.431422	-0.390857
H124	H	1.527699	-1.503822	-0.262989
H125	H	1.725703	-1.482000	-0.297480
H126	H	1.775547	-1.387775	-0.459843
H127	H	1.627382	-1.315374	-0.587711
H128	H	1.332138	-1.159066	-0.537955
H129	H	1.545671	-1.405172	-0.806666
