data_functionalizedCrystal
_audit_creation_method	'MofGen! by Chris Wilmer'
_symmetry_space_group_name_H-M	'P1'
_symmetry_Int_Tables_number	1
_symmetry_cell_setting	triclinic
loop_
_symmetry_equiv_pos_as_xyz
  x,y,z
_cell_length_a	23.532361
_cell_length_b	23.532357
_cell_length_c	9.798715
_cell_angle_alpha	89.991329
_cell_angle_beta	90.000604
_cell_angle_gamma	82.828980
loop_
_atom_site_label
_atom_site_type_symbol
_atom_site_fract_x
_atom_site_fract_y
_atom_site_fract_z
O1	O	0.755264	0.069009	-0.113370
O2	O	0.589395	0.079040	-0.113405
O3	O	0.677346	-0.008910	-0.113359
O4	O	0.667313	0.156959	-0.113417
O5	O	0.677339	-0.008910	0.113623
O6	O	0.589388	0.079040	0.113577
O7	O	0.755257	0.069009	0.113612
Zn8	Zn	0.672322	0.074024	0.149633
Zn9	Zn	0.672330	0.074025	-0.149426
O10	O	0.667306	0.156959	0.113565
C11	C	0.568175	0.078789	0.000082
C12	C	0.504957	0.078034	0.000069
C13	C	0.677092	-0.030127	0.000136
C14	C	0.676337	-0.093345	0.000149
C15	C	0.231717	0.074730	-0.123649
C16	C	0.291117	0.075445	-0.123653
O17	O	0.321846	0.075795	-0.228876
N18	N	0.320819	0.075806	0.000076
C19	C	0.291119	0.075446	0.123816
O20	O	0.321837	0.075819	0.229056
C21	C	0.231721	0.074727	0.123818
C22	C	0.202021	0.074372	0.000081
C23	C	0.202017	0.074374	-0.247376
C24	C	0.142622	0.073660	-0.247371
C25	C	0.112926	0.073302	-0.123641
C26	C	0.142626	0.073658	0.000085
C27	C	0.202023	0.074364	0.247556
C28	C	0.142621	0.073644	0.247548
C29	C	0.112921	0.073289	0.123811
C30	C	0.053534	0.072587	0.123820
N31	N	0.023832	0.072225	0.000092
C32	C	0.053528	0.072583	-0.123639
C33	C	0.415859	0.076955	0.123802
C34	C	0.475255	0.077679	0.123801
C35	C	0.475249	0.077676	-0.123668
C36	C	0.415851	0.076957	-0.123666
C37	C	0.386157	0.076594	0.000073
C38	C	-0.071207	0.071085	-0.123621
C39	C	-0.130609	0.070373	-0.123606
C40	C	-0.130597	0.070373	0.123862
C41	C	-0.071201	0.071087	0.123848
C42	C	-0.041508	0.071441	0.000095
O43	O	0.022768	0.072234	0.228990
O44	O	0.022803	0.072204	-0.228861
C45	C	0.671604	-0.485355	-0.123654
C46	C	0.670887	-0.544755	-0.123661
O47	O	0.670499	-0.575471	-0.228887
N48	N	0.670527	-0.574466	0.000065
C49	C	0.670880	-0.544774	0.123807
O50	O	0.670508	-0.575500	0.229045
C51	C	0.671593	-0.485375	0.123813
C52	C	0.671958	-0.455668	0.000079
C53	C	0.671968	-0.455648	-0.247378
C54	C	0.672687	-0.396253	-0.247369
C55	C	0.673040	-0.366565	-0.123637
C56	C	0.672676	-0.396273	0.000088
C57	C	0.671941	-0.455684	0.247554
C58	C	0.672654	-0.396281	0.247550
C59	C	0.673019	-0.366574	0.123816
C60	C	0.673748	-0.307190	0.123829
N61	N	0.674108	-0.277479	0.000103
C62	C	0.673754	-0.307167	-0.123630
C63	C	0.669381	-0.669515	0.123784
C64	C	0.668672	-0.728914	0.123779
C65	C	0.668678	-0.728890	-0.123690
C66	C	0.669391	-0.669491	-0.123684
C67	C	0.669740	-0.639804	0.000058
C68	C	0.675263	-0.182433	-0.123603
C69	C	0.675983	-0.123033	-0.123584
C70	C	0.675974	-0.123061	0.123884
C71	C	0.675257	-0.182456	0.123866
C72	C	0.674899	-0.212140	0.000111
O73	O	0.674134	-0.276436	0.229001
O74	O	0.674118	-0.276432	-0.228851
C75	C	0.776477	0.069260	0.000122
C76	C	0.839695	0.070015	0.000125
C77	C	0.667560	0.178176	0.000067
C78	C	0.668315	0.241394	0.000045
N79	N	0.672320	0.074024	0.353732
N80	N	0.672337	0.074021	-0.353526
C81	C	0.709251	0.036936	0.421529
C82	C	0.709260	0.036933	0.578691
H83	H	-0.154788	0.070086	-0.224371
H84	H	0.118446	0.073354	0.348314
C85	C	0.671603	-0.488298	-0.383506
N86	N	0.671342	-0.512888	-0.486047
C87	C	-0.163274	0.069977	0.259959
N88	N	-0.187887	0.069674	0.362469
C89	C	0.234674	0.074767	-0.383501
N90	N	0.259266	0.075066	-0.486040
H91	H	0.499438	0.077967	-0.224416
C92	C	0.673040	-0.363629	0.383679
N93	N	0.673334	-0.339037	0.486211
H94	H	0.669687	-0.645307	-0.224439
H95	H	0.674965	-0.206646	0.224620
H96	H	0.676282	-0.098848	-0.224347
C97	C	0.751948	-0.005970	0.342762
N98	N	0.784105	-0.038290	0.283437
C99	C	0.668283	-0.761557	-0.259800
N100	N	0.667984	-0.786163	-0.362311
C101	C	0.629612	0.116918	0.432499
N102	N	0.597442	0.149227	0.491824
H103	H	0.118446	0.073369	-0.348131
H104	H	0.669667	-0.645348	0.224555
H105	H	0.740880	0.005183	0.636993
C106	C	0.383188	0.076560	-0.259784
N107	N	0.358589	0.076259	-0.362315
H108	H	-0.047038	0.071374	-0.224392
C109	C	0.668276	-0.761586	0.259896
N110	N	0.667974	-0.786192	0.362425
H111	H	0.672982	-0.372070	-0.348127
H112	H	0.499431	0.077977	0.224560
C113	C	0.674879	-0.215078	-0.259740
N114	N	0.674596	-0.239667	-0.362278
C115	C	0.676358	-0.090392	0.259984
N116	N	0.676641	-0.065784	0.362495
H117	H	0.671645	-0.479861	0.348312
H118	H	0.391685	0.076668	0.224571
H119	H	0.226194	0.074651	0.348316
H120	H	-0.047020	0.071388	0.224604
H121	H	0.640719	0.105777	0.588181
