data_functionalizedCrystal
_audit_creation_method	'MofGen! by Chris Wilmer'
_symmetry_space_group_name_H-M	'P1'
_symmetry_Int_Tables_number	1
_symmetry_cell_setting	triclinic
loop_
_symmetry_equiv_pos_as_xyz
  x,y,z
_cell_length_a	19.121102
_cell_length_b	18.215405
_cell_length_c	18.215399
_cell_angle_alpha	90.030551
_cell_angle_beta	92.458396
_cell_angle_gamma	87.579072
loop_
_atom_site_label
_atom_site_type_symbol
_atom_site_fract_x
_atom_site_fract_y
_atom_site_fract_z
Zn1	Zn	1.073728	-0.341065	0.464034
Zn2	Zn	1.407061	-0.007732	0.797367
Zn3	Zn	1.740394	0.325602	1.130701
Zn4	Zn	1.073640	-0.464132	0.340958
Zn5	Zn	1.406974	-0.130799	0.674291
Zn6	Zn	1.740307	0.202534	1.007625
Zn7	Zn	0.956277	-0.335830	0.335738
Zn8	Zn	1.289610	-0.002496	0.669072
Zn9	Zn	1.622943	0.330837	1.002405
Zn10	Zn	0.956244	-0.458834	0.458742
Zn11	Zn	1.289577	-0.125501	0.792076
Zn12	Zn	1.622911	0.207832	1.125409
O13	O	1.014972	-0.399965	0.399868
O14	O	1.348306	-0.066632	0.733202
O15	O	1.681639	0.266701	1.066535
O16	O	1.172001	-0.361798	0.452107
O17	O	1.505334	-0.028465	0.785440
O18	O	1.838667	0.304868	1.118773
O19	O	1.058049	-0.447139	0.237280
O20	O	1.391382	-0.113805	0.570614
O21	O	1.724715	0.219528	0.903947
O22	O	0.971907	-0.233542	0.352787
O23	O	1.305240	0.099791	0.686120
O24	O	1.638574	0.433125	1.019454
O25	O	1.171936	-0.452215	0.361683
O26	O	1.505270	-0.118882	0.695017
O27	O	1.838603	0.214451	1.028350
O28	O	1.058198	-0.237388	0.447045
O29	O	1.391531	0.095945	0.780379
O30	O	1.724864	0.429278	1.113712
O31	O	0.971822	-0.352875	0.233445
O32	O	1.305156	-0.019542	0.566779
O33	O	1.638489	0.313791	0.900112
O34	O	0.857988	-0.347738	0.347656
O35	O	1.191321	-0.014405	0.680989
O36	O	1.524655	0.318929	1.014323
O37	O	0.971852	-0.443186	0.562430
O38	O	1.305185	-0.109852	0.895763
O39	O	1.638518	0.223481	1.229096
O40	O	0.857964	-0.438109	0.438027
O41	O	1.191297	-0.104776	0.771360
O42	O	1.524631	0.228558	1.104693
O43	O	1.058166	-0.356661	0.566317
O44	O	1.391500	-0.023328	0.899651
O45	O	1.724833	0.310006	1.232984
O46	O	1.058017	-0.566412	0.356553
O47	O	1.391351	-0.233078	0.689886
O48	O	1.724684	0.100255	1.023219
O49	O	0.971767	-0.562519	0.443088
O50	O	1.305100	-0.229186	0.776421
O51	O	1.638433	0.104148	1.109755
C52	C	1.014898	-0.591168	0.399829
C53	C	1.348231	-0.257835	0.733163
C54	C	1.681565	0.075498	1.066496
C55	C	1.014931	-0.672969	0.399840
C56	C	1.348264	-0.339635	0.733174
C57	C	1.681597	-0.006302	1.066507
C58	C	0.832492	-0.391781	0.391701
C59	C	1.165825	-0.058448	0.725034
C60	C	1.499159	0.274886	1.058368
C61	C	0.754426	-0.388298	0.388225
C62	C	1.087759	-0.054964	0.721558
C63	C	1.421093	0.278369	1.054891
C64	C	1.059947	-0.863170	0.354873
C65	C	1.393280	-0.529836	0.688206
C66	C	1.726613	-0.196503	1.021539
C67	C	1.059978	-0.940030	0.354892
C68	C	1.393311	-0.606696	0.688225
C69	C	1.726645	-0.273363	1.021559
C70	C	0.970088	-0.936013	0.444921
C71	C	1.303421	-0.602680	0.778254
C72	C	1.636754	-0.269346	1.111587
C73	C	0.970060	-0.859154	0.444905
C74	C	1.303394	-0.525821	0.778238
C75	C	1.636727	-0.192488	1.111571
C76	C	1.014989	-0.822735	0.399877
C77	C	1.348322	-0.489401	0.733210
C78	C	1.681655	-0.156068	1.066543
C79	C	1.015048	-0.976453	0.399912
C80	C	1.348381	-0.643120	0.733245
C81	C	1.681714	-0.309787	1.066578
C82	C	1.015081	-1.059788	0.399933
C83	C	1.348415	-0.726455	0.733266
C84	C	1.681748	-0.393122	1.066599
C85	C	1.014956	-0.739394	0.399856
C86	C	1.348289	-0.406061	0.733190
C87	C	1.681623	-0.072728	1.066523
C88	C	0.717756	-0.433783	0.433569
C89	C	1.051090	-0.100450	0.766902
C90	C	1.384423	0.232883	1.100235
C91	C	0.644405	-0.430501	0.430306
C92	C	0.977739	-0.097167	0.763639
C93	C	1.311072	0.236166	1.096972
C94	C	0.607725	-0.381735	0.381695
C95	C	0.941058	-0.048402	0.715028
C96	C	1.274392	0.284931	1.048361
C97	C	0.644400	-0.336244	0.336349
C98	C	0.977733	-0.002911	0.669682
C99	C	1.311066	0.330422	1.003015
C100	C	0.717750	-0.339524	0.339616
C101	C	1.051083	-0.006191	0.672949
C102	C	1.384416	0.327143	1.006283
C103	C	0.386256	-0.369472	0.369483
C104	C	0.719589	-0.036139	0.702816
C105	C	1.052922	0.297195	1.036150
C106	C	0.312901	-0.366197	0.366218
C107	C	0.646234	-0.032864	0.699551
C108	C	0.979567	0.300469	1.032884
C109	C	0.312911	-0.460453	0.460176
C110	C	0.646244	-0.127120	0.793509
C111	C	0.979578	0.206214	1.126843
C112	C	0.386262	-0.463731	0.463436
C113	C	0.719596	-0.130398	0.796769
C114	C	1.052929	0.202935	1.130102
C115	C	0.422931	-0.418238	0.418093
C116	C	0.756264	-0.084905	0.751426
C117	C	1.089597	0.248429	1.084759
C118	C	0.532748	-0.378380	0.378356
C119	C	0.866082	-0.045047	0.711690
C120	C	1.199415	0.288286	1.045023
C121	C	0.497906	-0.421590	0.421435
C122	C	0.831239	-0.088257	0.754768
C123	C	1.164573	0.245077	1.088102
C124	C	1.198165	-0.408182	0.408068
C125	C	1.531498	-0.074849	0.741401
C126	C	1.864832	0.258485	1.074734
C127	C	1.276231	-0.411683	0.411562
C128	C	1.609564	-0.078350	0.744895
C129	C	1.942898	0.254983	1.078228
C130	C	1.015015	-0.399916	0.591823
C131	C	1.348348	-0.066583	0.925156
C132	C	1.681682	0.266750	1.258490
C133	C	1.015033	-0.399896	0.673623
C134	C	1.348367	-0.066562	1.006956
C135	C	1.681700	0.266771	1.340290
C136	C	1.015066	-0.208016	0.399924
C137	C	1.348399	0.125317	0.733257
C138	C	1.681732	0.458650	1.066591
C139	C	1.015106	-0.126219	0.399948
C140	C	1.348439	0.207114	0.733281
C141	C	1.681772	0.540447	1.066614
C142	C	1.014970	-0.399963	0.208662
C143	C	1.348303	-0.066629	0.541995
C144	C	1.681637	0.266704	0.875329
C145	C	1.015088	-0.399782	0.126869
C146	C	1.348421	-0.066449	0.460202
C147	C	1.681755	0.266885	0.793535
C148	C	1.059993	-0.354799	0.863843
C149	C	1.393327	-0.021466	1.197176
C150	C	1.726660	0.311868	1.530510
C151	C	1.060002	-0.354778	0.940702
C152	C	1.393335	-0.021445	1.274036
C153	C	1.726669	0.311889	1.607369
C154	C	0.970123	-0.444881	0.936643
C155	C	1.303456	-0.111547	1.269976
C156	C	1.636789	0.221786	1.603309
C157	C	0.970111	-0.444897	0.859785
C158	C	1.303445	-0.111564	1.193118
C159	C	1.636778	0.221769	1.526452
C160	C	1.015051	-0.399858	0.823387
C161	C	1.348384	-0.066524	1.156721
C162	C	1.681717	0.266809	1.490054
C163	C	1.015070	-0.399820	0.977104
C164	C	1.348404	-0.066487	1.310438
C165	C	1.681737	0.266847	1.643771
C166	C	1.015079	-0.399798	1.060438
C167	C	1.348413	-0.066464	1.393772
C168	C	1.681746	0.266869	1.727105
C169	C	1.015041	-0.399879	0.740048
C170	C	1.348374	-0.066546	1.073381
C171	C	1.681708	0.266788	1.406714
H172	H	1.096531	-0.833519	0.318209
H173	H	1.429864	-0.500185	0.651542
H174	H	1.763198	-0.166852	0.984876
Cl175	Cl	0.913634	-0.501503	0.982405
Cl176	Cl	1.246968	-0.168169	1.315739
Cl177	Cl	1.580301	0.165164	1.649072
H178	H	0.933507	-0.965675	0.481580
H179	H	1.266841	-0.632342	0.814913
H180	H	1.600174	-0.299009	1.148247
H181	H	1.096598	-0.318085	0.973638
H182	H	1.429931	0.015248	1.306971
H183	H	1.763264	0.348581	1.640305
Cl184	Cl	0.544019	-0.482893	0.482544
Cl185	Cl	0.877353	-0.149559	0.815877
Cl186	Cl	1.210686	0.183774	1.149211
H187	H	0.933508	-0.481589	0.826844
H188	H	1.266842	-0.148256	1.160178
H189	H	1.600175	0.185078	1.493511
Cl190	Cl	0.913541	-0.808318	0.501490
Cl191	Cl	1.246874	-0.474985	0.834824
Cl192	Cl	1.580207	-0.141651	1.168157
Cl193	Cl	1.116501	-0.990859	0.298315
Cl194	Cl	1.449835	-0.657526	0.631648
Cl195	Cl	1.783168	-0.324192	0.964981
Cl196	Cl	0.266789	-0.304893	0.305096
Cl197	Cl	0.600122	0.028440	0.638430
Cl198	Cl	0.933456	0.361774	0.971763
H199	H	1.096584	-0.318123	0.834210
H200	H	1.429917	0.015211	1.167544
H201	H	1.763251	0.348544	1.500877
Cl202	Cl	0.763861	-0.495095	0.494680
Cl203	Cl	1.097195	-0.161762	0.828013
Cl204	Cl	1.430528	0.171571	1.161346
H205	H	0.614552	-0.467541	0.467229
H206	H	0.947885	-0.134207	0.800562
H207	H	1.281219	0.199126	1.133896
H208	H	0.283048	-0.497490	0.497093
H209	H	0.616381	-0.164157	0.830426
H210	H	0.949715	0.169176	1.163759
Cl211	Cl	0.432369	-0.525041	0.524548
Cl212	Cl	0.765703	-0.191708	0.857881
Cl213	Cl	1.099036	0.141626	1.191214
Cl214	Cl	0.486630	-0.317077	0.317247
Cl215	Cl	0.819963	0.016257	0.650581
Cl216	Cl	1.153297	0.349590	0.983914
Cl217	Cl	0.432343	-0.312278	0.312482
Cl218	Cl	0.765677	0.021056	0.645815
Cl219	Cl	1.099010	0.354389	0.979148
H220	H	0.747605	-0.302481	0.302696
H221	H	1.080938	0.030853	0.636029
H222	H	1.414272	0.364186	0.969362
Cl223	Cl	0.598287	-0.274934	0.275242
Cl224	Cl	0.931621	0.058399	0.608575
Cl225	Cl	1.264954	0.391733	0.941909
