data_functionalizedCrystal
_audit_creation_method	'MofGen! by Chris Wilmer'
_symmetry_space_group_name_H-M	'P1'
_symmetry_Int_Tables_number	1
_symmetry_cell_setting	triclinic
loop_
_symmetry_equiv_pos_as_xyz
  x,y,z
_cell_length_a	10.654556
_cell_length_b	10.723023
_cell_length_c	9.130313
_cell_angle_alpha	89.996488
_cell_angle_beta	89.998135
_cell_angle_gamma	84.477542
loop_
_atom_site_label
_atom_site_type_symbol
_atom_site_fract_x
_atom_site_fract_y
_atom_site_fract_z
O1	O	1.667808	0.175313	-0.121740
O2	O	1.302328	0.192004	-0.121755
O3	O	1.493499	0.002083	-0.121742
O4	O	1.476637	0.365233	-0.121754
O5	O	1.493486	0.002078	0.121857
O6	O	1.302315	0.191998	0.121844
O7	O	1.667795	0.175307	0.121858
Cu8	Cu	1.485053	0.183652	0.144093
Cu9	Cu	1.485069	0.183659	-0.143990
O10	O	1.476624	0.365227	0.121845
C11	C	1.255524	0.190774	0.000042
C12	C	1.116081	0.187102	0.000037
C13	C	0.919544	0.181935	-0.132738
C14	C	1.050566	0.185378	-0.132747
C15	C	1.050570	0.185371	0.132838
C16	C	0.919552	0.181920	0.132846
C17	C	1.492265	-0.044419	0.000056
C18	C	1.488595	-0.182974	0.000051
C19	C	1.486965	-0.244737	-0.126142
C20	C	1.483171	-0.387941	-0.126150
C21	C	1.714599	0.176537	0.000058
C22	C	1.854041	0.180209	0.000054
C23	C	1.477857	0.411730	0.000044
C24	C	1.481528	0.550285	0.000039
N25	N	1.485052	0.183647	0.346716
N26	N	1.485081	0.183654	-0.346613
C27	C	1.569731	0.099586	0.423374
C28	C	1.569743	0.099586	0.576711
C29	C	1.400392	0.267719	0.576718
C30	C	1.400375	0.267712	0.423384
H31	H	0.866218	0.180513	0.240987
C32	C	1.662863	0.007107	0.339038
C33	C	1.759319	0.056748	0.233602
C34	C	1.852450	-0.035737	0.149272
C35	C	1.849126	-0.177863	0.170377
C36	C	1.752666	-0.227511	0.275818
C37	C	1.659535	-0.135027	0.360148
H38	H	1.761783	0.161965	0.217975
H39	H	1.923856	0.001017	0.071218
H40	H	1.918068	-0.246326	0.107951
H41	H	1.750202	-0.332728	0.291446
H42	H	1.588129	-0.171781	0.438203
H43	H	1.638695	0.031135	0.639122
C44	C	1.307223	0.360186	0.339047
C45	C	1.214136	0.452710	0.423369
C46	C	1.120986	0.545174	0.339030
C47	C	1.120922	0.545115	0.170369
C48	C	1.214013	0.452587	0.086037
C49	C	1.307164	0.360123	0.170376
H50	H	1.214180	0.452757	0.548231
H51	H	1.052074	0.613669	0.401459
H52	H	1.051967	0.613562	0.107936
H53	H	1.213969	0.452540	-0.038825
H54	H	1.376075	0.291628	0.107947
C55	C	1.488878	-0.172965	-0.272100
C56	C	1.379550	-0.177513	-0.381687
C57	C	1.381464	-0.105747	-0.527651
C58	C	1.492707	-0.029432	-0.564027
C59	C	1.602044	-0.024881	-0.454437
C60	C	1.600129	-0.096648	-0.308474
H61	H	1.297194	-0.234009	-0.354761
H62	H	1.300525	-0.109116	-0.608776
H63	H	1.494125	0.023694	-0.672078
H64	H	1.684400	0.031614	-0.481363
H65	H	1.681068	-0.093278	-0.227348
H66	H	1.487173	-0.236113	0.108084
C67	C	1.481278	-0.459684	-0.272114
C68	C	1.587775	-0.562444	-0.308501
C69	C	1.585882	-0.634189	-0.454471
C70	C	1.477493	-0.603176	-0.564052
C71	C	1.370988	-0.500412	-0.527667
C72	C	1.372881	-0.428666	-0.381698
H73	H	1.668018	-0.585406	-0.227380
H74	H	1.664724	-0.710262	-0.481404
H75	H	1.476091	-0.656286	-0.672107
H76	H	1.290745	-0.477449	-0.608789
H77	H	1.294039	-0.352593	-0.354765
C78	C	1.122616	0.187279	-0.278821
C79	C	1.226007	0.081475	-0.315352
C80	C	1.298057	0.083372	-0.461434
C81	C	1.266716	0.191074	-0.570985
C82	C	1.163320	0.296886	-0.534457
C83	C	1.091270	0.294988	-0.388375
H84	H	1.249212	0.001740	-0.234254
H85	H	1.374597	0.005042	-0.488475
H86	H	1.320051	0.192478	-0.679124
H87	H	1.140115	0.376620	-0.615555
H88	H	1.014730	0.373318	-0.361334
C89	C	1.122644	0.187276	0.278896
C90	C	1.199380	0.297829	0.315384
C91	C	1.271455	0.299742	0.461441
C92	C	1.266794	0.191102	0.571012
C93	C	1.190054	0.080541	0.534527
C94	C	1.117979	0.078627	0.388469
H95	H	1.202834	0.378259	0.234271
H96	H	1.328263	0.381588	0.488449
H97	H	1.320148	0.192518	0.679132
H98	H	1.186601	0.000111	0.615639
H99	H	1.061171	-0.003218	0.361461
H100	H	1.331452	0.336165	0.639157
H101	H	0.866209	0.180540	-0.240866
H102	H	1.482936	-0.396609	0.108083
