data_functionalizedCrystal
_audit_creation_method	'MofGen! by Chris Wilmer'
_symmetry_space_group_name_H-M	'P1'
_symmetry_Int_Tables_number	1
_symmetry_cell_setting	triclinic
loop_
_symmetry_equiv_pos_as_xyz
  x,y,z
_cell_length_a	10.489711
_cell_length_b	10.723024
_cell_length_c	9.798715
_cell_angle_alpha	90.002215
_cell_angle_beta	89.995007
_cell_angle_gamma	95.502561
loop_
_atom_site_label
_atom_site_type_symbol
_atom_site_fract_x
_atom_site_fract_y
_atom_site_fract_z
O1	O	1.693962	-0.175884	-0.113537
O2	O	1.322751	-0.192449	-0.113528
O3	O	1.516919	-0.002595	-0.113528
O4	O	1.499794	-0.365739	-0.113537
O5	O	1.516905	-0.002593	0.113455
O6	O	1.322737	-0.192448	0.113454
O7	O	1.693948	-0.175883	0.113446
Zn8	Zn	1.508340	-0.184165	0.149488
Zn9	Zn	1.508358	-0.184167	-0.149571
O10	O	1.499780	-0.365737	0.113445
C11	C	1.275212	-0.191205	-0.000036
C12	C	1.133583	-0.187486	-0.000033
C13	C	0.951124	-0.301658	-0.000052
C14	C	1.043313	-0.244628	-0.111962
C15	C	1.043272	-0.244596	0.111825
C16	C	0.973439	-0.123766	-0.112065
C17	C	0.973389	-0.123751	0.111822
C18	C	1.065550	-0.066633	-0.000115
C19	C	1.515666	0.043906	-0.000038
C20	C	1.511937	0.182462	-0.000043
C21	C	1.741486	-0.177127	-0.000050
C22	C	1.883115	-0.180846	-0.000062
C23	C	1.501033	-0.412238	-0.000048
C24	C	1.504762	-0.550794	-0.000052
N25	N	1.508337	-0.184163	0.353588
C26	C	1.620583	0.257390	-0.000047
C27	C	1.616732	0.400595	-0.000052
N28	N	1.508371	-0.184159	-0.353670
C29	C	1.590065	-0.104276	0.578520
C30	C	1.590048	-0.104277	0.421357
H31	H	1.074280	-0.295751	-0.206573
H32	H	1.709742	0.464981	-0.000050
Br33	Br	0.921722	-0.038616	0.269530
H34	H	1.438421	-0.252556	0.588033
Br35	Br	1.094814	-0.329829	0.269514
H36	H	1.416070	0.224333	-0.000050
H37	H	1.411747	0.384828	-0.000039
H38	H	1.716450	0.215519	-0.000041
H39	H	1.660025	-0.035887	0.636814
Br40	Br	1.706619	0.009730	0.324172
H41	H	1.438387	-0.252554	0.411892
H42	H	1.115071	0.032758	-0.000169
Br43	Br	0.868193	-0.467159	-0.000232
H44	H	0.942668	-0.072696	-0.206787
