data_functionalizedCrystal
_audit_creation_method	'MofGen! by Chris Wilmer'
_symmetry_space_group_name_H-M	'P1'
_symmetry_Int_Tables_number	1
_symmetry_cell_setting	triclinic
loop_
_symmetry_equiv_pos_as_xyz
  x,y,z
_cell_length_a	17.077404
_cell_length_b	21.395361
_cell_length_c	17.077396
_cell_angle_alpha	89.966749
_cell_angle_beta	89.981638
_cell_angle_gamma	90.028678
loop_
_atom_site_label
_atom_site_type_symbol
_atom_site_fract_x
_atom_site_fract_y
_atom_site_fract_z
Zn1	Zn	1.200012	-0.249472	-0.443793
Zn2	Zn	1.199901	-0.354254	-0.312516
Zn3	Zn	1.068744	-0.249490	-0.312543
Zn4	Zn	1.068694	-0.354212	-0.443742
O5	O	1.134338	-0.301857	-0.378149
O6	O	1.309844	-0.263382	-0.426388
O7	O	1.182477	-0.340381	-0.202673
O8	O	1.086224	-0.161810	-0.329987
O9	O	1.309763	-0.340364	-0.329940
O10	O	1.182666	-0.161797	-0.426415
O11	O	1.086117	-0.263412	-0.202693
O12	O	0.958890	-0.263372	-0.329937
O13	O	1.086139	-0.340294	-0.553596
O14	O	0.958854	-0.340311	-0.426329
O15	O	1.182618	-0.263342	-0.553633
O16	O	1.182429	-0.441926	-0.329891
O17	O	1.086031	-0.441896	-0.426302
C18	C	0.930390	-0.301840	-0.378131
C19	C	0.843140	-0.301847	-0.378142
C20	C	0.802193	-0.261834	-0.428439
C21	C	0.720213	-0.261838	-0.428443
C22	C	0.679181	-0.301859	-0.378153
C23	C	0.720133	-0.341874	-0.327850
C24	C	0.802112	-0.341866	-0.327843
C25	C	0.549263	-0.341888	-0.327869
C26	C	0.467279	-0.341897	-0.327877
C27	C	0.467364	-0.261859	-0.428470
C28	C	0.549342	-0.261852	-0.428463
C29	C	0.590290	-0.301868	-0.378160
C30	C	1.134234	-0.464645	-0.378105
C31	C	1.134261	-0.534286	-0.378112
C32	C	1.184500	-0.566994	-0.327962
C33	C	1.184537	-0.632430	-0.327980
C34	C	1.134320	-0.665154	-0.378139
C35	C	1.084078	-0.632438	-0.428299
C36	C	1.084049	-0.567004	-0.428286
C37	C	1.063641	-0.768867	-0.384292
C38	C	1.063669	-0.834300	-0.384300
C39	C	1.134412	-0.866975	-0.378185
C40	C	1.205129	-0.834210	-0.372046
C41	C	1.205099	-0.768776	-0.372033
C42	C	1.134347	-0.736107	-0.378160
C43	C	1.184694	-0.970636	-0.328052
C44	C	1.184732	-1.036072	-0.328075
C45	C	1.084267	-1.036080	-0.428390
C46	C	1.084236	-0.970645	-0.428371
C47	C	1.134449	-0.937926	-0.378198
C48	C	1.339082	-0.301876	-0.378167
C49	C	1.426332	-0.301883	-0.378174
C50	C	1.134385	-0.301811	-0.582893
C51	C	1.134405	-0.301791	-0.670143
C52	C	1.134463	-0.138434	-0.378210
C53	C	1.134516	-0.068793	-0.378236
C54	C	1.184644	-0.261719	-0.711154
C55	C	1.184653	-0.261698	-0.793134
C56	C	1.134428	-0.301753	-0.834102
C57	C	1.084184	-0.341827	-0.793086
C58	C	1.084171	-0.341845	-0.711107
C59	C	1.084215	-0.341790	-0.963956
C60	C	1.084229	-0.341773	-1.045940
C61	C	1.184698	-0.261643	-1.045983
C62	C	1.184685	-0.261661	-0.964004
C63	C	1.134442	-0.301736	-0.922993
C64	C	1.134335	-0.301858	-0.174201
C65	C	1.134467	-0.301701	-0.086951
H66	H	0.686719	-0.374457	-0.286899
Br67	Br	0.605029	-0.207544	-0.496723
H68	H	1.225388	-0.540357	-0.287110
Br69	Br	1.016015	-0.396185	-0.848684
Br70	Br	1.252873	-0.207341	-0.848789
H71	H	1.043383	-1.062724	-0.469234
H72	H	0.835450	-0.374449	-0.286885
Br73	Br	1.252723	-0.676829	-0.259915
Br74	Br	1.015983	-0.396227	-0.655448
H75	H	1.006029	-0.742269	-0.389275
Br76	Br	0.411794	-0.207551	-0.496737
H77	H	1.043324	-0.944012	-0.469204
Br78	Br	1.015933	-0.676849	-0.496379
H79	H	1.225583	-0.943996	-0.287200
Br80	Br	0.664644	-0.207532	-0.496708
Br81	Br	1.016058	-0.396128	-1.101540
H82	H	0.433873	-0.374486	-0.286927
Br83	Br	0.604834	-0.396200	-0.259606
H84	H	1.225606	-0.229012	-1.079378
Br85	Br	1.301066	-0.724310	-0.363707
H86	H	0.835595	-0.229245	-0.469394
Br87	Br	1.301143	-0.878546	-0.363735
H88	H	1.225647	-1.062702	-0.287238
Br89	Br	0.967698	-0.878760	-0.392627
H90	H	1.043138	-0.540373	-0.469125
H91	H	1.225546	-0.229104	-0.677803
Br92	Br	1.252856	-0.207305	-0.908404
H93	H	1.043290	-0.374413	-0.930567
