data_functionalizedCrystal
_audit_creation_method	'MofGen! by Chris Wilmer'
_symmetry_space_group_name_H-M	'P1'
_symmetry_Int_Tables_number	1
_symmetry_cell_setting	triclinic
loop_
_symmetry_equiv_pos_as_xyz
  x,y,z
_cell_length_a	10.540539
_cell_length_b	11.792241
_cell_length_c	10.268362
_cell_angle_alpha	90.005428
_cell_angle_beta	90.002516
_cell_angle_gamma	84.359454
loop_
_atom_site_label
_atom_site_type_symbol
_atom_site_fract_x
_atom_site_fract_y
_atom_site_fract_z
O1	O	-1.685366	-0.159957	-0.108239
O2	O	-1.315904	-0.175028	-0.108256
O3	O	-1.509601	-0.002345	-0.108238
O4	O	-1.491669	-0.332639	-0.108257
O5	O	-1.509584	-0.002338	0.108363
O6	O	-1.315887	-0.175021	0.108345
O7	O	-1.685349	-0.159950	0.108361
Cu8	Cu	-1.500617	-0.167484	0.128130
Cu9	Cu	-1.500637	-0.167493	-0.128025
O10	O	-1.491653	-0.332632	0.108344
C11	C	-1.268596	-0.173894	0.000043
C12	C	-1.127659	-0.170513	0.000037
C13	C	-1.508466	0.039952	0.000062
C14	C	-1.505095	0.165975	0.000060
C15	C	-1.732657	-0.161083	0.000060
C16	C	-1.873594	-0.164465	0.000057
C17	C	-0.944655	-0.040941	0.000550
C18	C	-1.091262	-0.044369	0.000048
C19	C	-1.065799	-0.231222	-0.123651
C20	C	-0.919268	-0.226917	-0.123741
C21	C	-0.918752	-0.229475	0.122574
C22	C	-1.065730	-0.230637	0.124195
C23	C	-1.492787	-0.374930	0.000041
C24	C	-1.496159	-0.500952	0.000034
N25	N	-1.500612	-0.167478	0.308296
C26	C	-1.498896	0.396703	0.000038
C27	C	-1.502340	0.268309	0.000050
N28	N	-1.500652	-0.167491	-0.308191
C29	C	-1.500630	-0.167491	0.573967
C30	C	-1.500616	-0.167487	0.426129
H31	H	-0.916225	0.008896	0.089254
N32	N	-0.906950	0.021305	-0.110093
N33	N	-0.827972	-0.024911	-0.189307
H34	H	-0.801339	0.019047	-0.267451
H35	H	-1.133171	0.003730	-0.088765
N36	N	-0.879372	-0.178242	0.240192
N37	N	-0.960812	-0.139134	0.321129
H38	H	-0.933002	-0.102938	0.404191
H39	H	-0.871228	-0.320588	0.123404
N40	N	-1.119393	-0.178305	-0.239117
N41	N	-1.049228	-0.134381	-0.318935
H42	H	-1.087084	-0.096999	-0.400477
N43	N	-1.117273	-0.174976	0.238979
N44	N	-1.199315	-0.091338	0.229481
H45	H	-1.235725	-0.052024	0.310545
H46	H	-0.891211	-0.182053	-0.216194
H47	H	-0.871004	-0.317638	-0.129360
N48	N	-1.093440	-0.347439	-0.129433
N49	N	-1.058223	-0.414522	-0.039306
H50	H	-1.077744	-0.496602	-0.043386
N51	N	-1.144898	0.015568	0.111274
N52	N	-1.074062	0.060231	0.189814
H53	H	-1.111937	0.102572	0.268367
N54	N	-1.095753	-0.346007	0.133549
N55	N	-1.163578	-0.385975	0.048476
H56	H	-1.184782	-0.467460	0.055072
