data_functionalizedCrystal
_audit_creation_method	'MofGen! by Chris Wilmer'
_symmetry_space_group_name_H-M	'P1'
_symmetry_Int_Tables_number	1
_symmetry_cell_setting	triclinic
loop_
_symmetry_equiv_pos_as_xyz
  x,y,z
_cell_length_a	19.288862
_cell_length_b	19.288865
_cell_length_c	17.766276
_cell_angle_alpha	89.986366
_cell_angle_beta	89.992012
_cell_angle_gamma	83.135763
loop_
_atom_site_label
_atom_site_type_symbol
_atom_site_fract_x
_atom_site_fract_y
_atom_site_fract_z
O1	O	-0.921335	-0.086645	0.062893
O2	O	-0.421335	0.413355	0.562893
O3	O	-0.719075	-0.098336	0.062832
O4	O	-0.219075	0.401664	0.562832
O5	O	-0.826049	0.008640	0.062849
O6	O	-0.326049	0.508640	0.562849
O7	O	-0.814361	-0.193621	0.062876
O8	O	-0.314361	0.306379	0.562876
O9	O	-0.826068	0.008654	-0.062339
O10	O	-0.326068	0.508654	0.437661
O11	O	-0.719093	-0.098322	-0.062356
O12	O	-0.219093	0.401678	0.437644
O13	O	-0.921354	-0.086631	-0.062295
O14	O	-0.421354	0.413369	0.437705
Cu15	Cu	-0.820225	-0.092475	-0.073757
Cu16	Cu	-0.320225	0.407525	0.426243
Cu17	Cu	-0.820203	-0.092492	0.074293
Cu18	Cu	-0.320203	0.407508	0.574293
O19	O	-0.814379	-0.193607	-0.062313
O20	O	-0.314379	0.306393	0.437687
C21	C	-0.693207	-0.097953	0.000230
C22	C	-0.193207	0.402047	0.500230
C23	C	-0.616104	-0.096824	0.000206
C24	C	-0.116104	0.403176	0.500206
C25	C	-0.571407	-0.159593	0.000224
C26	C	-0.071407	0.340407	0.500224
C27	C	-0.498960	-0.158533	0.000228
C28	C	0.001040	0.341467	0.500228
C29	C	-0.471213	-0.094701	0.000230
C30	C	0.028787	0.405299	0.500230
C31	C	-0.515919	-0.031924	0.000208
C32	C	-0.015919	0.468076	0.500208
C33	C	-0.588364	-0.032986	0.000196
C34	C	-0.088364	0.467014	0.500196
C35	C	-0.362944	-0.044527	0.044102
C36	C	0.137056	0.455473	0.544102
C37	C	-0.290499	-0.043468	0.044118
C38	C	0.209501	0.456532	0.544118
C39	C	-0.247767	-0.091423	0.000263
C40	C	0.252233	0.408577	0.500263
C41	C	-0.277486	-0.140449	-0.043599
C42	C	0.222514	0.359551	0.456401
C43	C	-0.349932	-0.141511	-0.043611
C44	C	0.150068	0.358489	0.456389
C45	C	-0.392659	-0.093542	0.000242
C46	C	0.107341	0.406458	0.500242
C47	C	-0.124514	-0.153046	0.000284
C48	C	0.375486	0.346954	0.500284
C49	C	-0.052066	-0.151983	0.000284
C50	C	0.447934	0.348017	0.500284
C51	C	-0.069026	-0.025373	0.000271
C52	C	0.430974	0.474627	0.500271
C53	C	-0.141473	-0.026438	0.000264
C54	C	0.358527	0.473562	0.500264
C55	C	-0.169212	-0.090276	0.000274
C56	C	0.330788	0.409724	0.500274
C57	C	0.052779	-0.087016	0.000295
C58	C	0.552779	0.412984	0.500295
C59	C	-0.024324	-0.088151	0.000284
C60	C	0.475676	0.411849	0.500284
N61	N	-0.820246	-0.092463	-0.177887
N62	N	-0.320246	0.407537	0.322113
C63	C	-0.825683	0.034523	0.000253
C64	C	-0.325683	0.534523	0.500253
C65	C	-0.824554	0.111627	0.000246
C66	C	-0.324554	0.611627	0.500246
C67	C	-0.814746	-0.219490	0.000285
C68	C	-0.314746	0.280510	0.500285
C69	C	-0.815875	-0.296594	0.000297
C70	C	-0.315875	0.203406	0.500297
C71	C	-0.887321	0.156324	0.000261
C72	C	-0.387321	0.656324	0.500261
C73	C	-0.886261	0.228771	0.000273
C74	C	-0.386261	0.728771	0.500273
C75	C	-0.822429	0.256518	0.000254
C76	C	-0.322429	0.756518	0.500254
C77	C	-0.759652	0.211811	0.000243
C78	C	-0.259652	0.711811	0.500243
C79	C	-0.760715	0.139366	0.000239
C80	C	-0.260715	0.639366	0.500239
C81	C	-0.772255	0.364810	-0.043612
C82	C	-0.272255	0.864810	0.456388
C83	C	-0.771196	0.437254	-0.043613
C84	C	-0.271196	0.937254	0.456387
C85	C	-0.819149	0.479963	0.000270
C86	C	-0.319149	0.979963	0.500270
C87	C	-0.868174	0.450221	0.044143
C88	C	-0.368174	0.950221	0.544143
C89	C	-0.869236	0.377775	0.044139
C90	C	-0.369236	0.877775	0.544139
C91	C	-0.821269	0.335072	0.000259
C92	C	-0.321269	0.835072	0.500259
C93	C	-0.880771	0.603216	0.000299
C94	C	-0.380771	1.103216	0.500299
C95	C	-0.879708	0.675664	0.000315
C96	C	-0.379708	1.175664	0.500315
C97	C	-0.753098	0.658703	0.000278
C98	C	-0.253098	1.158703	0.500278
C99	C	-0.754163	0.586256	0.000269
C100	C	-0.254163	1.086256	0.500269
C101	C	-0.818001	0.558518	0.000276
C102	C	-0.318001	1.058518	0.500276
N103	N	-0.820188	-0.092498	0.178424
N104	N	-0.320188	0.407502	0.678424
C105	C	-0.862096	-0.134600	0.217834
C106	C	-0.362096	0.365400	0.717834
C107	C	-0.862100	-0.134600	0.296636
C108	C	-0.362100	0.365400	0.796636
C109	C	-0.820205	-0.092486	0.336024
C110	C	-0.320205	0.407514	0.836024
C111	C	-0.778289	-0.050383	0.296604
C112	C	-0.278289	0.449617	0.796604
C113	C	-0.778281	-0.050388	0.217804
C114	C	-0.278281	0.449612	0.717804
C115	C	-0.818619	-0.029834	0.460847
C116	C	-0.318619	0.470166	0.960847
C117	C	-0.818632	-0.029827	0.539645
C118	C	-0.318632	0.470173	1.039645
C119	C	-0.820228	-0.092469	0.579071
C120	C	-0.320228	0.407531	1.079071
C121	C	-0.821824	-0.155119	0.539687
C122	C	-0.321824	0.344881	1.039687
C123	C	-0.821816	-0.155125	0.460887
C124	C	-0.321816	0.344875	0.960887
C125	C	-0.820210	-0.092476	0.421470
C126	C	-0.320210	0.407524	0.921470
C127	C	-0.862142	-0.134574	0.703927
C128	C	-0.362142	0.365426	1.203927
C129	C	-0.862142	-0.134576	0.782730
C130	C	-0.362142	0.365424	1.282730
C131	C	-0.778335	-0.050352	0.782697
C132	C	-0.278335	0.449648	1.282697
C133	C	-0.778331	-0.050357	0.703895
C134	C	-0.278331	0.449643	1.203895
C135	C	-0.820239	-0.092467	0.664515
C136	C	-0.320239	0.407533	1.164515
H137	H	-0.624757	0.018129	0.000182
H138	H	-0.124757	0.518129	0.500182
O139	O	-0.733161	-0.004920	0.825178
O140	O	-0.233161	0.495080	1.325178
H141	H	-0.695679	-0.038242	0.861099
H142	H	-0.195679	0.461758	1.361099
H143	H	-0.896263	-0.168866	0.671862
H144	H	-0.396263	0.331134	1.171862
H145	H	-0.930823	0.712056	0.000332
H146	H	-0.430823	1.212056	0.500332
H147	H	-0.731274	0.461464	-0.079333
H148	H	-0.231274	0.961464	0.420667
O149	O	-0.231409	-0.192175	-0.090911
O150	O	0.268591	0.307825	0.409089
H151	H	-0.176041	-0.183196	-0.083544
H152	H	0.323959	0.316804	0.416456
H153	H	-0.397732	-0.005475	0.079818
H154	H	0.102268	0.494525	0.579818
H155	H	-0.896267	-0.168865	0.814817
H156	H	-0.396267	0.331135	1.314817
O157	O	-0.733101	-0.004948	0.339066
O158	O	-0.233101	0.495052	0.839066
H159	H	-0.748496	0.050584	0.323901
H160	H	-0.248496	0.550584	0.823901
H161	H	-0.147101	-0.205027	0.000282
H162	H	0.352899	0.294973	0.500282
O163	O	-0.816895	0.037734	0.418328
O164	O	-0.316895	0.537734	0.918328
H165	H	-0.864134	0.047563	0.382421
H166	H	-0.364134	0.547563	0.882421
O167	O	-0.953966	0.276988	0.000279
O168	O	-0.453966	0.776988	0.500279
H169	H	-0.942500	0.332024	0.000281
H170	H	-0.442500	0.832024	0.500281
H171	H	-0.374126	-0.181427	-0.079327
H172	H	0.125874	0.318573	0.420673
O173	O	-0.733102	-0.004955	0.175289
O174	O	-0.233102	0.495045	0.675289
H175	H	-0.703977	0.024339	0.215914
H176	H	-0.203977	0.524339	0.715914
O177	O	-0.601318	-0.228449	0.000222
O178	O	-0.101318	0.271551	0.500222
H179	H	-0.633928	-0.231976	0.051243
H180	H	-0.133928	0.268024	0.551243
H181	H	-0.709600	0.102973	0.000226
H182	H	-0.209600	0.602973	0.500226
H183	H	-0.817337	0.021187	0.571705
H184	H	-0.317337	0.521187	1.071705
H185	H	-0.015674	-0.203099	0.000294
H186	H	0.484326	0.296901	0.500294
O187	O	-0.922099	0.345695	0.091470
O188	O	-0.422099	0.845695	0.591470
H189	H	-0.975578	0.366794	0.073444
H190	H	-0.475578	0.866794	0.573444
O191	O	-0.450738	-0.226234	0.000255
O192	O	0.049262	0.273766	0.500255
H193	H	-0.482198	-0.270803	0.000266
H194	H	0.017802	0.229197	0.500266
H195	H	-0.046435	0.026600	0.000319
H196	H	0.453565	0.526600	0.500319
H197	H	-0.939304	0.133744	0.000269
H198	H	-0.439304	0.633744	0.500269
H199	H	-0.177866	0.024675	0.000253
H200	H	0.322134	0.524675	0.500253
O201	O	-0.690802	0.241731	0.000214
O202	O	-0.190802	0.741731	0.500214
H203	H	-0.700608	0.299617	0.000209
H204	H	-0.200608	0.799617	0.500209
O205	O	-0.733162	-0.004917	0.661380
O206	O	-0.233162	0.495083	1.161380
H207	H	-0.704042	0.024381	0.702006
H208	H	-0.204042	0.524381	1.202006
O209	O	-0.823534	-0.222695	0.418412
O210	O	-0.323534	0.277305	0.918412
H211	H	-0.823265	-0.212170	0.356995
H212	H	-0.323265	0.287830	0.856995
H213	H	-0.733204	0.330041	-0.079350
H214	H	-0.233204	0.830041	0.420650
H215	H	-0.823124	-0.206128	0.571785
H216	H	-0.323124	0.293872	1.071785
O217	O	-0.907287	-0.180022	0.175357
O218	O	-0.407287	0.319978	0.675357
H219	H	-0.936425	-0.209303	0.216006
H220	H	-0.436425	0.290697	0.716006
H221	H	-0.896226	-0.168887	0.328730
H222	H	-0.396226	0.331113	0.828730
H223	H	-0.266308	-0.003551	0.079836
H224	H	0.233692	0.496449	0.579836
O225	O	-0.919906	0.496267	0.091480
O226	O	-0.419906	0.996267	0.591480
H227	H	-0.891319	0.525490	0.132672
H228	H	-0.391319	1.025490	0.632672
O229	O	-0.485998	0.036926	0.000210
O230	O	0.014002	0.536926	0.500210
H231	H	-0.428112	0.027119	0.000228
H232	H	0.071888	0.527119	0.500228
O233	O	-0.949621	0.573289	0.000321
O234	O	-0.449621	1.073289	0.500321
H235	H	-0.993091	0.616544	0.000348
H236	H	-0.493091	1.116544	0.500348
H237	H	-0.701124	0.681294	0.000266
H238	H	-0.201124	1.181294	0.500266
O239	O	-0.686463	0.538040	0.000234
O240	O	-0.186463	1.038040	0.500234
H241	H	-0.641897	0.569503	0.000214
H242	H	-0.141897	1.069503	0.500214
