data_functionalizedCrystal
_audit_creation_method	'MofGen! by Chris Wilmer'
_symmetry_space_group_name_H-M	'P1'
_symmetry_Int_Tables_number	1
_symmetry_cell_setting	triclinic
loop_
_symmetry_equiv_pos_as_xyz
  x,y,z
_cell_length_a	11.792241
_cell_length_b	10.654550
_cell_length_c	9.730223
_cell_angle_alpha	90.004253
_cell_angle_beta	89.999084
_cell_angle_gamma	84.339173
loop_
_atom_site_label
_atom_site_type_symbol
_atom_site_fract_x
_atom_site_fract_y
_atom_site_fract_z
O1	O	-1.507304	-0.172135	-0.114156
O2	O	-1.177004	-0.189875	-0.114188
O3	O	-1.349749	0.001756	-0.114163
O4	O	-1.334560	-0.363766	-0.114181
O5	O	-1.349737	0.001761	0.114417
O6	O	-1.176993	-0.189870	0.114392
O7	O	-1.507293	-0.172130	0.114424
Zn8	Zn	-1.342141	-0.180999	0.150700
Zn9	Zn	-1.342156	-0.181006	-0.150464
O10	O	-1.334549	-0.363761	0.114399
C11	C	-1.348628	0.048553	0.000127
C12	C	-1.345291	0.187987	0.000124
C13	C	-1.134705	-0.188758	0.000098
C14	C	-1.008684	-0.185423	0.000086
C15	C	-1.549592	-0.173247	0.000135
C16	C	-1.675614	-0.176582	0.000138
C17	C	-0.777958	-0.179290	0.000126
C18	C	-0.906351	-0.182697	0.000104
C19	C	-1.335670	-0.410558	0.000106
C20	C	-1.339006	-0.549992	0.000100
N21	N	-1.342140	-0.180994	0.356236
C22	C	-1.447000	0.267760	0.000133
C23	C	-1.443859	0.398772	0.000116
C24	C	-1.237290	0.370225	0.000086
C25	C	-1.240433	0.239215	0.000094
N26	N	-1.342167	-0.181002	-0.356000
C27	C	-1.418657	-0.096175	0.428173
C28	C	-1.418668	-0.096176	0.572056
C29	C	-1.265641	-0.265824	0.572052
C30	C	-1.265625	-0.265816	0.428172
H31	H	-1.532383	0.226055	0.000155
C32	C	-1.554252	0.485443	-0.000155
C33	C	-1.558510	0.561448	-0.117780
C34	C	-1.660199	0.641291	-0.118090
H35	H	-1.557424	0.537274	0.079457
H36	H	-1.617179	0.436207	-0.000212
H37	H	-1.495600	0.610679	-0.117711
H38	H	-1.555357	0.509651	-0.197411
H39	H	-1.723125	0.592056	-0.118147
H40	H	-1.663362	0.693114	-0.038474
H41	H	-1.663106	0.692862	-0.197903
C42	C	-1.123561	0.426090	0.000139
C43	C	-1.142574	0.557898	0.000175
C44	C	-1.037833	0.609400	0.000247
H45	H	-1.081554	0.398889	-0.079554
H46	H	-1.081625	0.398831	0.079878
H47	H	-1.184493	0.585145	-0.079556
H48	H	-1.184564	0.585134	0.079862
H49	H	-0.995897	0.582141	0.079987
H50	H	-0.995834	0.582190	-0.079447
H51	H	-1.050719	0.698836	0.000285
C52	C	-1.129874	0.152803	0.000154
C53	C	-1.037370	0.225704	0.000173
C54	C	-0.935513	0.146145	0.000241
H55	H	-1.126654	0.101069	-0.079534
H56	H	-1.126740	0.101128	0.079898
H57	H	-1.040503	0.277357	-0.079563
H58	H	-1.040552	0.277435	0.079856
H59	H	-0.932379	0.094470	0.079985
H60	H	-0.932305	0.094415	-0.079448
H61	H	-0.872737	0.195596	0.000267
C62	C	-1.182417	-0.357712	0.349983
C63	C	-1.112392	-0.290284	0.267428
C64	C	-1.035720	-0.374887	0.195393
H65	H	-1.223517	-0.410323	0.293727
H66	H	-1.136789	-0.408220	0.413384
H67	H	-1.158014	-0.239797	0.204034
H68	H	-1.071266	-0.237678	0.323649
H69	H	-0.990092	-0.425396	0.258794
H70	H	-1.076830	-0.427494	0.139145
H71	H	-0.988192	-0.329150	0.139381
H72	H	-1.480958	-0.027106	0.369607
H73	H	-1.480974	-0.027108	0.630624
H74	H	-1.203346	-0.334886	0.630637
