data_functionalizedCrystal
_audit_creation_method	'MofGen! by Chris Wilmer'
_symmetry_space_group_name_H-M	'P1'
_symmetry_Int_Tables_number	1
_symmetry_cell_setting	triclinic
loop_
_symmetry_equiv_pos_as_xyz
  x,y,z
_cell_length_a	23.532407
_cell_length_b	23.532407
_cell_length_c	22.010155
_cell_angle_alpha	89.999577
_cell_angle_beta	90.003069
_cell_angle_gamma	97.151322
loop_
_atom_site_label
_atom_site_type_symbol
_atom_site_fract_x
_atom_site_fract_y
_atom_site_fract_z
O1	O	0.755264	-0.069127	0.050455
O2	O	1.088597	0.264206	0.383789
O3	O	1.421930	0.597540	0.717122
O4	O	0.589400	-0.079130	0.050474
O5	O	0.922734	0.254203	0.383807
O6	O	1.256067	0.587537	0.717141
O7	O	0.677334	0.008803	0.050453
O8	O	1.010667	0.342137	0.383786
O9	O	1.344000	0.675470	0.717120
O10	O	0.667330	-0.157060	0.050476
O11	O	1.000664	0.176273	0.383810
O12	O	1.333997	0.509607	0.717143
O13	O	0.677318	0.008790	-0.050597
O14	O	1.010651	0.342123	0.282736
O15	O	1.343984	0.675457	0.616069
O16	O	0.589384	-0.079143	-0.050576
O17	O	0.922718	0.254190	0.282757
O18	O	1.256051	0.587523	0.616090
O19	O	0.755248	-0.069140	-0.050595
O20	O	1.088581	0.264193	0.282738
O21	O	1.421914	0.597527	0.616072
Cu22	Cu	0.672315	-0.074143	-0.059812
Cu23	Cu	1.005648	0.259190	0.273521
Cu24	Cu	1.338981	0.592524	0.606854
Cu25	Cu	0.672333	-0.074127	0.059691
Cu26	Cu	1.005667	0.259206	0.393025
Cu27	Cu	1.339000	0.592539	0.726358
O28	O	0.667314	-0.157073	-0.050574
O29	O	1.000648	0.176260	0.282759
O30	O	1.333981	0.509593	0.616093
C31	C	0.568176	-0.078882	-0.000049
C32	C	0.901510	0.254451	0.333285
C33	C	1.234843	0.587785	0.666618
C34	C	0.504959	-0.078116	-0.000042
C35	C	0.838293	0.255217	0.333291
C36	C	1.171626	0.588551	0.666625
C37	C	0.105856	-0.125350	-0.000063
C38	C	0.439190	0.207984	0.333270
C39	C	0.772523	0.541317	0.666604
C40	C	0.046456	-0.124638	-0.000067
C41	C	0.379789	0.208695	0.333267
C42	C	0.713123	0.542029	0.666600
O43	O	0.009711	-0.168424	-0.000083
O44	O	0.343045	0.164909	0.333251
O45	O	0.676378	0.498243	0.666584
N46	N	0.023830	-0.072362	-0.000073
N47	N	0.357163	0.260972	0.333260
N48	N	0.690496	0.594305	0.666593
C49	C	0.060607	-0.020794	-0.000082
C50	C	0.393941	0.312540	0.333251
C51	C	0.727274	0.645873	0.666585
O52	O	0.035908	0.023737	-0.000088
O53	O	0.369241	0.357070	0.333245
O54	O	0.702574	0.690404	0.666578
C55	C	0.120006	-0.021506	-0.000082
C56	C	0.453340	0.311828	0.333251
C57	C	0.786673	0.645161	0.666584
C58	C	0.142629	-0.073785	-0.000070
C59	C	0.475962	0.259548	0.333263
C60	C	0.809296	0.592881	0.666597
C61	C	0.128479	-0.177625	-0.000051
C62	C	0.461813	0.155708	0.333282
C63	C	0.795146	0.489042	0.666615
C64	C	0.187876	-0.178336	-0.000046
C65	C	0.521209	0.154997	0.333287
C66	C	0.854542	0.488330	0.666620
C67	C	0.224649	-0.126772	-0.000053
C68	C	0.557982	0.206561	0.333280
C69	C	0.891315	0.539895	0.666614
C70	C	0.202025	-0.074497	-0.000065
C71	C	0.535359	0.258837	0.333268
C72	C	0.868692	0.592170	0.666602
C73	C	0.156783	0.030062	-0.000096
C74	C	0.490116	0.363395	0.333238
C75	C	0.823450	0.696729	0.666571
C76	C	0.216185	0.029345	-0.000097
C77	C	0.549519	0.362679	0.333237
C78	C	0.882852	0.696012	0.666570
C79	C	0.238808	-0.022934	-0.000084
C80	C	0.572141	0.310399	0.333249
C81	C	0.905475	0.643732	0.666583
C82	C	0.298194	-0.023643	-0.000067
C83	C	0.631528	0.309690	0.333266
C84	C	0.964861	0.643023	0.666600
N85	N	0.320820	-0.075920	-0.000061
N86	N	0.654154	0.257414	0.333273
N87	N	0.987487	0.590747	0.666606
C88	C	0.284048	-0.127484	-0.000054
C89	C	0.617381	0.205849	0.333280
C90	C	0.950714	0.539183	0.666613
C91	C	-0.064135	-0.019302	-0.000082
C92	C	0.269198	0.314031	0.333251
C93	C	0.602532	0.647365	0.666585
C94	C	-0.123533	-0.018589	-0.000077
C95	C	0.209800	0.314744	0.333256
C96	C	0.543134	0.648077	0.666590
C97	C	-0.137680	-0.122434	-0.000063
C98	C	0.195653	0.210899	0.333270
C99	C	0.528986	0.544232	0.666604
C100	C	-0.078281	-0.123146	-0.000064
C101	C	0.255052	0.210187	0.333270
C102	C	0.588385	0.543520	0.666603
C103	C	-0.041509	-0.071578	-0.000076
C104	C	0.291824	0.261755	0.333258
C105	C	0.625158	0.595088	0.666591
C106	C	0.408784	-0.128974	-0.000043
C107	C	0.742118	0.204360	0.333291
C108	C	1.075451	0.537693	0.666624
C109	C	0.468186	-0.129680	-0.000035
C110	C	0.801520	0.203653	0.333298
C111	C	1.134853	0.536986	0.666631
C112	C	0.482329	-0.025836	-0.000052
C113	C	0.815662	0.307497	0.333281
C114	C	1.148995	0.640831	0.666614
C115	C	0.422932	-0.025129	-0.000057
C116	C	0.756265	0.308204	0.333277
C117	C	1.089598	0.641538	0.666610
C118	C	0.386160	-0.076702	-0.000054
C119	C	0.719494	0.256631	0.333279
C120	C	1.052827	0.589964	0.666613
O121	O	0.334974	0.020119	-0.000054
O122	O	0.668307	0.353453	0.333280
O123	O	1.001640	0.686786	0.666613
O124	O	0.308755	-0.172007	-0.000055
O125	O	0.642089	0.161326	0.333278
O126	O	0.975422	0.494660	0.666611
C127	C	0.677071	0.030013	-0.000074
C128	C	1.010404	0.363346	0.333260
C129	C	1.343738	0.696679	0.666593
C130	C	0.676305	0.093230	-0.000078
C131	C	1.009638	0.426563	0.333255
C132	C	1.342972	0.759896	0.666588
C133	C	0.776472	-0.069388	-0.000071
C134	C	1.109805	0.263945	0.333263
C135	C	1.443138	0.597278	0.666596
C136	C	0.839689	-0.070154	-0.000073
C137	C	1.173022	0.263179	0.333260
C138	C	1.506355	0.596513	0.666593
C139	C	0.667577	-0.178283	-0.000046
C140	C	1.000910	0.155051	0.333288
C141	C	1.334244	0.488384	0.666621
C142	C	0.668343	-0.241500	-0.000037
C143	C	1.001676	0.091833	0.333296
C144	C	1.335010	0.425167	0.666629
N145	N	0.672305	-0.074153	-0.143865
N146	N	1.005639	0.259180	0.189469
N147	N	1.338972	0.592513	0.522802
C148	C	0.723539	0.492333	-0.000050
C149	C	1.056872	0.825666	0.333283
C150	C	1.390205	1.158999	0.666616
C151	C	0.722827	0.551733	-0.000046
C152	C	1.056160	0.885066	0.333288
C153	C	1.389494	1.218400	0.666621
O154	O	0.766613	0.588478	-0.000028
O155	O	1.099946	0.921811	0.333305
O156	O	1.433280	1.255144	0.666639
N157	N	0.670551	0.574359	-0.000040
N158	N	1.003884	0.907693	0.333293
N159	N	1.337217	1.241026	0.666627
C160	C	0.618983	0.537582	-0.000033
C161	C	0.952316	0.870915	0.333300
C162	C	1.285649	1.204248	0.666634
O163	O	0.574452	0.562281	-0.000027
O164	O	0.907785	0.895615	0.333306
O165	O	1.241119	1.228948	0.666639
C166	C	0.619695	0.478182	-0.000033
C167	C	0.953028	0.811516	0.333300
C168	C	1.286361	1.144849	0.666633
C169	C	0.671974	0.455560	-0.000045
C170	C	1.005308	0.788893	0.333288
C171	C	1.338641	1.122227	0.666622
C172	C	0.775814	0.469710	-0.000061
C173	C	1.109147	0.803043	0.333272
C174	C	1.442481	1.136376	0.666606
C175	C	0.776525	0.410313	-0.000067
C176	C	1.109859	0.743647	0.333266
C177	C	1.443192	1.076980	0.666600
C178	C	0.724961	0.373540	-0.000062
C179	C	1.058294	0.706874	0.333271
C180	C	1.391628	1.040207	0.666605
C181	C	0.672685	0.396164	-0.000051
C182	C	1.006019	0.729497	0.333282
C183	C	1.339352	1.062830	0.666616
C184	C	0.568127	0.441406	-0.000022
C185	C	0.901460	0.774739	0.333311
C186	C	1.234794	1.108073	0.666644
C187	C	0.568844	0.382004	-0.000022
C188	C	0.902177	0.715337	0.333311
C189	C	1.235510	1.048670	0.666645
C190	C	0.621123	0.359381	-0.000034
C191	C	0.954457	0.692714	0.333300
C192	C	1.287790	1.026048	0.666633
C193	C	0.621832	0.299995	-0.000052
C194	C	0.955166	0.633328	0.333282
C195	C	1.288499	0.966661	0.666615
N196	N	0.674109	0.277368	-0.000057
N197	N	1.007442	0.610702	0.333276
N198	N	1.340775	0.944035	0.666610
C199	C	0.725673	0.314141	-0.000062
C200	C	1.059006	0.647475	0.333271
C201	C	1.392340	0.980808	0.666604
C202	C	0.617491	0.662324	-0.000031
C203	C	0.950824	0.995657	0.333302
C204	C	1.284158	1.328991	0.666635
C205	C	0.616778	0.721722	-0.000035
C206	C	0.950112	1.055055	0.333298
C207	C	1.283445	1.388389	0.666631
C208	C	0.720623	0.735869	-0.000047
C209	C	1.053957	1.069203	0.333287
C210	C	1.387290	1.402536	0.666620
C211	C	0.721335	0.676470	-0.000047
C212	C	1.054669	1.009804	0.333286
C213	C	1.388002	1.343137	0.666620
C214	C	0.669767	0.639698	-0.000037
C215	C	1.003101	0.973031	0.333297
C216	C	1.336434	1.306365	0.666630
C217	C	0.727163	0.189405	-0.000075
C218	C	1.060496	0.522738	0.333258
C219	C	1.393829	0.856071	0.666592
C220	C	0.727869	0.130003	-0.000083
C221	C	1.061203	0.463336	0.333250
C222	C	1.394536	0.796669	0.666583
C223	C	0.624025	0.115860	-0.000069
C224	C	0.957358	0.449194	0.333264
C225	C	1.290692	0.782527	0.666598
C226	C	0.623318	0.175257	-0.000064
C227	C	0.956651	0.508591	0.333270
C228	C	1.289985	0.841924	0.666603
C229	C	0.674891	0.212029	-0.000065
C230	C	1.008225	0.545362	0.333269
C231	C	1.341558	0.878695	0.666602
O232	O	0.578070	0.263215	-0.000067
O233	O	0.911403	0.596549	0.333267
O234	O	1.244736	0.929882	0.666600
O235	O	0.770196	0.289433	-0.000060
O236	O	1.103529	0.622767	0.333273
O237	O	1.436863	0.956100	0.666607
C238	C	0.711273	-0.035196	-0.563653
C239	C	1.044606	0.298137	-0.230320
C240	C	1.377939	0.631471	0.103013
C241	C	0.711275	-0.035192	-0.627261
C242	C	1.044609	0.298141	-0.293928
C243	C	1.377942	0.631475	0.039406
O244	O	0.744384	-0.002076	-0.660160
O245	O	1.077717	0.331257	-0.326827
O246	O	1.411050	0.664590	0.006506
N247	N	0.672333	-0.074115	-0.659072
N248	N	1.005667	0.259218	-0.325739
N249	N	1.339000	0.592551	0.007595
C250	C	0.633382	-0.113041	-0.627272
C251	C	0.966715	0.220292	-0.293938
C252	C	1.300049	0.553625	0.039395
O253	O	0.600259	-0.146148	-0.660170
O254	O	0.933592	0.187185	-0.326837
O255	O	1.266925	0.520519	0.006497
C256	C	0.633377	-0.113042	-0.563665
C257	C	0.966711	0.220291	-0.230332
C258	C	1.300044	0.553625	0.103001
C259	C	0.672326	-0.074120	-0.531858
C260	C	1.005659	0.259213	-0.198524
C261	C	1.338992	0.592547	0.134809
C262	C	0.750217	0.003723	-0.531846
C263	C	1.083551	0.337057	-0.198513
C264	C	1.416884	0.670390	0.134821
C265	C	0.750215	0.003719	-0.468243
C266	C	1.083549	0.337052	-0.134909
C267	C	1.416882	0.670385	0.198424
C268	C	0.711268	-0.035205	-0.436447
C269	C	1.044602	0.298128	-0.103114
C270	C	1.377935	0.631461	0.230220
C271	C	0.672324	-0.074125	-0.468255
C272	C	1.005657	0.259209	-0.134921
C273	C	1.338990	0.592542	0.198412
C274	C	0.594424	-0.151965	-0.531866
C275	C	0.927757	0.181368	-0.198533
C276	C	1.261091	0.514702	0.134800
C277	C	0.594422	-0.151962	-0.468256
C278	C	0.927755	0.181371	-0.134922
C279	C	1.261089	0.514705	0.198411
C280	C	0.633370	-0.113040	-0.436448
C281	C	0.966704	0.220293	-0.103115
C282	C	1.300037	0.553627	0.230219
C283	C	0.633374	-0.113054	-0.372856
C284	C	0.966708	0.220280	-0.039522
C285	C	1.300041	0.553613	0.293811
N286	N	0.672317	-0.074130	-0.341045
N287	N	1.005650	0.259203	-0.007712
N288	N	1.338983	0.592536	0.325622
C289	C	0.711263	-0.035206	-0.372841
C290	C	1.044597	0.298127	-0.039507
C291	C	1.377930	0.631460	0.293826
C292	C	0.633395	-0.113036	-0.760850
C293	C	0.966728	0.220297	-0.427516
C294	C	1.300061	0.553631	-0.094183
C295	C	0.633402	-0.113039	-0.824455
C296	C	0.966735	0.220295	-0.491122
C297	C	1.300069	0.553628	-0.157788
C298	C	0.711294	-0.035188	-0.824440
C299	C	1.044628	0.298145	-0.491106
C300	C	1.377961	0.631478	-0.157773
C301	C	0.711290	-0.035189	-0.760833
C302	C	1.044623	0.298144	-0.427500
C303	C	1.377956	0.631478	-0.094167
C304	C	0.672337	-0.074113	-0.729039
C305	C	1.005670	0.259221	-0.395705
C306	C	1.339003	0.592554	-0.062372
C307	C	0.711256	-0.035220	-0.239269
C308	C	1.044590	0.298114	0.094064
C309	C	1.377923	0.631447	0.427397
C310	C	0.711252	-0.035229	-0.175660
C311	C	1.044586	0.298104	0.157673
C312	C	1.377919	0.631437	0.491006
C313	C	0.633358	-0.113077	-0.175681
C314	C	0.966691	0.220256	0.157652
C315	C	1.300025	0.553589	0.490986
C316	C	0.633364	-0.113070	-0.239284
C317	C	0.966697	0.220264	0.094049
C318	C	1.300031	0.553597	0.427382
C319	C	0.672315	-0.074136	-0.271077
C320	C	1.005649	0.259197	0.062256
C321	C	1.338982	0.592531	0.395590
O322	O	0.600282	-0.146151	-0.339916
O323	O	0.933615	0.187182	-0.006583
O324	O	1.266948	0.520516	0.326751
O325	O	0.744376	-0.002100	-0.339935
O326	O	1.077710	0.331233	-0.006601
O327	O	1.411043	0.664567	0.326732
N328	N	0.672347	-0.074112	0.143744
N329	N	1.005680	0.259221	0.477077
N330	N	1.339014	0.592555	0.810411
H331	H	0.246123	0.071339	-0.000107
H332	H	0.579457	0.404673	0.333227
H333	H	0.912790	0.738006	0.666560
F334	F	0.552969	-0.193390	-0.565707
F335	F	0.886302	0.139943	-0.232374
F336	F	1.219636	0.473276	0.100960
F337	F	0.791673	0.045156	-0.565676
F338	F	1.125006	0.378489	-0.232343
F339	F	1.458340	0.711823	0.100990
H340	H	0.580748	0.193677	-0.000071
H341	H	0.914081	0.527011	0.333262
H342	H	1.247414	0.860344	0.666596
H343	H	-0.034198	0.022693	-0.000086
H344	H	0.299136	0.356027	0.333247
H345	H	0.632469	0.689360	0.666580
H346	H	-0.167632	-0.164421	-0.000060
H347	H	0.165701	0.168913	0.333273
H348	H	0.499035	0.502246	0.666606
H349	H	0.404512	0.017441	-0.000058
H350	H	0.737845	0.350775	0.333275
H351	H	1.071178	0.684108	0.666609
F352	F	-0.147603	0.037054	-0.000077
F353	F	0.185730	0.370387	0.333257
F354	F	0.519064	0.703720	0.666590
F355	F	0.782053	0.228531	-0.000076
F356	F	1.115386	0.561865	0.333258
F357	F	1.448720	0.895198	0.666591
F358	F	0.513956	0.342871	-0.000010
F359	F	0.847290	0.676204	0.333323
F360	F	1.180623	1.009537	0.666657
F361	F	0.832169	0.386245	-0.000066
F362	F	1.165502	0.719578	0.333267
F363	F	1.498835	1.052911	0.666600
F364	F	0.132720	0.085706	-0.000100
F365	F	0.466053	0.419039	0.333233
F366	F	0.799386	0.752373	0.666566
F367	F	0.521475	0.029040	-0.000061
F368	F	0.854808	0.362373	0.333273
F369	F	1.188142	0.695706	0.666606
H370	H	0.206289	-0.220908	-0.000036
H371	H	0.539622	0.112426	0.333298
H372	H	0.872956	0.445759	0.666631
H373	H	0.762610	0.765821	-0.000048
H374	H	1.095943	1.099154	0.333285
H375	H	1.429276	1.432488	0.666618
H376	H	0.770443	0.111587	-0.000094
H377	H	1.103777	0.444920	0.333239
H378	H	1.437110	0.778254	0.666572
F379	F	0.591916	-0.154502	-0.273135
F380	F	0.925249	0.178832	0.060198
F381	F	1.258583	0.512165	0.393532
F382	F	0.830701	0.508838	-0.000066
F383	F	1.164034	0.842172	0.333267
F384	F	1.497367	1.175505	0.666600
H385	H	0.763906	0.658056	-0.000056
H386	H	1.097239	0.991389	0.333277
H387	H	1.430573	1.324722	0.666611
H388	H	0.525555	0.459814	-0.000009
H389	H	0.858889	0.793148	0.333324
H390	H	1.192222	1.126481	0.666658
F391	F	0.752713	0.006218	-0.273096
F392	F	1.086046	0.339551	0.060237
F393	F	1.419380	0.672885	0.393571
F394	F	0.561135	0.745792	-0.000034
F395	F	0.894469	1.079125	0.333299
F396	F	1.227802	1.412459	0.666633
H397	H	0.742971	-0.003534	-0.149765
H398	H	1.076304	0.329799	0.183569
H399	H	1.409638	0.663132	0.516902
F400	F	0.562602	0.623192	-0.000026
F401	F	0.895935	0.956526	0.333307
F402	F	1.229268	1.289859	0.666641
F403	F	0.791667	0.045147	-0.434397
F404	F	1.125000	0.378480	-0.101063
F405	F	1.458333	0.711814	0.232270
H406	H	0.582043	0.085909	-0.000067
H407	H	0.915376	0.419243	0.333266
H408	H	1.248709	0.752576	0.666600
F409	F	0.752743	0.006237	-0.726987
F410	F	1.086076	0.339571	-0.393654
F411	F	1.419409	0.672904	-0.060321
F412	F	0.752744	0.006239	-0.858291
F413	F	1.086078	0.339572	-0.524958
F414	F	1.419411	0.672906	-0.191625
H415	H	0.601692	-0.144738	-0.850348
H416	H	0.935026	0.188595	-0.517015
H417	H	1.268359	0.521928	-0.183681
H418	H	0.601676	-0.144737	-0.734966
H419	H	0.935009	0.188596	-0.401632
H420	H	1.268343	0.521930	-0.068299
F421	F	0.591911	-0.154503	-0.141832
F422	F	0.925244	0.178831	0.191501
F423	F	1.258577	0.512164	0.524835
F424	F	0.492259	-0.185326	-0.000020
F425	F	0.825592	0.148007	0.333313
F426	F	1.158926	0.481341	0.666647
F427	F	0.369658	-0.183864	-0.000040
F428	F	0.702991	0.149469	0.333293
F429	F	1.036324	0.482802	0.666626
H430	H	0.562700	-0.183658	-0.442372
H431	H	0.896033	0.149675	-0.109038
H432	H	1.229367	0.483009	0.224295
H433	H	-0.059867	-0.165717	-0.000057
H434	H	0.273467	0.167616	0.333277
H435	H	0.606800	0.500950	0.666610
F436	F	0.089351	-0.232512	-0.000044
F437	F	0.422684	0.100821	0.333290
F438	F	0.756017	0.434155	0.666623
