data_functionalizedCrystal
_audit_creation_method	'MofGen! by Chris Wilmer'
_symmetry_space_group_name_H-M	'P1'
_symmetry_Int_Tables_number	1
_symmetry_cell_setting	triclinic
loop_
_symmetry_equiv_pos_as_xyz
  x,y,z
_cell_length_a	23.532407
_cell_length_b	22.610064
_cell_length_c	23.532407
_cell_angle_alpha	89.990850
_cell_angle_beta	97.151322
_cell_angle_gamma	90.009934
loop_
_atom_site_label
_atom_site_type_symbol
_atom_site_fract_x
_atom_site_fract_y
_atom_site_fract_z
O1	O	0.755269	0.049117	-0.069133
O2	O	1.255269	0.549117	0.430867
O3	O	0.589405	0.049135	-0.079137
O4	O	1.089405	0.549135	0.420863
O5	O	0.677338	0.049114	0.008797
O6	O	1.177338	0.549114	0.508797
O7	O	0.667335	0.049137	-0.157067
O8	O	1.167335	0.549137	0.342933
O9	O	0.677313	-0.049255	0.008797
O10	O	1.177313	0.450745	0.508797
O11	O	0.589380	-0.049234	-0.079137
O12	O	1.089380	0.450766	0.420863
O13	O	0.755243	-0.049252	-0.069133
O14	O	1.255243	0.450748	0.430867
Zn15	Zn	0.672307	-0.064862	-0.074135
Zn16	Zn	1.172307	0.435138	0.425865
Zn17	Zn	0.672341	0.064744	-0.074135
Zn18	Zn	1.172341	0.564744	0.425865
O19	O	0.667310	-0.049232	-0.157067
O20	O	1.167310	0.450768	0.342933
C21	C	0.568176	-0.000048	-0.078882
C22	C	1.068176	0.499952	0.421118
C23	C	0.504959	-0.000041	-0.078116
C24	C	1.004959	0.499959	0.421884
N25	N	0.672288	-0.153314	-0.074135
N26	N	1.172288	0.346686	0.425865
C27	C	0.105856	-0.000061	-0.125350
C28	C	0.605856	0.499939	0.374650
C29	C	0.046456	-0.000065	-0.124638
C30	C	0.546456	0.499935	0.375362
O31	O	0.009711	-0.000081	-0.168424
O32	O	0.509711	0.499919	0.331576
N33	N	0.023830	-0.000071	-0.072362
N34	N	0.523830	0.499929	0.427638
C35	C	0.060607	-0.000080	-0.020794
C36	C	0.560607	0.499920	0.479206
O37	O	0.035908	-0.000086	0.023737
O38	O	0.535908	0.499914	0.523737
C39	C	0.120006	-0.000080	-0.021506
C40	C	0.620006	0.499920	0.478494
C41	C	0.142629	-0.000068	-0.073785
C42	C	0.642629	0.499932	0.426215
C43	C	0.128479	-0.000050	-0.177625
C44	C	0.628479	0.499950	0.322375
C45	C	0.187876	-0.000045	-0.178336
C46	C	0.687876	0.499955	0.321664
C47	C	0.224649	-0.000052	-0.126772
C48	C	0.724649	0.499948	0.373228
C49	C	0.202025	-0.000063	-0.074497
C50	C	0.702025	0.499937	0.425503
C51	C	0.156783	-0.000093	0.030062
C52	C	0.656783	0.499907	0.530062
C53	C	0.216185	-0.000094	0.029345
C54	C	0.716185	0.499906	0.529345
C55	C	0.238808	-0.000082	-0.022934
C56	C	0.738808	0.499918	0.477066
C57	C	0.298194	-0.000065	-0.023643
C58	C	0.798194	0.499935	0.476357
N59	N	0.320820	-0.000059	-0.075920
N60	N	0.820820	0.499941	0.424080
C61	C	0.284048	-0.000052	-0.127484
C62	C	0.784048	0.499948	0.372516
C63	C	-0.064135	-0.000080	-0.019302
C64	C	0.435865	0.499920	0.480698
C65	C	-0.123533	-0.000075	-0.018589
C66	C	0.376467	0.499925	0.481411
C67	C	-0.137680	-0.000061	-0.122434
C68	C	0.362320	0.499939	0.377566
C69	C	-0.078281	-0.000062	-0.123146
C70	C	0.421719	0.499938	0.376854
C71	C	-0.041509	-0.000074	-0.071578
C72	C	0.458491	0.499926	0.428422
C73	C	0.408784	-0.000042	-0.128974
C74	C	0.908784	0.499958	0.371026
C75	C	0.468186	-0.000034	-0.129680
C76	C	0.968186	0.499966	0.370320
C77	C	0.482329	-0.000051	-0.025836
C78	C	0.982329	0.499949	0.474164
C79	C	0.422932	-0.000055	-0.025129
C80	C	0.922932	0.499945	0.474871
C81	C	0.386160	-0.000052	-0.076702
C82	C	0.886160	0.499948	0.423298
O83	O	0.334974	-0.000052	0.020119
O84	O	0.834974	0.499948	0.520119
O85	O	0.308755	-0.000054	-0.172007
O86	O	0.808755	0.499946	0.327993
C87	C	0.706686	-0.561955	-0.108496
C88	C	1.206686	-0.061955	0.391504
C89	C	0.706693	-0.623874	-0.108494
C90	C	1.206693	-0.123874	0.391506
O91	O	0.735916	-0.655892	-0.137705
O92	O	1.235916	-0.155892	0.362295
N93	N	0.672352	-0.654851	-0.074128
N94	N	1.172352	-0.154851	0.425872
C95	C	0.638006	-0.623905	-0.039758
C96	C	1.138006	-0.123905	0.460242
O97	O	0.608797	-0.655939	-0.010527
O98	O	1.108797	-0.155939	0.489473
C99	C	0.638002	-0.561986	-0.039757
C100	C	1.138002	-0.061986	0.460243
C101	C	0.672341	-0.531013	-0.074129
C102	C	1.172341	-0.031013	0.425871
C103	C	0.741022	-0.530981	-0.142864
C104	C	1.241022	-0.030981	0.357136
C105	C	0.741014	-0.469065	-0.142867
C106	C	1.241014	0.030935	0.357133
C107	C	0.706669	-0.438123	-0.108500
C108	C	1.206669	0.061877	0.391500
C109	C	0.672333	-0.469097	-0.074131
C110	C	1.172333	0.030903	0.425869
C111	C	0.603660	-0.531041	-0.005383
C112	C	1.103660	-0.031041	0.494617
C113	C	0.603659	-0.469118	-0.005384
C114	C	1.103659	0.030882	0.494616
C115	C	0.637998	-0.438144	-0.039757
C116	C	1.137998	0.061856	0.460243
C117	C	0.637980	-0.376239	-0.039766
C118	C	1.137980	0.123761	0.460234
N119	N	0.672321	-0.345262	-0.074132
N120	N	1.172321	0.154738	0.425868
C121	C	0.706666	-0.376204	-0.108498
C122	C	1.206666	0.123796	0.391502
C123	C	0.638017	-0.753938	-0.039762
C124	C	1.138017	-0.253938	0.460238
C125	C	0.638017	-0.815856	-0.039766
C126	C	1.138017	-0.315856	0.460234
C127	C	0.706705	-0.815821	-0.108502
C128	C	1.206705	-0.315821	0.391498
C129	C	0.706701	-0.753903	-0.108501
C130	C	1.206701	-0.253903	0.391499
C131	C	0.672358	-0.722962	-0.074128
C132	C	1.172358	-0.222962	0.425872
C133	C	0.706646	-0.246177	-0.108501
C134	C	1.206646	0.253823	0.391499
C135	C	0.706633	-0.184256	-0.108502
C136	C	1.206633	0.315744	0.391498
C137	C	0.637948	-0.184296	-0.039764
C138	C	1.137948	0.315704	0.460236
C139	C	0.637958	-0.246212	-0.039765
C140	C	1.137958	0.253788	0.460235
C141	C	0.672312	-0.277151	-0.074135
C142	C	1.172312	0.222849	0.425865
O143	O	0.608774	-0.344182	-0.010568
O144	O	1.108774	0.155818	0.489432
O145	O	0.735875	-0.344163	-0.137719
O146	O	1.235875	0.155837	0.362281
C147	C	0.776472	-0.000069	-0.069388
C148	C	1.276472	0.499931	0.430612
C149	C	0.839689	-0.000071	-0.070154
C150	C	1.339689	0.499929	0.429846
C151	C	0.677071	-0.000072	0.030013
C152	C	1.177071	0.499928	0.530013
C153	C	0.676305	-0.000076	0.093230
C154	C	1.176305	0.499924	0.593230
N155	N	0.672364	0.153196	-0.074131
N156	N	1.172364	0.653196	0.425869
C157	C	0.667577	-0.000045	-0.178283
C158	C	1.167577	0.499955	0.321717
C159	C	0.668343	-0.000036	-0.241500
C160	C	1.168343	0.499964	0.258500
C161	C	0.723539	-0.000049	0.492333
C162	C	1.223539	0.499951	0.992333
C163	C	0.722827	-0.000044	0.551733
C164	C	1.222827	0.499956	1.051733
O165	O	0.766613	-0.000027	0.588478
O166	O	1.266613	0.499973	1.088478
N167	N	0.670551	-0.000039	0.574359
N168	N	1.170551	0.499961	1.074359
C169	C	0.618983	-0.000032	0.537582
C170	C	1.118983	0.499968	1.037582
O171	O	0.574452	-0.000027	0.562281
O172	O	1.074452	0.499973	1.062281
C173	C	0.619695	-0.000033	0.478182
C174	C	1.119695	0.499967	0.978182
C175	C	0.671974	-0.000044	0.455560
C176	C	1.171974	0.499956	0.955560
C177	C	0.775814	-0.000060	0.469710
C178	C	1.275814	0.499940	0.969710
C179	C	0.776525	-0.000065	0.410313
C180	C	1.276525	0.499935	0.910313
C181	C	0.724961	-0.000060	0.373540
C182	C	1.224961	0.499940	0.873540
C183	C	0.672685	-0.000050	0.396164
C184	C	1.172685	0.499950	0.896164
C185	C	0.568127	-0.000022	0.441406
C186	C	1.068127	0.499978	0.941406
C187	C	0.568844	-0.000021	0.382004
C188	C	1.068844	0.499979	0.882004
C189	C	0.621123	-0.000033	0.359381
C190	C	1.121123	0.499967	0.859381
C191	C	0.621832	-0.000050	0.299995
C192	C	1.121832	0.499950	0.799995
N193	N	0.674109	-0.000056	0.277368
N194	N	1.174109	0.499944	0.777368
C195	C	0.725673	-0.000061	0.314141
C196	C	1.225673	0.499939	0.814141
C197	C	0.617491	-0.000031	0.662324
C198	C	1.117491	0.499969	1.162324
C199	C	0.616778	-0.000034	0.721722
C200	C	1.116778	0.499966	1.221722
C201	C	0.720623	-0.000045	0.735869
C202	C	1.220623	0.499955	1.235869
C203	C	0.721335	-0.000046	0.676470
C204	C	1.221335	0.499954	1.176470
C205	C	0.669767	-0.000036	0.639698
C206	C	1.169767	0.499964	1.139698
C207	C	0.727163	-0.000073	0.189405
C208	C	1.227163	0.499927	0.689405
C209	C	0.727869	-0.000081	0.130003
C210	C	1.227869	0.499919	0.630003
C211	C	0.624025	-0.000067	0.115860
C212	C	1.124025	0.499933	0.615860
C213	C	0.623318	-0.000062	0.175257
C214	C	1.123318	0.499938	0.675257
C215	C	0.674891	-0.000063	0.212029
C216	C	1.174891	0.499937	0.712029
O217	O	0.578070	-0.000065	0.263215
O218	O	1.078070	0.499935	0.763215
O219	O	0.770196	-0.000058	0.289433
O220	O	1.270196	0.499942	0.789433
H221	H	0.486602	-0.000024	-0.172255
H222	H	0.986602	0.499976	0.327745
H223	H	0.575698	-0.556249	0.022607
H224	H	1.075698	-0.056249	0.522607
H225	H	-0.167632	-0.000059	-0.164421
H226	H	0.332368	0.499941	0.335579
H227	H	0.609984	-0.159092	-0.011785
H228	H	1.109984	0.340908	0.488215
H229	H	0.768992	-0.556167	-0.170850
H230	H	1.268992	-0.056167	0.329150
H231	H	0.378851	-0.000041	-0.170970
H232	H	0.878851	0.499959	0.329030
H233	H	0.575693	-0.443929	0.022607
H234	H	1.075693	0.056071	0.522607
H235	H	0.609989	-0.271432	-0.011784
H236	H	1.109989	0.228568	0.488216
Cl237	Cl	0.793597	-0.000094	0.101567
Cl238	Cl	1.293597	0.499906	0.601567
Cl239	Cl	0.791999	-0.000075	0.235622
Cl240	Cl	1.291999	0.499925	0.735622
H241	H	0.610048	-0.841070	-0.011784
H242	H	1.110048	-0.341070	0.488216
H243	H	0.246123	-0.000104	0.071339
H244	H	0.746123	0.499896	0.571339
H245	H	0.734595	-0.159040	-0.136494
H246	H	1.234595	0.340960	0.363506
H247	H	0.762610	-0.000047	0.765821
H248	H	1.262610	0.499953	1.265821
Cl249	Cl	0.784176	-0.430136	-0.186089
Cl250	Cl	1.284176	0.069864	0.313911
Cl251	Cl	0.840647	-0.000067	0.515929
Cl252	Cl	1.340647	0.499933	1.015929
H253	H	0.819097	-0.000072	0.391900
H254	H	1.319097	0.499928	0.891900
Cl255	Cl	0.551053	-0.000032	0.750154
Cl256	Cl	1.051053	0.499968	1.250154
H257	H	0.206289	-0.000035	-0.220908
H258	H	0.706289	0.499965	0.279092
H259	H	0.734663	-0.728688	-0.136490
H260	H	1.234663	-0.228688	0.363510
H261	H	0.734620	-0.271360	-0.136488
H262	H	1.234620	0.228640	0.363512
Cl263	Cl	0.394491	-0.000073	0.040595
Cl264	Cl	0.894491	0.499927	0.540595
Cl265	Cl	0.502400	-0.000003	0.469831
Cl266	Cl	1.002400	0.499997	0.969831
Cl267	Cl	0.787060	-0.000059	0.648037
Cl268	Cl	1.287060	0.499941	1.148037
H269	H	0.138375	-0.000103	0.072634
H270	H	0.638375	0.499897	0.572634
H271	H	0.734670	-0.841026	-0.136486
H272	H	1.234670	-0.341026	0.363514
H273	H	0.526850	-0.000013	0.352066
H274	H	1.026850	0.499987	0.852066
H275	H	-0.141947	-0.000076	0.023982
H276	H	0.358053	0.499924	0.523982
Cl277	Cl	0.594831	-0.715047	0.003446
Cl278	Cl	1.094831	-0.215047	0.503446
H279	H	0.575496	-0.000028	0.632386
H280	H	1.075496	0.499972	1.132386
H281	H	0.580748	-0.000069	0.193677
H282	H	1.080748	0.499931	0.693677
Cl283	Cl	-0.017912	-0.000087	0.045533
Cl284	Cl	0.482088	0.499913	0.545533
Cl285	Cl	0.559205	-0.000059	0.069621
Cl286	Cl	1.059205	0.499941	0.569621
H287	H	-0.059867	-0.000055	-0.165717
H288	H	0.440133	0.499945	0.334283
H289	H	0.098544	-0.000046	-0.219617
H290	H	0.598544	0.499954	0.280383
H291	H	0.512280	-0.000054	0.016146
H292	H	1.012280	0.499946	0.516146
