data_functionalizedCrystal
_audit_creation_method	'MofGen! by Chris Wilmer'
_symmetry_space_group_name_H-M	'P1'
_symmetry_Int_Tables_number	1
_symmetry_cell_setting	triclinic
loop_
_symmetry_equiv_pos_as_xyz
  x,y,z
_cell_length_a	10.540535
_cell_length_b	10.540558
_cell_length_c	10.868271
_cell_angle_alpha	90.001676
_cell_angle_beta	90.001924
_cell_angle_gamma	95.471622
loop_
_atom_site_label
_atom_site_type_symbol
_atom_site_fract_x
_atom_site_fract_y
_atom_site_fract_z
O1	O	1.685902	-0.178872	0.102234
O2	O	1.316490	-0.195734	0.102250
O3	O	1.509611	-0.002598	0.102255
O4	O	1.492780	-0.372008	0.102229
O5	O	1.509595	-0.002590	-0.102390
O6	O	1.316473	-0.195726	-0.102395
O7	O	1.685886	-0.178865	-0.102410
Zn8	Zn	1.501177	-0.187294	-0.134894
Zn9	Zn	1.501198	-0.187305	0.134734
O10	O	1.492764	-0.372001	-0.102415
C11	C	1.269178	-0.194467	-0.000070
C12	C	1.128230	-0.190687	-0.000063
C13	C	1.091550	-0.049675	-0.000059
C14	C	0.944949	-0.045697	-0.000535
C15	C	0.918889	-0.255053	-0.116717
C16	C	1.065655	-0.258053	-0.116803
C17	C	1.065557	-0.260114	0.115924
C18	C	0.919210	-0.253592	0.117445
C19	C	1.508336	0.044708	-0.000061
C20	C	1.504545	0.185655	-0.000044
C21	C	1.359615	0.369078	0.000437
C22	C	1.363459	0.222461	-0.000036
C23	C	1.572427	0.247318	-0.116904
C24	C	1.567603	0.393861	-0.116991
C25	C	1.570490	0.394371	0.115729
C26	C	1.571800	0.247390	0.117262
C27	C	1.733197	-0.180132	-0.000087
C28	C	1.874146	-0.183911	-0.000086
C29	C	1.494023	0.580691	-0.000076
C30	C	1.497764	0.439738	-0.000027
N31	N	1.501172	-0.187287	-0.318908
C32	C	1.501192	-0.187302	-0.569914
C33	C	1.501177	-0.187297	-0.430237
N34	N	1.501214	-0.187302	0.318748
H35	H	1.088692	-0.361427	-0.121794
H36	H	1.134997	0.003572	-0.083567
H37	H	1.672391	0.441598	0.116514
Br38	Br	0.871596	-0.167274	0.261265
H39	H	1.105816	-0.210002	-0.204314
Br40	Br	0.837485	-0.421730	0.129775
Br41	Br	1.489722	0.178459	0.261377
Br42	Br	0.839977	-0.424671	-0.123417
H43	H	1.087749	-0.363864	0.117045
H44	H	1.304102	0.399288	-0.082893
H45	H	1.310044	0.179854	0.083735
Br46	Br	1.736705	0.473822	-0.125844
Br47	Br	0.897493	0.046565	-0.140712
Br48	Br	1.483951	0.440873	-0.262580
Br49	Br	0.867372	-0.173696	-0.261936
Br50	Br	1.161502	0.040584	0.139327
H51	H	1.303889	0.397674	0.084245
H52	H	1.674662	0.223170	0.124312
H53	H	1.309657	0.180708	-0.083948
Br54	Br	1.745119	0.210071	-0.124164
Br55	Br	1.136328	-0.186780	0.263319
Br56	Br	1.493816	0.176327	-0.261859
H57	H	0.915614	0.009940	0.083054
Br58	Br	1.494381	0.446934	0.263368
