data_functionalizedCrystal
_audit_creation_method	'MofGen! by Chris Wilmer'
_symmetry_space_group_name_H-M	'P1'
_symmetry_Int_Tables_number	1
_symmetry_cell_setting	triclinic
loop_
_symmetry_equiv_pos_as_xyz
  x,y,z
_cell_length_a	6.817900
_cell_length_b	10.943925
_cell_length_c	16.418042
_cell_angle_alpha	93.820412
_cell_angle_beta	76.610432
_cell_angle_gamma	71.155711
loop_
_atom_site_label
_atom_site_type_symbol
_atom_site_fract_x
_atom_site_fract_y
_atom_site_fract_z
V1	V	4.053081	-0.179682	-0.261142
O2	O	4.011937	0.007555	-0.256183
O3	O	4.031497	-0.355241	-0.259345
O4	O	4.003804	-0.177392	-0.375040
O5	O	4.039821	-0.171525	-0.139686
V6	V	4.533347	-0.157231	-0.246616
O7	O	4.321482	-0.228932	-0.293006
O8	O	4.715143	-0.107981	-0.214753
O9	O	4.331725	0.018328	-0.248414
O10	O	4.691887	-0.344467	-0.251576
O11	O	4.664003	-0.165387	-0.368072
O12	O	4.359417	-0.159521	-0.132718
C13	C	3.883049	-0.398024	-0.255222
C14	C	3.946683	-0.541548	-0.254512
C15	C	4.213207	-0.718296	-0.258036
C16	C	4.040887	-0.612010	-0.186897
C17	C	4.118189	-0.645921	-0.325629
C18	C	3.887604	-0.690963	-0.182044
C19	C	3.964972	-0.724898	-0.320839
C20	C	3.792520	-0.618642	-0.249680
C21	C	3.847724	-0.171158	-0.402803
C22	C	3.888896	-0.170447	-0.495915
C23	C	4.143515	0.061104	-0.252534
C24	C	4.059120	0.204628	-0.253250
C25	C	4.166652	-0.175250	-0.714400
C26	C	4.205317	-0.174571	-0.801888
C27	C	3.839131	-0.161656	-0.793346
C28	C	3.800464	-0.162326	-0.705859
C29	C	3.964235	-0.169130	-0.666390
C30	C	4.041566	-0.167781	-0.841364
C31	C	4.083487	-0.167045	-0.936222
C32	C	3.922311	-0.169863	-0.571525
C33	C	4.178840	-0.165759	-0.104952
C34	C	4.116906	-0.166463	-0.011839
H35	H	4.072319	-0.562866	-0.130273
C36	C	3.756726	-0.718373	-0.099972
N37	N	3.658161	-0.739021	-0.038154
C38	C	4.427987	-0.181301	-0.854696
N39	N	4.595710	-0.186368	-0.894471
C40	C	3.551416	-0.560133	-0.244884
N41	N	3.369815	-0.516059	-0.241267
C42	C	3.577783	-0.155599	-0.653045
N43	N	3.410065	-0.150533	-0.613265
C44	C	4.249057	-0.618277	-0.407612
N45	N	4.347641	-0.597460	-0.469359
H46	H	3.933624	-0.774073	-0.377468
C47	C	4.454191	-0.777082	-0.262679
N48	N	4.635695	-0.821362	-0.266172
H49	H	3.705801	-0.156120	-0.825494
H50	H	4.300007	-0.180788	-0.682267
