data_functionalizedCrystal
_audit_creation_method	'MofGen! by Chris Wilmer'
_symmetry_space_group_name_H-M	'P1'
_symmetry_Int_Tables_number	1
_symmetry_cell_setting	triclinic
loop_
_symmetry_equiv_pos_as_xyz
  x,y,z
_cell_length_a	15.538191
_cell_length_b	10.654546
_cell_length_c	9.130313
_cell_angle_alpha	90.003981
_cell_angle_beta	89.996790
_cell_angle_gamma	65.877789
loop_
_atom_site_label
_atom_site_type_symbol
_atom_site_fract_x
_atom_site_fract_y
_atom_site_fract_z
O1	O	0.131894	1.606184	0.121815
O2	O	0.144466	1.234829	0.121809
O3	O	0.001522	1.492794	0.121820
O4	O	0.274838	1.348219	0.121804
O5	O	0.001530	1.492777	-0.121779
O6	O	0.144474	1.234811	-0.121790
O7	O	0.131903	1.606167	-0.121784
Cu8	Cu	0.138189	1.420488	-0.144030
Cu9	Cu	0.138179	1.420508	0.144054
O10	O	0.274846	1.348202	-0.121795
C11	C	0.143547	1.188453	0.000009
C12	C	0.140788	1.050300	0.000008
C13	C	0.139477	0.985425	0.132800
C14	C	0.136877	0.855620	0.132812
C15	C	0.136894	0.855578	-0.132773
C16	C	0.139501	0.985377	-0.132783
C17	C	0.140764	1.050348	0.265591
C18	C	0.139453	0.985473	0.398394
C19	C	0.136852	0.855668	0.398406
C20	C	0.135563	0.790737	0.265615
C21	C	-0.033471	1.507912	0.000025
C22	C	-0.137750	1.552968	0.000041
C23	C	-0.428461	1.105344	0.000002
C24	C	-0.526451	1.147713	-0.000000
C25	C	-0.547339	1.386029	0.000004
C26	C	-0.449349	1.343680	0.000014
C27	C	-0.389918	1.203336	0.000011
C28	C	-0.410806	1.441671	0.000023
C29	C	-0.312825	1.399325	0.000025
C30	C	-0.253387	1.258988	0.000018
C31	C	-0.291937	1.160990	0.000014
C32	C	-0.470239	1.582015	0.000015
C33	C	-0.431695	1.680006	0.000024
C34	C	-0.333713	1.637661	0.000037
C35	C	-0.274275	1.497323	0.000030
C36	C	-0.295163	1.735658	0.000041
C37	C	-0.197182	1.693312	0.000043
C38	C	-0.176294	1.454977	0.000032
C39	C	0.309839	1.333084	0.000002
C40	C	0.414119	1.288028	-0.000003
C41	C	0.132821	1.652543	0.000019
C42	C	0.135580	1.790696	0.000030
N43	N	0.138196	1.420483	-0.346652
C44	C	0.195684	1.470438	-0.423321
C45	C	0.195667	1.470464	-0.576657
C46	C	0.080670	1.370571	-0.576644
C47	C	0.080683	1.370554	-0.423310
C48	C	0.253197	1.520366	-0.346663
C49	C	0.310691	1.570324	-0.423331
C50	C	0.310673	1.570350	-0.576668
C51	C	0.253162	1.520419	-0.653336
N52	N	0.138165	1.420526	0.346677
H53	H	0.135843	0.802702	-0.240885
H54	H	0.253143	1.520461	-0.778194
Cl55	Cl	0.135214	0.774108	0.565355
Cl56	Cl	0.144030	1.213533	0.265585
H57	H	0.140573	1.038196	-0.240915
H58	H	0.140510	1.038343	0.506508
Cl59	Cl	0.253225	1.520332	-0.153897
H60	H	0.357509	1.610986	-0.360898
Cl61	Cl	0.008391	1.307788	-0.326920
Cl62	Cl	0.382942	1.633166	-0.673047
H63	H	-0.480097	1.794274	0.000020
H64	H	0.133456	0.685035	0.265635
H65	H	0.033849	1.329917	-0.639080
H66	H	-0.127901	1.340695	0.000041
H67	H	-0.550021	1.616488	0.000027
H68	H	-0.173605	1.224512	0.000011
Cl69	Cl	-0.217215	0.984554	0.000025
H70	H	-0.595741	1.500297	0.000000
H71	H	-0.557827	1.067906	-0.000029
H72	H	-0.343566	1.849926	0.000029
Cl73	Cl	-0.148723	1.816502	0.000027
H74	H	-0.380068	0.991062	0.000011
