data_functionalizedCrystal
_audit_creation_method	'MofGen! by Chris Wilmer'
_symmetry_space_group_name_H-M	'P1'
_symmetry_Int_Tables_number	1
_symmetry_cell_setting	triclinic
loop_
_symmetry_equiv_pos_as_xyz
  x,y,z
_cell_length_a	12.759401
_cell_length_b	17.640280
_cell_length_c	12.759393
_cell_angle_alpha	101.231878
_cell_angle_beta	90.019684
_cell_angle_gamma	78.799827
loop_
_atom_site_label
_atom_site_type_symbol
_atom_site_fract_x
_atom_site_fract_y
_atom_site_fract_z
Zn1	Zn	1.690821	-0.314644	0.509544
Zn2	Zn	1.726246	-0.446841	0.298374
Zn3	Zn	1.515134	-0.314682	0.333869
Zn4	Zn	1.550625	-0.446778	0.474028
O5	O	1.620707	-0.380736	0.403954
O6	O	1.842544	-0.332190	0.481540
O7	O	1.698214	-0.429353	0.156049
O8	O	1.508760	-0.204070	0.386891
O9	O	1.868571	-0.429315	0.326394
O10	O	1.637837	-0.204041	0.515959
O11	O	1.543110	-0.332256	0.182128
O12	O	1.372818	-0.332195	0.352453
O13	O	1.569251	-0.429207	0.625772
O14	O	1.398894	-0.429245	0.455428
O15	O	1.672252	-0.332129	0.651865
O16	O	1.732628	-0.557440	0.291956
O17	O	1.603600	-0.557393	0.421009
C18	C	1.347734	-0.380718	0.403939
C19	C	1.230961	-0.380729	0.403952
C20	C	1.162472	-0.330129	0.350475
C21	C	1.052753	-0.330147	0.350483
C22	C	1.080021	-0.431369	0.457455
C23	C	1.189739	-0.431354	0.457439
C24	C	1.203694	-0.279504	0.296988
C25	C	1.135204	-0.228899	0.243507
C26	C	1.025485	-0.228918	0.243515
C27	C	0.984256	-0.279542	0.297004
C28	C	1.675838	-0.586096	0.348800
C29	C	1.699520	-0.673950	0.325240
C30	C	1.441231	-0.962906	0.583318
C31	C	1.463485	-1.045458	0.561146
C32	C	1.597925	-1.045441	0.426899
C33	C	1.575686	-0.962887	0.449063
C34	C	1.497336	-0.921626	0.527273
C35	C	1.631791	-0.921608	0.393018
C36	C	1.609549	-0.839061	0.415177
C37	C	1.531201	-0.797794	0.493381
C38	C	1.475094	-0.839080	0.549432
C39	C	1.710135	-0.962870	0.314804
C40	C	1.766241	-0.921590	0.258759
C41	C	1.744004	-0.839042	0.280923
C42	C	1.665656	-0.797776	0.359126
C43	C	1.800111	-0.797757	0.224872
C44	C	1.777869	-0.715211	0.247030
C45	C	1.643414	-0.715229	0.381285
C46	C	1.894745	-0.380755	0.403969
C47	C	2.011524	-0.380763	0.403976
C48	C	1.620759	-0.380656	0.678009
C49	C	1.620781	-0.380622	0.794794
C50	C	1.565388	-0.174575	0.459346
C51	C	1.541815	-0.086721	0.482951
C52	C	1.620700	-0.380759	0.130980
C53	C	1.620821	-0.380570	0.014255
C54	C	1.674422	-0.330069	0.863246
C55	C	1.674439	-0.330040	0.972978
C56	C	1.567174	-0.431126	0.945795
C57	C	1.567151	-0.431150	0.836066
C58	C	1.728052	-0.279542	0.821974
C59	C	1.781698	-0.228985	0.890427
C60	C	1.781716	-0.228956	1.000159
C61	C	1.728087	-0.279485	1.041438
H62	H	1.046443	-0.472583	0.501005
H63	H	1.579622	-0.681633	0.444979
H64	H	0.969725	-0.187718	0.199961
C65	C	1.840060	-0.174036	1.074299
C66	C	1.887040	-0.129809	1.014660
C67	C	1.940813	-0.079217	1.082917
H68	H	1.790738	-0.139511	1.126381
H69	H	1.894008	-0.204250	1.108963
H70	H	1.833098	-0.099597	0.980014
H71	H	1.936377	-0.164313	0.962582
H72	H	1.994761	-0.109431	1.117581
H73	H	1.891485	-0.044697	1.134996
H74	H	1.972704	-0.049208	1.042461
H75	H	1.728090	-0.279448	1.130793
C76	C	1.402766	-1.090380	0.622035
C77	C	1.474970	-1.137723	0.676702
C78	C	1.419077	-1.179125	0.732787
H79	H	1.352919	-1.054074	0.671861
H80	H	1.365732	-1.122670	0.573161
H81	H	1.511987	-1.105436	0.725571
H82	H	1.524819	-1.174044	0.626901
H83	H	1.382043	-1.211416	0.683913
H84	H	1.369232	-1.142814	0.782607
H85	H	1.468060	-1.211258	0.769877
C86	C	1.509070	-0.485959	0.990805
C87	C	1.520598	-0.475134	1.101548
C88	C	1.467103	-0.525644	1.143043
H89	H	1.435340	-0.474443	0.976045
H90	H	1.538710	-0.539087	0.958602
H91	H	1.490954	-0.422017	1.133741
H92	H	1.594315	-0.486655	1.116338
H93	H	1.496743	-0.578772	1.110840
H94	H	1.393376	-0.514124	1.128275
H95	H	1.474925	-0.518311	1.218184
H96	H	1.523452	-0.472303	0.780334
H97	H	0.894915	-0.279556	0.297001
H98	H	1.411302	-0.805484	0.613125
H99	H	1.293031	-0.279481	0.296978
H100	H	1.245504	-0.472556	0.500987
H101	H	1.168782	-0.187687	0.199951
C102	C	1.356105	-0.918243	0.668251
C103	C	1.311717	-0.972059	0.712588
C104	C	1.233296	-0.930944	0.790821
H105	H	1.387480	-0.885999	0.722802
H106	H	1.301628	-0.886097	0.636683
H107	H	1.366185	-1.004191	0.744156
H108	H	1.280321	-1.004304	0.658064
H109	H	1.178819	-0.898799	0.759253
H110	H	1.264680	-0.898702	0.845365
H111	H	1.203162	-0.967452	0.820906
C112	C	1.734404	-1.052493	0.290944
C113	C	1.768532	-1.079743	0.383669
C114	C	1.790916	-1.162297	0.361728
H115	H	1.671726	-1.071320	0.267733
H116	H	1.789137	-1.071183	0.236377
H117	H	1.713803	-1.061060	0.438218
H118	H	1.831217	-1.060938	0.406894
H119	H	1.845648	-1.180988	0.307162
H120	H	1.728233	-1.181116	0.338517
H121	H	1.814083	-1.180797	0.424636
C122	C	1.507042	-0.708171	0.517219
C123	C	1.472977	-0.680915	0.424482
C124	C	1.450726	-0.598360	0.446398
H125	H	1.452323	-0.689409	0.571770
H126	H	1.569789	-0.689422	0.540427
H127	H	1.410238	-0.699656	0.401289
H128	H	1.527681	-0.699655	0.369919
H129	H	1.513472	-0.579610	0.469606
H130	H	1.396009	-0.579605	0.500951
H131	H	1.427619	-0.579855	0.383478
H132	H	1.661714	-1.079047	0.363218
C133	C	1.851307	-0.966249	0.173775
C134	C	1.895666	-0.912427	0.129421
C135	C	1.974025	-0.953535	0.051123
H136	H	1.905817	-0.998411	0.205258
H137	H	1.819852	-0.998475	0.119251
H138	H	1.927121	-0.880215	0.183936
H139	H	1.841183	-0.880263	0.097917
H140	H	1.942570	-0.985761	-0.003402
H141	H	2.028528	-0.985696	0.082615
H142	H	2.004125	-0.917024	0.021012
H143	H	1.863896	-0.831364	0.161187
H144	H	1.823556	-0.681600	0.201391
C145	C	1.839896	-0.174208	0.845403
C146	C	1.828423	-0.185065	0.734652
C147	C	1.882030	-0.134623	0.693142
H148	H	1.810329	-0.121064	0.877541
H149	H	1.913620	-0.185783	0.860221
H150	H	1.754714	-0.173485	0.719843
H151	H	1.857995	-0.238199	0.702486
H152	H	1.955754	-0.146198	0.707959
H153	H	1.852459	-0.081482	0.725287
H154	H	1.874262	-0.141988	0.617992
H155	H	1.728047	-0.279561	0.732626
