data_functionalizedCrystal
_audit_creation_method	'MofGen! by Chris Wilmer'
_symmetry_space_group_name_H-M	'P1'
_symmetry_Int_Tables_number	1
_symmetry_cell_setting	triclinic
loop_
_symmetry_equiv_pos_as_xyz
  x,y,z
_cell_length_a	10.489741
_cell_length_b	23.532407
_cell_length_c	9.565339
_cell_angle_alpha	89.995586
_cell_angle_beta	89.999100
_cell_angle_gamma	83.693926
loop_
_atom_site_label
_atom_site_type_symbol
_atom_site_fract_x
_atom_site_fract_y
_atom_site_fract_z
O1	O	1.691382	0.080340	-0.116190
O2	O	1.319936	0.087882	-0.116213
O3	O	1.516860	0.001253	-0.116175
O4	O	1.494458	0.166968	-0.116228
O5	O	1.516844	0.001259	0.116345
O6	O	1.319920	0.087887	0.116307
O7	O	1.691366	0.080345	0.116330
Zn8	Zn	1.505641	0.084117	0.153236
Zn9	Zn	1.505661	0.084110	-0.153119
O10	O	1.494442	0.166974	0.116293
C11	C	1.272415	0.087315	0.000045
C12	C	1.130842	0.085611	0.000037
C13	C	1.064535	0.030491	0.000067
C14	C	0.971550	0.056527	-0.114582
C15	C	0.971568	0.056545	0.114664
C16	C	1.039722	0.111668	-0.114708
C17	C	1.039750	0.111679	0.114642
C18	C	0.946792	0.137754	-0.000036
C19	C	1.516282	-0.019964	0.000089
C20	C	1.514566	-0.083192	0.000099
C21	C	1.620344	-0.481594	0.000029
C22	C	1.618751	-0.541005	0.000019
O23	O	1.716808	-0.577100	-0.000027
N24	N	1.501680	-0.564407	0.000012
C25	C	1.386194	-0.528395	0.000002
O26	O	1.286470	-0.553755	-0.000005
C27	C	1.387789	-0.468985	0.000003
C28	C	1.504868	-0.445587	0.000024
C29	C	1.737414	-0.458195	0.000048
C30	C	1.739007	-0.398788	0.000062
C31	C	1.623530	-0.362781	0.000056
C32	C	1.506460	-0.386180	0.000037
C33	C	1.272305	-0.432974	-0.000017
C34	C	1.273909	-0.373561	-0.000017
C35	C	1.390988	-0.350162	0.000003
C36	C	1.392576	-0.290766	0.000045
N37	N	1.509648	-0.267364	0.000051
C38	C	1.625125	-0.303371	0.000057
C39	C	1.382854	-0.653160	-0.000002
C40	C	1.381258	-0.712568	0.000008
C41	C	1.613816	-0.725174	0.000021
C42	C	1.615410	-0.665765	0.000022
C43	C	1.499926	-0.629758	0.000005
C44	C	1.628461	-0.178612	0.000086
C45	C	1.630043	-0.119200	0.000105
C46	C	1.397486	-0.106599	0.000084
C47	C	1.395903	-0.166006	0.000072
C48	C	1.511401	-0.202012	0.000068
O49	O	1.294571	-0.254636	0.000084
O50	O	1.724833	-0.278003	0.000046
C51	C	1.738887	0.080912	0.000070
C52	C	1.880460	0.082616	0.000069
C53	C	1.495021	0.188191	0.000026
C54	C	1.496736	0.251419	0.000006
N55	N	1.505636	0.084122	0.362316
N56	N	1.505676	0.084101	-0.362198
C57	C	1.414538	0.124171	0.453501
C58	C	1.529652	0.135693	0.546683
C59	C	1.390572	0.072603	0.546689
C60	C	1.620808	0.095670	0.453446
C61	C	1.481652	0.032557	0.453444
C62	C	1.596850	0.044059	0.546584
H63	H	1.070015	0.134984	0.211562
H64	H	1.115731	-0.014820	-0.000062
O65	O	1.322563	0.164577	0.404895
C66	C	1.201556	0.152883	0.454409
H67	H	1.214496	0.125765	0.553202
H68	H	1.140475	0.194778	0.479113
H69	H	1.151848	0.128652	0.370953
O70	O	1.553671	0.187742	0.595490
C71	C	1.457405	0.229856	0.548046
H72	H	1.367171	0.209066	0.521902
H73	H	1.434774	0.263277	0.633341
H74	H	1.492424	0.251280	0.450535
H75	H	1.718153	0.105455	0.412660
H76	H	1.707843	-0.754503	0.000020
H77	H	1.831454	-0.487507	0.000048
O78	O	0.935558	0.028612	-0.230096
C79	C	0.996140	-0.027920	-0.229695
H80	H	1.024014	-0.041020	-0.118127
H81	H	0.927509	-0.057913	-0.272985
H82	H	1.085883	-0.030540	-0.297646
O83	O	1.689035	0.003703	0.594984
C84	C	1.810129	0.016044	0.547185
H85	H	1.805877	0.063491	0.521174
H86	H	1.884849	0.004880	0.632214
H87	H	1.837581	-0.010258	0.449519
O88	O	1.274577	0.060916	0.595716
C89	C	1.290475	0.010577	0.676720
H90	H	1.393296	0.003344	0.716886
H91	H	1.221459	0.015036	0.769121
H92	H	1.269525	-0.027354	0.609661
H93	H	1.710746	-0.646718	0.000038
H94	H	0.941359	0.033215	0.211592
O95	O	1.282146	-0.188714	-0.000188
C96	C	1.211799	-0.170337	-0.120597
H97	H	1.280281	-0.157685	-0.204749
H98	H	1.158014	-0.206544	-0.161046
H99	H	1.140217	-0.131925	-0.093364
H100	H	1.069782	0.134970	-0.211745
O101	O	1.743892	-0.096566	0.000057
C102	C	1.845468	-0.141091	0.000089
H103	H	1.810240	-0.181588	-0.043942
H104	H	1.927257	-0.128334	-0.067411
H105	H	1.881045	-0.149356	0.111641
H106	H	1.285921	-0.731613	0.000015
O107	O	1.270547	-0.618266	0.000064
C108	C	1.166887	-0.651667	0.000024
H109	H	1.199852	-0.695865	0.044042
H110	H	1.086017	-0.630100	0.067531
H111	H	1.130969	-0.656044	-0.111529
H112	H	1.834344	-0.379743	0.000072
O113	O	0.886076	0.191875	-0.000368
C114	C	0.920836	0.220715	-0.121394
H115	H	0.954517	0.188155	-0.205488
H116	H	0.834381	0.249748	-0.161412
H117	H	1.001714	0.247561	-0.095149
O118	O	1.740570	-0.213641	0.000275
C119	C	1.746620	-0.248379	0.120713
H120	H	1.645424	-0.251816	0.160845
H121	H	1.794732	-0.292820	0.093630
H122	H	1.804594	-0.228593	0.205050
O123	O	1.158460	-0.455600	-0.000105
C124	C	1.056897	-0.411068	-0.000084
H125	H	1.092149	-0.370569	-0.044090
H126	H	0.975118	-0.423812	-0.067611
H127	H	1.021297	-0.402814	0.111462
H128	H	1.179865	-0.344246	-0.000033
H129	H	1.303468	-0.077271	0.000084
O130	O	1.457154	-0.019415	0.404598
C131	C	1.335679	-0.031388	0.452053
H132	H	1.274611	0.010348	0.478251
H133	H	1.286496	-0.054852	0.366743
H134	H	1.347702	-0.059340	0.549533
