data_functionalizedCrystal
_audit_creation_method	'MofGen! by Chris Wilmer'
_symmetry_space_group_name_H-M	'P1'
_symmetry_Int_Tables_number	1
_symmetry_cell_setting	triclinic
loop_
_symmetry_equiv_pos_as_xyz
  x,y,z
_cell_length_a	12.759400
_cell_length_b	10.686154
_cell_length_c	12.759393
_cell_angle_alpha	85.653321
_cell_angle_beta	89.969548
_cell_angle_gamma	85.606551
loop_
_atom_site_label
_atom_site_type_symbol
_atom_site_fract_x
_atom_site_fract_y
_atom_site_fract_z
Zn1	Zn	-0.294921	-1.929131	-0.471045
Zn2	Zn	-0.470645	-1.929000	-0.295374
Zn3	Zn	-0.308459	-1.718113	-0.308832
Zn4	Zn	-0.484045	-1.718104	-0.484455
O5	O	-0.389517	-1.823587	-0.389927
O6	O	-0.306957	-2.105686	-0.436498
O7	O	-0.449188	-1.900975	-0.150141
O8	O	-0.159638	-1.746164	-0.330370
O9	O	-0.436061	-2.105590	-0.307433
O10	O	-0.149692	-1.901197	-0.449548
O11	O	-0.330030	-1.746037	-0.160029
O12	O	-0.343024	-1.541539	-0.343373
O13	O	-0.458900	-1.746148	-0.629694
O14	O	-0.472027	-1.541533	-0.472403
O15	O	-0.319951	-1.901188	-0.619842
O16	O	-0.619447	-1.900966	-0.320436
O17	O	-0.629293	-1.746021	-0.459353
C18	C	-0.662490	-1.823513	-0.389910
C19	C	-0.779261	-1.823597	-0.389930
C20	C	-0.410450	-1.495753	-0.410804
C21	C	-0.419430	-1.355504	-0.419760
C22	C	-0.938682	-1.904443	-0.317693
C23	C	-0.828963	-1.904367	-0.317665
C24	C	-0.839285	-1.742887	-0.462221
C25	C	-0.949002	-1.742957	-0.462243
C26	C	-0.676199	-1.949431	-0.190883
C27	C	-0.616178	-2.030151	-0.118604
C28	C	-0.643850	-2.153304	-0.094722
C29	C	-0.731539	-2.195761	-0.143133
C30	C	-0.791553	-2.115048	-0.215420
C31	C	-0.763885	-1.991878	-0.239283
C32	C	-1.101767	-1.697907	-0.589026
C33	C	-1.161784	-1.617199	-0.661318
C34	C	-1.134114	-1.494044	-0.685211
C35	C	-1.046421	-1.451591	-0.636818
C36	C	-0.986405	-1.532299	-0.564526
C37	C	-1.014082	-1.655452	-0.540631
C38	C	-0.115477	-1.823696	-0.389965
C39	C	0.001302	-1.823742	-0.389981
C40	C	-0.389411	-1.823682	-0.663954
C41	C	-0.389365	-1.823722	-0.780728
C42	C	-0.368494	-1.152702	-0.368962
C43	C	-0.359509	-1.292951	-0.360010
C44	C	-0.317003	-1.904457	-0.830462
C45	C	-0.316956	-1.904479	-0.940184
C46	C	-0.461643	-1.743025	-0.950431
C47	C	-0.461684	-1.742999	-0.840711
C48	C	-0.190114	-1.949651	-1.087283
C49	C	-0.117760	-2.030406	-1.137019
C50	C	-0.093783	-2.153524	-1.093579
C51	C	-0.142174	-2.195912	-1.000404
C52	C	-0.214536	-2.115163	-0.950673
C53	C	-0.238493	-1.992028	-0.994112
C54	C	-0.588527	-1.697840	-0.693609
C55	C	-0.660894	-1.617096	-0.643876
C56	C	-0.684881	-1.493976	-0.687314
C57	C	-0.636508	-1.451593	-0.780493
C58	C	-0.564141	-1.532336	-0.830226
C59	C	-0.540152	-1.655455	-0.786780
C60	C	-0.389543	-1.823566	-0.116961
C61	C	-0.389277	-1.823770	-0.000172
H62	H	-0.862946	-2.149618	-0.254838
H63	H	-0.653669	-1.849146	-0.210311
H64	H	-0.754053	-2.296051	-0.123692
C65	C	-0.280916	-1.365542	-0.281652
H66	H	-0.284979	-1.453443	-0.285717
H67	H	-0.297569	-1.343964	-0.212396
H68	H	-0.211703	-1.344020	-0.298517
H69	H	-0.798812	-1.677116	-0.521057
H70	H	-0.209622	-1.849395	-1.122656
C71	C	-0.541195	-1.654249	-1.016414
H72	H	-0.530816	-1.665836	-1.088882
H73	H	-0.531241	-1.569470	-1.003830
H74	H	-0.610618	-1.672692	-0.997243
H75	H	-0.594972	-2.219027	-0.035871
C76	C	-0.510924	-1.485721	-0.932718
H77	H	-0.464397	-1.551445	-0.956118
H78	H	-0.472508	-1.415542	-0.920268
H79	H	-0.563042	-1.461438	-0.985009
H80	H	-1.023889	-1.351310	-0.656278
C81	C	-0.662890	-1.316161	-0.828279
H82	H	-0.712908	-1.274141	-0.785310
H83	H	-0.691285	-1.318335	-0.896866
H84	H	-0.600750	-1.272446	-0.832121
H85	H	-0.477611	-1.301757	-0.477765
C86	C	-0.764488	-1.405162	-0.632610
H87	H	-0.789866	-1.448032	-0.570895
H88	H	-0.821614	-1.379273	-0.678962
H89	H	-0.731082	-1.333393	-0.614208
H90	H	-0.979140	-1.970223	-0.258852
H91	H	-0.544782	-1.995571	-0.079188
C92	C	-0.237444	-1.993233	-0.764486
H93	H	-0.194334	-2.041308	-0.809824
H94	H	-0.274133	-2.048187	-0.718177
H95	H	-0.194762	-1.944959	-0.724766
C96	C	-0.267757	-2.161772	-0.848187
H97	H	-0.243114	-2.246665	-0.829433
H98	H	-0.341759	-2.156641	-0.858311
H99	H	-0.251209	-2.110772	-0.793575
C100	C	-0.889937	-1.485607	-0.511301
H101	H	-0.882051	-1.400699	-0.535882
H102	H	-0.828781	-1.536562	-0.527888
H103	H	-0.899475	-1.490737	-0.437296
C104	C	-0.115802	-2.331347	-0.952627
H105	H	-0.065769	-2.373363	-0.995584
H106	H	-0.177938	-2.375057	-0.948783
H107	H	-0.087404	-2.329171	-0.884035
C108	C	-1.200119	-1.405275	-0.764750
H109	H	-1.256306	-1.448194	-0.790157
H110	H	-1.157025	-1.379348	-0.821858
H111	H	-1.227758	-1.333525	-0.731293
C112	C	-1.258224	-1.663909	-0.714578
H113	H	-1.266112	-1.748815	-0.689994
H114	H	-1.248656	-1.658771	-0.788574
H115	H	-1.319401	-1.612968	-0.698011
C116	C	-1.132202	-1.833381	-0.562742
H117	H	-1.083906	-1.875362	-0.512749
H118	H	-1.130380	-1.877083	-0.624913
H119	H	-1.201096	-1.831272	-0.534332
C120	C	-0.014197	-2.242356	-1.148282
H121	H	-0.006854	-2.321759	-1.109073
H122	H	0.051946	-2.207127	-1.152391
H123	H	-0.038598	-2.252998	-1.217134
C124	C	-0.562141	-1.833274	-0.645824
H125	H	-0.601328	-1.846957	-0.583217
H126	H	-0.489156	-1.845271	-0.630011
H127	H	-0.579688	-1.891153	-0.694764
H128	H	-0.078361	-1.995882	-1.212883
H129	H	-0.700290	-1.651621	-0.568012
