data_functionalizedCrystal
_audit_creation_method	'MofGen! by Chris Wilmer'
_symmetry_space_group_name_H-M	'P1'
_symmetry_Int_Tables_number	1
_symmetry_cell_setting	triclinic
loop_
_symmetry_equiv_pos_as_xyz
  x,y,z
_cell_length_a	16.959455
_cell_length_b	29.839131
_cell_length_c	16.959447
_cell_angle_alpha	90.041568
_cell_angle_beta	90.014322
_cell_angle_gamma	90.032176
loop_
_atom_site_label
_atom_site_type_symbol
_atom_site_fract_x
_atom_site_fract_y
_atom_site_fract_z
Zn1	Zn	1.208301	-0.178881	0.446847
Zn2	Zn	1.708301	0.321119	0.946847
Zn3	Zn	1.208188	-0.254014	0.314642
Zn4	Zn	1.708188	0.245986	0.814642
Zn5	Zn	1.076129	-0.178895	0.314684
Zn6	Zn	1.576129	0.321105	0.814684
Zn7	Zn	1.076059	-0.253981	0.446781
Zn8	Zn	1.576059	0.246019	0.946781
O9	O	1.142169	-0.216443	0.380739
O10	O	1.642169	0.283557	0.880739
O11	O	1.318896	-0.188856	0.429320
O12	O	1.818896	0.311144	0.929320
O13	O	1.190652	-0.244070	0.204037
O14	O	1.690652	0.255930	0.704037
O15	O	1.093738	-0.116026	0.332261
O16	O	1.593738	0.383974	0.832261
O17	O	1.318814	-0.244056	0.332190
O18	O	1.818814	0.255944	0.832190
O19	O	1.190844	-0.116016	0.429360
O20	O	1.690844	0.383984	0.929360
O21	O	1.093629	-0.188880	0.204068
O22	O	1.593629	0.311120	0.704068
O23	O	0.965509	-0.188847	0.332197
O24	O	1.465509	0.311153	0.832197
O25	O	1.093618	-0.243999	0.557401
O26	O	1.593618	0.256001	1.057401
O27	O	0.965457	-0.244012	0.429248
O28	O	1.465457	0.255988	0.929248
O29	O	1.190776	-0.188823	0.557449
O30	O	1.690776	0.311177	1.057449
O31	O	1.190584	-0.316877	0.332126
O32	O	1.690584	0.183123	0.832126
O33	O	1.093509	-0.316852	0.429207
O34	O	1.593509	0.183148	0.929207
C35	C	0.936803	-0.216428	0.380721
C36	C	1.436803	0.283572	0.880721
C37	C	0.848946	-0.216433	0.380732
C38	C	1.348946	0.283567	0.880732
C39	C	0.477473	-0.187695	0.330310
C40	C	0.977473	0.312305	0.830310
C41	C	0.477468	-0.245228	0.431213
C42	C	0.977468	0.254772	0.931213
C43	C	0.560014	-0.245221	0.431208
C44	C	1.060014	0.254779	0.931208
C45	C	0.601293	-0.216452	0.380752
C46	C	1.101293	0.283548	0.880752
C47	C	0.560027	-0.187688	0.330302
C48	C	1.060027	0.312312	0.830302
C49	C	0.601287	-0.273987	0.481652
C50	C	1.101287	0.226013	0.981652
C51	C	0.683838	-0.273982	0.481648
C52	C	1.183838	0.226018	0.981648
C53	C	0.725118	-0.245210	0.431196
C54	C	1.225118	0.254790	0.931196
C55	C	0.683847	-0.216445	0.380744
C56	C	1.183847	0.283555	0.880744
C57	C	0.725126	-0.187676	0.330289
C58	C	1.225126	0.312324	0.830289
C59	C	0.683856	-0.158908	0.279840
C60	C	1.183856	0.341092	0.779840
C61	C	0.601307	-0.158916	0.279850
C62	C	1.101307	0.341084	0.779850
C63	C	0.807667	-0.245202	0.431187
C64	C	1.307667	0.254798	0.931187
C65	C	0.807680	-0.187669	0.330281
C66	C	1.307680	0.312331	0.830281
C67	C	1.142048	-0.333165	0.380672
C68	C	1.642048	0.166835	0.880672
C69	C	1.142069	-0.383100	0.380670
C70	C	1.642069	0.116900	0.880670
C71	C	1.192721	-0.692703	0.431370
C72	C	1.692721	-0.192703	0.931370
C73	C	1.192807	-0.880376	0.431418
C74	C	1.692807	-0.380376	0.931418
O75	O	1.235755	-0.904607	0.474476
O76	O	1.735755	-0.404607	0.974476
N77	N	1.142303	-0.903885	0.380826
N78	N	1.642303	-0.403885	0.880826
C79	C	1.091771	-0.880473	0.330223
C80	C	1.591771	-0.380473	0.830223
O81	O	1.048811	-0.904775	0.287199
O82	O	1.548811	-0.404775	0.787199
C83	C	1.091682	-0.692800	0.330180
C84	C	1.591682	-0.192800	0.830180
C85	C	1.142194	-0.669294	0.380769
C86	C	1.642194	-0.169294	0.880769
C87	C	1.243229	-0.669196	0.481956
C88	C	1.743229	-0.169196	0.981956
C89	C	1.243210	-0.622281	0.481940
C90	C	1.743210	-0.122281	0.981940
C91	C	1.192683	-0.598872	0.431339
C92	C	1.692683	-0.098872	0.931339
C93	C	1.142175	-0.622379	0.380754
C94	C	1.642175	-0.122379	0.880754
C95	C	1.041146	-0.669389	0.279582
C96	C	1.541146	-0.169389	0.779582
C97	C	1.041127	-0.622468	0.279577
C98	C	1.541127	-0.122468	0.779577
C99	C	1.091639	-0.598962	0.330166
C100	C	1.591639	-0.098962	0.830166
C101	C	1.091630	-0.552054	0.330137
C102	C	1.591630	-0.052054	0.830137
N103	N	1.142133	-0.528545	0.380729
N104	N	1.642133	-0.028545	0.880729
C105	C	1.192660	-0.551954	0.431330
C106	C	1.692660	-0.051954	0.931330
C107	C	1.091823	-0.979003	0.330248
C108	C	1.591823	-0.479003	0.830248
C109	C	1.091846	-1.025921	0.330258
C110	C	1.591846	-0.525921	0.830258
C111	C	1.192881	-1.025821	0.431454
C112	C	1.692881	-0.525821	0.931454
C113	C	1.192861	-0.978902	0.431439
C114	C	1.692861	-0.478902	0.931439
C115	C	1.142326	-0.955494	0.380840
C116	C	1.642326	-0.455494	0.880840
C117	C	1.192617	-0.453428	0.431293
C118	C	1.692617	0.046572	0.931293
C119	C	1.192596	-0.406509	0.431271
C120	C	1.692596	0.093491	0.931271
C121	C	1.091558	-0.406613	0.330078
C122	C	1.591558	0.093387	0.830078
C123	C	1.091582	-0.453528	0.330097
C124	C	1.591582	0.046472	0.830097
C125	C	1.142114	-0.476935	0.380711
C126	C	1.642114	0.023065	0.880711
O127	O	1.048698	-0.527795	0.287109
O128	O	1.548698	-0.027795	0.787109
O129	O	1.235601	-0.527644	0.474360
O130	O	1.735601	-0.027644	0.974360
C131	C	1.192740	-0.739618	0.431386
C132	C	1.692740	-0.239618	0.931386
C133	C	1.142232	-0.763125	0.380800
C134	C	1.642232	-0.263125	0.880800
C135	C	1.091705	-0.739716	0.330199
C136	C	1.591705	-0.239716	0.830199
C137	C	1.142255	-0.810043	0.380810
C138	C	1.642255	-0.310043	0.880810
C139	C	1.192782	-0.833452	0.431411
C140	C	1.692782	-0.333452	0.931411
C141	C	1.243286	-0.809943	0.482002
C142	C	1.743286	-0.309943	0.982002
C143	C	1.243267	-0.763027	0.481987
C144	C	1.743267	-0.263027	0.981987
C145	C	1.041202	-0.763225	0.279608
C146	C	1.541202	-0.263225	0.779608
C147	C	1.041226	-0.810140	0.279627
C148	C	1.541226	-0.310140	0.779627
C149	C	1.091752	-0.833549	0.330228
C150	C	1.591752	-0.333549	0.830228
C151	C	1.348337	-0.216458	0.380757
C152	C	1.848337	0.283542	0.880757
C153	C	1.436194	-0.216465	0.380765
C154	C	1.936194	0.283535	0.880765
C155	C	1.142202	-0.216406	0.586907
C156	C	1.642202	0.283594	1.086907
C157	C	1.142216	-0.216390	0.674764
C158	C	1.642216	0.283610	1.174764
C159	C	1.142312	-0.099264	0.380823
C160	C	1.642312	0.400736	0.880823
C161	C	1.142372	-0.049330	0.380859
C162	C	1.642372	0.450670	0.880859
C163	C	1.142182	-0.216447	0.175372
C164	C	1.642182	0.283553	0.675372
C165	C	1.142321	-0.216337	0.087516
C166	C	1.642321	0.283663	0.587516
C167	C	1.091725	-0.245070	1.046217
C168	C	1.591725	0.254930	1.546217
C169	C	1.192896	-0.187615	1.046262
C170	C	1.692896	0.312385	1.546262
C171	C	1.192875	-0.187625	0.963716
C172	C	1.692875	0.312375	1.463716
C173	C	1.142279	-0.216358	0.922417
C174	C	1.642279	0.283642	1.422417
C175	C	1.091704	-0.245081	0.963663
C176	C	1.591704	0.254919	1.463663
C177	C	1.243455	-0.158905	0.922464
C178	C	1.743455	0.341095	1.422464
C179	C	1.243436	-0.158914	0.839913
C180	C	1.743436	0.341086	1.339913
C181	C	1.192836	-0.187645	0.798612
C182	C	1.692836	0.312355	1.298612
C183	C	1.142258	-0.216369	0.839863
C184	C	1.642258	0.283631	1.339863
C185	C	1.091662	-0.245102	0.798564
C186	C	1.591662	0.254898	1.298564
C187	C	1.041080	-0.273824	0.839814
C188	C	1.541080	0.226176	1.339814
C189	C	1.041103	-0.273812	0.922362
C190	C	1.541103	0.226188	1.422362
C191	C	1.192812	-0.187657	0.716063
C192	C	1.692812	0.312343	1.216063
C193	C	1.091641	-0.245113	0.716010
C194	C	1.591641	0.254887	1.216010
H195	H	0.443854	-0.268653	0.472286
H196	H	0.943854	0.231347	0.972286
N197	N	0.852197	-0.156641	0.275854
N198	N	1.352197	0.343359	0.775854
H199	H	0.910754	-0.161001	0.283500
H200	H	1.410754	0.338999	0.783500
H201	H	0.837799	-0.124565	0.288270
H202	H	1.337799	0.375435	0.788270
N203	N	1.297979	-0.127930	0.795427
N204	N	1.797979	0.372070	1.295427
H205	H	1.290287	-0.132294	0.736866
H206	H	1.790287	0.367706	1.236866
H207	H	1.354428	-0.134922	0.809846
H208	H	1.854428	0.365078	1.309846
N209	N	1.247120	-0.478674	0.485873
N210	N	1.747120	0.021326	0.985873
H211	H	1.214986	-0.498136	0.522484
H212	H	1.714986	0.001864	1.022484
H213	H	1.279104	-0.456633	0.517862
H214	H	1.779104	0.043367	1.017862
N215	N	0.986561	-0.304787	0.966867
N216	N	1.486561	0.195213	1.466867
H217	H	0.998790	-0.336890	0.952479
H218	H	1.498790	0.163110	1.452479
H219	H	0.930109	-0.297770	0.952501
H220	H	1.430109	0.202230	1.452501
H221	H	1.000014	-0.688520	0.238386
H222	H	1.500014	-0.188520	0.738386
H223	H	1.284429	-0.829010	0.523200
H224	H	1.784429	-0.329010	1.023200
H225	H	0.567671	-0.297413	0.522724
H226	H	1.067671	0.202587	1.022724
N227	N	0.852176	-0.276228	0.485590
N228	N	1.352176	0.223772	0.985590
H229	H	0.886453	-0.257997	0.522283
H230	H	1.386453	0.242003	1.022283
H231	H	0.886353	-0.297014	0.453331
H232	H	1.386353	0.202986	0.953331
H233	H	1.284339	-0.603145	0.523137
H234	H	1.784339	-0.103145	1.023137
H235	H	1.050422	-0.387546	0.288877
H236	H	1.550422	0.112454	0.788877
H237	H	0.717433	-0.297406	0.522727
H238	H	1.217433	0.202594	1.022727
H239	H	1.234093	-0.164225	1.079893
H240	H	1.734093	0.335775	1.579893
H241	H	1.050540	-0.268453	1.079806
H242	H	1.550540	0.231547	1.579806
N243	N	1.247080	-0.381155	0.485836
N244	N	1.747080	0.118845	0.985836
H245	H	1.279088	-0.403107	0.517894
H246	H	1.779088	0.096893	1.017894
H247	H	1.214874	-0.361685	0.522381
H248	H	1.714874	0.138315	1.022381
N249	N	1.297710	-0.694440	0.536557
N250	N	1.797710	-0.194440	1.036557
H251	H	1.329691	-0.672423	0.568603
H252	H	1.829691	-0.172423	1.068603
H253	H	1.334331	-0.713909	0.504441
H254	H	1.834331	-0.213909	1.004441
H255	H	1.233992	-0.959766	0.472634
H256	H	1.733992	-0.459766	0.972634
N257	N	0.728381	-0.127882	0.225416
N258	N	1.228381	0.372118	0.725416
H259	H	0.786937	-0.132247	0.233067
H260	H	1.286937	0.367753	0.733067
H261	H	0.713989	-0.095805	0.237831
H262	H	1.213989	0.404195	0.737831
N263	N	1.247380	-1.051073	0.486031
N264	N	1.747380	-0.551073	0.986031
H265	H	1.239724	-1.084362	0.478356
H266	H	1.739724	-0.584362	0.978356
H267	H	1.235030	-1.042853	0.542469
H268	H	1.735030	-0.542853	1.042469
H269	H	0.567698	-0.135496	0.238776
H270	H	1.067698	0.364504	0.738776
H271	H	0.443867	-0.164272	0.289238
H272	H	0.943867	0.335728	0.789238
H273	H	1.284652	-0.135515	0.956096
H274	H	1.784652	0.364485	1.456096
N275	N	1.037377	-1.051272	0.275682
N276	N	1.537377	-0.551272	0.775682
H277	H	1.005367	-1.029319	0.243629
H278	H	1.505367	-0.529319	0.743629
H279	H	1.000783	-1.070741	0.307825
H280	H	1.500783	-0.570741	0.807825
H281	H	1.050670	-0.959948	0.289042
H282	H	1.550670	-0.459948	0.789042
H283	H	0.999973	-0.603411	0.238373
H284	H	1.499973	-0.103411	0.738373
N285	N	1.247368	-0.156689	0.671566
N286	N	1.747368	0.343311	1.171566
H287	H	1.235147	-0.124584	0.685952
H288	H	1.735147	0.375416	1.185952
H289	H	1.239647	-0.161098	0.613021
H290	H	1.739647	0.338902	1.113021
N291	N	1.037112	-0.478885	0.275526
N292	N	1.537112	0.021115	0.775526
H293	H	1.005104	-0.456934	0.243466
H294	H	1.505104	0.043066	0.743466
H295	H	1.000517	-0.498349	0.307675
H296	H	1.500517	0.001651	0.807675
H297	H	1.000093	-0.829275	0.238424
H298	H	1.500093	-0.329275	0.738424
N299	N	1.297747	-0.737677	0.536552
N300	N	1.797747	-0.237677	1.036552
H301	H	1.329753	-0.759632	0.568606
H302	H	1.829753	-0.259632	1.068606
H303	H	1.265541	-0.718208	0.573101
H304	H	1.765541	-0.218208	1.073101
N305	N	0.986705	-0.737980	0.225026
N306	N	1.486705	-0.237980	0.725026
H307	H	0.954720	-0.759996	0.192982
H308	H	1.454720	-0.259996	0.692982
H309	H	1.018899	-0.718520	0.188468
H310	H	1.518899	-0.218520	0.688468
N311	N	1.037056	-0.276097	0.671467
N312	N	1.537056	0.223903	1.171467
H313	H	1.005016	-0.294287	0.710126
H314	H	1.505016	0.205713	1.210126
H315	H	1.069187	-0.296898	0.637197
H316	H	1.569187	0.203102	1.137197
H317	H	0.999888	-0.297221	0.806177
H318	H	1.499888	0.202779	1.306177
