data_functionalizedCrystal
_audit_creation_method	'MofGen! by Chris Wilmer'
_symmetry_space_group_name_H-M	'P1'
_symmetry_Int_Tables_number	1
_symmetry_cell_setting	triclinic
loop_
_symmetry_equiv_pos_as_xyz
  x,y,z
_cell_length_a	16.625547
_cell_length_b	16.625545
_cell_length_c	15.296720
_cell_angle_alpha	99.644333
_cell_angle_beta	80.342885
_cell_angle_gamma	89.976026
loop_
_atom_site_label
_atom_site_type_symbol
_atom_site_fract_x
_atom_site_fract_y
_atom_site_fract_z
Zn1	Zn	1.153700	0.399897	0.510165
Zn2	Zn	1.653700	0.899897	1.010165
Zn3	Zn	1.176951	0.511412	0.359317
Zn4	Zn	1.676951	1.011412	0.859317
Zn5	Zn	1.042212	0.376597	0.359320
Zn6	Zn	1.542212	0.876597	0.859320
Zn7	Zn	1.018838	0.534682	0.510106
Zn8	Zn	1.518838	1.034682	1.010106
O9	O	1.097925	0.455647	0.434727
O10	O	1.597925	0.955647	0.934727
O11	O	1.269613	0.414702	0.490178
O12	O	1.769613	0.914702	0.990178
O13	O	1.178590	0.474039	0.233083
O14	O	1.678590	0.974039	0.733083
O15	O	1.057053	0.266860	0.379356
O16	O	1.557053	0.766860	0.879356
O17	O	1.286695	0.496631	0.379350
O18	O	1.786695	0.996631	0.879350
O19	O	1.138963	0.283978	0.490181
O20	O	1.638963	0.783978	0.990181
O21	O	1.079598	0.374991	0.233085
O22	O	1.579598	0.874991	0.733085
O23	O	0.926283	0.397555	0.379299
O24	O	1.426283	0.897555	0.879299
O25	O	1.017215	0.536292	0.636348
O26	O	1.517215	1.036292	1.136348
O27	O	0.909110	0.513699	0.490081
O28	O	1.409110	1.013699	0.990081
O29	O	1.116298	0.437266	0.636392
O30	O	1.616298	0.937266	1.136392
O31	O	1.155925	0.627327	0.379293
O32	O	1.655925	1.127327	0.879293
O33	O	1.039760	0.644423	0.490077
O34	O	1.539760	1.144423	0.990077
C35	C	0.888441	0.455625	0.434684
C36	C	1.388441	0.955625	0.934684
C37	C	0.798819	0.455638	0.434688
C38	C	1.298819	0.955638	0.934688
C39	C	0.726035	0.455641	0.434699
C40	C	1.226035	0.955641	0.934699
C41	C	0.634723	0.455649	0.434721
C42	C	1.134723	0.955649	0.934721
C43	C	0.561943	0.455660	0.434744
C44	C	1.061943	0.955660	0.934744
C45	C	0.470626	0.455669	0.434766
C46	C	0.970626	0.955669	0.934766
C47	C	1.097848	0.665133	0.434698
C48	C	1.597848	1.165133	0.934698
C49	C	1.097884	0.754757	0.434716
C50	C	1.597884	1.254757	0.934716
C51	C	1.097999	1.082949	0.434824
C52	C	1.597999	1.582949	0.934824
C53	C	1.097964	0.991637	0.434796
C54	C	1.597964	1.491637	0.934796
C55	C	1.097941	0.918856	0.434769
C56	C	1.597941	1.418856	0.934769
C57	C	1.097907	0.827538	0.434743
C58	C	1.597907	1.327538	0.934743
C59	C	1.308228	0.455670	0.434770
C60	C	1.808228	0.955670	0.934770
C61	C	1.397846	0.455680	0.434789
C62	C	1.897846	0.955680	0.934789
C63	C	1.061556	0.491974	0.670016
C64	C	1.561556	0.991974	1.170016
C65	C	1.046058	0.507454	0.770283
C66	C	1.546058	1.007454	1.270283
C67	C	1.098014	1.245347	0.434786
C68	C	1.598014	1.745347	0.934786
C69	C	1.098029	1.155734	0.434839
C70	C	1.598029	1.655734	0.934839
C71	C	1.134200	0.419403	0.200353
C72	C	1.634200	0.919403	0.700353
C73	C	1.149854	0.403696	0.100087
C74	C	1.649854	0.903696	0.600087
C75	C	1.208725	0.344866	1.053007
C76	C	1.708725	0.844866	1.553007
C77	C	1.223292	0.330323	0.958802
C78	C	1.723292	0.830323	1.458802
C79	C	1.178984	0.374604	0.911668
C80	C	1.678984	0.874604	1.411668
C81	C	1.120108	0.433431	0.958748
C82	C	1.620108	0.933431	1.458748
C83	C	1.105544	0.447980	1.052962
C84	C	1.605544	0.947980	1.552962
C85	C	1.075804	0.477718	0.911622
C86	C	1.575804	0.977718	1.411622
C87	C	1.016927	0.536546	0.958702
C88	C	1.516927	1.036546	1.458702
C89	C	1.002366	0.551092	1.052907
C90	C	1.502366	1.051092	1.552907
C91	C	1.046673	0.506811	1.100042
C92	C	1.546673	1.006811	1.600042
C93	C	1.090367	0.463169	0.817408
C94	C	1.590367	0.963169	1.317408
C95	C	0.987187	0.566284	0.817363
C96	C	1.487187	1.066284	1.317363
C97	C	0.972620	0.580827	0.911568
C98	C	1.472620	1.080827	1.411568
H99	H	1.138304	0.415271	0.779085
H100	H	1.638304	0.915271	1.279085
Br101	Br	0.927058	0.626391	0.753403
Br102	Br	1.427058	1.126391	1.253403
Br103	Br	0.892718	0.660661	0.975472
Br104	Br	1.392718	1.160661	1.475472
H105	H	1.190848	0.362759	0.834961
H106	H	1.690848	0.862759	1.334961
H107	H	1.271231	0.282427	0.920476
H108	H	1.771231	0.782427	1.420476
H109	H	1.244799	0.308823	1.091393
H110	H	1.744799	0.808823	1.591393
H111	H	1.034817	0.518649	1.176752
H112	H	1.534817	1.018649	1.676752
Br113	Br	0.922479	0.630946	1.116800
Br114	Br	1.422479	1.130946	1.616800
