data_functionalizedCrystal
_audit_creation_method	'MofGen! by Chris Wilmer'
_symmetry_space_group_name_H-M	'P1'
_symmetry_Int_Tables_number	1
_symmetry_cell_setting	triclinic
loop_
_symmetry_equiv_pos_as_xyz
  x,y,z
_cell_length_a	14.853567
_cell_length_b	15.944551
_cell_length_c	13.930277
_cell_angle_alpha	89.994493
_cell_angle_beta	89.995755
_cell_angle_gamma	83.566834
loop_
_atom_site_label
_atom_site_type_symbol
_atom_site_fract_x
_atom_site_fract_y
_atom_site_fract_z
O1	O	1.196228	0.109664	-0.079767
O2	O	0.933751	0.122728	-0.079783
O3	O	1.072157	-0.006071	-0.079766
O4	O	1.057822	0.238463	-0.079784
O5	O	1.072138	-0.006073	0.079896
O6	O	0.933732	0.122725	0.079878
O7	O	1.196208	0.109662	0.079895
Zn8	Zn	1.064967	0.116193	0.105236
Zn9	Zn	1.064993	0.116197	-0.105125
O10	O	1.057803	0.238460	0.079878
C11	C	0.900154	0.122135	0.000045
C12	C	0.800072	0.120361	0.000039
C13	C	0.387646	0.036354	0.000067
C14	C	0.366169	0.189369	0.000055
C15	C	0.460201	0.191037	0.000051
C16	C	0.517960	0.115362	0.000055
C17	C	0.481687	0.038019	0.000061
C18	C	0.496480	0.268379	0.000035
C19	C	0.590517	0.270050	0.000031
C20	C	0.648278	0.194374	0.000041
C21	C	0.612000	0.117028	0.000049
C22	C	0.669759	0.041353	0.000052
C23	C	0.633483	-0.035994	0.000066
C24	C	0.539448	-0.037657	0.000071
C25	C	0.742313	0.196036	0.000036
C26	C	0.763800	0.043018	0.000046
C27	C	1.071552	-0.037367	0.000065
C28	C	1.069768	-0.130615	0.000065
C29	C	0.979713	-0.345572	0.000047
C30	C	1.021522	-0.406544	0.078772
C31	C	1.066541	-0.301344	0.000058
C32	C	1.021562	-0.406524	-0.078642
C33	C	1.063416	-0.466260	0.000046
C34	C	1.108373	-0.361088	0.078848
C35	C	1.108401	-0.361062	-0.078636
C36	C	1.150273	-0.422017	0.000109
C37	C	1.068338	-0.206340	0.000065
C38	C	1.061626	-0.561263	0.000046
C39	C	1.229806	0.110255	0.000064
C40	C	1.329887	0.112029	0.000064
C41	C	1.058407	0.269756	0.000044
C42	C	1.060191	0.363004	0.000038
N43	N	1.064957	0.116190	0.248803
N44	N	1.065010	0.116193	-0.248691
C45	C	1.003704	0.173206	0.701064
C46	C	1.126306	0.059181	0.701049
C47	C	1.126295	0.059178	0.600553
C48	C	1.064989	0.116191	0.550308
C49	C	1.003693	0.173207	0.600559
C50	C	1.187596	0.002169	0.550295
C51	C	1.187588	0.002164	0.449793
C52	C	1.126277	0.059174	0.399546
C53	C	1.064978	0.116192	0.449803
C54	C	1.003672	0.173205	0.399558
C55	C	0.942368	0.230220	0.449814
C56	C	0.942382	0.230217	0.550312
C57	C	1.126263	0.059177	0.299047
C58	C	1.003661	0.173206	0.299053
H59	H	0.620045	0.333030	0.000019
H60	H	1.237504	-0.044260	0.408882
C61	C	1.309131	-0.406204	0.001013
C62	C	1.247653	-0.466666	0.000184
H63	H	1.369249	-0.433768	0.001072
H64	H	1.300127	-0.371572	-0.054405
H65	H	1.299720	-0.372277	0.056947
H66	H	1.257060	-0.500589	-0.055754
H67	H	1.256661	-0.501312	0.055608
H68	H	0.358106	-0.026620	0.000082
H69	H	1.145102	-0.340890	-0.145191
C70	C	0.882473	0.285920	0.309164
C71	C	0.936272	0.235880	0.243828
H72	H	0.840875	0.324615	0.275068
H73	H	0.850050	0.250897	0.348366
H74	H	0.920011	0.316194	0.348357
H75	H	0.898735	0.205601	0.204638
H76	H	0.968697	0.270908	0.204609
C77	C	1.186745	-0.405350	0.224133
C78	C	1.157898	-0.334057	0.168799
H79	H	1.217321	-0.388660	0.279661
H80	H	1.135724	-0.432399	0.242939
H81	H	1.226766	-0.443336	0.187328
H82	H	1.117872	-0.296074	0.205601
H83	H	1.208926	-0.306995	0.149994
C84	C	0.835605	0.286674	-0.082060
C85	C	0.782189	0.281047	0.000019
H86	H	0.860216	0.339162	-0.082070
H87	H	0.883456	0.241850	-0.082046
H88	H	0.799360	0.282841	-0.137730
H89	H	0.818435	0.284874	0.055689
H90	H	0.734331	0.325884	0.000014
C91	C	0.882011	-0.043881	-0.082032
C92	C	0.827289	-0.040167	0.000048
H93	H	0.921209	-0.095233	-0.082026
H94	H	0.844878	-0.041355	-0.137695
H95	H	0.917071	0.002422	-0.082032
H96	H	0.792224	-0.086467	0.000044
H97	H	0.864426	-0.042701	0.055725
H98	H	0.892456	0.276644	0.408893
C99	C	1.247455	-0.053527	0.309132
C100	C	1.193640	-0.003488	0.243807
H101	H	1.289048	-0.092219	0.275028
H102	H	1.279884	-0.018504	0.348315
H103	H	1.209928	-0.083805	0.348347
H104	H	1.231167	0.026796	0.204597
H105	H	1.161209	-0.038515	0.204608
H106	H	0.984790	-0.426694	0.145324
C107	C	0.820765	-0.361012	0.001051
C108	C	0.882423	-0.300712	0.000145
H109	H	0.760705	-0.333315	0.001122
H110	H	0.829662	-0.395675	-0.054346
H111	H	0.830103	-0.394931	0.057005
H112	H	0.873089	-0.266796	-0.055813
H113	H	0.873522	-0.266034	0.055548
H114	H	0.319136	0.250981	0.000044
C115	C	0.847641	0.222254	0.732025
C116	C	0.936319	0.235871	0.756302
H117	H	0.806041	0.260937	0.766133
H118	H	0.838870	0.230420	0.664989
H119	H	0.837867	0.166173	0.748504
H120	H	0.946095	0.291950	0.739816
H121	H	0.945093	0.227712	0.823353
C122	C	0.942349	-0.362396	-0.223482
C123	C	0.971986	-0.433695	-0.168493
H124	H	0.911745	-0.379170	-0.278951
H125	H	0.902181	-0.324787	-0.186407
H126	H	0.993029	-0.334886	-0.242393
H127	H	0.921306	-0.461201	-0.149576
H128	H	1.012157	-0.471318	-0.205575
H129	H	0.892471	0.276637	0.591236
C130	C	1.145866	-0.055093	0.814081
C131	C	1.193687	-0.003487	0.756280
H132	H	1.187466	-0.093787	0.848177
H133	H	1.109372	-0.021133	0.858383
H134	H	1.108340	-0.085370	0.774875
H135	H	1.231208	0.026795	0.795486
H136	H	1.230197	-0.037451	0.711972
C137	C	1.207147	-0.112107	0.663323
C138	C	1.254973	-0.060498	0.605532
H139	H	1.248744	-0.150799	0.697425
H140	H	1.170645	-0.078148	0.707621
H141	H	1.169628	-0.142385	0.624111
H142	H	1.292487	-0.030215	0.644745
H143	H	1.291491	-0.094460	0.561229
H144	H	0.680523	-0.097609	0.000062
H145	H	0.509903	-0.100629	0.000105
H146	H	0.449447	0.329989	0.000023
