data_functionalizedCrystal
_audit_creation_method	'MofGen! by Chris Wilmer'
_symmetry_space_group_name_H-M	'P1'
_symmetry_Int_Tables_number	1
_symmetry_cell_setting	triclinic
loop_
_symmetry_equiv_pos_as_xyz
  x,y,z
_cell_length_a	13.339070
_cell_length_b	11.792241
_cell_length_c	12.376457
_cell_angle_alpha	101.354533
_cell_angle_beta	75.589755
_cell_angle_gamma	99.911355
loop_
_atom_site_label
_atom_site_type_symbol
_atom_site_fract_x
_atom_site_fract_y
_atom_site_fract_z
O1	O	1.364732	0.554298	-0.094048
O2	O	1.069793	0.479486	-0.094041
O3	O	1.224419	0.353927	-0.094037
O4	O	1.210107	0.679857	-0.094053
O5	O	1.185776	0.385262	0.093974
O6	O	1.031151	0.510821	0.093970
O7	O	1.326090	0.585633	0.093963
Zn8	Zn	1.172485	0.553202	0.123817
Zn9	Zn	1.223398	0.511917	-0.123896
O10	O	1.171464	0.711191	0.093958
C11	C	1.012713	0.482516	-0.000035
C12	C	0.900204	0.444848	-0.000032
C13	C	0.537024	0.737736	-0.000064
C14	C	0.642733	0.773131	-0.000070
C15	C	0.707105	0.691063	-0.000060
C16	C	0.665760	0.573595	-0.000045
C17	C	0.560044	0.538195	-0.000047
C18	C	0.730125	0.491522	-0.000044
C19	C	0.688780	0.374054	-0.000028
C20	C	0.583073	0.338661	-0.000030
C21	C	0.518700	0.420728	-0.000040
C22	C	0.835841	0.526922	-0.000041
C23	C	0.858861	0.327381	-0.000025
C24	C	0.753152	0.291986	-0.000018
C25	C	1.204198	0.327027	-0.000032
C26	C	1.201507	0.200184	-0.000033
C27	C	1.196562	-0.032056	-0.000052
C28	C	1.199310	0.097178	-0.000042
C29	C	1.383170	0.582602	-0.000046
C30	C	1.495681	0.620269	-0.000057
C31	C	1.191685	0.738092	-0.000049
C32	C	1.194378	0.864933	-0.000056
N33	N	1.137745	0.581379	0.292874
N34	N	1.258146	0.483733	-0.292953
C35	C	1.338788	0.418302	0.647865
C36	C	1.363097	0.398579	0.529526
C37	C	1.306760	0.444277	0.470357
C38	C	1.226112	0.509702	0.529539
C39	C	1.201806	0.529435	0.647890
C40	C	1.169779	0.555410	0.470382
C41	C	1.089130	0.620835	0.529564
C42	C	1.064828	0.640564	0.647903
C43	C	1.121164	0.594866	0.707072
C44	C	1.194085	0.535677	0.352031
C45	C	1.057103	0.646810	0.352056
C46	C	1.032794	0.666533	0.470396
H47	H	0.676390	0.868772	-0.000091
N48	N	1.445455	0.331740	0.469059
N49	N	1.467146	0.314128	0.363396
H50	H	1.525314	0.266917	0.320688
N51	N	0.410723	0.384551	-0.000047
N52	N	0.373820	0.279667	-0.000045
H53	H	0.297560	0.254116	-0.000049
N54	N	0.815077	0.727239	-0.000045
N55	N	0.840818	0.800797	0.079205
H56	H	0.917075	0.826354	0.079222
N57	N	0.924591	0.243524	-0.000022
N58	N	0.936786	0.159560	-0.079270
H59	H	0.983213	0.100339	-0.079272
H60	H	0.869493	0.622565	-0.000049
N61	N	0.710910	0.172001	0.000013
N62	N	0.638200	0.143207	0.079271
H63	H	0.608365	0.058468	0.079296
N64	N	0.471264	0.821555	-0.000055
N65	N	0.459057	0.905518	0.079193
H66	H	0.412611	0.964720	0.079200
H67	H	0.549416	0.243008	-0.000030
H68	H	1.326556	0.428215	0.374000
N69	N	1.276409	0.468785	0.291575
N70	N	1.271677	0.365458	0.304811
H71	H	1.329806	0.318190	0.262104
H72	H	1.384655	0.381108	0.696048
H73	H	1.101370	0.610920	0.803434
N74	N	0.982463	0.707420	0.708341
N75	N	0.932174	0.748222	0.655505
H76	H	0.874004	0.795443	0.698186
N77	N	0.950406	0.733346	0.530857
N78	N	0.873750	0.688424	0.596908
H79	H	0.815562	0.735608	0.639610
H80	H	1.011231	0.684024	0.303882
