data_functionalizedCrystal
_audit_creation_method	'MofGen! by Chris Wilmer'
_symmetry_space_group_name_H-M	'P1'
_symmetry_Int_Tables_number	1
_symmetry_cell_setting	triclinic
loop_
_symmetry_equiv_pos_as_xyz
  x,y,z
_cell_length_a	17.077404
_cell_length_b	18.215405
_cell_length_c	17.077396
_cell_angle_alpha	89.968409
_cell_angle_beta	89.978556
_cell_angle_gamma	90.023132
loop_
_atom_site_label
_atom_site_type_symbol
_atom_site_fract_x
_atom_site_fract_y
_atom_site_fract_z
Zn1	Zn	1.200044	-0.293019	-0.443866
Zn2	Zn	1.533377	0.040315	-0.110533
Zn3	Zn	1.866710	0.373648	0.222800
Zn4	Zn	1.199946	-0.416092	-0.312593
Zn5	Zn	1.533280	-0.082759	0.020740
Zn6	Zn	1.866613	0.250574	0.354073
Zn7	Zn	1.068776	-0.293040	-0.312610
Zn8	Zn	1.402109	0.040293	0.020723
Zn9	Zn	1.735442	0.373626	0.354057
Zn10	Zn	1.068739	-0.416044	-0.443812
Zn11	Zn	1.402072	-0.082711	-0.110479
Zn12	Zn	1.735406	0.250622	0.222854
O13	O	1.134376	-0.354549	-0.378221
O14	O	1.467709	-0.021216	-0.044887
O15	O	1.801043	0.312118	0.288446
O16	O	1.309878	-0.309356	-0.426468
O17	O	1.643211	0.023978	-0.093135
O18	O	1.976544	0.357311	0.240198
O19	O	1.182521	-0.399798	-0.202749
O20	O	1.515854	-0.066465	0.130585
O21	O	1.849187	0.266869	0.463918
O22	O	1.086245	-0.190053	-0.330051
O23	O	1.419578	0.143280	0.003282
O24	O	1.752911	0.476614	0.336616
O25	O	1.309806	-0.399777	-0.330023
O26	O	1.643139	-0.066444	0.003311
O27	O	1.976473	0.266889	0.336644
O28	O	1.182687	-0.190037	-0.426485
O29	O	1.516020	0.143296	-0.093151
O30	O	1.849354	0.476629	0.240182
O31	O	1.086150	-0.309392	-0.202761
O32	O	1.419483	0.023941	0.130573
O33	O	1.752817	0.357274	0.463906
O34	O	0.958924	-0.309346	-0.329999
O35	O	1.292257	0.023987	0.003335
O36	O	1.625590	0.357321	0.336668
O37	O	1.086182	-0.399696	-0.553667
O38	O	1.419516	-0.066362	-0.220333
O39	O	1.752849	0.266971	0.113000
O40	O	0.958897	-0.399716	-0.426392
O41	O	1.292230	-0.066383	-0.093059
O42	O	1.625564	0.266950	0.240274
O43	O	1.182651	-0.309309	-0.553706
O44	O	1.515985	0.024024	-0.220373
O45	O	1.849318	0.357357	0.112960
O46	O	1.182485	-0.519070	-0.329970
O47	O	1.515819	-0.185737	0.003363
O48	O	1.849152	0.147597	0.336696
O49	O	1.086088	-0.519035	-0.426376
O50	O	1.419421	-0.185702	-0.093043
O51	O	1.752754	0.147632	0.240290
C52	C	0.930428	-0.354529	-0.378192
C53	C	1.263762	-0.021196	-0.044859
C54	C	1.597095	0.312138	0.288475
C55	C	0.843178	-0.354538	-0.378198
C56	C	1.176512	-0.021205	-0.044865
C57	C	1.509845	0.312129	0.288468
C58	C	0.467398	-0.307571	-0.428549
C59	C	0.800732	0.025762	-0.095215
C60	C	1.134065	0.359095	0.238118
C61	C	0.549379	-0.307566	-0.428540
C62	C	0.882712	0.025767	-0.095207
C63	C	1.216046	0.359101	0.238127
C64	C	0.590330	-0.354564	-0.378240
C65	C	0.923663	-0.021231	-0.044907
C66	C	1.256996	0.312102	0.288426
C67	C	0.549296	-0.401576	-0.327951
C68	C	0.882629	-0.068243	0.005382
C69	C	1.215962	0.265090	0.338715
C70	C	0.467317	-0.401585	-0.327965
C71	C	0.800650	-0.068252	0.005369
C72	C	1.133983	0.265082	0.338702
C73	C	0.720166	-0.401554	-0.327926
C74	C	1.053499	-0.068221	0.005407
C75	C	1.386832	0.265112	0.338740
C76	C	0.802150	-0.401545	-0.327912
C77	C	1.135484	-0.068212	0.005422
C78	C	1.468817	0.265122	0.338755
C79	C	0.802228	-0.307535	-0.428502
C80	C	1.135561	0.025798	-0.095168
C81	C	1.468895	0.359131	0.238165
C82	C	0.720249	-0.307544	-0.428515
C83	C	1.053582	0.025790	-0.095181
C84	C	1.386916	0.359123	0.238152
C85	C	0.679221	-0.354555	-0.378225
C86	C	1.012554	-0.021222	-0.044891
C87	C	1.345887	0.312112	0.288442
C88	C	1.134293	-0.545755	-0.378183
C89	C	1.467627	-0.212422	-0.044849
C90	C	1.800960	0.120912	0.288484
C91	C	1.134330	-0.627554	-0.378193
C92	C	1.467663	-0.294221	-0.044860
C93	C	1.800996	0.039113	0.288474
C94	C	1.184642	-0.815742	-0.328087
C95	C	1.517975	-0.482408	0.005247
C96	C	1.851308	-0.149075	0.338580
C97	C	1.184677	-0.892601	-0.328106
C98	C	1.518010	-0.559267	0.005228
C99	C	1.851343	-0.225934	0.338561
C100	C	1.084211	-0.892604	-0.428411
C101	C	1.417544	-0.559270	-0.095078
C102	C	1.750878	-0.225937	0.238256
C103	C	1.084181	-0.815747	-0.428395
C104	C	1.417514	-0.482413	-0.095062
C105	C	1.750847	-0.149080	0.238271
C106	C	1.134395	-0.777317	-0.378229
C107	C	1.467728	-0.443984	-0.044895
C108	C	1.801061	-0.110651	0.288438
C109	C	1.134460	-0.931034	-0.378263
C110	C	1.467794	-0.597700	-0.044930
C111	C	1.801127	-0.264367	0.288403
C112	C	1.134498	-1.014367	-0.378284
C113	C	1.467831	-0.681034	-0.044951
C114	C	1.801165	-0.347701	0.288382
C115	C	1.134358	-0.693979	-0.378209
C116	C	1.467691	-0.360645	-0.044875
C117	C	1.801025	-0.027312	0.288458
C118	C	1.339120	-0.354569	-0.378250
C119	C	1.672454	-0.021236	-0.044916
C120	C	2.005787	0.312097	0.288417
C121	C	1.426370	-0.354578	-0.378262
C122	C	1.759703	-0.021245	-0.044929
C123	C	2.093037	0.312089	0.288405
C124	C	1.134424	-0.354495	-0.582965
C125	C	1.467757	-0.021161	-0.249632
C126	C	1.801090	0.312172	0.083702
C127	C	1.134444	-0.354472	-0.670215
C128	C	1.467777	-0.021138	-0.336881
C129	C	1.801111	0.312195	-0.003548
C130	C	1.134481	-0.162596	-0.378276
C131	C	1.467814	0.170737	-0.044942
C132	C	1.801147	0.504071	0.288391
C133	C	1.134525	-0.080797	-0.378299
C134	C	1.467859	0.252536	-0.044966
C135	C	1.801192	0.585870	0.288368
C136	C	1.184677	-0.307403	-0.711227
C137	C	1.518010	0.025930	-0.377893
C138	C	1.851344	0.359263	-0.044560
C139	C	1.184687	-0.307379	-0.793207
C140	C	1.518020	0.025954	-0.459874
C141	C	1.851353	0.359288	-0.126541
C142	C	1.134466	-0.354427	-0.834174
C143	C	1.467799	-0.021093	-0.500841
C144	C	1.801133	0.312240	-0.167508
C145	C	1.084227	-0.401497	-0.793156
C146	C	1.417561	-0.068164	-0.459823
C147	C	1.750894	0.265170	-0.126490
C148	C	1.084214	-0.401517	-0.711177
C149	C	1.417548	-0.068184	-0.377844
C150	C	1.750881	0.265149	-0.044511
C151	C	1.084259	-0.401453	-0.964027
C152	C	1.417592	-0.068119	-0.630693
C153	C	1.750926	0.265214	-0.297360
C154	C	1.084273	-0.401434	-1.046011
C155	C	1.417606	-0.068100	-0.712678
C156	C	1.750939	0.265233	-0.379345
C157	C	1.184731	-0.307314	-1.046056
C158	C	1.518064	0.026019	-0.712723
C159	C	1.851398	0.359352	-0.379390
C160	C	1.184718	-0.307335	-0.964077
C161	C	1.518051	0.025999	-0.630744
C162	C	1.851385	0.359332	-0.297411
C163	C	1.134480	-0.354406	-0.923065
C164	C	1.467814	-0.021073	-0.589732
C165	C	1.801147	0.312261	-0.256399
C166	C	1.134374	-0.354550	-0.174273
C167	C	1.467707	-0.021216	0.159061
C168	C	1.801041	0.312117	0.492394
C169	C	1.134506	-0.354366	-0.087023
C170	C	1.467839	-0.021032	0.246310
C171	C	1.801172	0.312301	0.579643
H172	H	0.835490	-0.439817	-0.286956
H173	H	1.168823	-0.106484	0.046378
H174	H	1.502157	0.226849	0.379711
H175	H	0.582644	-0.439846	-0.287000
H176	H	0.915977	-0.106513	0.046334
H177	H	1.249311	0.226820	0.379667
H178	H	1.225594	-0.923882	-0.287276
H179	H	1.558927	-0.590549	0.046057
H180	H	1.892261	-0.257216	0.379391
C181	C	1.239883	-0.773473	-0.272906
C182	C	1.573216	-0.440139	0.060427
C183	C	1.906549	-0.106806	0.393760
N184	N	1.281494	-0.741637	-0.231345
N185	N	1.614827	-0.408304	0.101989
N186	N	1.948161	-0.074971	0.435322
C187	C	1.028970	-0.934883	-0.483582
C188	C	1.362303	-0.601550	-0.150249
C189	C	1.695636	-0.268216	0.183084
N190	N	0.987357	-0.966727	-0.525135
N191	N	1.320691	-0.633393	-0.191802
N192	N	1.654024	-0.300060	0.141531
C193	C	1.028918	-0.773477	-0.483574
C194	C	1.362251	-0.440144	-0.150241
C195	C	1.695585	-0.106811	0.183092
N196	N	0.987303	-0.741640	-0.525141
N197	N	1.320637	-0.408307	-0.191807
N198	N	1.653970	-0.074973	0.141526
H199	H	1.225575	-0.269094	-0.677877
H200	H	1.558908	0.064240	-0.344544
H201	H	1.892242	0.397573	-0.011211
H202	H	1.225593	-0.269053	-0.826596
H203	H	1.558927	0.064280	-0.493262
H204	H	1.892260	0.397614	-0.159929
H205	H	0.835637	-0.269256	-0.469448
H206	H	1.168970	0.064077	-0.136115
H207	H	1.502304	0.397411	0.197218
H208	H	0.434062	-0.269295	-0.469504
H209	H	0.767396	0.064038	-0.136171
H210	H	1.100729	0.397372	0.197163
H211	H	1.043301	-0.439837	-0.677786
H212	H	1.376635	-0.106504	-0.344453
H213	H	1.709968	0.226829	-0.011120
H214	H	1.043334	-0.439801	-0.826518
H215	H	1.376667	-0.106468	-0.493185
H216	H	1.710001	0.226865	-0.159852
H217	H	0.686763	-0.439839	-0.286978
H218	H	1.020096	-0.106506	0.046355
H219	H	1.353429	0.226828	0.379689
C220	C	0.594506	-0.255849	-0.483853
C221	C	0.927840	0.077485	-0.150520
C222	C	1.261173	0.410818	0.182814
N223	N	0.628496	-0.216891	-0.525515
N224	N	0.961829	0.116442	-0.192182
N225	N	1.295162	0.449776	0.141151
H226	H	1.225616	-0.269028	-0.930724
H227	H	1.558950	0.064305	-0.597391
H228	H	1.892283	0.397638	-0.264058
C229	C	0.422186	-0.453294	-0.272643
C230	C	0.755519	-0.119961	0.060690
C231	C	1.088853	0.213372	0.394023
N232	N	0.388194	-0.492244	-0.230975
N233	N	0.721528	-0.158911	0.102359
N234	N	1.054861	0.174422	0.435692
H235	H	1.225635	-0.268986	-1.079453
H236	H	1.558969	0.064347	-0.746119
H237	H	1.892302	0.397681	-0.412786
C238	C	1.029023	-0.453184	-1.091073
C239	C	1.362356	-0.119851	-0.757740
C240	C	1.695689	0.213483	-0.424407
N241	N	0.987407	-0.492162	-1.125014
N242	N	1.320740	-0.158829	-0.791681
N243	N	1.654073	0.174504	-0.458347
C244	C	1.028997	-0.453237	-0.918915
C245	C	1.362330	-0.119903	-0.585582
C246	C	1.695664	0.213430	-0.252248
N247	N	0.987378	-0.492243	-0.884937
N248	N	1.320712	-0.158910	-0.551604
N249	N	1.654045	0.174424	-0.218270
H250	H	0.686909	-0.269270	-0.469470
H251	H	1.020242	0.064063	-0.136137
H252	H	1.353576	0.397396	0.197197
