data_functionalizedCrystal
_audit_creation_method	'MofGen! by Chris Wilmer'
_symmetry_space_group_name_H-M	'P1'
_symmetry_Int_Tables_number	1
_symmetry_cell_setting	triclinic
loop_
_symmetry_equiv_pos_as_xyz
  x,y,z
_cell_length_a	12.594517
_cell_length_b	16.625546
_cell_length_c	12.594509
_cell_angle_alpha	90.033269
_cell_angle_beta	89.978673
_cell_angle_gamma	89.977732
loop_
_atom_site_label
_atom_site_type_symbol
_atom_site_fract_x
_atom_site_fract_y
_atom_site_fract_z
Zn1	Zn	1.627220	0.320982	-0.601823
Zn2	Zn	1.627090	0.455832	-0.423829
Zn3	Zn	1.449223	0.321016	-0.423852
Zn4	Zn	1.449186	0.455775	-0.601759
O5	O	1.538180	0.388401	-0.512815
O6	O	1.776148	0.338879	-0.578229
O7	O	1.603458	0.437986	-0.274886
O8	O	1.472905	0.208179	-0.447496
O9	O	1.776053	0.437952	-0.447457
O10	O	1.603678	0.208154	-0.578251
O11	O	1.472780	0.338938	-0.274903
O12	O	1.300273	0.338883	-0.447434
O13	O	1.472840	0.437857	-0.750713
O14	O	1.300245	0.437890	-0.578142
O15	O	1.603641	0.338824	-0.750760
O16	O	1.603421	0.568656	-0.447395
O17	O	1.472715	0.568615	-0.578119
C18	C	1.261639	0.388385	-0.512784
C19	C	1.143333	0.388398	-0.512796
C20	C	1.538079	0.597892	-0.512771
C21	C	1.538133	0.687513	-0.512787
C22	C	1.538251	0.388331	-0.790436
C23	C	1.538281	0.388300	-0.908742
C24	C	1.074064	0.334474	-0.441840
C25	C	1.003243	0.408023	-0.415651
C26	C	1.003356	0.314885	-0.539003
C27	C	1.074070	0.461985	-0.486557
C28	C	1.074190	0.368797	-0.609953
C29	C	1.003400	0.442397	-0.583802
C30	C	1.815801	0.388418	-0.512847
C31	C	1.934106	0.388425	-0.512861
C32	C	1.538310	0.178092	-0.512883
C33	C	1.538365	0.088471	-0.512912
C34	C	1.538319	1.015689	-0.512898
C35	C	1.538264	0.924380	-0.512870
C36	C	1.538225	0.851604	-0.512842
C37	C	1.538172	0.760290	-0.512815
C38	C	1.467161	0.442134	-0.977970
C39	C	1.564279	0.461835	-1.048758
C40	C	1.441240	0.368551	-1.048753
C41	C	1.635450	0.408040	-0.977972
C42	C	1.512345	0.314722	-0.977961
C43	C	1.609530	0.334395	-1.048717
C44	C	1.538170	0.388413	-0.236274
C45	C	1.538346	0.388216	-0.117970
H46	H	1.105092	0.288917	-0.381760
H47	H	1.717568	0.424780	-0.947011
N48	N	1.115034	0.544370	-0.457086
H49	H	1.053141	0.581693	-0.443800
H50	H	1.159788	0.566168	-0.517074
H51	H	0.972567	0.488063	-0.643835
H52	H	1.586251	0.524022	-1.079855
H53	H	1.359146	0.351882	-1.079845
H54	H	1.490344	0.252552	-0.946840
N55	N	0.961962	0.430013	-0.306858
H56	H	0.987155	0.388983	-0.253384
H57	H	0.881789	0.430838	-0.308116
N58	N	1.115500	0.346795	-0.718723
H59	H	1.089824	0.291214	-0.738433
H60	H	1.195680	0.347515	-0.717979
H61	H	0.972239	0.252713	-0.561104
H62	H	1.407064	0.487729	-0.946907
N63	N	1.689324	0.274053	-1.089626
H64	H	1.670378	0.218665	-1.062735
H65	H	1.762551	0.289120	-1.063728
