data_functionalizedCrystal
_audit_creation_method	'MofGen! by Chris Wilmer'
_symmetry_space_group_name_H-M	'P1'
_symmetry_Int_Tables_number	1
_symmetry_cell_setting	triclinic
loop_
_symmetry_equiv_pos_as_xyz
  x,y,z
_cell_length_a	10.654550
_cell_length_b	11.892095
_cell_length_c	10.654550
_cell_angle_alpha	93.927085
_cell_angle_beta	95.515069
_cell_angle_gamma	93.933548
loop_
_atom_site_label
_atom_site_type_symbol
_atom_site_fract_x
_atom_site_fract_y
_atom_site_fract_z
O1	O	1.675794	0.093918	-0.168447
O2	O	1.310318	0.093939	-0.185251
O3	O	1.501458	0.093921	0.005889
O4	O	1.484653	0.093936	-0.359588
O5	O	1.485521	-0.094085	-0.010023
O6	O	1.294380	-0.094067	-0.201164
O7	O	1.659857	-0.094088	-0.184359
Zn8	Zn	1.474588	-0.123927	-0.195288
Zn9	Zn	1.495586	0.123779	-0.174323
O10	O	1.468716	-0.094070	-0.375500
C11	C	1.255551	-0.000061	-0.191973
C12	C	1.116109	-0.000054	-0.188281
N13	N	1.460267	-0.292980	-0.209595
C14	C	1.036623	-0.000052	-0.300822
C15	C	0.905601	-0.000072	-0.297347
C16	C	0.933562	-0.000090	-0.068779
C17	C	1.064582	-0.000078	-0.072256
C18	C	1.609571	-0.529642	-0.060376
C19	C	1.599570	-0.647983	-0.070386
C20	C	1.430258	-0.648005	-0.239618
C21	C	1.440259	-0.529664	-0.229608
C22	C	1.529920	-0.470487	-0.139986
C23	C	1.539927	-0.352144	-0.129983
C24	C	1.370609	-0.352168	-0.299208
C25	C	1.360608	-0.470509	-0.309218
C26	C	1.714624	-0.000085	-0.177637
C27	C	1.854067	-0.000085	-0.181329
C28	C	1.492256	-0.000081	0.044731
C29	C	1.488564	-0.000079	0.184175
N30	N	1.509917	0.292831	-0.160006
C31	C	1.477919	-0.000065	-0.414342
C32	C	1.481611	-0.000060	-0.553785
C33	C	1.601105	-0.000085	0.263660
C34	C	1.597630	-0.000071	0.394682
C35	C	1.369062	-0.000050	0.366720
C36	C	1.372539	-0.000056	0.235702
H37	H	0.840888	-0.000073	-0.388990
H38	H	1.695580	-0.000102	0.221712
C39	C	1.721424	-0.000085	0.482110
H40	H	1.791016	-0.000108	0.432652
H41	H	1.730386	0.065479	0.539344
H42	H	1.719253	-0.065653	0.528257
C43	C	1.093299	-0.000037	-0.428444
H44	H	1.027189	-0.000049	-0.494971
H45	H	1.149375	0.065529	-0.429005
H46	H	1.138279	-0.065603	-0.440100
H47	H	1.274598	-0.000033	0.408690
C48	C	1.282988	-0.287101	-0.386786
H49	H	1.228168	-0.339297	-0.441599
H50	H	1.234218	-0.240938	-0.337227
H51	H	1.332536	-0.240935	-0.435585
C52	C	1.248742	-0.000044	0.148257
H53	H	1.267434	-0.000036	0.062850
H54	H	1.195647	-0.065597	0.158434
H55	H	1.206785	0.065534	0.169531
C56	C	0.876879	-0.000102	0.058838
H57	H	0.787465	-0.000097	0.044794
H58	H	0.898546	-0.065664	0.099679
H59	H	0.909645	0.065468	0.110770
C60	C	1.152022	-0.000075	0.051546
H61	H	1.102573	-0.000074	0.121145
H62	H	1.198169	-0.065631	0.049389
H63	H	1.209258	0.065501	0.060486
H64	H	1.612936	-0.303962	-0.057011
C65	C	1.708195	-0.464544	0.038197
H66	H	1.754199	-0.516725	0.084180
H67	H	1.764763	-0.418368	-0.003563
H68	H	1.666457	-0.418389	0.094807
C69	C	1.687189	-0.713050	0.017180
H70	H	1.742023	-0.660853	0.071981
H71	H	1.637657	-0.759225	0.065972
H72	H	1.735966	-0.759203	-0.032394
H73	H	1.287604	-0.518705	-0.382184
C74	C	1.331639	-0.713113	-0.338189
H75	H	1.337098	-0.792064	-0.332747
H76	H	1.249342	-0.693731	-0.322139
H77	H	1.347655	-0.693723	-0.420502
