data_functionalizedCrystal
_audit_creation_method	'MofGen! by Chris Wilmer'
_symmetry_space_group_name_H-M	'P1'
_symmetry_Int_Tables_number	1
_symmetry_cell_setting	triclinic
loop_
_symmetry_equiv_pos_as_xyz
  x,y,z
_cell_length_a	6.394984
_cell_length_b	10.967819
_cell_length_c	10.065875
_cell_angle_alpha	69.228723
_cell_angle_beta	99.046838
_cell_angle_gamma	85.583206
loop_
_atom_site_label
_atom_site_type_symbol
_atom_site_fract_x
_atom_site_fract_y
_atom_site_fract_z
O1	O	0.152703	1.742301	-0.523269
O2	O	0.204509	1.365558	-0.434663
O3	O	-0.125722	1.559280	-0.480220
O4	O	0.482933	1.548578	-0.477712
O5	O	-0.062506	1.522344	-0.244546
O6	O	0.267725	1.328622	-0.198988
O7	O	0.215918	1.705364	-0.287594
Zn8	Zn	0.251859	1.511129	-0.205873
Zn9	Zn	0.168569	1.559794	-0.516384
O10	O	0.546149	1.511642	-0.242037
C11	C	0.237122	1.298788	-0.305466
C12	C	0.240091	1.154863	-0.271616
C13	C	0.211751	0.961088	-0.343654
C14	C	0.208669	1.109841	-0.378631
C15	C	0.828174	1.538683	-0.361878
C16	C	0.592253	1.532234	-0.360364
C17	C	0.183305	1.772135	-0.416794
C18	C	0.180333	1.916061	-0.450653
N19	N	0.308700	1.477925	0.006041
N20	N	0.111711	1.593007	-0.728301
C21	C	0.188333	1.548233	0.057286
C22	C	0.232095	1.522689	0.220460
H23	H	0.240942	0.889511	-0.226154
O24	O	0.279019	1.059983	-0.115986
H25	H	0.139310	1.006543	-0.097500
O26	O	0.008849	1.652981	-0.044588
H27	H	0.002621	1.656592	-0.156762
H28	H	0.367545	1.443575	0.297386
H29	H	-0.023754	1.672111	0.194776
O30	O	0.169985	1.204633	-0.534289
H31	H	0.173607	1.306596	-0.537336
O32	O	0.141650	1.010856	-0.606304
H33	H	0.145273	1.112818	-0.609350
H34	H	0.444141	1.398817	0.082971
