data_functionalizedCrystal
_audit_creation_method	'MofGen! by Chris Wilmer'
_symmetry_space_group_name_H-M	'P1'
_symmetry_Int_Tables_number	1
_symmetry_cell_setting	triclinic
loop_
_symmetry_equiv_pos_as_xyz
  x,y,z
_cell_length_a	13.635800
_cell_length_b	7.190335
_cell_length_c	7.190410
_cell_angle_alpha	97.683314
_cell_angle_beta	60.610675
_cell_angle_gamma	119.388233
loop_
_atom_site_label
_atom_site_type_symbol
_atom_site_fract_x
_atom_site_fract_y
_atom_site_fract_z
V1	V	-2.154323	-0.663495	0.291696
O2	O	-2.100791	-0.652432	-0.017520
O3	O	-2.172017	-0.657450	0.581753
O4	O	-2.172020	-0.953556	0.285672
O5	O	-2.100788	-0.354276	0.280611
V6	V	-2.385279	-0.626693	0.254892
O7	O	-2.308654	-0.744223	0.372429
O8	O	-2.456047	-0.545965	0.174159
O9	O	-2.255982	-0.632738	-0.035166
O10	O	-2.497509	-0.637756	0.564108
O11	O	-2.497512	-0.935912	0.265977
O12	O	-2.255979	-0.336632	0.260916
V13	V	-1.885272	-0.626693	0.254892
O14	O	-1.938806	-0.935912	0.265977
O15	O	-1.867575	-0.336632	0.260916
O16	O	-1.867578	-0.632738	-0.035166
O17	O	-1.938804	-0.637756	0.564108
V18	V	-1.654315	-0.663495	0.291696
O19	O	-1.730941	-0.545965	0.174159
O20	O	-1.583548	-0.744223	0.372429
O21	O	-1.783616	-0.953556	0.285672
O22	O	-1.542082	-0.354276	0.280611
O23	O	-1.542085	-0.652432	-0.017520
O24	O	-1.783613	-0.657450	0.581753
C25	C	-1.936229	-0.265871	0.271761
C26	C	-1.879797	-0.024297	0.274816
C27	C	-2.159799	-0.643564	0.894084
C28	C	-2.103350	-0.646592	0.652505
C29	C	-2.103361	-1.024304	0.274819
C30	C	-2.159789	-1.265876	0.271754
C31	C	-1.936238	-0.643597	-0.105912
C32	C	-1.879813	-0.646684	-0.347481
