data_functionalizedCrystal
_audit_creation_method	'MofGen! by Chris Wilmer'
_symmetry_space_group_name_H-M	'P1'
_symmetry_Int_Tables_number	1
_symmetry_cell_setting	triclinic
loop_
_symmetry_equiv_pos_as_xyz
  x,y,z
_cell_length_a	10.489741
_cell_length_b	10.489716
_cell_length_c	17.766277
_cell_angle_alpha	89.997726
_cell_angle_beta	89.993348
_cell_angle_gamma	84.534155
loop_
_atom_site_label
_atom_site_type_symbol
_atom_site_fract_x
_atom_site_fract_y
_atom_site_fract_z
O1	O	1.694047	0.179972	-0.062540
O2	O	2.194047	0.679972	0.437460
O3	O	1.322849	0.196865	-0.062551
O4	O	1.822849	0.696865	0.437449
O5	O	1.516911	0.002819	-0.062548
O6	O	2.016911	0.502819	0.437452
O7	O	1.499985	0.374018	-0.062543
O8	O	1.999985	0.874018	0.437457
O9	O	1.516876	0.002808	0.062640
O10	O	2.016876	0.502808	0.562640
O11	O	1.322815	0.196855	0.062637
O12	O	1.822815	0.696855	0.562637
O13	O	1.694012	0.179962	0.062648
O14	O	2.194012	0.679962	0.562648
Cu15	Cu	1.508410	0.188407	0.074073
Cu16	Cu	2.008410	0.688407	0.574073
Cu17	Cu	1.508451	0.188419	-0.073976
Cu18	Cu	2.008451	0.688419	0.426024
O19	O	1.499951	0.374008	0.062645
O20	O	1.999951	0.874008	0.562645
C21	C	1.275301	0.195584	0.000041
C22	C	1.775301	0.695584	0.500041
C23	C	1.133672	0.191767	0.000037
C24	C	1.633672	0.691767	0.500037
C25	C	1.065542	0.068301	0.000042
C26	C	1.565542	0.568301	0.500042
C27	C	0.973427	0.126630	-0.061680
C28	C	1.473427	0.626630	0.438320
C29	C	0.973427	0.126649	0.061746
C30	C	1.473427	0.626649	0.561746
C31	C	1.043422	0.250147	-0.061736
C32	C	1.543422	0.750147	0.438264
C33	C	1.043431	0.250149	0.061745
C34	C	1.543431	0.750149	0.561745
C35	C	0.951344	0.308568	0.000008
C36	C	1.451344	0.808568	0.500008
C37	C	1.515622	-0.044719	0.000044
C38	C	2.015622	0.455281	0.500044
C39	C	1.511817	-0.186350	0.000037
C40	C	2.011817	0.313650	0.500037
C41	C	1.630822	-0.284024	0.000047
C42	C	2.130822	0.215976	0.500047
C43	C	1.567954	-0.361379	-0.061677
C44	C	2.067954	0.138621	0.438323
C45	C	1.567892	-0.361353	0.061749
C46	C	2.067892	0.138647	0.561749
C47	C	1.448999	-0.261840	-0.061739
C48	C	1.948999	0.238160	0.438261
C49	C	1.448955	-0.261809	0.061743
C50	C	1.948955	0.238191	0.561743
C51	C	1.386000	-0.339115	0.000003
C52	C	1.886000	0.160885	0.500003
C53	C	1.741561	0.181243	0.000054
C54	C	2.241561	0.681243	0.500054
C55	C	1.883190	0.185060	0.000053
C56	C	2.383190	0.685060	0.500053
C57	C	1.501240	0.421545	0.000052
C58	C	2.001240	0.921545	0.500052
C59	C	1.505044	0.563176	0.000054
C60	C	2.005044	1.063176	0.500054
N61	N	1.508391	0.188398	0.178204
N62	N	2.008391	0.688398	0.678204
N63	N	1.508481	0.188419	-0.178107
N64	N	2.008481	0.688419	0.321893
C65	C	1.594350	0.102517	0.217592
C66	C	2.094350	0.602517	0.717592
C67	C	1.594357	0.102511	0.296394
C68	C	2.094357	0.602511	0.796394
C69	C	1.508418	0.188408	0.335804
C70	C	2.008418	0.688408	0.835804
C71	C	1.422443	0.274296	0.296407
C72	C	1.922443	0.774296	0.796407
C73	C	1.422429	0.274290	0.217606
C74	C	1.922429	0.774290	0.717606
C75	C	1.492761	0.304430	0.460644
C76	C	1.992761	0.804430	0.960644
C77	C	1.492784	0.304437	0.539442
C78	C	1.992784	0.804437	1.039442
C79	C	1.508452	0.188424	0.578851
C80	C	2.008452	0.688424	1.078851
C81	C	1.524125	0.072400	0.539450
C82	C	2.024125	0.572400	1.039450
C83	C	1.524112	0.072394	0.460650
C84	C	2.024112	0.572394	0.960650
C85	C	1.508422	0.188423	0.421250
C86	C	2.008422	0.688423	0.921250
C87	C	1.594424	0.102530	0.703685
C88	C	2.094424	0.602530	1.203685
C89	C	1.594422	0.102522	0.782488
C90	C	2.094422	0.602522	1.282488
C91	C	1.422514	0.274318	0.782499
C92	C	1.922514	0.774318	1.282499
C93	C	1.422509	0.274314	0.703698
C94	C	1.922509	0.774314	1.203698
C95	C	1.508471	0.188422	0.664295
C96	C	2.008471	0.688422	1.164295
H97	H	1.115241	-0.033196	-0.000036
H98	H	1.615241	0.466804	0.499964
H99	H	1.398748	-0.218295	0.113926
H100	H	1.898748	0.281705	0.613926
H101	H	1.734335	-0.259347	-0.000012
H102	H	2.234335	0.240653	0.499988
H103	H	1.398804	-0.218532	-0.113980
H104	H	1.898804	0.281468	0.386020
F105	F	0.932916	0.058357	-0.129889
F106	F	1.432916	0.558357	0.370111
F107	F	0.932926	0.058335	0.129952
F108	F	1.432926	0.558335	0.629952
H109	H	1.074260	0.302351	-0.113976
H110	H	1.574260	0.802351	0.386024
F111	F	1.685832	0.011099	0.175659
F112	F	2.185832	0.511099	0.675659
F113	F	1.330976	0.365710	0.338350
F114	F	1.830976	0.865710	0.838350
F115	F	1.331043	0.365728	0.824439
F116	F	1.831043	0.865728	1.324439
F117	F	0.886727	0.441370	-0.000032
F118	F	1.386727	0.941370	0.499968
F119	F	1.083990	0.318371	0.129957
F120	F	1.583990	0.818371	0.629957
F121	F	1.330937	0.365701	0.175685
F122	F	1.830937	0.865701	0.675685
F123	F	1.633633	-0.418228	-0.129882
F124	F	2.133633	0.081772	0.370118
F125	F	1.250600	-0.371052	-0.000042
F126	F	1.750600	0.128948	0.499958
F127	F	1.633566	-0.418178	0.129955
F128	F	2.133566	0.081822	0.629955
F129	F	1.540810	-0.051079	0.581385
F130	F	2.040810	0.448921	1.081385
H131	H	1.664357	0.032574	0.328470
H132	H	2.164357	0.532574	0.828470
H133	H	1.536870	-0.022076	0.428574
H134	H	2.036870	0.477924	0.928574
H135	H	1.664415	0.032587	0.671602
H136	H	2.164415	0.532587	1.171602
H137	H	1.664416	0.032581	0.814559
H138	H	2.164416	0.532581	1.314559
F139	F	1.331026	0.365726	0.661774
F140	F	1.831026	0.865726	1.161774
F141	F	1.476112	0.427919	0.581368
F142	F	1.976112	0.927919	1.081368
F143	F	1.476177	0.427918	0.418710
F144	F	1.976177	0.927918	0.918710
