data_functionalizedCrystal
_audit_creation_method	'MofGen! by Chris Wilmer'
_symmetry_space_group_name_H-M	'P1'
_symmetry_Int_Tables_number	1
_symmetry_cell_setting	triclinic
loop_
_symmetry_equiv_pos_as_xyz
  x,y,z
_cell_length_a	16.625548
_cell_length_b	12.645330
_cell_length_c	16.625539
_cell_angle_alpha	89.975749
_cell_angle_beta	89.979432
_cell_angle_gamma	90.018760
loop_
_atom_site_label
_atom_site_type_symbol
_atom_site_fract_x
_atom_site_fract_y
_atom_site_fract_z
Zn1	Zn	1.232707	-0.422007	-0.455932
Zn2	Zn	1.482707	-0.172007	-0.205932
Zn3	Zn	1.732707	0.077993	0.044068
Zn4	Zn	1.982707	0.327993	0.294068
Zn5	Zn	1.232622	-0.599293	-0.321109
Zn6	Zn	1.482622	-0.349293	-0.071109
Zn7	Zn	1.732622	-0.099293	0.178891
Zn8	Zn	1.982622	0.150707	0.428891
Zn9	Zn	1.097869	-0.422048	-0.321113
Zn10	Zn	1.347869	-0.172048	-0.071113
Zn11	Zn	1.597869	0.077952	0.178887
Zn12	Zn	1.847869	0.327952	0.428887
Zn13	Zn	1.097851	-0.599232	-0.455899
Zn14	Zn	1.347851	-0.349232	-0.205899
Zn15	Zn	1.597851	-0.099232	0.044101
Zn16	Zn	1.847851	0.150768	0.294101
O17	O	1.165262	-0.510645	-0.388513
O18	O	1.415262	-0.260645	-0.138513
O19	O	1.665262	-0.010645	0.111487
O20	O	1.915262	0.239355	0.361487
O21	O	1.345528	-0.445533	-0.438060
O22	O	1.595528	-0.195533	-0.188060
O23	O	1.845528	0.054467	0.061940
O24	O	2.095528	0.304467	0.311940
O25	O	1.214718	-0.575824	-0.208277
O26	O	1.464718	-0.325824	0.041723
O27	O	1.714718	-0.075824	0.291723
O28	O	1.964718	0.174176	0.541723
O29	O	1.115799	-0.273695	-0.339012
O30	O	1.365799	-0.023695	-0.089012
O31	O	1.615799	0.226305	0.160988
O32	O	1.865799	0.476305	0.410988
O33	O	1.345465	-0.575784	-0.339006
O34	O	1.595465	-0.325784	-0.089006
O35	O	1.845465	-0.075784	0.160994
O36	O	2.095465	0.174216	0.410994
O37	O	1.214864	-0.273665	-0.438064
O38	O	1.464864	-0.023665	-0.188064
O39	O	1.714864	0.226335	0.061936
O40	O	1.964864	0.476335	0.311936
O41	O	1.115716	-0.445602	-0.208280
O42	O	1.365716	-0.195602	0.041720
O43	O	1.615716	0.054398	0.291720
O44	O	1.865716	0.304398	0.541720
O45	O	0.985034	-0.445543	-0.338980
O46	O	1.235034	-0.195543	-0.088980
O47	O	1.485034	0.054457	0.161020
O48	O	1.735034	0.304457	0.411020
O49	O	1.115768	-0.575681	-0.568736
O50	O	1.365768	-0.325681	-0.318736
O51	O	1.615768	-0.075681	-0.068736
O52	O	1.865768	0.174319	0.181264
O53	O	0.985021	-0.575720	-0.438007
O54	O	1.235021	-0.325720	-0.188007
O55	O	1.485021	-0.075720	0.061993
O56	O	1.735021	0.174280	0.311993
O57	O	1.214846	-0.445474	-0.568760
O58	O	1.464846	-0.195474	-0.318760
O59	O	1.714846	0.054526	-0.068760
O60	O	1.964846	0.304526	0.181240
O61	O	1.214701	-0.747632	-0.338973
O62	O	1.464701	-0.497632	-0.088973
O63	O	1.714701	-0.247632	0.161027
O64	O	1.964701	0.002368	0.411027
O65	O	1.115685	-0.747588	-0.438003
O66	O	1.365685	-0.497588	-0.188003
O67	O	1.615685	-0.247588	0.061997
O68	O	1.865685	0.002412	0.311997
C69	C	0.955771	-0.510630	-0.388491
C70	C	1.205771	-0.260630	-0.138491
C71	C	1.455771	-0.010630	0.111509
C72	C	1.705771	0.239370	0.361509
C73	C	0.866150	-0.510649	-0.388500
C74	C	1.116150	-0.260649	-0.138500
C75	C	1.366150	-0.010649	0.111500
C76	C	1.616150	0.239351	0.361500
C77	C	1.165203	-0.786075	-0.388502
C78	C	1.415203	-0.536075	-0.138502
C79	C	1.665203	-0.286075	0.111498
C80	C	1.915203	-0.036075	0.361498
C81	C	1.165252	-0.903905	-0.388524
C82	C	1.415252	-0.653905	-0.138524
C83	C	1.665252	-0.403905	0.111476
C84	C	1.915252	-0.153905	0.361476
C85	C	0.537975	-0.510656	-0.388534
C86	C	0.787975	-0.260656	-0.138534
C87	C	1.037975	-0.010656	0.111466
C88	C	1.287975	0.239344	0.361466
C89	C	0.629283	-0.510651	-0.388522
C90	C	0.879283	-0.260651	-0.138522
C91	C	1.129283	-0.010651	0.111478
C92	C	1.379283	0.239349	0.361478
C93	C	0.702059	-0.510653	-0.388517
C94	C	0.952059	-0.260653	-0.138517
C95	C	1.202059	-0.010653	0.111483
C96	C	1.452059	0.239347	0.361483
C97	C	0.793374	-0.510647	-0.388506
C98	C	1.043374	-0.260647	-0.138506
C99	C	1.293374	-0.010647	0.111494
C100	C	1.543374	0.239353	0.361494
C101	C	1.103218	-1.071485	-0.451015
C102	C	1.353218	-0.821485	-0.201015
C103	C	1.603218	-0.571485	0.048985
C104	C	1.853218	-0.321485	0.298985
C105	C	1.102901	-0.948925	-0.450815
C106	C	1.352901	-0.698925	-0.200815
C107	C	1.602901	-0.448925	0.049185
C108	C	1.852901	-0.198925	0.299185
C109	C	1.142250	-0.948498	-0.303549
C110	C	1.392250	-0.698498	-0.053549
C111	C	1.642250	-0.448498	0.196451
C112	C	1.892250	-0.198498	0.446451
C113	C	1.141872	-1.071097	-0.303928
C114	C	1.391872	-0.821097	-0.053928
C115	C	1.641872	-0.571097	0.196072
C116	C	1.891872	-0.321097	0.446072
C117	C	1.250667	-1.070992	-0.410318
C118	C	1.500667	-0.820992	-0.160318
C119	C	1.750667	-0.570992	0.089682
C120	C	2.000667	-0.320992	0.339682
C121	C	1.250144	-0.948386	-0.412177
C122	C	1.500144	-0.698386	-0.162177
C123	C	1.750144	-0.448386	0.087823
C124	C	2.000144	-0.198386	0.337823
C125	C	1.375571	-0.510661	-0.388536
C126	C	1.625571	-0.260661	-0.138536
C127	C	1.875571	-0.010661	0.111464
C128	C	2.125571	0.239339	0.361464
C129	C	1.465192	-0.510668	-0.388546
C130	C	1.715192	-0.260668	-0.138546
C131	C	1.965192	-0.010668	0.111454
C132	C	2.215192	0.239332	0.361454
C133	C	1.165315	-0.510566	-0.598822
C134	C	1.415315	-0.260566	-0.348822
C135	C	1.665315	-0.010566	-0.098822
C136	C	1.915315	0.239434	0.151178
C137	C	1.165337	-0.510533	-0.688443
C138	C	1.415337	-0.260533	-0.438443
C139	C	1.665337	-0.010533	-0.188443
C140	C	1.915337	0.239467	0.061557
C141	C	1.165343	-0.234140	-0.388542
C142	C	1.415343	0.015860	-0.138542
C143	C	1.665343	0.265860	0.111458
C144	C	1.915343	0.515860	0.361458
C145	C	1.165378	-0.116310	-0.388554
C146	C	1.415378	0.133690	-0.138554
C147	C	1.665378	0.383690	0.111446
C148	C	1.915378	0.633690	0.361446
C149	C	1.165374	-0.510414	-1.016619
C150	C	1.415374	-0.260414	-0.766619
C151	C	1.665374	-0.010414	-0.516619
C152	C	1.915374	0.239586	-0.266619
C153	C	1.165362	-0.510450	-0.925311
C154	C	1.415362	-0.260450	-0.675311
C155	C	1.665362	-0.010450	-0.425311
C156	C	1.915362	0.239550	-0.175311
C157	C	1.165356	-0.510474	-0.852534
C158	C	1.415356	-0.260474	-0.602534
C159	C	1.665356	-0.010474	-0.352534
C160	C	1.915356	0.239526	-0.102534
C161	C	1.165343	-0.510509	-0.761220
C162	C	1.415343	-0.260509	-0.511220
C163	C	1.665343	-0.010509	-0.261220
C164	C	1.915343	0.239491	-0.011220
C165	C	1.165256	-0.510647	-0.179022
C166	C	1.415256	-0.260647	0.070978
C167	C	1.665256	-0.010647	0.320978
C168	C	1.915256	0.239353	0.570978
C169	C	1.165390	-0.510382	-0.089402
C170	C	1.415390	-0.260382	0.160598
C171	C	1.665390	-0.010382	0.410598
C172	C	1.915390	0.239618	0.660598
H173	H	1.117292	-0.918772	-0.513823
H174	H	1.367292	-0.668772	-0.263823
H175	H	1.617292	-0.418772	-0.013823
H176	H	1.867292	-0.168772	0.236177
O177	O	1.060524	-0.907959	-0.278684
O178	O	1.310524	-0.657959	-0.028684
O179	O	1.560524	-0.407959	0.221316
O180	O	1.810524	-0.157959	0.471316
H181	H	1.044931	-0.940030	-0.218508
H182	H	1.294931	-0.690030	0.031492
H183	H	1.544931	-0.440030	0.281492
H184	H	1.794931	-0.190030	0.531492
O185	O	1.019980	-1.112395	-0.432161
O186	O	1.269980	-0.862395	-0.182161
O187	O	1.519980	-0.612395	0.067839
O188	O	1.769980	-0.362395	0.317839
H189	H	1.022688	-1.164513	-0.378495
H190	H	1.272688	-0.914513	-0.128495
H191	H	1.522688	-0.664513	0.121505
H192	H	1.772688	-0.414513	0.371505
H193	H	1.186089	-0.919338	-0.255739
H194	H	1.436089	-0.669338	-0.005739
H195	H	1.686089	-0.419338	0.244261
H196	H	1.936089	-0.169338	0.494261
O197	O	1.059288	-1.109108	-0.279503
O198	O	1.309288	-0.859108	-0.029503
O199	O	1.559288	-0.609108	0.220497
O200	O	1.809288	-0.359108	0.470497
H201	H	1.058200	-1.196872	-0.279525
H202	H	1.308200	-0.946872	-0.029525
H203	H	1.558200	-0.696872	0.220475
H204	H	1.808200	-0.446872	0.470475
H205	H	1.298894	-0.917733	-0.369996
H206	H	1.548894	-0.667733	-0.119996
H207	H	1.798894	-0.417733	0.130004
H208	H	2.048894	-0.167733	0.380004
O209	O	1.121807	-1.110953	-0.534681
O210	O	1.371807	-0.860953	-0.284681
O211	O	1.621807	-0.610953	-0.034681
O212	O	1.871807	-0.360953	0.215319
H213	H	1.175584	-1.162874	-0.532654
H214	H	1.425584	-0.912874	-0.282654
H215	H	1.675584	-0.662874	-0.032654
H216	H	1.925584	-0.412874	0.217346
O217	O	1.312058	-1.109623	-0.350194
O218	O	1.562058	-0.859623	-0.100194
O219	O	1.812058	-0.609623	0.149806
O220	O	2.062058	-0.359623	0.399806
H221	H	1.282018	-1.160820	-0.305011
H222	H	1.532018	-0.910820	-0.055011
H223	H	1.782018	-0.660820	0.194989
H224	H	2.032018	-0.410820	0.444989
O225	O	1.019154	-0.910187	-0.431695
O226	O	1.269154	-0.660187	-0.181695
O227	O	1.519154	-0.410187	0.068305
O228	O	1.769154	-0.160187	0.318305
H229	H	0.978724	-0.979020	-0.422549
H230	H	1.228724	-0.729020	-0.172549
H231	H	1.478724	-0.479020	0.077451
H232	H	1.728724	-0.229020	0.327451
H233	H	1.185181	-1.100752	-0.255803
H234	H	1.435181	-0.850752	-0.005803
H235	H	1.685181	-0.600752	0.244197
H236	H	1.935181	-0.350752	0.494197
H237	H	1.271650	-1.101837	-0.471229
H238	H	1.521650	-0.851837	-0.221229
H239	H	1.771650	-0.601837	0.028771
H240	H	2.021650	-0.351837	0.278771
H241	H	1.267490	-0.919236	-0.474714
H242	H	1.517490	-0.669236	-0.224714
H243	H	1.767490	-0.419236	0.025286
H244	H	2.017490	-0.169236	0.275286
