data_functionalizedCrystal
_audit_creation_method	'MofGen! by Chris Wilmer'
_symmetry_space_group_name_H-M	'P1'
_symmetry_Int_Tables_number	1
_symmetry_cell_setting	triclinic
loop_
_symmetry_equiv_pos_as_xyz
  x,y,z
_cell_length_a	18.215407
_cell_length_b	12.759394
_cell_length_c	18.215399
_cell_angle_alpha	89.972315
_cell_angle_beta	89.983176
_cell_angle_gamma	90.015285
loop_
_atom_site_label
_atom_site_type_symbol
_atom_site_fract_x
_atom_site_fract_y
_atom_site_fract_z
Zn1	Zn	1.125101	-0.418240	-0.416130
Zn2	Zn	1.625101	0.081760	0.083870
Zn3	Zn	1.125038	-0.593945	-0.293069
Zn4	Zn	1.625038	-0.093945	0.206931
Zn5	Zn	1.002041	-0.418281	-0.293077
Zn6	Zn	1.502041	0.081719	0.206923
Zn7	Zn	1.002022	-0.593879	-0.416094
Zn8	Zn	1.502022	-0.093879	0.083906
O9	O	1.063550	-0.506086	-0.354592
O10	O	1.563550	-0.006086	0.145408
O11	O	1.228077	-0.441557	-0.399817
O12	O	1.728077	0.058443	0.100183
O13	O	1.108703	-0.570688	-0.190086
O14	O	1.608703	-0.070688	0.309914
O15	O	1.018399	-0.271255	-0.309418
O16	O	1.518399	0.228745	0.190582
O17	O	1.228031	-0.570647	-0.309405
O18	O	1.728031	-0.070647	0.190595
O19	O	1.108812	-0.271224	-0.399825
O20	O	1.608812	0.228776	0.100175
O21	O	1.018338	-0.441629	-0.190092
O22	O	1.518338	0.058371	0.309908
O23	O	0.899054	-0.441565	-0.309384
O24	O	1.399054	0.058435	0.190616
O25	O	1.018367	-0.570535	-0.519083
O26	O	1.518367	-0.070535	-0.019083
O27	O	0.899040	-0.570575	-0.399764
O28	O	1.399040	-0.070575	0.100236
O29	O	1.108793	-0.441494	-0.519109
O30	O	1.608793	0.058506	-0.019109
O31	O	1.108685	-0.740957	-0.309370
O32	O	1.608685	-0.240957	0.190630
O33	O	1.018305	-0.740909	-0.399756
O34	O	1.518305	-0.240909	0.100244
C35	C	0.872344	-0.506068	-0.354571
C36	C	1.372344	-0.006068	0.145429
C37	C	0.790545	-0.506086	-0.354580
C38	C	1.290545	-0.006086	0.145420
C39	C	0.602363	-0.573367	-0.401582
C40	C	1.102363	-0.073367	0.098418
C41	C	0.525505	-0.573370	-0.401591
C42	C	1.025505	-0.073370	0.098409
C43	C	0.525489	-0.438824	-0.307619
C44	C	1.025489	0.061176	0.192381
C45	C	0.602347	-0.438816	-0.307614
C46	C	1.102347	0.061184	0.192386
C47	C	0.640782	-0.506094	-0.354594
C48	C	1.140782	-0.006094	0.145406
C49	C	0.487066	-0.506105	-0.354608
C50	C	0.987066	-0.006105	0.145392
C51	C	0.403732	-0.506108	-0.354618
C52	C	0.903732	-0.006108	0.145382
C53	C	0.724121	-0.506090	-0.354586
C54	C	1.224121	-0.006090	0.145414
C55	C	1.063506	-0.779054	-0.354575
C56	C	1.563506	-0.279054	0.145425
C57	C	1.063555	-0.895830	-0.354592
C58	C	1.563555	-0.395830	0.145408
C59	C	1.157738	-0.895827	-0.260543
C60	C	1.657738	-0.395827	0.239457
C61	C	1.204848	-0.950687	-0.213528
C62	C	1.704848	-0.450687	0.286472
C63	C	1.204891	-1.060408	-0.213548
C64	C	1.704891	-0.560408	0.286452
C65	C	1.157820	-1.115273	-0.260590
C66	C	1.657820	-0.615273	0.239410
C67	C	1.110710	-1.060414	-0.307605
C68	C	1.610710	-0.560414	0.192395
C69	C	1.110670	-0.950690	-0.307579
C70	C	1.610670	-0.450690	0.192421
C71	C	1.016532	-1.060417	-0.401656
C72	C	1.516532	-0.560417	0.098344
C73	C	1.016484	-0.950695	-0.401634
C74	C	1.516484	-0.450695	0.098366
C75	C	0.969461	-1.115281	-0.448698
C76	C	1.469461	-0.615281	0.051302
C77	C	0.922345	-1.060422	-0.495711
C78	C	1.422345	-0.560422	0.004289
C79	C	0.922303	-0.950694	-0.495689
C80	C	1.422303	-0.450694	0.004311
C81	C	0.969373	-0.895836	-0.448649
C82	C	1.469373	-0.395836	0.051351
C83	C	1.255503	-0.506105	-0.354614
C84	C	1.755503	-0.006105	0.145386
C85	C	1.337302	-0.506113	-0.354623
C86	C	1.837302	-0.006113	0.145377
C87	C	1.063585	-0.506002	-0.546545
C88	C	1.563585	-0.006002	-0.046545
C89	C	1.063600	-0.505966	-0.628344
C90	C	1.563600	-0.005966	-0.128344
C91	C	1.063615	-0.232053	-0.354626
C92	C	1.563615	0.267947	0.145374
C93	C	1.063642	-0.115276	-0.354641
C94	C	1.563642	0.384724	0.145359
C95	C	1.016586	-0.438720	-0.816542
C96	C	1.516586	0.061280	-0.316542
C97	C	1.016599	-0.438699	-0.893401
C98	C	1.516599	0.061301	-0.393401
C99	C	1.110702	-0.573087	-0.893384
C100	C	1.610702	-0.073087	-0.393384
C101	C	1.110685	-0.573113	-0.816527
C102	C	1.610685	-0.073113	-0.316527
C103	C	1.063628	-0.505923	-0.778108
C104	C	1.563628	-0.005923	-0.278108
C105	C	1.063658	-0.505877	-0.931824
C106	C	1.563658	-0.005877	-0.431824
C107	C	1.063672	-0.505854	-1.015158
C108	C	1.563672	-0.005854	-0.515158
C109	C	1.063613	-0.505947	-0.694769
C110	C	1.563613	-0.005947	-0.194769
C111	C	1.063558	-0.506094	-0.163386
C112	C	1.563558	-0.006094	0.336614
C113	C	1.063686	-0.505834	-0.081588
C114	C	1.563686	-0.005834	0.418412
H115	H	1.157698	-0.806486	-0.260513
H116	H	1.657698	-0.306486	0.239487
F117	F	0.484620	-0.644970	-0.451602
F118	F	0.984620	-0.144970	0.048398
H119	H	0.978292	-0.383976	-0.924691
H120	H	1.478292	0.116024	-0.424691
H121	H	0.494186	-0.384051	-0.269369
H122	H	0.994186	0.115949	0.230631
F123	F	0.643237	-0.367205	-0.257605
F124	F	1.143237	0.132795	0.242395
F125	F	0.643266	-0.644967	-0.451584
F126	F	1.143266	-0.144967	0.048416
F127	F	1.160781	-0.644590	-0.934279
F128	F	1.660781	-0.144590	-0.434279
F129	F	0.966503	-0.367214	-0.775656
F130	F	1.466503	0.132786	-0.275656
H131	H	1.148993	-0.627842	-0.785233
H132	H	1.648993	-0.127842	-0.285233
F133	F	1.254945	-0.892289	-0.163468
F134	F	1.754945	-0.392289	0.336532
H135	H	0.969339	-0.806495	-0.448621
H136	H	1.469339	-0.306495	0.051379
F137	F	1.255035	-1.118795	-0.163513
F138	F	1.755035	-0.618795	0.336487
F139	F	0.969264	-1.232056	-0.448475
F140	F	1.469264	-0.732056	0.051525
F141	F	1.157625	-1.232048	-0.260365
F142	F	1.657625	-0.732048	0.239635
H143	H	0.884027	-1.105102	-0.534013
H144	H	1.384027	-0.605102	-0.034013
H145	H	0.883943	-0.906033	-0.533977
H146	H	1.383943	-0.406033	-0.033977
