data_functionalizedCrystal
_audit_creation_method	'MofGen! by Chris Wilmer'
_symmetry_space_group_name_H-M	'P1'
_symmetry_Int_Tables_number	1
_symmetry_cell_setting	triclinic
loop_
_symmetry_equiv_pos_as_xyz
  x,y,z
_cell_length_a	18.050590
_cell_length_b	25.639240
_cell_length_c	18.050582
_cell_angle_alpha	90.031820
_cell_angle_beta	89.999233
_cell_angle_gamma	90.021926
loop_
_atom_site_label
_atom_site_type_symbol
_atom_site_fract_x
_atom_site_fract_y
_atom_site_fract_z
Zn1	Zn	1.135269	-0.208335	0.419554
Zn2	Zn	1.135170	-0.295763	0.295344
Zn3	Zn	1.011088	-0.208327	0.295412
Zn4	Zn	1.011026	-0.295725	0.419526
O5	O	1.073138	-0.252037	0.357459
O6	O	1.239180	-0.219952	0.403060
O7	O	1.118695	-0.284177	0.191428
O8	O	1.027628	-0.135163	0.311920
O9	O	1.239108	-0.284185	0.311804
O10	O	1.118864	-0.135169	0.403126
O11	O	1.027532	-0.219938	0.191478
O12	O	0.907155	-0.219901	0.311893
O13	O	1.027523	-0.284120	0.523455
O14	O	0.907110	-0.284112	0.403079
O15	O	1.118804	-0.219915	0.523475
O16	O	1.118635	-0.368923	0.311777
O17	O	1.027427	-0.368895	0.403013
C18	C	0.880186	-0.252002	0.357491
C19	C	0.797640	-0.251999	0.357522
C20	C	0.598187	-0.287017	0.406992
C21	C	0.548799	-0.239344	0.425278
C22	C	0.646510	-0.252028	0.357486
C23	C	0.548816	-0.299728	0.339199
C24	C	0.500525	-0.252061	0.357452
C25	C	0.598210	-0.204330	0.375808
C26	C	0.598231	-0.264747	0.289697
C27	C	0.548866	-0.217041	0.307958
C28	C	0.730608	-0.252010	0.357507
C29	C	0.416428	-0.252073	0.357431
C30	C	1.073033	-0.387880	0.357401
C31	C	1.073056	-0.445994	0.357401
C32	C	1.120668	-0.806322	0.405036
C33	C	1.120690	-0.860926	0.405051
O34	O	1.161046	-0.889133	0.445492
N35	N	1.073241	-0.888277	0.357531
C36	C	1.025763	-0.861020	0.309998
O37	O	0.985405	-0.889297	0.269580
C38	C	1.025737	-0.806416	0.309987
C39	C	1.073194	-0.779069	0.357505
C40	C	1.168121	-0.778974	0.452551
C41	C	1.168099	-0.724374	0.452534
C42	C	1.120626	-0.697121	0.405003
C43	C	1.073173	-0.724468	0.357489
C44	C	0.978255	-0.779161	0.262458
C45	C	0.978234	-0.724554	0.262452
C46	C	1.025691	-0.697206	0.309970
C47	C	1.025679	-0.642615	0.309941
N48	N	1.073127	-0.615265	0.357462
C49	C	1.120601	-0.642517	0.404993
C50	C	1.025818	-0.975690	0.310025
C51	C	1.025846	-1.030293	0.310031
C52	C	1.120773	-1.030195	0.405086
C53	C	1.120748	-0.975592	0.405075
C54	C	1.073266	-0.948340	0.357545
C55	C	1.120553	-0.527852	0.404954
C56	C	1.120530	-0.473247	0.404932
C57	C	1.025601	-0.473349	0.309880
C58	C	1.025627	-0.527950	0.309900
C59	C	1.073105	-0.555200	0.357443
O60	O	0.985341	-0.614373	0.269523
O61	O	1.160944	-0.614233	0.445410
C62	C	1.266844	-0.252074	0.357427
C63	C	1.349390	-0.252089	0.357414
C64	C	1.073167	-0.252014	0.551165
C65	C	1.073180	-0.252004	0.633710
C66	C	1.073264	-0.115664	0.357534
C67	C	1.073317	-0.057550	0.357565
C68	C	1.073152	-0.252023	0.164507
C69	C	1.073284	-0.251885	0.081962
C70	C	1.023579	-0.286871	0.833150
C71	C	1.091333	-0.299661	0.882520
C72	C	1.073216	-0.251965	0.784841
C73	C	1.005500	-0.239161	0.882553
C74	C	1.073246	-0.251927	0.930826
C75	C	1.141006	-0.264779	0.833124
C76	C	1.055127	-0.204257	0.833152
C77	C	1.122927	-0.217028	0.882499
C78	C	1.073199	-0.251988	0.700743
C79	C	1.073271	-0.251904	1.014923
H80	H	0.619845	-0.316554	0.448904
H81	H	1.039789	-0.163939	0.811450
C82	C	0.519515	-0.354208	0.318315
N83	N	0.497451	-0.395244	0.302588
H84	H	0.619815	-0.163992	0.391325
H85	H	1.198302	-0.275639	0.811503
C86	C	1.179716	-0.177126	0.911590
N87	N	1.222492	-0.147075	0.933502
C88	C	0.519786	-0.177041	0.251384
N89	N	0.497880	-0.146911	0.208776
C90	C	0.973379	-0.443361	0.257602
N91	N	0.934041	-0.420771	0.218230
C92	C	1.172951	-0.945515	0.457351
N93	N	1.212271	-0.922863	0.496729
H94	H	0.987210	-1.052554	0.271329
H95	H	0.619961	-0.275508	0.232401
H96	H	0.987155	-0.953504	0.271314
H97	H	0.939611	-0.801418	0.223763
H98	H	1.106652	-0.339990	0.904206
H99	H	0.948221	-0.228347	0.904265
C100	C	1.172741	-0.443168	0.457205
N101	N	1.212065	-0.420514	0.496577
H102	H	1.159210	-0.550033	0.443674
H103	H	1.206741	-0.702111	0.491230
H104	H	0.527086	-0.228597	0.482591
H105	H	1.206779	-0.801158	0.491261
C106	C	0.926000	-0.694580	0.210162
N107	N	0.886660	-0.672005	0.170777
C108	C	1.172990	-1.060184	0.457377
N109	N	1.212316	-1.082773	0.496761
H110	H	0.981643	-0.316429	0.811482
C111	C	0.973426	-0.558033	0.257624
N112	N	0.934102	-0.580688	0.218254
