data_functionalizedCrystal
_audit_creation_method	'MofGen! by Chris Wilmer'
_symmetry_space_group_name_H-M	'P1'
_symmetry_Int_Tables_number	1
_symmetry_cell_setting	triclinic
loop_
_symmetry_equiv_pos_as_xyz
  x,y,z
_cell_length_a	19.121063
_cell_length_b	16.120530
_cell_length_c	16.120297
_cell_angle_alpha	89.871860
_cell_angle_beta	84.820568
_cell_angle_gamma	89.687057
loop_
_atom_site_label
_atom_site_type_symbol
_atom_site_fract_x
_atom_site_fract_y
_atom_site_fract_z
Zn1	Zn	-0.355748	1.228532	0.551587
Zn2	Zn	-0.467532	1.229542	0.417878
Zn3	Zn	-0.343883	1.097153	0.404937
Zn4	Zn	-0.466885	1.083532	0.549816
O5	O	-0.408512	1.159690	0.481054
O6	O	-0.375813	1.344754	0.540007
O7	O	-0.446434	1.218103	0.299571
O8	O	-0.247198	1.119859	0.419716
O9	O	-0.457940	1.345496	0.441771
O10	O	-0.255916	1.216382	0.527458
O11	O	-0.355590	1.120838	0.290063
O12	O	-0.354963	0.979258	0.417999
O13	O	-0.456838	1.096644	0.666641
O14	O	-0.445332	0.969251	0.524441
O15	O	-0.375186	1.203175	0.667942
O16	O	-0.565705	1.204895	0.440054
O17	O	-0.565230	1.097623	0.536989
C18	C	-0.398790	0.944155	0.469624
C19	C	-0.394649	0.851946	0.464754
C20	C	-0.387072	0.683119	0.455870
C21	C	-0.430006	0.637096	0.506302
C22	C	-0.425790	0.543155	0.501358
C23	C	-0.391287	0.777068	0.460812
C24	C	-0.590946	1.149912	0.489753
C25	C	-0.668997	1.145804	0.493506
C26	C	-0.705893	1.199763	0.444847
C27	C	-0.779230	1.195904	0.448382
C28	C	-0.815670	1.138080	0.500573
C29	C	-0.778769	1.084118	0.549237
C30	C	-0.705433	1.087982	0.545706
C31	C	-1.037085	1.123621	0.513761
C32	C	-1.110426	1.119760	0.517287
C33	C	-1.110882	1.231547	0.416433
C34	C	-1.037545	1.235403	0.412903
C35	C	-1.000650	1.181443	0.461570
C36	C	-0.890632	1.134132	0.504185
C37	C	-0.925690	1.185396	0.457962
C38	C	-0.225367	1.169527	0.472341
C39	C	-0.147322	1.173720	0.468628
C40	C	-0.417263	1.148278	0.698367
C41	C	-0.420993	1.143414	0.790973
C42	C	-0.418272	1.376067	0.492530
C43	C	-0.422431	1.468274	0.497420
C44	C	-0.399746	1.171108	0.264587
C45	C	-0.395826	1.176143	0.171981
C46	C	-0.427785	1.134506	0.960523
C47	C	-0.389036	1.185049	1.002436
C48	C	-0.392815	1.180092	1.096780
C49	C	-0.424006	1.139461	0.866171
H50	H	-0.676228	1.246846	0.402345
C51	C	-0.483958	0.679171	0.569621
H52	H	-0.479762	0.737706	0.564666
H53	H	-0.475410	0.662651	0.624414
H54	H	-0.529998	0.663126	0.558825
C55	C	-0.476436	1.071029	1.007755
H56	H	-0.500251	1.039964	0.969053
H57	H	-0.509790	1.099377	1.044851
H58	H	-0.449276	1.034574	1.038499
H59	H	-0.347152	0.651970	0.408986
H60	H	-0.809268	1.239843	0.408758
C61	C	-0.340391	1.248541	0.955204
H62	H	-0.316575	1.279599	0.993910
H63	H	-0.367552	1.284988	0.924462
H64	H	-0.307027	1.220199	0.918108
C65	C	-0.997467	1.299013	0.355499
H66	H	-1.029945	1.330603	0.327030
H67	H	-0.966001	1.270724	0.316115
H68	H	-0.971736	1.334969	0.387944
C69	C	-0.818850	1.020512	0.606643
H70	H	-0.867810	1.025932	0.601771
H71	H	-0.809604	1.030299	0.662695
H72	H	-0.803868	0.966055	0.590864
C73	C	-1.151468	1.290902	0.362910
H74	H	-1.200363	1.280327	0.372491
H75	H	-1.136678	1.282382	0.305702
H76	H	-1.142408	1.346625	0.377532
H77	H	-1.140094	1.072682	0.559802
H78	H	-1.007051	1.079684	0.553387
H79	H	-0.675393	1.044044	0.585330
H80	H	-0.896019	1.232479	0.415471
H81	H	-0.920309	1.087051	0.546677
