data_functionalizedCrystal
_audit_creation_method	'MofGen! by Chris Wilmer'
_symmetry_space_group_name_H-M	'P1'
_symmetry_Int_Tables_number	1
_symmetry_cell_setting	triclinic
loop_
_symmetry_equiv_pos_as_xyz
  x,y,z
_cell_length_a	23.532407
_cell_length_b	23.532407
_cell_length_c	22.610064
_cell_angle_alpha	90.000603
_cell_angle_beta	89.997161
_cell_angle_gamma	97.151322
loop_
_atom_site_label
_atom_site_type_symbol
_atom_site_fract_x
_atom_site_fract_y
_atom_site_fract_z
O1	O	0.755263	-0.069127	-0.049117
O2	O	0.589400	-0.079130	-0.049135
O3	O	0.677333	0.008803	-0.049114
O4	O	0.667330	-0.157060	-0.049137
O5	O	0.677318	0.008790	0.049255
O6	O	0.589385	-0.079143	0.049234
O7	O	0.755248	-0.069140	0.049252
Zn8	Zn	0.672314	-0.074144	0.064862
Zn9	Zn	0.672334	-0.074127	-0.064744
O10	O	0.667315	-0.157073	0.049232
C11	C	0.568176	-0.078882	0.000048
C12	C	0.504959	-0.078116	0.000041
C13	C	0.105856	-0.125350	0.000061
C14	C	0.046456	-0.124638	0.000065
O15	O	0.009711	-0.168424	0.000081
N16	N	0.023830	-0.072362	0.000071
C17	C	0.060607	-0.020794	0.000080
O18	O	0.035908	0.023737	0.000086
C19	C	0.120006	-0.021506	0.000080
C20	C	0.142629	-0.073785	0.000068
C21	C	0.128479	-0.177625	0.000050
C22	C	0.187876	-0.178336	0.000045
C23	C	0.224649	-0.126772	0.000052
C24	C	0.202025	-0.074497	0.000063
C25	C	0.156783	0.030062	0.000093
C26	C	0.216185	0.029345	0.000094
C27	C	0.238808	-0.022934	0.000082
C28	C	0.298194	-0.023643	0.000065
N29	N	0.320820	-0.075920	0.000059
C30	C	0.284048	-0.127484	0.000052
C31	C	-0.064135	-0.019302	0.000080
C32	C	-0.123533	-0.018589	0.000075
C33	C	-0.137680	-0.122434	0.000061
C34	C	-0.078281	-0.123146	0.000062
C35	C	-0.041509	-0.071578	0.000074
C36	C	0.408784	-0.128974	0.000042
C37	C	0.468186	-0.129680	0.000034
C38	C	0.482329	-0.025836	0.000051
C39	C	0.422932	-0.025129	0.000055
C40	C	0.386160	-0.076702	0.000052
O41	O	0.334974	0.020119	0.000052
O42	O	0.308755	-0.172007	0.000054
C43	C	0.677071	0.030013	0.000072
C44	C	0.676305	0.093230	0.000076
C45	C	0.776472	-0.069388	0.000069
C46	C	0.839689	-0.070154	0.000071
C47	C	0.667577	-0.178283	0.000045
C48	C	0.668343	-0.241500	0.000036
N49	N	0.672304	-0.074155	0.153314
C50	C	0.723539	0.492333	0.000049
C51	C	0.722827	0.551733	0.000044
O52	O	0.766613	0.588478	0.000027
N53	N	0.670551	0.574359	0.000039
C54	C	0.618983	0.537582	0.000032
O55	O	0.574452	0.562281	0.000027
C56	C	0.619695	0.478182	0.000033
C57	C	0.671974	0.455560	0.000044
C58	C	0.775814	0.469710	0.000060
C59	C	0.776525	0.410313	0.000065
C60	C	0.724961	0.373540	0.000060
C61	C	0.672685	0.396164	0.000050
C62	C	0.568127	0.441406	0.000022
C63	C	0.568844	0.382004	0.000021
C64	C	0.621123	0.359381	0.000033
C65	C	0.621832	0.299995	0.000050
N66	N	0.674109	0.277368	0.000056
C67	C	0.725673	0.314141	0.000061
C68	C	0.617491	0.662324	0.000031
C69	C	0.616778	0.721722	0.000034
C70	C	0.720623	0.735869	0.000045
C71	C	0.721335	0.676470	0.000046
C72	C	0.669767	0.639698	0.000036
C73	C	0.727163	0.189405	0.000073
C74	C	0.727869	0.130003	0.000081
C75	C	0.624025	0.115860	0.000067
C76	C	0.623318	0.175257	0.000062
C77	C	0.674891	0.212029	0.000063
O78	O	0.578070	0.263215	0.000065
O79	O	0.770196	0.289433	0.000058
N80	N	0.672349	-0.074111	-0.153196
C81	C	0.711273	-0.035196	0.561965
C82	C	0.711276	-0.035192	0.623884
O83	O	0.744384	-0.002076	0.655911
N84	N	0.672334	-0.074115	0.654851
C85	C	0.633383	-0.113041	0.623895
O86	O	0.600259	-0.146147	0.655920
C87	C	0.633377	-0.113042	0.561976
C88	C	0.672326	-0.074120	0.531013
C89	C	0.750218	0.003724	0.531001
C90	C	0.750215	0.003719	0.469085
C91	C	0.711268	-0.035206	0.438133
C92	C	0.672323	-0.074125	0.469097
C93	C	0.594424	-0.151965	0.531021
C94	C	0.594422	-0.151962	0.469098
C95	C	0.633370	-0.113040	0.438134
C96	C	0.633374	-0.113054	0.376229
N97	N	0.672316	-0.074131	0.345262
C98	C	0.711263	-0.035207	0.376214
C99	C	0.633396	-0.113035	0.753928
C100	C	0.633403	-0.113037	0.815846
C101	C	0.711296	-0.035187	0.815831
C102	C	0.711291	-0.035188	0.753913
C103	C	0.672338	-0.074112	0.722962
C104	C	0.711255	-0.035220	0.246187
C105	C	0.711251	-0.035230	0.184266
C106	C	0.633357	-0.113078	0.184286
C107	C	0.633363	-0.113071	0.246202
C108	C	0.672314	-0.074137	0.277151
O109	O	0.600281	-0.146152	0.344163
O110	O	0.744376	-0.002101	0.344182
H111	H	0.486602	-0.172255	0.000024
H112	H	0.525555	0.459814	0.000009
H113	H	-0.059867	-0.165717	0.000055
C114	C	0.552104	-0.194131	0.564702
C115	C	0.517426	-0.163966	0.600260
C116	C	0.478435	-0.202791	0.631299
H117	H	0.528854	-0.217322	0.537458
H118	H	0.572431	-0.217733	0.588890
H119	H	0.497100	-0.140373	0.576073
H120	H	0.540659	-0.140777	0.627514
H121	H	0.498762	-0.226394	0.655487
H122	H	0.455190	-0.225981	0.604051
H123	H	0.454905	-0.182331	0.655432
H124	H	0.742973	-0.003516	0.271379
C125	C	0.088589	-0.233633	-0.000083
C126	C	0.098774	-0.265109	-0.050707
C127	C	0.062037	-0.316707	-0.050859
H128	H	0.095383	-0.255158	0.034175
H129	H	0.049960	-0.225757	-0.000116
H130	H	0.137393	-0.272987	-0.050669
H131	H	0.091976	-0.243601	-0.084973
H132	H	0.023409	-0.308830	-0.050891
H133	H	0.068834	-0.338226	-0.016599
H134	H	0.068939	-0.338067	-0.085209
H135	H	0.601648	-0.144772	0.159075
H136	H	0.819097	0.391900	0.000072
C137	C	0.568000	0.075994	-0.000035
C138	C	0.536509	0.086181	-0.050645
C139	C	0.484894	0.049471	-0.050761
H140	H	0.575836	0.037361	-0.000064
H141	H	0.546507	0.082825	0.034245
H142	H	0.557999	0.079346	-0.084916
H143	H	0.528658	0.124808	-0.050627
H144	H	0.463400	0.056301	-0.016481
H145	H	0.492735	0.010839	-0.050788
H146	H	0.463519	0.056381	-0.085096
H147	H	0.742969	-0.003535	0.159057
C148	C	0.368800	-0.184924	-0.000059
C149	C	0.334278	-0.187537	-0.050659
C150	C	0.297433	-0.239066	-0.050772
H151	H	0.390716	-0.216203	-0.000098
H152	H	0.345299	-0.186821	0.034228
H153	H	0.357776	-0.185646	-0.084937
H154	H	0.312350	-0.156270	-0.050631
H155	H	0.273931	-0.240963	-0.016486
H156	H	0.319353	-0.270340	-0.050810
H157	H	0.274001	-0.240843	-0.085101
C158	C	0.212517	-0.235053	0.000120
C159	C	0.246218	-0.238504	0.050715
C160	C	0.268932	-0.290741	0.050797
H161	H	0.182167	-0.265710	0.000144
H162	H	0.235426	-0.237485	-0.034170
H163	H	0.223311	-0.236077	0.084996
H164	H	0.276578	-0.207859	0.050701
H165	H	0.291840	-0.293173	0.016508
H166	H	0.238578	-0.321394	0.050820
H167	H	0.291805	-0.293087	0.085123
H168	H	0.246123	0.071339	0.000104
H169	H	0.781929	0.035414	0.443878
H170	H	0.601677	-0.144736	0.728731
C171	C	0.784692	0.105553	0.000060
C172	C	0.829695	0.150475	0.000046
C173	C	0.882046	0.127976	0.000017
H174	H	0.787207	0.082687	0.034356
H175	H	0.787165	0.082690	-0.034255
H176	H	0.827224	0.173328	0.034357
H177	H	0.827199	0.173345	-0.034248
H178	H	0.884519	0.105113	-0.034298
H179	H	0.884555	0.105110	0.034314
H180	H	0.912587	0.158452	0.000001
C181	C	0.132312	0.086867	0.000020
C182	C	0.151050	0.118036	-0.050573
C183	C	0.128528	0.170375	-0.050654
H184	H	0.091672	0.079999	-0.000010
H185	H	0.144976	0.108102	0.034312
H186	H	0.138383	0.096806	-0.084856
H187	H	0.191687	0.124920	-0.050554
H188	H	0.141192	0.191610	-0.016362
H189	H	0.087888	0.163501	-0.050682
H190	H	0.141242	0.191531	-0.084978
C191	C	0.792445	0.045961	0.564706
C192	C	0.784117	0.037651	0.625562
C193	C	0.823008	0.076554	0.656625
H194	H	0.830439	0.040001	0.554618
H195	H	0.786473	0.083952	0.554590
H196	H	0.790094	-0.000331	0.635674
H197	H	0.746131	0.043615	0.635668
H198	H	0.817036	0.114545	0.646509
H199	H	0.860999	0.070591	0.646532
H200	H	0.817359	0.070925	0.697918
H201	H	0.743005	-0.003494	0.728706
C202	C	-0.177584	-0.178439	-0.000062
C203	C	-0.167418	-0.209928	-0.050682
C204	C	-0.204173	-0.261515	-0.050821
H205	H	-0.170793	-0.199961	0.034198
H206	H	-0.216208	-0.170548	-0.000091
H207	H	-0.128804	-0.217820	-0.050648
H208	H	-0.174213	-0.188423	-0.084951
H209	H	-0.242796	-0.253624	-0.050849
H210	H	-0.197378	-0.283032	-0.016558
H211	H	-0.197284	-0.282885	-0.085168
C212	C	0.753644	0.007104	0.849337
C213	C	0.787761	0.041185	0.808973
C214	C	0.826780	0.080142	0.839818
H215	H	0.733357	0.030761	0.873495
H216	H	0.777264	-0.013248	0.873478
H217	H	0.764143	0.061536	0.784842
H218	H	0.808060	0.017545	0.784813
H219	H	0.850401	0.059789	0.863958
H220	H	0.806489	0.103794	0.863974
H221	H	0.849937	0.103267	0.812435
C222	C	0.783139	0.229349	-0.000044
C223	C	0.785788	0.263852	-0.050662
C224	C	0.837347	0.300651	-0.050789
H225	H	0.785071	0.252871	0.034218
H226	H	0.814386	0.207382	-0.000068
H227	H	0.754549	0.285818	-0.050632
H228	H	0.783866	0.240347	-0.084932
H229	H	0.868595	0.278683	-0.050813
H230	H	0.839275	0.324168	-0.016525
H231	H	0.839154	0.324061	-0.085135
C232	C	0.591056	-0.155326	0.849353
C233	C	0.556941	-0.189403	0.808986
C234	C	0.517916	-0.228359	0.839828
H235	H	0.611338	-0.178985	0.873509
H236	H	0.567434	-0.134973	0.873494
H237	H	0.580560	-0.209754	0.784854
H238	H	0.536647	-0.165759	0.784828
H239	H	0.494294	-0.208005	0.863969
H240	H	0.538202	-0.252014	0.863983
H241	H	0.494761	-0.251481	0.812443
C242	C	0.559958	0.746169	-0.000001
C243	C	0.514957	0.701244	-0.000019
C244	C	0.462605	0.723740	-0.000063
H245	H	0.557432	0.769040	0.034290
H246	H	0.557494	0.769027	-0.034321
H247	H	0.517420	0.678396	0.034298
H248	H	0.517464	0.678370	-0.034308
H249	H	0.460141	0.746598	-0.034383
H250	H	0.460085	0.746611	0.034229
H251	H	0.432065	0.693263	-0.000081
C252	C	-0.024307	0.036752	0.000052
C253	C	-0.056842	0.082680	0.000040
C254	C	-0.020176	0.134324	0.000007
H255	H	-0.000828	0.038716	0.034345
H256	H	-0.000849	0.038669	-0.034267
H257	H	-0.080290	0.080764	0.034355
H258	H	-0.080319	0.080735	-0.034250
H259	H	0.003282	0.136241	-0.034312
H260	H	0.003301	0.136282	0.034300
H261	H	-0.042245	0.165492	-0.000007
C262	C	0.831865	0.509534	0.000098
C263	C	0.877790	0.476996	0.000122
C264	C	0.929437	0.513658	0.000171
H265	H	0.833842	0.533016	-0.034194
H266	H	0.833773	0.532990	0.034417
H267	H	0.875883	0.453550	-0.034194
H268	H	0.875833	0.453515	0.034412
H269	H	0.931345	0.537113	0.034490
H270	H	0.931408	0.537138	-0.034122
H271	H	0.960603	0.491586	0.000193
H272	H	-0.141947	0.023982	0.000076
H273	H	0.562700	-0.183658	0.443901
C274	C	0.512792	0.342174	0.000041
C275	C	0.466861	0.374706	0.000045
C276	C	0.415219	0.338036	0.000072
H277	H	0.510836	0.318694	-0.034252
H278	H	0.510870	0.318718	0.034360
H279	H	0.468782	0.398152	-0.034270
H280	H	0.468798	0.398185	0.034336
H281	H	0.413297	0.314580	0.034391
H282	H	0.413269	0.314557	-0.034221
H283	H	0.384049	0.360103	0.000080
H284	H	0.404512	0.017441	0.000056
C285	C	0.591012	-0.155353	0.279716
C286	C	0.556894	-0.189432	0.239353
C287	C	0.517863	-0.228378	0.270200
H288	H	0.611289	-0.179011	0.303879
H289	H	0.567392	-0.134992	0.303853
H290	H	0.580511	-0.209792	0.215227
H291	H	0.536605	-0.165789	0.215190
H292	H	0.494243	-0.208017	0.294337
H293	H	0.538145	-0.252032	0.294362
H294	H	0.494706	-0.251502	0.242819
H295	H	0.512280	0.016146	0.000054
C296	C	0.561542	0.622335	0.000121
C297	C	0.558912	0.587811	0.050723
C298	C	0.507385	0.550964	0.050821
H299	H	0.530262	0.644249	0.000149
H300	H	0.559657	0.598834	-0.034164
H301	H	0.560791	0.611308	0.084999
H302	H	0.590180	0.565884	0.050706
H303	H	0.505500	0.527464	0.016536
H304	H	0.476109	0.572883	0.050847
H305	H	0.505597	0.527532	0.085151
C306	C	0.566601	0.199903	-0.000037
C307	C	0.563174	0.233595	-0.050645
C308	C	0.510938	0.256310	-0.050758
H309	H	0.535943	0.169553	-0.000067
H310	H	0.564154	0.222818	0.034244
H311	H	0.565615	0.210681	-0.084917
H312	H	0.593820	0.263954	-0.050625
H313	H	0.508491	0.279226	-0.016477
H314	H	0.480284	0.225957	-0.050787
H315	H	0.508608	0.279177	-0.085092
H316	H	0.763906	0.658056	0.000054
H317	H	0.762610	0.765821	0.000047
