data_functionalizedCrystal
_audit_creation_method	'MofGen! by Chris Wilmer'
_symmetry_space_group_name_H-M	'P1'
_symmetry_Int_Tables_number	1
_symmetry_cell_setting	triclinic
loop_
_symmetry_equiv_pos_as_xyz
  x,y,z
_cell_length_a	12.759401
_cell_length_b	13.897447
_cell_length_c	12.759393
_cell_angle_alpha	89.969000
_cell_angle_beta	89.979062
_cell_angle_gamma	90.021055
loop_
_atom_site_label
_atom_site_type_symbol
_atom_site_fract_x
_atom_site_fract_y
_atom_site_fract_z
Zn1	Zn	1.606231	-0.383929	-0.594016
Zn2	Zn	1.606107	-0.545255	-0.418335
Zn3	Zn	1.430530	-0.383980	-0.418352
Zn4	Zn	1.430507	-0.545188	-0.593972
O5	O	1.518344	-0.464588	-0.506169
O6	O	1.753236	-0.405336	-0.570723
O7	O	1.582774	-0.523912	-0.271316
O8	O	1.453898	-0.248992	-0.441679
O9	O	1.753145	-0.523862	-0.441651
O10	O	1.582985	-0.248954	-0.570740
O11	O	1.453778	-0.405423	-0.271328
O12	O	1.283506	-0.405358	-0.441636
O13	O	1.453859	-0.523747	-0.740999
O14	O	1.283489	-0.523797	-0.570664
O15	O	1.582963	-0.405271	-0.741032
O16	O	1.582752	-0.680228	-0.441608
O17	O	1.453739	-0.680179	-0.570648
C18	C	1.245376	-0.464576	-0.506148
C19	C	1.128600	-0.464595	-0.506164
C20	C	1.073757	-0.526359	-0.573243
C21	C	0.964033	-0.526363	-0.573264
C22	C	0.964005	-0.402834	-0.439118
C23	C	1.073727	-0.402827	-0.439103
C24	C	1.518258	-0.715203	-0.506144
C25	C	1.518318	-0.822416	-0.506169
C26	C	1.518369	-0.909486	-0.506193
C27	C	1.518442	-1.018719	-0.506220
C28	C	1.792377	-0.464601	-0.506190
C29	C	1.909154	-0.464606	-0.506200
C30	C	1.518422	-0.464496	-0.780202
C31	C	1.518456	-0.464456	-0.896979
C32	C	1.518458	-0.212995	-0.506216
C33	C	1.518507	-0.105781	-0.506236
C34	C	1.585685	-0.402756	-0.951860
C35	C	1.585703	-0.402714	-1.061584
C36	C	1.451259	-0.526082	-1.061537
C37	C	1.451237	-0.526118	-0.951815
C38	C	1.518326	-0.464611	-0.233201
C39	C	1.518496	-0.464379	-0.116425
H40	H	1.118381	-0.352524	-0.384479
O41	O	1.651006	-0.342763	-0.898754
C42	C	1.710364	-0.288312	-0.970727
H43	H	1.667347	-0.284946	-1.048934
H44	H	1.721599	-0.212323	-0.939044
H45	H	1.790143	-0.323634	-0.982403
H46	H	1.118431	-0.576652	-0.627851
O47	O	0.910643	-0.586411	-0.638276
C48	C	0.847141	-0.648663	-0.578351
H49	H	0.830670	-0.614553	-0.498800
H50	H	0.770003	-0.661643	-0.621134
H51	H	0.889397	-0.720130	-0.566661
H52	H	0.919314	-0.352547	-0.384517
O53	O	1.650860	-0.342673	-1.114938
C54	C	1.591087	-0.280358	-1.178421
H55	H	1.508336	-0.274410	-1.145342
H56	H	1.629120	-0.206127	-1.179678
H57	H	1.587471	-0.310146	-1.261574
H58	H	1.396534	-0.576287	-1.106198
H59	H	1.396483	-0.576361	-0.907130
