data_functionalizedCrystal
_audit_creation_method	'MofGen! by Chris Wilmer'
_symmetry_space_group_name_H-M	'P1'
_symmetry_Int_Tables_number	1
_symmetry_cell_setting	triclinic
loop_
_symmetry_equiv_pos_as_xyz
  x,y,z
_cell_length_a	14.395555
_cell_length_b	14.395555
_cell_length_c	14.395555
_cell_angle_alpha	60.002398
_cell_angle_beta	90.002267
_cell_angle_gamma	59.996096
loop_
_atom_site_label
_atom_site_type_symbol
_atom_site_fract_x
_atom_site_fract_y
_atom_site_fract_z
Zr1	Zr	0.894867	1.016770	-0.121863
O2	O	0.746526	1.210577	-0.270197
O3	O	0.940349	0.822966	-0.076389
O4	O	0.940340	1.016760	-0.270184
O5	O	0.746534	1.016789	0.076465
O6	O	1.093215	1.016751	-0.270175
O7	O	0.746535	1.016782	-0.076402
O8	O	1.093232	0.670087	0.076488
O9	O	0.746517	1.363452	-0.270198
O10	O	1.073827	0.902672	-0.056990
O11	O	0.959737	0.902685	0.057086
O12	O	0.959726	1.130853	-0.171082
O13	O	0.845636	1.130866	-0.057005
Zr14	Zr	1.138684	1.016765	0.121957
Zr15	Zr	1.138686	1.016754	-0.121849
Zr16	Zr	0.894865	1.016781	0.121943
Zr17	Zr	0.894854	1.260589	-0.121865
Zr18	Zr	1.138698	0.772946	0.121959
O19	O	1.093202	1.210570	0.076483
O20	O	1.093205	1.210554	-0.270177
O21	O	0.746523	1.210592	0.076463
O22	O	1.287026	0.822959	0.270291
O23	O	1.287028	0.822943	-0.076369
O24	O	0.940347	0.822981	0.270271
O25	O	1.287018	1.016747	-0.076371
O26	O	1.093211	1.016775	0.270278
O27	O	0.940336	1.016785	0.270269
O28	O	1.287016	1.016754	0.076496
O29	O	0.940321	1.363440	-0.270187
O30	O	1.093231	0.670096	0.270281
O31	O	1.287034	0.670083	0.270292
O32	O	1.287036	0.670074	0.076499
O33	O	0.746516	1.363461	-0.076406
O34	O	0.940319	1.363448	-0.076395
O35	O	1.073825	0.902682	0.171176
O36	O	1.187916	0.902670	0.057099
O37	O	1.073814	1.130851	-0.056993
O38	O	0.959724	1.130863	0.057084
C39	C	1.016793	0.711787	0.000050
C40	C	1.016798	0.608280	0.000051
C41	C	1.078995	0.547694	-0.062159
C42	C	1.124076	0.409588	0.045111
C43	C	0.971723	0.561952	-0.107207
C44	C	1.061943	0.471473	0.107385
C45	C	0.909530	0.623911	-0.045011
C46	C	0.954585	0.485813	0.062323
C47	C	0.711795	1.016787	0.000030
C48	C	0.608288	1.016794	0.000024
C49	C	0.423587	1.141185	-0.062162
C50	C	0.516620	1.079025	0.045095
C51	C	0.516614	1.078987	-0.107213
C52	C	0.516934	0.954580	0.107390
C53	C	0.516913	0.954559	-0.044995
C54	C	0.609963	0.892308	0.062326
C55	C	1.321756	1.016748	0.000064
C56	C	1.425263	1.016741	0.000070
C57	C	1.016778	1.016754	-0.304917
C58	C	1.016779	1.016749	-0.408418
C59	C	1.016759	1.321748	0.000044
C60	C	1.016753	1.425256	0.000043
C61	C	1.078997	0.892335	-0.406799
C62	C	0.971717	0.954535	-0.499828
C63	C	1.124033	0.954554	-0.499818
C64	C	0.909435	1.078950	-0.500084
C65	C	1.061829	1.078951	-0.500060
C66	C	0.954484	1.141242	-0.593106
C67	C	1.016773	1.016781	0.305010
C68	C	1.016773	1.016786	0.408512
C69	C	1.321773	0.711768	0.000067
C70	C	1.425286	0.608253	0.000074
C71	C	1.016790	0.711801	0.305014
C72	C	1.016795	0.608298	0.408517
C73	C	1.321771	0.711781	0.305031
C74	C	1.425283	0.608272	0.408540
C75	C	0.711781	1.321754	-0.304937
C76	C	0.608268	1.425264	-0.408446
C77	C	0.711779	1.321768	0.000026
C78	C	0.608265	1.425282	0.000020
C79	C	1.016761	1.321734	-0.304920
C80	C	1.016756	1.425237	-0.408423
C81	C	1.548085	0.547690	0.062251
C82	C	1.578954	0.409576	0.107307
C83	C	1.578852	0.561980	-0.045032
C84	C	1.454791	0.471440	0.045193
C85	C	1.454693	0.623918	-0.107206
C86	C	1.485489	0.485813	-0.062177
C87	C	0.954590	0.547715	0.406899
C88	C	1.061878	0.409605	0.499925
C89	C	0.909553	0.561954	0.499922
C90	C	1.124147	0.471489	0.500179
C91	C	0.971744	0.623911	0.500161
C92	C	1.079096	0.485811	0.593204
C93	C	1.423671	0.547666	0.531329
C94	C	1.516671	0.409560	0.562129
C95	C	1.516731	0.561838	0.562167
C96	C	1.516920	0.471467	0.437976
C97	C	1.516965	0.623819	0.438017
C98	C	1.609982	0.485722	0.468744
H99	H	1.214774	0.317953	0.083227
O100	O	0.515718	0.884936	-0.095516
H101	H	0.592999	0.782243	-0.044732
H102	H	0.902064	0.574800	0.327138
O103	O	0.317892	1.280516	-0.131739
H104	H	0.317022	1.331875	-0.094088
H105	H	0.689625	0.787032	0.115007
O106	O	1.244355	0.421947	0.499100
H107	H	1.243395	0.499695	0.421695
O108	O	1.515805	0.422000	0.367255
H109	H	1.592670	0.320026	0.409477
O110	O	0.517737	1.148708	0.095589
H111	H	0.518801	1.233520	0.031773
H112	H	0.516156	0.901995	0.198144
O113	O	1.244179	0.884874	-0.501023
H114	H	1.304101	0.849335	-0.423781
O115	O	1.112576	0.421920	0.227591
H116	H	1.112244	0.499658	0.226646
O117	O	0.789405	0.745292	-0.095489
H118	H	0.790454	0.821238	-0.094241
O119	O	0.884912	0.449993	0.132095
H120	H	0.922558	0.411623	0.221052
H121	H	1.131674	0.574770	-0.114676
H122	H	0.933622	0.599149	-0.197911
H123	H	0.517488	1.131601	-0.197923
O124	O	1.384148	0.421873	0.095807
H125	H	1.426410	0.319915	0.120871
H126	H	0.933605	0.901957	-0.500761
H127	H	1.131525	0.787134	-0.327035
H128	H	1.573524	0.574763	0.114939
H129	H	1.689616	0.458675	0.443092
H130	H	1.099966	1.131484	-0.499084
H131	H	0.818686	1.131498	-0.499268
O132	O	1.649906	0.288168	0.227413
H133	H	1.676782	0.313074	0.278898
H134	H	0.901792	1.246532	-0.672738
O135	O	1.451492	0.450057	-0.131894
H136	H	1.400909	0.411684	-0.094258
O137	O	1.383754	0.745351	-0.227293
H138	H	1.434413	0.783771	-0.264518
O139	O	1.649676	0.611310	-0.095530
H140	H	1.676517	0.635919	-0.043726
O141	O	1.112379	0.288223	0.501177
H142	H	1.060589	0.313142	0.424781
H143	H	1.131786	0.458781	0.672835
H144	H	1.517720	0.598871	0.615796
O145	O	0.921222	0.745322	0.498857
H146	H	0.832145	0.783711	0.497687
H147	H	1.517579	0.317952	0.615612
H148	H	1.343908	0.574768	0.556764
H149	H	0.818852	0.599134	0.500832
O150	O	1.515684	0.745209	0.367159
H151	H	1.514538	0.783562	0.417872
