data_functionalizedCrystal
_audit_creation_method	'MofGen! by Chris Wilmer'
_symmetry_space_group_name_H-M	'P1'
_symmetry_Int_Tables_number	1
_symmetry_cell_setting	triclinic
loop_
_symmetry_equiv_pos_as_xyz
  x,y,z
_cell_length_a	15.995350
_cell_length_b	19.188930
_cell_length_c	14.472310
_cell_angle_alpha	89.993787
_cell_angle_beta	89.990621
_cell_angle_gamma	83.318578
loop_
_atom_site_label
_atom_site_type_symbol
_atom_site_fract_x
_atom_site_fract_y
_atom_site_fract_z
O1	O	1.110667	0.089991	-0.076773
O2	O	0.866851	0.101105	-0.076794
O3	O	0.995795	-0.006090	-0.076765
O4	O	0.981723	0.197186	-0.076802
O5	O	0.995762	-0.006083	0.076917
O6	O	0.866818	0.101111	0.076888
O7	O	1.110634	0.089998	0.076909
Cu8	Cu	0.988723	0.095555	0.090931
Cu9	Cu	0.988762	0.095547	-0.090816
O10	O	0.981690	0.197192	0.076880
C11	C	0.835641	0.100648	0.000045
C12	C	0.742696	0.099271	0.000038
C13	C	0.404967	0.094324	0.000058
C14	C	0.452680	0.017982	0.000415
C15	C	0.549365	0.019360	0.000062
C16	C	0.572518	0.096778	0.000049
C17	C	0.531312	0.134429	-0.087714
C18	C	0.434683	0.132511	-0.087781
C19	C	0.434301	0.134095	0.086984
C20	C	0.531246	0.134077	0.088137
C21	C	0.667211	0.098169	0.000040
C22	C	0.310274	0.092936	0.000060
C23	C	0.995323	-0.032099	0.000079
C24	C	0.993955	-0.109607	0.000087
C25	C	1.069615	-0.154338	0.000097
C26	C	1.068330	-0.227165	0.000082
C27	C	0.991380	-0.255258	0.000075
C28	C	0.915710	-0.210517	0.000059
C29	C	0.916997	-0.137691	0.000065
N30	N	0.932550	-0.363410	0.052371
N31	N	0.931332	-0.432592	0.052368
C32	C	0.987497	-0.474676	0.000056
N33	N	1.044938	-0.444967	-0.052240
N34	N	1.046158	-0.375779	-0.052233
C35	C	0.989976	-0.334224	0.000069
C36	C	1.061769	-0.598375	0.000050
C37	C	1.060480	-0.671204	0.000029
C38	C	0.907859	-0.654553	0.000015
C39	C	0.909149	-0.581727	0.000027
C40	C	0.986106	-0.553643	0.000048
C41	C	1.141843	0.090454	0.000068
C42	C	1.234789	0.091831	0.000069
C43	C	0.982162	0.223201	0.000034
C44	C	0.983530	0.300709	0.000020
N45	N	0.988701	0.095560	0.218762
N46	N	0.988790	0.095537	-0.218647
C47	C	0.988761	0.095545	0.592853
C48	C	0.919535	0.152710	0.553672
C49	C	0.919694	0.152918	0.446584
C50	C	0.988731	0.095552	0.407262
C51	C	1.076037	0.111464	0.446103
C52	C	1.075648	0.111870	0.553224
C53	C	0.971460	0.022298	0.553394
C54	C	0.969454	0.022787	0.446266
C55	C	0.988719	0.095555	0.302374
C56	C	0.988778	0.095543	0.697741
H57	H	0.577889	-0.010236	0.062975
C58	C	1.096283	0.184040	0.586956
N59	N	1.111819	0.238402	0.612358
C60	C	1.154270	-0.123450	0.000113
N61	N	1.218034	-0.100184	0.000123
C62	C	0.825916	-0.532520	0.000020
N63	N	0.763220	-0.495458	0.000011
H64	H	0.845205	-0.677425	0.000005
H65	H	0.416490	0.105049	-0.153377
H66	H	1.128770	0.070935	0.420631
H67	H	0.402333	0.190382	0.087568
C68	C	0.832006	0.140124	0.411106
N69	N	0.765953	0.130491	0.384389
H70	H	0.402230	0.188560	-0.091773
C71	C	0.831567	0.140127	0.588527
N72	N	0.765307	0.130652	0.614792
C73	C	1.151565	-0.276379	0.000100
N74	N	1.214258	-0.313444	0.000116
C75	C	0.887321	0.001643	0.589924
N76	N	0.823943	-0.013906	0.617439
H77	H	0.558650	0.106592	0.153064
H78	H	0.853057	-0.233394	0.000052
H79	H	1.124432	-0.575508	0.000063
H80	H	0.434256	-0.012531	0.063354
H81	H	0.546404	0.190533	0.093428
C82	C	1.097187	0.182812	0.409849
N83	N	1.113111	0.236554	0.382547
C84	C	1.143717	-0.720409	0.000046
N85	N	1.206413	-0.757471	0.000063
C86	C	0.882690	0.006474	0.411979
N87	N	0.817337	-0.005810	0.386149
C88	C	0.833762	-0.088484	0.000056
N89	N	0.771067	-0.051421	0.000051
C90	C	0.934214	0.225729	0.590012
N91	N	0.945272	0.280726	0.617384
C92	C	0.934587	0.226349	0.411937
N93	N	0.945810	0.281659	0.385842
H94	H	1.128755	0.071875	0.579141
H95	H	0.433211	-0.012395	-0.062166
C96	C	0.587169	-0.020897	-0.085067
N97	N	0.615642	-0.051219	-0.149191
H98	H	1.016620	-0.021746	0.419504
H99	H	1.021946	-0.020242	0.578732
H100	H	0.545229	0.191306	-0.090987
H101	H	0.413843	0.109140	0.153506
C102	C	0.569786	0.099090	-0.175942
N103	N	0.598762	0.072469	-0.242393
