data_functionalizedCrystal
_audit_creation_method	'MofGen! by Chris Wilmer'
_symmetry_space_group_name_H-M	'P1'
_symmetry_Int_Tables_number	1
_symmetry_cell_setting	triclinic
loop_
_symmetry_equiv_pos_as_xyz
  x,y,z
_cell_length_a	14.971486
_cell_length_b	10.540539
_cell_length_c	14.048226
_cell_angle_alpha	89.995726
_cell_angle_beta	89.998499
_cell_angle_gamma	84.069810
loop_
_atom_site_label
_atom_site_type_symbol
_atom_site_fract_x
_atom_site_fract_y
_atom_site_fract_z
O1	O	1.187879	0.165423	-0.079046
O2	O	0.927591	0.185233	-0.079072
O3	O	1.063673	-0.009446	-0.079057
O4	O	1.051796	0.360102	-0.079061
O5	O	1.063657	-0.009457	0.079264
O6	O	0.927574	0.185221	0.079249
O7	O	1.187862	0.165412	0.079275
Zn8	Zn	1.057716	0.175315	0.104399
Zn9	Zn	1.057737	0.175330	-0.104196
O10	O	1.051780	0.360090	0.079260
C11	C	0.894253	0.184341	0.000085
C12	C	0.794940	0.181686	0.000076
C13	C	0.738360	0.296055	0.000076
C14	C	0.645046	0.293553	0.000090
C15	C	0.608315	0.176681	0.000097
C16	C	0.664903	0.062303	0.000100
C17	C	0.758215	0.064807	0.000092
C18	C	0.470412	0.057094	0.000113
C19	C	0.377093	0.054590	0.000119
C20	C	0.357242	0.285839	0.000111
C21	C	0.450554	0.288343	0.000103
C22	C	0.507136	0.173965	0.000104
C23	C	1.062774	-0.056745	0.000101
C24	C	1.060109	-0.197662	0.000096
C25	C	0.958001	-0.379931	-0.000269
C26	C	0.960702	-0.233343	0.000087
C27	C	1.107939	-0.259870	0.090510
C28	C	1.104547	-0.406376	0.090586
C29	C	1.106587	-0.406904	-0.089455
C30	C	1.107503	-0.259932	-0.090650
C31	C	1.221200	0.166303	0.000115
C32	C	1.320512	0.168958	0.000119
C33	C	1.052679	0.407389	0.000099
C34	C	1.055344	0.548307	0.000099
N35	N	1.057707	0.175303	0.246760
N36	N	1.057753	0.175331	-0.246557
C37	C	1.117984	0.089135	0.296584
C38	C	1.117990	0.089135	0.396242
C39	C	1.057723	0.175309	0.446073
C40	C	0.997440	0.261481	0.396242
C41	C	0.997430	0.261475	0.296586
C42	C	0.997466	0.261491	0.603956
C43	C	0.997476	0.261499	0.703619
C44	C	1.118025	0.089150	0.703612
C45	C	1.118016	0.089144	0.603956
C46	C	1.057733	0.175318	0.554132
H47	H	0.768258	0.391225	0.000069
H48	H	1.167071	0.018969	0.436808
H49	H	0.347191	-0.040578	0.000126
Br50	Br	1.199814	-0.027795	0.536324
Br51	Br	1.226260	-0.486973	-0.090459
Br52	Br	1.199839	-0.027793	0.771234
Br53	Br	0.897974	-0.161608	-0.107938
H54	H	0.480457	0.383510	0.000088
Br55	Br	0.835005	-0.090414	0.000100
Br56	Br	0.915648	0.378438	0.536340
H57	H	0.948400	0.331670	0.744186
Br58	Br	0.897505	-0.163025	0.108277
H59	H	1.167064	0.018968	0.256018
Br60	Br	1.049672	-0.190343	-0.202151
H61	H	1.074421	-0.438087	-0.157982
H62	H	0.948365	0.331642	0.436820
Br63	Br	1.045604	-0.452723	0.203220
H64	H	0.948346	0.331640	0.256020
H65	H	0.918739	-0.408080	-0.065107
Br66	Br	1.223700	-0.487686	0.097446
H67	H	0.598981	0.386683	0.000089
H68	H	0.918886	-0.409699	0.064198
H69	H	0.634990	-0.032856	0.000119
H70	H	0.516479	-0.036045	0.000115
Br71	Br	1.228302	-0.220924	-0.099748
Br72	Br	1.052543	-0.188253	0.202646
Br73	Br	1.229616	-0.224001	0.096130
Br74	Br	0.280454	0.441067	0.000108
