data_functionalizedCrystal
_audit_creation_method	'MofGen! by Chris Wilmer'
_symmetry_space_group_name_H-M	'P1'
_symmetry_Int_Tables_number	1
_symmetry_cell_setting	triclinic
loop_
_symmetry_equiv_pos_as_xyz
  x,y,z
_cell_length_a	13.897449
_cell_length_b	16.120484
_cell_length_c	16.120297
_cell_angle_alpha	95.614431
_cell_angle_beta	92.879352
_cell_angle_gamma	92.926780
loop_
_atom_site_label
_atom_site_type_symbol
_atom_site_fract_x
_atom_site_fract_y
_atom_site_fract_z
Zn1	Zn	1.424987	-0.356719	-0.489429
Zn2	Zn	1.924987	0.143281	0.010571
Zn3	Zn	1.424865	-0.489409	-0.356740
Zn4	Zn	1.924865	0.010591	0.143260
Zn5	Zn	1.272296	-0.349658	-0.349678
Zn6	Zn	1.772296	0.150342	0.150322
Zn7	Zn	1.255025	-0.496454	-0.496465
Zn8	Zn	1.755025	0.003546	0.003535
O9	O	1.344293	-0.423060	-0.423078
O10	O	1.844293	0.076940	0.076922
O11	O	1.559951	-0.374328	-0.471839
O12	O	2.059951	0.125672	0.028161
O13	O	1.411804	-0.464968	-0.238841
O14	O	1.911804	0.035032	0.261159
O15	O	1.299829	-0.233630	-0.362316
O16	O	1.799829	0.266370	0.137684
O17	O	1.559862	-0.471814	-0.374352
O18	O	2.059862	0.028186	0.125648
O19	O	1.412011	-0.238817	-0.464991
O20	O	1.912011	0.261183	0.035009
O21	O	1.299711	-0.362293	-0.233653
O22	O	1.799711	0.137707	0.266347
O23	O	1.135024	-0.369124	-0.369139
O24	O	1.635024	0.130876	0.130861
O25	O	1.270394	-0.483821	-0.612494
O26	O	1.770394	0.016179	-0.112494
O27	O	1.122336	-0.476974	-0.476983
O28	O	1.622336	0.023026	0.023017
O29	O	1.395264	-0.381159	-0.607325
O30	O	1.895264	0.118841	-0.107325
O31	O	1.395057	-0.607309	-0.381175
O32	O	1.895057	-0.107309	0.118825
O33	O	1.270276	-0.612484	-0.483830
O34	O	1.770276	-0.112484	0.016170
C35	C	1.093681	-0.423048	-0.423059
C36	C	1.593681	0.076952	0.076941
C37	C	0.986465	-0.423064	-0.423071
C38	C	1.486465	0.076936	0.076929
C39	C	0.790169	-0.423068	-0.423093
C40	C	1.290169	0.076932	0.076907
C41	C	0.899402	-0.423063	-0.423078
C42	C	1.399402	0.076937	0.076922
C43	C	1.330804	-0.640225	-0.434051
C44	C	1.830804	-0.140225	0.065949
C45	C	1.325120	-0.733131	-0.438773
C46	C	1.825120	-0.233131	0.061227
C47	C	1.314747	-0.903231	-0.447411
C48	C	1.814747	-0.403231	0.052589
C49	C	1.374011	-0.942049	-0.398759
C50	C	1.874011	-0.442049	0.101241
C51	C	1.368240	-1.036699	-0.403566
C52	C	1.868240	-0.536699	0.096434
C53	C	1.320518	-0.808573	-0.442606
C54	C	1.820518	-0.308573	0.057394
C55	C	1.595884	-0.423073	-0.423098
C56	C	2.095884	0.076927	0.076902
C57	C	1.703097	-0.423078	-0.423107
C58	C	2.203097	0.076922	0.076893
C59	C	1.330916	-0.434063	-0.641084
C60	C	1.830916	0.065937	-0.141084
C61	C	1.325216	-0.438752	-0.733985
C62	C	1.825216	0.061248	-0.233985
C63	C	1.357860	-0.205048	-0.412081
C64	C	1.857860	0.294952	0.087919
C65	C	1.363641	-0.112144	-0.407395
C66	C	1.863641	0.387856	0.092605
C67	C	1.314774	-0.447294	-0.904076
C68	C	1.814774	0.052706	-0.404076
C69	C	1.374018	-0.398576	-0.942920
C70	C	1.874018	0.101424	-0.442920
C71	C	1.368208	-0.403329	-1.037564
C72	C	1.868208	0.096671	-0.537564
C73	C	1.320583	-0.442542	-0.809423
C74	C	1.820583	0.057458	-0.309423
C75	C	1.357678	-0.412040	-0.205917
C76	C	1.857678	0.087960	0.294083
C77	C	1.363579	-0.407115	-0.113005
C78	C	1.863579	0.092885	0.386995
H79	H	1.259679	-0.941080	-0.492668
H80	H	1.759679	-0.441080	0.007332
C81	C	1.447614	-0.338258	-0.892592
C82	C	1.947614	0.161742	-0.392592
C83	C	1.540645	-0.357493	-0.914700
C84	C	2.040645	0.142507	-0.414700
C85	C	1.608461	-0.301945	-0.868357
C86	C	2.108461	0.198055	-0.368357
H87	H	1.441934	-0.343000	-0.834748
H88	H	1.941934	0.157000	-0.334748
H89	H	1.436197	-0.282783	-0.904016
H90	H	1.936197	0.217217	-0.404016
H91	H	1.552058	-0.412954	-0.903270
H92	H	2.052058	0.087046	-0.403270
H93	H	1.546356	-0.352746	-0.972537
H94	H	2.046356	0.147254	-0.472537
H95	H	1.597044	-0.246470	-0.879781
H96	H	2.097044	0.253530	-0.379781
H97	H	1.602772	-0.306691	-0.810515
H98	H	2.102772	0.193309	-0.310515
H99	H	1.671589	-0.314983	-0.883356
H100	H	2.171589	0.185017	-0.383356
C101	C	1.447340	-0.891436	-0.338423
C102	C	1.947340	-0.391436	0.161577
C103	C	1.438532	-0.806258	-0.345565
C104	C	1.938532	-0.306258	0.154435
C105	C	1.506050	-0.759605	-0.289988
C106	C	2.006050	-0.259605	0.210012
H107	H	1.510589	-0.906147	-0.351346
H108	H	2.010589	-0.406147	0.148654
H109	H	1.435852	-0.902849	-0.282947
H110	H	1.935852	-0.402849	0.217053
H111	H	1.450027	-0.794851	-0.401028
H112	H	1.950027	-0.294851	0.098972
H113	H	1.375298	-0.791522	-0.332635
H114	H	1.875298	-0.291522	0.167365
H115	H	1.494563	-0.771018	-0.234512
H116	H	1.994563	-0.271018	0.265488
H117	H	1.569295	-0.774323	-0.302915
H118	H	2.069295	-0.274323	0.197085
H119	H	1.500078	-0.701807	-0.294820
H120	H	2.000078	-0.201807	0.205180
C121	C	1.241432	-0.507646	-0.954653
C122	C	1.741432	-0.007646	-0.454653
C123	C	1.250210	-0.500439	-1.039830
C124	C	1.750210	-0.000439	-0.539830
C125	C	1.182676	-0.556031	-1.086457
C126	C	1.682676	-0.056031	-0.586457
H127	H	1.178189	-0.494774	-0.939873
H128	H	1.678189	0.005226	-0.439873
H129	H	1.252923	-0.563125	-0.943291
H130	H	1.752923	-0.063125	-0.443291
H131	H	1.238711	-0.444973	-1.051187
H132	H	1.738711	0.055027	-0.551187
H133	H	1.313437	-0.513319	-1.054634
H134	H	1.813437	-0.013319	-0.554634
H135	H	1.194167	-0.611510	-1.075095
H136	H	1.694167	-0.111510	-0.575095
H137	H	1.119438	-0.543154	-1.071671
H138	H	1.619438	-0.043154	-0.571671
H139	H	1.188629	-0.551154	-1.144255
H140	H	1.688629	-0.051154	-0.644255
