data_functionalizedCrystal
_audit_creation_method	'MofGen! by Chris Wilmer'
_symmetry_space_group_name_H-M	'P1'
_symmetry_Int_Tables_number	1
_symmetry_cell_setting	triclinic
loop_
_symmetry_equiv_pos_as_xyz
  x,y,z
_cell_length_a	7.088929
_cell_length_b	8.559649
_cell_length_c	8.597304
_cell_angle_alpha	102.375305
_cell_angle_beta	76.027438
_cell_angle_gamma	84.674985
loop_
_atom_site_label
_atom_site_type_symbol
_atom_site_fract_x
_atom_site_fract_y
_atom_site_fract_z
O1	O	-0.153071	-2.103777	-0.035739
O2	O	-0.166659	-1.638460	0.046706
O3	O	-0.121324	-1.884155	-0.228466
O4	O	-0.198406	-1.858081	0.239433
O5	O	0.202722	-1.916990	-0.265314
O6	O	0.157387	-1.671295	0.009858
O7	O	0.170975	-2.136612	-0.072587
Cu8	Cu	0.193769	-1.906951	-0.034729
Cu9	Cu	-0.189453	-1.868120	0.008848
O10	O	0.125640	-1.890916	0.202585
C11	C	-0.005666	-1.595339	0.034530
C12	C	-0.008733	-1.417933	0.053128
N13	N	0.463307	-1.934275	-0.065381
C14	C	0.050471	-1.899602	-0.306236
C15	C	0.079590	-1.896691	-0.483067
N16	N	-0.458989	-1.840810	0.039486
C17	C	0.009978	-2.179733	-0.060410
C18	C	0.013032	-2.357137	-0.079007
C19	C	-0.046160	-1.875469	0.280356
C20	C	-0.075291	-1.878379	0.457189
H21	H	0.441461	-1.743944	0.148160
C22	C	0.597791	-2.065145	-0.212197
H23	H	0.730952	-2.063274	-0.210099
H24	H	0.563751	-2.168456	-0.204271
H25	H	0.581658	-2.044415	-0.312805
H26	H	-0.029725	-1.334251	0.180493
C27	C	0.041381	-1.470161	-0.251057
H28	H	0.039809	-1.578572	-0.241410
H29	H	-0.062080	-1.439384	-0.296106
H30	H	0.163937	-1.462283	-0.321796
C31	C	0.288851	-1.914849	-0.596712
H32	H	0.382108	-1.926716	-0.535516
H33	H	0.310670	-2.007660	-0.685958
H34	H	0.302881	-1.821344	-0.638750
H35	H	-0.230181	-1.864923	-0.458677
