data_functionalizedCrystal
_audit_creation_method	'MofGen! by Chris Wilmer'
_symmetry_space_group_name_H-M	'P1'
_symmetry_Int_Tables_number	1
_symmetry_cell_setting	triclinic
loop_
_symmetry_equiv_pos_as_xyz
  x,y,z
_cell_length_a	10.686220
_cell_length_b	10.685676
_cell_length_c	10.686551
_cell_angle_alpha	89.695509
_cell_angle_beta	89.691918
_cell_angle_gamma	98.406687
loop_
_atom_site_label
_atom_site_type_symbol
_atom_site_fract_x
_atom_site_fract_y
_atom_site_fract_z
Zn1	Zn	-1.950664	0.307357	-0.587628
Zn2	Zn	-1.918381	0.535543	-0.396609
Zn3	Zn	-1.722513	0.339608	-0.396594
Zn4	Zn	-1.724991	0.532988	-0.622177
O5	O	-1.829137	0.428874	-0.500752
O6	O	-2.122798	0.325199	-0.547836
O7	O	-1.877851	0.524118	-0.222258
O8	O	-1.765252	0.158903	-0.407470
O9	O	-2.099079	0.492846	-0.407496
O10	O	-1.932873	0.135208	-0.547822
O11	O	-1.733948	0.380165	-0.222247
O12	O	-1.546426	0.377688	-0.440971
O13	O	-1.769474	0.488492	-0.791944
O14	O	-1.548246	0.519763	-0.606706
O15	O	-1.935275	0.322722	-0.766560
O16	O	-1.880253	0.711631	-0.440997
O17	O	-1.738171	0.709754	-0.606721
C18	C	-1.501593	0.451949	-0.527586
C19	C	-1.361469	0.461848	-0.539098
C20	C	-1.806014	0.756433	-0.527634
C21	C	-1.796241	0.896553	-0.539166
C22	C	-1.856252	0.401724	-0.825723
C23	C	-1.867807	0.390155	-0.964206
C24	C	-2.157960	0.405710	-0.473814
C25	C	-2.298085	0.395839	-0.462335
C26	C	-1.852377	1.100031	-0.473805
C27	C	-1.862255	0.959896	-0.462361
C28	C	-1.802207	0.455822	-0.177033
C29	C	-1.790921	0.467019	-0.038501
H30	H	-1.351019	0.331754	-0.387806
C31	C	-1.290669	0.547196	-0.638439
C32	C	-1.161103	0.540353	-0.630520
C33	C	-1.095846	0.618943	-0.722021
H34	H	-1.304539	0.631961	-0.625368
H35	H	-1.320412	0.520363	-0.718961
H36	H	-1.131370	0.567192	-0.550017
H37	H	-1.147195	0.455606	-0.643605
H38	H	-1.125588	0.592110	-0.802543
H39	H	-1.109725	0.703703	-0.708942
H40	H	-1.007930	0.614302	-0.716668
C41	C	-1.710928	0.967402	-0.638492
C42	C	-1.717835	1.096960	-0.630542
C43	C	-1.639249	1.162275	-0.722011
H44	H	-1.737695	0.937698	-0.719028
H45	H	-1.626155	0.953542	-0.625380
H46	H	-1.802591	1.110812	-0.643663
H47	H	-1.691058	1.126701	-0.550026
H48	H	-1.554476	1.148415	-0.708899
H49	H	-1.666023	1.132561	-0.802541
H50	H	-1.643916	1.250188	-0.716622
H51	H	-1.716260	0.541681	-0.996165
H52	H	-1.926261	0.906925	-0.387782
C53	C	-1.967567	0.290743	-1.020583
C54	C	-2.087759	0.312031	-0.981069
C55	C	-2.179686	0.220491	-1.032993
H56	H	-1.953525	0.209028	-0.993918
H57	H	-1.962450	0.295940	-1.109285
H58	H	-2.092873	0.306822	-0.892387
H59	H	-2.101842	0.393728	-1.007733
H60	H	-2.174569	0.225688	-1.121694
H61	H	-2.165632	0.138782	-1.006324
H62	H	-2.261247	0.234929	-1.006199
