data_functionalizedCrystal
_audit_creation_method	'MofGen! by Chris Wilmer'
_symmetry_space_group_name_H-M	'P1'
_symmetry_Int_Tables_number	1
_symmetry_cell_setting	triclinic
loop_
_symmetry_equiv_pos_as_xyz
  x,y,z
_cell_length_a	8.634740
_cell_length_b	15.944551
_cell_length_c	7.681481
_cell_angle_alpha	84.256492
_cell_angle_beta	96.618947
_cell_angle_gamma	92.034522
loop_
_atom_site_label
_atom_site_type_symbol
_atom_site_fract_x
_atom_site_fract_y
_atom_site_fract_z
O1	O	2.031509	0.280635	-0.146438
O2	O	1.582554	0.257671	-0.146441
O3	O	1.819293	0.147869	-0.146424
O4	O	1.794770	0.390436	-0.146455
O5	O	1.848432	0.134318	0.146436
O6	O	1.611693	0.244120	0.146419
O7	O	2.060647	0.267084	0.146422
Zn8	Zn	1.840796	0.253451	0.192918
Zn9	Zn	1.802405	0.271304	-0.192937
O10	O	1.823909	0.376886	0.146404
C11	C	1.539673	0.245693	-0.000011
C12	C	1.368488	0.230182	-0.000012
C13	C	1.832844	0.109717	0.000007
C14	C	1.829793	0.016224	0.000008
C15	C	1.675755	-0.211093	-0.000018
C16	C	1.761651	-0.273005	0.144380
C17	C	1.824271	-0.154948	-0.000006
C18	C	1.732958	-0.259625	-0.144356
C19	C	1.818925	-0.320292	-0.000027
C20	C	1.910219	-0.215633	0.144511
C21	C	1.881492	-0.202243	-0.144355
C22	C	1.967500	-0.264131	0.000078
C23	C	1.827346	-0.059697	0.000008
C24	C	1.815862	-0.415540	-0.000028
C25	C	2.103528	0.279062	-0.000012
C26	C	2.274712	0.294574	-0.000023
C27	C	1.810357	0.415038	-0.000030
C28	C	1.813407	0.508531	-0.000042
N29	N	1.867009	0.241266	0.456254
N30	N	1.776205	0.283483	-0.456274
H31	H	1.552496	-0.187765	0.000126
H32	H	1.683513	0.326572	0.468523
C33	C	1.962840	0.100511	0.513351
C34	C	1.992156	0.183094	0.557773
H35	H	2.040105	0.064601	0.576019
H36	H	1.862883	0.081730	0.543511
H37	H	1.965678	0.099196	0.390398
H38	H	1.989306	0.184411	0.680725
H39	H	2.092139	0.201880	0.527625
H40	H	1.325397	0.361573	-0.000020
C41	C	2.129769	-0.383216	-0.001346
C42	C	2.134067	-0.295416	0.000119
H43	H	2.232600	-0.402524	-0.001343
H44	H	2.086793	-0.408449	0.100270
H45	H	2.067015	-0.398217	-0.103977
H46	H	2.196811	-0.280415	0.102757
H47	H	2.177064	-0.270174	-0.101507
H48	H	1.317807	0.163188	-0.000049
C49	C	1.784611	-0.291452	0.460301
C50	C	1.693258	-0.314643	0.309177
H51	H	1.742373	-0.317153	0.562031
H52	H	1.888232	-0.309578	0.460448
H53	H	1.785159	-0.231895	0.460926
H54	H	1.692720	-0.374200	0.308545
H55	H	1.589609	-0.296522	0.309030
C56	C	2.013232	-0.101519	0.308056
C57	C	2.011355	-0.189435	0.309502
H58	H	2.075657	-0.085347	0.409921
H59	H	2.055446	-0.076653	0.205659
H60	H	1.909862	-0.082937	0.307637
H61	H	2.114724	-0.208016	0.309908
H62	H	1.969147	-0.214310	0.411927
H63	H	1.657976	-0.279137	-0.266442
H64	H	1.932107	-0.171387	-0.266438
