data_functionalizedCrystal
_audit_creation_method	'MofGen! by Chris Wilmer'
_symmetry_space_group_name_H-M	'P1'
_symmetry_Int_Tables_number	1
_symmetry_cell_setting	triclinic
loop_
_symmetry_equiv_pos_as_xyz
  x,y,z
_cell_length_a	10.654550
_cell_length_b	10.654551
_cell_length_c	9.730223
_cell_angle_alpha	89.998425
_cell_angle_beta	89.993189
_cell_angle_gamma	84.485132
loop_
_atom_site_label
_atom_site_type_symbol
_atom_site_fract_x
_atom_site_fract_y
_atom_site_fract_z
O1	O	1.667840	0.176398	-0.114394
O2	O	1.302361	0.193204	-0.114371
O3	O	1.493503	0.002062	-0.114383
O4	O	1.476698	0.367540	-0.114381
O5	O	1.493491	0.002057	0.114197
O6	O	1.302349	0.193199	0.114209
O7	O	1.667827	0.176393	0.114186
Zn8	Zn	1.485086	0.184795	0.150490
Zn9	Zn	1.485103	0.184802	-0.150674
O10	O	1.476686	0.367535	0.114199
C11	C	1.255557	0.191968	-0.000078
C12	C	1.116114	0.188276	-0.000069
C13	C	1.036629	0.300817	-0.000089
C14	C	0.905608	0.297341	-0.000113
C15	C	0.933570	0.068771	-0.000104
C16	C	1.064589	0.072249	-0.000070
C17	C	1.020484	0.432780	-0.000100
C18	C	0.889463	0.429304	-0.000124
C19	C	1.492263	-0.044739	-0.000096
C20	C	1.488570	-0.184182	-0.000105
C21	C	1.486845	-0.249691	-0.124702
C22	C	1.483364	-0.380711	-0.124695
C23	C	1.483341	-0.380702	0.124515
C24	C	1.486812	-0.249683	0.124507
C25	C	1.486864	-0.249698	-0.268582
C26	C	1.483384	-0.380718	-0.268575
C27	C	1.714632	0.177629	-0.000109
C28	C	1.854075	0.181321	-0.000127
C29	C	1.477926	0.414336	-0.000091
C30	C	1.481619	0.553779	-0.000091
N31	N	1.485084	0.184790	0.356026
N32	N	1.485114	0.184798	-0.356211
C33	C	1.569751	0.100188	0.427946
C34	C	1.569763	0.100188	0.571829
C35	C	1.400439	0.269403	0.571859
C36	C	1.400421	0.269396	0.427979
H37	H	0.847736	0.479027	-0.095791
H38	H	1.638705	0.031297	0.630383
C39	C	1.307329	0.362474	0.651011
H40	H	1.319473	0.350373	0.747002
H41	H	1.223391	0.348057	0.627461
H42	H	1.321701	0.446423	0.627414
H43	H	1.391790	-0.410284	-0.313227
H44	H	1.638687	0.031295	0.369366
C45	C	1.488701	-0.177626	0.261562
H46	H	1.487169	-0.235406	0.335773
H47	H	1.416948	-0.117573	0.266738
H48	H	1.563174	-0.135460	0.266741
C49	C	1.600632	-0.443261	-0.343197
H50	H	1.651221	-0.380074	-0.373877
H51	H	1.574957	-0.489667	-0.419899
H52	H	1.648066	-0.498615	-0.281834
C53	C	1.068670	0.489585	-0.133388
H54	H	1.157692	0.490058	-0.128819
H55	H	1.030861	0.573470	-0.143914
H56	H	1.047201	0.440258	-0.209662
C57	C	1.152024	-0.051542	-0.000036
H58	H	1.237434	-0.032857	-0.000004
H59	H	1.136323	-0.099077	-0.079745
H60	H	1.136269	-0.099058	0.079687
H61	H	1.331469	0.338289	0.369417
C62	C	1.481410	-0.452753	0.261581
H63	H	1.482926	-0.394968	0.335785
H64	H	1.553159	-0.512810	0.266767
H65	H	1.406932	-0.494913	0.266761
H66	H	0.891602	-0.025694	-0.000125
H67	H	1.049810	0.484388	0.095566
C68	C	0.827747	0.483175	0.133181
H69	H	0.890926	0.509578	0.192559
H70	H	0.785263	0.419988	0.177473
H71	H	0.768989	0.553212	0.111745
C72	C	1.369625	-0.187165	-0.343197
H73	H	1.319045	-0.250356	-0.373867
H74	H	1.395306	-0.140758	-0.419905
H75	H	1.322180	-0.131813	-0.281832
H76	H	1.578465	-0.220130	-0.313229
