data_functionalizedCrystal
_audit_creation_method	'MofGen! by Chris Wilmer'
_symmetry_space_group_name_H-M	'P1'
_symmetry_Int_Tables_number	1
_symmetry_cell_setting	triclinic
loop_
_symmetry_equiv_pos_as_xyz
  x,y,z
_cell_length_a	18.215407
_cell_length_b	12.645330
_cell_length_c	18.215399
_cell_angle_alpha	90.023030
_cell_angle_beta	90.019833
_cell_angle_gamma	90.018140
loop_
_atom_site_label
_atom_site_type_symbol
_atom_site_fract_x
_atom_site_fract_y
_atom_site_fract_z
Zn1	Zn	1.125109	-0.422038	0.416141
Zn2	Zn	1.125033	-0.599320	0.293085
Zn3	Zn	1.002041	-0.422072	0.293088
Zn4	Zn	1.002023	-0.599261	0.416110
O5	O	1.063551	-0.510673	0.354606
O6	O	1.228083	-0.445565	0.399829
O7	O	1.108693	-0.575847	0.190101
O8	O	1.018406	-0.273720	0.309426
O9	O	1.228027	-0.575813	0.309421
O10	O	1.108823	-0.273695	0.399832
O11	O	1.018332	-0.445624	0.190104
O12	O	0.899055	-0.445566	0.309396
O13	O	1.018374	-0.575713	0.519099
O14	O	0.899041	-0.575746	0.399780
O15	O	1.108805	-0.445507	0.519121
O16	O	1.108675	-0.747659	0.309391
O17	O	1.018300	-0.747616	0.399777
C18	C	0.872345	-0.510654	0.354585
C19	C	0.790546	-0.510672	0.354594
C20	C	0.602364	-0.578563	0.401597
C21	C	0.525506	-0.578567	0.401606
C22	C	0.525490	-0.442801	0.307631
C23	C	0.602348	-0.442793	0.307626
C24	C	0.640783	-0.510680	0.354608
C25	C	0.487067	-0.510692	0.354622
C26	C	0.403733	-0.510695	0.354632
C27	C	0.724122	-0.510676	0.354600
C28	C	1.063498	-0.786102	0.354596
C29	C	1.063542	-0.903932	0.354616
C30	C	1.006922	-1.071513	0.411653
C31	C	1.006632	-0.948954	0.411470
C32	C	1.042549	-0.948523	0.277058
C33	C	1.042203	-1.071122	0.277404
C34	C	1.141502	-1.071022	0.374509
C35	C	1.141024	-0.948415	0.376205
C36	C	1.255504	-0.510692	0.354628
C37	C	1.337303	-0.510700	0.354637
C38	C	1.063596	-0.510600	0.546559
C39	C	1.063615	-0.510568	0.628358
C40	C	1.063625	-0.234167	0.354633
C41	C	1.063657	-0.116337	0.354644
C42	C	1.063549	-0.510669	0.163400
C43	C	1.063672	-0.510401	0.081602
C44	C	1.110720	-0.442707	0.816565
C45	C	1.110728	-0.442676	0.893424
C46	C	1.016563	-0.578266	0.893389
C47	C	1.016551	-0.578290	0.816532
C48	C	1.063634	-0.510513	0.778122
C49	C	1.063654	-0.510457	0.931838
C50	C	1.063663	-0.510424	1.015172
C51	C	1.063624	-0.510544	0.694783
H52	H	0.633629	-0.387508	0.269362
H53	H	1.019766	-0.918802	0.468979
H54	H	1.082562	-0.919362	0.233421
H55	H	1.183771	-1.100007	0.332986
H56	H	1.156855	-0.919267	0.433284
H57	H	0.978232	-0.633450	0.924672
C58	C	1.162528	-0.368087	0.935708
N59	N	1.201547	-0.311903	0.967556
C60	C	0.644640	-0.653233	0.453284
N61	N	0.676480	-0.709474	0.492218
H62	H	0.986237	-0.917912	0.259925
H63	H	0.949572	-1.102414	0.398661
C64	C	0.483205	-0.368135	0.255950
N65	N	0.451356	-0.311897	0.217021
C66	C	0.964748	-0.652882	0.774241
N67	N	0.925729	-0.709060	0.742388
H68	H	0.948921	-0.919719	0.398309
C69	C	0.483249	-0.653253	0.453291
N70	N	0.451422	-0.709514	0.492221
H71	H	1.019935	-1.100928	0.469351
C72	C	1.201138	-0.907009	0.324192
N73	N	1.246414	-0.875824	0.285010
C74	C	1.162505	-0.368141	0.774317
N75	N	1.201509	-0.311971	0.742498
H76	H	0.985298	-1.099813	0.260576
C77	C	1.095598	-1.111187	0.218057
N78	N	1.135810	-1.141359	0.173353
C79	C	1.167371	-1.112686	0.449617
N80	N	1.186847	-1.144068	0.506192
