data_functionalizedCrystal
_audit_creation_method	'MofGen! by Chris Wilmer'
_symmetry_space_group_name_H-M	'P1'
_symmetry_Int_Tables_number	1
_symmetry_cell_setting	triclinic
loop_
_symmetry_equiv_pos_as_xyz
  x,y,z
_cell_length_a	10.686220
_cell_length_b	12.645330
_cell_length_c	10.686551
_cell_angle_alpha	85.597451
_cell_angle_beta	89.692081
_cell_angle_gamma	85.592213
loop_
_atom_site_label
_atom_site_type_symbol
_atom_site_fract_x
_atom_site_fract_y
_atom_site_fract_z
Zn1	Zn	1.972229	0.258446	0.562409
Zn2	Zn	1.955956	0.450323	0.352663
Zn3	Zn	1.746341	0.285565	0.368727
Zn4	Zn	1.762387	0.448176	0.578440
O5	O	1.859228	0.360627	0.465560
O6	O	2.145615	0.273448	0.521154
O7	O	1.914625	0.440716	0.179249
O8	O	1.776401	0.133613	0.394434
O9	O	2.133659	0.414420	0.367054
O10	O	1.942360	0.113689	0.536731
O11	O	1.760622	0.319669	0.191052
O12	O	1.572925	0.317586	0.409978
O13	O	1.803748	0.410759	0.751858
O14	O	1.584714	0.437056	0.564053
O15	O	1.957918	0.271366	0.740080
O16	O	1.930183	0.598393	0.382598
O17	O	1.787969	0.596815	0.548476
C18	C	1.533303	0.380031	0.490499
C19	C	1.393873	0.388356	0.501198
C20	C	1.859087	0.636066	0.465558
C21	C	1.859145	0.753891	0.465590
C22	C	1.770071	0.920463	0.570217
C23	C	1.769575	0.797954	0.569939
C24	C	1.813199	0.809807	0.336127
C25	C	1.812633	0.932401	0.336766
C26	C	1.994608	0.910706	0.489322
C27	C	1.994037	0.787945	0.492271
C28	C	2.186426	0.341148	0.440524
C29	C	2.325858	0.332848	0.429855
C30	C	1.884438	0.337798	0.792758
C31	C	1.895181	0.328069	0.932191
C32	C	1.859362	1.084111	0.465594
C33	C	1.859308	0.966283	0.465630
C34	C	1.834189	0.383288	0.139628
C35	C	1.823689	0.392703	0.000178
H36	H	1.345435	0.442249	0.570462
C37	C	1.988984	0.243258	0.997658
H38	H	1.984142	0.247621	1.085928
H39	H	2.071626	0.255234	0.969788
H40	H	1.969034	0.174592	0.977661
C41	C	1.391291	0.260039	0.336276
H42	H	1.479564	0.263800	0.341122
H43	H	1.363355	0.282586	0.253586
H44	H	1.371336	0.188803	0.356412
H45	H	1.754266	0.455485	0.951713
C46	C	1.809954	0.746207	0.700060
H47	H	1.826807	0.800041	0.753569
H48	H	1.883477	0.700043	0.691856
H49	H	1.744456	0.706628	0.735051
H50	H	1.799803	0.941717	0.666871
H51	H	1.669486	0.776140	0.555042
C52	C	1.635702	0.972142	0.550419
H53	H	1.633747	1.021519	0.478689
H54	H	1.610221	1.008150	0.622209
H55	H	1.580240	0.918634	0.538118
C56	C	1.678616	0.981667	0.308071
H57	H	1.625029	0.926717	0.296139
H58	H	1.679390	1.028272	0.234039
H59	H	1.648739	1.020391	0.376352
H60	H	1.874259	0.963247	0.256729
C61	C	1.897612	0.771909	0.228572
H62	H	1.961776	0.721523	0.261747
H63	H	1.934564	0.831037	0.187302
H64	H	1.848569	0.739762	0.170322
H65	H	2.028501	0.750424	0.587499
C66	C	1.680499	0.778943	0.306614
H67	H	1.652909	0.732017	0.373015
H68	H	1.682197	0.744618	0.230545
H69	H	1.624512	0.841163	0.298103
C70	C	2.048532	0.940838	0.613966
H71	H	1.989026	0.987599	0.652728
H72	H	2.123648	0.975147	0.597999
H73	H	2.066160	0.878350	0.668088
H74	H	2.061216	0.940320	0.413022
C75	C	2.089696	0.746619	0.395751
H76	H	2.048435	0.707887	0.337655
H77	H	2.153783	0.701397	0.437887
H78	H	2.125867	0.805093	0.352134
