data_functionalizedCrystal
_audit_creation_method	'MofGen! by Chris Wilmer'
_symmetry_space_group_name_H-M	'P1'
_symmetry_Int_Tables_number	1
_symmetry_cell_setting	triclinic
loop_
_symmetry_equiv_pos_as_xyz
  x,y,z
_cell_length_a	19.077713
_cell_length_b	18.050591
_cell_length_c	19.077174
_cell_angle_alpha	92.323056
_cell_angle_beta	94.475462
_cell_angle_gamma	92.273359
loop_
_atom_site_label
_atom_site_type_symbol
_atom_site_fract_x
_atom_site_fract_y
_atom_site_fract_z
Zn1	Zn	-0.296790	-1.165246	-0.410033
Zn2	Zn	0.203210	-0.665246	0.089967
Zn3	Zn	-0.409937	-1.165149	-0.296885
Zn4	Zn	0.090063	-0.665149	0.203115
Zn5	Zn	-0.292061	-1.035866	-0.292144
Zn6	Zn	0.207939	-0.535866	0.207856
Zn7	Zn	-0.414618	-1.046200	-0.414714
Zn8	Zn	0.085382	-0.546200	0.085286
O9	O	-0.353352	-1.103115	-0.353444
O10	O	0.146648	-0.603115	0.146556
O11	O	-0.311819	-1.269159	-0.395049
O12	O	0.188181	-0.769159	0.104951
O13	O	-0.390362	-1.143634	-0.197607
O14	O	0.109638	-0.643634	0.302393
O15	O	-0.194046	-1.048744	-0.303839
O16	O	0.305954	-0.548744	0.196161
O17	O	-0.394948	-1.269088	-0.311919
O18	O	0.105052	-0.769088	0.188081
O19	O	-0.197520	-1.143799	-0.390452
O20	O	0.302480	-0.643799	0.109548
O21	O	-0.303760	-1.048650	-0.194124
O22	O	0.196240	-0.548650	0.305876
O23	O	-0.308299	-0.933310	-0.308378
O24	O	0.191701	-0.433310	0.191622
O25	O	-0.402926	-1.066357	-0.512742
O26	O	0.097074	-0.566357	-0.012742
O27	O	-0.398341	-0.940903	-0.398430
O28	O	0.101659	-0.440903	0.101570
O29	O	-0.316359	-1.153820	-0.509303
O30	O	0.183641	-0.653820	-0.009303
O31	O	-0.509201	-1.153655	-0.316458
O32	O	-0.009201	-0.653655	0.183542
O33	O	-0.512640	-1.066264	-0.403027
O34	O	-0.012640	-0.566264	0.096973
C35	C	-0.353315	-0.910160	-0.353398
C36	C	0.146685	-0.410160	0.146602
C37	C	-0.353318	-0.827614	-0.353395
C38	C	0.146682	-0.327614	0.146605
C39	C	-0.304296	-0.574639	-0.304522
C40	C	0.195704	-0.074639	0.195478
C41	C	-0.289715	-0.626153	-0.368171
C42	C	0.210285	-0.126153	0.131829
C43	C	-0.353340	-0.530496	-0.353439
C44	C	0.146660	-0.030496	0.146561
C45	C	-0.367877	-0.626062	-0.289772
C46	C	0.132123	-0.126062	0.210228
C47	C	-0.353327	-0.676480	-0.353414
C48	C	0.146673	-0.176480	0.146586
C49	C	-0.338728	-0.580923	-0.417121
C50	C	0.161272	-0.080923	0.082879
C51	C	-0.416918	-0.580826	-0.338680
C52	C	0.083082	-0.080826	0.161320
C53	C	-0.402364	-0.632321	-0.402373
C54	C	0.097636	-0.132321	0.097627
C55	C	-0.353346	-0.446399	-0.353453
C56	C	0.146654	0.053601	0.146547
C57	C	-0.353322	-0.760576	-0.353408
C58	C	0.146678	-0.260576	0.146592
C59	C	-0.536498	-1.111091	-0.360780
C60	C	-0.036498	-0.611091	0.139220
C61	C	-0.614850	-1.114572	-0.363943
C62	C	-0.114850	-0.614572	0.136057
C63	C	-1.056075	-1.139536	-0.386601
C64	C	-0.556075	-0.639536	0.113399
C65	C	-0.982455	-1.136256	-0.383624
C66	C	-0.482455	-0.636256	0.116376
C67	C	-0.943902	-1.085163	-0.337011
C68	C	-0.443902	-0.585163	0.162989
C69	C	-0.978971	-1.037351	-0.293367
C70	C	-0.478971	-0.537351	0.206633
C71	C	-1.052590	-1.040635	-0.296341
C72	C	-0.552590	-0.540635	0.203659
C73	C	-0.723538	-1.070044	-0.323273
C74	C	-0.223538	-0.570044	0.176727
C75	C	-0.649915	-1.066762	-0.320303
C76	C	-0.149915	-0.566762	0.179697
C77	C	-0.653404	-1.165669	-0.410560
C78	C	-0.153404	-0.665669	0.089440
C79	C	-0.727024	-1.168945	-0.413533
C80	C	-0.227024	-0.668945	0.086467
C81	C	-0.762087	-1.121136	-0.369887
C82	C	-0.262087	-0.621136	0.130113
N83	N	-0.868650	-1.081808	-0.333968
N84	N	-0.368650	-0.581808	0.166032
N85	N	-0.837337	-1.124495	-0.372927
N86	N	-0.337337	-0.624495	0.127073
C87	C	-0.169491	-1.095129	-0.346094
C88	C	0.330509	-0.595129	0.153906
C89	C	-0.091140	-1.091726	-0.342962
C90	C	0.408860	-0.591726	0.157038
C91	C	-0.360692	-1.111252	-0.537316
C92	C	0.139308	-0.611252	-0.037316
C93	C	-0.363820	-1.114720	-0.615672
C94	C	0.136180	-0.614720	-0.115672
C95	C	-0.353376	-0.296823	-0.353478
C96	C	0.146624	0.203177	0.146522
C97	C	-0.353352	-0.379367	-0.353459
C98	C	0.146648	0.120633	0.146541
C99	C	-0.320201	-1.066898	-0.650669
C100	C	0.179799	-0.566898	-0.150669
C101	C	-0.323146	-1.070153	-0.724292
C102	C	0.176854	-0.570153	-0.224292
C103	C	-0.369707	-1.121235	-0.762917
C104	C	0.130293	-0.621235	-0.262917
C105	C	-0.413331	-1.169059	-0.727914
C106	C	0.086669	-0.669059	-0.227914
C107	C	-0.410389	-1.165799	-0.654292
C108	C	0.089611	-0.665799	-0.154292
C109	C	-0.383344	-1.136283	-0.983298
C110	C	0.116656	-0.636283	-0.483298
C111	C	-0.386281	-1.139540	-1.056925
C112	C	0.113719	-0.639540	-0.556925
C113	C	-0.296097	-1.040633	-1.053298
C114	C	0.203903	-0.540633	-0.553298
C115	C	-0.293156	-1.037381	-0.979674
C116	C	0.206844	-0.537381	-0.479674
C117	C	-0.336783	-1.085203	-0.944678
C118	C	0.163217	-0.585203	-0.444678
N119	N	-0.372717	-1.124565	-0.838172
N120	N	0.127283	-0.624565	-0.338172
N121	N	-0.333776	-1.081868	-0.869425
N122	N	0.166224	-0.581868	-0.369425
C123	C	-0.345989	-1.095051	-0.170285
C124	C	0.154011	-0.595051	0.329715
C125	C	-0.342662	-1.091718	-0.091922
C126	C	0.157338	-0.591718	0.408078
H127	H	-0.262797	-0.549451	-0.263213
H128	H	0.237203	-0.049451	0.236787
Cl129	Cl	-0.775486	-1.233167	-0.472147
Cl130	Cl	-0.275486	-0.733167	0.027853
Cl131	Cl	-0.938377	-1.196363	-0.438488
Cl132	Cl	-0.438377	-0.696363	0.061512
Cl133	Cl	-0.930504	-0.973122	-0.234764
Cl134	Cl	-0.430504	-0.473122	0.265236
Cl135	Cl	-0.206696	-0.656992	-0.387442
Cl136	Cl	0.293304	-0.156992	0.112558
H137	H	-0.380177	-0.645960	-0.235939
H138	H	0.119823	-0.145960	0.264061
Cl139	Cl	-0.319638	-0.550345	-0.500255
Cl140	Cl	0.180362	-0.050345	-0.000255
Cl141	Cl	-0.444813	-1.203768	-1.105480
Cl142	Cl	0.055187	-0.703768	-0.605480
Cl143	Cl	-0.466395	-0.671007	-0.466293
Cl144	Cl	0.033605	-0.171007	0.033707
H145	H	-0.445903	-1.204746	-0.625798
H146	H	0.054097	-0.704746	-0.125798
H147	H	-1.087461	-1.181134	-0.424566
H148	H	-0.587461	-0.681134	0.075434
Cl149	Cl	-0.609320	-1.225769	-0.465426
Cl150	Cl	-0.109320	-0.725769	0.034574
H151	H	-0.470673	-0.560831	-0.326182
H152	H	0.029327	-0.060831	0.173818
H153	H	-1.081139	-1.001703	-0.260805
H154	H	-0.581139	-0.501703	0.239195
H155	H	-0.418875	-1.175214	-0.954813
H156	H	0.081125	-0.675214	-0.454813
H157	H	-0.618527	-1.025153	-0.282343
H158	H	-0.118527	-0.525153	0.217657
Cl159	Cl	-0.234619	-0.973163	-0.931123
Cl160	Cl	0.265381	-0.473163	-0.431123
H161	H	-0.282282	-1.025306	-0.619226
H162	H	0.217718	-0.525306	-0.119226
Cl163	Cl	-0.767608	-1.009936	-0.268407
Cl164	Cl	-0.267608	-0.509936	0.231593
H165	H	-0.287630	-1.031209	-0.752784
H166	H	0.212370	-0.531209	-0.252784
Cl167	Cl	-0.241259	-0.980516	-1.097297
Cl168	Cl	0.258741	-0.480516	-0.597297
Cl169	Cl	-0.471869	-1.233271	-0.776471
Cl170	Cl	0.028131	-0.733271	-0.276471
