data_functionalizedCrystal
_audit_creation_method	'MofGen! by Chris Wilmer'
_symmetry_space_group_name_H-M	'P1'
_symmetry_Int_Tables_number	1
_symmetry_cell_setting	triclinic
loop_
_symmetry_equiv_pos_as_xyz
  x,y,z
_cell_length_a	19.188930
_cell_length_b	19.288856
_cell_length_c	18.266242
_cell_angle_alpha	90.008438
_cell_angle_beta	89.993453
_cell_angle_gamma	96.861229
loop_
_atom_site_label
_atom_site_type_symbol
_atom_site_fract_x
_atom_site_fract_y
_atom_site_fract_z
O1	O	0.087066	-0.921361	-0.060923
O2	O	0.337066	-0.671361	0.189077
O3	O	0.587066	-0.421361	0.439077
O4	O	0.837066	-0.171361	0.689077
O5	O	0.098822	-0.719100	-0.060918
O6	O	0.348822	-0.469100	0.189082
O7	O	0.598822	-0.219100	0.439082
O8	O	0.848822	0.030900	0.689082
O9	O	-0.008712	-0.826067	-0.060906
O10	O	0.241288	-0.576067	0.189094
O11	O	0.491288	-0.326067	0.439094
O12	O	0.741288	-0.076067	0.689094
O13	O	0.194600	-0.814394	-0.060934
O14	O	0.444600	-0.564394	0.189066
O15	O	0.694600	-0.314394	0.439066
O16	O	0.944600	-0.064394	0.689066
O17	O	-0.008708	-0.826053	0.060856
O18	O	0.241292	-0.576053	0.310856
O19	O	0.491292	-0.326053	0.560856
O20	O	0.741292	-0.076053	0.810856
O21	O	0.098826	-0.719086	0.060844
O22	O	0.348826	-0.469086	0.310844
O23	O	0.598826	-0.219086	0.560844
O24	O	0.848826	0.030914	0.810844
O25	O	0.087070	-0.921347	0.060839
O26	O	0.337070	-0.671347	0.310839
O27	O	0.587070	-0.421347	0.560839
O28	O	0.837070	-0.171347	0.810839
Zn29	Zn	0.092949	-0.820214	0.080174
Zn30	Zn	0.342949	-0.570214	0.330174
Zn31	Zn	0.592949	-0.320214	0.580174
Zn32	Zn	0.842949	-0.070214	0.830174
Zn33	Zn	0.092943	-0.820233	-0.080253
Zn34	Zn	0.342943	-0.570233	0.169747
Zn35	Zn	0.592943	-0.320233	0.419747
Zn36	Zn	0.842943	-0.070233	0.669747
O37	O	0.194604	-0.814380	0.060828
O38	O	0.444604	-0.564380	0.310828
O39	O	0.694604	-0.314380	0.560828
O40	O	0.944604	-0.064380	0.810828
C41	C	0.098447	-0.693217	-0.000036
C42	C	0.348447	-0.443217	0.249964
C43	C	0.598447	-0.193217	0.499964
C44	C	0.848447	0.056783	0.749964
C45	C	0.097314	-0.616113	-0.000034
C46	C	0.347314	-0.366113	0.249966
C47	C	0.597314	-0.116113	0.499966
C48	C	0.847314	0.133887	0.749966
C49	C	0.152749	-0.052076	-0.000031
C50	C	0.402749	0.197924	0.249969
C51	C	0.652749	0.447924	0.499969
C52	C	0.902749	0.697924	0.749969
C53	C	0.153819	-0.124522	-0.000036
C54	C	0.403819	0.125478	0.249964
C55	C	0.653819	0.375478	0.499964
C56	C	0.903819	0.625478	0.749964
C57	C	0.090723	-0.169224	-0.000027
C58	C	0.340723	0.080776	0.249973
C59	C	0.590723	0.330776	0.499973
C60	C	0.840723	0.580776	0.749973
C61	C	0.026552	-0.141474	-0.000031
C62	C	0.276552	0.108526	0.249969
C63	C	0.526552	0.358526	0.499969
C64	C	0.776552	0.608526	0.749969
C65	C	0.025484	-0.069029	-0.000033
C66	C	0.275484	0.180971	0.249967
C67	C	0.525484	0.430971	0.499967
C68	C	0.775484	0.680971	0.749967
C69	C	0.043667	-0.290486	0.042639
C70	C	0.293667	-0.040486	0.292639
C71	C	0.543667	0.209514	0.542639
C72	C	0.793667	0.459514	0.792639
C73	C	0.044738	-0.362930	0.042645
C74	C	0.294738	-0.112930	0.292645
C75	C	0.544738	0.137070	0.542645
C76	C	0.794738	0.387070	0.792645
C77	C	0.094016	-0.392671	-0.000024
C78	C	0.344016	-0.142671	0.249976
C79	C	0.594016	0.107329	0.499976
C80	C	0.844016	0.357329	0.749976
C81	C	0.142234	-0.349957	-0.042691
C82	C	0.392234	-0.099957	0.207309
C83	C	0.642234	0.150043	0.457309
C84	C	0.892234	0.400043	0.707309
C85	C	0.141166	-0.277511	-0.042693
C86	C	0.391166	-0.027511	0.207307
C87	C	0.641166	0.222489	0.457307
C88	C	0.891166	0.472489	0.707307
C89	C	0.091875	-0.247780	-0.000025
C90	C	0.341875	0.002220	0.249975
C91	C	0.591875	0.252220	0.499975
C92	C	0.841875	0.502220	0.749975
C93	C	0.159343	-0.498967	-0.000032
C94	C	0.409343	-0.248967	0.249968
C95	C	0.659343	0.001033	0.499968
C96	C	0.909343	0.251033	0.749968
C97	C	0.160411	-0.571416	-0.000042
C98	C	0.410411	-0.321416	0.249958
C99	C	0.660411	-0.071416	0.499958
C100	C	0.910411	0.178584	0.749958
C101	C	0.033142	-0.588367	-0.000029
C102	C	0.283142	-0.338367	0.249971
C103	C	0.533142	-0.088367	0.499971
C104	C	0.783142	0.161633	0.749971
C105	C	0.032076	-0.515920	-0.000026
C106	C	0.282076	-0.265920	0.249974
C107	C	0.532076	-0.015920	0.499974
C108	C	0.782076	0.234080	0.749974
C109	C	0.095179	-0.471224	-0.000024
C110	C	0.345179	-0.221224	0.249976
C111	C	0.595179	0.028776	0.499976
C112	C	0.845179	0.278776	0.749976
C113	C	-0.034721	-0.825682	-0.000023
C114	C	0.215279	-0.575682	0.249977
C115	C	0.465279	-0.325682	0.499977
C116	C	0.715279	-0.075682	0.749977
C117	C	-0.112226	-0.824548	-0.000017
C118	C	0.137774	-0.574548	0.249983
C119	C	0.387774	-0.324548	0.499983
C120	C	0.637774	-0.074548	0.749983
C121	C	-0.157156	-0.887312	-0.000015
C122	C	0.092844	-0.637312	0.249985
C123	C	0.342844	-0.387312	0.499985
C124	C	0.592844	-0.137312	0.749985
C125	C	-0.229980	-0.886246	-0.000026
C126	C	0.020020	-0.636246	0.249974
C127	C	0.270020	-0.386246	0.499974
C128	C	0.520020	-0.136246	0.749974
C129	C	-0.257870	-0.822412	-0.000025
C130	C	-0.007870	-0.572412	0.249975
C131	C	0.242130	-0.322412	0.499975
C132	C	0.492130	-0.072412	0.749975
C133	C	-0.212929	-0.759639	-0.000031
C134	C	0.037071	-0.509639	0.249969
C135	C	0.287071	-0.259639	0.499969
C136	C	0.537071	-0.009639	0.749969
C137	C	-0.140107	-0.760707	-0.000027
C138	C	0.109893	-0.510707	0.249973
C139	C	0.359893	-0.260707	0.499973
C140	C	0.609893	-0.010707	0.749973
N141	N	-0.365868	-0.773613	0.041414
N142	N	-0.115868	-0.523613	0.291414
N143	N	0.134132	-0.273613	0.541414
N144	N	0.384132	-0.023613	0.791414
N145	N	-0.435047	-0.772603	0.041411
N146	N	-0.185047	-0.522603	0.291411
N147	N	0.064953	-0.272603	0.541411
N148	N	0.314953	-0.022603	0.791411
C149	C	-0.477278	-0.819190	-0.000040
C150	C	-0.227278	-0.569190	0.249960
C151	C	0.022722	-0.319190	0.499960
C152	C	0.272722	-0.069190	0.749960
N153	N	-0.447719	-0.866837	-0.041479
N154	N	-0.197719	-0.616837	0.208521
N155	N	0.052281	-0.366837	0.458521
N156	N	0.302281	-0.116837	0.708521
N157	N	-0.378534	-0.867849	-0.041474
N158	N	-0.128534	-0.617849	0.208526
N159	N	0.121466	-0.367849	0.458526
N160	N	0.371466	-0.117849	0.708526
C161	C	-0.336832	-0.821247	-0.000030
C162	C	-0.086832	-0.571247	0.249970
C163	C	0.163168	-0.321247	0.499970
C164	C	0.413168	-0.071247	0.749970
C165	C	-0.601173	-0.880804	-0.000052
C166	C	-0.351173	-0.630804	0.249948
C167	C	-0.101173	-0.380804	0.499948
C168	C	0.148827	-0.130804	0.749948
C169	C	-0.673998	-0.879735	-0.000068
C170	C	-0.423998	-0.629735	0.249932
C171	C	-0.173998	-0.379735	0.499932
C172	C	0.076002	-0.129735	0.749932
C173	C	-0.656945	-0.753125	-0.000066
C174	C	-0.406945	-0.503125	0.249934
C175	C	-0.156945	-0.253125	0.499934
C176	C	0.093055	-0.003125	0.749934
C177	C	-0.584122	-0.754196	-0.000057
C178	C	-0.334122	-0.504196	0.249943
C179	C	-0.084122	-0.254196	0.499943
C180	C	0.165878	-0.004196	0.749943
C181	C	-0.556241	-0.818037	-0.000046
C182	C	-0.306241	-0.568037	0.249954
C183	C	-0.056241	-0.318037	0.499954
C184	C	0.193759	-0.068037	0.749954
C185	C	0.220613	-0.814765	-0.000057
C186	C	0.470613	-0.564765	0.249943
C187	C	0.720613	-0.314765	0.499943
C188	C	0.970613	-0.064765	0.749943
C189	C	0.298118	-0.815900	-0.000068
C190	C	0.548118	-0.565900	0.249932
C191	C	0.798118	-0.315900	0.499932
C192	C	1.048118	-0.065900	0.749932
C193	C	0.087448	0.052770	-0.000039
C194	C	0.337448	0.302770	0.249961
C195	C	0.587448	0.552770	0.499961
C196	C	0.837448	0.802770	0.749961
C197	C	0.088586	-0.024333	-0.000031
C198	C	0.338586	0.225667	0.249969
C199	C	0.588586	0.475667	0.499969
C200	C	0.838586	0.725667	0.749969
N201	N	0.092952	-0.820207	0.189661
N202	N	0.342952	-0.570207	0.439661
N203	N	0.592952	-0.320207	0.689661
N204	N	0.842952	-0.070207	0.939661
C205	C	0.135170	-0.862240	0.771930
C206	C	0.385170	-0.612240	1.021930
C207	C	0.635170	-0.362240	1.271930
C208	C	0.885170	-0.112240	1.521930
C209	C	0.135177	-0.862233	0.695285
C210	C	0.385177	-0.612233	0.945285
C211	C	0.635177	-0.362233	1.195285
C212	C	0.885177	-0.112233	1.445285
C213	C	0.092939	-0.820238	0.656974
C214	C	0.342939	-0.570238	0.906974
C215	C	0.592939	-0.320238	1.156974
C216	C	0.842939	-0.070238	1.406974
C217	C	0.050706	-0.778233	0.695313
C218	C	0.300706	-0.528233	0.945313
C219	C	0.550706	-0.278233	1.195313
C220	C	0.800706	-0.028233	1.445313
C221	C	0.050706	-0.778236	0.771957
C222	C	0.300706	-0.528236	1.021957
C223	C	0.550706	-0.278236	1.271957
C224	C	0.800706	-0.028236	1.521957
N225	N	0.031779	-0.818556	0.536644
N226	N	0.281779	-0.568556	0.786644
N227	N	0.531779	-0.318556	1.036644
N228	N	0.781779	-0.068556	1.286644
N229	N	0.031781	-0.818557	0.463836
N230	N	0.281781	-0.568557	0.713836
N231	N	0.531781	-0.318557	0.963836
N232	N	0.781781	-0.068557	1.213836
C233	C	0.092939	-0.820225	0.426051
C234	C	0.342939	-0.570225	0.676051
C235	C	0.592939	-0.320225	0.926051
C236	C	0.842939	-0.070225	1.176051
N237	N	0.154095	-0.821905	0.463825
N238	N	0.404095	-0.571905	0.713825
N239	N	0.654095	-0.321905	0.963825
N240	N	0.904095	-0.071905	1.213825
N241	N	0.154092	-0.821908	0.536640
N242	N	0.404092	-0.571908	0.786640
N243	N	0.654092	-0.321908	1.036640
N244	N	0.904092	-0.071908	1.286640
C245	C	0.092935	-0.820229	0.573867
C246	C	0.342935	-0.570229	0.823867
C247	C	0.592935	-0.320229	1.073867
C248	C	0.842935	-0.070229	1.323867
C249	C	0.135180	-0.862215	0.304614
C250	C	0.385180	-0.612215	0.554614
C251	C	0.635180	-0.362215	0.804614
C252	C	0.885180	-0.112215	1.054614
C253	C	0.135189	-0.862203	0.227967
C254	C	0.385189	-0.612203	0.477967
C255	C	0.635189	-0.362203	0.727967
C256	C	0.885189	-0.112203	0.977967
C257	C	0.050711	-0.778208	0.227997
C258	C	0.300711	-0.528208	0.477997
C259	C	0.550711	-0.278208	0.727997
C260	C	0.800711	-0.028208	0.977997
C261	C	0.050710	-0.778216	0.304642
C262	C	0.300710	-0.528216	0.554642
C263	C	0.550710	-0.278216	0.804642
C264	C	0.800710	-0.028216	1.054642
C265	C	0.092943	-0.820223	0.342946
C266	C	0.342943	-0.570223	0.592946
C267	C	0.592943	-0.320223	0.842946
C268	C	0.842943	-0.070223	1.092946
N269	N	0.092939	-0.820244	0.810261
N270	N	0.342939	-0.570244	1.060261
N271	N	0.592939	-0.320244	1.310261
N272	N	0.842939	-0.070244	1.560261
H273	H	0.212662	-0.594001	-0.000048
H274	H	0.462662	-0.344001	0.249952
H275	H	0.712662	-0.094001	0.499952
H276	H	0.962662	0.155999	0.749952
H277	H	0.180426	-0.242737	-0.077434
H278	H	0.430426	0.007263	0.172566
H279	H	0.680426	0.257263	0.422566
H280	H	0.930426	0.507263	0.672566
H281	H	0.016325	-0.744010	0.196804
H282	H	0.266325	-0.494010	0.446804
H283	H	0.516325	-0.244010	0.696804
H284	H	0.766325	0.005990	0.946804
H285	H	0.169583	-0.896400	0.196760
H286	H	0.419583	-0.646400	0.446760
H287	H	0.669583	-0.396400	0.696760
H288	H	0.919583	-0.146400	0.946760
Cl289	Cl	-0.002387	-0.725421	0.352831
Cl290	Cl	0.247613	-0.475421	0.602831
Cl291	Cl	0.497613	-0.225421	0.852831
Cl292	Cl	0.747613	0.024579	1.102831
Cl293	Cl	0.188276	-0.915021	0.352771
Cl294	Cl	0.438276	-0.665021	0.602771
Cl295	Cl	0.688276	-0.415021	0.852771
Cl296	Cl	0.938276	-0.165021	1.102771
Cl297	Cl	-0.015873	-0.416619	0.096288
Cl298	Cl	0.234127	-0.166619	0.346288
Cl299	Cl	0.484127	0.083381	0.596288
Cl300	Cl	0.734127	0.333381	0.846288
H301	H	0.003536	-0.266279	0.077386
H302	H	0.253536	-0.016279	0.327386
H303	H	0.503536	0.233721	0.577386
H304	H	0.753536	0.483721	0.827386
Cl305	Cl	-0.247990	-0.679390	-0.000036
Cl306	Cl	0.002010	-0.429390	0.249964
Cl307	Cl	0.252010	-0.179390	0.499964
Cl308	Cl	0.502010	0.070610	0.749964
H309	H	-0.547539	-0.703086	-0.000054
H310	H	-0.297539	-0.453086	0.249946
H311	H	-0.047539	-0.203086	0.499946
H312	H	0.202461	0.046914	0.749946
H313	H	-0.018232	-0.624763	-0.000027
H314	H	0.231768	-0.374763	0.249973
H315	H	0.481768	-0.124763	0.499973
H316	H	0.731768	0.125237	0.749973
H317	H	0.204132	-0.015688	-0.000033
H318	H	0.454132	0.234312	0.249967
H319	H	0.704132	0.484312	0.499967
H320	H	0.954132	0.734312	0.749967
H321	H	-0.103524	-0.709594	-0.000028
H322	H	0.146476	-0.459594	0.249972
H323	H	0.396476	-0.209594	0.499972
H324	H	0.646476	0.040406	0.749972
Cl325	Cl	-0.002390	-0.725437	0.820146
Cl326	Cl	0.247610	-0.475437	1.070146
Cl327	Cl	0.497610	-0.225437	1.320146
Cl328	Cl	0.747610	0.024563	1.570146
Cl329	Cl	0.234487	-0.159407	-0.000034
Cl330	Cl	0.484487	0.090593	0.249966
Cl331	Cl	0.734487	0.340593	0.499966
Cl332	Cl	0.984487	0.590593	0.749966
H333	H	-0.578471	-0.932787	-0.000047
H334	H	-0.328471	-0.682787	0.249953
H335	H	-0.078471	-0.432787	0.499953
H336	H	0.171529	-0.182787	0.749953
H337	H	0.169561	-0.896444	0.803113
H338	H	0.419561	-0.646444	1.053113
H339	H	0.669561	-0.396444	1.303113
H340	H	0.919561	-0.146444	1.553113
Cl341	Cl	-0.730484	-0.958647	-0.000070
Cl342	Cl	-0.480484	-0.708647	0.249930
Cl343	Cl	-0.230484	-0.458647	0.499930
Cl344	Cl	0.019516	-0.208647	0.749930
Cl345	Cl	-0.286475	-0.965157	-0.000024
Cl346	Cl	-0.036475	-0.715157	0.249976
Cl347	Cl	0.213525	-0.465157	0.499976
Cl348	Cl	0.463525	-0.215157	0.749976
Cl349	Cl	-0.692000	-0.672875	-0.000069
Cl350	Cl	-0.442000	-0.422875	0.249931
Cl351	Cl	-0.192000	-0.172875	0.499931
Cl352	Cl	0.058000	0.077125	0.749931
Cl353	Cl	0.188260	-0.915043	0.647089
Cl354	Cl	0.438260	-0.665043	0.897089
Cl355	Cl	0.688260	-0.415043	1.147089
Cl356	Cl	0.938260	-0.165043	1.397089
Cl357	Cl	-0.002389	-0.725436	0.647151
Cl358	Cl	0.247611	-0.475436	0.897151
Cl359	Cl	0.497611	-0.225436	1.147151
Cl360	Cl	0.747611	0.024564	1.397151
Cl361	Cl	-0.048590	-0.481042	-0.000029
Cl362	Cl	0.201410	-0.231042	0.249971
Cl363	Cl	0.451410	0.018958	0.499971
Cl364	Cl	0.701410	0.268958	0.749971
H365	H	-0.026767	-0.046443	-0.000033
H366	H	0.223233	0.203557	0.249967
H367	H	0.473233	0.453557	0.499967
H368	H	0.723233	0.703557	0.749967
H369	H	0.210725	-0.462574	-0.000031
H370	H	0.460725	-0.212574	0.249969
H371	H	0.710725	0.037426	0.499969
H372	H	0.960725	0.287426	0.749969
Cl373	Cl	-0.052769	-0.197670	-0.000022
Cl374	Cl	0.197231	0.052330	0.249978
Cl375	Cl	0.447231	0.302330	0.499978
Cl376	Cl	0.697231	0.552330	0.749978
Cl377	Cl	0.204194	-0.387335	-0.096328
Cl378	Cl	0.454194	-0.137335	0.153672
Cl379	Cl	0.704194	0.112665	0.403672
Cl380	Cl	0.954194	0.362665	0.653672
H381	H	-0.134460	-0.939297	-0.000009
H382	H	0.115540	-0.689297	0.249991
H383	H	0.365540	-0.439297	0.499991
H384	H	0.615540	-0.189297	0.749991
