data_functionalizedCrystal
_audit_creation_method	'MofGen! by Chris Wilmer'
_symmetry_space_group_name_H-M	'P1'
_symmetry_Int_Tables_number	1
_symmetry_cell_setting	triclinic
loop_
_symmetry_equiv_pos_as_xyz
  x,y,z
_cell_length_a	21.295418
_cell_length_b	21.295417
_cell_length_c	21.295411
_cell_angle_alpha	90.021644
_cell_angle_beta	90.043738
_cell_angle_gamma	90.046319
loop_
_atom_site_label
_atom_site_type_symbol
_atom_site_fract_x
_atom_site_fract_y
_atom_site_fract_z
Zn1	Zn	0.962356	-0.250415	0.356234
Zn2	Zn	0.962258	-0.355667	0.250959
Zn3	Zn	0.857079	-0.250445	0.250943
Zn4	Zn	0.857048	-0.355680	0.356155
O5	O	0.909685	-0.303052	0.303573
O6	O	1.050432	-0.264360	0.342308
O7	O	0.948278	-0.341716	0.162867
O8	O	0.871098	-0.162351	0.264937
O9	O	1.050361	-0.341688	0.264963
O10	O	0.948444	-0.162330	0.342293
O11	O	0.871003	-0.264410	0.162856
O12	O	0.768985	-0.264422	0.264861
O13	O	0.871046	-0.341709	0.444255
O14	O	0.768963	-0.341738	0.342160
O15	O	0.948415	-0.264372	0.444313
O16	O	0.948248	-0.443758	0.264887
O17	O	0.870951	-0.443767	0.342175
C18	C	0.746134	-0.303085	0.303500
C19	C	0.676166	-0.303114	0.303484
C20	C	0.643304	-0.343426	0.343674
C21	C	0.577561	-0.343410	0.343702
C22	C	0.544683	-0.303090	0.303530
C23	C	0.577553	-0.262770	0.263337
C24	C	0.643294	-0.262783	0.263315
N25	N	0.441407	-0.298163	0.248472
N26	N	0.378956	-0.298155	0.248495
C27	C	0.346608	-0.303050	0.303596
N28	N	0.379072	-0.307965	0.358675
N29	N	0.441529	-0.307976	0.358650
C30	C	0.473398	-0.303072	0.303550
C31	C	0.242461	-0.343346	0.343820
C32	C	0.176717	-0.343326	0.343849
C33	C	0.176710	-0.262690	0.263479
C34	C	0.242453	-0.262707	0.263455
C35	C	0.275324	-0.303038	0.303625
C36	C	0.909603	-0.466603	0.303538
C37	C	0.909625	-0.536571	0.303544
C38	C	0.949910	-0.569412	0.263342
C39	C	0.949939	-0.635155	0.263356
C40	C	0.909673	-0.668054	0.303566
C41	C	0.869386	-0.635205	0.343776
C42	C	0.869362	-0.569464	0.343765
N43	N	0.854606	-0.771336	0.308340
N44	N	0.854630	-0.833787	0.308347
C45	C	0.909743	-0.866129	0.303602
N46	N	0.964832	-0.833659	0.298838
N47	N	0.964807	-0.771202	0.298828
C48	C	0.909695	-0.739339	0.303582
C49	C	0.950063	-0.970255	0.263413
C50	C	0.950094	-1.035999	0.263431
C51	C	0.869535	-1.036048	0.343848
C52	C	0.869510	-0.970305	0.343833
C53	C	0.909773	-0.937413	0.303612
C54	C	1.073876	-0.303019	0.303646
C55	C	1.143844	-0.303005	0.303677
C56	C	0.909738	-0.303038	0.467763
C57	C	0.909760	-0.303033	0.537731
C58	C	0.909785	-0.138861	0.303622
C59	C	0.909828	-0.068893	0.303642
C60	C	0.909670	-0.303019	0.140021
C61	C	0.909769	-0.302848	0.070054
C62	C	0.950044	-0.262761	0.570629
C63	C	0.950043	-0.262734	0.636371
C64	C	0.909765	-0.302989	0.669214
C65	C	0.869473	-0.343263	0.636308
C66	C	0.869470	-0.343285	0.570567
N67	N	0.904908	-0.358058	0.772428
N68	N	0.904914	-0.358036	0.834879
C69	C	0.909769	-0.302926	0.867289
N70	N	0.914629	-0.247837	0.834888
N71	N	0.914627	-0.247860	0.772430
C72	C	0.909763	-0.302970	0.740499
C73	C	0.950054	-0.262621	0.971472
C74	C	0.950049	-0.262593	1.037216
C75	C	0.869482	-0.343128	1.037151
C76	C	0.869484	-0.343151	0.971409
C77	C	0.909773	-0.302898	0.938573
H78	H	0.149962	-0.376152	0.376580
O79	O	0.989347	-1.067902	0.224496
C80	C	1.029993	-1.105831	0.260435
H81	H	1.033773	-1.085985	0.310020
H82	H	1.078474	-1.106478	0.237782
H83	H	1.010599	-1.155698	0.262564
O84	O	0.274476	-0.223574	0.224468
C85	C	0.339550	-0.232243	0.233049
H86	H	0.348562	-0.252931	0.281588
H87	H	0.364579	-0.185091	0.228855
H88	H	0.358130	-0.265716	0.195643
O89	O	0.675204	-0.382531	0.382789
C90	C	0.659205	-0.368873	0.445557
H91	H	0.641188	-0.318585	0.448833
H92	H	0.702465	-0.374351	0.476636
H93	H	0.621027	-0.402638	0.461959
O94	O	0.830378	-0.382457	0.668139
C95	C	0.844106	-0.445199	0.652091
H96	H	0.868301	-0.446513	0.604375
H97	H	0.798657	-0.473435	0.649807
H98	H	0.876459	-0.466384	0.689112
O99	O	0.830442	-1.068095	0.382852
C100	C	0.839115	-1.133163	0.374256
H101	H	0.859756	-1.142146	0.325703
H102	H	0.791971	-1.158203	0.378475
H103	H	0.872629	-1.151756	0.411639
H104	H	0.982852	-0.229795	1.064000
H105	H	0.836704	-0.943564	0.376567
O106	O	0.989087	-0.938269	0.224283
C107	C	0.953254	-0.900297	0.183583
H108	H	0.903686	-0.920173	0.179634
H109	H	0.976046	-0.899550	0.135168
H110	H	0.951053	-0.850465	0.203034
O111	O	0.545645	-0.223516	0.224380
C112	C	0.561794	-0.160799	0.238237
H113	H	0.579925	-0.157696	0.288525
H114	H	0.518583	-0.129687	0.232886
H115	H	0.599932	-0.144300	0.204505
O116	O	0.830250	-0.667063	0.382895
C117	C	0.794676	-0.623975	0.418366
H118	H	0.820442	-0.577081	0.420571
H119	H	0.787945	-0.642952	0.467958
H120	H	0.746875	-0.617051	0.395255
O121	O	0.545599	-0.382481	0.382808
C122	C	0.507638	-0.346696	0.423533
H123	H	0.527507	-0.297129	0.427515
H124	H	0.506915	-0.369540	0.471933
H125	H	0.457798	-0.344484	0.404085
O126	O	0.830419	-0.382217	1.069144
C127	C	0.839048	-0.373553	1.134224
H128	H	0.887638	-0.352917	1.143239
H129	H	0.834758	-0.420699	1.159202
H130	H	0.801726	-0.340039	1.152857
H131	H	0.982850	-0.229984	0.543898
H132	H	0.982846	-0.229937	0.663162
H133	H	0.836663	-0.376078	0.543782
H134	H	0.982857	-0.229842	0.944736
H135	H	0.836557	-0.542724	0.376503
O136	O	0.830334	-0.382333	0.939546
C137	C	0.794769	-0.417847	0.982628
H138	H	0.820554	-0.420008	1.029509
H139	H	0.788021	-0.467451	0.963625
H140	H	0.746976	-0.394799	0.989587
H141	H	0.982696	-0.542633	0.230593
O142	O	0.675191	-0.223693	0.224179
C143	C	0.659029	-0.237343	0.161421
H144	H	0.640899	-0.287623	0.158157
H145	H	0.702234	-0.231887	0.130316
H146	H	0.620887	-0.203560	0.145043
H147	H	0.269226	-0.376183	0.376531
H148	H	0.149942	-0.229857	0.230773
H149	H	0.982746	-0.661899	0.230619
