data_functionalizedCrystal
_audit_creation_method	'MofGen! by Chris Wilmer'
_symmetry_space_group_name_H-M	'P1'
_symmetry_Int_Tables_number	1
_symmetry_cell_setting	triclinic
loop_
_symmetry_equiv_pos_as_xyz
  x,y,z
_cell_length_a	13.897441
_cell_length_b	16.120530
_cell_length_c	13.897448
_cell_angle_alpha	87.113275
_cell_angle_beta	89.969401
_cell_angle_gamma	87.080937
loop_
_atom_site_label
_atom_site_type_symbol
_atom_site_fract_x
_atom_site_fract_y
_atom_site_fract_z
Zn1	Zn	-0.620100	1.274607	-0.458859
Zn2	Zn	-0.286767	1.607940	-0.125526
Zn3	Zn	0.046566	1.941274	0.207808
Zn4	Zn	-0.458796	1.274515	-0.620175
Zn5	Zn	-0.125463	1.607849	-0.286842
Zn6	Zn	0.207870	1.941182	0.046491
Zn7	Zn	-0.450646	1.135184	-0.450711
Zn8	Zn	-0.117312	1.468517	-0.117378
Zn9	Zn	0.216021	1.801850	0.215956
Zn10	Zn	-0.611880	1.135168	-0.611923
Zn11	Zn	-0.278547	1.468501	-0.278589
Zn12	Zn	0.054786	1.801835	0.054744
O13	O	-0.535356	1.204869	-0.535417
O14	O	-0.202022	1.538202	-0.202084
O15	O	0.131311	1.871535	0.131250
O16	O	-0.605554	1.391262	-0.487122
O17	O	-0.272221	1.724595	-0.153788
O18	O	0.061112	2.057928	0.179545
O19	O	-0.322732	1.256001	-0.597739
O20	O	0.010602	1.589334	-0.264406
O21	O	0.343935	1.922668	0.068927
O22	O	-0.473153	1.153724	-0.316813
O23	O	-0.139820	1.487057	0.016520
O24	O	0.193514	1.820390	0.349854
O25	O	-0.487045	1.391194	-0.605640
O26	O	-0.153712	1.724528	-0.272307
O27	O	0.179622	2.057861	0.061027
O28	O	-0.597651	1.256157	-0.322799
O29	O	-0.264318	1.589491	0.010534
O30	O	0.069016	1.922824	0.343867
O31	O	-0.316743	1.153635	-0.473235
O32	O	0.016590	1.486968	-0.139901
O33	O	0.349923	1.820301	0.193432
O34	O	-0.465182	1.018515	-0.465232
O35	O	-0.131849	1.351848	-0.131899
O36	O	0.201484	1.685182	0.201434
O37	O	-0.747954	1.153697	-0.591574
O38	O	-0.414621	1.487030	-0.258241
O39	O	-0.081288	1.820363	0.075092
O40	O	-0.583641	1.018503	-0.583674
O41	O	-0.250308	1.351837	-0.250340
O42	O	0.083026	1.685170	0.082993
O43	O	-0.753994	1.256142	-0.479119
O44	O	-0.420660	1.589475	-0.145786
O45	O	-0.087327	1.922809	0.187547
O46	O	-0.479074	1.255986	-0.754060
O47	O	-0.145741	1.589319	-0.420726
O48	O	0.187592	1.922652	-0.087393
O49	O	-0.591544	1.153608	-0.747996
O50	O	-0.258211	1.486941	-0.414663
O51	O	0.075122	1.820274	-0.081330
C52	C	-0.522636	0.988259	-0.522674
C53	C	-0.189302	1.321592	-0.189341
C54	C	0.144031	1.654926	0.143993
C55	C	-0.517217	0.895592	-0.517246
C56	C	-0.183884	1.228926	-0.183913
C57	C	0.149450	1.562259	0.149421
C58	C	-0.786952	1.204928	-0.535335
C59	C	-0.453619	1.538261	-0.202002
C60	C	-0.120286	1.871594	0.131331
C61	C	-0.894168	1.204953	-0.535300
C62	C	-0.560834	1.538286	-0.201967
C63	C	-0.227501	1.871620	0.131366
C64	C	-1.090464	1.204976	-0.535236
C65	C	-0.757131	1.538309	-0.201903
C66	C	-0.423798	1.871642	0.131430
C67	C	-0.981231	1.204960	-0.535275
C68	C	-0.647898	1.538294	-0.201941
C69	C	-0.314564	1.871627	0.131392
C70	C	-0.507332	0.725929	-0.507313
C71	C	-0.173999	1.059263	-0.173980
C72	C	0.159335	1.392596	0.159354
C73	C	-0.563450	0.684648	-0.563592
C74	C	-0.230116	1.017981	-0.230259
C75	C	0.103217	1.351315	0.103074
C76	C	-0.557950	0.590242	-0.558065
C77	C	-0.224616	0.923575	-0.224732
C78	C	0.108717	1.256909	0.108601
C79	C	-0.512831	0.820344	-0.512838
C80	C	-0.179497	1.153678	-0.179505
C81	C	0.153836	1.487011	0.153828
C82	C	-0.284741	1.204858	-0.535432
C83	C	0.048593	1.538191	-0.202098
C84	C	0.381926	1.871524	0.131235
C85	C	-0.177535	1.204994	-0.535204
C86	C	0.155798	1.538327	-0.201871
C87	C	0.489131	1.871661	0.131462
C88	C	-0.535324	1.204808	-0.786028
C89	C	-0.201991	1.538141	-0.452694
C90	C	0.131342	1.871474	-0.119361
C91	C	-0.535347	1.204858	-0.893245
C92	C	-0.202014	1.538191	-0.559911
C93	C	0.131319	1.871525	-0.226578
C94	C	-0.548126	1.422324	-0.548210
C95	C	-0.214792	1.755657	-0.214877
C96	C	0.118541	2.088991	0.118456
C97	C	-0.553568	1.514991	-0.553662
C98	C	-0.220234	1.848324	-0.220329
C99	C	0.113099	2.181657	0.113005
C100	C	-0.535413	1.204945	-1.089545
C101	C	-0.202080	1.538279	-0.756212
C102	C	0.131254	1.871612	-0.422878
C103	C	-0.535379	1.204894	-0.980309
C104	C	-0.202046	1.538228	-0.646976
C105	C	0.131287	1.871561	-0.313643
C106	C	-0.535410	1.204952	-0.283829
C107	C	-0.202076	1.538286	0.049504
C108	C	0.131257	1.871619	0.382838
C109	C	-0.535433	1.204988	-0.176617
C110	C	-0.202099	1.538321	0.156716
C111	C	0.131234	1.871655	0.490050
H112	H	-0.615626	0.720207	-0.615924
H113	H	-0.282292	1.053541	-0.282591
H114	H	0.051041	1.386874	0.050743
H115	H	-0.455161	0.690372	-0.454985
H116	H	-0.121828	1.023706	-0.121651
H117	H	0.211506	1.357039	0.211682
