data_functionalizedCrystal
_audit_creation_method	'MofGen! by Chris Wilmer'
_symmetry_space_group_name_H-M	'P1'
_symmetry_Int_Tables_number	1
_symmetry_cell_setting	triclinic
loop_
_symmetry_equiv_pos_as_xyz
  x,y,z
_cell_length_a	15.072220
_cell_length_b	10.540539
_cell_length_c	10.540539
_cell_angle_alpha	84.525492
_cell_angle_beta	89.998911
_cell_angle_gamma	90.010475
loop_
_atom_site_label
_atom_site_type_symbol
_atom_site_fract_x
_atom_site_fract_y
_atom_site_fract_z
O1	O	-0.073736	-1.685903	-0.178892
O2	O	-0.073747	-1.316490	-0.195748
O3	O	-0.073740	-1.509624	-0.002614
O4	O	-0.073743	-1.492768	-0.372027
O5	O	0.073825	-1.509576	-0.002624
O6	O	0.073818	-1.316442	-0.195758
O7	O	0.073829	-1.685855	-0.178903
Zn8	Zn	0.097253	-1.501141	-0.187332
Zn9	Zn	-0.097171	-1.501204	-0.187318
O10	O	0.073822	-1.492720	-0.372037
C11	C	0.000035	-1.269163	-0.194489
C12	C	0.000030	-1.128215	-0.190707
N13	N	0.229942	-1.501107	-0.187341
N14	N	-0.229859	-1.501248	-0.187300
C15	C	0.589143	-1.501201	-0.187313
C16	C	0.551533	-1.397506	-0.290303
C17	C	0.448707	-1.397749	-0.290685
C18	C	0.410939	-1.501153	-0.187327
C19	C	0.448234	-1.633872	-0.217458
C20	C	0.551092	-1.633293	-0.218192
C21	C	0.551244	-1.473356	-0.053895
C22	C	0.448380	-1.470325	-0.054756
C23	C	0.310226	-1.501134	-0.187332
C24	C	0.689857	-1.501229	-0.187311
C25	C	0.000041	-1.508336	0.044684
C26	C	0.000036	-1.504554	0.185632
C27	C	0.000046	-1.733182	-0.180161
C28	C	0.000044	-1.874130	-0.183943
C29	C	0.000376	-0.944788	-0.045790
C30	C	0.000034	-1.091406	-0.049624
C31	C	-0.084234	-1.066570	-0.258597
C32	C	-0.084295	-0.920025	-0.253782
C33	C	0.083514	-0.919482	-0.256664
C34	C	0.084619	-1.066464	-0.257963
C35	C	0.000040	-1.494008	-0.419335
C36	C	0.000039	-1.497790	-0.560283
C37	C	-0.000299	-1.359637	0.369059
C38	C	0.000033	-1.363471	0.222441
C39	C	0.084305	-1.572422	0.247284
C40	C	0.084376	-1.567607	0.393828
C41	C	-0.083433	-1.570532	0.394359
C42	C	-0.084547	-1.571831	0.247377
H43	H	0.423493	-1.299135	-0.272555
C44	C	0.415180	-1.740679	-0.118888
N45	N	0.390282	-1.821123	-0.044643
H46	H	0.577371	-1.415172	-0.388727
C47	C	0.169022	-1.508673	0.189739
N48	N	0.232828	-1.460647	0.146399
C49	C	-0.084199	-1.708196	0.458166
N50	N	-0.084771	-1.811879	0.506234
H51	H	0.087441	-1.676029	0.224930
C52	C	0.585001	-1.263856	-0.266215
N53	N	0.610221	-1.163189	-0.248076
C54	C	-0.168769	-1.504810	0.192112
N55	N	-0.232204	-1.454316	0.150490
H56	H	-0.059717	-0.914600	0.009714
C57	C	-0.091416	-1.710800	0.214666
N58	N	-0.096580	-1.815477	0.190034
H59	H	0.424093	-1.415655	-0.389667
H60	H	-0.060730	-1.303926	0.397663
C61	C	0.584703	-1.740778	-0.120825
N62	N	0.610015	-1.821749	-0.047506
C63	C	0.583492	-1.666169	-0.349698
N64	N	0.607891	-1.690922	-0.448756
C65	C	0.169467	-1.499777	0.431920
N66	N	0.233557	-1.448681	0.460604
C67	C	-0.169720	-1.508868	0.436985
N68	N	-0.234706	-1.462409	0.469088
H69	H	0.059790	-1.304113	0.399262
C70	C	-0.168955	-1.124121	-0.194868
N71	N	-0.232765	-1.167466	-0.146859
C72	C	0.413434	-1.667511	-0.347478
N73	N	0.387227	-1.692838	-0.445415
C74	C	0.091502	-1.099210	-0.396916
N75	N	0.096685	-1.123883	-0.501578
C76	C	0.586319	-1.345336	-0.015183
N77	N	0.612738	-1.248904	0.013961
C78	C	0.168836	-1.121726	-0.190923
N79	N	0.232267	-1.163347	-0.140418
H80	H	0.060807	-0.916183	0.009941
H81	H	0.147386	-0.887915	-0.211010
C82	C	0.084285	-0.855676	-0.394328
N83	N	0.084860	-0.807610	-0.498012
H84	H	-0.060474	-1.133171	0.004180
C85	C	0.081775	-1.290770	0.166020
N86	N	0.143348	-1.236009	0.123524
C87	C	-0.081571	-1.291314	0.164887
N88	N	-0.143035	-1.236955	0.121543
H89	H	0.422674	-1.540854	0.025567
C90	C	0.415457	-1.338418	-0.023904
N91	N	0.390656	-1.239064	-0.000670
H92	H	0.575564	-1.548963	0.022760
H93	H	0.060439	-1.134000	0.003795
H94	H	-0.147283	-0.891835	-0.203596
H95	H	-0.088120	-0.872057	-0.355246
C96	C	-0.088477	-1.096774	-0.398565
N97	N	-0.091671	-1.119528	-0.503988
H98	H	0.088202	-1.669071	0.441797
