data_functionalizedCrystal
_audit_creation_method	'MofGen! by Chris Wilmer'
_symmetry_space_group_name_H-M	'P1'
_symmetry_Int_Tables_number	1
_symmetry_cell_setting	triclinic
loop_
_symmetry_equiv_pos_as_xyz
  x,y,z
_cell_length_a	17.699083
_cell_length_b	14.044220
_cell_length_c	16.176319
_cell_angle_alpha	89.992517
_cell_angle_beta	89.998611
_cell_angle_gamma	88.235946
loop_
_atom_site_label
_atom_site_type_symbol
_atom_site_fract_x
_atom_site_fract_y
_atom_site_fract_z
O1	O	1.012346	0.119850	-0.068632
O2	O	0.793044	0.135443	-0.068659
O3	O	0.899403	-0.010330	-0.068638
O4	O	0.905987	0.265624	-0.068653
O5	O	0.899387	-0.010340	0.068855
O6	O	0.793027	0.135434	0.068834
O7	O	1.012330	0.119841	0.068861
Cu8	Cu	0.902677	0.127637	0.081402
Cu9	Cu	0.902696	0.127648	-0.081200
O10	O	0.905970	0.265614	0.068840
C11	C	0.764800	0.134880	0.000084
C12	C	0.680666	0.133204	0.000074
C13	C	0.637948	0.218769	0.000069
C14	C	0.558895	0.217189	0.000080
C15	C	0.522563	0.130041	0.000089
C16	C	0.565287	0.044469	0.000096
C17	C	0.644338	0.046050	0.000092
C18	C	0.246484	0.038089	0.000117
C19	C	0.167427	0.036514	0.000120
C20	C	0.161041	0.209227	0.000106
C21	C	0.240092	0.210809	0.000101
C22	C	0.282809	0.125237	0.000112
C23	C	0.368527	0.126952	0.000102
C24	C	0.436847	0.128325	0.000094
C25	C	0.896513	-0.045643	0.000109
C26	C	0.887917	-0.150849	0.000109
C27	C	0.872202	-0.343474	0.000095
C28	C	0.933168	-0.401248	0.000100
C29	C	0.924424	-0.508431	0.000092
C30	C	0.880945	-0.236281	0.000102
C31	C	1.040574	0.120404	0.000116
C32	C	1.124707	0.122081	0.000121
C33	C	0.908860	0.300927	0.000091
C34	C	0.917456	0.406133	0.000086
N35	N	0.902668	0.127628	0.195767
N36	N	0.902710	0.127648	-0.195565
C37	C	0.949782	0.063106	0.239041
C38	C	0.949786	0.063105	0.325588
C39	C	0.902679	0.127632	0.368860
C40	C	0.855561	0.192157	0.325580
C41	C	0.855554	0.192153	0.239034
C42	C	0.855588	0.192175	0.674608
C43	C	0.855600	0.192176	0.761160
C44	C	0.949820	0.063127	0.761161
C45	C	0.949813	0.063123	0.674616
C46	C	0.902692	0.127644	0.631344
C47	C	0.902687	0.127643	0.537500
C48	C	0.902687	0.127638	0.462702
H49	H	0.281255	-0.031590	0.000127
C50	C	1.012553	-0.359329	0.000123
C51	C	1.021306	-0.250575	0.000138
C52	C	1.100688	-0.208652	0.000166
C53	C	1.171318	-0.275481	0.000179
C54	C	1.162568	-0.384242	0.000164
C55	C	1.083186	-0.426165	0.000136
H56	H	0.969019	-0.201098	0.000129
H57	H	1.107165	-0.128140	0.000177
H58	H	1.230081	-0.244447	0.000200
H59	H	1.214854	-0.433719	0.000174
H60	H	1.076709	-0.506677	0.000125
C61	C	0.803742	0.263139	0.373174
C62	C	0.803785	0.263197	0.468371
C63	C	0.751967	0.334183	0.515963
C64	C	0.700106	0.405112	0.468357
C65	C	0.700060	0.405057	0.373155
C66	C	0.751879	0.334070	0.325564
H67	H	0.842178	0.210689	0.503616
H68	H	0.752001	0.334224	0.586438
H69	H	0.661747	0.457660	0.503587
H70	H	0.661668	0.457565	0.337911
H71	H	0.751845	0.334030	0.255089
H72	H	0.988148	0.010566	0.360821
H73	H	0.524117	0.286865	0.000075
H74	H	0.126251	0.278904	0.000101
H75	H	0.817188	0.244692	0.203802
H76	H	0.813445	-0.374508	0.000085
H77	H	0.667523	0.289735	0.000061
C78	C	1.001600	-0.007876	0.191446
C79	C	1.053420	-0.078853	0.239051
C80	C	1.105239	-0.149839	0.191460
C81	C	1.105237	-0.149849	0.096263
C82	C	1.053415	-0.078869	0.048653
C83	C	1.001597	-0.007883	0.096244
H84	H	1.053423	-0.078848	0.309526
H85	H	1.143600	-0.202383	0.226705
H86	H	1.143596	-0.202397	0.061033
H87	H	1.053412	-0.078874	-0.021822
H88	H	0.963235	0.044661	0.060999
H89	H	0.988174	0.010583	0.639387
C90	C	0.280055	0.306674	0.000093
C91	C	0.266551	0.377691	0.071490
C92	C	0.306512	0.473559	0.071487
C93	C	0.359976	0.498408	0.000087
C94	C	0.373483	0.427389	-0.071315
C95	C	0.333522	0.331521	-0.071312
H96	H	0.226971	0.359298	0.124349
H97	H	0.296513	0.526132	0.124344
H98	H	0.389558	0.569375	0.000085
H99	H	0.413063	0.445782	-0.124174
H100	H	0.343521	0.278948	-0.124168
H101	H	0.988186	0.010587	0.796403
H102	H	0.137848	-0.034456	0.000128
C103	C	0.803775	0.263154	0.808761
C104	C	0.751941	0.334123	0.761167
C105	C	0.700120	0.405097	0.808768
C106	C	0.700134	0.405102	0.903965
C107	C	0.751971	0.334130	0.951565
C108	C	0.803791	0.263156	0.903963
H109	H	0.751928	0.334121	0.690691
H110	H	0.661747	0.457635	0.773531
H111	H	0.661773	0.457641	0.939203
H112	H	0.751983	0.334131	1.022040
H113	H	0.842164	0.210618	0.939200
H114	H	0.535699	-0.026488	0.000116
H115	H	0.679119	-0.023626	0.000095
H116	H	0.817222	0.244712	0.639383
