data_functionalizedCrystal
_audit_creation_method	'MofGen! by Chris Wilmer'
_symmetry_space_group_name_H-M	'P1'
_symmetry_Int_Tables_number	1
_symmetry_cell_setting	triclinic
loop_
_symmetry_equiv_pos_as_xyz
  x,y,z
_cell_length_a	19.077068
_cell_length_b	11.169417
_cell_length_c	11.169409
_cell_angle_alpha	89.978317
_cell_angle_beta	87.740935
_cell_angle_gamma	87.674073
loop_
_atom_site_label
_atom_site_type_symbol
_atom_site_fract_x
_atom_site_fract_y
_atom_site_fract_z
Zn1	Zn	-0.280162	-1.815627	0.697726
Zn2	Zn	0.219838	-1.315627	1.197726
Zn3	Zn	-0.397882	-1.807392	0.505079
Zn4	Zn	0.102118	-1.307392	1.005079
Zn5	Zn	-0.280201	-1.614910	0.497057
Zn6	Zn	0.219799	-1.114910	0.997057
Zn7	Zn	-0.397821	-1.606800	0.705713
Zn8	Zn	0.102179	-1.106800	1.205713
O9	O	-0.339017	-1.711182	0.601394
O10	O	0.160983	-1.211182	1.101394
O11	O	-0.295788	-1.982484	0.672186
O12	O	0.204212	-1.482484	1.172186
O13	O	-0.382314	-1.781807	0.336068
O14	O	0.117686	-1.281807	0.836068
O15	O	-0.181706	-1.648376	0.516976
O16	O	0.318294	-1.148376	1.016976
O17	O	-0.382276	-1.976434	0.530649
O18	O	0.117724	-1.476434	1.030649
O19	O	-0.181677	-1.795842	0.664407
O20	O	0.318323	-1.295842	1.164407
O21	O	-0.295854	-1.640391	0.330174
O22	O	0.204146	-1.140391	0.830174
O23	O	-0.295794	-1.445885	0.524721
O24	O	0.204206	-0.945885	1.024721
O25	O	-0.382171	-1.634554	0.872601
O26	O	0.117829	-1.134554	1.372601
O27	O	-0.382209	-1.439927	0.678020
O28	O	0.117791	-0.939927	1.178020
O29	O	-0.295728	-1.787978	0.866733
O30	O	0.204272	-1.287978	1.366733
O31	O	-0.496365	-1.773943	0.538393
O32	O	0.003635	-1.273943	1.038393
O33	O	-0.496319	-1.626569	0.685798
O34	O	0.003681	-1.126569	1.185798
C35	C	-0.339000	-1.399359	0.601367
C36	C	0.161000	-0.899359	1.101367
C37	C	-0.339010	-1.265958	0.601385
C38	C	0.160990	-0.765958	1.101385
C39	C	-0.521879	-1.698515	0.613859
C40	C	-0.021879	-1.198515	1.113859
C41	C	-0.600109	-1.693205	0.619232
C42	C	-0.100109	-1.193205	1.119232
C43	C	-0.636861	-1.767500	0.545074
C44	C	-0.136861	-1.267500	1.045074
C45	C	-0.710366	-1.762513	0.550135
C46	C	-0.210366	-1.262513	1.050135
C47	C	-0.747117	-1.683225	0.629348
C48	C	-0.247117	-1.183225	1.129348
C49	C	-0.710360	-1.608927	0.703514
C50	C	-0.210360	-1.108927	1.203514
C51	C	-0.636856	-1.613921	0.698459
C52	C	-0.136856	-1.113921	1.198459
C53	C	-0.966949	-1.660061	0.652696
C54	C	-0.466949	-1.160061	1.152696
C55	C	-1.040458	-1.655071	0.657743
C56	C	-0.540458	-1.155071	1.157743
C57	C	-1.040459	-1.808659	0.504364
C58	C	-0.540459	-1.308659	1.004364
C59	C	-0.966954	-1.813641	0.499311
C60	C	-0.466954	-1.313641	0.999311
C61	C	-0.930203	-1.739348	0.573481
C62	C	-0.430203	-1.239348	1.073481
N63	N	-0.822251	-1.678123	0.634520
N64	N	-0.322251	-1.178123	1.134520
N65	N	-0.855071	-1.744456	0.568315
N66	N	-0.355071	-1.244456	1.068315
C67	C	-0.155440	-1.723932	0.588906
C68	C	0.344560	-1.223932	1.088906
C69	C	-0.077210	-1.729366	0.583585
C70	C	0.422790	-1.229366	1.083585
C71	C	-0.338939	-1.711280	0.914431
C72	C	0.161061	-1.211280	1.414431
C73	C	-0.338905	-1.711322	1.047829
C74	C	0.161095	-1.211322	1.547829
C75	C	-0.339028	-1.024224	0.601412
C76	C	0.160972	-0.524224	1.101412
C77	C	-0.339018	-1.157625	0.601394
C78	C	0.160982	-0.657625	1.101394
C79	C	-0.339044	-1.711158	0.289571
C80	C	0.160956	-1.211158	0.789571
C81	C	-0.338879	-1.711362	0.156160
C82	C	0.161121	-1.211362	0.656160
H83	H	-0.606943	-1.832060	0.480565
H84	H	-0.106943	-1.332060	0.980565
H85	H	-0.740287	-1.823011	0.489746
H86	H	-0.240287	-1.323011	0.989746
Br87	Br	-0.917083	-1.921266	0.391819
Br88	Br	-0.417083	-1.421266	0.891819
H89	H	-1.070390	-1.869146	0.443980
H90	H	-0.570390	-1.369146	0.943980
Br91	Br	-0.586977	-1.513096	0.799114
Br92	Br	-0.086977	-1.013096	1.299114
Br93	Br	-1.090335	-1.547437	0.765233
Br94	Br	-0.590335	-1.047437	1.265233
H95	H	-0.740288	-1.544374	0.768016
H96	H	-0.240288	-1.044374	1.268016
Br97	Br	-0.917082	-1.559234	0.753357
Br98	Br	-0.417082	-1.059234	1.253357
