data_functionalizedCrystal
_audit_creation_method	'MofGen! by Chris Wilmer'
_symmetry_space_group_name_H-M	'P1'
_symmetry_Int_Tables_number	1
_symmetry_cell_setting	triclinic
loop_
_symmetry_equiv_pos_as_xyz
  x,y,z
_cell_length_a	10.540539
_cell_length_b	15.995350
_cell_length_c	9.016244
_cell_angle_alpha	89.999993
_cell_angle_beta	89.994699
_cell_angle_gamma	84.008933
loop_
_atom_site_label
_atom_site_type_symbol
_atom_site_fract_x
_atom_site_fract_y
_atom_site_fract_z
O1	O	1.684271	0.117994	-0.123262
O2	O	1.314706	0.129112	-0.123280
O3	O	1.509591	0.001726	-0.123269
O4	O	1.489386	0.245380	-0.123273
O5	O	1.509562	0.001729	0.123411
O6	O	1.314677	0.129115	0.123401
O7	O	1.684243	0.117997	0.123418
Cu8	Cu	1.499457	0.123556	0.145934
Cu9	Cu	1.499491	0.123553	-0.145795
O10	O	1.489358	0.245383	0.123408
C11	C	1.267400	0.128280	0.000058
C12	C	1.126486	0.125785	0.000051
C13	C	0.944373	0.030202	0.000629
C14	C	1.090956	0.032730	0.000057
C15	C	1.064214	0.170565	-0.140811
C16	C	0.917713	0.167389	-0.140913
C17	C	0.917166	0.169286	0.139609
C18	C	1.064137	0.170143	0.141455
C19	C	1.508741	-0.029472	0.000068
C20	C	1.506237	-0.122438	0.000060
C21	C	1.497244	-0.460239	0.000064
C22	C	1.358450	-0.413635	-0.000496
C23	C	1.360955	-0.316930	0.000061
C24	C	1.501705	-0.292652	0.000061
C25	C	1.570146	-0.333318	0.140929
C26	C	1.566660	-0.429975	0.141046
C27	C	1.569559	-0.430319	-0.139476
C28	C	1.569527	-0.333374	-0.141337
C29	C	1.504233	-0.197939	0.000064
C30	C	1.494719	-0.554952	0.000071
C31	C	1.731549	0.118829	0.000077
C32	C	1.872462	0.121324	0.000074
C33	C	1.490207	0.276581	0.000067
C34	C	1.492711	0.369547	0.000066
N35	N	1.499443	0.123558	0.351120
N36	N	1.499516	0.123544	-0.350981
C37	C	1.394878	0.191473	0.586147
C38	C	1.395104	0.191727	0.414256
C39	C	1.631893	0.143433	0.413464
C40	C	1.631320	0.143914	0.585409
C41	C	1.472879	0.035546	0.585663
C42	C	1.469826	0.036116	0.413709
H43	H	0.889970	0.134290	-0.246208
Br44	Br	1.422848	0.299678	0.658103
H45	H	1.672168	-0.317398	-0.149842
Br46	Br	1.742497	-0.308749	0.149670
Br47	Br	0.836918	0.281311	0.141194
Br48	Br	1.670443	0.250919	0.652236
Br49	Br	1.161326	-0.026151	-0.168826
H50	H	1.296652	0.179768	0.372107
Br51	Br	0.836222	0.278929	-0.151571
H52	H	1.134043	-0.002504	0.101034
H53	H	1.306769	-0.289388	0.101207
Br54	Br	1.483433	-0.460979	0.316549
Br55	Br	1.099942	0.284457	-0.149589
Br56	Br	1.307432	0.011003	0.345802
Br57	Br	1.764864	0.064565	0.654733
Br58	Br	1.736492	-0.482713	0.151719
H59	H	1.087429	0.237986	0.149959
H60	H	1.522587	-0.305220	0.245757
Br61	Br	1.588601	-0.052186	0.342109
H62	H	1.105536	0.137429	0.245665
H63	H	1.107242	0.139456	-0.245643
Br64	Br	1.671946	0.249229	0.341669
Br65	Br	1.271284	-0.270091	-0.168246
Br66	Br	1.493935	-0.464995	-0.317433
Br67	Br	1.315383	0.004033	0.658018
Br68	Br	1.486824	-0.287915	-0.315058
H69	H	1.296115	0.179697	0.627535
Br70	Br	0.865264	0.119093	0.317572
H71	H	1.412106	0.257014	0.373109
Br72	Br	1.740118	-0.482235	-0.141056
Br73	Br	1.764765	0.063222	0.345310
H74	H	1.549185	-0.015013	0.626319
H75	H	1.302987	-0.432500	-0.101514
Br76	Br	1.266112	-0.447241	0.166417
H77	H	0.916281	-0.006559	0.101649
H78	H	0.914680	-0.006406	-0.099828
