data_functionalizedCrystal
_audit_creation_method	'MofGen! by Chris Wilmer'
_symmetry_space_group_name_H-M	'P1'
_symmetry_Int_Tables_number	1
_symmetry_cell_setting	triclinic
loop_
_symmetry_equiv_pos_as_xyz
  x,y,z
_cell_length_a	16.109296
_cell_length_b	17.699083
_cell_length_c	14.586319
_cell_angle_alpha	90.002525
_cell_angle_beta	90.004442
_cell_angle_gamma	96.628848
loop_
_atom_site_label
_atom_site_type_symbol
_atom_site_fract_x
_atom_site_fract_y
_atom_site_fract_z
O1	O	-0.105137	1.004223	-0.076113
O2	O	-0.118816	0.783864	-0.076143
O3	O	0.009066	0.900099	-0.076120
O4	O	-0.233018	0.887988	-0.076137
O5	O	0.009067	0.900091	0.076361
O6	O	-0.118814	0.783856	0.076337
O7	O	-0.105135	1.004215	0.076368
Cu8	Cu	-0.111974	0.894035	0.090275
Cu9	Cu	-0.111976	0.894044	-0.090051
O10	O	-0.233016	0.887980	0.076344
C11	C	-0.118325	0.755662	0.000093
C12	C	-0.116854	0.671642	0.000082
C13	C	-0.191918	0.623127	0.000077
C14	C	-0.190531	0.544182	0.000089
C15	C	-0.114080	0.513753	0.000099
C16	C	-0.039011	0.562274	0.000107
C17	C	-0.040398	0.641218	0.000102
C18	C	-0.033414	0.243903	0.000130
C19	C	-0.032032	0.164954	0.000133
C20	C	-0.183547	0.146867	0.000117
C21	C	-0.184934	0.225811	0.000112
C22	C	-0.109865	0.274325	0.000125
C23	C	-0.111370	0.359926	0.000113
C24	C	-0.112575	0.428153	0.000104
C25	C	0.040041	0.899605	0.000120
C26	C	0.132334	0.898136	0.000120
C27	C	0.441443	0.962306	0.000117
C28	C	0.354725	0.963693	0.000121
C29	C	0.334614	0.825786	0.000114
C30	C	0.421331	0.824400	0.000117
C31	C	0.474743	0.892662	0.000113
C32	C	0.301309	0.895435	0.000115
C33	C	0.207285	0.896939	0.000120
C34	C	0.568773	0.891159	0.000110
C35	C	0.736010	0.888478	0.000105
C36	C	0.643719	0.889961	0.000108
C37	C	-0.105626	1.032417	0.000129
C38	C	-0.107096	1.116437	0.000134
N39	N	-0.111972	0.894034	0.217107
N40	N	-0.111972	0.894051	-0.216883
C41	C	-0.055365	0.945519	0.452124
C42	C	-0.055363	0.945522	0.548105
C43	C	-0.168581	0.842560	0.548094
C44	C	-0.168579	0.842555	0.452114
C45	C	-0.111972	0.894039	0.404132
C46	C	-0.111972	0.894046	0.596093
C47	C	-0.111971	0.894048	0.700160
C48	C	-0.111972	0.894036	0.300058
H49	H	-0.244671	0.107357	0.000112
H50	H	-0.214675	0.800629	0.413036
H51	H	0.027712	0.283395	0.000141
C52	C	0.109512	0.651172	0.000102
C53	C	0.042114	0.694549	0.000098
H54	H	0.160452	0.684098	0.000097
H55	H	0.106904	0.620012	0.053275
H56	H	0.106893	0.619998	-0.053073
H57	H	0.044729	0.725720	0.053277
H58	H	0.044723	0.725723	-0.053079
C59	C	0.550638	1.040749	0.078505
C60	C	0.500157	1.037337	0.000122
H61	H	0.586887	1.087069	0.078505
H62	H	0.516394	1.038425	0.131668
H63	H	0.582880	0.999070	0.078491
H64	H	0.467911	1.079013	0.000139
H65	H	0.534405	1.039668	-0.053055
C66	C	0.430895	0.706426	-0.078281
C67	C	0.457942	0.747842	0.000109
H68	H	0.453503	0.659167	-0.078284
H69	H	0.371613	0.697481	-0.078276
H70	H	0.449240	0.734539	-0.131445
H71	H	0.439591	0.719731	0.053273
H72	H	0.517236	0.756785	0.000113
H73	H	0.327617	1.020404	0.000126
C74	C	0.030395	0.449292	0.000114
C75	C	0.045027	0.528829	0.000116
H76	H	0.082279	0.428648	0.000112
H77	H	-0.000498	0.432645	0.053282
H78	H	-0.000507	0.432643	-0.053065
H79	H	0.075924	0.545479	0.053299
H80	H	0.075933	0.545483	-0.053057
H81	H	-0.009271	0.987440	0.413059
H82	H	0.291116	0.770210	0.000115
C83	C	0.056539	1.047300	0.538469
C84	C	0.006857	1.002114	0.600858
H85	H	0.094949	1.082241	0.571038
H86	H	0.086401	1.015805	0.501039
H87	H	0.021957	1.074508	0.501029
H88	H	0.041438	0.974902	0.638294
H89	H	-0.023008	1.033613	0.638304
H90	H	-0.214671	0.800644	0.587171
H91	H	-0.254173	0.647895	0.000068
H92	H	-0.251656	0.504683	0.000084
H93	H	0.030227	0.140182	0.000142
C94	C	-0.334566	0.200001	0.000109
C95	C	-0.268971	0.259257	0.000105
H96	H	-0.386447	0.220650	0.000113
H97	H	-0.330879	0.169585	-0.053060
H98	H	-0.330865	0.169588	0.053287
H99	H	-0.272669	0.289666	-0.053077
H100	H	-0.272661	0.289686	0.053280
