data_functionalizedCrystal
_audit_creation_method	'MofGen! by Chris Wilmer'
_symmetry_space_group_name_H-M	'P1'
_symmetry_Int_Tables_number	1
_symmetry_cell_setting	triclinic
loop_
_symmetry_equiv_pos_as_xyz
  x,y,z
_cell_length_a	13.032721
_cell_length_b	10.686220
_cell_length_c	10.685986
_cell_angle_alpha	99.031303
_cell_angle_beta	92.237678
_cell_angle_gamma	100.973619
loop_
_atom_site_label
_atom_site_type_symbol
_atom_site_fract_x
_atom_site_fract_y
_atom_site_fract_z
Zn1	Zn	-0.259867	1.842335	-0.612164
Zn2	Zn	-0.447119	1.827348	-0.431010
Zn3	Zn	-0.284848	1.642183	-0.420340
Zn4	Zn	-0.447044	1.598957	-0.659442
O5	O	-0.359719	1.727706	-0.530739
O6	O	-0.274284	2.019693	-0.572812
O7	O	-0.436078	1.814604	-0.253716
O8	O	-0.135289	1.693096	-0.421535
O9	O	-0.411856	2.008682	-0.439719
O10	O	-0.116936	1.840147	-0.562467
O11	O	-0.316859	1.678564	-0.245877
O12	O	-0.316787	1.457103	-0.467378
O13	O	-0.411730	1.619424	-0.829048
O14	O	-0.435952	1.425345	-0.643045
O15	O	-0.274212	1.798232	-0.794313
O16	O	-0.593354	1.772689	-0.485563
O17	O	-0.593299	1.604892	-0.653391
C18	C	-0.379072	1.394721	-0.559185
C19	C	-0.387375	1.252263	-0.571388
C20	C	-0.631243	1.682506	-0.575789
C21	C	-0.747392	1.663284	-0.595094
C22	C	-0.799160	1.737802	-0.520714
C23	C	-0.919207	1.717937	-0.540665
C24	C	-0.087132	1.773115	-0.485537
C25	C	0.029028	1.792466	-0.466274
C26	C	-0.340176	1.705678	-0.858559
C27	C	-0.331847	1.696291	-0.998257
C28	C	-0.340292	2.061991	-0.502182
C29	C	-0.332013	2.204443	-0.490013
C30	C	-0.379107	1.749734	-0.204175
C31	C	-0.387127	1.759418	-0.064408
H32	H	-0.963755	1.639432	-0.619124
N33	N	-0.458584	1.162127	-0.676040
H34	H	-0.435777	1.182012	-0.761233
H35	H	-0.533036	1.174303	-0.666673
H36	H	-0.754609	1.816312	-0.442268
N37	N	-0.260805	1.294578	-0.385373
H38	H	-0.186328	1.282447	-0.394627
H39	H	-0.283697	1.274654	-0.300228
H40	H	-0.926423	1.870981	-0.387824
N41	N	-0.806393	1.559298	-0.699019
H42	H	-0.883787	1.559848	-0.698542
H43	H	-0.793937	1.472214	-0.684075
H44	H	-0.278149	1.635070	-1.048494
H45	H	-0.440820	1.820655	-1.014162
