data_functionalizedCrystal
_audit_creation_method	'MofGen! by Chris Wilmer'
_symmetry_space_group_name_H-M	'P1'
_symmetry_Int_Tables_number	1
_symmetry_cell_setting	triclinic
loop_
_symmetry_equiv_pos_as_xyz
  x,y,z
_cell_length_a	21.395362
_cell_length_b	21.295417
_cell_length_c	21.395355
_cell_angle_alpha	89.979596
_cell_angle_beta	89.956060
_cell_angle_gamma	90.045579
loop_
_atom_site_label
_atom_site_type_symbol
_atom_site_fract_x
_atom_site_fract_y
_atom_site_fract_z
Zn1	Zn	0.957864	-0.250415	-0.354577
Zn2	Zn	1.291197	0.082918	-0.021244
Zn3	Zn	1.624531	0.416251	0.312089
Zn4	Zn	0.957768	-0.355667	-0.249796
Zn5	Zn	1.291102	-0.022334	0.083537
Zn6	Zn	1.624435	0.311000	0.416870
Zn7	Zn	0.853079	-0.250445	-0.249779
Zn8	Zn	1.186412	0.082889	0.083555
Zn9	Zn	1.519745	0.416222	0.416888
Zn10	Zn	0.853050	-0.355680	-0.354501
Zn11	Zn	1.186383	-0.022346	-0.021168
Zn12	Zn	1.519716	0.310987	0.312166
O13	O	0.905440	-0.303052	-0.302163
O14	O	1.238774	0.030282	0.031170
O15	O	1.572107	0.363615	0.364503
O16	O	1.045529	-0.264359	-0.340717
O17	O	1.378862	0.068974	-0.007384
O18	O	1.712196	0.402307	0.325949
O19	O	0.943853	-0.341716	-0.162116
O20	O	1.277186	-0.008382	0.171217
O21	O	1.610520	0.324951	0.504551
O22	O	0.867031	-0.162351	-0.263705
O23	O	1.200364	0.170982	0.069628
O24	O	1.533698	0.504315	0.402962
O25	O	1.045459	-0.341687	-0.263735
O26	O	1.378792	-0.008354	0.069598
O27	O	1.712125	0.324979	0.402931
O28	O	0.944016	-0.162330	-0.340700
O29	O	1.277349	0.171004	-0.007367
O30	O	1.610683	0.504337	0.325967
O31	O	0.866938	-0.264409	-0.162103
O32	O	1.200272	0.068924	0.171230
O33	O	1.533605	0.402257	0.504564
O34	O	0.765397	-0.264422	-0.263631
O35	O	1.098730	0.068911	0.069702
O36	O	1.432064	0.402245	0.403036
O37	O	0.866982	-0.341709	-0.442189
O38	O	1.200315	-0.008376	-0.108856
O39	O	1.533648	0.324957	0.224477
O40	O	0.765376	-0.341738	-0.340570
O41	O	1.098709	-0.008404	-0.007237
O42	O	1.432042	0.324929	0.326097
O43	O	0.943988	-0.264372	-0.442245
O44	O	1.277321	0.068961	-0.108912
O45	O	1.610655	0.402295	0.224421
O46	O	0.943825	-0.443758	-0.263661
O47	O	1.277158	-0.110425	0.069672
O48	O	1.610492	0.222909	0.403005
O49	O	0.866889	-0.443767	-0.340587
O50	O	1.200222	-0.110434	-0.007254
O51	O	1.533555	0.222899	0.326079
C52	C	0.742652	-0.303085	-0.302091
C53	C	1.075986	0.030248	0.031243
C54	C	1.409319	0.363582	0.364576
C55	C	0.673011	-0.303114	-0.302074
C56	C	1.006345	0.030219	0.031259
C57	C	1.339678	0.363552	0.364592
C58	C	0.640303	-0.343426	-0.342077
C59	C	0.973637	-0.010093	-0.008743
C60	C	1.306970	0.323241	0.324590
C61	C	0.574868	-0.343411	-0.342105
C62	C	0.908201	-0.010077	-0.008771
C63	C	1.241535	0.323256	0.324562
C64	C	0.542143	-0.303090	-0.302119
C65	C	0.875476	0.030243	0.031214
C66	C	1.208810	0.363577	0.364548
C67	C	0.574859	-0.262771	-0.262114
C68	C	0.908192	0.070563	0.071219
C69	C	1.241525	0.403896	0.404553
C70	C	0.640293	-0.262783	-0.262092
C71	C	0.973626	0.070551	0.071242
C72	C	1.306959	0.403884	0.404575
C73	C	0.438418	-0.298019	-0.245714
C74	C	0.771751	0.035314	0.087619
C75	C	1.105085	0.368648	0.420953
C76	C	0.372985	-0.298011	-0.245735
C77	C	0.706319	0.035322	0.087598
C78	C	1.039652	0.368655	0.420931
C79	C	0.340322	-0.303049	-0.302188
C80	C	0.673656	0.030284	0.031145
C81	C	1.006989	0.363618	0.364478
C82	C	0.373100	-0.308108	-0.358622
C83	C	0.706434	0.025226	-0.025288
C84	C	1.039767	0.358559	0.308045
C85	C	0.438534	-0.308120	-0.358599
C86	C	0.771868	0.025213	-0.025266
C87	C	1.105201	0.358547	0.308067
C88	C	0.471191	-0.303072	-0.302139
C89	C	0.804524	0.030261	0.031194
C90	C	1.137857	0.363595	0.364528
C91	C	0.236662	-0.343346	-0.342224
C92	C	0.569995	-0.010013	-0.008891
C93	C	0.903329	0.323321	0.324442
C94	C	0.171225	-0.343326	-0.342253
C95	C	0.504559	-0.009993	-0.008920
C96	C	0.837892	0.323340	0.324414
C97	C	0.171217	-0.262690	-0.262257
C98	C	0.504551	0.070644	0.071076
C99	C	0.837884	0.403977	0.404410
C100	C	0.236653	-0.262706	-0.262234
C101	C	0.569986	0.070627	0.071100
C102	C	0.903319	0.403961	0.404433
C103	C	0.269371	-0.303038	-0.302216
C104	C	0.602704	0.030296	0.031117
C105	C	0.936038	0.363629	0.364450
C106	C	0.905360	-0.466603	-0.302132
C107	C	1.238694	-0.133270	0.031202
C108	C	1.572027	0.200063	0.364535
C109	C	0.905383	-0.536571	-0.302139
C110	C	1.238717	-0.203238	0.031194
C111	C	1.572050	0.130095	0.364528
C112	C	0.945447	-0.569370	-0.342259
C113	C	1.278780	-0.236036	-0.008926
C114	C	1.612113	0.097297	0.324408
C115	C	0.945469	-0.635112	-0.342275
C116	C	1.278802	-0.301779	-0.008941
C117	C	1.612135	0.031555	0.324392
C118	C	0.905434	-0.668054	-0.302159
C119	C	1.238768	-0.334721	0.031175
C120	C	1.572101	-0.001387	0.364508
C121	C	0.865363	-0.635248	-0.262036
C122	C	1.198697	-0.301914	0.071297
C123	C	1.532030	0.031419	0.404631
C124	C	0.865338	-0.569506	-0.262026
C125	C	1.198671	-0.236173	0.071307
C126	C	1.532005	0.097160	0.404641
N127	N	0.900697	-0.771307	-0.247324
N128	N	1.234030	-0.437974	0.086010
N129	N	1.567364	-0.104641	0.419343
N130	N	0.900725	-0.833759	-0.247335
N131	N	1.234058	-0.500425	0.085999
N132	N	1.567392	-0.167092	0.419332
C133	C	0.905507	-0.866129	-0.302187
C134	C	1.238841	-0.532795	0.031146
C135	C	1.572174	-0.199462	0.364480
N136	N	0.910273	-0.833688	-0.357029
N137	N	1.243607	-0.500354	-0.023696
N138	N	1.576940	-0.167021	0.309637
N139	N	0.910249	-0.771230	-0.357017
N140	N	1.243582	-0.437897	-0.023684
N141	N	1.576916	-0.104564	0.309649
C142	C	0.905457	-0.739339	-0.302165
C143	C	1.238790	-0.406006	0.031168
C144	C	1.572124	-0.072673	0.364501
C145	C	0.945597	-0.970212	-0.342327
C146	C	1.278930	-0.636879	-0.008994
C147	C	1.612263	-0.303546	0.324339
C148	C	0.945615	-1.035956	-0.342344
C149	C	1.278948	-0.702623	-0.009010
C150	C	1.612281	-0.369289	0.324323
C151	C	0.865512	-1.036090	-0.262100
C152	C	1.198846	-0.702757	0.071234
C153	C	1.532179	-0.369424	0.404567
C154	C	0.865491	-0.970348	-0.262089
C155	C	1.198825	-0.637014	0.071245
C156	C	1.532158	-0.303681	0.404578
C157	C	0.905537	-0.937413	-0.302202
C158	C	1.238870	-0.604079	0.031132
C159	C	1.572204	-0.270746	0.364465
C160	C	1.068864	-0.303019	-0.302237
C161	C	1.402197	0.030315	0.031097
C162	C	1.735530	0.363648	0.364430
C163	C	1.138505	-0.303005	-0.302268
C164	C	1.471838	0.030329	0.031065
C165	C	1.805171	0.363662	0.364399
C166	C	0.905492	-0.303039	-0.465587
C167	C	1.238826	0.030294	-0.132253
C168	C	1.572159	0.363628	0.201080
C169	C	0.905514	-0.303033	-0.535228
C170	C	1.238848	0.030300	-0.201895
C171	C	1.572181	0.363633	0.131439
C172	C	0.905537	-0.138861	-0.302209
C173	C	1.238871	0.194472	0.031124
C174	C	1.572204	0.527805	0.364458
C175	C	0.905579	-0.068893	-0.302228
C176	C	1.238912	0.264440	0.031105
C177	C	1.572246	0.597773	0.364438
C178	C	0.945610	-0.262762	-0.567971
C179	C	1.278943	0.070571	-0.234638
C180	C	1.612277	0.403904	0.098695
C181	C	0.945609	-0.262735	-0.633407
C182	C	1.278942	0.070598	-0.300073
C183	C	1.612276	0.403932	0.033260
C184	C	0.905519	-0.302991	-0.666096
C185	C	1.238853	0.030343	-0.332763
C186	C	1.572186	0.363676	0.000570
C187	C	0.865416	-0.343265	-0.633345
C188	C	1.198749	-0.009931	-0.300012
C189	C	1.532083	0.323402	0.033321
C190	C	0.865413	-0.343286	-0.567911
C191	C	1.198747	-0.009953	-0.234578
C192	C	1.532080	0.323381	0.098756
C193	C	0.900544	-0.359672	-0.769758
C194	C	1.233878	-0.026339	-0.436425
C195	C	1.567211	0.306995	-0.103092
C196	C	0.900551	-0.359652	-0.835191
C197	C	1.233884	-0.026318	-0.501858
C198	C	1.567218	0.307015	-0.168525
C199	C	0.905523	-0.302924	-0.867917
C200	C	1.238856	0.030409	-0.534584
C201	C	1.572190	0.363743	-0.201251
C202	C	0.910501	-0.246215	-0.835202
C203	C	1.243835	0.087118	-0.501869
C204	C	1.577168	0.420452	-0.168535
C205	C	0.910499	-0.246237	-0.769768
C206	C	1.243832	0.087097	-0.436435
C207	C	1.577166	0.420430	-0.103101
C208	C	0.905517	-0.302971	-0.737049
C209	C	1.238850	0.030362	-0.403716
C210	C	1.572184	0.363695	-0.070382
C211	C	0.945620	-0.262620	-0.971613
C212	C	1.278953	0.070713	-0.638280
C213	C	1.612287	0.404047	-0.304947
C214	C	0.945615	-0.262592	-1.037050
C215	C	1.278948	0.070741	-0.703717
C216	C	1.612281	0.404075	-0.370383
C217	C	0.865425	-0.343127	-1.036987
C218	C	1.198758	-0.009794	-0.703654
C219	C	1.532091	0.323540	-0.370320
C220	C	0.865427	-0.343150	-0.971552
C221	C	1.198760	-0.009816	-0.638218
C222	C	1.532093	0.323517	-0.304885
C223	C	0.905528	-0.302897	-0.938869
C224	C	1.238861	0.030436	-0.605535
C225	C	1.572194	0.363770	-0.272202
C226	C	0.905424	-0.303019	-0.139376
C227	C	1.238758	0.030314	0.193957
C228	C	1.572091	0.363648	0.527291
C229	C	0.905524	-0.302847	-0.069735
C230	C	1.238857	0.030486	0.263598
C231	C	1.572190	0.363820	0.596932
H232	H	0.144573	-0.229857	-0.229703
H233	H	0.477906	0.103476	0.103630
H234	H	0.811240	0.436810	0.436964
O235	O	0.341220	-0.293179	-0.190870
O236	O	0.674553	0.040154	0.142464
O237	O	1.007887	0.373487	0.475797
C238	C	0.357111	-0.343995	-0.151739
C239	C	0.690445	-0.010661	0.181594
C240	C	1.023778	0.322672	0.514927
H241	H	0.404617	-0.363400	-0.166178
H242	H	0.737950	-0.030067	0.167155
H243	H	1.071284	0.303266	0.500489
H244	H	0.359315	-0.327256	-0.101183
H245	H	0.692648	0.006077	0.232150
H246	H	1.025982	0.339410	0.565484
H247	H	0.320253	-0.382417	-0.156214
H248	H	0.653586	-0.049084	0.177120
H249	H	0.986919	0.284249	0.510453
O250	O	0.470215	-0.293214	-0.190905
O251	O	0.803548	0.040119	0.142428
O252	O	1.136882	0.373453	0.475762
C253	C	0.507991	-0.346806	-0.182722
C254	C	0.841324	-0.013473	0.150612
C255	C	1.174657	0.319860	0.483945
H256	H	0.517820	-0.369150	-0.230128
H257	H	0.851153	-0.035816	0.103205
H258	H	1.184486	0.297517	0.436538
H259	H	0.553995	-0.332564	-0.159898
H260	H	0.887328	0.000769	0.173435
H261	H	1.220662	0.334103	0.506768
H262	H	0.482705	-0.382040	-0.151522
H263	H	0.816039	-0.048707	0.181812
H264	H	1.149372	0.284626	0.515145
H265	H	0.548210	-0.229940	-0.229559
H266	H	0.881543	0.103393	0.103775
H267	H	1.214876	0.436726	0.437108
O268	O	0.826508	-0.537574	-0.223018
O269	O	1.159841	-0.204240	0.110315
O270	O	1.493175	0.129093	0.443648
C271	C	0.862187	-0.499539	-0.182578
C272	C	1.195520	-0.166206	0.150755
C273	C	1.528854	0.167127	0.484088
H274	H	0.909656	-0.489625	-0.204733
H275	H	1.242989	-0.156292	0.128600
H276	H	1.576322	0.177041	0.461934
H277	H	0.836655	-0.453343	-0.174142
H278	H	1.169988	-0.120010	0.159191
H279	H	1.503322	0.213323	0.492525
H280	H	0.869101	-0.524892	-0.136159
H281	H	1.202435	-0.191559	0.197174
H282	H	1.535768	0.141774	0.530507
H283	H	0.832760	-0.376079	-0.541252
H284	H	1.166093	-0.042746	-0.207918
H285	H	1.499427	0.290588	0.125415
O286	O	0.984556	-0.938189	-0.381208
O287	O	1.317890	-0.604855	-0.047875
O288	O	1.651223	-0.271522	0.285458
C289	C	1.025022	-0.900122	-0.345586
C290	C	1.358355	-0.566788	-0.012253
C291	C	1.691688	-0.233455	0.321081
H292	H	1.028926	-0.919953	-0.296247
H293	H	1.362260	-0.586620	0.037086
H294	H	1.695593	-0.253287	0.370420
H295	H	1.073227	-0.899310	-0.368311
H296	H	1.406560	-0.565977	-0.034978
H297	H	1.739893	-0.232644	0.298355
H298	H	1.005635	-0.850320	-0.343395
H299	H	1.338968	-0.516987	-0.010062
H300	H	1.672302	-0.183654	0.323271
O301	O	0.984595	-1.067721	-0.381337
O302	O	1.317928	-0.734388	-0.048004
O303	O	1.651262	-0.401054	0.285330
C304	C	1.019923	-1.024551	-0.416746
C305	C	1.353256	-0.691218	-0.083413
C306	C	1.686589	-0.357884	0.249921
H307	H	1.022083	-0.977699	-0.391077
H308	H	1.355416	-0.644366	-0.057744
H309	H	1.688750	-0.311032	0.275589
H310	H	1.069293	-1.043484	-0.423487
H311	H	1.402626	-0.710151	-0.090153
H312	H	1.735960	-0.376817	0.243180
H313	H	0.996960	-1.017561	-0.464305
H314	H	1.330294	-0.684228	-0.130972
H315	H	1.663627	-0.350895	0.202362
O316	O	0.826443	-0.667313	-0.223154
O317	O	1.159777	-0.333980	0.110179
O318	O	1.493110	-0.000647	0.443513
C319	C	0.785964	-0.705360	-0.258781
C320	C	1.119298	-0.372027	0.074552
C321	C	1.452631	-0.038694	0.407885
H322	H	0.808044	-0.715159	-0.306292
H323	H	1.141377	-0.381826	0.027042
H324	H	1.474711	-0.048493	0.360375
H325	H	0.777598	-0.751612	-0.233256
H326	H	1.110932	-0.418279	0.100077
H327	H	1.444265	-0.084946	0.433411
H328	H	0.739519	-0.680077	-0.265605
H329	H	1.072852	-0.346744	0.067729
H330	H	1.406186	-0.013410	0.401062
O331	O	0.915438	-0.191100	-0.866960
O332	O	1.248772	0.142233	-0.533626
O333	O	1.582105	0.475566	-0.200293
C334	C	0.972087	-0.161293	-0.851010
C335	C	1.305420	0.172040	-0.517677
C336	C	1.638754	0.505373	-0.184343
H337	H	1.006666	-0.197770	-0.833047
H338	H	1.339999	0.135564	-0.499714
H339	H	1.673333	0.468897	-0.166381
H340	H	0.992340	-0.137134	-0.894062
H341	H	1.325673	0.196200	-0.560729
H342	H	1.659007	0.529533	-0.227396
H343	H	0.963064	-0.124874	-0.813025
H344	H	1.296397	0.208459	-0.479692
H345	H	1.629731	0.541792	-0.146358
O346	O	0.671988	-0.382619	-0.380978
O347	O	1.005321	-0.049286	-0.047644
O348	O	1.338655	0.284048	0.285689
C349	C	0.629082	-0.418207	-0.416280
C350	C	0.962415	-0.084874	-0.082946
C351	C	1.295749	0.248459	0.250387
H352	H	0.582466	-0.392418	-0.418511
H353	H	0.915799	-0.059085	-0.085178
H354	H	1.249132	0.274249	0.248156
H355	H	0.648034	-0.425001	-0.465627
H356	H	0.981367	-0.091667	-0.132294
H357	H	1.314701	0.241666	0.201040
H358	H	0.622051	-0.465980	-0.393249
H359	H	0.955385	-0.132647	-0.059916
H360	H	1.288718	0.200687	0.273418
O361	O	0.984578	-0.223598	-0.536321
O362	O	1.317911	0.109735	-0.202988
O363	O	1.651245	0.443068	0.130345
C364	C	1.019978	-0.188058	-0.579259
C365	C	1.353312	0.145275	-0.245925
C366	C	1.686645	0.478608	0.087408
H367	H	0.994318	-0.185871	-0.625884
H368	H	1.327652	0.147463	-0.292551
H369	H	1.660985	0.480796	0.040783
H370	H	1.026691	-0.138465	-0.560361
H371	H	1.360024	0.194868	-0.227028
H372	H	1.693358	0.528202	0.106305
H373	H	1.067550	-0.211099	-0.586250
H374	H	1.400883	0.122234	-0.252917
H375	H	1.734217	0.455567	0.080416
H376	H	0.978258	-0.229938	-0.660072
H377	H	1.311592	0.103395	-0.326738
H378	H	1.644925	0.436729	0.006595
O379	O	0.826587	-1.068149	-0.223220
O380	O	1.159921	-0.734816	0.110113
O381	O	1.493254	-0.401482	0.443447
C382	C	0.786105	-1.106190	-0.258851
C383	C	1.119439	-0.772857	0.074482
C384	C	1.452772	-0.439523	0.407816
H385	H	0.808187	-1.115990	-0.306361
H386	H	1.141520	-0.782657	0.026973
H387	H	1.474853	-0.449323	0.360306
H388	H	0.777732	-1.152442	-0.233328
H389	H	1.111066	-0.819108	0.100006
H390	H	1.444399	-0.485775	0.433339
H391	H	0.739664	-1.080900	-0.265676
H392	H	1.072997	-0.747567	0.067657
H393	H	1.406330	-0.414234	0.400990
H394	H	0.978053	-0.542556	-0.374923
H395	H	1.311386	-0.209223	-0.041590
H396	H	1.644719	0.124111	0.291744
H397	H	0.978264	-0.229795	-1.063708
H398	H	1.311598	0.103539	-0.730375
H399	H	1.644931	0.436872	-0.397042
H400	H	0.832777	-0.375897	-1.063602
H401	H	1.166110	-0.042564	-0.730269
H402	H	1.499443	0.290769	-0.396936
O403	O	0.984586	-0.223456	-0.939957
O404	O	1.317920	0.109877	-0.606624
O405	O	1.651253	0.443210	-0.273291
C406	C	1.019983	-0.187911	-0.982893
C407	C	1.353317	0.145423	-0.649560
C408	C	1.686650	0.478756	-0.316226
H409	H	0.994321	-0.185720	-1.029517
H410	H	1.327654	0.147613	-0.696184
H411	H	1.660988	0.480947	-0.362850
H412	H	1.026694	-0.138319	-0.963991
H413	H	1.360028	0.195014	-0.630658
H414	H	1.693361	0.528348	-0.297325
H415	H	1.067556	-0.210949	-0.989889
H416	H	1.400889	0.122385	-0.656555
H417	H	1.734223	0.455718	-0.323222
H418	H	0.832871	-0.943642	-0.229417
H419	H	1.166204	-0.610308	0.103917
H420	H	1.499537	-0.276975	0.437250
O421	O	0.268457	-0.223486	-0.223459
O422	O	0.601791	0.109847	0.109874
O423	O	0.935124	0.443180	0.443208
C424	C	0.306400	-0.182899	-0.259190
C425	C	0.639733	0.150434	0.074144
C426	C	0.973066	0.483768	0.407477
H427	H	0.286739	-0.179078	-0.308550
H428	H	0.620072	0.154256	0.024783
H429	H	0.953406	0.487589	0.358116
H430	H	0.307166	-0.134422	-0.236615
H431	H	0.640500	0.198911	0.096718
H432	H	0.973833	0.532244	0.430052
H433	H	0.355974	-0.202377	-0.261296
H434	H	0.689307	0.130957	0.072037
H435	H	1.022640	0.464290	0.405370
H436	H	0.978088	-0.661822	-0.374952
H437	H	1.311421	-0.328488	-0.041619
H438	H	1.644755	0.004845	0.291714
O439	O	0.672096	-0.223558	-0.223318
O440	O	1.005430	0.109775	0.110015
O441	O	1.338763	0.443108	0.443349
C442	C	0.710041	-0.182973	-0.259048
C443	C	1.043375	0.150360	0.074285
C444	C	1.376708	0.483693	0.407619
H445	H	0.690383	-0.179152	-0.308409
H446	H	1.023716	0.154181	0.024924
H447	H	1.357049	0.487514	0.358257
H448	H	0.710809	-0.134496	-0.236474
H449	H	1.044142	0.198837	0.096859
H450	H	1.377475	0.532171	0.430192
H451	H	0.759615	-0.202453	-0.261152
H452	H	1.092948	0.130881	0.072181
H453	H	1.426281	0.464214	0.405515
O454	O	0.826461	-0.382332	-0.939838
O455	O	1.159794	-0.048999	-0.606505
O456	O	1.493127	0.284334	-0.273171
C457	C	0.791063	-0.417846	-0.982719
C458	C	1.124396	-0.084512	-0.649386
C459	C	1.457729	0.248821	-0.316053
H460	H	0.816727	-0.420007	-1.029382
H461	H	1.150060	-0.086674	-0.696048
H462	H	1.483393	0.246659	-0.362715
H463	H	0.784346	-0.467450	-0.963806
H464	H	1.117679	-0.134116	-0.630473
H465	H	1.451013	0.199217	-0.297139
H466	H	0.743492	-0.394799	-0.989645
H467	H	1.076826	-0.061465	-0.656312
H468	H	1.410159	0.271868	-0.322979
O469	O	0.915219	-0.191128	-0.738017
O470	O	1.248552	0.142206	-0.404684
O471	O	1.581885	0.475539	-0.071350
C472	C	0.864621	-0.151910	-0.753983
C473	C	1.197954	0.181424	-0.420649
C474	C	1.531287	0.514757	-0.087316
H475	H	0.824229	-0.181803	-0.771944
H476	H	1.157562	0.151530	-0.438610
H477	H	1.490896	0.484864	-0.105277
H478	H	0.848869	-0.124621	-0.710939
H479	H	1.182203	0.208712	-0.377606
H480	H	1.515536	0.542046	-0.044272
H481	H	0.879848	-0.117593	-0.791974
H482	H	1.213181	0.215741	-0.458640
H483	H	1.546515	0.549074	-0.125307
H484	H	0.346508	-0.312209	-0.404591
H485	H	0.679841	0.021124	-0.071258
H486	H	1.013174	0.354458	0.262075
O487	O	0.268352	-0.382536	-0.381127
O488	O	0.601686	-0.049202	-0.047793
O489	O	0.935019	0.284131	0.285540
C490	C	0.225448	-0.418120	-0.416435
C491	C	0.558781	-0.084786	-0.083102
C492	C	0.892115	0.248547	0.250231
H493	H	0.178832	-0.392329	-0.418667
H494	H	0.512166	-0.058996	-0.085334
H495	H	0.845499	0.274337	0.248000
H496	H	0.244403	-0.424908	-0.465782
H497	H	0.577737	-0.091575	-0.132449
H498	H	0.911070	0.241759	0.200884
H499	H	0.218415	-0.465895	-0.393410
H500	H	0.551749	-0.132561	-0.060077
H501	H	0.885082	0.200772	0.273256
O502	O	0.543021	-0.382605	-0.380877
O503	O	0.876354	-0.049271	-0.047544
O504	O	1.209687	0.284062	0.285789
C505	C	0.505105	-0.423210	-0.345139
C506	C	0.838438	-0.089877	-0.011806
C507	C	1.171772	0.243456	0.321527
H508	H	0.495271	-0.400932	-0.297703
H509	H	0.828604	-0.067599	0.035630
H510	H	1.161938	0.265734	0.368963
H511	H	0.459112	-0.431680	-0.370660
H512	H	0.792445	-0.098346	-0.037326
H513	H	1.125778	0.234987	0.296007
H514	H	0.530271	-0.469853	-0.338157
H515	H	0.863604	-0.136520	-0.004824
H516	H	1.196938	0.196814	0.328509
H517	H	0.896501	-0.405828	-0.861823
H518	H	1.229835	-0.072494	-0.528490
H519	H	1.563168	0.260839	-0.195156
O520	O	0.895584	-0.414797	-0.738018
O521	O	1.228917	-0.081463	-0.404684
O522	O	1.562251	0.251870	-0.071351
C523	C	0.838901	-0.444541	-0.753960
C524	C	1.172234	-0.111208	-0.420627
C525	C	1.505568	0.222125	-0.087293
H526	H	0.822477	-0.426849	-0.801479
H527	H	1.155810	-0.093516	-0.468145
H528	H	1.489144	0.239818	-0.134812
H529	H	0.846364	-0.497494	-0.756161
H530	H	1.179698	-0.164161	-0.422827
H531	H	1.513031	0.169173	-0.089494
H532	H	0.802027	-0.433335	-0.717132
H533	H	1.135360	-0.100002	-0.383799
H534	H	1.468693	0.233332	-0.050466
O535	O	0.470278	-0.313004	-0.413473
O536	O	0.803612	0.020329	-0.080139
O537	O	1.136945	0.353662	0.253194
C538	C	0.427425	-0.317466	-0.463307
C539	C	0.760758	0.015868	-0.129973
C540	C	1.094091	0.349201	0.203360
H541	H	0.380783	-0.296285	-0.448530
H542	H	0.714116	0.037048	-0.115197
H543	H	1.047450	0.370382	0.218136
H544	H	0.446406	-0.290793	-0.505459
H545	H	0.779739	0.042540	-0.172125
H546	H	1.113073	0.375874	0.161208
H547	H	0.420433	-0.368925	-0.476229
H548	H	0.753767	-0.035591	-0.142895
H549	H	1.087100	0.297742	0.190438
O550	O	0.139424	-0.382398	-0.381181
O551	O	0.472757	-0.049064	-0.047848
O552	O	0.806091	0.284269	0.285485
C553	C	0.101645	-0.346616	-0.421723
C554	C	0.434979	-0.013283	-0.088390
C555	C	0.768312	0.320051	0.244944
H556	H	0.121418	-0.297047	-0.425681
H557	H	0.454752	0.036286	-0.092348
H558	H	0.788085	0.369619	0.240986
H559	H	0.100937	-0.369460	-0.469897
H560	H	0.434270	-0.036127	-0.136564
H561	H	0.767603	0.297207	0.196769
H562	H	0.052034	-0.344407	-0.402375
H563	H	0.385367	-0.011074	-0.069041
H564	H	0.718700	0.322260	0.264292
H565	H	0.832773	-0.376039	-0.659965
H566	H	1.166106	-0.042706	-0.326632
H567	H	1.499439	0.290628	0.006701
