data_functionalizedCrystal
_audit_creation_method	'MofGen! by Chris Wilmer'
_symmetry_space_group_name_H-M	'P1'
_symmetry_Int_Tables_number	1
_symmetry_cell_setting	triclinic
loop_
_symmetry_equiv_pos_as_xyz
  x,y,z
_cell_length_a	42.784839
_cell_length_b	42.784841
_cell_length_c	42.784893
_cell_angle_alpha	90.002418
_cell_angle_beta	59.997780
_cell_angle_gamma	119.999863
loop_
_atom_site_label
_atom_site_type_symbol
_atom_site_fract_x
_atom_site_fract_y
_atom_site_fract_z
O1	O	0.275695	-0.214412	-0.009300
O2	O	0.211692	-0.168961	0.009253
O3	O	0.275692	-0.168961	-0.054750
O4	O	0.211694	-0.214412	0.054702
O5	O	0.223708	-0.220945	-0.054749
O6	O	0.159708	-0.220945	0.009253
O7	O	0.223710	-0.266397	-0.009300
Cu8	Cu	0.186962	-0.248417	-0.000023
Cu9	Cu	0.248440	-0.186940	-0.000024
O10	O	0.159710	-0.266396	0.054703
C11	C	0.051021	-0.022778	0.028112
C12	C	0.013142	-0.041761	0.028375
C13	C	0.051018	-0.079378	0.028116
C14	C	0.013139	-0.098275	0.028379
C15	C	-0.005578	-0.079377	0.028112
C16	C	0.069652	-0.041762	0.028379
C17	C	0.152948	0.113708	0.017863
C18	C	0.173786	0.152360	0.014965
C19	C	0.155902	0.171750	0.013509
C20	C	0.178499	0.213661	0.010359
C21	C	0.117177	0.152485	0.014953
C22	C	0.096339	0.113835	0.017857
C23	C	0.114226	0.094447	0.019312
C24	C	-0.131813	-0.113936	0.017859
C25	C	-0.167567	-0.131750	0.014961
C26	C	-0.185502	-0.169024	0.013506
C27	C	-0.224264	-0.188340	0.010358
C28	C	-0.167685	-0.188485	0.014954
C29	C	-0.131938	-0.170675	0.017859
C30	C	-0.114002	-0.133396	0.019309
C31	C	0.152939	-0.113943	0.017877
C32	C	0.173778	-0.131757	0.014977
C33	C	0.155892	-0.169032	0.013523
C34	C	0.178486	-0.188349	0.010377
C35	C	0.117170	-0.188491	0.014967
C36	C	0.096334	-0.170675	0.017865
C37	C	0.114220	-0.133401	0.019323
C38	C	0.091629	0.052537	0.022456
C39	C	0.073617	0.019131	0.024964
C40	C	0.073613	-0.098693	0.024971
C41	C	0.091623	-0.114089	0.022466
C42	C	-0.044339	-0.098690	0.024964
C43	C	-0.075237	-0.114084	0.022456
O44	O	-0.327856	-0.266388	-0.009322
O45	O	-0.236954	-0.220935	0.009228
O46	O	-0.236950	-0.220939	-0.054773
O47	O	-0.327860	-0.266385	0.054680
O48	O	-0.236948	-0.168954	-0.054776
O49	O	-0.236952	-0.168950	0.009225
O50	O	-0.327854	-0.214403	-0.009325
Cu51	Cu	-0.282403	-0.186930	-0.000050
Cu52	Cu	-0.282405	-0.248408	-0.000046
O53	O	-0.327858	-0.214400	0.054676
C54	C	0.384390	-0.079141	-0.361606
C55	C	0.422270	-0.041526	-0.380503
C56	C	0.384390	-0.079141	-0.305008
C57	C	0.422270	-0.041526	-0.323990
C58	C	0.440988	-0.022543	-0.361606
C59	C	0.365758	-0.098038	-0.323991
C60	C	0.282465	-0.170819	-0.396168
C61	C	0.261627	-0.188759	-0.413983
C62	C	0.279513	-0.169420	-0.451257
C63	C	0.256917	-0.188867	-0.470572
C64	C	0.318239	-0.132140	-0.470717
C65	C	0.339076	-0.114205	-0.452905
C66	C	0.321187	-0.133546	-0.415628
C67	C	0.567227	0.113942	-0.453282
C68	C	0.602981	0.152594	-0.471222
C69	C	0.620916	0.171985	-0.451883
C70	C	0.659678	0.213894	-0.471328
C71	C	0.603097	0.152719	-0.414603
C72	C	0.567349	0.114068	-0.396667
C73	C	0.549414	0.094682	-0.416011
C74	C	0.282465	-0.170819	-0.168522
C75	C	0.261624	-0.188757	-0.129868
C76	C	0.279510	-0.169418	-0.110479
C77	C	0.256914	-0.188865	-0.068568
C78	C	0.318233	-0.132140	-0.129742
C79	C	0.339070	-0.114203	-0.168394
C80	C	0.321184	-0.133548	-0.187782
C81	C	0.343783	-0.114094	-0.396315
C82	C	0.361794	-0.098590	-0.380920
C83	C	0.361794	-0.098590	-0.263099
C84	C	0.343783	-0.114094	-0.229693
C85	C	0.479750	0.019366	-0.381054
C86	C	0.510649	0.052771	-0.396557
C87	C	0.440758	-0.356212	-0.028193
C88	C	0.422041	-0.393827	-0.028459
C89	C	0.384158	-0.356213	-0.028190
C90	C	0.365526	-0.393828	-0.028456
C91	C	0.384160	-0.412810	-0.028193
C92	C	0.422038	-0.337315	-0.028456
C93	C	0.567000	-0.264532	-0.017949
C94	C	0.602755	-0.246591	-0.015053
C95	C	0.620692	-0.265931	-0.013601
C96	C	0.659455	-0.246483	-0.010453
C97	C	0.602873	-0.303210	-0.015048
C98	C	0.567125	-0.321146	-0.017949
C99	C	0.549188	-0.301805	-0.019399
C100	C	0.339356	-0.549295	-0.017951
C101	C	0.318645	-0.587947	-0.015055
C102	C	0.279915	-0.607338	-0.013597
C103	C	0.257452	-0.649247	-0.010452
C104	C	0.261899	-0.588073	-0.015042
C105	C	0.282613	-0.549422	-0.017945
C106	C	0.321343	-0.530035	-0.019397
C107	C	0.339344	-0.264537	-0.017936
C108	C	0.318628	-0.246599	-0.015032
C109	C	0.279898	-0.265939	-0.013577
C110	C	0.257433	-0.246493	-0.010426
C111	C	0.261884	-0.303217	-0.015022
C112	C	0.282601	-0.321153	-0.017924
C113	C	0.321334	-0.301808	-0.019385
C114	C	0.510421	-0.321258	-0.022542
C115	C	0.479522	-0.336762	-0.025048
C116	C	0.361696	-0.336765	-0.025041
C117	C	0.343793	-0.321261	-0.022532
C118	C	0.361701	-0.454719	-0.025047
C119	C	0.343799	-0.488125	-0.022541
O120	O	0.223728	0.336934	-0.009323
O121	O	0.159726	0.227482	0.009227
O122	O	0.223729	0.291478	-0.054775
O123	O	0.159725	0.272938	0.054678
O124	O	0.275711	0.291477	-0.054771
O125	O	0.211707	0.227481	0.009230
O126	O	0.275710	0.336932	-0.009320
Cu127	Cu	0.248455	0.282206	-0.000045
Cu128	Cu	0.186981	0.282208	-0.000049
O129	O	0.211707	0.272936	0.054681
O130	O	0.763271	0.337164	-0.496871
O131	O	0.672367	0.227713	-0.451422
O132	O	0.672365	0.291711	-0.451418
O133	O	0.763273	0.273165	-0.496876
O134	O	0.672366	0.291712	-0.503402
O135	O	0.672368	0.227714	-0.503407
O136	O	0.763272	0.337165	-0.548856
Cu137	Cu	0.717820	0.282440	-0.530878
Cu138	Cu	0.717819	0.282438	-0.469400
O139	O	0.763275	0.273167	-0.548860
O140	O	0.211690	-0.214417	-0.548617
O141	O	0.275691	-0.168962	-0.503167
O142	O	0.211689	-0.168964	-0.503163
O143	O	0.275692	-0.214415	-0.548621
O144	O	0.159706	-0.220947	-0.451179
O145	O	0.223708	-0.220945	-0.451183
O146	O	0.159707	-0.266400	-0.496633
Cu147	Cu	0.186961	-0.248419	-0.469161
Cu148	Cu	0.248437	-0.186943	-0.530639
O149	O	0.223709	-0.266398	-0.496637
C150	C	-0.005343	-0.412572	0.361558
C151	C	0.013375	-0.393590	0.380456
C152	C	0.051255	-0.355974	0.304961
C153	C	0.069887	-0.337077	0.323944
C154	C	0.051254	-0.355974	0.361560
C155	C	0.013375	-0.393589	0.323943
C156	C	-0.131582	-0.549057	0.396116
C157	C	-0.167336	-0.587709	0.413930
C158	C	-0.185271	-0.607098	0.451205
C159	C	-0.224034	-0.649009	0.470519
C160	C	-0.167452	-0.587833	0.470666
C161	C	-0.131705	-0.549184	0.452854
C162	C	-0.113770	-0.529796	0.415578
C163	C	0.096061	-0.321414	0.453239
C164	C	0.116773	-0.303600	0.471179
C165	C	0.155502	-0.266327	0.451842
C166	C	0.177965	-0.247011	0.471288
C167	C	0.173517	-0.246866	0.414562
C168	C	0.152802	-0.264677	0.396625
C169	C	0.114073	-0.301955	0.415968
C170	C	0.096064	-0.321412	0.168474
C171	C	0.116779	-0.303599	0.129820
C172	C	0.155508	-0.266324	0.110432
C173	C	0.177972	-0.247009	0.068521
C174	C	0.173522	-0.246865	0.129696
C175	C	0.152807	-0.264680	0.168348
C176	C	0.114075	-0.301953	0.187735
C177	C	-0.075004	-0.487887	0.396265
C178	C	-0.044106	-0.454481	0.380871
C179	C	0.073715	-0.336660	0.263052
C180	C	0.091618	-0.321265	0.229646
C181	C	0.073714	-0.336661	0.381009
C182	C	0.091616	-0.321267	0.396513
C183	C	0.051046	-0.022794	-0.361634
C184	C	0.069679	-0.041778	-0.380530
C185	C	-0.005555	-0.079390	-0.305034
C186	C	0.013163	-0.098288	-0.324016
C187	C	0.051045	-0.079393	-0.361631
C188	C	0.013164	-0.041775	-0.324018
C189	C	0.095858	0.113693	-0.396200
C190	C	0.116571	0.152344	-0.414015
C191	C	0.155302	0.171732	-0.451290
C192	C	0.177767	0.213642	-0.470607
C193	C	0.173317	0.152465	-0.470750
C194	C	0.152600	0.113815	-0.452936
C195	C	0.113869	0.094429	-0.415659
C196	C	0.152973	-0.113959	-0.453306
C197	C	0.173810	-0.131775	-0.471245
C198	C	0.155926	-0.169048	-0.451906
C199	C	0.178519	-0.188366	-0.471350
C200	C	0.117198	-0.188507	-0.414626
C201	C	0.096358	-0.170694	-0.396690
C202	C	0.114251	-0.133416	-0.416035
C203	C	-0.131801	-0.113944	-0.168548
C204	C	-0.167554	-0.131755	-0.129895
C205	C	-0.185491	-0.169029	-0.110504
C206	C	-0.224255	-0.188343	-0.068593
C207	C	-0.167671	-0.188490	-0.129767
C208	C	-0.131918	-0.170677	-0.168418
C209	C	-0.113988	-0.133404	-0.187808
C210	C	0.091411	0.052521	-0.396344
C211	C	0.073508	0.019115	-0.380949
C212	C	-0.044320	-0.098701	-0.263125
C213	C	-0.075220	-0.114094	-0.229719
C214	C	0.073641	-0.098707	-0.381079
C215	C	0.091652	-0.114103	-0.396582
C216	C	-0.615853	-0.356193	0.361535
C217	C	-0.634487	-0.393808	0.380433
C218	C	-0.559253	-0.356195	0.304938
C219	C	-0.577972	-0.393810	0.323921
C220	C	-0.615854	-0.412792	0.361537
C221	C	-0.577972	-0.337297	0.323920
C222	C	-0.660661	-0.264512	0.396093
C223	C	-0.681373	-0.246571	0.413906
C224	C	-0.720104	-0.265909	0.451181
C225	C	-0.742568	-0.246461	0.470495
C226	C	-0.738120	-0.303189	0.470643
C227	C	-0.717405	-0.321125	0.452831
C228	C	-0.678674	-0.301785	0.415554
C229	C	-0.717784	-0.549275	0.453218
C230	C	-0.738622	-0.587926	0.471159
C231	C	-0.720740	-0.607319	0.451822
C232	C	-0.743333	-0.649227	0.471268
C233	C	-0.682012	-0.588055	0.414542
C234	C	-0.661170	-0.549403	0.396604
C235	C	-0.679063	-0.530016	0.415946
C236	C	-0.433006	-0.264522	0.168449
C237	C	-0.397253	-0.246585	0.129796
C238	C	-0.379317	-0.265926	0.110407
C239	C	-0.340553	-0.246480	0.068496
C240	C	-0.397138	-0.303204	0.129672
C241	C	-0.432891	-0.321139	0.168324
C242	C	-0.450820	-0.301793	0.187711
C243	C	-0.656216	-0.321238	0.396242
C244	C	-0.638314	-0.336743	0.380848
C245	C	-0.520488	-0.336748	0.263028
C246	C	-0.489588	-0.321245	0.229622
C247	C	-0.638451	-0.454700	0.380987
C248	C	-0.656463	-0.488106	0.396492
C249	C	0.440756	0.310302	-0.361620
C250	C	0.422038	0.310564	-0.380518
C251	C	0.384160	0.310312	-0.305026
C252	C	0.365528	0.310574	-0.324010
C253	C	0.384159	0.310303	-0.361624
C254	C	0.422038	0.310573	-0.324006
C255	C	0.566989	0.300046	-0.396172
C256	C	0.602741	0.297145	-0.413984
C257	C	0.620675	0.295684	-0.451257
C258	C	0.659436	0.292531	-0.470569
C259	C	0.602857	0.297127	-0.470719
C260	C	0.567111	0.300033	-0.452909
C261	C	0.549177	0.301493	-0.415634
C262	C	0.339351	0.300042	-0.453303
C263	C	0.318640	0.297142	-0.471244
C264	C	0.279912	0.295690	-0.451908
C265	C	0.257449	0.292541	-0.471354
C266	C	0.261899	0.297143	-0.414629
C267	C	0.282613	0.300049	-0.396692
C268	C	0.321341	0.301496	-0.416033
C269	C	0.339354	0.300088	-0.168540
C270	C	0.318640	0.297192	-0.129888
C271	C	0.279912	0.295742	-0.110501
C272	C	0.257450	0.292601	-0.068591
C273	C	0.261898	0.297184	-0.129766
C274	C	0.282612	0.300078	-0.168417
C275	C	0.321344	0.301533	-0.187802
C276	C	0.510413	0.304640	-0.396323
C277	C	0.479516	0.307151	-0.380931
C278	C	0.361701	0.307173	-0.263117
C279	C	0.343799	0.304671	-0.229712
C280	C	0.361700	0.307154	-0.381073
C281	C	0.343798	0.304644	-0.396578
O282	O	0.275503	0.336913	-0.548651
O283	O	0.211494	0.227461	-0.503201
O284	O	0.275490	0.291455	-0.503192
O285	O	0.211507	0.272919	-0.548659
O286	O	0.223502	0.291457	-0.451211
O287	O	0.159506	0.227463	-0.451219
O288	O	0.223515	0.336915	-0.496669
Cu289	Cu	0.186764	0.282189	-0.469197
Cu290	Cu	0.248246	0.282187	-0.530672
O291	O	0.159519	0.272921	-0.496677
C292	C	0.051032	0.254111	0.361530
C293	C	0.013154	0.253851	0.380425
C294	C	0.051031	0.254102	0.304932
C295	C	0.013153	0.253842	0.323913
C296	C	-0.005564	0.254113	0.361527
C297	C	0.069663	0.253840	0.323916
C298	C	0.152954	0.264360	0.396096
C299	C	0.173791	0.267260	0.413911
C300	C	0.155906	0.268721	0.451185
C301	C	0.178502	0.271871	0.470501
C302	C	0.117182	0.267279	0.470643
C303	C	0.096345	0.264374	0.452830
C304	C	0.114233	0.262915	0.415555
C305	C	-0.131796	0.264379	0.453195
C306	C	-0.167548	0.267281	0.471133
C307	C	-0.185483	0.268734	0.451793
C308	C	-0.224243	0.271886	0.471236
C309	C	-0.167664	0.267282	0.414515
C310	C	-0.131919	0.264374	0.396581
C311	C	-0.113984	0.262925	0.415925
C312	C	0.152952	0.264325	0.168451
C313	C	0.173792	0.267221	0.129798
C314	C	0.155907	0.268673	0.110407
C315	C	0.178502	0.271814	0.068498
C316	C	0.117186	0.267232	0.129669
C317	C	0.096350	0.264339	0.168320
C318	C	0.114234	0.262881	0.187709
C319	C	0.091638	0.259769	0.396240
C320	C	0.073627	0.257260	0.380845
C321	C	0.073626	0.257242	0.263024
C322	C	0.091636	0.259743	0.229619
C323	C	-0.044324	0.257264	0.380973
C324	C	-0.075221	0.259775	0.396474
H325	H	0.102606	-0.218843	0.013783
H326	H	-0.562304	-0.409050	0.308680
O327	O	0.440721	-0.300429	-0.029013
C328	C	0.474594	-0.235370	-0.062756
C329	C	0.453437	-0.277127	-0.062168
H330	H	0.484889	-0.216517	-0.089563
H331	H	0.449664	-0.233592	-0.036274
H332	H	0.504922	-0.225082	-0.062876
H333	H	0.423113	-0.287442	-0.062061
H334	H	0.478395	-0.278881	-0.088648
H335	H	0.552629	0.098160	-0.469035
O336	O	0.620317	0.295688	-0.506916
C337	C	0.675459	0.291229	-0.559508
C338	C	0.655722	0.292847	-0.518509
H339	H	0.704093	0.288940	-0.568896
H340	H	0.648943	0.265214	-0.560240
H341	H	0.687971	0.318366	-0.579752
H342	H	0.643212	0.265729	-0.498241
H343	H	0.682252	0.318880	-0.517809
O344	O	0.376987	-0.530515	-0.019380
C345	C	0.431072	-0.534474	-0.019066
C346	C	0.388460	-0.555787	-0.017455
H347	H	0.440356	-0.554899	-0.017502
H348	H	0.459015	-0.509343	-0.047004
H349	H	0.425374	-0.523404	0.006144
H350	H	0.394116	-0.566882	-0.042646
H351	H	0.360532	-0.580899	0.010499
O352	O	0.549852	-0.357330	-0.019423
C353	C	0.533710	-0.398354	-0.055579
C354	C	0.553295	-0.357355	-0.053964
H355	H	0.536478	-0.398388	-0.083498
H356	H	0.552671	-0.409107	-0.054068
H357	H	0.497446	-0.417925	-0.030347
H358	H	0.589555	-0.337754	-0.079191
H359	H	0.534300	-0.346633	-0.055456
O360	O	0.336166	-0.606659	-0.013715
C361	C	0.366488	-0.641535	-0.043327
C362	C	0.346661	-0.620345	-0.044896
H363	H	0.374970	-0.652613	-0.068529
H364	H	0.397744	-0.621051	-0.044886
H365	H	0.341394	-0.666653	-0.015383
H366	H	0.371722	-0.595228	-0.072835
H367	H	0.315396	-0.640855	-0.043315
O368	O	0.099797	0.171293	0.013492
C369	C	0.078624	0.191964	-0.020315
C370	C	0.098305	0.170646	-0.018701
H371	H	0.077420	0.191454	-0.046345
H372	H	0.043747	0.177355	0.006810
H373	H	0.100164	0.222891	-0.022619
H374	H	0.076799	0.139718	-0.016410
H375	H	0.133187	0.185285	-0.045826
H376	H	-0.382753	-0.216236	0.114110
H377	H	0.102624	0.268416	0.113879
H378	H	0.230365	-0.603862	-0.013858
O379	O	-0.184908	-0.606633	0.506897
C380	C	-0.220107	-0.609841	0.572927
C381	C	-0.200363	-0.588520	0.531914
H382	H	-0.232600	-0.595200	0.593164
H383	H	-0.248741	-0.640772	0.582345
H384	H	-0.193566	-0.609319	0.573629
H385	H	-0.226872	-0.589012	0.531181
H386	H	-0.171720	-0.557599	0.522514
O387	O	0.211154	-0.210662	0.110916
C388	C	0.265237	-0.156266	0.114880
C389	C	0.222623	-0.197265	0.136191
H390	H	0.274517	-0.145420	0.135307
H391	H	0.293180	-0.156263	0.089749
H392	H	0.259542	-0.136752	0.103809
H393	H	0.228275	-0.216803	0.147286
H394	H	0.194694	-0.197238	0.161303
O395	O	0.058398	-0.357598	0.472018
C396	C	-0.018740	-0.398522	0.496752
C397	C	0.023888	-0.357531	0.475470
H398	H	-0.046655	-0.398480	0.499558
H399	H	-0.013096	-0.418070	0.480014
H400	H	-0.028032	-0.409359	0.526468
H401	H	0.033204	-0.346659	0.445754
H402	H	0.018221	-0.338008	0.492238
H403	H	-0.182059	-0.115906	-0.114213
H404	H	-0.002525	-0.129181	0.028805
O405	O	0.335542	-0.113403	-0.506916
C406	C	0.328544	-0.115952	-0.559511
C407	C	0.308893	-0.137214	-0.518511
H408	H	0.307012	-0.135197	-0.568902
H409	H	0.329776	-0.088704	-0.560244
H410	H	0.363414	-0.108221	-0.579753
H411	H	0.274015	-0.144971	-0.498246
H412	H	0.307694	-0.164445	-0.517810
H413	H	0.230091	-0.219108	-0.114185
H414	H	0.332793	-0.116391	-0.113952
H415	H	0.102103	-0.319447	0.501532
H416	H	0.100131	-0.026521	0.028807
H417	H	-0.182272	0.268459	0.398770
O418	O	0.224321	0.295844	-0.110938
C419	C	0.188810	0.325462	-0.075935
C420	C	0.231396	0.327029	-0.097253
H421	H	0.194513	0.350668	-0.064858
H422	H	0.179491	0.327014	-0.096335
H423	H	0.160887	0.297522	-0.050806
H424	H	0.259347	0.354965	-0.122382
H425	H	0.240677	0.325456	-0.076828
O426	O	0.265149	-0.189619	-0.187388
C427	C	0.276639	-0.214302	-0.239827
C428	C	0.296297	-0.193016	-0.218491
H429	H	0.301816	-0.217048	-0.264983
H430	H	0.245395	-0.244038	-0.219442
H431	H	0.268160	-0.197552	-0.250867
H432	H	0.304803	-0.209734	-0.207449
H433	H	0.327524	-0.163278	-0.238890
O434	O	-0.185140	-0.224719	0.013613
C435	C	-0.220340	-0.290746	0.045606
C436	C	-0.200596	-0.249733	0.047182
H437	H	-0.232833	-0.310980	0.072740
H438	H	-0.248973	-0.300165	0.043306
H439	H	-0.193798	-0.291451	0.019588
H440	H	-0.227106	-0.248997	0.073198
H441	H	-0.171954	-0.240331	0.049461
O442	O	0.619994	-0.210408	-0.013577
C443	C	0.606634	-0.168624	0.020200
C444	C	0.587060	-0.209620	0.018577
H445	H	0.580014	-0.167972	0.046189
H446	H	0.635253	-0.159114	0.022547
H447	H	0.619123	-0.148427	-0.006957
H448	H	0.574545	-0.229845	0.045726
H449	H	0.558460	-0.219098	0.016210
O450	O	-0.450384	-0.245683	0.187220
C451	C	-0.446710	-0.187625	0.183271
C452	C	-0.426992	-0.208917	0.161963
H453	H	-0.427800	-0.157893	0.162862
H454	H	-0.482981	-0.204351	0.194319
H455	H	-0.443929	-0.184862	0.208417
H456	H	-0.429741	-0.211685	0.136801
H457	H	-0.390729	-0.192182	0.150943
O458	O	0.620220	0.171254	-0.507425
C459	C	0.616344	0.167048	-0.561695
C460	C	0.596772	0.145872	-0.520693
H461	H	0.597400	0.146533	-0.572437
H462	H	0.613526	0.192171	-0.561749
H463	H	0.652619	0.178114	-0.581264
H464	H	0.560492	0.134781	-0.501100
H465	H	0.599624	0.120768	-0.520669
H466	H	-0.664969	-0.409045	0.411340
O467	O	0.550078	0.095321	-0.360483
C468	C	0.533943	0.043027	-0.319465
C469	C	0.553525	0.064226	-0.360463
H470	H	0.536714	0.017878	-0.319434
H471	H	0.552905	0.063501	-0.308713
H472	H	0.497679	0.031994	-0.299890
H473	H	0.589786	0.075261	-0.380067
H474	H	0.534530	0.043738	-0.371184
O475	O	-0.623030	-0.245663	0.359889
C476	C	-0.568945	-0.187623	0.305488
C477	C	-0.611557	-0.208919	0.346489
H478	H	-0.559662	-0.157915	0.294639
H479	H	-0.541002	-0.184810	0.305483
H480	H	-0.574643	-0.204392	0.285977
H481	H	-0.605902	-0.192168	0.366024
H482	H	-0.639486	-0.211736	0.346464
O483	O	0.376677	-0.077987	-0.471854
C484	C	0.430641	-0.023730	-0.530013
C485	C	0.388051	-0.064743	-0.508593
H486	H	0.439855	-0.013013	-0.559723
H487	H	0.425013	-0.004133	-0.513345
H488	H	0.458604	-0.023694	-0.532834
H489	H	0.360068	-0.064816	-0.505767
H490	H	0.393716	-0.084323	-0.525270
O491	O	-0.114652	0.262985	0.360364
C492	C	-0.118553	0.263270	0.306106
C493	C	-0.138145	0.264854	0.347118
H494	H	-0.137545	0.264773	0.295387
H495	H	-0.082288	0.288493	0.286507
H496	H	-0.121340	0.235342	0.306075
H497	H	-0.135390	0.292765	0.347186
H498	H	-0.174402	0.239612	0.366700
H499	H	-0.732075	-0.351477	0.468678
H500	H	-0.117435	-0.186523	0.019040
O501	O	0.058711	-0.189638	0.019283
C502	C	0.004774	-0.247783	0.018948
C503	C	0.047378	-0.226354	0.017348
H504	H	-0.004397	-0.277468	0.017377
H505	H	-0.023224	-0.250654	0.046886
H506	H	0.010419	-0.231076	-0.006263
H507	H	0.041776	-0.243043	0.042540
H508	H	0.075361	-0.223479	-0.010605
O509	O	0.170254	0.262886	0.359910
C510	C	0.158778	0.226690	0.318972
C511	C	0.139131	0.228314	0.359969
H512	H	0.133628	0.198737	0.319008
H513	H	0.167229	0.251886	0.299433
H514	H	0.190041	0.228236	0.308127
H515	H	0.107856	0.226756	0.370849
H516	H	0.130712	0.203121	0.379482
H517	H	0.167470	-0.248829	0.366274
O518	O	-0.114430	-0.530435	0.471764
C519	C	-0.098288	-0.478137	0.496644
C520	C	-0.117876	-0.499339	0.475233
H521	H	-0.101059	-0.452986	0.499448
H522	H	-0.117247	-0.498608	0.526359
H523	H	-0.062025	-0.467105	0.479951
H524	H	-0.154137	-0.510373	0.491893
H525	H	-0.098884	-0.478854	0.445516
H526	H	0.064825	-0.186540	-0.366338
O527	O	0.620559	0.171613	-0.395865
C528	C	0.675703	0.231206	-0.398412
C529	C	0.655965	0.209857	-0.419675
H530	H	0.704338	0.262128	-0.417657
H531	H	0.649188	0.230707	-0.371163
H532	H	0.688213	0.216578	-0.390683
H533	H	0.643457	0.224469	-0.427431
H534	H	0.682494	0.210354	-0.446908
H535	H	0.437707	0.310988	-0.411425
H536	H	0.437704	0.310998	-0.308766
O537	O	0.336194	-0.210382	-0.013647
C538	C	0.394648	-0.156125	-0.013942
C539	C	0.374806	-0.197137	-0.015521
H540	H	0.425864	-0.145407	-0.015449
H541	H	0.403205	-0.136527	-0.039165
H542	H	0.369543	-0.156090	0.013987
H543	H	0.399890	-0.197208	-0.043434
H544	H	0.366240	-0.216717	0.009720
O545	O	-0.775755	-0.321925	0.506840
C546	C	-0.832807	-0.319376	0.559433
C547	C	-0.790190	-0.298114	0.518434
H548	H	-0.844485	-0.300131	0.568822
H549	H	-0.859553	-0.346624	0.560163
H550	H	-0.825914	-0.327108	0.579677
H551	H	-0.797040	-0.290356	0.498166
H552	H	-0.763457	-0.270883	0.517735
O553	O	0.265179	-0.530650	-0.019361
C554	C	0.271916	-0.471173	-0.023779
C555	C	0.291717	-0.492381	-0.022194
H556	H	0.293358	-0.440231	-0.026062
H557	H	0.270669	-0.471729	-0.049786
H558	H	0.237038	-0.485869	0.003368
H559	H	0.326603	-0.477701	-0.049322
H560	H	0.292931	-0.491828	0.003831
O561	O	0.549508	0.301455	-0.359961
C562	C	0.494401	0.305961	-0.307387
C563	C	0.514151	0.304361	-0.348393
H564	H	0.465818	0.308319	-0.298024
H565	H	0.481835	0.278818	-0.287110
H566	H	0.520954	0.331962	-0.306681
H567	H	0.487621	0.278377	-0.349136
H568	H	0.526728	0.331522	-0.368652
O569	O	0.058728	0.262924	0.186978
C570	C	0.004794	0.263261	0.182766
C571	C	0.047397	0.264857	0.161593
H572	H	-0.004375	0.264831	0.162250
H573	H	-0.023205	0.235326	0.207893
H574	H	0.010441	0.288474	0.193826
H575	H	0.041793	0.239663	0.150509
H576	H	0.075381	0.292807	0.136485
O577	O	0.106079	-0.023624	-0.417384
C578	C	0.182193	-0.001113	-0.461253
C579	C	0.141002	-0.021683	-0.419504
H580	H	0.210442	0.000470	-0.462979
H581	H	0.174297	-0.017637	-0.480123
H582	H	0.192343	0.029083	-0.471559
H583	H	0.130831	-0.051879	-0.409162
H584	H	0.148921	-0.005130	-0.400659
O585	O	0.211377	-0.112808	0.013597
C586	C	0.265334	-0.054651	0.013900
C587	C	0.222748	-0.076070	0.015471
H588	H	0.274546	-0.024942	0.015405
H589	H	0.259703	-0.071319	0.039126
H590	H	0.293300	-0.051830	-0.014026
H591	H	0.194762	-0.078897	0.043380
H592	H	0.228416	-0.059393	-0.009775
H593	H	0.064808	0.098152	0.019035
O594	O	-0.776200	-0.606636	0.507392
C595	C	-0.811799	-0.641507	0.572593
C596	C	-0.769209	-0.620323	0.531579
H597	H	-0.806164	-0.652586	0.592157
H598	H	-0.821009	-0.621019	0.583360
H599	H	-0.839768	-0.666625	0.572616
H600	H	-0.741212	-0.595206	0.531523
H601	H	-0.760037	-0.640836	0.520828
O602	O	0.619982	0.295728	-0.395019
C603	C	0.616110	0.296073	-0.336875
C604	C	0.596536	0.297671	-0.358306
H605	H	0.597169	0.297651	-0.307192
H606	H	0.613293	0.268134	-0.333998
H607	H	0.652386	0.321281	-0.353585
H608	H	0.560256	0.272483	-0.341614
H609	H	0.599388	0.325626	-0.361187
O610	O	0.211437	0.171127	0.013504
C611	C	0.288630	0.223393	-0.022679
C612	C	0.246019	0.202180	-0.021069
H613	H	0.316603	0.248499	-0.050633
H614	H	0.283025	0.234478	0.002517
H615	H	0.297813	0.202885	-0.021123
H616	H	0.236812	0.222665	-0.022637
H617	H	0.251646	0.191089	-0.046262
O618	O	0.329201	0.311137	-0.305891
C619	C	0.297896	0.344885	-0.305779
C620	C	0.339062	0.344291	-0.326338
H621	H	0.305856	0.371692	-0.322298
H622	H	0.269638	0.318405	-0.304227
H623	H	0.287723	0.345010	-0.275571
H624	H	0.349274	0.344180	-0.356556
H625	H	0.367294	0.370770	-0.327859
H626	H	0.267896	-0.186572	-0.365817
O627	O	0.170386	0.262983	0.187251
C628	C	0.233208	0.294978	0.190457
C629	C	0.213516	0.296550	0.169135
H630	H	0.268085	0.322110	0.175814
H631	H	0.211694	0.292684	0.221388
H632	H	0.234431	0.268958	0.189940
H633	H	0.212291	0.322567	0.169622
H634	H	0.235037	0.298823	0.138214
H635	H	0.230097	-0.219111	-0.398135
H636	H	-0.117214	-0.083584	0.019042
O637	O	0.440756	-0.412006	-0.029039
C638	C	0.474568	-0.443240	-0.062769
C639	C	0.453395	-0.422649	-0.062163
H640	H	0.484784	-0.451858	-0.089543
H641	H	0.504934	-0.423215	-0.062935
H642	H	0.449629	-0.469917	-0.036259
H643	H	0.478301	-0.395974	-0.088668
H644	H	0.423022	-0.442701	-0.061978
H645	H	0.333309	0.296016	-0.114204
O646	O	0.211438	-0.112812	-0.507448
C647	C	0.265383	-0.054666	-0.561719
C648	C	0.222772	-0.076096	-0.520717
H649	H	0.274555	-0.024981	-0.572462
H650	H	0.293376	-0.051795	-0.561771
H651	H	0.259745	-0.071373	-0.581288
H652	H	0.228366	-0.059408	-0.501124
H653	H	0.194794	-0.078971	-0.520695
O654	O	0.099890	-0.224707	-0.395886
C655	C	0.106885	-0.277304	-0.398433
C656	C	0.126539	-0.236304	-0.419696
H657	H	0.128417	-0.286696	-0.417677
H658	H	0.105649	-0.278038	-0.371184
H659	H	0.072016	-0.297543	-0.390704
H660	H	0.161415	-0.216041	-0.427452
H661	H	0.127741	-0.235601	-0.446929
O662	O	0.376648	-0.077972	-0.187054
C663	C	0.410584	-0.011998	-0.190073
C664	C	0.368001	-0.053014	-0.168899
H665	H	0.403605	0.008194	-0.175408
H666	H	0.437265	-0.011300	-0.189477
H667	H	0.422402	-0.002519	-0.221030
H668	H	0.356144	-0.062519	-0.137934
H669	H	0.341347	-0.053689	-0.169527
H670	H	-0.182070	-0.115902	0.013781
O671	O	-0.623510	-0.530658	0.360419
C672	C	-0.546331	-0.478363	0.319398
C673	C	-0.588946	-0.499561	0.360397
H674	H	-0.518377	-0.453213	0.319365
H675	H	-0.537089	-0.498837	0.308646
H676	H	-0.551988	-0.467332	0.299824
H677	H	-0.583323	-0.510594	0.380000
H678	H	-0.598175	-0.479073	0.371118
O679	O	-0.184711	-0.606424	0.395070
C680	C	-0.249202	-0.641302	0.394369
C681	C	-0.229577	-0.620109	0.415761
H682	H	-0.285482	-0.652380	0.411093
H683	H	-0.230280	-0.620821	0.364672
H684	H	-0.246377	-0.666422	0.391519
H685	H	-0.232399	-0.594991	0.418640
H686	H	-0.248503	-0.640616	0.445445
O687	O	0.549523	-0.245777	-0.019299
C688	C	0.484913	-0.245255	0.010301
C689	C	0.504650	-0.266530	0.011882
H690	H	0.448628	-0.262029	0.035503
H691	H	0.503762	-0.215536	0.011853
H692	H	0.487733	-0.242462	-0.017643
H693	H	0.501834	-0.269352	0.039822
H694	H	0.485797	-0.296236	0.010308
H695	H	0.230368	0.295965	-0.398887
H696	H	-0.666703	-0.216219	0.398058
H697	H	0.205320	0.268435	0.398066
H698	H	-0.732353	-0.533492	0.468971
O699	O	0.170247	0.094820	0.019335
C700	C	0.158769	0.042406	0.055528
C701	C	0.139124	0.063758	0.053907
H702	H	0.133619	0.017293	0.083481
H703	H	0.167218	0.031317	0.030331
H704	H	0.190033	0.062824	0.053980
H705	H	0.107848	0.043363	0.055466
H706	H	0.130707	0.074853	0.079101
O707	O	-0.005593	-0.135164	-0.305785
C708	C	-0.064282	-0.189622	-0.247821
C709	C	-0.043093	-0.147866	-0.268423
H710	H	-0.094599	-0.199902	-0.217608
H711	H	-0.074578	-0.208501	-0.264317
H712	H	-0.039330	-0.191367	-0.246280
H713	H	-0.068021	-0.146084	-0.269969
H714	H	-0.032787	-0.129005	-0.251920
H715	H	0.100149	0.253421	0.308676
H716	H	0.167477	-0.248833	0.184031
O717	O	0.265057	-0.357357	-0.019345
C718	C	0.206579	-0.411629	-0.019013
C719	C	0.226406	-0.370626	-0.017409
H720	H	0.175321	-0.422371	-0.017439
H721	H	0.231646	-0.411686	-0.046953
H722	H	0.198078	-0.431195	0.006196
H723	H	0.234906	-0.351035	-0.042598
H724	H	0.201327	-0.370599	0.010547
O725	O	-0.005379	-0.411819	0.305821
C726	C	-0.064064	-0.469781	0.310044
C727	C	-0.042878	-0.449180	0.330615
H728	H	-0.094380	-0.499994	0.330079
H729	H	-0.074363	-0.453286	0.301465
H730	H	-0.039110	-0.471320	0.283347
H731	H	-0.067808	-0.447636	0.357326
H732	H	-0.032569	-0.465683	0.339166
H733	H	-0.667447	-0.603843	0.398798
O734	O	0.549878	0.301483	-0.471870
C735	C	0.563212	0.335265	-0.526990
C736	C	0.582788	0.333666	-0.505562
H737	H	0.589808	0.361287	-0.554231
H738	H	0.550753	0.308133	-0.534742
H739	H	0.534569	0.337572	-0.507843
H740	H	0.611445	0.331372	-0.524688
H741	H	0.595217	0.360798	-0.497805
H742	H	-0.002524	-0.026519	0.028802
H743	H	0.064523	-0.351759	0.184259
O744	O	0.329179	-0.411947	-0.028987
C745	C	0.275450	-0.407718	-0.029723
C746	C	0.316613	-0.387152	-0.029125
H747	H	0.265272	-0.387683	-0.029827
H748	H	0.283374	-0.416295	-0.056520
H749	H	0.247209	-0.434417	-0.003234
H750	H	0.344872	-0.360440	-0.055596
H751	H	0.308652	-0.378604	-0.002311
H752	H	0.167506	-0.083593	0.019063
O753	O	0.265069	0.301495	-0.187078
C754	C	0.206594	0.301165	-0.182875
C755	C	0.226420	0.299565	-0.161697
H756	H	0.175338	0.299597	-0.162361
H757	H	0.231662	0.329100	-0.208001
H758	H	0.198089	0.275952	-0.193936
H759	H	0.234924	0.324758	-0.150611
H760	H	0.201340	0.271613	-0.136589
O761	O	0.224272	-0.321945	-0.013626
C762	C	0.167201	-0.319413	-0.009139
C763	C	0.209796	-0.298159	-0.010723
H764	H	0.155479	-0.300195	-0.006783
H765	H	0.174083	-0.327119	-0.036289
H766	H	0.140489	-0.346676	0.016858
H767	H	0.236528	-0.270883	-0.036703
H768	H	0.202878	-0.290483	0.016445
O769	O	0.376980	0.301465	-0.472152
C770	C	0.431059	0.301137	-0.530190
C771	C	0.388450	0.299532	-0.508894
H772	H	0.440341	0.299567	-0.559898
H773	H	0.459005	0.329076	-0.533006
H774	H	0.425358	0.275928	-0.513418
H775	H	0.394109	0.324721	-0.525648
H776	H	0.360519	0.271577	-0.506075
H777	H	0.370892	0.301275	-0.184323
H778	H	0.064816	0.263199	0.468675
O779	O	0.211147	-0.210666	0.395825
C780	C	0.268190	-0.158069	0.398376
C781	C	0.225580	-0.199070	0.419636
H782	H	0.279867	-0.148679	0.417621
H783	H	0.294941	-0.157333	0.371126
H784	H	0.261289	-0.137831	0.390648
H785	H	0.232439	-0.219333	0.427391
H786	H	0.198843	-0.199776	0.446870
H787	H	0.267945	0.301232	-0.366341
O788	O	-0.005583	0.253347	0.305783
C789	C	-0.064310	0.252567	0.310034
C790	C	-0.043130	0.253138	0.330606
H791	H	-0.094676	0.252390	0.330098
H792	H	-0.039403	0.279072	0.283355
H793	H	-0.074547	0.225788	0.301427
H794	H	-0.032893	0.279899	0.339239
H795	H	-0.068050	0.226615	0.357269
H796	H	0.370881	-0.248784	-0.019122
H797	H	0.437930	-0.026285	-0.308746
H798	H	-0.447397	-0.351491	0.184007
H799	H	-0.562326	-0.306401	0.308670
H800	H	-0.002500	-0.026531	-0.308780
H801	H	0.617482	-0.318952	-0.013867
O802	O	0.106238	-0.300201	0.305715
C803	C	0.159977	-0.245741	0.247753
C804	C	0.118806	-0.287497	0.268353
H805	H	0.170155	-0.235459	0.217540
H806	H	0.152061	-0.226862	0.264250
H807	H	0.188213	-0.243997	0.246212
H808	H	0.090551	-0.289278	0.269899
H809	H	0.126757	-0.306357	0.251849
O810	O	0.099212	-0.322548	0.111170
C811	C	0.040756	-0.380706	0.115367
C812	C	0.060600	-0.359286	0.136536
H813	H	0.009540	-0.410415	0.135864
H814	H	0.032198	-0.364039	0.104328
H815	H	0.065861	-0.383528	0.090224
H816	H	0.035517	-0.356458	0.161694
H817	H	0.069168	-0.375962	0.147547
H818	H	-0.002298	-0.408829	0.411365
O819	O	0.336159	0.295794	-0.507475
C820	C	0.366482	0.325392	-0.572675
C821	C	0.346658	0.326971	-0.531662
H822	H	0.374968	0.350591	-0.592240
H823	H	0.397737	0.326948	-0.583444
H824	H	0.341387	0.297446	-0.572697
H825	H	0.371720	0.354912	-0.531608
H826	H	0.315395	0.325393	-0.520910
O827	O	-0.114230	-0.530278	0.359913
C828	C	-0.117872	-0.534237	0.305514
C829	C	-0.137575	-0.555550	0.346514
H830	H	-0.136732	-0.554663	0.294665
H831	H	-0.120680	-0.509107	0.305510
H832	H	-0.081592	-0.523168	0.286001
H833	H	-0.173860	-0.566644	0.366050
H834	H	-0.134732	-0.580662	0.346487
O835	O	-0.114420	-0.077728	-0.187320
C836	C	-0.118085	-0.023339	-0.183372
C837	C	-0.137809	-0.064349	-0.162064
H838	H	-0.136993	-0.012513	-0.162965
H839	H	-0.081814	-0.003798	-0.194418
H840	H	-0.120863	-0.023356	-0.208521
H841	H	-0.135063	-0.064369	-0.136901
H842	H	-0.174071	-0.083872	-0.151047
H843	H	-0.382532	-0.318952	0.113884
H844	H	0.437935	-0.026287	-0.411409
H845	H	0.205322	0.268398	0.114116
O846	O	0.058227	0.094915	-0.359996
C847	C	0.004145	0.098880	-0.305596
C848	C	0.046756	0.120189	-0.346598
H849	H	-0.005137	0.119306	-0.294748
H850	H	-0.023799	0.073748	-0.305588
H851	H	0.009845	0.087812	-0.286085
H852	H	0.041100	0.131282	-0.366133
H853	H	0.074686	0.145302	-0.346575
O854	O	-0.005458	0.253382	0.417284
C855	C	-0.001963	0.252658	0.471748
C856	C	0.019159	0.253187	0.430009
H857	H	0.017926	0.252492	0.482051
H858	H	-0.002121	0.279173	0.473493
H859	H	-0.037354	0.225888	0.490610
H860	H	0.054558	0.279940	0.411121
H861	H	0.019283	0.226655	0.428294
H862	H	0.102623	0.268466	0.500992
O863	O	0.099149	0.171113	-0.395132
C864	C	0.110411	0.223382	-0.370209
C865	C	0.130197	0.202168	-0.391607
H866	H	0.135500	0.248490	-0.367346
H867	H	0.101904	0.234466	-0.386897
H868	H	0.079163	0.202876	-0.340516
H869	H	0.161458	0.222651	-0.421301
H870	H	0.138673	0.191078	-0.374890
H871	H	0.335269	-0.128941	-0.308748
H872	H	0.204850	0.168253	-0.501099
O873	O	0.170169	0.095164	-0.471884
C874	C	0.228627	0.099357	-0.530040
C875	C	0.208781	0.120527	-0.508623
H876	H	0.259843	0.119852	-0.559750
H877	H	0.237184	0.088320	-0.513371
H878	H	0.203523	0.074214	-0.532861
H879	H	0.233863	0.145686	-0.505797
H880	H	0.200214	0.131536	-0.525301
H881	H	-0.117197	0.263199	0.468949
O882	O	-0.114677	-0.189642	-0.187077
C883	C	-0.118551	-0.247787	-0.182868
C884	C	-0.138126	-0.226356	-0.161693
H885	H	-0.137495	-0.277471	-0.162351
H886	H	-0.121364	-0.250661	-0.207992
H887	H	-0.082277	-0.231080	-0.193931
H888	H	-0.174405	-0.243045	-0.150605
H889	H	-0.135279	-0.223478	-0.136587
H890	H	-0.182279	-0.218843	-0.113977
O891	O	-0.184782	0.268714	0.507333
C892	C	-0.180895	0.268407	0.561598
C893	C	-0.161333	0.266784	0.520601
H894	H	-0.161951	0.266838	0.572340
H895	H	-0.178071	0.296350	0.561642
H896	H	-0.217172	0.243203	0.581173
H897	H	-0.125051	0.291967	0.501002
H898	H	-0.164192	0.238825	0.520587
H899	H	0.167543	-0.083608	-0.469060
