data_functionalizedCrystal
_audit_creation_method	'MofGen! by Chris Wilmer'
_symmetry_space_group_name_H-M	'P1'
_symmetry_Int_Tables_number	1
_symmetry_cell_setting	triclinic
loop_
_symmetry_equiv_pos_as_xyz
  x,y,z
_cell_length_a	19.851628
_cell_length_b	20.875641
_cell_length_c	20.875641
_cell_angle_alpha	89.846015
_cell_angle_beta	57.593750
_cell_angle_gamma	57.586919
loop_
_atom_site_label
_atom_site_type_symbol
_atom_site_fract_x
_atom_site_fract_y
_atom_site_fract_z
Zr1	Zr	0.692935	-0.063082	0.639120
O2	O	0.850505	-0.173621	0.528595
O3	O	0.547180	-0.029192	0.672995
O4	O	0.698843	-0.168318	0.667704
O5	O	0.690062	0.075245	0.538068
O6	O	0.690063	-0.164139	0.777443
O7	O	0.698842	-0.034495	0.533886
O8	O	0.418767	0.084732	0.786908
O9	O	0.961359	-0.173626	0.528602
O10	O	0.596203	-0.011624	0.769348
O11	O	0.596203	0.067155	0.690571
O12	O	0.774766	-0.096648	0.684341
O13	O	0.774766	-0.017869	0.605565
Zr14	Zr	0.664929	0.118605	0.820810
Zr15	Zr	0.678932	-0.056418	0.814141
Zr16	Zr	0.678932	0.111941	0.645789
Zr17	Zr	0.869734	-0.063090	0.639132
Zr18	Zr	0.488130	0.118613	0.820798
O19	O	0.810684	0.084715	0.786935
O20	O	0.830595	-0.164145	0.777452
O21	O	0.830594	0.075238	0.538077
O22	O	0.507359	0.229144	0.931335
O23	O	0.527270	-0.019715	0.921853
O24	O	0.527270	0.219668	0.682478
O25	O	0.667802	-0.019722	0.921862
O26	O	0.659021	0.223841	0.792226
O27	O	0.667801	0.219662	0.682487
O28	O	0.659022	0.090018	0.926044
O29	O	0.950228	-0.168329	0.667721
O30	O	0.407636	0.223852	0.792209
O31	O	0.396506	0.229149	0.931328
O32	O	0.407636	0.090029	0.926027
O33	O	0.950228	-0.034506	0.533903
O34	O	0.939098	-0.029209	0.673022
O35	O	0.583098	0.152171	0.775589
O36	O	0.583098	0.073392	0.854365
O37	O	0.761661	-0.011632	0.769359
O38	O	0.761661	0.067147	0.690583
C39	C	0.457783	0.027771	0.729950
C40	C	0.382728	0.027775	0.729945
C41	C	0.696448	0.019425	0.511040
C42	C	0.702392	0.016596	0.436739
C43	C	0.661416	0.246688	0.738307
C44	C	0.655471	0.320990	0.741138
C45	C	0.201368	0.070722	0.687007
C46	C	0.220457	-0.007521	0.651711
C47	C	0.245307	0.027764	0.729958
C48	C	0.092507	0.105987	0.765228
C49	C	0.112562	0.027760	0.729970
C50	C	0.265438	-0.050526	0.694615
C51	C	0.137434	0.063039	0.808178
C52	C	0.156559	-0.015249	0.772899
C53	C	0.321779	0.027767	0.729949
C54	C	0.036098	0.027748	0.729977
C55	C	0.900081	0.027752	0.729980
C56	C	0.975137	0.027748	0.729985
C57	C	0.696448	-0.191165	0.721623
C58	C	0.702393	-0.265467	0.718792
C59	C	0.745884	0.311518	0.698097
C60	C	0.740293	0.381335	0.700754
C61	C	0.644287	0.460623	0.746457
C62	C	0.553868	0.470094	0.789499
C63	C	0.559461	0.400278	0.786837
C64	C	0.617566	0.674187	0.759172
C65	C	0.611980	0.744005	0.761833
C66	C	0.798406	0.655241	0.673086
C67	C	0.803989	0.585427	0.670432
C68	C	0.713571	0.594904	0.713471
N69	N	0.638570	0.531989	0.749176
N70	N	0.719290	0.523539	0.710747
C71	C	0.611980	0.059644	0.446203
C72	C	0.617571	0.056984	0.376386
C73	C	0.713577	0.011270	0.297107
C74	C	0.803996	-0.031779	0.287645
C75	C	0.798403	-0.029114	0.357461
C76	C	0.740298	-0.001457	0.083545
C77	C	0.745885	-0.004121	0.013728
C78	C	0.559459	0.084644	0.102474
C79	C	0.553875	0.087301	0.172287
C80	C	0.644294	0.044255	0.162820
N81	N	0.719295	0.008548	0.225742
N82	N	0.638574	0.046983	0.234184
C83	C	0.661417	0.036098	0.948890
C84	C	0.655472	0.038927	1.023191
C85	C	0.440268	0.036108	0.948875
C86	C	0.359268	0.038940	1.023171
C87	C	0.440267	0.246698	0.738292
C88	C	0.359267	0.321003	0.741118
C89	C	0.422752	0.255034	0.957217
C90	C	0.335807	0.332169	1.034344
C91	C	0.935112	-0.199511	0.502713
C92	C	1.022057	-0.276646	0.425586
C93	C	0.917596	0.019415	0.511055
C94	C	0.998597	0.016583	0.436759
C95	C	0.917597	-0.191175	0.721638
C96	C	0.998597	-0.265480	0.718812
C97	C	0.328070	-0.004114	1.013683
C98	C	0.251973	-0.001470	1.083484
C99	C	0.207070	0.044235	1.162774
C100	C	0.238275	0.087291	1.172261
C101	C	0.314375	0.084641	1.102460
C102	C	0.314387	0.400283	0.786824
C103	C	0.238288	0.470107	0.789477
C104	C	0.207065	0.460650	0.746428
C105	C	0.251953	0.381362	0.700716
C106	C	0.328056	0.311539	0.698060
C107	C	0.294976	0.327270	1.111692
C108	C	0.213292	0.399740	1.184167
C109	C	0.172435	0.477107	1.179294
C110	C	0.213273	0.482004	1.101938
C111	C	0.294961	0.409535	1.029464
C112	C	1.062897	-0.271747	0.348239
C113	C	1.144603	-0.344217	0.275763
C114	C	1.185464	-0.421584	0.280637
C115	C	1.144621	-0.426480	0.357993
C116	C	1.062921	-0.354012	0.430466
C117	C	1.029802	0.059630	0.446247
C118	C	1.105920	0.056966	0.376445
C119	C	1.150826	0.011259	0.297155
C120	C	1.119618	-0.031794	0.287669
C121	C	1.043506	-0.029134	0.357470
C122	C	1.029795	-0.255997	0.761870
C123	C	1.105893	-0.325807	0.759231
C124	C	1.150796	-0.405100	0.713528
C125	C	1.119591	-0.414582	0.670469
C126	C	1.043490	-0.344772	0.673113
H127	H	0.221119	0.106990	0.650633
N128	N	0.169232	0.394455	1.267596
H129	H	0.176873	0.422676	1.299508
H130	H	0.207524	0.334429	1.259617
H131	H	1.131291	-0.318070	0.794294
N132	N	-0.005285	0.193617	0.804745
H133	H	-0.065338	0.200363	0.854890
H134	H	-0.017587	0.205719	0.763569
N135	N	0.189871	0.555619	0.838787
H136	H	0.244950	0.561297	0.816624
H137	H	0.155293	0.564377	0.898825
H138	H	1.212800	0.009100	0.240325
H139	H	0.254820	-0.037362	0.585565
N140	N	0.837818	-0.047898	0.073331
H141	H	0.899483	-0.077268	0.012513
H142	H	0.842835	-0.089839	0.098802
H143	H	0.339799	0.407998	0.821880
N144	N	0.084323	0.555271	1.257461
H145	H	0.106178	0.556577	1.291064
H146	H	0.023155	0.556529	1.290990
H147	H	1.177900	-0.489481	0.361951
N148	N	0.339041	0.243832	1.116964
H149	H	0.396988	0.198658	1.059320
H150	H	0.283230	0.238542	1.147592
N151	N	0.376491	-0.053412	0.928169
H152	H	0.345173	-0.080284	0.932762
H153	H	0.453189	-0.097564	0.895708
N154	N	0.461945	0.410490	0.833259
H155	H	0.400277	0.471312	0.862618
H156	H	0.456917	0.385022	0.875203
N157	N	1.232867	-0.480391	0.710689
H158	H	1.245810	-0.462343	0.744905
H159	H	1.298665	-0.516178	0.651497
H160	H	1.156192	-0.069008	0.223102
N161	N	0.169201	0.565452	1.096687
H162	H	0.111254	0.610610	1.154340
H163	H	0.141934	0.570750	1.066069
N164	N	0.091937	0.102582	0.895778
H165	H	0.027313	0.161702	0.922378
H166	H	0.143681	0.101734	0.895075
N167	N	0.981378	0.108926	0.531763
H168	H	0.946818	0.168981	0.540583
H169	H	1.036511	0.086672	0.537394
N170	N	0.124992	0.047089	1.238056
H171	H	0.112047	0.012877	1.220006
H172	H	0.059198	0.106289	1.273832
N173	N	0.189822	0.136598	1.257784
H174	H	0.221124	0.163478	1.253213
H175	H	0.202764	0.098519	1.287120
H176	H	1.018102	-0.064187	0.349733
N177	N	0.218266	0.371168	0.654293
H178	H	0.163240	0.427435	0.662922
H179	H	0.189722	0.341162	0.675570
N180	N	1.018859	-0.359305	0.513888
H181	H	0.960898	-0.301661	0.559068
H182	H	1.074667	-0.389935	0.519187
N183	N	1.168028	-0.500107	0.621177
H184	H	1.220973	-0.542885	0.626038
H185	H	1.202546	-0.508857	0.561146
H186	H	0.364588	0.246989	0.660843
H187	H	0.339766	0.119707	1.110197
N188	N	0.338992	0.414824	0.946040
H189	H	0.300706	0.474834	0.953958
H190	H	0.331342	0.386556	0.914182
H191	H	1.029633	-0.208758	0.344254
H192	H	1.177844	-0.340214	0.212784
N193	N	0.508431	0.108942	0.531709
H194	H	0.452004	0.135809	0.527107
H195	H	0.498757	0.153098	0.564177
N196	N	0.520056	0.103414	0.386592
H197	H	0.458389	0.132772	0.447409
H198	H	0.521610	0.063123	0.357990
H199	H	0.145096	0.517510	0.748598
N200	N	1.009847	-0.355007	0.626667
H201	H	1.049847	-0.415833	0.597315
H202	H	1.023399	-0.329549	0.584716
N203	N	0.520046	0.684412	0.805620
H204	H	0.458380	0.745236	0.834987
H205	H	0.515042	0.658941	0.847559
H206	H	0.824068	-0.041350	-0.050827
N207	N	1.273582	-0.499743	0.202465
H208	H	1.293245	-0.484893	0.152729
H209	H	1.251672	-0.533314	0.201217
N210	N	1.139585	0.103392	0.386683
H211	H	1.126056	0.145380	0.361256
H212	H	1.215667	0.063084	0.358151
N213	N	0.363197	-0.138198	0.655013
H214	H	0.423341	-0.144804	0.605159
H215	H	0.356328	-0.177852	0.637155
N216	N	0.130673	-0.063433	0.821011
H217	H	0.195456	-0.122494	0.794280
H218	H	0.079314	-0.062706	0.821147
H219	H	0.993245	-0.191438	0.799086
H220	H	0.226577	-0.036531	1.075744
N221	N	0.895918	0.645030	0.626664
H222	H	0.940930	0.611911	0.565687
H223	H	0.934271	0.615070	0.647980
N224	N	0.849432	0.226002	0.648818
H225	H	0.905859	0.230599	0.621957
H226	H	0.859114	0.193525	0.604663
H227	H	0.813916	0.373615	0.665707
H228	H	0.475699	0.124510	0.236836
N229	N	0.907554	0.499925	0.621167
H230	H	0.950653	0.491087	0.561112
H231	H	0.897324	0.457167	0.626075
N232	N	0.508427	0.829528	0.811131
H233	H	0.451995	0.824939	0.837991
H234	H	0.505343	0.858862	0.773051
H235	H	0.475699	0.534657	0.826707
H236	H	0.882165	-0.068995	0.223089
N237	N	0.461941	0.131065	0.112684
H238	H	0.480048	0.122441	0.056428
H239	H	0.416967	0.192029	0.145828
H240	H	0.872025	-0.064158	0.349751
