data_functionalizedCrystal
_audit_creation_method	'MofGen! by Chris Wilmer'
_symmetry_space_group_name_H-M	'P1'
_symmetry_Int_Tables_number	1
_symmetry_cell_setting	triclinic
loop_
_symmetry_equiv_pos_as_xyz
  x,y,z
_cell_length_a	12.645330
_cell_length_b	16.625548
_cell_length_c	16.625539
_cell_angle_alpha	90.020568
_cell_angle_beta	90.025033
_cell_angle_gamma	90.013453
loop_
_atom_site_label
_atom_site_type_symbol
_atom_site_fract_x
_atom_site_fract_y
_atom_site_fract_z
Zn1	Zn	-0.422007	1.232737	0.455928
Zn2	Zn	0.077993	1.732737	0.955928
Zn3	Zn	-0.599293	1.232664	0.321103
Zn4	Zn	-0.099293	1.732664	0.821103
Zn5	Zn	-0.422048	1.097899	0.321108
Zn6	Zn	0.077952	1.597899	0.821108
Zn7	Zn	-0.599232	1.097893	0.455892
Zn8	Zn	-0.099232	1.597893	0.955892
O9	O	-0.510645	1.165298	0.388508
O10	O	-0.010645	1.665298	0.888508
O11	O	-0.445533	1.345560	0.438055
O12	O	0.054467	1.845560	0.938055
O13	O	-0.575824	1.214759	0.208271
O14	O	-0.075824	1.714759	0.708271
O15	O	-0.273695	1.115818	0.339009
O16	O	0.226305	1.615818	0.839009
O17	O	-0.575784	1.345506	0.339000
O18	O	-0.075784	1.845506	0.839000
O19	O	-0.273665	1.214883	0.438061
O20	O	0.226335	1.714883	0.938061
O21	O	-0.445602	1.115748	0.208275
O22	O	0.054398	1.615748	0.708275
O23	O	-0.445543	0.985066	0.338975
O24	O	0.054457	1.485066	0.838975
O25	O	-0.575681	1.115808	0.568730
O26	O	-0.075681	1.615808	1.068730
O27	O	-0.575720	0.985061	0.438001
O28	O	-0.075720	1.485061	0.938001
O29	O	-0.445474	1.214878	0.568755
O30	O	0.054526	1.714878	1.068755
O31	O	-0.747632	1.214753	0.338966
O32	O	-0.247632	1.714753	0.838966
O33	O	-0.747588	1.115738	0.437995
O34	O	-0.247588	1.615738	0.937995
C35	C	-0.510630	0.955807	0.388485
C36	C	-0.010630	1.455807	0.888485
C37	C	-0.510649	0.866186	0.388495
C38	C	-0.010649	1.366186	0.888495
C39	C	-0.510656	0.538011	0.388529
C40	C	-0.010656	1.038011	0.888529
C41	C	-0.510651	0.629319	0.388517
C42	C	-0.010651	1.129319	0.888517
C43	C	-0.510653	0.702095	0.388511
C44	C	-0.010653	1.202095	0.888511
C45	C	-0.510647	0.793410	0.388500
C46	C	-0.010647	1.293410	0.888500
C47	C	-0.786075	1.165259	0.388494
C48	C	-0.286075	1.665259	0.888494
C49	C	-0.903905	1.165316	0.388515
C50	C	-0.403905	1.665316	0.888515
C51	C	-0.948770	1.227678	0.326269
C52	C	-0.448770	1.727678	0.826269
C53	C	-1.071331	1.227534	0.326047
C54	C	-0.571331	1.727534	0.826047
C55	C	-1.071913	1.080345	0.365681
C56	C	-0.571913	1.580345	0.865681
C57	C	-0.949315	1.080666	0.365207
C58	C	-0.449315	1.580666	0.865207
C59	C	-0.948986	1.187266	0.473797
C60	C	-0.448986	1.687266	0.973797
C61	C	-1.071590	1.189181	0.473365
C62	C	-0.571590	1.689181	0.973365
C63	C	-0.234140	1.165360	0.388540
C64	C	0.265860	1.665360	0.888540
C65	C	-0.116310	1.165386	0.388553
C66	C	0.383690	1.665386	0.888553
C67	C	-0.510566	1.165351	0.598817
C68	C	-0.010566	1.665351	1.098817
C69	C	-0.510532	1.165373	0.688438
C70	C	-0.010532	1.665373	1.188438
C71	C	-0.510661	1.375607	0.388531
C72	C	-0.010661	1.875607	0.888531
C73	C	-0.510668	1.465228	0.388541
C74	C	-0.010668	1.965228	0.888541
C75	C	-0.510647	1.165292	0.179017
C76	C	-0.010647	1.665292	0.679017
C77	C	-0.510382	1.165426	0.089396
C78	C	-0.010382	1.665426	0.589396
C79	C	-0.510414	1.165410	1.016614
C80	C	-0.010414	1.665410	1.516614
C81	C	-0.510450	1.165397	0.925305
C82	C	-0.010450	1.665397	1.425305
C83	C	-0.510474	1.165392	0.852529
C84	C	-0.010474	1.665392	1.352529
C85	C	-0.510509	1.165378	0.761214
C86	C	-0.010509	1.665378	1.261214
H87	H	-1.101344	1.290586	0.340333
H88	H	-0.601344	1.790586	0.840333
H89	H	-0.919639	1.032608	0.408585
H90	H	-0.419639	1.532608	0.908585
H91	H	-1.101050	1.032634	0.409636
H92	H	-0.601050	1.532634	0.909636
H93	H	-0.918033	1.213311	0.263439
H94	H	-0.418033	1.713311	0.763439
H95	H	-0.919964	1.141851	0.520173
H96	H	-0.419964	1.641851	1.020173
H97	H	-0.917985	1.248200	0.494640
H98	H	-0.417985	1.748200	0.994640
H99	H	-1.100736	1.213008	0.262868
H100	H	-0.600736	1.713008	0.762868
H101	H	-0.919224	1.290907	0.340386
H102	H	-0.419224	1.790907	0.840386
H103	H	-0.920800	1.062093	0.302874
H104	H	-0.420800	1.562093	0.802874
H105	H	-1.102698	1.061471	0.304044
H106	H	-0.602698	1.561471	0.804044
H107	H	-1.100599	1.251764	0.490614
H108	H	-0.600599	1.751764	0.990614
H109	H	-1.102202	1.147112	0.522221
H110	H	-0.602202	1.647112	1.022221
