data_functionalizedCrystal
_audit_creation_method	'MofGen! by Chris Wilmer'
_symmetry_space_group_name_H-M	'P1'
_symmetry_Int_Tables_number	1
_symmetry_cell_setting	triclinic
loop_
_symmetry_equiv_pos_as_xyz
  x,y,z
_cell_length_a	10.654550
_cell_length_b	10.723024
_cell_length_c	9.198806
_cell_angle_alpha	90.001420
_cell_angle_beta	89.991933
_cell_angle_gamma	95.523614
loop_
_atom_site_label
_atom_site_type_symbol
_atom_site_fract_x
_atom_site_fract_y
_atom_site_fract_z
O1	O	1.667815	-0.175271	-0.121008
O2	O	1.302334	-0.191970	-0.120984
O3	O	1.493505	-0.002045	-0.120991
O4	O	1.476644	-0.365195	-0.121001
O5	O	1.493488	-0.002047	0.120794
O6	O	1.302317	-0.191972	0.120801
O7	O	1.667798	-0.175273	0.120777
Cu8	Cu	1.485056	-0.183622	0.142866
Cu9	Cu	1.485076	-0.183620	-0.143073
O10	O	1.476627	-0.365197	0.120784
C11	C	1.255528	-0.190745	-0.000089
C12	C	1.116085	-0.187076	-0.000080
C13	C	1.492269	0.044454	-0.000100
C14	C	1.488598	0.183008	-0.000105
N15	N	1.485050	-0.183623	0.343980
C16	C	1.036583	-0.298901	-0.000104
C17	C	0.905562	-0.295446	-0.000129
C18	C	0.933560	-0.068333	-0.000112
C19	C	1.064578	-0.071789	-0.000076
C20	C	1.088090	-0.414188	-0.000107
C21	C	1.008586	-0.526022	-0.000133
C22	C	0.877566	-0.522567	-0.000158
C23	C	0.826049	-0.407279	-0.000158
C24	C	1.714604	-0.176498	-0.000122
C25	C	1.854047	-0.180166	-0.000140
C26	C	1.477863	-0.411696	-0.000110
C27	C	1.481534	-0.550251	-0.000115
C28	C	1.595568	0.257975	-0.000114
C29	C	1.591776	0.401179	-0.000119
C30	C	1.565316	-0.103528	0.416174
C31	C	1.565334	-0.103526	0.583586
N32	N	1.485082	-0.183619	0.655813
H33	H	1.194772	-0.417014	-0.000094
O34	O	0.791809	-0.643178	-0.000170
H35	H	0.810261	-0.698284	-0.098723
O36	O	1.656307	-0.012686	0.333865
H37	H	1.754454	-0.029165	0.362947
O38	O	1.064150	-0.650359	-0.000114
H39	H	0.986851	-0.727538	-0.000114
O40	O	1.394044	-0.274466	0.573607
H41	H	1.295916	-0.257962	0.602784
O42	O	0.684734	-0.403547	-0.000161
H43	H	0.656252	-0.353606	-0.098705
O44	O	0.877993	0.056003	-0.000123
H45	H	0.909808	0.109784	0.098442
O46	O	1.394043	-0.274477	0.426249
H47	H	1.332448	-0.221527	0.495630
H48	H	1.689955	0.216139	-0.000112
O49	O	1.363564	0.238412	-0.000085
H50	H	1.356608	0.297082	-0.098626
H51	H	1.129311	0.019269	-0.000060
H52	H	1.634058	-0.034958	0.645670
O53	O	1.360224	0.364430	-0.000101
H54	H	1.304731	0.382686	0.098457
O55	O	1.713088	0.486494	-0.000118
H56	H	1.716926	0.546461	-0.098671
