data_functionalizedCrystal
_audit_creation_method	'MofGen! by Chris Wilmer'
_symmetry_space_group_name_H-M	'P1'
_symmetry_Int_Tables_number	1
_symmetry_cell_setting	triclinic
loop_
_symmetry_equiv_pos_as_xyz
  x,y,z
_cell_length_a	16.625547
_cell_length_b	18.101396
_cell_length_c	16.625539
_cell_angle_alpha	90.027016
_cell_angle_beta	89.975178
_cell_angle_gamma	89.963039
loop_
_atom_site_label
_atom_site_type_symbol
_atom_site_fract_x
_atom_site_fract_y
_atom_site_fract_z
Zn1	Zn	1.232599	0.294829	-0.456008
Zn2	Zn	1.482599	0.544829	-0.206008
Zn3	Zn	1.732599	0.794829	0.043992
Zn4	Zn	1.982599	1.044829	0.293992
Zn5	Zn	1.232468	0.418679	-0.321178
Zn6	Zn	1.482468	0.668679	-0.071178
Zn7	Zn	1.732468	0.918679	0.178822
Zn8	Zn	1.982468	1.168679	0.428822
Zn9	Zn	1.097761	0.294855	-0.321179
Zn10	Zn	1.347761	0.544855	-0.071179
Zn11	Zn	1.597761	0.794855	0.178821
Zn12	Zn	1.847761	1.044855	0.428821
Zn13	Zn	1.097697	0.418634	-0.455958
Zn14	Zn	1.347697	0.668634	-0.205958
Zn15	Zn	1.597697	0.918634	0.044042
Zn16	Zn	1.847697	1.168634	0.294042
O17	O	1.165131	0.356749	-0.388581
O18	O	1.415131	0.606749	-0.138581
O19	O	1.665131	0.856749	0.111419
O20	O	1.915131	1.106749	0.361419
O21	O	1.345414	0.311266	-0.438143
O22	O	1.595414	0.561266	-0.188143
O23	O	1.845414	0.811266	0.061857
O24	O	2.095414	1.061266	0.311857
O25	O	1.214571	0.402283	-0.208346
O26	O	1.464571	0.652283	0.041654
O27	O	1.714571	0.902283	0.291654
O28	O	1.964571	1.152283	0.541654
O29	O	1.115729	0.191219	-0.339085
O30	O	1.365729	0.441219	-0.089085
O31	O	1.615729	0.691219	0.160915
O32	O	1.865729	0.941219	0.410915
O33	O	1.345318	0.402258	-0.339085
O34	O	1.595318	0.652258	-0.089085
O35	O	1.845318	0.902258	0.160915
O36	O	2.095318	1.152258	0.410915
O37	O	1.214794	0.191200	-0.438144
O38	O	1.464794	0.441200	-0.188144
O39	O	1.714794	0.691200	0.061856
O40	O	1.964794	0.941200	0.311856
O41	O	1.115602	0.311310	-0.208346
O42	O	1.365602	0.561310	0.041654
O43	O	1.615602	0.811310	0.291654
O44	O	1.865602	1.061310	0.541654
O45	O	0.984920	0.311267	-0.339037
O46	O	1.234920	0.561267	-0.089037
O47	O	1.484920	0.811267	0.160963
O48	O	1.734920	1.061267	0.410963
O49	O	1.115620	0.402181	-0.568797
O50	O	1.365620	0.652181	-0.318797
O51	O	1.615620	0.902181	-0.068797
O52	O	1.865620	1.152181	0.181203
O53	O	0.984873	0.402206	-0.438059
O54	O	1.234873	0.652206	-0.188059
O55	O	1.484873	0.902206	0.061941
O56	O	1.734873	1.152206	0.311941
O57	O	1.214732	0.311223	-0.568834
O58	O	1.464732	0.561223	-0.318834
O59	O	1.714732	0.811223	-0.068834
O60	O	1.964732	1.061223	0.181166
O61	O	1.214509	0.522306	-0.339036
O62	O	1.464509	0.772306	-0.089036
O63	O	1.714509	1.022306	0.160964
O64	O	1.964509	1.272306	0.410964
O65	O	1.115493	0.522272	-0.438058
O66	O	1.365493	0.772272	-0.188058
O67	O	1.615493	1.022272	0.061942
O68	O	1.865493	1.272272	0.311942
C69	C	0.955640	0.356735	-0.388543
C70	C	1.205640	0.606735	-0.138543
C71	C	1.455640	0.856735	0.111457
C72	C	1.705640	1.106735	0.361457
C73	C	0.866019	0.356747	-0.388545
C74	C	1.116019	0.606747	-0.138545
C75	C	1.366019	0.856747	0.111455
C76	C	1.616019	1.106747	0.361455
C77	C	1.165002	0.549160	-0.388559
C78	C	1.415002	0.799160	-0.138559
C79	C	1.665002	1.049160	0.111441
C80	C	1.915002	1.299160	0.361441
C81	C	1.165020	0.631474	-0.388577
C82	C	1.415020	0.881474	-0.138577
C83	C	1.665020	1.131474	0.111423
C84	C	1.915020	1.381474	0.361423
C85	C	0.793237	0.356748	-0.388555
C86	C	1.043237	0.606748	-0.138555
C87	C	1.293237	0.856748	0.111445
C88	C	1.543237	1.106748	0.361445
C89	C	0.701928	0.356752	-0.388576
C90	C	0.951928	0.606752	-0.138576
C91	C	1.201928	0.856752	0.111424
C92	C	1.451928	1.106752	0.361424
C93	C	0.629152	0.356759	-0.388596
C94	C	0.879152	0.606759	-0.138596
C95	C	1.129152	0.856759	0.111404
C96	C	1.379152	1.106759	0.361404
C97	C	0.537838	0.356764	-0.388615
C98	C	0.787838	0.606764	-0.138615
C99	C	1.037838	0.856764	0.111385
C100	C	1.287838	1.106764	0.361385
C101	C	1.165163	0.930565	-0.388624
C102	C	1.415163	1.180565	-0.138624
C103	C	1.665163	1.430565	0.111376
C104	C	1.915163	1.680565	0.361376
C105	C	1.103013	0.899250	-0.451081
C106	C	1.353013	1.149250	-0.201081
C107	C	1.603013	1.399250	0.048919
C108	C	1.853013	1.649250	0.298919
C109	C	1.102728	0.813632	-0.450884
C110	C	1.352728	1.063632	-0.200884
C111	C	1.602728	1.313632	0.049116
C112	C	1.852728	1.563632	0.299116
C113	C	1.165092	0.782182	-0.388602
C114	C	1.415092	1.032182	-0.138602
C115	C	1.665092	1.282182	0.111398
C116	C	1.915092	1.532182	0.361398
C117	C	1.142081	0.813334	-0.303622
C118	C	1.392081	1.063334	-0.053622
C119	C	1.642081	1.313334	0.196378
C120	C	1.892081	1.563334	0.446378
C121	C	1.141671	0.898979	-0.303997
C122	C	1.391671	1.148979	-0.053997
C123	C	1.641671	1.398979	0.196003
C124	C	1.891671	1.648979	0.446003
C125	C	1.250464	0.898908	-0.410399
C126	C	1.500464	1.148908	-0.160399
C127	C	1.750464	1.398908	0.089601
C128	C	2.000464	1.648908	0.339601
C129	C	1.249972	0.813257	-0.412261
C130	C	1.499972	1.063257	-0.162261
C131	C	1.749972	1.313257	0.087739
C132	C	1.999972	1.563257	0.337739
C133	C	1.165053	0.698323	-0.388584
C134	C	1.415053	0.948323	-0.138584
C135	C	1.665053	1.198323	0.111416
C136	C	1.915053	1.448323	0.361416
C137	C	1.165200	1.014424	-0.388636
C138	C	1.415200	1.264424	-0.138636
C139	C	1.665200	1.514424	0.111364
C140	C	1.915200	1.764424	0.361364
C141	C	1.375440	0.356764	-0.388619
C142	C	1.625440	0.606764	-0.138619
C143	C	1.875440	0.856764	0.111381
C144	C	2.125440	1.106764	0.361381
C145	C	1.465061	0.356771	-0.388636
C146	C	1.715061	0.606771	-0.138636
C147	C	1.965061	0.856771	0.111364
C148	C	2.215061	1.106771	0.361364
C149	C	1.165184	0.356694	-0.598890
C150	C	1.415184	0.606694	-0.348890
C151	C	1.665184	0.856694	-0.098890
C152	C	1.915184	1.106694	0.151110
C153	C	1.165206	0.356671	-0.688511
C154	C	1.415206	0.606671	-0.438511
C155	C	1.665206	0.856671	-0.188511
C156	C	1.915206	1.106671	0.061489
C157	C	1.165255	1.163587	-0.388623
C158	C	1.415255	1.413587	-0.138623
C159	C	1.665255	1.663587	0.111377
C160	C	1.915255	1.913587	0.361377
C161	C	1.165235	1.081273	-0.388649
C162	C	1.415235	1.331273	-0.138649
C163	C	1.665235	1.581273	0.111351
C164	C	1.915235	1.831273	0.361351
C165	C	1.165243	0.356588	-1.016687
C166	C	1.415243	0.606588	-0.766687
C167	C	1.665243	0.856588	-0.516687
C168	C	1.915243	1.106588	-0.266687
C169	C	1.165231	0.356613	-0.925378
C170	C	1.415231	0.606613	-0.675378
C171	C	1.665231	0.856613	-0.425378
C172	C	1.915231	1.106613	-0.175378
C173	C	1.165225	0.356630	-0.852602
C174	C	1.415225	0.606630	-0.602602
C175	C	1.665225	0.856630	-0.352602
C176	C	1.915225	1.106630	-0.102602
C177	C	1.165212	0.356654	-0.761287
C178	C	1.415212	0.606654	-0.511287
C179	C	1.665212	0.856654	-0.261287
C180	C	1.915212	1.106654	-0.011287
C181	C	1.165125	0.356751	-0.179090
C182	C	1.415125	0.606751	0.070910
C183	C	1.665125	0.856751	0.320910
C184	C	1.915125	1.106751	0.570910
C185	C	1.165259	0.356566	-0.089469
C186	C	1.415259	0.606566	0.160531
C187	C	1.665259	0.856566	0.410531
C188	C	1.915259	1.106566	0.660531
H189	H	1.117125	0.792567	-0.513895
H190	H	1.367125	1.042567	-0.263895
H191	H	1.617125	1.292567	-0.013895
H192	H	1.867125	1.542567	0.236105
C193	C	1.058738	0.784453	-0.278259
C194	C	1.308738	1.034453	-0.028259
C195	C	1.558738	1.284453	0.221741
C196	C	1.808738	1.534453	0.471741
N197	N	0.995962	0.762701	-0.259161
N198	N	1.245962	1.012701	-0.009161
N199	N	1.495962	1.262701	0.240839
N200	N	1.745962	1.512701	0.490839
C201	C	1.315846	0.784334	-0.355284
C202	C	1.565846	1.034334	-0.105284
C203	C	1.815846	1.284334	0.144716
C204	C	2.065846	1.534334	0.394716
N205	N	1.365460	0.762550	-0.312360
N206	N	1.615460	1.012550	-0.062360
N207	N	1.865460	1.262550	0.187640
N208	N	2.115460	1.512550	0.437640
C209	C	1.057432	0.926058	-0.279085
C210	C	1.307432	1.176058	-0.029085
C211	C	1.557432	1.426058	0.220915
C212	C	1.807432	1.676058	0.470915
N213	N	0.993981	0.946451	-0.260323
N214	N	1.243981	1.196451	-0.010323
N215	N	1.493981	1.446451	0.239677
N216	N	1.743981	1.696451	0.489677
C217	C	1.278795	0.928013	-0.492691
C218	C	1.528795	1.178013	-0.242691
C219	C	1.778795	1.428013	0.007309
C220	C	2.028795	1.678013	0.257309
N221	N	1.300124	0.949935	-0.554677
N222	N	1.550124	1.199935	-0.304677
N223	N	1.800124	1.449935	-0.054677
N224	N	2.050124	1.699935	0.195323
H225	H	1.296768	0.919159	-0.364909
H226	H	1.546768	1.169159	-0.114909
H227	H	1.796768	1.419159	0.135091
H228	H	2.046768	1.669159	0.385091
C229	C	1.122257	0.927014	-0.536484
C230	C	1.372257	1.177014	-0.286484
C231	C	1.622257	1.427014	-0.036484
C232	C	1.872257	1.677014	0.213516
N233	N	1.136751	0.947933	-0.600811
N234	N	1.386751	1.197933	-0.350811
N235	N	1.636751	1.447933	-0.100811
N236	N	1.886751	1.697933	0.149189
C237	C	1.017304	0.786038	-0.431456
C238	C	1.267304	1.036038	-0.181456
C239	C	1.517304	1.286038	0.068544
C240	C	1.767304	1.536038	0.318544
N241	N	0.952954	0.765254	-0.416843
N242	N	1.202954	1.015254	-0.166843
N243	N	1.452954	1.265254	0.083157
N244	N	1.702954	1.515254	0.333157
C245	C	1.018113	0.928402	-0.431834
C246	C	1.268113	1.178402	-0.181834
C247	C	1.518113	1.428402	0.068166
C248	C	1.768113	1.678402	0.318166
N249	N	0.954166	0.950357	-0.417333
N250	N	1.204166	1.200357	-0.167333
N251	N	1.454166	1.450357	0.082667
N252	N	1.704166	1.700357	0.332667
H253	H	1.184975	0.919697	-0.255875
H254	H	1.434975	1.169697	-0.005875
H255	H	1.684975	1.419697	0.244125
H256	H	1.934975	1.669697	0.494125
H257	H	1.267324	0.792894	-0.474801
H258	H	1.517324	1.042894	-0.224801
H259	H	1.767324	1.292894	0.025199
H260	H	2.017324	1.542894	0.275199
C261	C	1.201312	0.785811	-0.239037
C262	C	1.451312	1.035811	0.010963
C263	C	1.701312	1.285811	0.260963
C264	C	1.951312	1.535811	0.510963
N265	N	1.245924	0.765077	-0.190392
N266	N	1.495924	1.015077	0.059608
N267	N	1.745924	1.265077	0.309608
N268	N	1.995924	1.515077	0.559608
