data_functionalizedCrystal
_audit_creation_method	'MofGen! by Chris Wilmer'
_symmetry_space_group_name_H-M	'P1'
_symmetry_Int_Tables_number	1
_symmetry_cell_setting	triclinic
loop_
_symmetry_equiv_pos_as_xyz
  x,y,z
_cell_length_a	17.699077
_cell_length_b	14.421503
_cell_length_c	17.699103
_cell_angle_alpha	90.002487
_cell_angle_beta	83.285818
_cell_angle_gamma	90.006915
loop_
_atom_site_label
_atom_site_type_symbol
_atom_site_fract_x
_atom_site_fract_y
_atom_site_fract_z
O1	O	1.004090	0.077110	0.095680
O2	O	1.504090	0.577110	0.595680
O3	O	0.783712	0.077115	0.108137
O4	O	1.283712	0.577115	0.608137
O5	O	0.900119	0.077095	-0.008279
O6	O	1.400119	0.577095	0.491721
O7	O	0.887682	0.077130	0.212097
O8	O	1.387682	0.577130	0.712097
O9	O	0.900101	-0.077129	-0.008266
O10	O	1.400101	0.422871	0.491734
O11	O	0.783693	-0.077108	0.108151
O12	O	1.283693	0.422892	0.608151
O13	O	1.004071	-0.077114	0.095694
O14	O	1.504071	0.422886	0.595694
Cu15	Cu	0.893880	-0.091193	0.101923
Cu16	Cu	1.393880	0.408807	0.601923
Cu17	Cu	0.893902	0.091194	0.101908
Cu18	Cu	1.393902	0.591194	0.601908
O19	O	0.887664	-0.077093	0.212110
O20	O	1.387664	0.422907	0.712110
C21	C	0.755505	0.000004	0.107698
C22	C	1.255505	0.500004	0.607698
C23	C	0.671487	0.000006	0.106362
C24	C	1.171487	0.500006	0.606362
C25	C	0.632009	-0.084063	0.105739
C26	C	1.132009	0.415937	0.605739
C27	C	0.553067	-0.084064	0.104471
C28	C	1.053067	0.415936	0.604471
C29	C	0.513602	0.000004	0.103831
C30	C	1.013602	0.500004	0.603831
C31	C	0.553086	0.084079	0.104451
C32	C	1.053086	0.584079	0.604451
C33	C	0.632027	0.084079	0.105714
C34	C	1.132027	0.584079	0.605714
C35	C	0.234722	0.084080	0.099358
C36	C	0.734722	0.584080	0.599358
C37	C	0.155774	0.084073	0.098098
C38	C	0.655774	0.584073	0.598098
C39	C	0.155761	-0.084063	0.098115
C40	C	0.655761	0.415937	0.598115
C41	C	0.234703	-0.084063	0.099378
C42	C	0.734703	0.415937	0.599378
C43	C	0.274180	0.000011	0.099994
C44	C	0.774180	0.500011	0.599994
C45	C	0.359779	0.000012	0.101368
C46	C	0.859779	0.500012	0.601368
C47	C	0.428004	0.000005	0.102463
C48	C	0.928004	0.500005	0.602463
N49	N	0.893871	-0.219474	0.101934
N50	N	1.393871	0.280526	0.601934
C51	C	0.840486	-0.530918	0.156185
C52	C	1.340486	-0.030918	0.656185
C53	C	0.825296	-0.469100	0.088032
C54	C	1.325296	0.030900	0.588032
C55	C	0.893902	-0.591363	0.101904
C56	C	1.393902	-0.091363	0.601904
C57	C	0.909041	-0.469087	0.170070
C58	C	1.409041	0.030913	0.670070
C59	C	0.893884	-0.408642	0.101922
C60	C	1.393884	0.091358	0.601922
C61	C	0.878678	-0.530906	0.033717
C62	C	1.378678	-0.030906	0.533717
C63	C	0.962452	-0.530898	0.115799
C64	C	1.462452	-0.030898	0.615799
C65	C	0.947291	-0.469109	0.047597
C66	C	1.447291	0.030891	0.547597
C67	C	0.893910	-0.696624	0.101894
C68	C	1.393910	-0.196624	0.601894
C69	C	0.893877	-0.303383	0.101924
C70	C	1.393877	0.196617	0.601924
C71	C	1.032278	-0.000001	0.096133
C72	C	1.532278	0.499999	0.596133
C73	C	1.116296	0.000004	0.097469
C74	C	1.616296	0.500004	0.597469
C75	C	0.899662	-0.000020	-0.036469
C76	C	1.399662	0.499980	0.463531
C77	C	0.898317	-0.000027	-0.120487
C78	C	1.398317	0.499973	0.379513
N79	N	0.893918	0.219476	0.101891
N80	N	1.393918	0.719476	0.601891
C81	C	0.890103	0.084101	-0.636205
C82	C	1.390103	0.584101	-0.136205
C83	C	0.891365	0.084092	-0.557262
C84	C	1.391365	0.584092	-0.057262
C85	C	0.891985	0.000020	-0.517796
C86	C	1.391985	0.500020	-0.017796
C87	C	0.891350	-0.084050	-0.557279
C88	C	1.391350	0.415950	-0.057279
C89	C	0.890093	-0.084041	-0.636222
C90	C	1.390093	0.415959	-0.136222
C91	C	0.896420	-0.084089	-0.238913
C92	C	1.396420	0.415911	0.261087
C93	C	0.897674	-0.084092	-0.159964
C94	C	1.397674	0.415908	0.340036
C95	C	0.897692	0.084044	-0.159953
C96	C	1.397692	0.584044	0.340047
C97	C	0.896435	0.084054	-0.238896
C98	C	1.396435	0.584054	0.261104
C99	C	0.895804	-0.000016	-0.278372
C100	C	1.395804	0.499984	0.221628
C101	C	0.894437	-0.000006	-0.363971
C102	C	1.394437	0.499994	0.136029
C103	C	0.893347	0.000009	-0.432198
C104	C	1.393347	0.500009	0.067802
C105	C	0.888121	0.000023	0.240301
C106	C	1.388121	0.500023	0.740301
C107	C	0.889466	0.000037	0.324318
C108	C	1.389466	0.500037	0.824318
H109	H	0.520948	0.152529	0.103925
H110	H	1.020948	0.652529	0.603925
H111	H	0.898208	0.152498	-0.127802
H112	H	1.398208	0.652498	0.372198
H113	H	0.664135	-0.152521	0.106266
H114	H	1.164135	0.347479	0.606266
Br115	Br	0.898513	-0.198199	-0.106404
Br116	Br	1.398513	0.301801	0.393596
Br117	Br	0.499491	-0.198162	0.103638
Br118	Br	0.999491	0.301838	0.603638
Br119	Br	0.895557	-0.198184	-0.292477
Br120	Br	1.395557	0.301816	0.207523
Br121	Br	0.930397	-0.423822	0.266137
Br122	Br	1.430397	0.076178	0.766137
H123	H	0.266830	-0.152520	0.099902
H124	H	0.766830	0.347480	0.599902
Br125	Br	0.102181	-0.198167	0.097277
Br126	Br	0.602181	0.301833	0.597277
H127	H	0.891859	-0.152504	-0.525141
H128	H	1.391859	0.347496	-0.025141
H129	H	0.266855	0.152538	0.099857
H130	H	0.766855	0.652538	0.599857
Br131	Br	0.889236	-0.198132	-0.689800
Br132	Br	1.389236	0.301868	-0.189800
H133	H	0.123645	0.152536	0.097576
H134	H	0.623645	0.652536	0.597576
H135	H	0.664169	0.152536	0.106223
H136	H	1.164169	0.652536	0.606223
H137	H	0.795292	-0.558057	0.202029
H138	H	1.295292	-0.058057	0.702029
H139	H	0.992458	-0.442142	0.001651
H140	H	1.492458	0.057858	0.501651
Br141	Br	0.728663	-0.423852	0.068445
Br142	Br	1.228663	0.076148	0.568445
H143	H	0.895927	0.152514	-0.271024
H144	H	1.395927	0.652514	0.228976
Br145	Br	0.857214	-0.575969	-0.062375
Br146	Br	1.357214	-0.075969	0.437625
H147	H	1.020412	-0.558066	0.127572
H148	H	1.520412	-0.058066	0.627572
Br149	Br	0.889254	0.198206	-0.689757
Br150	Br	1.389254	0.698206	-0.189757
H151	H	0.891886	0.152545	-0.525123
H152	H	1.391886	0.652545	-0.025123
