data_functionalizedCrystal
_audit_creation_method	'MofGen! by Chris Wilmer'
_symmetry_space_group_name_H-M	'P1'
_symmetry_Int_Tables_number	1
_symmetry_cell_setting	triclinic
loop_
_symmetry_equiv_pos_as_xyz
  x,y,z
_cell_length_a	8.497374
_cell_length_b	19.805407
_cell_length_c	19.805405
_cell_angle_alpha	89.973590
_cell_angle_beta	89.985911
_cell_angle_gamma	90.004504
loop_
_atom_site_label
_atom_site_type_symbol
_atom_site_fract_x
_atom_site_fract_y
_atom_site_fract_z
Zn1	Zn	0.892011	1.034635	0.269581
Zn2	Zn	0.628188	1.034580	0.382739
Zn3	Zn	0.628226	0.921479	0.269569
Zn4	Zn	0.891907	0.921413	0.382733
O5	O	0.760083	0.978027	0.326155
O6	O	0.857043	1.129344	0.284598
O7	O	0.407431	1.019581	0.367724
O8	O	0.663277	0.936541	0.174854
O9	O	0.663213	1.129303	0.367735
O10	O	0.857079	1.019676	0.174862
O11	O	0.407458	0.936487	0.284579
O12	O	0.663176	0.826754	0.284573
O13	O	1.112683	0.936428	0.367725
O14	O	0.856901	0.826705	0.367714
O15	O	1.112760	1.019611	0.284593
O16	O	0.663111	1.019517	0.477455
O17	O	0.856864	0.936374	0.477450
C18	C	0.760032	0.802171	0.326142
C19	C	0.760048	0.726939	0.326153
C20	C	0.760007	0.977951	0.502011
C21	C	0.760027	0.977980	0.577243
C22	C	0.860757	0.691587	0.369510
C23	C	0.860779	0.620899	0.369511
C24	C	0.760083	0.585563	0.326158
C25	C	0.659369	0.620920	0.282797
C26	C	0.659356	0.691607	0.282793
C27	C	0.659421	0.335847	0.282812
C28	C	0.659439	0.265155	0.282821
C29	C	0.860844	0.265138	0.369530
C30	C	0.860831	0.335825	0.369526
C31	C	0.760124	0.371176	0.326162
C32	C	0.760103	0.447824	0.326161
C33	C	0.760095	0.508916	0.326163
C34	C	1.171563	0.978022	0.326156
C35	C	1.350207	0.978023	0.326164
C36	C	0.760135	1.154569	0.326169
C37	C	0.760157	1.229801	0.326175
C38	C	0.760194	0.978122	0.149613
C39	C	0.760241	0.978162	0.074381
C40	C	0.659245	1.021314	0.612567
C41	C	0.659280	1.021343	0.683256
C42	C	0.760090	0.978034	0.718619
C43	C	0.860882	0.934697	0.683290
C44	C	0.860854	0.934672	0.612603
C45	C	0.860999	0.934797	0.968363
C46	C	0.861016	0.934824	1.039055
C47	C	0.659425	1.021468	1.039016
C48	C	0.659397	1.021443	0.968329
C49	C	0.760195	0.978109	0.933006
C50	C	0.760158	0.978080	0.856358
C51	C	0.760120	0.978059	0.795266
H52	H	0.942751	0.720352	0.404815
O53	O	0.561507	0.370251	0.240788
C54	C	0.459410	0.411105	0.279248
H55	H	0.514831	0.421687	0.330577
H56	H	0.342481	0.383848	0.286612
C57	C	0.362906	0.465261	0.178932
C58	C	0.430980	0.478263	0.241973
H59	H	0.345361	0.506685	0.155939
H60	H	0.431686	0.437735	0.153020
H61	H	0.265472	0.442545	0.185078
H62	H	0.528420	0.500970	0.235827
H63	H	0.362216	0.505794	0.267884
O64	O	0.561369	0.725845	0.240659
C65	C	0.472516	0.679502	0.202385
H66	H	0.466949	0.629101	0.230107
H67	H	0.530502	0.672010	0.151018
C68	C	0.311487	0.768984	0.158469
C69	C	0.304638	0.707083	0.192521
H70	H	0.207934	0.785998	0.152381
H71	H	0.371352	0.800207	0.184253
H72	H	0.359815	0.762732	0.115667
H73	H	0.256329	0.713337	0.235325
H74	H	0.244761	0.675861	0.166744
H75	H	0.577387	0.592144	0.247496
H76	H	0.942823	0.364592	0.404830
O77	O	0.561438	0.230803	0.240803
C78	C	0.459410	0.189887	0.279276
H79	H	0.449447	0.211171	0.332576
H80	H	0.508173	0.136315	0.281647
C81	C	0.307782	0.162667	0.180639
C82	C	0.295536	0.188812	0.246101
H83	H	0.206699	0.162001	0.160174
H84	H	0.376524	0.190230	0.154718
H85	H	0.348424	0.118026	0.182623
H86	H	0.254913	0.233455	0.244115
H87	H	0.226783	0.161256	0.272021
O88	O	0.959037	0.892848	1.073483
C89	C	1.061037	0.931368	1.114310
H90	H	1.005497	0.982684	1.124864
H91	H	1.177955	0.938758	1.087045
C92	C	1.157762	0.831119	1.168521
C93	C	1.089540	0.894143	1.181488
H94	H	1.175351	0.808156	1.209958
H95	H	1.089047	0.805166	1.141013
H96	H	1.255186	0.837285	1.145798
H97	H	0.992110	0.887975	1.204203
H98	H	1.158239	0.920094	1.209002
O99	O	0.561262	1.063448	0.578323
C100	C	0.472291	1.101690	0.624663
H101	H	0.536937	1.104028	0.675037
H102	H	0.352428	1.076950	0.632224
C103	C	0.370294	1.170854	0.535151
C104	C	0.449700	1.173731	0.597019
H105	H	0.356351	1.215291	0.518099
H106	H	0.430230	1.145088	0.503930
H107	H	0.270416	1.150234	0.541460
H108	H	0.549583	1.194343	0.590708
H109	H	0.389779	1.199501	0.628239
O110	O	0.561720	1.063600	0.717548
C111	C	0.651832	1.107286	0.758323
H112	H	0.776107	1.111272	0.736995
H113	H	0.657132	1.086469	0.811950
C114	C	0.422594	1.172848	0.785429
C115	C	0.575227	1.177748	0.759230
H116	H	0.375339	1.216311	0.785992
H117	H	0.361882	1.143415	0.757960
H118	H	0.427031	1.155497	0.830116
H119	H	0.570786	1.195090	0.714541
H120	H	0.635937	1.207186	0.786691
O121	O	0.958937	0.892631	0.934161
C122	C	1.047930	0.854418	0.980534
H123	H	0.983326	0.852127	1.030936
H124	H	1.167812	0.879154	0.988009
C125	C	1.149817	0.785173	0.891105
C126	C	1.070462	0.782354	0.953007
H127	H	1.163723	0.740721	0.874124
H128	H	1.089866	0.810919	0.859862
H129	H	1.249710	0.805790	0.897341
H130	H	0.970564	0.761746	0.946768
H131	H	1.130397	0.756603	0.984249
O132	O	0.959037	0.892699	0.717610
C133	C	1.116294	0.907417	0.700287
H134	H	1.124368	0.961480	0.680810
H135	H	1.157439	0.871100	0.659278
C136	C	1.211666	0.833124	0.786991
C137	C	1.221586	0.899527	0.763074
H138	H	1.276618	0.828254	0.825720
H139	H	1.105720	0.823206	0.798661
H140	H	1.245951	0.802867	0.752812
H141	H	1.187282	0.929782	0.797250
H142	H	1.327529	0.909450	0.751411
H143	H	0.942785	0.592118	0.404817
H144	H	0.942851	0.236347	0.404836
O145	O	0.958919	0.892674	0.578255
C146	C	1.060848	0.931161	0.537306
H147	H	1.070713	0.984472	0.558567
H148	H	1.012054	0.933494	0.483741
C149	C	1.212663	0.832558	0.510103
C150	C	1.224789	0.898034	0.536219
H151	H	1.313788	0.812123	0.509429
H152	H	1.143988	0.806627	0.537689
H153	H	1.171995	0.834511	0.465468
H154	H	1.265438	0.896080	0.580856
H155	H	1.293475	0.923964	0.508641
H156	H	0.577303	1.056707	0.939538
H157	H	0.577357	1.056755	1.067784
