data_functionalizedCrystal
_audit_creation_method	'MofGen! by Chris Wilmer'
_symmetry_space_group_name_H-M	'P1'
_symmetry_Int_Tables_number	1
_symmetry_cell_setting	triclinic
loop_
_symmetry_equiv_pos_as_xyz
  x,y,z
_cell_length_a	13.339070
_cell_length_b	14.971486
_cell_length_c	13.448316
_cell_angle_alpha	90.001801
_cell_angle_beta	89.996829
_cell_angle_gamma	80.378288
loop_
_atom_site_label
_atom_site_type_symbol
_atom_site_fract_x
_atom_site_fract_y
_atom_site_fract_z
O1	O	0.131873	-1.219550	-0.082571
O2	O	0.631873	-0.719550	0.417429
O3	O	0.147665	-0.963055	-0.082597
O4	O	0.647665	-0.463055	0.417403
O5	O	-0.007530	-1.061865	-0.082584
O6	O	0.492470	-0.561865	0.417416
O7	O	0.287068	-1.120740	-0.082584
O8	O	0.787068	-0.620740	0.417416
O9	O	-0.007540	-1.061845	0.082800
O10	O	0.492460	-0.561845	0.582800
O11	O	0.147656	-0.963035	0.082787
O12	O	0.647656	-0.463035	0.582787
O13	O	0.131864	-1.219531	0.082813
O14	O	0.631864	-0.719531	0.582813
Cu15	Cu	0.139759	-1.091281	0.097901
Cu16	Cu	0.639759	-0.591281	0.597901
Cu17	Cu	0.139770	-1.091304	-0.097685
Cu18	Cu	0.639770	-0.591304	0.402315
O19	O	0.287059	-1.120720	0.082800
O20	O	0.787059	-0.620720	0.582800
C21	C	0.146954	-0.929545	0.000091
C22	C	0.646954	-0.429545	0.500091
C23	C	0.144838	-0.829725	0.000081
C24	C	0.644838	-0.329725	0.500081
C25	C	-0.045236	-1.051910	0.000105
C26	C	0.454764	-0.551910	0.500105
C27	C	-0.157574	-1.022266	0.000098
C28	C	0.342426	-0.522266	0.500098
N29	N	0.139750	-1.091271	0.235465
N30	N	0.639750	-0.591271	0.735465
C31	C	-0.522088	-1.252762	0.000122
C32	C	-0.022088	-0.752762	0.500122
C33	C	-0.416541	-1.280617	0.000135
C34	C	0.083459	-0.780617	0.500135
C35	C	-0.351794	-1.216032	0.000125
C36	C	0.148206	-0.716032	0.500125
C37	C	-0.392604	-1.123587	0.000104
C38	C	0.107396	-0.623587	0.500104
C39	C	-0.498161	-1.095729	0.000100
C40	C	0.001839	-0.595729	0.500100
C41	C	-0.327867	-1.058999	0.000103
C42	C	0.172133	-0.558999	0.500103
C43	C	-0.368677	-0.966554	0.000082
C44	C	0.131323	-0.466554	0.500082
C45	C	-0.474224	-0.938701	0.000077
C46	C	0.025776	-0.438701	0.500077
C47	C	-0.538970	-1.003286	0.000086
C48	C	-0.038970	-0.503286	0.500086
C49	C	-0.222311	-1.086856	0.000107
C50	C	0.277689	-0.586856	0.500107
C51	C	-0.198384	-0.929823	0.000084
C52	C	0.301616	-0.429823	0.500084
C53	C	-0.303930	-0.901968	0.000072
C54	C	0.196070	-0.401968	0.500072
C55	C	0.324765	-1.130675	0.000108
C56	C	0.824765	-0.630675	0.500108
C57	C	0.437102	-1.160319	0.000109
C58	C	0.937102	-0.660319	0.500109
C59	C	0.132575	-1.253040	0.000122
C60	C	0.632575	-0.753040	0.500122
C61	C	0.134691	-1.352860	0.000126
C62	C	0.634691	-0.852860	0.500126
C63	C	0.236011	-0.795041	0.000082
C64	C	0.736011	-0.295041	0.500082
C65	C	0.234016	-0.701248	0.000097
C66	C	0.734016	-0.201248	0.500097
C67	C	0.140847	-0.642141	0.000103
C68	C	0.640847	-0.142141	0.500103
C69	C	0.049667	-0.676832	0.000105
C70	C	0.549667	-0.176832	0.500105
C71	C	0.051663	-0.770623	0.000097
C72	C	0.551663	-0.270623	0.500097
C73	C	0.045514	-0.481342	0.000119
C74	C	0.545514	0.018658	0.500119
C75	C	0.043518	-0.387545	0.000125
C76	C	0.543518	0.112455	0.500125
C77	C	0.227867	-0.411968	0.000119
C78	C	0.727867	0.088032	0.500119
C79	C	0.229863	-0.505759	0.000111
C80	C	0.729863	-0.005759	0.500111
C81	C	0.138682	-0.540442	0.000111
C82	C	0.638682	-0.040442	0.500111
N83	N	0.139771	-1.091319	-0.235249
N84	N	0.639771	-0.591319	0.264751
C85	C	0.071058	-1.135050	0.287511
C86	C	0.571058	-0.635050	0.787511
C87	C	0.071057	-1.135056	0.391614
C88	C	0.571057	-0.635056	0.891614
C89	C	0.139754	-1.091287	0.443669
C90	C	0.639754	-0.591287	0.943669
C91	C	0.208449	-1.047502	0.391616
C92	C	0.708449	-0.547502	0.891616
C93	C	0.208445	-1.047492	0.287515
C94	C	0.708445	-0.547492	0.787515
C95	C	0.208456	-1.047529	0.608596
C96	C	0.708456	-0.547529	1.108596
C97	C	0.208463	-1.047540	0.712705
C98	C	0.708463	-0.547540	1.212705
C99	C	0.071069	-1.135093	0.712696
C100	C	0.571069	-0.635093	1.212696
C101	C	0.071064	-1.135082	0.608594
C102	C	0.571064	-0.635082	1.108594
C103	C	0.139761	-1.091299	0.556548
C104	C	0.639761	-0.591299	1.056548
H105	H	-0.189094	-1.162125	0.000124
H106	H	0.310906	-0.662125	0.500124
H107	H	-0.022579	-0.798860	0.000096
H108	H	0.477421	-0.298860	0.500096
F109	F	-0.002056	-1.181641	0.232120
F110	F	0.497944	-0.681641	0.732120
F111	F	-0.591000	-1.321488	0.000148
F112	F	-0.091000	-0.821488	0.500148
H113	H	0.015122	-1.170703	0.433990
H114	H	0.515122	-0.670703	0.933990
F115	F	-0.651308	-0.973644	-0.000021
F116	F	-0.151308	-0.473644	0.499979
F117	F	-0.002044	-1.181672	0.553193
F118	F	0.497956	-0.681672	1.053193
F119	F	0.281578	-1.000953	0.768098
F120	F	0.781578	-0.500953	1.268098
H121	H	-0.265854	-1.238717	0.000135
H122	H	0.234146	-0.738717	0.500135
H123	H	-0.337172	-0.826698	0.000056
H124	H	0.162828	-0.326698	0.500056
F125	F	-0.517653	-0.840312	0.000067
F126	F	-0.017653	-0.340312	0.500067
F127	F	0.329023	-0.568663	0.000094
F128	F	0.829023	-0.068663	0.500094
H129	H	0.015133	-1.170742	0.755078
H130	H	0.515133	-0.670742	1.255078
H131	H	-0.383322	-1.355886	0.000153
H132	H	0.116678	-0.855886	0.500153
H133	H	-0.145666	-0.877232	0.000082
H134	H	0.354334	-0.377232	0.500082
H135	H	0.311879	-0.843160	0.000077
H136	H	0.811879	-0.343160	0.500077
F137	F	0.281570	-1.000925	0.553209
F138	F	0.781570	-0.500925	1.053209
H139	H	0.264381	-1.011859	0.434005
H140	H	0.764381	-0.511859	0.934005
F141	F	-0.049490	-0.613924	0.000118
F142	F	0.450510	-0.113924	0.500118
F143	F	0.331055	-0.664339	0.000094
F144	F	0.831055	-0.164339	0.500094
F145	F	-0.055642	-0.324641	0.000157
F146	F	0.444358	0.175359	0.500157
F147	F	0.324909	-0.375054	0.000121
F148	F	0.824909	0.124946	0.500121
F149	F	-0.051531	-0.518253	0.000122
F150	F	0.448469	-0.018253	0.500122
H151	H	0.264379	-1.011841	0.245140
H152	H	0.764379	-0.511841	0.745140
