data_functionalizedCrystal
_audit_creation_method	'MofGen! by Chris Wilmer'
_symmetry_space_group_name_H-M	'P1'
_symmetry_Int_Tables_number	1
_symmetry_cell_setting	triclinic
loop_
_symmetry_equiv_pos_as_xyz
  x,y,z
_cell_length_a	42.784650
_cell_length_b	42.785065
_cell_length_c	42.784893
_cell_angle_alpha	59.999042
_cell_angle_beta	90.000582
_cell_angle_gamma	60.000110
loop_
_atom_site_label
_atom_site_type_symbol
_atom_site_fract_x
_atom_site_fract_y
_atom_site_fract_z
O1	O	-0.266378	-0.223728	0.009293
O2	O	-0.220932	-0.159721	-0.009258
O3	O	-0.220926	-0.223725	0.054744
O4	O	-0.266384	-0.159724	-0.054709
O5	O	-0.168941	-0.275707	0.054743
O6	O	-0.168946	-0.211703	-0.009259
O7	O	-0.214392	-0.275710	0.009292
Cu8	Cu	-0.186922	-0.248453	0.000017
Cu9	Cu	-0.248402	-0.186978	0.000017
O10	O	-0.214398	-0.211706	-0.054710
C11	C	-0.079355	-0.051040	-0.028125
C12	C	-0.098250	-0.013161	-0.028389
C13	C	-0.022753	-0.051045	-0.028123
C14	C	-0.041734	-0.013166	-0.028387
C15	C	-0.079350	0.005555	-0.028123
C16	C	-0.041739	-0.069675	-0.028389
C17	C	-0.113925	-0.152956	-0.017884
C18	C	-0.131742	-0.173791	-0.014989
C19	C	-0.169018	-0.155903	-0.013535
C20	C	-0.188336	-0.178496	-0.010388
C21	C	-0.188476	-0.117178	-0.014981
C22	C	-0.170661	-0.096343	-0.017881
C23	C	-0.133384	-0.114234	-0.019333
C24	C	-0.171023	0.131795	-0.017875
C25	C	-0.188961	0.167548	-0.014977
C26	C	-0.169621	0.185480	-0.013520
C27	C	-0.189064	0.224242	-0.010372
C28	C	-0.132340	0.167659	-0.014965
C29	C	-0.114405	0.131912	-0.017869
C30	C	-0.133751	0.113980	-0.019322
C31	C	0.113733	-0.152978	-0.017874
C32	C	0.152387	-0.173821	-0.014970
C33	C	0.171779	-0.155938	-0.013514
C34	C	0.213690	-0.178537	-0.010365
C35	C	0.152517	-0.117216	-0.014958
C36	C	0.113865	-0.096376	-0.017860
C37	C	0.094474	-0.114259	-0.019321
C38	C	-0.114068	-0.091642	-0.022475
C39	C	-0.098671	-0.073633	-0.024980
C40	C	0.019157	-0.073644	-0.024975
C41	C	0.052563	-0.091657	-0.022467
C42	C	-0.098797	0.044316	-0.024976
C43	C	-0.114299	0.075215	-0.022468
C44	C	-0.356179	-0.440784	0.028182
C45	C	-0.337284	-0.422063	0.028444
C46	C	-0.412779	-0.384188	0.028182
C47	C	-0.393798	-0.365553	0.028445
C48	C	-0.356183	-0.384183	0.028180
C49	C	-0.393794	-0.422068	0.028447
C50	C	-0.321609	-0.567027	0.017938
C51	C	-0.303793	-0.602782	0.015041
C52	C	-0.266518	-0.620714	0.013586
C53	C	-0.247201	-0.659477	0.010438
C54	C	-0.247060	-0.602892	0.015030
C55	C	-0.264875	-0.567144	0.017932
C56	C	-0.302151	-0.549211	0.019386
C57	C	-0.264512	-0.339363	0.017927
C58	C	-0.246574	-0.318649	0.015028
C59	C	-0.265914	-0.279919	0.013572
C60	C	-0.246471	-0.257453	0.010423
C61	C	-0.303194	-0.261908	0.015019
C62	C	-0.321129	-0.282625	0.017924
C63	C	-0.301783	-0.321355	0.019376
C64	C	-0.549264	-0.339390	0.017939
C65	C	-0.587917	-0.318678	0.015038
C66	C	-0.607309	-0.279948	0.013583
C67	C	-0.649220	-0.257488	0.010436
C68	C	-0.588047	-0.261931	0.015026
C69	C	-0.549395	-0.282644	0.017926
C70	C	-0.530005	-0.321376	0.019386
C71	C	-0.321467	-0.510446	0.022529
C72	C	-0.336863	-0.479547	0.025035
C73	C	-0.454688	-0.361731	0.025036
C74	C	-0.488094	-0.343831	0.022530
C75	C	-0.336737	-0.361719	0.025031
C76	C	-0.321235	-0.343815	0.022523
C77	C	-0.356208	-0.051029	-0.361569
C78	C	-0.393825	-0.013150	-0.380467
C79	C	-0.356208	-0.051029	-0.304971
C80	C	-0.393825	-0.013150	-0.323954
C81	C	-0.412809	0.005568	-0.361570
C82	C	-0.337311	-0.069661	-0.323953
C83	C	-0.264524	-0.152953	-0.396128
C84	C	-0.246583	-0.173790	-0.413942
C85	C	-0.265923	-0.155906	-0.451217
C86	C	-0.246475	-0.178501	-0.470531
C87	C	-0.303205	-0.117181	-0.470678
C88	C	-0.321141	-0.096343	-0.452866
C89	C	-0.301799	-0.114231	-0.415589
C90	C	-0.549300	0.131803	-0.453250
C91	C	-0.587953	0.167556	-0.471191
C92	C	-0.607345	0.185491	-0.451853
C93	C	-0.649256	0.224252	-0.471300
C94	C	-0.588079	0.167672	-0.414573
C95	C	-0.549426	0.131926	-0.396636
C96	C	-0.530039	0.113991	-0.415979
C97	C	-0.264526	-0.152951	-0.168482
C98	C	-0.246587	-0.173791	-0.129828
C99	C	-0.265928	-0.155906	-0.110439
C100	C	-0.246480	-0.178501	-0.068528
C101	C	-0.303208	-0.117185	-0.129704
C102	C	-0.321145	-0.096348	-0.168356
C103	C	-0.301799	-0.114233	-0.187743
C104	C	-0.321253	-0.091636	-0.396276
C105	C	-0.336758	-0.073625	-0.380882
C106	C	-0.336759	-0.073624	-0.263061
C107	C	-0.321254	-0.091635	-0.229655
C108	C	-0.454720	0.044329	-0.381020
C109	C	-0.488127	0.075227	-0.396524
O110	O	0.336960	-0.275749	0.009309
O111	O	0.227507	-0.211742	-0.009240
O112	O	0.291507	-0.275747	0.054761
O113	O	0.272960	-0.211744	-0.054692
O114	O	0.291511	-0.223767	0.054764
O115	O	0.227511	-0.159761	-0.009238
O116	O	0.336964	-0.223768	0.009312
Cu117	Cu	0.282238	-0.187019	0.000037
Cu118	Cu	0.282233	-0.248492	0.000034
O119	O	0.272964	-0.159763	-0.054690
O120	O	-0.214605	0.327832	0.009309
O121	O	-0.169157	0.236929	-0.009240
O122	O	-0.169155	0.236925	0.054761
O123	O	-0.214607	0.327835	-0.054693
O124	O	-0.221141	0.236930	0.054759
O125	O	-0.221144	0.236934	-0.009243
O126	O	-0.266591	0.327836	0.009306
Cu127	Cu	-0.248614	0.282385	0.000032
Cu128	Cu	-0.187134	0.282380	0.000034
O129	O	-0.266594	0.327840	-0.054695
O130	O	-0.772531	0.327843	-0.496850
O131	O	-0.663077	0.236942	-0.451395
O132	O	-0.727074	0.236936	-0.451394
O133	O	-0.708535	0.327848	-0.496851
O134	O	-0.727072	0.236935	-0.503377
O135	O	-0.663075	0.236940	-0.503378
O136	O	-0.772530	0.327841	-0.548833
Cu137	Cu	-0.717803	0.282391	-0.530852
Cu138	Cu	-0.717804	0.282392	-0.469376
O139	O	-0.708533	0.327847	-0.548835
O140	O	-0.220926	-0.223725	-0.548578
O141	O	-0.266381	-0.159727	-0.503126
O142	O	-0.266376	-0.223730	-0.503123
O143	O	-0.220930	-0.159723	-0.548580
O144	O	-0.214390	-0.275712	-0.451139
O145	O	-0.214394	-0.211710	-0.451141
O146	O	-0.168939	-0.275708	-0.496593
Cu147	Cu	-0.186920	-0.248456	-0.469121
Cu148	Cu	-0.248400	-0.186980	-0.530598
O149	O	-0.168944	-0.211706	-0.496596
C150	C	-0.022758	-0.440756	0.361604
C151	C	-0.041741	-0.422038	0.380500
C152	C	-0.079358	-0.384160	0.305005
C153	C	-0.098256	-0.365528	0.323987
C154	C	-0.079358	-0.384160	0.361603
C155	C	-0.041741	-0.422038	0.323988
C156	C	0.113734	-0.566992	0.396166
C157	C	0.152387	-0.602745	0.413981
C158	C	0.171777	-0.620679	0.451256
C159	C	0.213689	-0.659440	0.470571
C160	C	0.152511	-0.602861	0.470716
C161	C	0.113859	-0.567114	0.452903
C162	C	0.094471	-0.549180	0.415626
C163	C	-0.113921	-0.339352	0.453281
C164	C	-0.131737	-0.318641	0.471221
C165	C	-0.169012	-0.279913	0.451882
C166	C	-0.188330	-0.257450	0.471328
C167	C	-0.188473	-0.261899	0.414602
C168	C	-0.170661	-0.282613	0.396666
C169	C	-0.133381	-0.321342	0.416009
C170	C	-0.113922	-0.339352	0.168517
C171	C	-0.131736	-0.318637	0.129863
C172	C	-0.169013	-0.279908	0.110473
C173	C	-0.188329	-0.257445	0.068562
C174	C	-0.188472	-0.261895	0.129737
C175	C	-0.170657	-0.282609	0.168389
C176	C	-0.133382	-0.321341	0.187777
C177	C	0.052560	-0.510415	0.396312
C178	C	0.019153	-0.479517	0.380917
C179	C	-0.098673	-0.361700	0.263095
C180	C	-0.114069	-0.343798	0.229689
C181	C	-0.098673	-0.361700	0.381052
C182	C	-0.114068	-0.343798	0.396556
C183	C	0.310389	-0.384455	0.361624
C184	C	0.310652	-0.422334	0.380521
C185	C	0.310387	-0.384453	0.305024
C186	C	0.310649	-0.422331	0.324007
C187	C	0.310385	-0.441050	0.361623
C188	C	0.310654	-0.365822	0.324008
C189	C	0.300152	-0.282536	0.396188
C190	C	0.297257	-0.261701	0.414004
C191	C	0.295803	-0.279587	0.451279
C192	C	0.292657	-0.256993	0.470595
C193	C	0.297247	-0.318312	0.470739
C194	C	0.300147	-0.339147	0.452925
C195	C	0.301599	-0.321258	0.415648
C196	C	0.300131	-0.567286	0.453300
C197	C	0.297231	-0.603039	0.471239
C198	C	0.295773	-0.620972	0.451900
C199	C	0.292624	-0.659733	0.471345
C200	C	0.297219	-0.603152	0.414620
C201	C	0.300125	-0.567406	0.396684
C202	C	0.301579	-0.549473	0.416028
C203	C	0.300142	-0.282526	0.168537
C204	C	0.297240	-0.261685	0.129883
C205	C	0.295783	-0.279568	0.110492
C206	C	0.292635	-0.256971	0.068581
C207	C	0.297225	-0.318290	0.129756
C208	C	0.300126	-0.339128	0.168408
C209	C	0.301588	-0.321244	0.187797
C210	C	0.304740	-0.343852	0.396334
C211	C	0.307245	-0.361861	0.380938
C212	C	0.307240	-0.361856	0.263115
C213	C	0.304733	-0.343844	0.229708
C214	C	0.307236	-0.479811	0.381071
C215	C	0.304726	-0.510709	0.396574
C216	C	0.254086	0.005293	-0.361551
C217	C	0.253819	-0.013423	-0.380449
C218	C	0.254084	-0.051304	-0.304953
C219	C	0.253817	-0.069935	-0.323936
C220	C	0.254082	-0.051302	-0.361552
C221	C	0.253822	-0.013425	-0.323936
C222	C	0.264342	0.131527	-0.396111
C223	C	0.267242	0.167280	-0.413925
C224	C	0.268696	0.185215	-0.451201
C225	C	0.271847	0.223976	-0.470516
C226	C	0.267248	0.167398	-0.470662
C227	C	0.264343	0.131651	-0.452849
C228	C	0.262891	0.113716	-0.415572
C229	C	0.264321	-0.096106	-0.453233
C230	C	0.267216	-0.116816	-0.471173
C231	C	0.268670	-0.155544	-0.451835
C232	C	0.271814	-0.178006	-0.471282
C233	C	0.267224	-0.173559	-0.414555
C234	C	0.264322	-0.152845	-0.396618
C235	C	0.262873	-0.114117	-0.415961
C236	C	0.264333	-0.096116	-0.168464
C237	C	0.267236	-0.116831	-0.129810
C238	C	0.268688	-0.155559	-0.110421
C239	C	0.271836	-0.178024	-0.068509
C240	C	0.267241	-0.173572	-0.129685
C241	C	0.264340	-0.152857	-0.168338
C242	C	0.262883	-0.114125	-0.187725
C243	C	0.259745	0.074952	-0.396259
C244	C	0.257235	0.044054	-0.380865
C245	C	0.257231	-0.073765	-0.263043
C246	C	0.259738	-0.091668	-0.229637
C247	C	0.257226	-0.073761	-0.381002
C248	C	0.259731	-0.091662	-0.396506
C249	C	-0.079326	-0.051089	0.361611
C250	C	-0.041709	-0.069726	0.380508
C251	C	-0.079326	0.005514	0.305015
C252	C	-0.041709	-0.013209	0.323999
C253	C	-0.022725	-0.051094	0.361613
C254	C	-0.098224	-0.013204	0.323996
C255	C	-0.171010	-0.095890	0.396164
C256	C	-0.188952	-0.116601	0.413977
C257	C	-0.169611	-0.155334	0.451251
C258	C	-0.189060	-0.177797	0.470564
C259	C	-0.132329	-0.173354	0.470712
C260	C	-0.114392	-0.152640	0.452902
C261	C	-0.133735	-0.113906	0.415626
C262	C	0.113768	-0.153037	0.453292
C263	C	0.152421	-0.173879	0.471233
C264	C	0.171813	-0.155997	0.451896
C265	C	0.213724	-0.178594	0.471342
C266	C	0.152547	-0.117266	0.414617
C267	C	0.113894	-0.096421	0.396680
C268	C	0.094507	-0.114313	0.416022
C269	C	-0.171011	0.131774	0.168529
C270	C	-0.188951	0.167530	0.129876
C271	C	-0.169610	0.185465	0.110488
C272	C	-0.189059	0.224233	0.068578
C273	C	-0.132330	0.167641	0.129753
C274	C	-0.114392	0.131884	0.168404
C275	C	-0.133737	0.113956	0.187790
C276	C	-0.114281	-0.091450	0.396315
C277	C	-0.098776	-0.073548	0.380922
C278	C	-0.098777	0.044282	0.263106
C279	C	-0.114282	0.075185	0.229701
C280	C	0.019186	-0.073694	0.381063
C281	C	0.052594	-0.091709	0.396567
O282	O	0.272974	-0.211766	0.548639
O283	O	0.291526	-0.275768	0.503190
O284	O	0.227524	-0.211766	0.503184
O285	O	0.336977	-0.275768	0.548645
O286	O	0.227526	-0.159783	0.451200
O287	O	0.291529	-0.223785	0.451206
O288	O	0.272977	-0.159782	0.496656
Cu289	Cu	0.282253	-0.187037	0.469184
Cu290	Cu	0.282250	-0.248513	0.530661
O291	O	0.336979	-0.223785	0.496662
C292	C	-0.412779	0.615858	-0.361547
C293	C	-0.393795	0.634491	-0.380442
C294	C	-0.356178	0.559251	-0.304949
C295	C	-0.337280	0.577970	-0.323930
C296	C	-0.356178	0.615855	-0.361544
C297	C	-0.393795	0.577974	-0.323933
C298	C	-0.549270	0.660676	-0.396113
C299	C	-0.587923	0.681392	-0.413928
C300	C	-0.607314	0.720126	-0.451202
C301	C	-0.649226	0.742593	-0.470518
C302	C	-0.588048	0.738141	-0.470661
C303	C	-0.549396	0.717422	-0.452847
C304	C	-0.530008	0.678688	-0.415572
C305	C	-0.321616	0.717785	-0.453215
C306	C	-0.303801	0.738622	-0.471152
C307	C	-0.266526	0.720736	-0.451813
C308	C	-0.247208	0.743328	-0.471256
C309	C	-0.247064	0.682005	-0.414534
C310	C	-0.264876	0.661165	-0.396600
C311	C	-0.302156	0.679061	-0.415944
C312	C	-0.321613	0.432996	-0.168466
C313	C	-0.303798	0.397239	-0.129813
C314	C	-0.266522	0.379300	-0.110422
C315	C	-0.247205	0.340532	-0.068512
C316	C	-0.247062	0.397120	-0.129684
C317	C	-0.264878	0.432876	-0.168335
C318	C	-0.302153	0.450809	-0.187724
C319	C	-0.488097	0.656228	-0.396257
C320	C	-0.454690	0.638322	-0.380862
C321	C	-0.336863	0.520483	-0.263040
C322	C	-0.321467	0.489580	-0.229635
C323	C	-0.336864	0.638451	-0.380991
C324	C	-0.321469	0.656462	-0.396493
H325	H	-0.129158	0.002508	-0.028819
H326	H	-0.306380	-0.437723	0.028862
H327	H	0.168105	-0.205413	0.501584
C328	C	-0.021152	-0.443203	0.303400
N329	N	-0.005646	-0.459144	0.287894
C330	C	-0.110328	-0.338455	0.108676
N331	N	-0.094204	-0.353384	0.092718
C332	C	0.301744	-0.262849	0.189862
N333	N	0.302948	-0.248028	0.205924
H334	H	-0.318948	-0.102620	-0.501028
C335	C	-0.609143	0.187149	-0.512195
N336	N	-0.625103	0.201905	-0.543079
H337	H	-0.084039	-0.167312	0.468750
C338	C	-0.243468	0.618565	-0.355595
N339	N	-0.227344	0.586479	-0.324709
C340	C	0.262751	0.112054	-0.474257
N341	N	0.261555	0.097292	-0.490381
C342	C	-0.192065	-0.053749	-0.019469
N343	N	-0.208187	-0.021668	-0.020663
C344	C	-0.192061	-0.262783	0.355652
N345	N	-0.208176	-0.247840	0.324756
C346	C	-0.609378	-0.219327	0.013427
N347	N	-0.625443	-0.187240	0.012222
C348	C	-0.021147	-0.110862	-0.028951
N349	N	-0.005637	-0.141885	-0.029370
C350	C	0.173572	-0.216414	-0.013383
N351	N	0.189528	-0.248495	-0.012191
C352	C	0.262745	-0.172670	-0.189527
N353	N	0.261543	-0.187595	-0.205487
H354	H	-0.533742	0.117422	-0.366284
H355	H	-0.409037	0.664974	-0.411349
C356	C	0.295654	-0.219091	0.108696
N357	N	0.294462	-0.187011	0.092739
H358	H	0.268424	-0.205108	-0.113896
C359	C	-0.362151	-0.053752	-0.189546
N360	N	-0.393037	-0.021667	-0.205505
H361	H	0.253390	-0.100415	-0.308695
C362	C	-0.192302	0.112068	-0.019469
N363	N	-0.208327	0.097206	-0.020665
C364	C	0.173577	-0.622338	0.392571
N365	N	0.189538	-0.637093	0.376444
C366	C	0.173848	-0.097543	-0.013358
N367	N	0.189914	-0.082725	-0.012153
C368	C	-0.229478	-0.097504	-0.013381
N369	N	-0.260361	-0.082686	-0.012176
H370	H	-0.603607	0.666722	-0.398082
H371	H	-0.533487	0.629138	-0.365762
C372	C	0.092409	-0.547270	0.355163
N373	N	0.076345	-0.532415	0.324281
H374	H	0.268423	-0.102168	-0.114125
C375	C	0.262742	0.111803	-0.355108
N376	N	0.261537	0.096946	-0.324224
C377	C	-0.362619	0.737465	-0.474498
N378	N	-0.393501	0.752286	-0.490528
C379	C	-0.229965	0.187145	-0.013383
N380	N	-0.260849	0.201903	-0.012180
C381	C	0.311229	-0.324644	0.303419
N382	N	0.311662	-0.293629	0.287911
H383	H	0.098183	-0.064846	-0.019038
C384	C	-0.243470	0.452475	-0.189521
N385	N	-0.227345	0.467236	-0.205478
C386	C	-0.609379	0.780746	-0.511661
N387	N	-0.625445	0.812838	-0.542543
H388	H	-0.603867	0.182280	-0.398829
C389	C	-0.021121	0.007957	0.303409
N390	N	-0.005616	0.023900	0.287901
C391	C	-0.206057	0.377388	-0.108354
N392	N	-0.175172	0.362526	-0.092288
H393	H	-0.409066	0.002514	-0.308712
C394	C	-0.325211	0.781226	-0.512155
N395	N	-0.341339	0.813316	-0.543038
H396	H	0.301336	-0.267967	0.365837
C397	C	-0.021121	-0.110905	0.422262
N398	N	-0.005614	-0.141919	0.453711
C399	C	-0.110326	-0.338454	0.512225
N400	N	-0.094199	-0.353378	0.543108
H401	H	-0.129132	0.002463	0.308756
H402	H	-0.116581	0.182244	0.113965
C403	C	0.295637	-0.622634	0.512243
N404	N	0.294434	-0.637392	0.543128
H405	H	0.168301	-0.617468	0.501066
H406	H	-0.306373	0.562300	-0.308686
H407	H	0.311072	-0.437995	0.411426
C408	C	-0.324483	-0.097508	-0.108376
N409	N	-0.340508	-0.082688	-0.092313
H410	H	-0.409043	-0.335070	0.028867
C411	C	-0.111066	0.187388	-0.013368
N412	N	-0.095042	0.202247	-0.012163
H413	H	0.301317	-0.552689	0.469053
C414	C	-0.229478	-0.219300	0.393329
N415	N	-0.260362	-0.187212	0.377306
H416	H	-0.026499	-0.437706	0.411408
C417	C	-0.229959	0.187134	0.108687
N418	N	-0.260848	0.201902	0.092729
H419	H	-0.216233	-0.205321	-0.114145
H420	H	-0.084053	0.117405	-0.019048
C421	C	-0.243470	-0.547542	0.019520
N422	N	-0.227349	-0.532776	0.020714
H423	H	0.098175	-0.552610	0.468750
H424	H	0.311078	-0.437998	0.308766
C425	C	0.092406	-0.172653	-0.019475
N426	N	0.076342	-0.187473	-0.020680
H427	H	-0.186767	0.117180	0.184312
C428	C	-0.192291	-0.053281	0.355163
N429	N	-0.208319	-0.021189	0.324281
H430	H	-0.533713	0.732091	-0.468693
C431	C	-0.414380	-0.443235	0.029024
N432	N	-0.429886	-0.459178	0.029459
H433	H	-0.409040	0.562315	-0.308692
H434	H	-0.219304	-0.101931	0.398126
C435	C	-0.325206	0.377639	-0.108628
N436	N	-0.341330	0.362875	-0.092672
C437	C	-0.021142	0.007994	-0.028960
N438	N	-0.005633	0.023932	-0.029392
C439	C	-0.205571	-0.338460	0.013431
N440	N	-0.174688	-0.353380	0.012226
H441	H	-0.083569	-0.370887	0.469034
C442	C	-0.527974	0.112083	-0.474531
N443	N	-0.511911	0.097230	-0.490559
H444	H	-0.129162	-0.335044	0.308743
C445	C	0.253247	0.007739	-0.303347
N446	N	0.252812	0.023679	-0.287840
C447	C	0.262735	-0.053514	-0.189788
N448	N	0.261534	-0.021427	-0.205850
C449	C	-0.229478	-0.219292	0.108408
N450	N	-0.260363	-0.187205	0.092344
C451	C	-0.192067	-0.262797	0.189579
N452	N	-0.208195	-0.247874	0.205539
C453	C	0.173870	-0.097578	0.393355
N454	N	0.189930	-0.082745	0.377342
C455	C	-0.243229	-0.381968	0.019530
N456	N	-0.227200	-0.414058	0.020737
H457	H	0.296082	-0.230172	0.398157
C458	C	0.301716	-0.547808	0.355678
N459	N	0.302913	-0.533045	0.324792
H460	H	-0.351964	0.447596	-0.184250
C461	C	-0.609102	-0.338499	0.013451
N462	N	-0.625058	-0.353432	0.012258
H463	H	-0.248769	-0.167513	-0.184267
H464	H	-0.409062	0.002518	-0.411376
C465	C	-0.527936	-0.381996	0.019543
N466	N	-0.511871	-0.414086	0.020751
C467	C	0.295648	-0.337984	0.511741
N468	N	0.294444	-0.352803	0.542625
H469	H	0.301324	-0.370677	0.468772
C470	C	-0.072924	-0.172635	-0.019489
N471	N	-0.042042	-0.187454	-0.020699
C472	C	0.268840	0.186872	-0.392515
N473	N	0.270046	0.201626	-0.376387
H474	H	-0.116586	-0.204889	0.501061
H475	H	0.296042	-0.332853	0.113967
C476	C	-0.072917	-0.381954	0.189842
N477	N	-0.042032	-0.414040	0.205904
C478	C	0.295620	-0.622881	0.393347
N479	N	0.294413	-0.637740	0.377323
C480	C	0.301717	-0.381724	0.189596
N481	N	0.302916	-0.413809	0.205555
H482	H	-0.216711	-0.617496	0.013845
C483	C	0.253243	0.007742	-0.422203
N484	N	0.252810	0.023682	-0.453651
H485	H	0.268430	0.182005	-0.501012
H486	H	0.263139	-0.064571	-0.468986
H487	H	0.268395	-0.102147	-0.501526
C488	C	-0.362611	-0.547308	0.019542
N489	N	-0.393493	-0.532456	0.020750
H490	H	0.268402	-0.205089	-0.398811
H491	H	-0.216711	0.667438	-0.398789
C492	C	0.262733	-0.172663	-0.355612
N493	N	0.261539	-0.187592	-0.324724
C494	C	0.092443	-0.172715	0.474571
N495	N	0.076380	-0.187536	0.490596
H496	H	0.098210	-0.064888	0.366328
H497	H	-0.319639	-0.617288	0.013863
C498	C	-0.110335	-0.216389	-0.013394
N499	N	-0.094209	-0.248476	-0.012191
C500	C	-0.324469	-0.219307	0.013421
N501	N	-0.340493	-0.187218	0.012215
C502	C	-0.073385	0.112283	0.189594
N503	N	-0.042498	0.097520	0.205554
C504	C	-0.362133	-0.262812	0.019517
N505	N	-0.393019	-0.247887	0.020715
H506	H	-0.533714	-0.267971	0.019101
H507	H	-0.306402	-0.100140	-0.308714
C508	C	-0.243243	-0.172630	-0.355125
N509	N	-0.227216	-0.187449	-0.324243
H510	H	-0.351494	-0.064813	-0.468714
C511	C	-0.205578	-0.216388	-0.392531
N512	N	-0.174692	-0.248474	-0.376404
