data_functionalizedCrystal
_audit_creation_method	'MofGen! by Chris Wilmer'
_symmetry_space_group_name_H-M	'P1'
_symmetry_Int_Tables_number	1
_symmetry_cell_setting	triclinic
loop_
_symmetry_equiv_pos_as_xyz
  x,y,z
_cell_length_a	17.019311
_cell_length_b	17.038272
_cell_length_c	10.268362
_cell_angle_alpha	89.994496
_cell_angle_beta	86.115693
_cell_angle_gamma	87.245400
loop_
_atom_site_label
_atom_site_type_symbol
_atom_site_fract_x
_atom_site_fract_y
_atom_site_fract_z
O1	O	1.053365	0.099633	-0.226433
O2	O	0.824552	0.112327	-0.200775
O3	O	0.937598	-0.007834	-0.213441
O4	O	0.940318	0.219794	-0.213767
O5	O	0.937588	-0.007839	0.003161
O6	O	0.824541	0.112322	0.015827
O7	O	1.053354	0.099628	-0.009831
Cu8	Cu	0.938946	0.105974	0.022775
Cu9	Cu	0.938959	0.105980	-0.233381
O10	O	0.940307	0.219789	0.002835
C11	C	0.795125	0.111842	-0.089175
C12	C	0.707458	0.110395	-0.079344
C13	C	0.211627	0.102237	-0.017823
C14	C	0.294000	0.103597	-0.027062
C15	C	0.335192	0.104273	-0.149754
C16	C	0.294008	0.103598	-0.263213
C17	C	0.211636	0.102244	-0.253972
C18	C	0.583901	0.108366	-0.183562
C19	C	0.666279	0.109718	-0.192795
C20	C	0.666265	0.109718	0.043357
C21	C	0.583892	0.108359	0.052587
C22	C	0.542714	0.107688	-0.060872
C23	C	0.419391	0.105660	-0.159201
C24	C	0.458517	0.106307	-0.051423
C25	C	0.935119	-0.036963	-0.104863
C26	C	0.927739	-0.123750	-0.104036
C27	C	0.995499	-0.173920	-0.111633
C28	C	0.988560	-0.255465	-0.110867
C29	C	0.913860	-0.286838	-0.102495
C30	C	0.846094	-0.236661	-0.094901
C31	C	0.853034	-0.155118	-0.095676
C32	C	0.889342	-0.532575	-0.099763
C33	C	0.882407	-0.614125	-0.098985
C34	C	1.024873	-0.632923	-0.114953
C35	C	1.031806	-0.551378	-0.115720
C36	C	0.964041	-0.501208	-0.108133
C37	C	0.906765	-0.370190	-0.101708
C38	C	0.971137	-0.417858	-0.108929
C39	C	1.082781	0.100113	-0.121434
C40	C	1.170448	0.101560	-0.131273
C41	C	0.942786	0.248918	-0.105746
C42	C	0.950167	0.335705	-0.106582
N43	N	0.938943	0.105970	0.202942
N44	N	0.938968	0.105979	-0.413548
C45	C	0.938955	0.105979	0.468611
C46	C	0.938946	0.105976	0.320774
H47	H	0.327553	0.104154	-0.363111
H48	H	1.043738	-0.296311	-0.117050
H49	H	0.178109	0.101695	-0.346356
F50	F	0.463239	0.106372	-0.289776
F51	F	0.414675	0.105591	0.079150
H52	H	1.092635	-0.525841	-0.122537
H53	H	1.080043	-0.673780	-0.121132
H54	H	0.821574	-0.639665	-0.092146
F55	F	0.817219	-0.479191	-0.091692
F56	F	1.050636	-0.384467	-0.117847
H57	H	0.785272	-0.262211	-0.088093
F58	F	0.337821	0.104321	0.093688
F59	F	0.540088	0.107649	-0.304317
F60	F	1.075006	-0.140539	-0.120531
F61	F	0.827265	-0.403586	-0.092803
F62	F	0.780914	-0.101723	-0.087595
H63	H	0.550360	0.107791	0.152496
F64	F	0.710095	0.110436	0.164100
F65	F	0.167794	0.101510	0.112764
H66	H	0.699815	0.110275	-0.292710
