data_functionalizedCrystal
_audit_creation_method	'MofGen! by Chris Wilmer'
_symmetry_space_group_name_H-M	'P1'
_symmetry_Int_Tables_number	1
_symmetry_cell_setting	triclinic
loop_
_symmetry_equiv_pos_as_xyz
  x,y,z
_cell_length_a	15.297475
_cell_length_b	19.077068
_cell_length_c	19.076919
_cell_angle_alpha	94.470751
_cell_angle_beta	97.019402
_cell_angle_gamma	97.007993
loop_
_atom_site_label
_atom_site_type_symbol
_atom_site_fract_x
_atom_site_fract_y
_atom_site_fract_z
Zn1	Zn	1.323582	0.483130	0.595714
Zn2	Zn	1.823582	0.983130	1.095714
Zn3	Zn	1.323472	0.596268	0.482543
Zn4	Zn	1.823472	1.096268	0.982543
Zn5	Zn	1.181103	0.458344	0.457837
Zn6	Zn	1.681103	0.958344	0.957837
Zn7	Zn	1.168604	0.579149	0.578640
Zn8	Zn	1.668604	1.079149	1.078640
O9	O	1.249190	0.529223	0.528684
O10	O	1.749190	1.029223	1.028684
O11	O	1.448008	0.515676	0.598188
O12	O	1.948008	1.015676	1.098188
O13	O	1.309771	0.574764	0.381347
O14	O	1.809771	1.074764	0.881347
O15	O	1.205280	0.363726	0.472932
O16	O	1.705280	0.863726	0.972932
O17	O	1.447927	0.598798	0.515042
O18	O	1.947927	1.098798	1.015042
O19	O	1.309959	0.381937	0.574230
O20	O	1.809959	0.881937	1.074230
O21	O	1.205173	0.473431	0.363195
O22	O	1.705173	0.973431	0.863195
O23	O	1.055004	0.456832	0.456376
O24	O	1.555004	0.956832	0.956376
O25	O	1.183978	0.569621	0.678824
O26	O	1.683978	1.069621	1.178824
O27	O	1.045821	0.545587	0.545129
O28	O	1.545821	1.045587	1.045129
O29	O	1.297839	0.499076	0.691368
O30	O	1.797839	0.999076	1.191368
O31	O	1.297652	0.691903	0.498485
O32	O	1.797652	1.191903	0.998485
O33	O	1.183871	0.679326	0.569087
O34	O	1.683871	1.179326	1.069087
C35	C	1.018146	0.496663	0.496219
C36	C	1.518146	0.996663	0.996219
C37	C	0.919303	0.482751	0.482348
C38	C	1.419303	0.982751	0.982348
C39	C	1.239416	0.711005	0.534633
C40	C	1.739416	1.211005	1.034633
C41	C	1.235315	0.788784	0.537212
C42	C	1.735315	1.288784	1.037212
C43	C	1.239526	0.535204	0.711195
C44	C	1.739526	1.035204	1.211195
C45	C	1.235408	0.537753	0.788971
C46	C	1.735408	1.037753	1.288971
C47	C	0.621655	0.628660	0.627826
C48	C	1.121655	1.128660	1.127826
C49	C	0.714523	0.641736	0.640857
C50	C	1.214523	1.141736	1.140857
C51	C	0.765723	0.601991	0.601231
C52	C	1.265723	1.101991	1.101231
C53	C	0.724045	0.549167	0.548571
C54	C	1.224045	1.049167	1.048571
C55	C	0.631168	0.536093	0.535535
C56	C	1.131168	1.036093	1.035535
C57	C	0.775236	0.509424	0.508940
C58	C	1.275236	1.009424	1.008940
C59	C	0.733558	0.456601	0.456281
C60	C	1.233558	0.956601	0.956281
C61	C	0.640690	0.443529	0.443247
C62	C	1.140690	0.943529	0.943247
C63	C	0.589490	0.483274	0.482873
C64	C	1.089490	0.983274	0.982873
C65	C	0.868113	0.522498	0.521976
C66	C	1.368113	1.022498	1.021976
C67	C	0.877626	0.429931	0.429686
C68	C	1.377626	0.929931	0.929686
C69	C	0.784758	0.416855	0.416655
C70	C	1.284758	0.916855	0.916655
C71	C	1.481136	0.561911	0.561275
C72	C	1.981136	1.061911	1.061275
C73	C	1.579978	0.575841	0.575164
C74	C	2.079978	1.075841	1.075164
C75	C	1.259026	0.346736	0.522730
C76	C	1.759026	0.846736	1.022730
C77	C	1.263217	0.268970	0.520193
C78	C	1.763217	0.768970	1.020193
C79	C	1.292670	0.831857	0.501709
C80	C	1.792670	1.331857	1.001709
C81	C	1.288818	0.904939	0.504141
C82	C	1.788818	1.404939	1.004141
C83	C	1.227606	0.934946	0.542071
C84	C	1.727606	1.434946	1.042071
C85	C	1.170248	0.891868	0.577579
C86	C	1.670248	1.391868	1.077579
C87	C	1.174105	0.818788	0.575151
C88	C	1.674105	1.318788	1.075151
C89	C	1.209717	1.152812	0.553273
C90	C	1.709717	1.652812	1.053273
C91	C	1.205862	1.225897	0.555696
C92	C	1.705862	1.725897	1.055696
C93	C	1.324433	1.238964	0.482259
C94	C	1.824433	1.738964	0.982259
C95	C	1.328281	1.165881	0.479831
C96	C	1.828281	1.665881	0.979831
C97	C	1.270927	1.122810	0.515341
C98	C	1.770927	1.622810	1.015341
N99	N	1.223665	1.009647	0.544556
N100	N	1.723665	1.509647	1.044556
N101	N	1.274873	1.048111	0.512861
N102	N	1.774873	1.548111	1.012861
C103	C	1.258870	0.523222	0.346887
C104	C	1.758870	1.023222	0.846887
C105	C	1.263171	0.520501	0.269130
C106	C	1.763171	1.020501	0.769130
C107	C	1.292752	0.502223	0.832042
C108	C	1.792752	1.002223	1.332042
C109	C	1.288872	0.504613	0.905119
C110	C	1.788872	1.004613	1.405119
C111	C	1.227652	0.542538	0.935124
C112	C	1.727652	1.042538	1.435124
C113	C	1.170302	0.578069	0.892047
C114	C	1.670302	1.078069	1.392047
C115	C	1.174178	0.575674	0.818970
C116	C	1.674178	1.075674	1.318970
C117	C	1.209698	0.553636	1.152977
C118	C	1.709698	1.053636	1.652977
C119	C	1.205827	0.556030	1.226059
C120	C	1.705827	1.056030	1.726059
C121	C	1.324397	0.482573	1.239126
C122	C	1.824397	0.982573	1.739126
C123	C	1.328272	0.480185	1.166048
C124	C	1.828272	0.980185	1.666048
C125	C	1.270918	0.515713	1.122977
C126	C	1.770918	1.015713	1.622977
N127	N	1.223686	0.544985	1.009820
N128	N	1.723686	1.044985	1.509820
N129	N	1.274880	0.513262	1.048281
N130	N	1.774880	1.013262	1.548281
H131	H	0.902037	0.565507	0.564853
H132	H	1.402037	1.065507	1.064853
O133	O	1.386235	0.444249	1.285590
O134	O	1.886235	0.944249	1.785590
H135	H	1.456129	0.465623	1.281779
H136	H	1.956129	0.965623	1.781779
H137	H	1.371129	1.274040	0.453349
H138	H	1.871129	1.774040	0.953349
H139	H	1.120452	0.608946	0.916482
H140	H	1.620452	1.108946	1.416482
O141	O	1.358708	0.799501	0.460809
O142	O	1.858708	1.299501	0.960809
H143	H	1.351756	0.741447	0.465083
H144	H	1.851756	1.241447	0.965083
O145	O	1.350675	0.951394	0.465840
O146	O	1.850675	1.451394	0.965840
H147	H	1.392482	0.992038	0.504642
H148	H	1.892482	1.492038	1.004642
H149	H	1.163009	0.582577	1.117918
H150	H	1.663009	1.082577	1.617918
H151	H	0.513869	0.472629	0.472268
H152	H	1.013869	0.972629	0.972268
H153	H	1.378125	1.141452	0.448945
H154	H	1.878125	1.641452	0.948945
H155	H	1.156025	1.250328	0.586597
H156	H	1.656025	1.750328	1.086597
O157	O	1.394307	0.439281	1.133692
O158	O	1.894307	0.939281	1.633692
H159	H	1.358197	0.396987	1.093638
H160	H	1.858197	0.896987	1.593638
O161	O	1.139783	0.596931	1.258417
O162	O	1.639783	1.096931	1.758417
H163	H	1.094475	0.560326	1.284334
H164	H	1.594475	1.060326	1.784334
O165	O	0.595732	0.386558	0.386449
O166	O	1.095732	0.886558	0.886449
H167	H	0.646933	0.361112	0.361089
H168	H	1.146933	0.861112	0.861089
O169	O	0.739789	0.359901	0.359844
O170	O	1.239789	0.859901	0.859844
H171	H	0.697716	0.319429	0.384112
H172	H	1.197716	0.819429	0.884112
H173	H	1.120412	0.916306	0.608466
H174	H	1.620412	1.416306	1.108466
H175	H	0.919312	0.397568	0.397418
H176	H	1.419312	0.897568	0.897418
H177	H	1.342607	0.471343	0.807619
H178	H	1.842607	0.971343	1.307619
O179	O	1.112319	0.613984	0.772507
O180	O	1.612319	1.113984	1.272507
H181	H	1.069097	0.640759	0.805647
H182	H	1.569097	1.140759	1.305647
H183	H	1.127402	0.783718	0.604063
H184	H	1.627402	1.283718	1.104063
H185	H	0.841340	0.612641	0.611844
H186	H	1.341340	1.112641	1.111844
O187	O	1.147833	1.106355	0.591546
O188	O	1.647833	1.606355	1.091546
H189	H	1.104608	1.139499	0.618314
H190	H	1.604608	1.639499	1.118314
O191	O	0.759469	0.698708	0.697650
O192	O	1.259469	1.198708	1.197650
H193	H	0.832649	0.701128	0.700052
H194	H	1.332649	1.201128	1.200052
O195	O	1.350724	0.466294	0.951577
O196	O	1.850724	0.966294	1.451577
H197	H	1.420612	0.487680	0.947758
H198	H	1.920612	0.987680	1.447758
O199	O	0.566438	0.671525	0.670563
O200	O	1.066438	1.171525	1.170563
H201	H	0.494857	0.653555	0.652652
H202	H	0.994857	1.153555	1.152652
