data_functionalizedCrystal
_audit_creation_method	'MofGen! by Chris Wilmer'
_symmetry_space_group_name_H-M	'P1'
_symmetry_Int_Tables_number	1
_symmetry_cell_setting	triclinic
loop_
_symmetry_equiv_pos_as_xyz
  x,y,z
_cell_length_a	12.759395
_cell_length_b	19.121449
_cell_length_c	12.759387
_cell_angle_alpha	87.525999
_cell_angle_beta	89.983849
_cell_angle_gamma	87.585129
loop_
_atom_site_label
_atom_site_type_symbol
_atom_site_fract_x
_atom_site_fract_y
_atom_site_fract_z
Zn1	Zn	1.623990	-0.279578	-0.576117
Zn2	Zn	1.631350	-0.397044	-0.392934
Zn3	Zn	1.448300	-0.279613	-0.400455
Zn4	Zn	1.455737	-0.396991	-0.568580
O5	O	1.539844	-0.338307	-0.484522
O6	O	1.771987	-0.295168	-0.551824
O7	O	1.607036	-0.381503	-0.246909
O8	O	1.465413	-0.181325	-0.430059
O9	O	1.777395	-0.381470	-0.417241
O10	O	1.594491	-0.181299	-0.559117
O11	O	1.472550	-0.295227	-0.252434
O12	O	1.302265	-0.295175	-0.422750
O13	O	1.478087	-0.381380	-0.716604
O14	O	1.307728	-0.381413	-0.546271
O15	O	1.601702	-0.295117	-0.722141
O16	O	1.614247	-0.495321	-0.409933
O17	O	1.485225	-0.495282	-0.538979
C18	C	1.266876	-0.338293	-0.484510
C19	C	1.150100	-0.338304	-0.484528
C20	C	1.144458	-0.248583	-0.624878
C21	C	1.086778	-0.203731	-0.695061
C22	C	0.977057	-0.203743	-0.695073
C23	C	0.925015	-0.248611	-0.624893
C24	C	0.982695	-0.293463	-0.554710
C25	C	1.092418	-0.293447	-0.554708
C26	C	0.988336	-0.383179	-0.414357
C27	C	1.098057	-0.383171	-0.414348
C28	C	0.936294	-0.428047	-0.344177
C29	C	0.993975	-0.472903	-0.273998
C30	C	1.103702	-0.472890	-0.273989
C31	C	1.155738	-0.428023	-0.344166
C32	C	1.551370	-0.520785	-0.472845
C33	C	1.556397	-0.598850	-0.467884
C34	C	1.491538	-0.635530	-0.532686
C35	C	1.496266	-0.708881	-0.528021
C36	C	1.565859	-0.745549	-0.458559
C37	C	1.630721	-0.708864	-0.393751
C38	C	1.625987	-0.635515	-0.398411
C39	C	1.583511	-0.967016	-0.441124
C40	C	1.588242	-1.040370	-0.436471
C41	C	1.453785	-1.040382	-0.570741
C42	C	1.449062	-0.967032	-0.575399
C43	C	1.513920	-0.930352	-0.510587
C44	C	1.570696	-0.820525	-0.453791
C45	C	1.509077	-0.855378	-0.515350
C46	C	1.813878	-0.338321	-0.484534
C47	C	1.930655	-0.338327	-0.484540
C48	C	1.539903	-0.338239	-0.758560
C49	C	1.539929	-0.338210	-0.875338
C50	C	1.528302	-0.155116	-0.496267
C51	C	1.523383	-0.077051	-0.501272
C52	C	1.680040	-0.428001	-1.089013
C53	C	1.750041	-0.472935	-1.031264
C54	C	1.750008	-0.472962	-0.921541
C55	C	1.679964	-0.428051	-0.869564
C56	C	1.609963	-0.383117	-0.927313
C57	C	1.610006	-0.383093	-1.037039
C58	C	1.469928	-0.293276	-0.933087
C59	C	1.469964	-0.293244	-1.042811
C60	C	1.399884	-0.248365	-0.881110
C61	C	1.329886	-0.203426	-0.938860
C62	C	1.329923	-0.203401	-1.048590
C63	C	1.399963	-0.248310	-1.100560
C64	C	1.539842	-0.338324	-0.211553
C65	C	1.540008	-0.338155	-0.094788
H66	H	1.129163	-0.167199	-0.752198
H67	H	1.392393	-0.937177	-0.631961
H68	H	1.678801	-0.605650	-0.345641
C69	C	1.414982	-0.595198	-0.609095
C70	C	1.296207	-0.605363	-0.599767
C71	C	1.219646	-0.565032	-0.676175
C72	C	1.261860	-0.514537	-0.761911
C73	C	1.380641	-0.504370	-0.771242
C74	C	1.457202	-0.544700	-0.694834
H75	H	1.264953	-0.642744	-0.536297
H76	H	1.131717	-0.572559	-0.669266
H77	H	1.205185	-0.484682	-0.818472
H78	H	1.411896	-0.466988	-0.834712
H79	H	1.545131	-0.537174	-0.701743
H80	H	1.452410	-0.825520	-0.571902
H81	H	0.846953	-0.428052	-0.344189
C82	C	1.252844	-0.154031	-0.881684
C83	C	1.294873	-0.098917	-0.809776
C84	C	1.217830	-0.049520	-0.752596
C85	C	1.098759	-0.055238	-0.767324
C86	C	1.056725	-0.110354	-0.839236
C87	C	1.133767	-0.159750	-0.896416
H88	H	1.383021	-0.094683	-0.798870
H89	H	1.248948	-0.008720	-0.699362
H90	H	1.041728	-0.018671	-0.724996
H91	H	0.968576	-0.114588	-0.850142
H92	H	1.102650	-0.200551	-0.949650
H93	H	1.272917	-0.166811	-1.095602
C94	C	0.913599	-0.154407	-0.772271
C95	C	0.929089	-0.160237	-0.891319
C96	C	0.865629	-0.110901	-0.968515
C97	C	0.786680	-0.055736	-0.926663
C98	C	0.771187	-0.049904	-0.807608
C99	C	0.834646	-0.099239	-0.730412
H100	H	0.987535	-0.201076	-0.922306
H101	H	0.877099	-0.115219	-1.056647
H102	H	0.739703	-0.019215	-0.983808
H103	H	0.712740	-0.009065	-0.776621
H104	H	0.823176	-0.094922	-0.642280
H105	H	1.400980	-1.070254	-0.623506
C106	C	1.827003	-0.522394	-0.858015
C107	C	1.784913	-0.577547	-0.779052
C108	C	1.861906	-0.626982	-0.715528
C109	C	1.980989	-0.621263	-0.730967
C110	C	2.023085	-0.566108	-0.809933
C111	C	1.946092	-0.516673	-0.873457
H112	H	1.696755	-0.581782	-0.767620
H113	H	1.830743	-0.667811	-0.657072
H114	H	2.037984	-0.657858	-0.683942
H115	H	2.111243	-0.561873	-0.821365
H116	H	1.977255	-0.475844	-0.931913
C117	C	0.936729	-0.522253	-0.196807
C118	C	0.816040	-0.522263	-0.196813
C119	C	0.758790	-0.571615	-0.119622
C120	C	0.822229	-0.620957	-0.042426
C121	C	0.942925	-0.620948	-0.042418
C122	C	1.000175	-0.571596	-0.119609
H123	H	0.769072	-0.485736	-0.253960
H124	H	0.669442	-0.571621	-0.119629
H125	H	0.779849	-0.657490	0.014715
H126	H	0.989893	-0.657475	0.014729
H127	H	1.089523	-0.571590	-0.119602
C128	C	1.167148	-0.522228	-0.196785
C129	C	1.151646	-0.516394	-0.077739
C130	C	1.215087	-0.565733	-0.000533
C131	C	1.294031	-0.620907	-0.042373
C132	C	1.309537	-0.626743	-0.161425
C133	C	1.246096	-0.577404	-0.238631
H134	H	1.093203	-0.475549	-0.046761
H135	H	1.203608	-0.561412	0.087597
H136	H	1.340994	-0.657431	0.014779
H137	H	1.367979	-0.667588	-0.192403
H138	H	1.257575	-0.581725	-0.326761
H139	H	1.233798	-0.248565	-0.624871
H140	H	1.400004	-0.248291	-1.189902
C141	C	1.424919	-0.749225	-0.599310
C142	C	1.304843	-0.739210	-0.591279
C143	C	1.233490	-0.779552	-0.662571
C144	C	1.282213	-0.829909	-0.741895
C145	C	1.402296	-0.839926	-0.749929
C146	C	1.473649	-0.799584	-0.678637
H147	H	1.268769	-0.701930	-0.532555
H148	H	1.144596	-0.772136	-0.656623
H149	H	1.229393	-0.859772	-0.794669
H150	H	1.438369	-0.877205	-0.808652
H151	H	1.562542	-0.807000	-0.684585
H152	H	1.644920	-1.070224	-0.379907
C153	C	1.654864	-0.926680	-0.369836
C154	C	1.647018	-0.936843	-0.249749
C155	C	1.718377	-0.896505	-0.178457
C156	C	1.797581	-0.846005	-0.227252
C157	C	1.805430	-0.835839	-0.347345
C158	C	1.734071	-0.876177	-0.418637
H159	H	1.588383	-0.974229	-0.213623
H160	H	1.712566	-0.904031	-0.089555
H161	H	1.850405	-0.816144	-0.174477
H162	H	1.864064	-0.798453	-0.383472
H163	H	1.739882	-0.868651	-0.507539
H164	H	1.245078	-0.428004	-0.344160
H165	H	0.835673	-0.248612	-0.624901
H166	H	1.687380	-0.738725	-0.337188
H167	H	1.627360	-0.850389	-0.397236
H168	H	1.680083	-0.427977	-1.178356
H169	H	1.807066	-0.509502	-1.073596
H170	H	1.679935	-0.428083	-0.780221
H171	H	1.399858	-0.248393	-0.791767
