data_functionalizedCrystal
_audit_creation_method	'MofGen! by Chris Wilmer'
_symmetry_space_group_name_H-M	'P1'
_symmetry_Int_Tables_number	1
_symmetry_cell_setting	triclinic
loop_
_symmetry_equiv_pos_as_xyz
  x,y,z
_cell_length_a	16.120530
_cell_length_b	19.120786
_cell_length_c	19.120904
_cell_angle_alpha	89.866497
_cell_angle_beta	89.648943
_cell_angle_gamma	89.436752
loop_
_atom_site_label
_atom_site_type_symbol
_atom_site_fract_x
_atom_site_fract_y
_atom_site_fract_z
Zn1	Zn	1.234714	-0.351016	-0.434804
Zn2	Zn	1.235121	-0.463278	-0.312580
Zn3	Zn	1.102066	-0.340129	-0.312176
Zn4	Zn	1.090202	-0.461789	-0.423869
O5	O	1.165526	-0.404053	-0.370857
O6	O	1.350931	-0.371087	-0.423337
O7	O	1.222606	-0.443009	-0.214631
O8	O	1.124456	-0.243676	-0.332850
O9	O	1.351230	-0.453566	-0.333539
O10	O	1.221912	-0.251675	-0.422944
O11	O	1.124851	-0.352532	-0.214334
O12	O	0.984329	-0.351088	-0.322246
O13	O	1.104237	-0.451027	-0.523215
O14	O	0.975613	-0.440471	-0.404307
O15	O	1.210409	-0.369643	-0.531249
O16	O	1.211103	-0.560978	-0.322936
O17	O	1.104631	-0.559884	-0.404699
C18	C	0.949852	-0.394437	-0.362047
C19	C	0.857584	-0.390341	-0.358293
C20	C	0.688649	-0.382847	-0.351447
C21	C	0.643238	-0.425313	-0.390316
C22	C	0.549237	-0.421143	-0.386507
C23	C	0.782658	-0.387016	-0.355255
C24	C	1.156646	-0.585816	-0.362691
C25	C	1.152921	-0.663579	-0.359224
C26	C	1.201870	-0.704216	-0.404538
C27	C	1.198368	-0.777283	-0.401281
C28	C	1.145920	-0.809711	-0.352707
C29	C	1.096965	-0.769069	-0.307392
C30	C	1.100464	-0.696003	-0.310652
C31	C	1.132815	-1.030116	-0.340517
C32	C	1.129321	-1.103187	-0.337259
C33	C	1.230723	-1.111396	-0.431149
C34	C	1.234221	-1.038329	-0.434403
C35	C	1.185263	-0.997693	-0.389090
C36	C	1.142340	-0.884397	-0.349376
C37	C	1.188839	-0.923008	-0.392425
C38	C	1.382042	-0.413707	-0.379703
C39	C	1.474308	-0.417821	-0.383472
C40	C	1.155954	-0.411384	-0.553325
C41	C	1.151875	-0.414507	-0.631082
C42	C	1.174462	-0.221582	-0.379072
C43	C	1.178270	-0.143824	-0.382572
C44	C	1.205234	-0.373604	-0.671796
C45	C	1.201392	-0.376536	-0.744857
C46	C	1.144194	-0.420376	-0.777202
C47	C	1.090829	-0.461280	-0.736482
C48	C	1.094668	-0.458344	-0.663423
C49	C	1.129833	-0.431357	-0.997584
C50	C	1.126000	-0.434292	-1.070648
C51	C	1.236562	-0.349547	-1.079018
C52	C	1.240400	-0.346618	-1.005957
C53	C	1.187032	-0.387520	-0.965244
C54	C	1.140267	-0.423375	-0.851881
C55	C	1.190956	-0.384516	-0.890566
C56	C	1.175110	-0.396703	-0.189104
C57	C	1.179359	-0.393389	-0.111363
H58	H	1.238234	-0.810367	-0.438175
N59	N	1.072266	-0.475480	-0.953696
H60	H	1.105990	-0.508193	-0.923300
H61	H	1.036783	-0.444073	-0.923138
N62	N	0.685254	-0.477626	-0.438177
H63	H	0.668346	-0.526498	-0.424382
H64	H	0.668129	-0.468141	-0.488052
H65	H	0.656931	-0.343361	-0.315311
H66	H	1.237523	-0.348819	-0.864227
H67	H	1.280010	-0.316246	-1.112174
H68	H	1.276928	-1.011927	-0.473955
H69	H	1.086608	-1.129587	-0.297703
H70	H	1.270581	-1.144489	-0.468041
N71	N	1.258444	-0.669242	-0.456925
H72	H	1.288920	-0.706076	-0.485137
H73	H	1.224377	-0.638733	-0.489246
H74	H	1.079420	-0.469993	-1.096981
N75	N	1.080021	-0.986293	-0.291640
H76	H	1.046272	-1.017925	-0.260371
H77	H	1.116996	-0.956172	-0.262026
H78	H	1.054257	-0.795478	-0.267844
N79	N	1.245400	-0.888030	-0.444816
H80	H	1.286832	-0.858268	-0.419334
H81	H	1.275827	-0.924897	-0.473017
N82	N	1.047667	-0.652170	-0.261781
H83	H	1.013911	-0.683799	-0.230514
H84	H	1.084635	-0.622046	-0.232165
N85	N	1.085784	-0.919377	-0.296978
H86	H	1.055306	-0.882549	-0.268761
H87	H	1.044396	-0.949141	-0.322504
H88	H	1.251814	-0.337908	-0.645467
H89	H	1.244845	-0.343230	-0.778003
H90	H	1.286979	-0.310921	-0.979627
N91	N	1.029128	-0.508548	-0.771376
H92	H	1.059675	-0.543692	-0.801612
H93	H	0.995913	-0.533967	-0.734461
H94	H	1.051209	-0.491644	-0.630274
N95	N	1.078585	-0.470656	-0.886783
H96	H	1.089693	-0.520708	-0.872356
H97	H	1.020497	-0.456580	-0.872126
