data_functionalizedCrystal
_audit_creation_method	'MofGen! by Chris Wilmer'
_symmetry_space_group_name_H-M	'P1'
_symmetry_Int_Tables_number	1
_symmetry_cell_setting	triclinic
loop_
_symmetry_equiv_pos_as_xyz
  x,y,z
_cell_length_a	26.455835
_cell_length_b	26.455273
_cell_length_c	26.451828
_cell_angle_alpha	60.005170
_cell_angle_beta	60.010757
_cell_angle_gamma	59.993435
loop_
_atom_site_label
_atom_site_type_symbol
_atom_site_fract_x
_atom_site_fract_y
_atom_site_fract_z
O1	O	0.069940	-0.738516	0.617604
O2	O	0.026299	-0.574986	0.497618
O3	O	0.129847	-0.678463	0.497546
O4	O	-0.033607	-0.635040	0.617676
O5	O	0.164197	-0.644116	0.531822
O6	O	0.060649	-0.540639	0.531894
O7	O	0.104290	-0.704170	0.651880
Cu8	Cu	0.085606	-0.619268	0.595016
Cu9	Cu	0.044984	-0.659887	0.554481
O10	O	0.000742	-0.600693	0.651952
N11	N	0.114179	-0.590703	0.623530
N12	N	0.016416	-0.688458	0.525968
C13	C	0.157553	-0.547535	0.933368
C14	C	0.424104	-0.547506	0.666656
C15	C	0.157413	-0.547503	0.666729
C16	C	0.157397	-0.280846	0.666749
C17	C	0.200330	-0.409550	0.709625
C18	C	0.200339	-0.504608	0.709615
C19	C	0.224118	-0.480848	0.733375
C20	C	0.327800	-0.462984	0.678792
C21	C	0.392611	-0.484588	0.657175
C22	C	0.392630	-0.589450	0.697162
C23	C	0.327821	-0.567844	0.718781
C24	C	0.215955	-0.377135	0.645910
C25	C	0.194327	-0.312320	0.624323
C26	C	0.141457	-0.312339	0.730169
C27	C	0.163084	-0.377154	0.751756
C28	C	0.136618	-0.488954	0.725292
C29	C	0.115007	-0.510553	0.703686
C30	C	0.220833	-0.563461	0.650740
C31	C	0.242447	-0.541861	0.672339
C32	C	0.136680	-0.488971	0.837094
C33	C	0.115112	-0.510589	0.901907
C34	C	0.220969	-0.563508	0.901868
C35	C	0.242535	-0.541892	0.837053
C36	C	0.200389	-0.504622	0.804668
C37	C	0.295409	-0.504610	0.709593
C38	C	0.132990	-0.570876	1.004655
C39	C	0.495389	-0.570440	0.642547
C40	C	0.132802	-0.570856	0.643399
C41	C	0.133212	-0.209553	0.643833
C42	C	-0.097217	-0.706972	0.506986
C43	C	-0.002040	-0.707108	0.412067
C44	C	-0.002230	-0.802124	0.507163
C45	C	-0.002214	-0.707101	0.507221
C46	C	-0.025925	-0.730827	0.483360
N47	N	0.553723	-0.590712	0.623415
O48	O	0.751638	-0.596429	0.475603
O49	O	0.751819	-0.716773	0.638980
O50	O	0.751753	-0.716500	0.535361
O51	O	0.751705	-0.596703	0.579222
O52	O	0.648791	-0.682239	0.569747
O53	O	0.648858	-0.682512	0.673366
O54	O	0.648676	-0.562169	0.509989
Cu55	Cu	0.639366	-0.619212	0.594817
Cu56	Cu	0.761130	-0.659729	0.554152
O57	O	0.648743	-0.562442	0.613609
N58	N	0.846773	-0.688230	0.525548
N59	N	0.114157	-0.151217	0.623565
O60	O	-0.033591	0.046803	0.617717
O61	O	0.129795	0.046806	0.497390
O62	O	0.026157	0.046789	0.497680
O63	O	0.070046	0.046819	0.617427
O64	O	0.060509	-0.056181	0.532004
O65	O	0.164146	-0.056164	0.531714
O66	O	0.000760	-0.056167	0.652041
Cu67	Cu	0.085590	-0.065568	0.595012
Cu68	Cu	0.044965	0.056206	0.554419
O69	O	0.104397	-0.056151	0.651751
N70	N	0.016390	0.141855	0.525867
N71	N	0.114410	-0.590756	1.062992
O72	O	0.108565	-0.738494	1.260998
O73	O	-0.011747	-0.575059	1.261012
O74	O	-0.011470	-0.678679	1.260970
O75	O	0.108287	-0.634874	1.261040
O76	O	0.022849	-0.644347	1.158004
O77	O	0.022572	-0.540726	1.158046
O78	O	0.142884	-0.704162	1.158033
Cu79	Cu	0.085861	-0.619309	1.148638
Cu80	Cu	0.045275	-0.659911	1.270406
O81	O	0.142606	-0.600541	1.158074
N82	N	0.016726	-0.688471	1.356052
C83	C	0.039385	-0.537207	0.498225
C84	C	0.167616	-0.665350	0.498136
C85	C	0.091204	-0.741950	0.651272
C86	C	-0.037027	-0.613806	0.651361
C87	C	0.700360	-0.716215	0.676756
C88	C	0.700279	-0.715877	0.548436
C89	C	0.700133	-0.562725	0.472214
C90	C	0.700218	-0.563065	0.600533
C91	C	0.167511	-0.004552	0.497940
C92	C	0.039211	-0.004699	0.498341
C93	C	-0.036999	-0.004682	0.651449
C94	C	0.091344	-0.004663	0.651090
C95	C	-0.011156	-0.537302	1.209530
C96	C	-0.010806	-0.665617	1.209458
C97	C	0.142293	-0.741918	1.209514
C98	C	0.141950	-0.613596	1.209563
H99	H	0.102355	-0.458618	0.810728
O100	O	0.186897	-0.602532	1.209605
C101	C	0.240328	-0.655700	1.209587
H102	H	0.226812	-0.698261	1.229068
H103	H	0.273991	-0.650705	1.160189
C104	C	0.288080	-0.610759	1.226051
C105	C	0.271478	-0.663033	1.249983
H106	H	0.307296	-0.615281	1.250967
H107	H	0.252083	-0.574937	1.226061
H108	H	0.316129	-0.606602	1.184887
H109	H	0.243423	-0.667185	1.291143
H110	H	0.307470	-0.698856	1.249981
H111	H	-0.048413	-0.674973	1.209396
H112	H	0.063231	-0.497836	0.928300
O113	O	-0.093023	-0.004644	0.696438
C114	C	-0.131560	-0.004665	0.674165
H115	H	-0.114803	0.014813	0.621428
H116	H	-0.129890	-0.054065	0.689917
C117	C	-0.219128	0.011807	0.764565
C118	C	-0.198550	0.035736	0.699793
H119	H	-0.260451	0.036725	0.780375
H120	H	-0.193165	0.011819	0.779572
H121	H	-0.217731	-0.029359	0.777684
H122	H	-0.199940	0.076898	0.686676
H123	H	-0.224515	0.035731	0.684784
O124	O	0.223397	-0.004179	0.452815
C125	C	0.261903	-0.004067	0.475058
H126	H	0.232122	0.015227	0.514942
H127	H	0.293399	-0.053401	0.492033
C128	C	0.338226	0.012938	0.373561
C129	C	0.301648	0.036640	0.422544
H130	H	0.362745	0.038045	0.341168
H131	H	0.312285	0.012860	0.358575
H132	H	0.364467	-0.028174	0.387715
H133	H	0.275402	0.077747	0.408391
H134	H	0.327585	0.036726	0.437526
H135	H	0.180068	-0.788855	1.209502
O136	O	0.700147	-0.517627	0.416238
C137	C	0.753451	-0.500979	0.388805
H138	H	0.771265	-0.513519	0.426332
H139	H	0.790784	-0.526947	0.355001
C140	C	0.715303	-0.415372	0.307719
C141	C	0.737180	-0.430769	0.353811
H142	H	0.705268	-0.372064	0.286130
H143	H	0.679392	-0.426589	0.326199
H144	H	0.746418	-0.437017	0.279555
H145	H	0.706062	-0.409130	0.381977
H146	H	0.773085	-0.419546	0.335335
O147	O	0.261994	-0.599716	0.933226
C148	C	0.322850	-0.608874	0.890705
H149	H	0.322707	-0.601629	0.844510
H150	H	0.341408	-0.574372	0.883807
C151	C	0.364623	-0.684171	0.972711
C152	C	0.364449	-0.675278	0.915976
H153	H	0.390285	-0.725130	0.988300
H154	H	0.323624	-0.677999	1.001360
H155	H	0.380087	-0.655414	0.966956
H156	H	0.348978	-0.704029	0.921734
H157	H	0.405447	-0.681455	0.887329
O158	O	0.700173	-0.518226	0.611838
C159	C	0.700245	-0.540786	0.672681
H160	H	0.680794	-0.580548	0.701973
H161	H	0.749652	-0.558031	0.671740
C162	C	0.683745	-0.439585	0.664868
C163	C	0.659850	-0.488418	0.700846
H164	H	0.658830	-0.407283	0.682242
H165	H	0.683699	-0.424386	0.623876
H166	H	0.724917	-0.453964	0.664087
H167	H	0.618682	-0.474041	0.701621
H168	H	0.659888	-0.503614	0.741839
O169	O	0.223665	-0.676482	0.453205
C170	C	0.262126	-0.737324	0.475585
H171	H	0.245319	-0.753716	0.528319
H172	H	0.260426	-0.769339	0.459899
C173	C	0.349783	-0.718260	0.385216
C174	C	0.329143	-0.738391	0.449985
H175	H	0.391123	-0.718920	0.369423
H176	H	0.323871	-0.677270	0.370137
H177	H	0.348361	-0.744942	0.372153
H178	H	0.330558	-0.711705	0.463048
H179	H	0.355058	-0.779377	0.465066
O180	O	0.095631	-0.452748	0.761470
C181	C	0.034756	-0.443574	0.770680
H182	H	0.034852	-0.450806	0.731605
H183	H	0.016210	-0.478077	0.816848
C184	C	-0.006938	-0.368293	0.819152
C185	C	-0.006820	-0.377171	0.771157
H186	H	-0.032585	-0.327334	0.819449
H187	H	0.034075	-0.374475	0.812950
H188	H	-0.022391	-0.397050	0.857621
H189	H	0.008641	-0.348420	0.732689
H190	H	-0.047831	-0.370982	0.777353
O191	O	0.102411	-0.798033	0.696154
C192	C	0.163258	-0.836435	0.673704
H193	H	0.179595	-0.819565	0.620970
H194	H	0.195285	-0.834732	0.689374
C195	C	0.144328	-0.924188	0.764018
C196	C	0.164391	-0.903472	0.699249
H197	H	0.145029	-0.965541	0.779777
H198	H	0.103335	-0.898317	0.779144
H199	H	0.171020	-0.922764	0.777068
H200	H	0.137695	-0.904889	0.686200
H201	H	0.205380	-0.929346	0.684121
H202	H	-0.083976	-0.604550	0.689083
H203	H	0.294416	-0.554643	0.810656
O204	O	0.700445	-0.761231	0.732758
C205	C	0.700437	-0.738933	0.771295
H206	H	0.719889	-0.699171	0.741530
H207	H	0.651049	-0.721767	0.802582
C208	C	0.716977	-0.840315	0.847890
C209	C	0.740873	-0.791481	0.811333
H210	H	0.741917	-0.872729	0.872590
H211	H	0.716981	-0.855337	0.821929
H212	H	0.675821	-0.826001	0.873958
H213	H	0.782026	-0.805793	0.785261
H214	H	0.740878	-0.776463	0.837291
H215	H	0.063121	-0.497793	0.716436
H216	H	0.255124	-0.593799	0.620395
O217	O	0.102613	-0.004773	0.695994
C218	C	0.152767	-0.058093	0.710196
H219	H	0.157639	-0.095365	0.696595
H220	H	0.197151	-0.046034	0.683483
C221	C	0.135032	-0.036501	0.796873
C222	C	0.141012	-0.082281	0.780172
H223	H	0.127783	-0.051420	0.840036
H224	H	0.101243	-0.000576	0.787304
H225	H	0.172020	-0.026455	0.774607
H226	H	0.104022	-0.092320	0.802432
H227	H	0.174794	-0.118208	0.789747
O228	O	-0.056162	-0.481280	1.209561
C229	C	-0.033874	-0.442755	1.209569
H230	H	0.005866	-0.472532	1.229073
H231	H	-0.016684	-0.411490	1.160177
C232	C	-0.135239	-0.366109	1.225998
C233	C	-0.086433	-0.402682	1.249958
H234	H	-0.167660	-0.341388	1.250909
H235	H	-0.150255	-0.392063	1.225990
H236	H	-0.120906	-0.340061	1.184838
H237	H	-0.100765	-0.428736	1.291113
H238	H	-0.071421	-0.376732	1.249973
O239	O	0.700188	-0.760720	0.537250
C240	C	0.646848	-0.739412	0.522693
H241	H	0.609567	-0.700983	0.542697
H242	H	0.658859	-0.720724	0.470266
C243	C	0.668507	-0.840491	0.526024
C244	C	0.622716	-0.793296	0.550597
H245	H	0.653622	-0.873729	0.543233
H246	H	0.704445	-0.854847	0.535828
H247	H	0.678512	-0.824910	0.482335
H248	H	0.612717	-0.808875	0.594283
H249	H	0.586775	-0.778944	0.540800
O250	O	0.304365	-0.557128	0.657061
C251	C	0.336898	-0.594618	0.619505
H252	H	0.306002	-0.618199	0.627792
H253	H	0.350819	-0.564697	0.568744
C254	C	0.433314	-0.615170	0.625680
C255	C	0.395368	-0.644137	0.635862
H256	H	0.469382	-0.645714	0.635767
H257	H	0.411396	-0.589910	0.650980
H258	H	0.444908	-0.590236	0.583379
H259	H	0.383768	-0.669064	0.678165
H260	H	0.417285	-0.669402	0.610570
O261	O	0.147873	-0.408549	0.813672
C262	C	0.110345	-0.366057	0.846228
H263	H	0.118597	-0.319851	0.815323
H264	H	0.059581	-0.359169	0.860213
C265	C	0.116646	-0.448114	0.942607
C266	C	0.126785	-0.391364	0.904650
H267	H	0.126784	-0.463725	0.978646
H268	H	0.141927	-0.476743	0.920674
H269	H	0.074342	-0.442366	0.954254
H270	H	0.169089	-0.397114	0.892997
H271	H	0.101511	-0.362737	0.926582
O272	O	0.296450	-0.608363	0.748664
C273	C	0.338959	-0.668808	0.752145
H274	H	0.385146	-0.666343	0.713858
H275	H	0.345878	-0.693552	0.799109
C276	C	0.256930	-0.707770	0.791250
C277	C	0.313656	-0.704741	0.744221
H278	H	0.241321	-0.729937	0.786365
H279	H	0.228290	-0.667047	0.788907
H280	H	0.262703	-0.728388	0.830382
H281	H	0.307880	-0.684116	0.705091
H282	H	0.342294	-0.745461	0.746557
H283	H	0.419022	-0.640939	0.704632
H284	H	0.029814	-0.004702	0.460721
H285	H	0.418982	-0.450689	0.632093
H286	H	0.246280	-0.403511	0.611604
O287	O	0.296385	-0.401535	0.669760
C288	C	0.312181	-0.368095	0.605767
H289	H	0.359232	-0.396416	0.580239
H290	H	0.275690	-0.358424	0.588113
C291	C	0.257383	-0.271591	0.625552
C292	C	0.315174	-0.306373	0.594198
H293	H	0.259227	-0.233516	0.618415
H294	H	0.246739	-0.294119	0.668665
H295	H	0.226980	-0.263538	0.610837
H296	H	0.345575	-0.314432	0.608919
H297	H	0.325824	-0.283845	0.551087
O298	O	0.209475	-0.280896	0.562413
C299	C	0.187281	-0.296714	0.535504
H300	H	0.180949	-0.343778	0.566228
H301	H	0.140952	-0.260238	0.530700
C302	C	0.241949	-0.241888	0.433360
C303	C	0.234178	-0.299695	0.471093
H304	H	0.270876	-0.243725	0.393627
H305	H	0.256900	-0.231229	0.451488
H306	H	0.203339	-0.211497	0.429364
H307	H	0.272786	-0.330083	0.475095
H308	H	0.219234	-0.310360	0.452964
O309	O	0.105363	-0.280833	0.771064
C310	C	0.134804	-0.243319	0.761712
H311	H	0.186758	-0.262843	0.738180
H312	H	0.115669	-0.194199	0.731129
C313	C	0.058819	-0.218339	0.853501
C314	C	0.122631	-0.242322	0.824603
H315	H	0.051309	-0.217721	0.892294
H316	H	0.038983	-0.243611	0.859800
H317	H	0.042881	-0.177408	0.828009
H318	H	0.138567	-0.283254	0.850091
H319	H	0.142470	-0.217056	0.818309
H320	H	0.030065	-0.490230	0.460543
