data_functionalizedCrystal
_audit_creation_method	'MofGen! by Chris Wilmer'
_symmetry_space_group_name_H-M	'P1'
_symmetry_Int_Tables_number	1
_symmetry_cell_setting	triclinic
loop_
_symmetry_equiv_pos_as_xyz
  x,y,z
_cell_length_a	25.639242
_cell_length_b	25.639239
_cell_length_c	11.169409
_cell_angle_alpha	89.960719
_cell_angle_beta	89.968643
_cell_angle_gamma	90.033587
loop_
_atom_site_label
_atom_site_type_symbol
_atom_site_fract_x
_atom_site_fract_y
_atom_site_fract_z
Zn1	Zn	0.799276	-0.208179	-0.678854
Zn2	Zn	0.799184	-0.295630	-0.478146
Zn3	Zn	0.711837	-0.208202	-0.478148
Zn4	Zn	0.711797	-0.295578	-0.678751
O5	O	0.755523	-0.251897	-0.578475
O6	O	0.872429	-0.219792	-0.652272
O7	O	0.787576	-0.284063	-0.310197
O8	O	0.723491	-0.135034	-0.504816
O9	O	0.872361	-0.284041	-0.504813
O10	O	0.787732	-0.135017	-0.652274
O11	O	0.723402	-0.219831	-0.310198
O12	O	0.638666	-0.219781	-0.504716
O13	O	0.723423	-0.283953	-0.846714
O14	O	0.638637	-0.283975	-0.652098
O15	O	0.787693	-0.219742	-0.846790
O16	O	0.787537	-0.368788	-0.504713
O17	O	0.723334	-0.368750	-0.652097
C18	C	0.619681	-0.251875	-0.578397
C19	C	0.561567	-0.251878	-0.578392
C20	C	0.755435	-0.387740	-0.578420
C21	C	0.755446	-0.445854	-0.578436
C22	C	0.310380	-0.218415	-0.501866
C23	C	0.364984	-0.218411	-0.501850
O24	O	0.393226	-0.189928	-0.436718
N25	N	0.392293	-0.251885	-0.578452
C26	C	0.364994	-0.285362	-0.655083
O27	O	0.393237	-0.313834	-0.720238
C28	C	0.310391	-0.285364	-0.655103
C29	C	0.283085	-0.251891	-0.578488
C30	C	0.283074	-0.184945	-0.425257
C31	C	0.228473	-0.184951	-0.425271
C32	C	0.201179	-0.218427	-0.501894
C33	C	0.228485	-0.251897	-0.578502
C34	C	0.283094	-0.318839	-0.731739
C35	C	0.228487	-0.318837	-0.731753
C36	C	0.201181	-0.285365	-0.655138
C37	C	0.146590	-0.285379	-0.655138
N38	N	0.119281	-0.251905	-0.578536
C39	C	0.146575	-0.218429	-0.501914
C40	C	0.479665	-0.285355	-0.655035
C41	C	0.534267	-0.285357	-0.655010
C42	C	0.534253	-0.218404	-0.501779
C43	C	0.479650	-0.218406	-0.501799
C44	C	0.452356	-0.251881	-0.578434
C45	C	0.031910	-0.218443	-0.501948
C46	C	-0.022695	-0.218453	-0.501966
C47	C	-0.022676	-0.285404	-0.655201
C48	C	0.031924	-0.285396	-0.655179
C49	C	0.059216	-0.251911	-0.578549
O50	O	0.118313	-0.313845	-0.720241
O51	O	0.118327	-0.189957	-0.436781
C52	C	0.789041	-0.806224	-0.501863
C53	C	0.789061	-0.860828	-0.501879
O54	O	0.817534	-0.889071	-0.436714
N55	N	0.755615	-0.888136	-0.578554
C56	C	0.722150	-0.860837	-0.655227
O57	O	0.693704	-0.889079	-0.720448
C58	C	0.722133	-0.806234	-0.655216
C59	C	0.755578	-0.778929	-0.578527
C60	C	0.822483	-0.778919	-0.425182
C61	C	0.822462	-0.724318	-0.425164
C62	C	0.788999	-0.697023	-0.501829
C63	C	0.755557	-0.724328	-0.578510
C64	C	0.688671	-0.778936	-0.731894
C65	C	0.688657	-0.724329	-0.731877
C66	C	0.722102	-0.697023	-0.655188
C67	C	0.722072	-0.642432	-0.655157
N68	N	0.755518	-0.615124	-0.578482
C69	C	0.788982	-0.642420	-0.501818
C70	C	0.722190	-0.975508	-0.655246
C71	C	0.722204	-1.030110	-0.655251
C72	C	0.789116	-1.030098	-0.501905
C73	C	0.789099	-0.975494	-0.501894
C74	C	0.755636	-0.948200	-0.578570
C75	C	0.788935	-0.527755	-0.501786
C76	C	0.788909	-0.473149	-0.501772
C77	C	0.721999	-0.473167	-0.655123
C78	C	0.722023	-0.527767	-0.655133
C79	C	0.755495	-0.555060	-0.578461
O80	O	0.693616	-0.614155	-0.720293
O81	O	0.817428	-0.614172	-0.436619
C82	C	0.891896	-0.251920	-0.578554
C83	C	0.950010	-0.251929	-0.578588
C84	C	0.755564	-0.251839	-0.891517
C85	C	0.755581	-0.251815	-1.024918
C86	C	0.755626	-0.115524	-0.578556
C87	C	0.755670	-0.057410	-0.578591
C88	C	0.755513	-0.251917	-0.266650
C89	C	0.755598	-0.251795	-0.133251
H90	H	0.054125	-0.191174	-0.439554
C91	C	0.449647	-0.322179	-0.739343
H92	H	0.473735	-0.342113	-0.784954
H93	H	0.428376	-0.302203	-0.791728
H94	H	0.428317	-0.344944	-0.693355
C95	C	0.685234	-0.557804	-0.739486
H96	H	0.665304	-0.533725	-0.785145
H97	H	0.662472	-0.579148	-0.693538
H98	H	0.705238	-0.579061	-0.791842
H99	H	0.816332	-0.953266	-0.439448
C100	C	0.651886	-0.808959	-0.816262
H101	H	0.631962	-0.784875	-0.861923
H102	H	0.629117	-0.830299	-0.770321
H103	H	0.671887	-0.830220	-0.868616
H104	H	0.694936	-0.953287	-0.717681
C105	C	0.449618	-0.181582	-0.417534
H106	H	0.473699	-0.161644	-0.371907
H107	H	0.428288	-0.201553	-0.365162
H108	H	0.428348	-0.158820	-0.463556
C109	C	0.313121	-0.355670	-0.815989
H110	H	0.349551	-0.350886	-0.805003
H111	H	0.304202	-0.348067	-0.896668
H112	H	0.304138	-0.390788	-0.798248
C113	C	0.313092	-0.148120	-0.340966
H114	H	0.349524	-0.152904	-0.351916
H115	H	0.304109	-0.155735	-0.260303
H116	H	0.304165	-0.112998	-0.358688
H117	H	0.206267	-0.346096	-0.794164
C118	C	0.685195	-0.443135	-0.739452
H119	H	0.689980	-0.406705	-0.728463
H120	H	0.650071	-0.452118	-0.721819
H121	H	0.692840	-0.452047	-0.820116
H122	H	0.054158	-0.312656	-0.717557
C123	C	0.651848	-0.694305	-0.816220
H124	H	0.656626	-0.657874	-0.805240
H125	H	0.616726	-0.703295	-0.798579
H126	H	0.659492	-0.703220	-0.896883
C127	C	0.564301	-0.322187	-0.739257
H128	H	0.600730	-0.317399	-0.728272
H129	H	0.555380	-0.314584	-0.819935
H130	H	0.555323	-0.357307	-0.721521
H131	H	-0.044909	-0.312661	-0.717580
H132	H	-0.044925	-0.191195	-0.439573
H133	H	0.816143	-0.450919	-0.439319
H134	H	0.556487	-0.191145	-0.439391
H135	H	0.206246	-0.157694	-0.362883
H136	H	0.816192	-0.549970	-0.439355
H137	H	0.849697	-0.702090	-0.362721
C138	C	0.685412	-1.060140	-0.739601
H139	H	0.665484	-1.036058	-0.785259
H140	H	0.662648	-1.081480	-0.693650
H141	H	0.705411	-1.081401	-0.791959
C142	C	0.859288	-0.808938	-0.340830
H143	H	0.854516	-0.845370	-0.351805
H144	H	0.851644	-0.800015	-0.260180
H145	H	0.894414	-0.799951	-0.358473
C146	C	0.825924	-1.060130	-0.417571
H147	H	0.821144	-1.096559	-0.428573
H148	H	0.818287	-1.051217	-0.336911
H149	H	0.861050	-1.051146	-0.435221
