data_functionalizedCrystal
_audit_creation_method	'MofGen! by Chris Wilmer'
_symmetry_space_group_name_H-M	'P1'
_symmetry_Int_Tables_number	1
_symmetry_cell_setting	triclinic
loop_
_symmetry_equiv_pos_as_xyz
  x,y,z
_cell_length_a	10.489741
_cell_length_b	14.853567
_cell_length_c	13.330367
_cell_angle_alpha	90.004582
_cell_angle_beta	89.995673
_cell_angle_gamma	95.912948
loop_
_atom_site_label
_atom_site_type_symbol
_atom_site_fract_x
_atom_site_fract_y
_atom_site_fract_z
O1	O	0.166528	-1.197303	-0.083354
O2	O	0.186366	-0.934954	-0.083371
O3	O	-0.009218	-1.072098	-0.083356
O4	O	0.362112	-1.060159	-0.083369
O5	O	-0.009223	-1.072078	0.083491
O6	O	0.186361	-0.934934	0.083476
O7	O	0.166524	-1.197282	0.083493
Cu8	Cu	0.176442	-1.066107	0.098719
Cu9	Cu	0.176447	-1.066130	-0.098597
O10	O	0.362107	-1.060139	0.083479
C11	C	-0.056742	-1.071186	0.000067
C12	C	-0.198341	-1.068488	0.000065
C13	C	0.185464	-0.901351	0.000051
C14	C	0.182771	-0.801252	0.000044
C15	C	0.167425	-1.230886	0.000070
C16	C	0.170118	-1.330985	0.000070
C17	C	-0.265502	-0.981228	0.000052
C18	C	-0.358089	-1.022439	0.082319
C19	C	-0.358060	-1.022479	-0.082179
C20	C	-0.289063	-1.109735	0.082400
C21	C	-0.289024	-1.109764	-0.082172
C22	C	-0.381585	-1.151038	0.000115
C23	C	0.409631	-1.061051	0.000053
C24	C	0.551230	-1.063748	0.000049
N25	N	0.176437	-1.066096	0.237501
C26	C	0.055204	-0.388003	0.000071
C27	C	0.287562	-0.368025	0.000062
C28	C	0.290094	-0.462072	0.000059
C29	C	0.175180	-0.519090	0.000060
C30	C	0.057733	-0.482060	0.000065
C31	C	0.407539	-0.499110	0.000044
C32	C	0.410077	-0.593163	0.000040
C33	C	0.295161	-0.650183	0.000048
C34	C	0.177709	-0.613147	0.000054
C35	C	0.062795	-0.670164	0.000055
C36	C	-0.054658	-0.633130	0.000068
C37	C	-0.057183	-0.539079	0.000073
C38	C	0.297685	-0.744234	0.000043
C39	C	0.065324	-0.764221	0.000049
N40	N	0.176441	-1.066147	-0.237378
C41	C	0.263017	-1.005400	0.710117
C42	C	0.089867	-1.126885	0.710098
C43	C	0.089863	-1.126874	0.605080
C44	C	0.176439	-1.066127	0.552575
C45	C	0.263019	-1.005390	0.605089
C46	C	0.003293	-1.187617	0.552558
C47	C	0.003287	-1.187610	0.447534
C48	C	0.089858	-1.126857	0.395027
C49	C	0.176440	-1.066117	0.447547
C50	C	0.263016	-1.005369	0.395043
C51	C	0.349594	-0.944624	0.447561
C52	C	0.349590	-0.944637	0.552582
C53	C	0.089861	-1.126844	0.290005
C54	C	0.263017	-1.005359	0.290015
H55	H	-0.388688	-0.985509	0.151865
H56	H	-0.067188	-1.237080	0.595311
N57	N	0.536744	-0.633111	0.000041
H58	H	0.542975	-0.671693	-0.061810
H59	H	0.609087	-0.582673	0.000079
N60	N	-0.448133	-1.246153	0.000186
H61	H	-0.544017	-1.243814	-0.000404
H62	H	-0.421810	-1.279343	-0.061345
H63	H	0.501096	-0.452680	0.000033
H64	H	0.333514	-0.955888	0.247272
H65	H	0.333504	-0.955940	0.752880
N66	N	0.442977	-0.879110	0.390927
H67	H	0.429838	-0.888328	0.316429
H68	H	0.428073	-0.815061	0.409289
N69	N	-0.248427	-1.158636	-0.174295
H70	H	-0.205487	-1.213474	-0.153334
H71	H	-0.326295	-1.178432	-0.216452
H72	H	-0.028255	-0.810640	0.000054
N73	N	-0.248790	-1.158594	0.174631
H74	H	-0.152750	-1.160092	0.174083
H75	H	-0.274577	-1.125844	0.236636
H76	H	0.381119	-0.321596	0.000052
H77	H	-0.388607	-0.985555	-0.151736
H78	H	0.019377	-1.176306	0.247250
N79	N	0.442962	-0.879124	0.609225
H80	H	0.429826	-0.888353	0.683722
H81	H	0.533476	-0.890119	0.590859
H82	H	0.019385	-1.176348	0.752851
N83	N	-0.178599	-0.694631	0.000062
H84	H	-0.159166	-0.759830	0.000052
H85	H	-0.229776	-0.682562	0.061920
N86	N	0.424349	-0.784180	0.000018
H87	H	0.496762	-0.733789	0.000012
H88	H	0.430467	-0.822765	0.061868
N89	N	-0.183855	-0.499136	0.000095
H90	H	-0.168016	-0.430903	0.000096
H91	H	-0.234152	-0.519939	-0.061754
H92	H	-0.040424	-0.357845	0.000085
N93	N	-0.090091	-1.253116	0.390887
H94	H	-0.075237	-1.317197	0.409146
H95	H	-0.180604	-1.242072	0.409198
N96	N	-0.198665	-0.886196	0.000143
H97	H	-0.223592	-0.853346	0.062341
H98	H	-0.102830	-0.888763	-0.000531
