data_functionalizedCrystal
_audit_creation_method	'MofGen! by Chris Wilmer'
_symmetry_space_group_name_H-M	'P1'
_symmetry_Int_Tables_number	1
_symmetry_cell_setting	triclinic
loop_
_symmetry_equiv_pos_as_xyz
  x,y,z
_cell_length_a	16.120530
_cell_length_b	16.120484
_cell_length_c	16.120297
_cell_angle_alpha	84.385569
_cell_angle_beta	89.871860
_cell_angle_gamma	90.167327
loop_
_atom_site_label
_atom_site_type_symbol
_atom_site_fract_x
_atom_site_fract_y
_atom_site_fract_z
Zn1	Zn	1.224987	-0.422264	0.554813
Zn2	Zn	1.724987	0.077736	1.054813
Zn3	Zn	1.224883	-0.554948	0.422118
Zn4	Zn	1.724883	-0.054948	0.922118
Zn5	Zn	1.093726	-0.408180	0.408056
Zn6	Zn	1.593726	0.091820	0.908056
Zn7	Zn	1.078880	-0.554181	0.554051
Zn8	Zn	1.578880	-0.054181	1.054051
O9	O	1.155619	-0.484893	0.484760
O10	O	1.655619	0.015107	0.984760
O11	O	1.341009	-0.446081	0.543415
O12	O	1.841009	0.053919	1.043415
O13	O	1.213654	-0.529906	0.303620
O14	O	1.713654	-0.029906	0.803620
O15	O	1.117395	-0.293418	0.421958
O16	O	1.617395	0.206582	0.921958
O17	O	1.340932	-0.543563	0.445925
O18	O	1.840932	-0.043563	0.945925
O19	O	1.213832	-0.303765	0.529780
O20	O	1.713832	0.196235	1.029780
O21	O	1.117294	-0.422076	0.293289
O22	O	1.617294	0.077924	0.793289
O23	O	0.975721	-0.421332	0.421218
O24	O	1.475721	0.078668	0.921218
O25	O	1.092092	-0.542255	0.670785
O26	O	1.592092	-0.042255	1.170785
O27	O	0.964814	-0.528598	0.528480
O28	O	1.464814	-0.028598	1.028480
O29	O	1.199436	-0.445336	0.671345
O30	O	1.699436	0.054664	1.171345
O31	O	1.199258	-0.671477	0.445185
O32	O	1.699258	-0.171477	0.945185
O33	O	1.091990	-0.670913	0.542116
O34	O	1.591990	-0.170913	1.042116
C35	C	0.940181	-0.473354	0.473241
C36	C	1.440181	0.026646	0.973241
C37	C	0.848013	-0.468438	0.468334
C38	C	1.348013	0.031562	0.968334
C39	C	0.679262	-0.459445	0.459381
C40	C	1.179262	0.040555	0.959381
C41	C	0.632810	-0.510407	0.510202
C42	C	1.132810	-0.010407	1.010202
C43	C	0.538911	-0.505403	0.505220
C44	C	1.038911	-0.005403	1.005220
C45	C	0.773169	-0.464448	0.464361
C46	C	1.273169	0.035552	0.964361
C47	C	1.144023	-0.701438	0.495113
C48	C	1.644023	-0.201438	0.995113
C49	C	1.139137	-0.794083	0.499574
C50	C	1.639137	-0.294083	0.999574
C51	C	1.130220	-0.963706	0.507736
C52	C	1.630220	-0.463706	1.007736
C53	C	1.181166	-1.005249	0.461804
C54	C	1.681166	-0.505249	0.961804
C55	C	1.176204	-1.099633	0.466346
C56	C	1.676204	-0.599633	0.966346
C57	C	1.135180	-0.869313	0.503196
C58	C	1.635180	-0.369313	1.003196
C59	C	1.371899	-0.496479	0.496324
C60	C	1.871899	0.003521	0.996324
C61	C	1.464064	-0.501416	0.501252
C62	C	1.964064	-0.001416	1.001252
C63	C	1.144119	-0.495281	0.702152
C64	C	1.644119	0.004719	1.202152
C65	C	1.139219	-0.499708	0.794791
C66	C	1.639219	0.000292	1.294791
C67	C	1.167282	-0.267505	0.474385
C68	C	1.667282	0.232495	0.974385
C69	C	1.172251	-0.174867	0.469964
C70	C	1.672251	0.325133	0.969964
C71	C	1.167125	-0.474489	0.268213
C72	C	1.667125	0.025511	0.768213
C73	C	1.172198	-0.469836	0.175571
C74	C	1.672198	0.030164	0.675571
C75	C	1.130243	-0.507770	0.964403
C76	C	1.630243	-0.007770	1.464403
C77	C	1.181172	-0.461776	1.005965
C78	C	1.681172	0.038224	1.505965
C79	C	1.176177	-0.466262	1.100342
C80	C	1.676177	0.033738	1.600342
C81	C	1.135236	-0.503285	0.870017
C82	C	1.635236	-0.003285	1.370017
H83	H	0.663563	-0.557794	0.557453
H84	H	1.163563	-0.057794	1.057453
H85	H	1.228508	-0.969931	0.419069
H86	H	1.728508	-0.469931	0.919069
Br87	Br	0.628008	-0.380465	0.380632
Br88	Br	1.128008	0.119535	0.880632
Br89	Br	1.051316	-1.022568	0.578960
Br90	Br	1.551316	-0.522568	1.078960
Br91	Br	1.260116	-0.390551	0.947141
Br92	Br	1.760116	0.109449	1.447141
Br93	Br	1.051324	-0.579012	1.023231
Br94	Br	1.551324	-0.079012	1.523231
