data_functionalizedCrystal
_audit_creation_method	'MofGen! by Chris Wilmer'
_symmetry_space_group_name_H-M	'P1'
_symmetry_Int_Tables_number	1
_symmetry_cell_setting	triclinic
loop_
_symmetry_equiv_pos_as_xyz
  x,y,z
_cell_length_a	10.489746
_cell_length_b	8.140239
_cell_length_c	9.065218
_cell_angle_alpha	89.996474
_cell_angle_beta	84.778593
_cell_angle_gamma	90.002531
loop_
_atom_site_label
_atom_site_type_symbol
_atom_site_fract_x
_atom_site_fract_y
_atom_site_fract_z
O1	O	-1.694794	0.136496	-0.208206
O2	O	-1.323670	0.136523	-0.227738
O3	O	-1.516903	0.136505	-0.003293
O4	O	-1.501561	0.136513	-0.432651
O5	O	-1.516901	-0.136722	-0.003281
O6	O	-1.323668	-0.136705	-0.227726
O7	O	-1.694793	-0.136731	-0.208195
Zn8	Zn	-1.509230	-0.180099	-0.217959
Zn9	Zn	-1.509232	0.179890	-0.217974
O10	O	-1.501559	-0.136714	-0.432640
C11	C	-1.276132	-0.000088	-0.226255
C12	C	-1.134487	-0.000077	-0.221837
C13	C	-1.515428	-0.000106	0.051693
C14	C	-1.511019	-0.000097	0.215514
C15	C	-1.742330	-0.000118	-0.209677
C16	C	-1.883975	-0.000117	-0.214096
C17	C	-0.981104	-0.000103	-0.076414
C18	C	-1.058760	-0.134812	-0.149114
C19	C	-1.058717	0.134568	-0.149159
C20	C	-0.959765	-0.134938	-0.286739
C21	C	-0.959717	0.134564	-0.286764
C22	C	-1.037324	-0.000178	-0.359565
N23	N	-1.509234	0.425572	-0.217973
N24	N	-1.509238	-0.425781	-0.217947
C25	C	-1.503035	-0.000100	-0.487625
C26	C	-1.507443	-0.000097	-0.651447
H27	H	-1.102026	-0.248705	-0.090987
H28	H	-0.916695	-0.248956	-0.344816
O29	O	-1.110076	0.270567	-0.079810
C30	C	-1.011749	0.365101	-0.025772
H31	H	-0.916805	0.335202	-0.091649
H32	H	-1.004903	0.335332	0.096141
C33	C	-1.158458	0.585693	0.038470
C34	C	-1.041847	0.548980	-0.042450
H35	H	-1.177025	0.699118	0.028189
H36	H	-1.224705	0.522002	0.002069
H37	H	-1.152738	0.560873	0.140057
H38	H	-1.047574	0.573781	-0.144037
H39	H	-0.975602	0.612680	-0.006066
O40	O	-0.951032	0.000040	0.066385
C41	C	-0.879693	0.142217	0.092538
H42	H	-0.900153	0.241185	0.008896
H43	H	-0.773235	0.111415	0.080405
C44	C	-0.892805	0.083887	0.353212
C45	C	-0.917943	0.205446	0.250489
H46	H	-0.916394	0.122887	0.450646
H47	H	-0.940864	-0.011904	0.335593
H48	H	-0.804090	0.058230	0.343083
H49	H	-1.006659	0.231086	0.260607
H50	H	-0.869900	0.301243	0.268114
O51	O	-1.067212	-0.000475	-0.502431
C52	C	-1.140292	-0.141335	-0.527901
H53	H	-1.188932	-0.187720	-0.418193
H54	H	-1.074928	-0.241235	-0.580544
C55	C	-1.182971	-0.040625	-0.767555
C56	C	-1.242721	-0.097588	-0.632811
H57	H	-1.246151	-0.013644	-0.832273
H58	H	-1.133732	0.054273	-0.750399
H59	H	-1.128503	-0.123885	-0.811405
H60	H	-1.297174	-0.014322	-0.588955
H61	H	-1.291972	-0.192471	-0.649962
O62	O	-0.908141	0.270604	-0.355836
C63	C	-0.958800	0.412369	-0.282858
H64	H	-0.994752	0.380093	-0.163928
H65	H	-1.041604	0.461527	-0.343147
C66	C	-0.809556	0.584062	-0.428427
C67	C	-0.853704	0.544422	-0.282352
H68	H	-0.744732	0.665523	-0.428120
H69	H	-0.775429	0.488553	-0.477598
H70	H	-0.878571	0.625018	-0.478652
H71	H	-0.784694	0.503449	-0.232136
H72	H	-0.887818	0.639928	-0.233172
