data_functionalizedCrystal
_audit_creation_method	'MofGen! by Chris Wilmer'
_symmetry_space_group_name_H-M	'P1'
_symmetry_Int_Tables_number	1
_symmetry_cell_setting	triclinic
loop_
_symmetry_equiv_pos_as_xyz
  x,y,z
_cell_length_a	10.654562
_cell_length_b	11.026607
_cell_length_c	9.730223
_cell_angle_alpha	89.999947
_cell_angle_beta	89.996961
_cell_angle_gamma	96.538060
loop_
_atom_site_label
_atom_site_type_symbol
_atom_site_fract_x
_atom_site_fract_y
_atom_site_fract_z
O1	O	1.704908	0.170837	-0.114378
O2	O	2.204908	0.670837	0.385622
O3	O	1.342960	0.187091	-0.114361
O4	O	1.842960	0.687091	0.385639
O5	O	1.493936	0.002057	-0.114363
O6	O	1.993936	0.502057	0.385637
O7	O	1.553932	0.355871	-0.114376
O8	O	2.053932	0.855871	0.385624
O9	O	1.493935	0.002062	0.114217
O10	O	1.993935	0.502062	0.614217
O11	O	1.342959	0.187096	0.114219
O12	O	1.842959	0.687096	0.614219
O13	O	1.704907	0.170842	0.114202
O14	O	2.204907	0.670842	0.614202
Zn15	Zn	1.523933	0.178970	0.150502
Zn16	Zn	2.023933	0.678970	0.650502
Zn17	Zn	1.523934	0.178963	-0.150662
Zn18	Zn	2.023934	0.678963	0.349338
O19	O	1.553931	0.355876	0.114204
O20	O	2.053931	0.855876	0.614204
C21	C	1.295902	0.185897	-0.000069
C22	C	1.795902	0.685897	0.499931
C23	C	1.155682	0.182316	-0.000062
C24	C	1.655682	0.682316	0.499938
C25	C	1.089788	0.180649	0.124526
C26	C	1.589788	0.680649	0.624526
C27	C	0.958038	0.177295	0.124503
C28	C	1.458038	0.677295	0.624503
C29	C	0.958087	0.177280	-0.124707
C30	C	1.458087	0.677280	0.375293
C31	C	1.089834	0.180626	-0.124683
C32	C	1.589834	0.680626	0.375317
C33	C	1.089759	0.180662	0.268406
C34	C	1.589759	0.680662	0.768406
C35	C	0.958009	0.177308	0.268383
C36	C	1.458009	0.677308	0.768383
C37	C	1.482867	-0.043245	-0.000074
C38	C	1.982867	0.456755	0.499926
C39	C	1.449873	-0.178238	-0.000078
C40	C	1.949873	0.321762	0.499922
C41	C	1.540976	-0.251273	-0.000084
C42	C	2.040976	0.248727	0.499916
C43	C	1.506877	-0.390796	-0.000087
C44	C	2.006877	0.109204	0.499913
C45	C	1.751965	0.172036	-0.000094
C46	C	2.251965	0.672036	0.499906
C47	C	1.892185	0.175617	-0.000109
C48	C	2.392185	0.675617	0.499891
C49	C	1.564999	0.401178	-0.000088
C50	C	2.064999	0.901178	0.499912
C51	C	1.597994	0.536171	-0.000094
C52	C	2.097994	1.036171	0.499906
N53	N	1.523941	0.178973	0.356039
N54	N	2.023941	0.678973	0.856039
N55	N	1.523934	0.178950	-0.356198
N56	N	2.023934	0.678950	0.143802
C57	C	1.590821	0.097068	0.427964
C58	C	2.090821	0.597068	0.927964
C59	C	1.590814	0.097053	0.571847
C60	C	2.090814	0.597053	1.071847
C61	C	1.457045	0.260859	0.571867
C62	C	1.957045	0.760859	1.071867
C63	C	1.457045	0.260867	0.427987
C64	C	1.957045	0.760867	0.927987
C65	C	1.668056	0.002500	0.427953
C66	C	2.168056	0.502500	0.927953
C67	C	1.668049	0.002485	0.571836
C68	C	2.168049	0.502485	1.071836
H69	H	0.904458	0.175904	-0.226169
H70	H	1.404458	0.675904	0.273831
Cl71	Cl	0.882610	0.040533	0.337612
Cl72	Cl	1.382610	0.540533	0.837612
H73	H	0.929962	0.261336	0.323616
H74	H	1.429962	0.761336	0.823616
Cl75	Cl	1.824032	0.034643	0.632130
Cl76	Cl	2.324032	0.534643	1.132130
Cl77	Cl	1.133031	0.050943	0.353715
Cl78	Cl	1.633031	0.550943	0.853715
Cl79	Cl	1.591335	-0.133853	0.640739
Cl80	Cl	2.091335	0.366147	1.140739
Cl81	Cl	1.700379	-0.188346	-0.000100
Cl82	Cl	2.200379	0.311654	0.499900
H83	H	1.143479	0.181965	-0.226135
H84	H	1.643479	0.681965	0.273865
H85	H	1.403628	-0.431555	-0.000091
H86	H	1.903628	0.068445	0.499909
Cl87	Cl	1.290470	-0.241165	-0.000084
Cl88	Cl	1.790470	0.258835	0.499916
H89	H	1.701243	-0.423071	-0.000202
H90	H	2.201243	0.076929	0.499798
Cl91	Cl	1.165147	0.317564	0.337327
Cl92	Cl	1.665147	0.817564	0.837327
H93	H	1.402573	0.327550	0.369426
H94	H	1.902573	0.827550	0.869426
Cl95	Cl	1.372953	0.363806	0.662324
Cl96	Cl	1.872953	0.863806	1.162324
Cl97	Cl	1.603631	-0.141779	0.367653
Cl98	Cl	2.103631	0.358221	0.867653
H99	H	1.765668	0.032116	0.383322
H100	H	2.265668	0.532116	0.883322
