data_functionalizedCrystal
_audit_creation_method	'MofGen! by Chris Wilmer'
_symmetry_space_group_name_H-M	'P1'
_symmetry_Int_Tables_number	1
_symmetry_cell_setting	triclinic
loop_
_symmetry_equiv_pos_as_xyz
  x,y,z
_cell_length_a	12.827893
_cell_length_b	12.827892
_cell_length_c	18.215399
_cell_angle_alpha	90.024028
_cell_angle_beta	90.017704
_cell_angle_gamma	90.015172
loop_
_atom_site_label
_atom_site_type_symbol
_atom_site_fract_x
_atom_site_fract_y
_atom_site_fract_z
Zn1	Zn	1.597655	-0.416045	0.416094
Zn2	Zn	1.930988	-0.082711	0.749427
Zn3	Zn	2.264321	0.250622	1.082761
Zn4	Zn	1.597554	-0.590804	0.293036
Zn5	Zn	1.930888	-0.257470	0.626370
Zn6	Zn	2.264221	0.075863	0.959703
Zn7	Zn	1.422901	-0.416077	0.293046
Zn8	Zn	1.756234	-0.082744	0.626379
Zn9	Zn	2.089568	0.250589	0.959713
Zn10	Zn	1.422882	-0.590744	0.416066
Zn11	Zn	1.756215	-0.257411	0.749399
Zn12	Zn	2.089549	0.075922	1.082732
O13	O	1.510248	-0.503417	0.354561
O14	O	1.843581	-0.170084	0.687894
O15	O	2.176915	0.163249	1.021227
O16	O	1.743877	-0.439238	0.399778
O17	O	2.077211	-0.105905	0.733111
O18	O	2.410544	0.227429	1.066445
O19	O	1.574352	-0.567665	0.190053
O20	O	1.907685	-0.234331	0.523387
O21	O	2.241019	0.099002	0.856720
O22	O	1.446132	-0.269837	0.309385
O23	O	1.779466	0.063496	0.642718
O24	O	2.112799	0.396830	0.976051
O25	O	1.743804	-0.567633	0.309368
O26	O	2.077137	-0.234300	0.642701
O27	O	2.410470	0.099034	0.976035
O28	O	1.574523	-0.269813	0.399788
O29	O	1.907857	0.063520	0.733121
O30	O	2.241190	0.396854	1.066454
O31	O	1.446035	-0.439294	0.190060
O32	O	1.779368	-0.105960	0.523394
O33	O	2.112702	0.227373	0.856727
O34	O	1.276662	-0.439236	0.309357
O35	O	1.609996	-0.105903	0.642690
O36	O	1.943329	0.227431	0.976024
O37	O	1.446100	-0.567531	0.519054
O38	O	1.779434	-0.234198	0.852387
O39	O	2.112767	0.099135	1.185720
O40	O	1.276649	-0.567563	0.399739
O41	O	1.609982	-0.234230	0.733072
O42	O	1.943315	0.099104	1.066406
O43	O	1.574505	-0.439180	0.519075
O44	O	1.907838	-0.105847	0.852408
O45	O	2.241172	0.227486	1.185741
O46	O	1.574334	-0.737032	0.309340
O47	O	1.907667	-0.403699	0.642674
O48	O	2.241000	-0.070365	0.976007
O49	O	1.446003	-0.736988	0.399730
O50	O	1.779336	-0.403655	0.733063
O51	O	2.112669	-0.070321	1.066396
C52	C	1.238738	-0.503397	0.354547
C53	C	1.572071	-0.170064	0.687880
C54	C	1.905405	0.163269	1.021213
C55	C	1.122585	-0.503414	0.354558
C56	C	1.455918	-0.170081	0.687891
C57	C	1.789252	0.163253	1.021225
C58	C	1.510184	-0.774927	0.354547
C59	C	1.843517	-0.441594	0.687880
C60	C	2.176850	-0.108261	1.021214
C61	C	1.510252	-0.891081	0.354566
C62	C	1.843585	-0.557747	0.687899
C63	C	2.176918	-0.224414	1.021232
C64	C	1.070821	-0.567013	0.399213
C65	C	1.404154	-0.233680	0.732546
C66	C	1.737488	0.099653	1.065880
C67	C	0.950771	-0.567032	0.399226
C68	C	1.284104	-0.233699	0.732559
C69	C	1.617437	0.099635	1.065892
C70	C	1.446735	-0.942878	0.399260
C71	C	1.780068	-0.609545	0.732594
C72	C	2.113401	-0.276211	1.065927
C73	C	1.446803	-1.062928	0.399281
C74	C	1.780137	-0.729595	0.732614
C75	C	2.113470	-0.396262	1.065947
C76	C	1.782818	-0.503438	0.354575
C77	C	2.116151	-0.170105	0.687908
C78	C	2.449485	0.163228	1.021242
C79	C	1.898971	-0.503447	0.354581
C80	C	2.232305	-0.170114	0.687915
C81	C	2.565638	0.163219	1.021248
C82	C	1.510312	-0.503345	0.546514
C83	C	1.843645	-0.170012	0.879847
C84	C	2.176978	0.163321	1.213180
C85	C	1.510339	-0.503315	0.628312
C86	C	1.843672	-0.169981	0.961646
C87	C	2.177005	0.163352	1.294979
C88	C	1.510341	-0.230847	0.354590
C89	C	1.843675	0.102486	0.687924
C90	C	2.177008	0.435819	1.021257
C91	C	1.510381	-0.114694	0.354603
C92	C	1.843714	0.218639	0.687936
C93	C	2.177048	0.551972	1.021270
C94	C	1.510245	-0.503414	0.163354
C95	C	1.843578	-0.170081	0.496688
C96	C	2.176911	0.163253	0.830021
C97	C	1.510420	-0.503150	0.081556
C98	C	1.843753	-0.169817	0.414889
C99	C	2.177087	0.163517	0.748222
C100	C	1.577223	-0.436420	0.816519
C101	C	1.910557	-0.103087	1.149852
C102	C	2.243890	0.230247	1.483185
C103	C	1.577236	-0.436389	0.893377
C104	C	1.910569	-0.103056	1.226711
C105	C	2.243902	0.230277	1.560044
C106	C	1.443528	-0.570048	0.893344
C107	C	1.776862	-0.236715	1.226678
C108	C	2.110195	0.096619	1.560011
C109	C	1.443511	-0.570072	0.816487
C110	C	1.776845	-0.236739	1.149820
C111	C	2.110178	0.096594	1.483154
C112	C	1.510365	-0.503260	0.778076
C113	C	1.843698	-0.169927	1.111409
C114	C	2.177031	0.163407	1.444743
C115	C	1.510394	-0.503205	0.931792
C116	C	1.843727	-0.169872	1.265126
C117	C	2.177061	0.163462	1.598459
C118	C	1.510407	-0.503173	1.015126
C119	C	1.843741	-0.169839	1.348459
C120	C	2.177074	0.163494	1.681793
C121	C	1.510351	-0.503291	0.694737
C122	C	1.843684	-0.169957	1.028070
C123	C	2.177017	0.163376	1.361404
H124	H	1.115381	-0.621446	0.437437
H125	H	1.448714	-0.288112	0.770770
H126	H	1.782047	0.045221	1.104103
H127	H	1.564679	-0.935611	0.316314
H128	H	1.898012	-0.602278	0.649647
H129	H	2.231346	-0.268945	0.982981
H130	H	1.392428	-1.107473	0.437548
H131	H	1.725762	-0.774140	0.770882
H132	H	2.059095	-0.440806	1.104215
Cl133	Cl	1.362694	-0.874135	0.458318
Cl134	Cl	1.696027	-0.540801	0.791651
Cl135	Cl	2.029360	-0.207468	1.124984
Cl136	Cl	1.661300	-0.352367	0.941702
Cl137	Cl	1.994633	-0.019034	1.275035
Cl138	Cl	2.327966	0.314300	1.608369
Cl139	Cl	1.661263	-0.352423	0.768233
Cl140	Cl	1.994596	-0.019090	1.101566
Cl141	Cl	2.327930	0.314244	1.434900
H142	H	1.389060	-0.624501	0.785186
H143	H	1.722393	-0.291167	1.118520
H144	H	2.055726	0.042166	1.451853
Cl145	Cl	1.594351	-1.045933	0.295524
Cl146	Cl	1.927685	-0.712600	0.628857
Cl147	Cl	2.261018	-0.379267	0.962191
Cl148	Cl	1.359495	-0.654042	0.941638
Cl149	Cl	1.692828	-0.320708	1.274971
Cl150	Cl	2.026161	0.012625	1.608304
H151	H	0.906255	-0.621485	0.437454
H152	H	1.239588	-0.288151	0.770788
H153	H	1.572921	0.045182	1.104121
H154	H	1.078025	-0.448974	0.316340
H155	H	1.411359	-0.115640	0.649673
H156	H	1.744692	0.217693	0.983007
Cl157	Cl	0.967688	-0.419379	0.295547
Cl158	Cl	1.301021	-0.086046	0.628880
Cl159	Cl	1.634354	0.247287	0.962213
