data_functionalizedCrystal
_audit_creation_method	'MofGen! by Chris Wilmer'
_symmetry_space_group_name_H-M	'P1'
_symmetry_Int_Tables_number	1
_symmetry_cell_setting	triclinic
loop_
_symmetry_equiv_pos_as_xyz
  x,y,z
_cell_length_a	10.723024
_cell_length_b	17.038272
_cell_length_c	9.798715
_cell_angle_alpha	89.996584
_cell_angle_beta	89.996609
_cell_angle_gamma	87.789713
loop_
_atom_site_label
_atom_site_type_symbol
_atom_site_fract_x
_atom_site_fract_y
_atom_site_fract_z
O1	O	1.667337	0.109720	-0.113484
O2	O	1.305156	0.120222	-0.113489
O3	O	1.484094	0.001144	-0.113475
O4	O	1.488399	0.228799	-0.113497
O5	O	1.484079	0.001144	0.113507
O6	O	1.305141	0.120222	0.113494
O7	O	1.667322	0.109720	0.113498
Zn8	Zn	1.486230	0.114971	0.149534
Zn9	Zn	1.486248	0.114971	-0.149525
O10	O	1.488384	0.228798	0.113485
C11	C	1.258578	0.119458	0.000002
C12	C	1.119813	0.117171	0.000000
C13	C	1.050993	0.183801	-0.000007
C14	C	0.907571	0.181440	-0.000008
C15	C	1.480171	-0.028006	0.000015
C16	C	1.468489	-0.114864	0.000015
C17	C	1.575744	-0.164385	0.000018
C18	C	1.564760	-0.245996	0.000005
C19	C	1.446520	-0.278084	-0.000002
C20	C	1.339256	-0.228557	-0.000009
C21	C	1.350241	-0.146947	-0.000005
C22	C	1.407711	-0.524057	-0.000021
C23	C	1.396734	-0.605673	-0.000020
C24	C	1.622239	-0.623107	-0.000009
C25	C	1.633214	-0.541495	0.000002
C26	C	1.525950	-0.491974	-0.000012
C27	C	1.435289	-0.361504	-0.000011
C28	C	1.537182	-0.408556	-0.000013
C29	C	1.713900	0.110484	0.000005
C30	C	1.852666	0.112771	-0.000003
C31	C	1.492307	0.257948	-0.000009
C32	C	1.503989	0.344806	-0.000017
N33	N	1.486226	0.114970	0.353634
N34	N	1.486261	0.114966	-0.353624
C35	C	1.561337	0.064752	0.421416
C36	C	1.561356	0.064749	0.578579
H37	H	0.911814	0.055727	-0.000005
H38	H	1.625623	0.021757	0.363099
H39	H	1.242982	-0.254689	-0.000022
H40	H	1.262902	-0.106627	-0.000008
H41	H	0.848415	0.238480	-0.000020
H42	H	1.421930	0.157959	0.411954
O43	O	1.409714	0.166297	0.576706
C44	C	1.481981	0.214782	0.494064
H45	H	1.576262	0.184010	0.472779
H46	H	1.431301	0.226896	0.393537
H47	H	1.496816	0.272644	0.549046
H48	H	1.729498	-0.515375	0.000007
O49	O	1.638009	0.013347	0.647960
C50	C	1.609149	-0.064171	0.613182
H51	H	1.561102	-0.064320	0.509410
H52	H	1.698752	-0.102319	0.608426
H53	H	1.544261	-0.088557	0.693586
O54	O	1.063586	0.046980	-0.000177
C55	C	1.099792	0.004180	-0.117748
H56	H	1.192430	0.025906	-0.156942
H57	H	1.110812	-0.060876	-0.091305
H58	H	1.025415	0.012901	-0.200065
H59	H	1.652100	-0.286314	0.000010
O60	O	1.107562	0.253878	-0.000067
C61	C	1.238169	0.240635	-0.000024
H62	H	1.262145	0.179734	-0.042994
H63	H	1.283154	0.286878	-0.065920
H64	H	1.274820	0.244586	0.108874
O65	O	1.726300	-0.671323	-0.000068
C66	C	1.691258	-0.750235	-0.000039
H67	H	1.592860	-0.753888	-0.043010
H68	H	1.759095	-0.786815	-0.065941
H69	H	1.693483	-0.773814	0.108855
H70	H	1.300443	-0.631796	-0.000003
O71	O	1.690700	-0.133347	-0.000040
C72	C	1.783009	-0.194560	-0.000011
H73	H	1.742123	-0.250176	-0.042982
H74	H	1.865042	-0.177078	-0.065913
H75	H	1.816507	-0.205925	0.108882
H76	H	1.320369	-0.483747	-0.000032
O77	O	1.652064	-0.377426	-0.000250
C78	C	1.718003	-0.402679	-0.117783
H79	H	1.649027	-0.420016	-0.199954
H80	H	1.776365	-0.352958	-0.157238
H81	H	1.781938	-0.455482	-0.091199
H82	H	1.339017	-0.387640	-0.000013
