data_functionalizedCrystal
_audit_creation_method	'MofGen! by Chris Wilmer'
_symmetry_space_group_name_H-M	'P1'
_symmetry_Int_Tables_number	1
_symmetry_cell_setting	triclinic
loop_
_symmetry_equiv_pos_as_xyz
  x,y,z
_cell_length_a	12.837943
_cell_length_b	15.538191
_cell_length_c	11.892095
_cell_angle_alpha	92.341637
_cell_angle_beta	85.689438
_cell_angle_gamma	71.050517
loop_
_atom_site_label
_atom_site_type_symbol
_atom_site_fract_x
_atom_site_fract_y
_atom_site_fract_z
O1	O	1.294921	0.231640	-0.093963
O2	O	0.997519	0.219937	-0.093971
O3	O	1.204112	0.093855	-0.093971
O4	O	1.088328	0.357722	-0.093963
O5	O	1.186894	0.104350	0.094036
O6	O	0.980301	0.230432	0.094036
O7	O	1.277702	0.242134	0.094044
Zn8	Zn	1.126268	0.237949	0.123891
Zn9	Zn	1.148954	0.224122	-0.123817
O10	O	1.071109	0.368216	0.094044
C11	C	0.951777	0.221231	0.000032
C12	C	0.841136	0.209441	0.000028
C13	C	0.546845	0.351179	0.000049
C14	C	0.442886	0.340105	0.000046
C15	C	0.529256	0.176222	0.000029
C16	C	0.633215	0.187295	0.000032
C17	C	0.642004	0.274777	0.000040
C18	C	0.745967	0.285849	0.000034
C19	C	0.832333	0.121967	0.000025
C20	C	0.728374	0.110893	0.000023
C21	C	1.207617	0.065094	0.000029
C22	C	1.243702	-0.036241	0.000019
C23	C	0.885218	-0.356209	0.000034
C24	C	0.919150	-0.451429	0.000037
C25	C	1.110005	-0.456740	0.000042
C26	C	1.076091	-0.361519	0.000033
C27	C	0.963696	-0.311261	0.000030
C28	C	1.154568	-0.316570	0.000029
C29	C	1.120655	-0.221357	0.000026
C30	C	1.008265	-0.171093	0.000027
C31	C	0.929783	-0.216048	0.000027
C32	C	1.266962	-0.366830	0.000040
C33	C	1.345439	-0.321881	0.000036
C34	C	1.311528	-0.226667	0.000025
C35	C	1.199137	-0.176402	0.000026
C36	C	1.390010	-0.181712	0.000025
C37	C	1.356097	-0.086499	0.000022
C38	C	1.165225	-0.081189	0.000023
C39	C	1.323445	0.240840	0.000039
C40	C	1.434086	0.252630	0.000035
C41	C	1.067604	0.396977	0.000041
C42	C	1.031520	0.498312	0.000044
N43	N	1.110792	0.247386	0.292945
N44	N	1.164440	0.214679	-0.292872
C45	C	1.272143	0.148962	0.529592
C46	C	1.261331	0.155566	0.647934
C47	C	1.078353	0.267191	0.647972
C48	C	1.089166	0.260587	0.529631
C49	C	1.186064	0.201472	0.470445
C50	C	1.196879	0.194874	0.352101
C51	C	1.013899	0.306494	0.352141
C52	C	1.003087	0.313097	0.470483
H53	H	0.909827	0.059754	0.000010
H54	H	0.522070	0.105004	0.000116
H55	H	1.436951	-0.362814	0.000043
Cl56	Cl	0.881276	0.387408	0.544896
H57	H	1.294571	-0.444359	0.000032
Cl58	Cl	1.393962	0.074658	0.455186
Cl59	Cl	0.717311	0.000923	0.000016
Cl60	Cl	0.557902	0.461151	0.000043
H61	H	0.365407	0.402321	0.000057
H62	H	1.073702	-0.040267	0.000012
Cl63	Cl	0.956538	0.341492	0.722389
H64	H	1.331424	0.112806	0.696089
Cl65	Cl	0.757016	0.395823	0.000041
H66	H	0.943810	0.349254	0.303969
H67	H	0.980655	-0.093564	0.000031
H68	H	0.793696	-0.315287	0.000023
Cl69	Cl	0.788485	-0.152860	0.000012
H70	H	0.855234	-0.488021	0.000057
Cl71	Cl	1.531298	-0.244903	0.000050
H72	H	1.201517	-0.497672	0.000048
H73	H	1.275780	0.146742	0.303913
Cl74	Cl	1.454753	-0.029987	0.000038
