data_functionalizedCrystal
_audit_creation_method	'MofGen! by Chris Wilmer'
_symmetry_space_group_name_H-M	'P1'
_symmetry_Int_Tables_number	1
_symmetry_cell_setting	triclinic
loop_
_symmetry_equiv_pos_as_xyz
  x,y,z
_cell_length_a	10.723024
_cell_length_b	19.188930
_cell_length_c	9.798715
_cell_angle_alpha	89.991738
_cell_angle_beta	89.996609
_cell_angle_gamma	83.806325
loop_
_atom_site_label
_atom_site_type_symbol
_atom_site_fract_x
_atom_site_fract_y
_atom_site_fract_z
O1	O	1.655155	0.097922	-0.113499
O2	O	2.155155	0.597922	0.386501
O3	O	1.291808	0.107295	-0.113506
O4	O	1.791808	0.607295	0.386494
O5	O	1.483967	0.001021	-0.113476
O6	O	1.983967	0.501021	0.386524
O7	O	1.462996	0.204196	-0.113529
O8	O	1.962996	0.704196	0.386471
O9	O	1.483952	0.001021	0.113507
O10	O	1.983952	0.501021	0.613507
O11	O	1.291793	0.107295	0.113477
O12	O	1.791793	0.607295	0.613477
O13	O	1.655140	0.097922	0.113483
O14	O	2.155140	0.597922	0.613483
Zn15	Zn	1.473465	0.102608	0.149518
Zn16	Zn	1.973465	0.602608	0.649518
Zn17	Zn	1.473483	0.102609	-0.149541
Zn18	Zn	1.973483	0.602609	0.350459
O19	O	1.462982	0.204196	0.113453
O20	O	1.962982	0.704196	0.613453
C21	C	1.245315	0.106613	-0.000015
C22	C	1.745315	0.606613	0.499985
C23	C	1.106803	0.104572	-0.000016
C24	C	1.606803	0.604572	0.499984
C25	C	1.483280	-0.024995	0.000019
C26	C	1.983280	0.475005	0.500019
C27	C	1.481242	-0.102512	0.000031
C28	C	1.981242	0.397488	0.500031
C29	C	1.030586	0.164037	-0.000033
C30	C	1.530586	0.664037	0.499967
C31	C	0.887427	0.161930	-0.000034
C32	C	1.387427	0.661930	0.499966
C33	C	1.593994	-0.146704	0.000040
C34	C	2.093994	0.353296	0.500040
C35	C	1.592079	-0.219540	0.000018
C36	C	2.092079	0.280460	0.500018
C37	C	1.477405	-0.248182	0.000015
C38	C	1.977405	0.251818	0.500015
C39	C	1.364638	-0.203981	-0.000001
C40	C	1.864638	0.296019	0.499999
C41	C	1.366556	-0.131146	0.000007
C42	C	1.866556	0.368854	0.500007
N43	N	1.389745	-0.356756	0.077260
N44	N	1.889745	0.143244	0.577260
N45	N	1.387931	-0.425947	0.077255
N46	N	1.887931	0.074053	0.577255
C47	C	1.471618	-0.467628	-0.000013
C48	C	1.971618	0.032372	0.499987
N49	N	1.557208	-0.437506	-0.077259
N50	N	2.057208	0.062494	0.422741
N51	N	1.559026	-0.368310	-0.077248
N52	N	2.059026	0.131690	0.422752
C53	C	1.475312	-0.327158	0.000005
C54	C	1.975312	0.172842	0.500005
C55	C	1.582302	-0.590797	-0.000030
C56	C	2.082302	-0.090797	0.499970
C57	C	1.580382	-0.663634	-0.000061
C58	C	2.080382	-0.163634	0.499939
C59	C	1.352937	-0.648073	-0.000066
C60	C	1.852937	-0.148073	0.499934
C61	C	1.354860	-0.575238	-0.000049
C62	C	1.854860	-0.075238	0.499951
C63	C	1.469546	-0.546604	-0.000025
C64	C	1.969546	-0.046604	0.499975
C65	C	1.701633	0.098604	-0.000011
C66	C	2.201633	0.598604	0.499989
C67	C	1.840145	0.100645	-0.000019
C68	C	2.340145	0.600645	0.499981
C69	C	1.463668	0.230211	-0.000045
C70	C	1.963668	0.730211	0.499955
C71	C	1.465706	0.307729	-0.000066
C72	C	1.965706	0.807729	0.499934
N73	N	1.473461	0.102608	0.353618
N74	N	1.973461	0.602608	0.853618
N75	N	1.473497	0.102604	-0.353640
N76	N	1.973497	0.602604	0.146360
C77	C	1.554147	0.057789	0.421407
C78	C	2.054147	0.557789	0.921407
C79	C	1.554167	0.057787	0.578570
C80	C	2.054167	0.557787	1.078570
H81	H	1.071319	0.216508	-0.000039
H82	H	1.571319	0.716508	0.499961
H83	H	0.821937	0.212836	-0.000054
H84	H	1.321937	0.712836	0.499946
F85	F	1.716054	-0.116234	0.000036
F86	F	2.216054	0.383766	0.500036
F87	F	0.925733	0.034100	-0.000010
F88	F	1.425733	0.534100	0.499990
H89	H	1.404392	0.140974	0.411931
H90	H	1.904392	0.640974	0.911931
F91	F	1.704358	-0.560320	0.000002
F92	F	2.204358	-0.060320	0.500002
H93	H	1.274736	-0.095165	0.000000
H94	H	1.774736	0.404835	0.500000
H95	H	1.683899	-0.255527	0.000019
H96	H	2.183899	0.244473	0.500019
H97	H	1.066070	0.052101	-0.000037
H98	H	1.566070	0.552101	0.499963
H99	H	1.672202	-0.699615	-0.000061
H100	H	2.172202	-0.199615	0.499939
F101	F	1.242593	-0.234464	-0.000014
F102	F	1.742593	0.265536	0.499986
H103	H	1.259567	-0.671393	-0.000075
H104	H	1.759567	-0.171393	0.499925
H105	H	1.263044	-0.539256	-0.000049
H106	H	1.763044	-0.039256	0.499951
H107	H	1.623208	0.019418	0.363095
H108	H	2.123208	0.519418	0.863095
H109	H	1.623251	0.019419	0.636866
H110	H	2.123251	0.519419	1.136866
H111	H	1.404419	0.140979	0.588072
H112	H	1.904419	0.640979	1.088072
