data_functionalizedCrystal
_audit_creation_method	'MofGen! by Chris Wilmer'
_symmetry_space_group_name_H-M	'P1'
_symmetry_Int_Tables_number	1
_symmetry_cell_setting	triclinic
loop_
_symmetry_equiv_pos_as_xyz
  x,y,z
_cell_length_a	6.817900
_cell_length_b	11.102188
_cell_length_c	17.078481
_cell_angle_alpha	95.112096
_cell_angle_beta	99.306161
_cell_angle_gamma	108.603875
loop_
_atom_site_label
_atom_site_type_symbol
_atom_site_fract_x
_atom_site_fract_y
_atom_site_fract_z
V1	V	-4.005691	-0.175542	-0.247362
O2	O	-3.966748	0.008741	-0.242653
O3	O	-3.983182	-0.348364	-0.245670
O4	O	-3.936316	-0.172708	-0.355245
O5	O	-4.013939	-0.168131	-0.132320
V6	V	-4.488682	-0.153516	-0.233602
O7	O	-4.268116	-0.223859	-0.277545
O8	O	-4.676453	-0.105199	-0.203418
O9	O	-4.287984	0.019306	-0.235293
O10	O	-4.645021	-0.337799	-0.238311
O11	O	-4.597830	-0.160926	-0.348644
O12	O	-4.334850	-0.156350	-0.125719
C13	C	-3.835160	-0.390499	-0.241768
C14	C	-3.897904	-0.531782	-0.241104
C15	C	-3.898296	-0.580095	-0.168139
C16	C	-3.957273	-0.712847	-0.167518
C17	C	-4.015455	-0.748963	-0.312833
C18	C	-3.956493	-0.616213	-0.313453
C19	C	-3.775377	-0.166430	-0.381540
C20	C	-3.800110	-0.165256	-0.469735
C21	C	-3.994012	-0.171049	-0.515211
C22	C	-4.017239	-0.169946	-0.598079
C23	C	-3.846566	-0.163058	-0.635471
C24	C	-3.652646	-0.157261	-0.589988
C25	C	-3.629417	-0.158356	-0.507121
C26	C	-3.896488	-0.159096	-0.882874
C27	C	-3.919735	-0.158006	-0.965748
C28	C	-4.284326	-0.170688	-0.973832
C29	C	-4.261083	-0.171790	-0.890964
C30	C	-4.067163	-0.165986	-0.845488
N31	N	-3.870306	-0.161934	-0.720175
N32	N	-4.043422	-0.167101	-0.760784
C33	C	-4.099349	0.061434	-0.239193
C34	C	-4.015843	0.202716	-0.239863
C35	C	-4.159133	-0.162632	-0.099419
C36	C	-4.113637	-0.163799	-0.011224
H37	H	-3.956188	-0.576879	-0.372873
N38	N	-3.468573	-0.149837	-0.630322
H39	H	-3.422452	-0.226396	-0.621832
H40	H	-3.347345	-0.068069	-0.606414
H41	H	-4.442208	-0.175412	-1.010867
N42	N	-3.835145	-0.489034	-0.090108
H43	H	-3.797729	-0.397604	-0.101570
H44	H	-3.708763	-0.499957	-0.055578
N45	N	-4.226394	-0.176202	-0.647117
H46	H	-4.281779	-0.255168	-0.689384
H47	H	-4.206407	-0.096833	-0.673920
N48	N	-4.445169	-0.179211	-0.850638
H49	H	-4.406036	-0.100810	-0.808733
H50	H	-4.481189	-0.259137	-0.824189
N51	N	-3.957706	-0.764959	-0.088822
H52	H	-3.911645	-0.691325	-0.043086
H53	H	-3.856921	-0.814861	-0.082708
N54	N	-4.178103	-0.178488	-0.474885
H55	H	-4.304461	-0.181987	-0.516271
H56	H	-4.138789	-0.100076	-0.432975
H57	H	-4.063162	-0.817722	-0.371737
N58	N	-3.735627	-0.150540	-1.006077
H59	H	-3.609245	-0.147013	-0.964693
H60	H	-3.699759	-0.070659	-1.032573
H61	H	-3.738612	-0.154416	-0.845862
H62	H	-3.471509	-0.153607	-0.470092
