data_functionalizedCrystal
_audit_creation_method	'MofGen! by Chris Wilmer'
_symmetry_space_group_name_H-M	'P1'
_symmetry_Int_Tables_number	1
_symmetry_cell_setting	triclinic
loop_
_symmetry_equiv_pos_as_xyz
  x,y,z
_cell_length_a	16.992694
_cell_length_b	14.044220
_cell_length_c	16.053802
_cell_angle_alpha	92.799619
_cell_angle_beta	87.249047
_cell_angle_gamma	91.928550
loop_
_atom_site_label
_atom_site_type_symbol
_atom_site_fract_x
_atom_site_fract_y
_atom_site_fract_z
O1	O	1.057564	0.198305	-0.069327
O2	O	1.557564	0.698305	0.430673
O3	O	0.829125	0.196087	-0.069352
O4	O	1.329125	0.696087	0.430648
O5	O	0.939916	0.058952	-0.069331
O6	O	1.439916	0.558952	0.430669
O7	O	0.946774	0.335440	-0.069347
O8	O	1.446774	0.835440	0.430653
O9	O	0.933815	0.066468	0.069526
O10	O	1.433815	0.566468	0.569526
O11	O	0.823025	0.203602	0.069506
O12	O	1.323025	0.703602	0.569506
O13	O	1.051464	0.205821	0.069531
O14	O	1.551464	0.705821	0.569531
Zn15	Zn	0.936276	0.205905	0.091565
Zn16	Zn	1.436276	0.705905	0.591565
Zn17	Zn	0.944313	0.196003	-0.091386
Zn18	Zn	1.444313	0.696003	0.408614
O19	O	0.940673	0.342955	0.069511
O20	O	1.440673	0.842955	0.569511
C21	C	0.796663	0.196993	0.000074
C22	C	1.296663	0.696993	0.500074
C23	C	0.709024	0.188484	0.000065
C24	C	1.209024	0.688484	0.500065
C25	C	0.664526	0.270580	0.000061
C26	C	1.164526	0.770580	0.500061
C27	C	0.582179	0.262581	0.000073
C28	C	1.082179	0.762581	0.500073
C29	C	0.544333	0.172483	0.000083
C30	C	1.044333	0.672483	0.500083
C31	C	0.588837	0.090381	0.000090
C32	C	1.088837	0.590381	0.500090
C33	C	0.671182	0.098382	0.000084
C34	C	1.171182	0.598382	0.500084
C35	C	0.298414	0.139322	0.000107
C36	C	0.798414	0.639322	0.500107
C37	C	0.216063	0.131327	0.000111
C38	C	0.716063	0.631327	0.500111
C39	C	0.209412	0.303528	0.000096
C40	C	0.709412	0.803528	0.500096
C41	C	0.291759	0.311521	0.000085
C42	C	0.791759	0.811521	0.500085
C43	C	0.336255	0.229419	0.000096
C44	C	0.836255	0.729419	0.500096
N45	N	0.460161	0.164304	0.000093
N46	N	0.960161	0.664304	0.500093
N47	N	0.420425	0.237599	0.000092
N48	N	0.920425	0.737599	0.500092
C49	C	0.933863	0.027168	0.000098
C50	C	1.433863	0.527168	0.500098
C51	C	0.924909	-0.078736	0.000098
C52	C	1.424909	0.421264	0.500098
C53	C	0.908540	-0.272638	0.000084
C54	C	1.408540	0.227362	0.500084
C55	C	0.972046	-0.325460	0.000088
C56	C	1.472046	0.174540	0.500088
C57	C	0.962938	-0.433354	0.000080
C58	C	1.462938	0.066646	0.500080
C59	C	0.917647	-0.164734	0.000091
C60	C	1.417647	0.335266	0.500091
C61	C	1.083926	0.204915	0.000103
C62	C	1.583926	0.704915	0.500103
C63	C	1.171565	0.213424	0.000107
C64	C	1.671565	0.713424	0.500107
C65	C	0.946726	0.374740	0.000080
C66	C	1.446726	0.874740	0.500080
C67	C	0.955680	0.480643	0.000074
C68	C	1.455680	0.980643	0.500074
N69	N	0.930796	0.212662	0.216425
N70	N	1.430796	0.712662	0.716425
N71	N	0.949799	0.189239	-0.216245
N72	N	1.449799	0.689239	0.283755
C73	C	0.977958	0.154335	0.260127
C74	C	1.477958	0.654335	0.760127
C75	C	0.974132	0.159071	0.347533
C76	C	1.474132	0.659071	0.847533
C77	C	0.923149	0.222140	0.391235
C78	C	1.423149	0.722140	0.891235
C79	C	0.875982	0.280470	0.347526
C80	C	1.375982	0.780470	0.847526
C81	C	0.879804	0.275728	0.260122
C82	C	1.379804	0.775728	0.760122
C83	C	0.906453	0.242827	0.652642
C84	C	1.406453	0.742827	1.152642
C85	C	0.902637	0.247566	0.740052
C86	C	1.402637	0.747566	1.240052
C87	C	1.000787	0.126165	0.740053
C88	C	1.500787	0.626165	1.240053
C89	C	1.004608	0.121433	0.652647
C90	C	1.504608	0.621433	1.152647
C91	C	0.957438	0.179759	0.608946
C92	C	1.457438	0.679759	1.108946
N93	N	0.919240	0.226985	0.480578
N94	N	1.419240	0.726985	0.980578
N95	N	0.961343	0.174909	0.519604
N96	N	1.461343	0.674909	1.019604
H97	H	0.545952	0.329433	0.000069
H98	H	1.045952	0.829433	0.500069
H99	H	0.185251	0.057955	0.000118
H100	H	0.685251	0.557955	0.500118
O101	O	0.548015	-0.006796	0.000106
O102	O	1.048015	0.493204	0.500106
H103	H	0.592794	-0.062538	0.000117
H104	H	1.092794	0.437462	0.500117
O105	O	0.827465	-0.320066	0.000078
O106	O	1.327465	0.179934	0.500078
H107	H	0.782344	-0.264729	0.000073
H108	H	1.282344	0.235271	0.500073
O109	O	0.705339	0.367761	0.000049
O110	O	1.205339	0.867761	0.500049
H111	H	0.770075	0.359536	0.000038
H112	H	1.270075	0.859536	0.500038
O113	O	0.332579	0.408698	0.000095
O114	O	0.832579	0.908698	0.500095
H115	H	0.287801	0.464444	0.000107
H116	H	0.787801	0.964444	0.500107
O117	O	1.032944	0.086305	0.212992
O118	O	1.532944	0.586305	0.712992
H119	H	1.065089	0.046535	0.258069
H120	H	1.565089	0.546535	0.758069
O121	O	0.855588	0.305742	0.605511
O122	O	1.355588	0.805742	1.105511
H123	H	0.819503	0.350401	0.650586
H124	H	1.319503	0.850401	1.150586
H125	H	1.012535	0.111576	0.383115
H126	H	1.512535	0.611576	0.883115
H127	H	0.334634	0.072468	0.000117
H128	H	0.834634	0.572468	0.500117
H129	H	0.834466	0.331819	0.383114
H130	H	1.334466	0.831819	0.883114
O131	O	0.161421	0.392080	0.000101
O132	O	0.661421	0.892080	0.500101
H133	H	0.097802	0.371385	0.000117
H134	H	0.597802	0.871385	0.500117
H135	H	1.046122	0.070077	0.617066
H136	H	1.546122	0.570077	1.117066
H137	H	0.841398	0.323224	0.224540
H138	H	1.341398	0.823224	0.724540
O139	O	1.051655	0.063249	0.787185
O140	O	1.551655	0.563249	1.287185
H141	H	1.040430	0.077133	0.855305
H142	H	1.540430	0.577133	1.355305
H143	H	0.707411	0.031530	0.000086
H144	H	1.207411	0.531530	0.500086
O145	O	0.847635	0.315582	0.787194
O146	O	1.347635	0.815582	1.287194
H147	H	0.815469	0.355335	0.742122
H148	H	1.315469	0.855335	1.242122
H149	H	1.033258	-0.289655	0.000039
H150	H	1.533258	0.210345	0.500039
