data_functionalizedCrystal
_audit_creation_method	'MofGen! by Chris Wilmer'
_symmetry_space_group_name_H-M	'P1'
_symmetry_Int_Tables_number	1
_symmetry_cell_setting	triclinic
loop_
_symmetry_equiv_pos_as_xyz
  x,y,z
_cell_length_a	13.033409
_cell_length_b	13.897448
_cell_length_c	13.897441
_cell_angle_alpha	89.969401
_cell_angle_beta	97.170691
_cell_angle_gamma	82.848469
loop_
_atom_site_label
_atom_site_type_symbol
_atom_site_fract_x
_atom_site_fract_y
_atom_site_fract_z
Zn1	Zn	1.597502	-0.571054	-0.357736
Zn2	Zn	1.847502	-0.321054	-0.107736
Zn3	Zn	2.097502	-0.071054	0.142264
Zn4	Zn	2.347502	0.178946	0.392264
Zn5	Zn	1.597387	-0.732362	-0.196451
Zn6	Zn	1.847387	-0.482362	0.053549
Zn7	Zn	2.097387	-0.232362	0.303549
Zn8	Zn	2.347387	0.017638	0.553549
Zn9	Zn	1.422758	-0.550634	-0.216980
Zn10	Zn	1.672758	-0.300634	0.033020
Zn11	Zn	1.922758	-0.050634	0.283020
Zn12	Zn	2.172758	0.199366	0.533020
Zn13	Zn	1.422738	-0.711844	-0.378218
Zn14	Zn	1.672738	-0.461844	-0.128218
Zn15	Zn	1.922738	-0.211844	0.121782
Zn16	Zn	2.172738	0.038156	0.371782
O17	O	1.510096	-0.641474	-0.287346
O18	O	1.760096	-0.391474	-0.037346
O19	O	2.010096	-0.141474	0.212654
O20	O	2.260096	0.108526	0.462654
O21	O	1.743708	-0.609585	-0.319178
O22	O	1.993708	-0.359585	-0.069178
O23	O	2.243708	-0.109585	0.180822
O24	O	2.493708	0.140415	0.430822
O25	O	1.574182	-0.708297	-0.064197
O26	O	1.824182	-0.458297	0.185803
O27	O	2.074182	-0.208297	0.435803
O28	O	2.324182	0.041703	0.685803
O29	O	1.445995	-0.418368	-0.235671
O30	O	1.695995	-0.168368	0.014329
O31	O	1.945995	0.081632	0.264329
O32	O	2.195995	0.331632	0.514329
O33	O	1.743624	-0.728098	-0.200682
O34	O	1.993624	-0.478098	0.049318
O35	O	2.243624	-0.228098	0.299318
O36	O	2.493624	0.021902	0.549318
O37	O	1.574378	-0.433370	-0.339084
O38	O	1.824378	-0.183370	-0.089084
O39	O	2.074378	0.066630	0.160916
O40	O	2.324378	0.316630	0.410916
O41	O	1.445883	-0.574782	-0.079280
O42	O	1.695883	-0.324782	0.170720
O43	O	1.945883	-0.074782	0.420720
O44	O	2.195883	0.175218	0.670720
O45	O	1.276534	-0.554885	-0.255532
O46	O	1.526534	-0.304885	-0.005532
O47	O	1.776534	-0.054885	0.244468
O48	O	2.026534	0.195115	0.494468
O49	O	1.445961	-0.693127	-0.510478
O50	O	1.695961	-0.443127	-0.260478
O51	O	1.945961	-0.193127	-0.010478
O52	O	2.195961	0.056873	0.239522
O53	O	1.276520	-0.673326	-0.373993
O54	O	1.526520	-0.423326	-0.123993
O55	O	1.776520	-0.173326	0.126007
O56	O	2.026520	0.076674	0.376007
O57	O	1.574359	-0.589689	-0.495430
O58	O	1.824359	-0.339689	-0.245430
O59	O	2.074359	-0.089689	0.004570
O60	O	2.324359	0.160311	0.254570
O61	O	1.574163	-0.864616	-0.220543
O62	O	1.824163	-0.614616	0.029457
O63	O	2.074163	-0.364616	0.279457
O64	O	2.324163	-0.114616	0.529457
O65	O	1.445850	-0.849541	-0.354086
O66	O	1.695850	-0.599541	-0.104086
O67	O	1.945850	-0.349541	0.145914
O68	O	2.195850	-0.099541	0.395914
C69	C	1.238613	-0.609664	-0.319213
C70	C	1.488613	-0.359664	-0.069213
C71	C	1.738613	-0.109664	0.180787
C72	C	1.988613	0.140336	0.430787
C73	C	1.122472	-0.596079	-0.332869
C74	C	1.372472	-0.346079	-0.082869
C75	C	1.622472	-0.096079	0.167131
C76	C	1.872472	0.153921	0.417131
C77	C	1.510020	-0.892079	-0.287327
C78	C	1.760020	-0.642079	-0.037327
C79	C	2.010020	-0.392079	0.212673
C80	C	2.260020	-0.142079	0.462673
C81	C	1.510083	-0.999300	-0.287340
C82	C	1.760083	-0.749300	-0.037340
C83	C	2.010083	-0.499300	0.212660
C84	C	2.260083	-0.249300	0.462660
C85	C	0.950608	-0.634529	-0.294352
C86	C	1.200608	-0.384529	-0.044352
C87	C	1.450608	-0.134529	0.205648
C88	C	1.700608	0.115471	0.455648
C89	C	1.070647	-0.648574	-0.280233
C90	C	1.320647	-0.398574	-0.030233
C91	C	1.570647	-0.148574	0.219767
C92	C	1.820647	0.101426	0.469767
C93	C	1.510193	-1.195608	-0.287388
C94	C	1.760193	-0.945608	-0.037388
C95	C	2.010193	-0.695608	0.212612
C96	C	2.260193	-0.445608	0.462612
C97	C	1.510129	-1.086368	-0.287365
C98	C	1.760129	-0.836368	-0.037365
C99	C	2.010129	-0.586368	0.212635
C100	C	2.260129	-0.336368	0.462635
C101	C	1.782639	-0.673408	-0.255356
C102	C	2.032639	-0.423408	-0.005356
C103	C	2.282639	-0.173408	0.244644
C104	C	2.532639	0.076592	0.494644
C105	C	1.898781	-0.687017	-0.241723
C106	C	2.148781	-0.437017	0.008277
C107	C	2.398781	-0.187017	0.258277
C108	C	2.648781	0.062983	0.508277
C109	C	1.510170	-0.641397	-0.538931
C110	C	1.760170	-0.391397	-0.288931
C111	C	2.010170	-0.141397	-0.038931
C112	C	2.260170	0.108603	0.211069
C113	C	1.510202	-0.641364	-0.646141
C114	C	1.760202	-0.391364	-0.396141
C115	C	2.010202	-0.141364	-0.146141
C116	C	2.260202	0.108636	0.103859
C117	C	1.510201	-0.389893	-0.287383
C118	C	1.760201	-0.139893	-0.037383
C119	C	2.010201	0.110107	0.212617
C120	C	2.260201	0.360107	0.462617
C121	C	1.510246	-0.282684	-0.287399
C122	C	1.760246	-0.032684	-0.037399
C123	C	2.010246	0.217316	0.212601
C124	C	2.260246	0.467316	0.462601
C125	C	1.510230	-0.641302	-0.842433
C126	C	1.760230	-0.391302	-0.592433
C127	C	2.010230	-0.141302	-0.342433
C128	C	2.260230	0.108698	-0.092433
C129	C	1.510211	-0.641339	-0.733203
C130	C	1.760211	-0.391339	-0.483203
C131	C	2.010211	-0.141339	-0.233203
C132	C	2.260211	0.108661	0.016797
C133	C	1.510083	-0.641487	-0.036734
C134	C	1.760083	-0.391487	0.213266
C135	C	2.010083	-0.141487	0.463266
C136	C	2.260083	0.108513	0.713266
C137	C	1.510253	-0.641272	0.070500
C138	C	1.760253	-0.391272	0.320500
C139	C	2.010253	-0.141272	0.570500
C140	C	2.260253	0.108728	0.820500
H141	H	0.906112	-0.579199	-0.349865
H142	H	1.156112	-0.329199	-0.099865
H143	H	1.406112	-0.079199	0.150135
H144	H	1.656112	0.170801	0.400135
H145	H	0.943278	-0.742355	-0.186219
H146	H	1.193278	-0.492355	0.063781
H147	H	1.443278	-0.242355	0.313781
H148	H	1.693278	0.007645	0.563781
H149	H	1.115140	-0.703916	-0.224725
H150	H	1.365140	-0.453916	0.025275
H151	H	1.615140	-0.203916	0.275275
H152	H	1.865140	0.046084	0.525275
Cl153	Cl	1.053788	-0.510643	-0.418582
Cl154	Cl	1.303788	-0.260643	-0.168582
Cl155	Cl	1.553788	-0.010643	0.081418
Cl156	Cl	1.803788	0.239357	0.331418
