data_functionalizedCrystal
_audit_creation_method	'MofGen! by Chris Wilmer'
_symmetry_space_group_name_H-M	'P1'
_symmetry_Int_Tables_number	1
_symmetry_cell_setting	triclinic
loop_
_symmetry_equiv_pos_as_xyz
  x,y,z
_cell_length_a	14.044220
_cell_length_b	17.699083
_cell_length_c	16.776229
_cell_angle_alpha	90.001114
_cell_angle_beta	89.992645
_cell_angle_gamma	91.764054
loop_
_atom_site_label
_atom_site_type_symbol
_atom_site_fract_x
_atom_site_fract_y
_atom_site_fract_z
O1	O	0.119850	-1.012346	-0.066178
O2	O	0.135443	-0.793043	-0.066204
O3	O	-0.010330	-0.899403	-0.066183
O4	O	0.265624	-0.905986	-0.066198
O5	O	-0.010339	-0.899387	0.066393
O6	O	0.135434	-0.793027	0.066372
O7	O	0.119841	-1.012330	0.066399
Zn8	Zn	0.127636	-0.902676	0.087435
Zn9	Zn	0.127648	-0.902697	-0.087240
O10	O	0.265615	-0.905970	0.066378
C11	C	-0.045643	-0.896513	0.000105
C12	C	-0.150849	-0.887917	0.000105
C13	C	0.134880	-0.764800	0.000081
C14	C	0.133204	-0.680666	0.000071
C15	C	0.120404	-1.040574	0.000112
C16	C	0.122081	-1.124707	0.000117
C17	C	-0.343474	-0.872202	0.000091
C18	C	-0.401248	-0.933168	0.000096
C19	C	-0.508431	-0.924424	0.000089
C20	C	-0.236281	-0.880945	0.000099
C21	C	0.300927	-0.908860	0.000088
C22	C	0.406133	-0.917456	0.000083
C23	C	0.218769	-0.637948	0.000067
C24	C	0.217189	-0.558895	0.000077
C25	C	0.130041	-0.522563	0.000086
C26	C	0.044469	-0.565287	0.000093
C27	C	0.046050	-0.644338	0.000088
C28	C	0.038089	-0.246484	0.000113
C29	C	0.036514	-0.167427	0.000115
C30	C	0.209227	-0.161041	0.000102
C31	C	0.210809	-0.240092	0.000097
C32	C	0.125237	-0.282809	0.000108
C33	C	0.126952	-0.368527	0.000098
C34	C	0.128325	-0.436847	0.000090
N35	N	0.127628	-0.902667	0.206646
N36	N	0.127649	-0.902712	-0.206452
C37	C	0.063106	-0.949781	0.248372
C38	C	0.063105	-0.949785	0.331825
C39	C	0.127631	-0.902679	0.373549
C40	C	0.192156	-0.855560	0.331817
C41	C	0.192152	-0.855552	0.248366
C42	C	0.192175	-0.855589	0.668364
C43	C	0.192176	-0.855601	0.751821
C44	C	0.063128	-0.949821	0.751822
C45	C	0.063123	-0.949813	0.668372
C46	C	0.127645	-0.902692	0.626647
C47	C	0.127644	-0.902687	0.536159
C48	C	0.127638	-0.902687	0.464036
H49	H	-0.370212	-0.991930	0.000050
H50	H	0.244723	-0.817239	0.785791
H51	H	-0.374508	-0.813445	0.000082
C52	C	0.313486	-0.677250	0.000097
C53	C	0.388082	-0.622915	0.000117
C54	C	0.475351	-0.659090	0.000158
H55	H	0.317834	-0.707951	-0.046125
H56	H	0.317742	-0.707939	0.046346
H57	H	0.383829	-0.592240	-0.046127
H58	H	0.383766	-0.592211	0.046336
H59	H	0.479606	-0.689778	0.046407
H60	H	0.479688	-0.689790	-0.046064
H61	H	0.525974	-0.622229	0.000180
C62	C	0.310021	-0.512424	-0.000061
C63	C	0.314146	-0.466838	-0.068256
C64	C	0.399647	-0.424014	-0.068406
H65	H	0.362224	-0.545297	-0.000114
H66	H	0.313010	-0.481411	0.046149
H67	H	0.311166	-0.497849	-0.114454
H68	H	0.261962	-0.433951	-0.068217
H69	H	0.402636	-0.393001	-0.022196
H70	H	0.451844	-0.456893	-0.068457
H71	H	0.402453	-0.393074	-0.114672
C72	C	0.305524	-0.279398	0.000129
C73	C	0.380123	-0.225066	0.000150
C74	C	0.467389	-0.261245	0.000193
H75	H	0.309870	-0.310100	-0.046092
H76	H	0.309776	-0.310085	0.046379
H77	H	0.375873	-0.194391	-0.046095
H78	H	0.375808	-0.194361	0.046367
H79	H	0.471641	-0.291932	0.046443
H80	H	0.471726	-0.291946	-0.046028
H81	H	0.518015	-0.224386	0.000215
H82	H	-0.034456	-0.137848	0.000124
H83	H	0.278904	-0.126251	0.000097
H84	H	-0.031590	-0.281255	0.000123
C85	C	-0.050054	-0.525703	0.000063
C86	C	-0.033128	-0.447330	0.000043
C87	C	-0.120181	-0.410843	0.000003
H88	H	-0.085353	-0.539883	0.046285
H89	H	-0.085284	-0.539928	-0.046186
H90	H	0.002087	-0.433111	0.046288
H91	H	0.002157	-0.433128	-0.046175
H92	H	-0.155411	-0.425068	-0.046246
H93	H	-0.155474	-0.425028	0.046226
H94	H	-0.108708	-0.357663	-0.000018
H95	H	-0.023626	-0.679119	0.000091
H96	H	0.010565	-0.988143	0.214406
C97	C	-0.006979	-1.001030	0.376983
C98	C	-0.063463	-1.042304	0.322582
C99	C	-0.128025	-1.089531	0.364152
H100	H	-0.046486	-0.971242	0.409553
H101	H	0.027055	-1.034870	0.409508
H102	H	-0.097494	-1.008469	0.290071
H103	H	-0.023982	-1.072107	0.290010
H104	H	-0.093991	-1.123371	0.396676
H105	H	-0.167525	-1.059737	0.396720
H106	H	-0.166351	-1.117546	0.327247
H107	H	0.010583	-0.988174	0.634402
C108	C	-0.007044	-1.000846	0.797170
C109	C	-0.065015	-0.956624	0.845074
C110	C	-0.129671	-1.003601	0.886849
H111	H	0.026889	-1.034661	0.829783
H112	H	-0.045527	-1.028887	0.760394
H113	H	-0.026537	-0.928596	0.881845
H114	H	-0.098969	-0.922810	0.812481
H115	H	-0.168155	-1.031642	0.850073
H116	H	-0.095731	-1.037414	0.919457
H117	H	-0.169018	-0.973603	0.919351
C118	C	0.262337	-0.804408	0.623214
C119	C	0.318863	-0.763176	0.677619
C120	C	0.383519	-0.716026	0.636053
H121	H	0.228404	-0.770536	0.590668
H122	H	0.301798	-0.834272	0.590667
H123	H	0.279407	-0.733314	0.710153
H124	H	0.352817	-0.797028	0.710167
H125	H	0.422980	-0.745890	0.603505
H126	H	0.349578	-0.682160	0.603508
H127	H	0.421886	-0.688050	0.672960
H128	H	0.244692	-0.817201	0.365794
H129	H	0.244691	-0.817187	0.214394
