data_functionalizedCrystal
_audit_creation_method	'MofGen! by Chris Wilmer'
_symmetry_space_group_name_H-M	'P1'
_symmetry_Int_Tables_number	1
_symmetry_cell_setting	triclinic
loop_
_symmetry_equiv_pos_as_xyz
  x,y,z
_cell_length_a	15.995350
_cell_length_b	14.519709
_cell_length_c	13.596369
_cell_angle_alpha	90.006934
_cell_angle_beta	89.998321
_cell_angle_gamma	96.413740
loop_
_atom_site_label
_atom_site_type_symbol
_atom_site_fract_x
_atom_site_fract_y
_atom_site_fract_z
O1	O	1.111164	-0.118875	-0.081710
O2	O	0.867411	-0.133554	-0.081731
O3	O	0.995750	0.008036	-0.081711
O4	O	0.982825	-0.260464	-0.081730
O5	O	0.995738	0.008043	0.081872
O6	O	0.867398	-0.133546	0.081852
O7	O	1.111152	-0.118867	0.081873
Zn8	Zn	0.989273	-0.126206	0.107835
Zn9	Zn	0.989290	-0.126215	-0.107693
O10	O	0.982812	-0.260457	0.081853
C11	C	0.995142	0.042398	0.000081
C12	C	0.993337	0.144776	0.000081
C13	C	0.836209	-0.132943	0.000058
C14	C	0.743256	-0.131124	0.000051
C15	C	0.405499	-0.124590	0.000072
C16	C	0.452782	-0.023752	0.000444
C17	C	0.549475	-0.025572	0.000068
C18	C	0.573064	-0.127831	0.000062
C19	C	0.532059	-0.177572	-0.093352
C20	C	0.435419	-0.175039	-0.093423
C21	C	0.435069	-0.177114	0.092601
C22	C	0.532014	-0.177090	0.093829
C23	C	0.667764	-0.129668	0.000053
C24	C	0.310798	-0.122756	0.000074
C25	C	1.142354	-0.119478	0.000082
C26	C	1.235307	-0.121297	0.000083
C27	C	0.983421	-0.294819	0.000059
C28	C	0.985226	-0.397197	0.000052
N29	N	0.989267	-0.126198	0.254927
C30	C	0.986691	0.519660	0.000055
C31	C	0.988537	0.415355	0.000062
C32	C	0.990014	0.332221	0.000069
C33	C	0.991859	0.227910	0.000075
N34	N	0.989302	-0.126215	-0.254785
C35	C	0.989289	-0.126216	0.656218
C36	C	0.989280	-0.126215	0.544566
C37	C	0.989278	-0.126208	0.455576
C38	C	0.989269	-0.126205	0.343917
H39	H	0.577840	0.013526	0.067031
H40	H	0.414478	-0.144144	0.163406
H41	H	0.403282	-0.249072	-0.097666
H42	H	0.434194	0.016558	0.067434
H43	H	0.403419	-0.251460	0.093229
H44	H	0.547490	-0.251660	0.099467
H45	H	0.560387	-0.143030	-0.162867
H46	H	0.559271	-0.140779	0.162936
H47	H	0.577279	0.013785	-0.067006
H48	H	0.433133	0.016366	-0.066172
H49	H	0.417062	-0.138772	-0.163247
H50	H	0.546296	-0.252699	-0.096830
