data_functionalizedCrystal
_audit_creation_method	'MofGen! by Chris Wilmer'
_symmetry_space_group_name_H-M	'P1'
_symmetry_Int_Tables_number	1
_symmetry_cell_setting	triclinic
loop_
_symmetry_equiv_pos_as_xyz
  x,y,z
_cell_length_a	19.121063
_cell_length_b	17.077404
_cell_length_c	19.121278
_cell_angle_alpha	87.576072
_cell_angle_beta	89.864274
_cell_angle_gamma	87.533933
loop_
_atom_site_label
_atom_site_type_symbol
_atom_site_fract_x
_atom_site_fract_y
_atom_site_fract_z
Zn1	Zn	-0.262257	-1.168041	-0.408297
Zn2	Zn	0.071076	-0.834708	-0.074963
Zn3	Zn	0.404409	-0.501375	0.258370
Zn4	Zn	-0.384501	-1.167465	-0.296054
Zn5	Zn	-0.051167	-0.834132	0.037280
Zn6	Zn	0.282166	-0.500799	0.370613
Zn7	Zn	-0.267274	-1.042128	-0.291073
Zn8	Zn	0.066059	-0.708794	0.042260
Zn9	Zn	0.399392	-0.375461	0.375593
Zn10	Zn	-0.379455	-1.030906	-0.413250
Zn11	Zn	-0.046122	-0.697573	-0.079916
Zn12	Zn	0.287212	-0.364239	0.253417
O13	O	-0.323372	-1.102135	-0.352168
O14	O	0.009962	-0.768802	-0.018835
O15	O	0.343295	-0.435468	0.314498
O16	O	-0.278485	-1.277811	-0.393419
O17	O	0.054848	-0.944477	-0.060086
O18	O	0.388181	-0.611144	0.273248
O19	O	-0.373161	-1.155294	-0.197288
O20	O	-0.039828	-0.821961	0.136045
O21	O	0.293505	-0.488627	0.469379
O22	O	-0.168502	-1.063768	-0.302466
O23	O	0.164832	-0.730434	0.030867
O24	O	0.498165	-0.397101	0.364200
O25	O	-0.368297	-1.277387	-0.310955
O26	O	-0.034963	-0.944054	0.022379
O27	O	0.298370	-0.610721	0.355712
O28	O	-0.164816	-1.156276	-0.388590
O29	O	0.168517	-0.822943	-0.055256
O30	O	0.501851	-0.489609	0.278077
O31	O	-0.287036	-1.063209	-0.193629
O32	O	0.046298	-0.729876	0.139704
O33	O	0.379631	-0.396542	0.473038
O34	O	-0.282143	-0.930793	-0.307269
O35	O	0.051190	-0.597460	0.026064
O36	O	0.384523	-0.264127	0.359398
O37	O	-0.359697	-1.044642	-0.510698
O38	O	-0.026364	-0.711309	-0.177364
O39	O	0.306970	-0.377976	0.155969
O40	O	-0.364562	-0.922549	-0.397031
O41	O	-0.031228	-0.589216	-0.063698
O42	O	0.302105	-0.255882	0.269636
O43	O	-0.273593	-1.145395	-0.507059
O44	O	0.059741	-0.812062	-0.173726
O45	O	0.393074	-0.478728	0.159608
O46	O	-0.481938	-1.144413	-0.315757
O47	O	-0.148605	-0.811080	0.017576
O48	O	0.184728	-0.477746	0.350910
O49	O	-0.478231	-1.044084	-0.401860
O50	O	-0.144898	-0.710750	-0.068527
O51	O	0.188435	-0.377417	0.264806
C52	C	-0.323350	-0.898189	-0.352147
C53	C	0.009983	-0.564856	-0.018814
C54	C	0.343317	-0.231523	0.314519
C55	C	-0.323357	-0.810939	-0.352156
C56	C	0.009977	-0.477605	-0.018822
C57	C	0.343310	-0.144272	0.314511
C58	C	-0.276668	-0.770163	-0.395166
C59	C	0.056665	-0.436829	-0.061833
C60	C	0.389999	-0.103496	0.271501
C61	C	-0.276671	-0.688182	-0.395168
C62	C	0.056662	-0.354849	-0.061834
C63	C	0.389995	-0.021515	0.271499
C64	C	-0.323367	-0.646979	-0.352162
C65	C	0.009966	-0.313645	-0.018829
C66	C	0.343299	0.019688	0.314504
C67	C	-0.370058	-0.687760	-0.309147
C68	C	-0.036725	-0.354427	0.024186
C69	C	0.296609	-0.021094	0.357519
C70	C	-0.370051	-0.769740	-0.309142
C71	C	-0.036717	-0.436407	0.024191
C72	C	0.296616	-0.103073	0.357524
C73	C	-0.370071	-0.516889	-0.309162
C74	C	-0.036738	-0.183556	0.024172
C75	C	0.296596	0.149778	0.357505
C76	C	-0.370079	-0.434904	-0.309167
C77	C	-0.036746	-0.101571	0.024166
C78	C	0.296587	0.231763	0.357499
C79	C	-0.276692	-0.435331	-0.395187
C80	C	0.056642	-0.101998	-0.061854
C81	C	0.389975	0.231335	0.271480
C82	C	-0.276684	-0.517311	-0.395182
C83	C	0.056649	-0.183977	-0.061849
C84	C	0.389982	0.149356	0.271485
C85	C	-0.323376	-0.558087	-0.352168
C86	C	0.009957	-0.224754	-0.018835
C87	C	0.343290	0.108580	0.314499
C88	C	-0.505522	-1.092989	-0.359902
C89	C	-0.172189	-0.759655	-0.026569
C90	C	0.161144	-0.426322	0.306765
C91	C	-0.583446	-1.089147	-0.363234
C92	C	-0.250113	-0.755813	-0.029900
C93	C	0.083221	-0.422480	0.303433
C94	C	-0.621960	-1.139615	-0.320007
C95	C	-0.288626	-0.806282	0.013326
C96	C	0.044707	-0.472948	0.346660
C97	C	-0.695177	-1.136006	-0.323145
C98	C	-0.361844	-0.802673	0.010189
C99	C	-0.028510	-0.469339	0.343522
C100	C	-0.729879	-1.081924	-0.369506
C101	C	-0.396546	-0.748591	-0.036173
C102	C	-0.063213	-0.415258	0.297160
C103	C	-0.691360	-1.031454	-0.412738
C104	C	-0.358027	-0.698120	-0.079404
C105	C	-0.024693	-0.364787	0.253929
C106	C	-0.618144	-1.035067	-0.409603
C107	C	-0.284811	-0.701734	-0.076270
C108	C	0.048523	-0.368400	0.257064
C109	C	-0.950849	-1.068402	-0.381215
C110	C	-0.617516	-0.735069	-0.047882
C111	C	-0.284182	-0.401736	0.285452
C112	C	-1.024071	-1.064791	-0.384345
C113	C	-0.690737	-0.731458	-0.051012
C114	C	-0.357404	-0.398124	0.282322
C115	C	-1.027882	-1.169345	-0.294752
C116	C	-0.694549	-0.836012	0.038581
C117	C	-0.361216	-0.502678	0.371914
C118	C	-0.954665	-1.172950	-0.291619
C119	C	-0.621332	-0.839617	0.041714
C120	C	-0.287998	-0.506284	0.375048
C121	C	-0.916152	-1.122483	-0.334853
C122	C	-0.582819	-0.789149	-0.001520
C123	C	-0.249485	-0.455816	0.331814
C124	C	-0.804719	-1.078232	-0.372713
C125	C	-0.471386	-0.744899	-0.039380
C126	C	-0.138052	-0.411566	0.293954
C127	C	-0.841313	-1.126179	-0.331649
C128	C	-0.507980	-0.792846	0.001684
C129	C	-0.174647	-0.459512	0.335017
C130	C	-0.140509	-1.111338	-0.344420
C131	C	0.192824	-0.778005	-0.011087
C132	C	0.526157	-0.444671	0.322247
C133	C	-0.062584	-1.115260	-0.341118
C134	C	0.270749	-0.781926	-0.007785
C135	C	0.604082	-0.448593	0.325549
C136	C	-0.315522	-1.093831	-0.535027
C137	C	0.017811	-0.760498	-0.201694
C138	C	0.351144	-0.427164	0.131639
C139	C	-0.312178	-1.090292	-0.612951
C140	C	0.021156	-0.756959	-0.279617
C141	C	0.354489	-0.423626	0.053716
C142	C	-0.323391	-0.306878	-0.352184
C143	C	0.009942	0.026456	-0.018851
C144	C	0.343276	0.359789	0.314482
C145	C	-0.323391	-0.394128	-0.352178
C146	C	0.009943	-0.060794	-0.018844
C147	C	0.343276	0.272539	0.314489
C148	C	-0.291017	-1.067877	-1.053576
C149	C	0.042316	-0.734543	-0.720242
C150	C	0.375650	-0.401210	-0.386909
C151	C	-0.294157	-1.071205	-0.980358
C152	C	0.039176	-0.737872	-0.647025
C153	C	0.372510	-0.404539	-0.313691
C154	C	-0.340572	-1.120809	-0.945654
C155	C	-0.007238	-0.787476	-0.612320
C156	C	0.326095	-0.454142	-0.278987
C157	C	-0.383844	-1.167093	-0.984171
C158	C	-0.050511	-0.833759	-0.650837
C159	C	0.282823	-0.500426	-0.317504
C160	C	-0.380700	-1.163768	-1.057387
C161	C	-0.047366	-0.830434	-0.724053
C162	C	0.285967	-0.497101	-0.390720
C163	C	-0.352306	-1.133251	-0.724684
C164	C	-0.018972	-0.799918	-0.391350
C165	C	0.314361	-0.466584	-0.058017
C166	C	-0.355448	-1.136571	-0.651462
C167	C	-0.022115	-0.803238	-0.318129
C168	C	0.311219	-0.469904	0.015204
C169	C	-0.265760	-1.040684	-0.647655
C170	C	0.067574	-0.707351	-0.314322
C171	C	0.400907	-0.374018	0.019012
C172	C	-0.262623	-1.037360	-0.720873
C173	C	0.070711	-0.704027	-0.387539
C174	C	0.404044	-0.370693	-0.054206
C175	C	-0.305892	-1.083647	-0.759383
C176	C	0.027441	-0.750313	-0.426050
C177	C	0.360774	-0.416980	-0.092716
C178	C	-0.343784	-1.124211	-0.870814
C179	C	-0.010451	-0.790878	-0.537480
C180	C	0.322882	-0.457544	-0.204147
C181	C	-0.302676	-1.080248	-0.834221
C182	C	0.030658	-0.746915	-0.500888
C183	C	0.363991	-0.413582	-0.167555
C184	C	-0.331140	-1.110454	-0.170019
C185	C	0.002193	-0.777121	0.163315
C186	C	0.335527	-0.443788	0.496648
C187	C	-0.334287	-1.114155	-0.092087
C188	C	-0.000954	-0.780822	0.241246
C189	C	0.332379	-0.447488	0.574579
H190	H	-0.238654	-0.654986	-0.430192
H191	H	0.094679	-0.321652	-0.096859
H192	H	0.428012	0.011681	0.236474
N193	N	-0.840158	-1.022972	-0.420061
N194	N	-0.506824	-0.689639	-0.086728
N195	N	-0.173491	-0.356306	0.246606
N196	N	-0.805767	-0.977904	-0.458649
N197	N	-0.472433	-0.644571	-0.125316
N198	N	-0.139100	-0.311238	0.208017
H199	H	-0.830796	-0.938876	-0.492089
H200	H	-0.497463	-0.605542	-0.158756
H201	H	-0.164129	-0.272209	0.174578
N202	N	-0.228975	-0.393698	-0.439112
N203	N	0.104359	-0.060364	-0.105778
N204	N	0.437692	0.272969	0.227555
N205	N	-0.187281	-0.430496	-0.477501
N206	N	0.146052	-0.097163	-0.144168
N207	N	0.479385	0.236171	0.189166
H208	H	-0.153580	-0.401091	-0.508520
H209	H	0.179753	-0.067757	-0.175187
H210	H	0.513087	0.265576	0.158146
H211	H	-0.586786	-0.993971	-0.444804
H212	H	-0.253453	-0.660638	-0.111471
H213	H	0.079880	-0.327305	0.221863
N214	N	-0.911510	-1.016864	-0.425382
N215	N	-0.578177	-0.683530	-0.092048
N216	N	-0.244844	-0.350197	0.241285
N217	N	-0.868707	-1.044437	-0.468333
N218	N	-0.535374	-0.711104	-0.135000
N219	N	-0.202040	-0.377770	0.198334
H220	H	-0.840922	-1.008038	-0.499531
H221	H	-0.507589	-0.674704	-0.166198
H222	H	-0.174255	-0.341371	0.167135
H223	H	-0.408091	-0.550087	-0.274133
H224	H	-0.074757	-0.216753	0.059200
H225	H	0.258576	0.116580	0.392534
N226	N	-0.726818	-0.976210	-0.460086
N227	N	-0.393485	-0.642877	-0.126753
N228	N	-0.060151	-0.309543	0.206580
N229	N	-0.768778	-0.925317	-0.437127
N230	N	-0.435445	-0.591983	-0.103793
N231	N	-0.102112	-0.258650	0.229540
H232	H	-0.793821	-0.886298	-0.470565
H233	H	-0.460488	-0.552965	-0.137232
H234	H	-0.127154	-0.219632	0.196101
N235	N	-0.417754	-0.811392	-0.265220
N236	N	-0.084420	-0.478059	0.068113
N237	N	0.248913	-0.144725	0.401447
N238	N	-0.461408	-0.853785	-0.291708
N239	N	-0.128075	-0.520452	0.041625
N240	N	0.205258	-0.187119	0.374959
H241	H	-0.495099	-0.883201	-0.260685
H242	H	-0.161766	-0.549868	0.072648
H243	H	0.171567	-0.216535	0.405982
H244	H	-0.238645	-0.803705	-0.430188
H245	H	0.094689	-0.470371	-0.096855
H246	H	0.428022	-0.137038	0.236479
H247	H	-0.238664	-0.550856	-0.430205
H248	H	0.094669	-0.217523	-0.096872
H249	H	0.428002	0.115811	0.236462
H250	H	-1.059247	-1.210434	-0.259555
H251	H	-0.725914	-0.877101	0.073779
H252	H	-0.392581	-0.543767	0.407112
N253	N	-0.243602	-1.017218	-1.089033
N254	N	0.089731	-0.683885	-0.755699
N255	N	0.423064	-0.350552	-0.422366
N256	N	-0.240797	-1.014256	-1.154403
N257	N	0.092536	-0.680923	-0.821070
N258	N	0.425869	-0.347589	-0.487737
H259	H	-0.207307	-0.978480	-1.179445
H260	H	0.126026	-0.645147	-0.846111
H261	H	0.459359	-0.311813	-0.512778
H262	H	-0.258923	-1.033519	-0.949005
H263	H	0.074411	-0.700186	-0.615672
H264	H	0.407744	-0.366853	-0.282338
H265	H	-0.408103	-0.401358	-0.274149
H266	H	-0.074770	-0.068025	0.059184
H267	H	0.258563	0.265309	0.392518
H268	H	-0.813057	-1.170215	-0.293904
H269	H	-0.479723	-0.836882	0.039429
H270	H	-0.146390	-0.503549	0.372762
H271	H	-0.408075	-0.654206	-0.274128
H272	H	-0.074742	-0.320873	0.059205
H273	H	0.258591	0.012460	0.392539
H274	H	-0.593710	-1.183651	-0.282251
H275	H	-0.260377	-0.850318	0.051082
H276	H	0.072956	-0.516984	0.384415
N277	N	-0.734507	-1.187575	-0.278995
N278	N	-0.401173	-0.854242	0.054339
N279	N	-0.067840	-0.520909	0.387672
N280	N	-0.703514	-1.235862	-0.237607
N281	N	-0.370181	-0.902529	0.095726
N282	N	-0.036848	-0.569196	0.429060
H283	H	-0.731290	-1.272290	-0.206427
H284	H	-0.397956	-0.938957	0.126906
H285	H	-0.064623	-0.605623	0.460240
H286	H	-0.415934	-1.201454	-1.088742
H287	H	-0.082601	-0.868121	-0.755409
H288	H	0.250733	-0.534787	-0.422075
H289	H	-0.224830	-0.996964	-0.749124
H290	H	0.108504	-0.663631	-0.415791
H291	H	0.441837	-0.330297	-0.082457
H292	H	-0.230531	-1.003001	-0.616292
H293	H	0.102802	-0.669668	-0.282959
H294	H	0.436135	-0.336335	0.050375
N295	N	-0.402867	-1.187231	-0.616004
N296	N	-0.069534	-0.853898	-0.282671
N297	N	0.263800	-0.520565	0.050662
N298	N	-0.449293	-1.159209	-0.577046
N299	N	-0.115959	-0.825875	-0.243712
N300	N	0.217374	-0.492542	0.089621
H301	H	-0.482784	-1.194982	-0.552003
H302	H	-0.149451	-0.861648	-0.218670
H303	H	0.183883	-0.528315	0.114664
N304	N	-0.919231	-1.228196	-0.244255
N305	N	-0.585898	-0.894863	0.089079
N306	N	-0.252564	-0.561529	0.422412
N307	N	-0.953627	-1.273254	-0.205661
N308	N	-0.620294	-0.939920	0.127672
N309	N	-0.286961	-0.606587	0.461005
H310	H	-0.928603	-1.312270	-0.172207
H311	H	-0.595270	-0.978937	0.161126
H312	H	-0.261936	-0.645604	0.494459
N313	N	-0.396518	-1.180523	-0.764004
N314	N	-0.063185	-0.847190	-0.430671
N315	N	0.270149	-0.513857	-0.097338
N316	N	-0.437964	-1.224798	-0.733008
N317	N	-0.104630	-0.891464	-0.399674
N318	N	0.228703	-0.558131	-0.066341
H319	H	-0.469196	-1.258182	-0.760780
H320	H	-0.135862	-0.924848	-0.427447
H321	H	0.197471	-0.591515	-0.094113
N322	N	-0.431248	-1.217763	-0.948712
N323	N	-0.097915	-0.884429	-0.615379
N324	N	0.235419	-0.551096	-0.282046
N325	N	-0.434051	-1.220725	-0.883341
N326	N	-0.100718	-0.887391	-0.550008
N327	N	0.232615	-0.554058	-0.216675
H328	H	-0.467533	-1.256510	-0.858299
H329	H	-0.134199	-0.923176	-0.524965
H330	H	0.199134	-0.589843	-0.191632
H331	H	-1.052322	-1.020760	-0.422110
H332	H	-0.718989	-0.687427	-0.088777
H333	H	-0.385656	-0.354093	0.244556
H334	H	-0.264882	-1.039865	-0.862481
H335	H	0.068451	-0.706531	-0.529147
H336	H	0.401784	-0.373198	-0.195814
N337	N	-0.391191	-1.174881	-0.835360
N338	N	-0.057858	-0.841548	-0.502027
N339	N	0.275475	-0.508215	-0.168694
N340	N	-0.368287	-1.227999	-0.793464
N341	N	-0.034954	-0.894666	-0.460131
N342	N	0.298379	-0.561332	-0.126797
H343	H	-0.401768	-1.263786	-0.768422
H344	H	-0.068434	-0.930452	-0.435089
H345	H	0.264899	-0.597119	-0.101755
