data_functionalizedCrystal
_audit_creation_method	'MofGen! by Chris Wilmer'
_symmetry_space_group_name_H-M	'P1'
_symmetry_Int_Tables_number	1
_symmetry_cell_setting	triclinic
loop_
_symmetry_equiv_pos_as_xyz
  x,y,z
_cell_length_a	19.851628
_cell_length_b	20.875641
_cell_length_c	20.875625
_cell_angle_alpha	59.251205
_cell_angle_beta	92.971553
_cell_angle_gamma	62.443808
loop_
_atom_site_label
_atom_site_type_symbol
_atom_site_fract_x
_atom_site_fract_y
_atom_site_fract_z
Zr1	Zr	0.669969	0.702186	-0.109976
O2	O	0.561720	0.835995	-0.217303
O3	O	0.699762	0.568370	-0.073670
O4	O	0.697356	0.702191	-0.212401
O5	O	0.569881	0.702173	0.026988
O6	O	0.808205	0.702204	-0.212407
O7	O	0.564126	0.702174	-0.078572
O8	O	0.812508	0.462822	0.035757
O9	O	0.565578	0.941554	-0.221176
O10	O	0.799290	0.623423	-0.062304
O11	O	0.720859	0.623413	0.016479
O12	O	0.718027	0.780970	-0.146859
O13	O	0.639597	0.780959	-0.068075
Zr14	Zr	0.855938	0.702204	0.058370
Zr15	Zr	0.846760	0.702206	-0.109986
Zr16	Zr	0.679147	0.702184	0.058380
Zr17	Zr	0.676120	0.870541	-0.116153
Zr18	Zr	0.849786	0.533850	0.064547
O19	O	0.826145	0.836020	0.022064
O20	O	0.813095	0.836023	-0.217317
O21	O	0.574771	0.835992	0.022078
O22	O	0.964186	0.568396	0.165697
O23	O	0.951136	0.568398	-0.073684
O24	O	0.712812	0.568367	0.165711
O25	O	0.956026	0.702218	-0.078594
O26	O	0.828551	0.702199	0.160795
O27	O	0.717702	0.702187	0.160801
O28	O	0.961781	0.702217	0.026966
O29	O	0.706103	0.941570	-0.221184
O30	O	0.819803	0.462821	0.169578
O31	O	0.960329	0.462836	0.169570
O32	O	0.953033	0.462838	0.035749
O33	O	0.572873	0.941553	-0.087355
O34	O	0.713399	0.941568	-0.087363
O35	O	0.807879	0.623421	0.095253
O36	O	0.886310	0.623431	0.016470
O37	O	0.805047	0.780978	-0.068085
O38	O	0.726617	0.780968	0.010698
C39	C	0.755258	0.491609	-0.018076
C40	C	0.752647	0.420138	-0.015454
C41	C	0.541814	0.702171	-0.025790
C42	C	0.466762	0.702162	-0.025786
C43	C	0.792357	0.386567	-0.055346
C44	C	0.789906	0.319407	-0.052875
C45	C	0.747738	0.285826	-0.010515
C46	C	0.708027	0.319400	0.029382
C47	C	0.710483	0.386554	0.026914
C48	C	0.736005	0.084980	0.001278
C49	C	0.733549	0.017824	0.003740
C50	C	0.815430	0.017834	-0.078515
C51	C	0.817879	0.084993	-0.080983
C52	C	0.778171	0.118558	-0.041082
N53	N	0.745229	0.217180	-0.007990
N54	N	0.780685	0.187198	-0.043603
C55	C	0.329704	0.616281	0.020306
C56	C	0.265522	0.659220	0.049866
C57	C	0.329331	0.702186	-0.025797
C58	C	0.259780	0.659241	-0.055329
C59	C	0.196582	0.702202	-0.025807
C60	C	0.266139	0.745125	0.003806
C61	C	0.260405	0.745134	-0.101430
C62	C	0.196211	0.788135	-0.071891
C63	C	0.405806	0.702174	-0.025789
C64	C	0.120105	0.702221	-0.025813
C65	C	0.984092	0.702220	-0.025816
C66	C	1.059145	0.702228	-0.025820
C67	C	0.751473	0.702198	-0.236391
C68	C	0.747576	0.702199	-0.307863
C69	C	0.770648	0.912781	-0.033529
C70	C	0.773260	0.984252	-0.036152
C71	C	0.806813	0.702207	-0.341444
C72	C	0.803154	0.702200	-0.408595
C73	C	0.740254	0.702191	-0.442167
C74	C	0.681014	0.702180	-0.408580
C75	C	0.684678	0.702181	-0.341426
C76	C	0.722754	0.702182	-0.643003
C77	C	0.719094	0.702184	-0.710162
C78	C	0.841234	0.702202	-0.710172
C79	C	0.844889	0.702208	-0.643020
C80	C	0.785652	0.702192	-0.609436
N81	N	0.736511	0.702186	-0.510807
N82	N	0.789399	0.702190	-0.540793
C83	C	0.774434	0.702193	0.184785
C84	C	0.778330	0.702192	0.256257
C85	C	0.976397	0.491634	-0.018089
C86	C	1.048838	0.420172	-0.015471
C87	C	0.766739	0.491607	0.192512
C88	C	0.768024	0.420135	0.266606
C89	C	0.987878	0.491632	0.192499
C90	C	1.064215	0.420168	0.266589
C91	C	0.538029	0.912759	-0.244105
C92	C	0.461692	0.984222	-0.318195
C93	C	0.549509	0.912756	-0.033517
C94	C	0.477069	0.984219	-0.036135
C95	C	0.759168	0.912784	-0.244118
C96	C	0.757883	0.984256	-0.318212
C97	C	1.037433	0.386608	-0.055368
C98	C	1.105492	0.319470	-0.052924
C99	C	1.184955	0.285894	-0.010578
C100	C	1.196358	0.319464	0.029319
C101	C	1.128300	0.386605	0.026870
C102	C	0.814051	0.386576	0.342527
C103	C	0.815256	0.319430	0.412152
C104	C	0.770437	0.285840	0.405855
C105	C	0.724404	0.319406	0.329925
C106	C	0.723196	0.386555	0.260301
C107	C	1.141011	0.386614	0.260258
C108	C	1.212745	0.319475	0.329866
C109	C	1.207680	0.285889	0.405805
C110	C	1.130876	0.319450	0.412134
C111	C	1.059144	0.386591	0.342526
C112	C	0.384896	1.017785	-0.311864
C113	C	0.313163	1.084944	-0.381473
C114	C	0.318227	1.118534	-0.457412
C115	C	0.395031	1.084969	-0.463741
C116	C	0.466763	1.017816	-0.394132
C117	C	0.488473	1.017790	0.003755
C118	C	0.420414	1.084946	0.001291
C119	C	0.340952	1.118525	-0.041057
C120	C	0.329548	1.084951	-0.080951
C121	C	0.397606	1.017801	-0.078492
C122	C	0.802710	1.017824	-0.311888
C123	C	0.801519	1.084970	-0.381500
C124	C	0.755496	1.118552	-0.457436
C125	C	0.710667	1.084977	-0.463758
C126	C	0.711863	1.017827	-0.394146
H127	H	0.826690	0.413908	-0.089844
O128	O	1.094549	0.286788	-0.091658
C129	C	1.171651	0.220312	-0.080408
H130	H	1.219630	0.231343	-0.065688
H131	H	1.189740	0.150073	-0.028594
C132	C	1.107699	0.214132	-0.176077
C133	C	1.166626	0.227684	-0.158004
H134	H	1.104600	0.218675	-0.223939
H135	H	1.055753	0.258915	-0.183654
H136	H	1.122780	0.155599	-0.132893
H137	H	1.151539	0.286219	-0.201183
H138	H	1.218570	0.182911	-0.150435
O139	O	0.898827	0.702241	-0.742709
C140	C	0.955144	0.702218	-0.698660
H141	H	0.925116	0.730788	-0.666126
H142	H	1.011637	0.629838	-0.652667
C143	C	1.017792	0.726283	-0.796580
C144	C	0.980909	0.761381	-0.756626
H145	H	1.033689	0.762774	-0.832334
H146	H	0.979853	0.726295	-0.826255
H147	H	1.064866	0.665967	-0.758245
H148	H	0.933831	0.821691	-0.794960
H149	H	1.018841	0.761381	-0.726959
O150	O	0.697356	0.117512	0.040047
C151	C	0.659628	0.073456	0.077976
H152	H	0.648305	0.045788	0.046735
H153	H	0.701447	0.015132	0.143940
C154	C	0.591127	0.175474	0.110872
C155	C	0.577214	0.141498	0.072497
H156	H	0.540292	0.217443	0.107497
H157	H	0.616547	0.205154	0.085322
H158	H	0.625978	0.126863	0.165839
H159	H	0.542372	0.190106	0.017530
H160	H	0.551786	0.111828	0.098038
H161	H	0.771428	0.231163	0.462553
O162	O	1.273607	0.286711	0.070449
C163	C	1.331221	0.220268	0.064035
H164	H	1.301821	0.190918	0.049959
H165	H	1.351772	0.252395	0.013623
C166	C	1.442218	0.179986	0.161432
C167	C	1.406111	0.143932	0.144149
H168	H	1.488416	0.132900	0.210848
H169	H	1.403403	0.224752	0.165751
H170	H	1.459337	0.206757	0.119416
H171	H	1.388984	0.117171	0.186160
H172	H	1.444925	0.099159	0.139839
H173	H	0.687915	0.292047	0.324809
H174	H	0.852744	0.292108	0.473970
O175	O	0.828357	0.286808	-0.091682
C176	C	0.770369	0.303224	-0.150002
H177	H	0.714780	0.311581	-0.133020
H178	H	0.750192	0.367790	-0.211359
C179	C	0.877647	0.212386	-0.174624
C180	C	0.809375	0.222642	-0.153762
H181	H	0.901707	0.162682	-0.176947
H182	H	0.916715	0.201328	-0.135335
H183	H	0.860823	0.266196	-0.225752
H184	H	0.826200	0.168837	-0.102631
H185	H	0.770310	0.233689	-0.193043
H186	H	1.137598	0.413924	0.059364
H187	H	0.636442	0.702172	-0.314085
H188	H	0.852215	0.112334	-0.115475
H189	H	0.388308	0.990470	-0.110973
H190	H	0.553171	0.990455	0.038244
H191	H	0.673698	0.292048	0.063876
O192	O	0.678476	0.419016	0.186616
C193	C	0.639168	0.374977	0.195998
H194	H	0.673821	0.306923	0.258428
H195	H	0.573450	0.419011	0.188878
C196	C	0.595634	0.442901	0.054854
C197	C	0.638199	0.359313	0.131529
H198	H	0.595033	0.433242	0.015085
H199	H	0.622114	0.472574	0.048532
H200	H	0.540873	0.479587	0.048932
H201	H	0.692961	0.322632	0.137453
H202	H	0.611729	0.329633	0.137851
H203	H	1.145150	0.413950	0.198432
O204	O	0.853992	-0.014905	-0.117192
C205	C	0.842768	-0.081361	-0.105951
H206	H	0.828817	-0.110730	-0.049334
H207	H	0.789346	-0.049242	-0.160259
C208	C	0.938649	-0.121600	-0.166327
C209	C	0.921522	-0.157676	-0.096785
H210	H	0.987226	-0.168673	-0.160677
H211	H	0.946210	-0.076824	-0.173904
H212	H	0.894125	-0.094834	-0.211577
H213	H	0.966041	-0.184431	-0.051539
H214	H	0.913971	-0.202458	-0.089201
O215	O	0.668232	0.985358	-0.400440
C216	C	0.627372	1.029389	-0.482391
H217	H	0.619378	1.097445	-0.520689
H218	H	0.665149	0.985353	-0.500565
C219	C	0.552327	0.961453	-0.448590
C220	C	0.542502	1.045044	-0.495627
H221	H	0.499977	0.971106	-0.456755
H222	H	0.579857	0.931785	-0.393377
H223	H	0.583811	0.924764	-0.463740
H224	H	0.511028	1.081726	-0.480470
H225	H	0.514965	1.074719	-0.550837
H226	H	1.275275	0.292157	0.324699
H227	H	0.678144	0.413889	0.059397
O228	O	0.397888	0.529618	0.066991
C229	C	0.401204	0.484649	0.146687
H230	H	0.363827	0.536771	0.157283
H231	H	0.374745	0.443566	0.156737
C232	C	0.536968	0.356597	0.192838
C233	C	0.491066	0.420614	0.205855
H234	H	0.592399	0.317094	0.229337
H235	H	0.534734	0.386891	0.139146
H236	H	0.514910	0.322370	0.201213
H237	H	0.513119	0.454847	0.197470
H238	H	0.493307	0.390324	0.259548
O239	O	0.270037	0.788549	0.033567
C240	C	0.200069	0.878845	-0.014763
H241	H	0.173377	0.900242	-0.077344
H242	H	0.152184	0.884006	0.013774
C243	C	0.257163	0.915323	0.055298
C244	C	0.224384	0.941606	-0.021568
H245	H	0.272159	0.954038	0.051102
H246	H	0.304301	0.854489	0.087861
H247	H	0.217253	0.919624	0.079070
H248	H	0.264296	0.937294	-0.045335
H249	H	0.177253	1.002442	-0.054135
H250	H	1.266095	0.231218	0.462477
O251	O	0.692753	-0.015030	0.044970
C252	C	0.747978	-0.109120	0.106100
H253	H	0.802819	-0.137495	0.089806
H254	H	0.770052	-0.121964	0.165571
C255	C	0.637047	-0.121366	0.134563
C256	C	0.704400	-0.156218	0.114547
H257	H	0.610166	-0.150419	0.139777
H258	H	0.599840	-0.057975	0.093381
H259	H	0.655452	-0.132072	0.184120
H260	H	0.685993	-0.145501	0.064986
H261	H	0.741603	-0.219608	0.155721
H262	H	1.126765	0.292094	0.473972
O263	O	0.984611	0.419047	0.348827
C264	C	0.995534	0.375013	0.430780
H265	H	1.057936	0.306963	0.469074
H266	H	0.992439	0.419053	0.448951
C267	C	0.850709	0.442924	0.396991
C268	C	0.927350	0.359340	0.444024
H269	H	0.808648	0.433260	0.405161
H270	H	0.843348	0.472594	0.341777
H271	H	0.848141	0.479616	0.412139
H272	H	0.929920	0.322655	0.428869
H273	H	0.934709	0.329664	0.499236
O274	O	0.847495	0.985280	-0.238191
C275	C	0.886786	1.029332	-0.247554
H276	H	0.893077	1.057003	-0.308497
H277	H	0.848754	1.087652	-0.244189
C278	C	0.964855	0.927304	-0.105154
C279	C	0.972588	0.961284	-0.180002
H280	H	1.017780	0.885331	-0.063483
H281	H	0.938382	0.897627	-0.098844
H282	H	0.933158	0.975912	-0.102361
H283	H	1.004275	0.912678	-0.182797
H284	H	0.999068	0.990951	-0.186310
H285	H	0.380756	0.990440	-0.250038
H286	H	0.429716	1.112270	0.033782
H287	H	0.529291	0.990489	-0.399296
H288	H	0.285541	1.173203	-0.043052
O289	O	0.657962	0.702121	-0.742647
C290	C	0.606454	0.702124	-0.698615
H291	H	0.641698	0.673571	-0.635419
H292	H	0.550723	0.774495	-0.730317
C293	C	0.534578	0.678003	-0.770675
C294	C	0.577867	0.642927	-0.693055
H295	H	0.516940	0.641492	-0.767248
H296	H	0.569277	0.678005	-0.800343
H297	H	0.488141	0.738312	-0.797086
H298	H	0.624309	0.582624	-0.666650
H299	H	0.543175	0.642914	-0.663383
H300	H	0.896107	0.702215	-0.615687
H301	H	0.264840	1.112302	-0.115430
O302	O	0.845163	1.117499	-0.375385
C303	C	0.903190	1.101110	-0.411169
H304	H	0.916925	1.042258	-0.412115
H305	H	0.877425	1.164494	-0.475433
C306	C	0.965958	1.149372	-0.361008
C307	C	0.982832	1.077083	-0.362163
H308	H	1.015084	1.134555	-0.330782
H309	H	0.926862	1.160417	-0.336903
H310	H	0.944485	1.202185	-0.414565
H311	H	1.004295	1.024275	-0.308609
H312	H	1.021934	1.066029	-0.386259
O313	O	0.238612	1.117550	-0.375215
C314	C	0.233258	1.156389	-0.335211
H315	H	0.297655	1.126057	-0.297046
H316	H	0.199971	1.232874	-0.381498
C317	C	0.106292	1.173721	-0.327417
C318	C	0.185385	1.136462	-0.280536
H319	H	0.076758	1.161434	-0.293694
H320	H	0.109897	1.147558	-0.354371
H321	H	0.078563	1.237457	-0.365987
H322	H	0.213115	1.072727	-0.241975
H323	H	0.181783	1.162614	-0.253574
O324	O	0.666075	1.117593	-0.537566
C325	C	0.718667	1.101174	-0.578264
H326	H	0.776605	1.092795	-0.552298
H327	H	0.735916	1.036620	-0.570330
C328	C	0.603390	1.192052	-0.700404
C329	C	0.674548	1.181768	-0.668517
H330	H	0.576175	1.241764	-0.756077
H331	H	0.567957	1.203111	-0.672985
H332	H	0.617774	1.138251	-0.693785
H333	H	0.660162	1.235564	-0.675127
H334	H	0.709977	1.170720	-0.695939
O335	O	0.267365	0.615837	0.126223
C336	C	0.340251	0.584732	0.179850
H337	H	0.388553	0.577378	0.151808
H338	H	0.327313	0.635529	0.192444
C339	C	0.312773	0.501101	0.293736
C340	C	0.372100	0.492061	0.259298
H341	H	0.332417	0.443940	0.342745
H342	H	0.263666	0.522059	0.257607
H343	H	0.301996	0.543435	0.304225
H344	H	0.382868	0.449737	0.248801
H345	H	0.421210	0.471094	0.295427
H346	H	0.139147	0.860831	-0.110876
H347	H	0.259020	0.781410	-0.165374
H348	H	0.259813	1.173215	-0.514085
H349	H	0.256358	0.622919	-0.080303
H350	H	0.858030	0.702220	-0.314117
O351	O	0.860734	0.702263	-0.441145
C352	C	0.917040	0.702261	-0.397108
H353	H	0.887014	0.730812	-0.364561
H354	H	0.973551	0.629890	-0.351128
C355	C	0.979650	0.726386	-0.495059
C356	C	0.942769	0.761460	-0.455089
H357	H	0.995524	0.762899	-0.530822
H358	H	0.941717	0.726384	-0.524726
H359	H	1.026737	0.666077	-0.456734
H360	H	0.895677	0.821763	-0.493413
H361	H	0.980694	0.761474	-0.425429
O362	O	0.399845	1.117525	-0.537545
C363	C	0.358719	1.101110	-0.578182
H364	H	0.355749	1.042227	-0.532397
H365	H	0.293794	1.164469	-0.620292
C366	C	0.409161	1.149454	-0.683773
C367	C	0.405519	1.077127	-0.627537
H368	H	0.438027	1.134665	-0.714221
H369	H	0.436866	1.160517	-0.656397
H370	H	0.355054	1.202247	-0.718857
H371	H	0.459625	1.024340	-0.592449
H372	H	0.377824	1.066055	-0.654909
H373	H	0.674519	0.702171	-0.615665
H374	H	0.629802	0.702167	-0.435915
H375	H	0.972736	0.413945	-0.089860
H376	H	0.850548	0.413917	0.347670
H377	H	1.240365	0.231222	-0.008590
H378	H	0.754529	1.173230	-0.514112
