data_functionalizedCrystal
_audit_creation_method	'MofGen! by Chris Wilmer'
_symmetry_space_group_name_H-M	'P1'
_symmetry_Int_Tables_number	1
_symmetry_cell_setting	triclinic
loop_
_symmetry_equiv_pos_as_xyz
  x,y,z
_cell_length_a	14.519709
_cell_length_b	10.654550
_cell_length_c	12.996460
_cell_angle_alpha	90.000521
_cell_angle_beta	89.999398
_cell_angle_gamma	95.917476
loop_
_atom_site_label
_atom_site_type_symbol
_atom_site_fract_x
_atom_site_fract_y
_atom_site_fract_z
O1	O	-1.224724	0.164614	0.085433
O2	O	-0.956348	0.184001	0.085465
O3	O	-1.096706	-0.008491	0.085441
O4	O	-1.084365	0.357106	0.085457
O5	O	-1.096688	-0.008480	-0.085693
O6	O	-0.956329	0.184012	-0.085669
O7	O	-1.224706	0.164626	-0.085700
Cu8	Cu	-1.090516	0.174320	-0.101310
Cu9	Cu	-1.090537	0.174307	0.101075
O10	O	-1.084347	0.357117	-0.085676
C11	C	-0.921974	0.183103	-0.000098
C12	C	-0.819579	0.180396	-0.000086
C13	C	-1.095791	-0.055275	-0.000126
C14	C	-1.093080	-0.194692	-0.000124
C15	C	-1.259079	0.165524	-0.000135
C16	C	-1.361475	0.168231	-0.000140
C17	C	-0.444631	0.170428	-0.000133
C18	C	-0.548954	0.173196	-0.000120
C19	C	-0.632102	0.175412	-0.000109
C20	C	-0.736431	0.178180	-0.000097
C21	C	-1.085262	0.403901	-0.000108
C22	C	-1.087973	0.543318	-0.000102
N23	N	-1.090508	0.174328	-0.243658
C24	C	-1.005332	0.623599	-0.000102
C25	C	-1.007885	0.754595	-0.000110
C26	C	-1.175727	0.725018	-0.000121
C27	C	-1.173173	0.594024	-0.000106
C28	C	-0.920132	0.572893	-0.000098
C29	C	-0.837485	0.653175	-0.000099
C30	C	-0.840037	0.784171	-0.000106
C31	C	-0.925238	0.834886	-0.000113
C32	C	-1.090512	0.174332	-0.336764
C33	C	-1.090520	0.174323	-0.453569
C34	C	-1.090532	0.174309	-0.546667
C35	C	-1.090542	0.174302	-0.663480
N36	N	-1.090553	0.174288	0.243422
H37	H	-0.918044	0.466231	-0.000093
C38	C	-1.269442	0.780802	-0.000139
C39	C	-1.294266	0.866772	-0.089021
C40	C	-1.387983	0.922555	-0.089044
C41	C	-1.456875	0.892368	-0.000184
C42	C	-1.432053	0.806393	0.088704
C43	C	-1.338337	0.750611	0.088727
H44	H	-1.243266	0.889122	-0.154806
H45	H	-1.406357	0.986199	-0.154845
H46	H	-1.526250	0.933661	-0.000201
H47	H	-1.483053	0.784043	0.154489
H48	H	-1.319962	0.686967	0.154528
H49	H	-0.768117	0.611874	-0.000085
C50	C	-1.264076	0.505703	-0.000111
C51	C	-1.333653	0.511486	-0.088986
C52	C	-1.424557	0.423163	-0.088987
C53	C	-1.445885	0.329056	-0.000112
C54	C	-1.376306	0.323268	0.088770
C55	C	-1.285402	0.411592	0.088770
H56	H	-1.317866	0.581153	-0.154783
H57	H	-1.476063	0.427448	-0.154783
H58	H	-1.513177	0.263673	-0.000112
H59	H	-1.392093	0.253601	0.154566
H60	H	-1.233896	0.407307	0.154567
H61	H	-0.772742	0.849533	-0.000098
H62	H	-0.927310	0.941553	-0.000114
