data_functionalizedCrystal
_audit_creation_method	'MofGen! by Chris Wilmer'
_symmetry_space_group_name_H-M	'P1'
_symmetry_Int_Tables_number	1
_symmetry_cell_setting	triclinic
loop_
_symmetry_equiv_pos_as_xyz
  x,y,z
_cell_length_a	16.625545
_cell_length_b	21.295418
_cell_length_c	16.625539
_cell_angle_alpha	89.956100
_cell_angle_beta	90.028107
_cell_angle_gamma	89.956233
loop_
_atom_site_label
_atom_site_type_symbol
_atom_site_fract_x
_atom_site_fract_y
_atom_site_fract_z
Zn1	Zn	-0.320608	-0.962353	0.456413
Zn2	Zn	0.012725	-0.629020	0.789746
Zn3	Zn	0.346058	-0.295686	1.123079
Zn4	Zn	-0.455451	-0.962272	0.321580
Zn5	Zn	-0.122118	-0.628938	0.654914
Zn6	Zn	0.211215	-0.295605	0.988247
Zn7	Zn	-0.320679	-0.857083	0.321538
Zn8	Zn	0.012654	-0.523750	0.654872
Zn9	Zn	0.345987	-0.190417	0.988205
Zn10	Zn	-0.455445	-0.857055	0.456315
Zn11	Zn	-0.122112	-0.523721	0.789649
Zn12	Zn	0.211221	-0.190388	1.122982
O13	O	-0.388046	-0.909691	0.388962
O14	O	-0.054713	-0.576357	0.722295
O15	O	0.278621	-0.243024	1.055628
O16	O	-0.338468	-1.050432	0.438585
O17	O	-0.005135	-0.717098	0.771918
O18	O	0.328199	-0.383765	1.105252
O19	O	-0.437606	-0.948296	0.208742
O20	O	-0.104272	-0.614963	0.542076
O21	O	0.229061	-0.281630	0.875409
O22	O	-0.207837	-0.871094	0.339453
O23	O	0.125496	-0.537760	0.672786
O24	O	0.458829	-0.204427	1.006119
O25	O	-0.437537	-1.050372	0.339524
O26	O	-0.104204	-0.717039	0.672858
O27	O	0.229130	-0.383705	1.006191
O28	O	-0.207785	-0.948435	0.438544
O29	O	0.125548	-0.615101	0.771878
O30	O	0.458881	-0.281768	1.105211
O31	O	-0.338589	-0.871015	0.208711
O32	O	-0.005256	-0.537682	0.542045
O33	O	0.328077	-0.204348	0.875378
O34	O	-0.338584	-0.768990	0.339358
O35	O	-0.005250	-0.435657	0.672692
O36	O	0.328083	-0.102323	1.006025
O37	O	-0.437527	-0.871045	0.569161
O38	O	-0.104193	-0.537711	0.902494
O39	O	0.229140	-0.204378	1.235827
O40	O	-0.437596	-0.768969	0.438378
O41	O	-0.104262	-0.435636	0.771712
O42	O	0.229071	-0.102302	1.105045
O43	O	-0.338462	-0.948407	0.569232
O44	O	-0.005129	-0.615074	0.902565
O45	O	0.328204	-0.281740	1.235899
O46	O	-0.568283	-0.948268	0.339430
O47	O	-0.234950	-0.614935	0.672763
O48	O	0.098384	-0.281602	1.006097
O49	O	-0.568279	-0.870966	0.438419
O50	O	-0.234945	-0.537633	0.771752
O51	O	0.098388	-0.204299	1.105086
C52	C	-0.388097	-0.746139	0.388854
C53	C	-0.054764	-0.412806	0.722187
C54	C	0.278569	-0.079472	1.055520
C55	C	-0.388139	-0.676171	0.388827
C56	C	-0.054805	-0.342838	0.722160
C57	C	0.278528	-0.009504	1.055493
C58	C	-0.597537	-0.909622	0.388936
C59	C	-0.264204	-0.576289	0.722269
C60	C	0.069130	-0.242956	1.055603
C61	C	-0.687158	-0.909651	0.388952
C62	C	-0.353825	-0.576317	0.722286
C63	C	-0.020491	-0.242984	1.055619
C64	C	-0.439764	-0.643310	0.440306
C65	C	-0.106431	-0.309976	0.773640
C66	C	0.226902	0.023357	1.106973
C67	C	-0.439748	-0.577567	0.440336
C68	C	-0.106415	-0.244234	0.773670
C69	C	0.226919	0.089099	1.107003
C70	C	-0.388114	-0.544688	0.388873
C71	C	-0.054781	-0.211355	0.722206
C72	C	0.278552	0.121978	1.055539
C73	C	-0.336479	-0.577557	0.337389
C74	C	-0.003145	-0.244224	0.670723
C75	C	0.330188	0.089109	1.004056
C76	C	-0.336491	-0.643299	0.337366
C77	C	-0.003157	-0.309965	0.670700
C78	C	0.330176	0.023368	1.004033
N79	N	-0.381823	-0.441416	0.318340
N80	N	-0.048490	-0.108082	0.651673
N81	N	0.284843	0.225251	0.985007
N82	N	-0.381816	-0.378964	0.318364
N83	N	-0.048483	-0.045631	0.651697
N84	N	0.284850	0.287702	0.985031
C85	C	-0.388073	-0.346614	0.388940
C86	C	-0.054740	-0.013280	0.722273
C87	C	0.278593	0.320053	1.055606
N88	N	-0.394353	-0.379074	0.459492
N89	N	-0.061020	-0.045740	0.792825
N90	N	0.272313	0.287593	1.126159
N91	N	-0.394364	-0.441531	0.459467
N92	N	-0.061031	-0.108198	0.792800
N93	N	0.272302	0.225136	1.126134
C94	C	-0.388095	-0.473403	0.388892
C95	C	-0.054762	-0.140070	0.722225
C96	C	0.278572	0.193264	1.055559
C97	C	-0.439684	-0.242467	0.440457
C98	C	-0.106351	0.090866	0.773790
C99	C	0.226982	0.424200	1.107123
C100	C	-0.439662	-0.176723	0.440488
C101	C	-0.106329	0.156610	0.773821
C102	C	0.227004	0.489943	1.107155
C103	C	-0.336397	-0.176715	0.337534
C104	C	-0.003064	0.156618	0.670867
C105	C	0.330269	0.489952	1.004200
C106	C	-0.336415	-0.242457	0.337509
C107	C	-0.003082	0.090876	0.670843
C108	C	0.330252	0.424209	1.004176
C109	C	-0.388063	-0.275329	0.388970
C110	C	-0.054729	0.058004	0.722303
C111	C	0.278604	0.391337	1.055636
C112	C	-0.759940	-0.909675	0.388968
C113	C	-0.426607	-0.576342	0.722302
C114	C	-0.093274	-0.243008	1.055635
C115	C	-0.851249	-0.909712	0.388986
C116	C	-0.517916	-0.576378	0.722319
C117	C	-0.184582	-0.243045	1.055653
C118	C	-0.924025	-0.909744	0.388996
C119	C	-0.590692	-0.576411	0.722330
C120	C	-0.257359	-0.243078	1.055663
C121	C	-1.015340	-0.909780	0.389013
C122	C	-0.682006	-0.576447	0.722346
C123	C	-0.348673	-0.243114	1.055680
C124	C	-0.177737	-0.909776	0.389005
C125	C	0.155596	-0.576443	0.722338
C126	C	0.488930	-0.243110	1.055671
C127	C	-0.088116	-0.909813	0.389023
C128	C	0.245217	-0.576480	0.722356
C129	C	0.578551	-0.243146	1.055690
C130	C	-0.387986	-0.909732	0.599271
C131	C	-0.054653	-0.576398	0.932604
C132	C	0.278681	-0.243065	1.265937
C133	C	-0.387960	-0.909749	0.688892
C134	C	-0.054627	-0.576416	1.022225
C135	C	0.278706	-0.243082	1.355558
C136	C	-0.388009	-0.073881	0.389047
C137	C	-0.054675	0.259452	0.722381
C138	C	0.278658	0.592786	1.055714
C139	C	-0.388027	-0.143849	0.389025
C140	C	-0.054694	0.189484	0.722358
C141	C	0.278639	0.522818	1.055691
C142	C	-0.388048	-0.909686	0.179471
C143	C	-0.054714	-0.576353	0.512804
C144	C	0.278619	-0.243019	0.846137
C145	C	-0.387846	-0.909791	0.089850
C146	C	-0.054513	-0.576457	0.423183
C147	C	0.278821	-0.243124	0.756517
C148	C	-0.387870	-0.909778	1.017068
C149	C	-0.054537	-0.576445	1.350401
C150	C	0.278797	-0.243111	1.683734
C151	C	-0.387898	-0.909768	0.925759
C152	C	-0.054564	-0.576435	1.259092
C153	C	0.278769	-0.243102	1.592426
C154	C	-0.387916	-0.909764	0.852983
C155	C	-0.054583	-0.576431	1.186316
C156	C	0.278751	-0.243097	1.519649
C157	C	-0.387942	-0.909753	0.761668
C158	C	-0.054609	-0.576420	1.095002
C159	C	0.278724	-0.243087	1.428335
H160	H	-0.481819	-0.670070	0.482211
H161	H	-0.148485	-0.336737	0.815544
H162	H	0.184848	-0.003403	1.148877
O163	O	-0.489733	-0.274474	0.490488
O164	O	-0.156400	0.058859	0.823821
O165	O	0.176934	0.392193	1.157155
C166	C	-0.443898	-0.312568	0.542642
C167	C	-0.110565	0.020766	0.875975
C168	C	0.222768	0.354099	1.209308
H169	H	-0.382761	-0.322436	0.514305
H170	H	-0.049428	0.010897	0.847639
H171	H	0.283906	0.344230	1.180972
H172	H	-0.476764	-0.358782	0.553371
H173	H	-0.143431	-0.025449	0.886704
H174	H	0.189902	0.307884	1.220037
H175	H	-0.435108	-0.287289	0.602421
H176	H	-0.101774	0.046044	0.935754
H177	H	0.231559	0.379377	1.269087
O178	O	-0.489699	-0.144773	0.490586
O179	O	-0.156366	0.188560	0.823919
O180	O	0.176967	0.521894	1.157252
C181	C	-0.443858	-0.106812	0.542752
C182	C	-0.110525	0.226522	0.876085
C183	C	0.222808	0.559855	1.209418
H184	H	-0.380365	-0.126673	0.547842
H185	H	-0.047031	0.206660	0.881176
H186	H	0.286302	0.539993	1.214509
H187	H	-0.473106	-0.106098	0.604749
H188	H	-0.139772	0.227236	0.938083
H189	H	0.193561	0.560569	1.271416
H190	H	-0.441036	-0.056968	0.517848
H191	H	-0.107703	0.276365	0.851181
H192	H	0.225630	0.609698	1.184515
O193	O	-0.286258	-0.675251	0.287467
O194	O	0.047076	-0.341918	0.620801
O195	O	0.380409	-0.008585	0.954134
C196	C	-0.234261	-0.713369	0.333448
C197	C	0.099072	-0.380036	0.666781
C198	C	0.432405	-0.046702	1.000114
H199	H	-0.229355	-0.693614	0.396969
H200	H	0.103979	-0.360281	0.730302
H201	H	0.437312	-0.026948	1.063636
H202	H	-0.172173	-0.714138	0.304393
H203	H	0.161160	-0.380805	0.637727
H204	H	0.494493	-0.047471	0.971060
H205	H	-0.259209	-0.763176	0.336162
H206	H	0.074125	-0.429843	0.669495
H207	H	0.407458	-0.096510	1.002829
H208	H	-0.294352	-0.149946	0.295634
H209	H	0.038981	0.183388	0.628968
H210	H	0.372314	0.516721	0.962301
H211	H	-0.294380	-0.269213	0.295585
H212	H	0.038954	0.064120	0.628918
H213	H	0.372287	0.397453	0.962252
O214	O	-0.489972	-0.545734	0.490375
O215	O	-0.156638	-0.212401	0.823709
O216	O	0.176695	0.120933	1.157042
C217	C	-0.535539	-0.588845	0.535810
C218	C	-0.202205	-0.255512	0.869143
C219	C	0.131128	0.077821	1.202476
H220	H	-0.538304	-0.635679	0.502763
H221	H	-0.204970	-0.302346	0.836097
H222	H	0.128363	0.030987	1.169430
H223	H	-0.599072	-0.569808	0.544308
H224	H	-0.265739	-0.236475	0.877641
H225	H	0.067595	0.096859	1.210974
H226	H	-0.506089	-0.595909	0.597096
H227	H	-0.172756	-0.262575	0.930429
H228	H	0.160577	0.070758	1.263762
H229	H	-0.294437	-0.550783	0.295489
H230	H	0.038897	-0.217450	0.628822
H231	H	0.372230	0.115883	0.962155
