data_functionalizedCrystal
_audit_creation_method	'MofGen! by Chris Wilmer'
_symmetry_space_group_name_H-M	'P1'
_symmetry_Int_Tables_number	1
_symmetry_cell_setting	triclinic
loop_
_symmetry_equiv_pos_as_xyz
  x,y,z
_cell_length_a	12.759400
_cell_length_b	19.121424
_cell_length_c	12.759393
_cell_angle_alpha	87.588001
_cell_angle_beta	90.030447
_cell_angle_gamma	92.456794
loop_
_atom_site_label
_atom_site_type_symbol
_atom_site_fract_x
_atom_site_fract_y
_atom_site_fract_z
Zn1	Zn	-0.349631	1.073772	0.525786
Zn2	Zn	-0.525354	1.073705	0.350113
Zn3	Zn	-0.357186	0.956320	0.357585
Zn4	Zn	-0.532769	0.956316	0.533211
O5	O	-0.441235	1.015028	0.441674
O6	O	-0.366676	1.172045	0.496248
O7	O	-0.503105	1.058107	0.204085
O8	O	-0.209161	0.971931	0.379917
O9	O	-0.495779	1.171996	0.367182
O10	O	-0.203610	1.058222	0.503493
O11	O	-0.379553	0.971865	0.209575
O12	O	-0.386743	0.858038	0.387117
O13	O	-0.508417	0.971923	0.679246
O14	O	-0.515743	0.858034	0.516149
O15	O	-0.373866	1.058218	0.673790
O16	O	-0.673361	1.058103	0.374382
O17	O	-0.678809	0.971857	0.508904
C18	C	-0.452868	0.832552	0.453250
C19	C	-0.457870	0.754488	0.458227
C20	C	-0.714205	1.014991	0.441660
C21	C	-0.830978	1.015040	0.441685
C22	C	-0.489501	0.312975	0.489826
C23	C	-0.484809	0.386325	0.485130
C24	C	-0.415191	0.422978	0.415713
C25	C	-0.350269	0.386278	0.350981
C26	C	-0.354967	0.312930	0.355673
C27	C	-0.397646	0.644441	0.398187
C28	C	-0.392951	0.717794	0.393503
C29	C	-0.527493	0.717835	0.527650
C30	C	-0.532180	0.644486	0.532340
C31	C	-0.467262	0.607792	0.467604
C32	C	-0.410391	0.497953	0.410913
C33	C	-0.472067	0.532819	0.472399
C34	C	-0.882872	1.059950	0.506087
C35	C	-0.992594	1.059982	0.506111
C36	C	-0.998519	0.970194	0.377320
C37	C	-0.888800	0.970158	0.377303
C38	C	-0.825051	1.104831	0.570469
C39	C	-0.876944	1.149745	0.634876
C40	C	-0.986666	1.149778	0.634899
C41	C	-1.044495	1.104897	0.570516
C42	C	-0.167198	1.015084	0.441710
C43	C	-0.050420	1.015108	0.441725
C44	C	-0.429557	1.198217	0.430053
C45	C	-0.424581	1.276281	0.425101
C46	C	-0.441126	1.015077	0.715704
C47	C	-0.441080	1.015098	0.832480
C48	C	-0.441265	1.015020	0.168707
C49	C	-0.441007	1.015135	0.051924
C50	C	-0.371012	1.060038	0.884502
C51	C	-0.370973	1.060055	0.994225
C52	C	-0.511078	0.970190	0.999894
C53	C	-0.511111	0.970170	0.890173
C54	C	-0.300980	1.104967	0.826809
C55	C	-0.230908	1.149911	0.878832
C56	C	-0.230869	1.149928	0.988555
C57	C	-0.300902	1.105000	1.046255
H58	H	-0.546185	0.283137	0.546358
N59	N	-0.300848	1.105015	1.164600
H60	H	-0.317079	1.153194	1.187974
H61	H	-0.355839	1.069706	1.193175
H62	H	-0.301006	1.104960	0.737467
N63	N	-1.060884	0.921798	0.307867
H64	H	-1.045043	0.871603	0.327300
H65	H	-1.138242	0.928698	0.317677
H66	H	-0.173883	1.186485	0.831845
N67	N	-0.832819	0.921718	0.307847
H68	H	-0.886096	0.893294	0.267059
H69	H	-0.785470	0.950308	0.257440
N70	N	-0.155279	1.198387	1.044669
H71	H	-0.110919	1.226841	0.991468
H72	H	-0.195951	1.230889	1.088130
N73	N	-0.607287	0.604957	0.607195
H74	H	-0.590257	0.617753	0.681475
H75	H	-0.681480	0.617733	0.589822
N76	N	-0.586598	0.921735	1.062136
H77	H	-0.633453	0.950273	1.105842
H78	H	-0.630922	0.893265	1.012472
N79	N	-0.554834	0.425903	0.554934
H80	H	-0.599645	0.391554	0.599624
H81	H	-0.510179	0.456362	0.601679
N82	N	-0.597515	0.757411	0.597462
H83	H	-0.583981	0.809438	0.583957
H84	H	-0.673349	0.744574	0.581791
H85	H	-0.735709	1.104811	0.570454
N86	N	-0.317863	0.757330	0.318626
H87	H	-0.277453	0.722956	0.278324
H88	H	-0.358631	0.787741	0.267995
N89	N	-0.586681	0.921700	0.834053
H90	H	-0.631046	0.893245	0.887248
H91	H	-0.633492	0.950271	0.786704
N92	N	-1.162838	1.104923	0.570539
H93	H	-1.190052	1.091995	0.643421
H94	H	-1.186075	1.153127	0.548187
H95	H	-0.528753	0.502972	0.528914
N96	N	-0.327630	0.604870	0.328369
H97	H	-0.282814	0.639221	0.283688
H98	H	-0.281008	0.574456	0.373162
N99	N	-0.814580	1.198142	0.704328
H100	H	-0.737198	1.191308	0.694542
H101	H	-0.830515	1.248314	0.684861
N102	N	-0.275179	0.425804	0.276106
H103	H	-0.315866	0.456215	0.225400
H104	H	-0.224606	0.456214	0.317017
N105	N	-0.284952	0.273349	0.285858
H106	H	-0.240135	0.307697	0.241172
H107	H	-0.238331	0.242935	0.330651
H108	H	-1.028915	1.186343	0.687351
N109	N	-0.335295	0.537489	0.336057
H110	H	-0.294873	0.503116	0.295764
H111	H	-0.376056	0.567898	0.285417
