data_functionalizedCrystal
_audit_creation_method	'MofGen! by Chris Wilmer'
_symmetry_space_group_name_H-M	'P1'
_symmetry_Int_Tables_number	1
_symmetry_cell_setting	triclinic
loop_
_symmetry_equiv_pos_as_xyz
  x,y,z
_cell_length_a	13.032831
_cell_length_b	29.839131
_cell_length_c	29.839125
_cell_angle_alpha	90.019260
_cell_angle_beta	97.182635
_cell_angle_gamma	82.838261
loop_
_atom_site_label
_atom_site_type_symbol
_atom_site_fract_x
_atom_site_fract_y
_atom_site_fract_z
Zn1	Zn	1.597419	-0.266320	0.341024
Zn2	Zn	1.597275	-0.341416	0.265876
Zn3	Zn	1.422686	-0.256751	0.256386
Zn4	Zn	1.422589	-0.331860	0.331459
O5	O	1.509992	-0.299087	0.298686
O6	O	1.743633	-0.284285	0.339031
O7	O	1.574096	-0.330179	0.201749
O8	O	1.445966	-0.195159	0.267644
O9	O	1.743527	-0.339458	0.283820
O10	O	1.574341	-0.202189	0.329828
O11	O	1.445826	-0.267976	0.194777
O12	O	1.276440	-0.258711	0.258370
O13	O	1.445800	-0.323172	0.395596
O14	O	1.276368	-0.313893	0.313526
O15	O	1.574247	-0.275019	0.402624
O16	O	1.574001	-0.403010	0.274545
O17	O	1.445660	-0.395990	0.322728
C18	C	1.238487	-0.284227	0.283880
C19	C	1.122337	-0.277881	0.277557
C20	C	1.070545	-0.302399	0.301987
C21	C	0.950497	-0.295840	0.295452
C22	C	1.509833	-0.415801	0.298640
C23	C	1.509860	-0.465736	0.298640
C24	C	1.576823	-0.779012	0.331106
C25	C	1.576936	-0.966691	0.331139
O26	O	1.633714	-0.994036	0.358705
N27	N	1.510170	-0.986538	0.298746
C28	C	1.443365	-0.959462	0.266344
O29	O	1.386571	-0.980650	0.238796
C30	C	1.443247	-0.771784	0.266314
C31	C	1.510026	-0.751940	0.298706
C32	C	1.643595	-0.759167	0.363495
C33	C	1.643570	-0.712251	0.363485
C34	C	1.576773	-0.685178	0.331085
C35	C	1.510001	-0.705023	0.298696
C36	C	1.376438	-0.744708	0.233914
C37	C	1.376413	-0.697786	0.233910
C38	C	1.443191	-0.677942	0.266302
C39	C	1.443179	-0.631034	0.266286
N40	N	1.509945	-0.611187	0.298678
C41	C	1.576742	-0.638259	0.331078
C42	C	1.443433	-1.057997	0.266362
C43	C	1.443464	-1.104916	0.266369
C44	C	1.577034	-1.112142	0.331164
C45	C	1.577008	-1.065222	0.331155
C46	C	1.510200	-1.038150	0.298755
C47	C	1.576685	-0.539730	0.331054
C48	C	1.576657	-0.492809	0.331040
C49	C	1.443084	-0.485587	0.266247
C50	C	1.443115	-0.532504	0.266259
C51	C	1.509919	-0.559575	0.298667
O52	O	1.386422	-0.603662	0.238736
O53	O	1.633511	-0.617062	0.358629
C54	C	1.576848	-0.825929	0.331116
C55	C	1.510076	-0.845773	0.298726
C56	C	1.443279	-0.818701	0.266326
C57	C	1.510106	-0.892693	0.298733
C58	C	1.576903	-0.919765	0.331133
C59	C	1.643670	-0.899918	0.363526
C60	C	1.643645	-0.853001	0.363516
C61	C	1.376512	-0.838548	0.233933
C62	C	1.376543	-0.885465	0.233946
C63	C	1.443340	-0.912538	0.266346
C64	C	1.782557	-0.314005	0.313551
C65	C	1.898708	-0.320362	0.319885
C66	C	1.510028	-0.299097	0.415867
C67	C	1.510044	-0.299102	0.465802
C68	C	1.510181	-0.181919	0.298745
C69	C	1.510261	-0.131989	0.298769
C70	C	1.510016	-0.299047	0.181965
C71	C	1.510204	-0.298927	0.132041
C72	C	1.443234	-0.324075	0.818734
C73	C	1.443196	-0.324125	0.631059
O74	O	1.386289	-0.345438	0.603681
N75	N	1.510067	-0.299061	0.611249
C76	C	1.576947	-0.273981	0.638360
O77	O	1.633816	-0.252660	0.617203
C78	C	1.576978	-0.273929	0.826034
C79	C	1.510111	-0.298998	0.845842
C80	C	1.376371	-0.349142	0.838543
C81	C	1.376385	-0.349132	0.885459
C82	C	1.443262	-0.324054	0.912567
C83	C	1.510125	-0.298987	0.892758
C84	C	1.643852	-0.248846	0.853144
C85	C	1.643852	-0.248834	0.900065
C86	C	1.576985	-0.273903	0.919873
C87	C	1.577016	-0.273899	0.966782
N88	N	1.510145	-0.298963	0.986593
C89	C	1.443268	-0.324040	0.959485
C90	C	1.576927	-0.274010	0.539828
C91	C	1.576921	-0.274024	0.492910
C92	C	1.443168	-0.324168	0.485612
C93	C	1.443181	-0.324157	0.532532
C94	C	1.510056	-0.299074	0.559638
C95	C	1.443303	-0.324016	1.058013
C96	C	1.443326	-0.324005	1.104934
C97	C	1.577074	-0.273859	1.112227
C98	C	1.577056	-0.273872	1.065310
C99	C	1.510162	-0.298952	1.038204
O100	O	1.633885	-0.252593	0.994187
O101	O	1.386391	-0.345350	0.980649
C102	C	1.443220	-0.324086	0.771818
C103	C	1.510083	-0.299019	0.752009
C104	C	1.576960	-0.273942	0.779117
C105	C	1.510076	-0.299033	0.705091
C106	C	1.443199	-0.324110	0.677983
C107	C	1.376329	-0.349174	0.697794
C108	C	1.376343	-0.349164	0.744710
C109	C	1.643830	-0.248878	0.759307
C110	C	1.643812	-0.248891	0.712390
C111	C	1.576935	-0.273969	0.685282
H112	H	1.631076	-0.561765	0.357446
C113	C	1.717491	-0.275477	0.447816
C114	C	1.650420	-0.246468	0.471137
H115	H	1.762864	-0.258461	0.434377
H116	H	1.677665	-0.290411	0.424957
H117	H	1.757444	-0.297228	0.468300
H118	H	1.610462	-0.224718	0.450652
H119	H	1.690251	-0.231526	0.493998
H120	H	1.322007	-0.675746	0.207527
C121	C	1.311082	-0.520647	0.202212
C122	C	1.369715	-0.554320	0.230653
H123	H	1.265758	-0.534113	0.180235
H124	H	1.356631	-0.504835	0.187523
H125	H	1.271079	-0.500160	0.219592
H126	H	1.409725	-0.574806	0.213274
H127	H	1.324160	-0.570139	0.245343
H128	H	1.321905	-0.369563	0.816476
C129	C	1.244505	-0.836129	0.169885
C130	C	1.303092	-0.808795	0.198313
H131	H	1.199184	-0.817762	0.147890
H132	H	1.204510	-0.852243	0.187268
H133	H	1.290091	-0.856917	0.155213
H134	H	1.257505	-0.788009	0.212988
H135	H	1.343090	-0.792674	0.180928
C136	C	0.954938	-0.243255	0.243035
C137	C	1.062228	-0.242995	0.242782
H138	H	0.917834	-0.221721	0.221562
H139	H	0.937135	-0.235756	0.272265
H140	H	0.937082	-0.272464	0.235441
H141	H	1.080085	-0.213786	0.250379
H142	H	1.080038	-0.250491	0.213546
H143	H	1.388716	-0.344588	0.463533
C144	C	1.658403	-0.189207	0.801204
C145	C	1.717332	-0.221272	0.831384
H146	H	1.703765	-0.172180	0.787771
H147	H	1.612888	-0.169547	0.817031
H148	H	1.618603	-0.204149	0.778337
H149	H	1.757127	-0.206329	0.854253
H150	H	1.762866	-0.240934	0.815555
C151	C	1.658044	-0.800995	0.424732
C152	C	1.717043	-0.831191	0.399124
H153	H	1.703360	-0.787531	0.446715
H154	H	1.612502	-0.816817	0.439416
H155	H	1.618269	-0.778154	0.405432
H156	H	1.756812	-0.854034	0.418424
H157	H	1.762602	-0.815369	0.384440
H158	H	1.321892	-0.369578	0.760834
H159	H	1.388702	-0.463538	0.239866
C160	C	1.708685	-0.504671	0.395092
C161	C	1.650059	-0.470997	0.366650
H162	H	1.753991	-0.491205	0.417077
H163	H	1.748697	-0.525153	0.377718
H164	H	1.663123	-0.520487	0.409776
H165	H	1.695621	-0.455182	0.351964
H166	H	1.610043	-0.450507	0.384027
C167	C	1.775590	-0.724120	0.427533
C168	C	1.716966	-0.690442	0.399095
H169	H	1.820897	-0.710657	0.449521
H170	H	1.815600	-0.744600	0.410157
H171	H	1.730025	-0.739937	0.442215
H172	H	1.762531	-0.674626	0.384411
H173	H	1.676953	-0.669953	0.416474
C174	C	1.021617	-0.333369	0.386949
C175	C	0.958810	-0.355255	0.354656
H176	H	1.058725	-0.354912	0.408413
H177	H	0.979070	-0.311520	0.401869
H178	H	1.069665	-0.318839	0.372464
H179	H	0.910757	-0.369783	0.369140
H180	H	1.001361	-0.377113	0.339734
H181	H	1.698307	-0.228406	0.922133
H182	H	1.115079	-0.328243	0.327742
H183	H	0.905967	-0.269991	0.269698
C184	C	1.709029	-1.077087	0.395203
C185	C	1.650399	-1.043411	0.366766
H186	H	1.754332	-1.063622	0.417191
H187	H	1.749045	-1.097565	0.377827
H188	H	1.663469	-1.092907	0.409884
H189	H	1.695960	-1.027592	0.352082
H190	H	1.610381	-1.022925	0.384144
C191	C	1.636364	-1.187277	0.359945
C192	C	1.650451	-1.141905	0.366782
H193	H	1.681678	-1.205651	0.381937
H194	H	1.651723	-1.195810	0.330608
H195	H	1.566137	-1.191140	0.362661
H196	H	1.720676	-1.138042	0.364063
H197	H	1.635099	-1.133369	0.396126
C198	C	1.311430	-1.093049	0.202325
C199	C	1.370065	-1.126726	0.230761
H200	H	1.266108	-1.106513	0.180344
H201	H	1.356977	-1.077234	0.187639
H202	H	1.271424	-1.072566	0.219708
H203	H	1.410077	-1.147207	0.213378
H204	H	1.324512	-1.142549	0.245447
C205	C	1.302818	-0.997609	0.252385
C206	C	1.369995	-1.028244	0.230742
H207	H	1.257480	-0.979245	0.230393
H208	H	1.342569	-0.979070	0.271668
H209	H	1.262834	-1.013735	0.269767
H210	H	1.409985	-1.012117	0.213363
H211	H	1.330240	-1.046784	0.211451
H212	H	1.322061	-0.760857	0.207537
H213	H	1.698290	-0.228456	0.781374
H214	H	1.388874	-0.344421	1.121059
H215	H	1.698062	-0.921969	0.389905
H216	H	1.322166	-0.901618	0.207564
H217	H	1.697989	-0.781205	0.389882
C218	C	1.694807	-0.175608	0.700749
C219	C	1.717317	-0.221328	0.690623
H220	H	1.740176	-0.158589	0.687310
H221	H	1.704382	-0.172022	0.732569
H222	H	1.624599	-0.165203	0.689227
H223	H	1.787523	-0.231734	0.702148
H224	H	1.707750	-0.224916	0.658797
H225	H	1.388823	-0.344434	1.035947
H226	H	1.388730	-0.344570	0.548656
C227	C	1.244167	-0.398690	0.873518
C228	C	1.302868	-0.376682	0.907227
H229	H	1.198772	-0.415696	0.886955
H230	H	1.289669	-0.418369	0.857703
H231	H	1.204237	-0.376928	0.853039
H232	H	1.342804	-0.398445	0.927705
H233	H	1.257360	-0.357001	0.923050
H234	H	1.631390	-0.253585	0.561895
C235	C	1.709264	-0.224306	1.077239
C236	C	1.650560	-0.246318	1.043534
H237	H	1.754632	-0.207290	1.063796
H238	H	1.749214	-0.246062	1.097711
H239	H	1.663755	-0.204630	1.093062
H240	H	1.696069	-0.265996	1.027714
H241	H	1.610607	-0.224559	1.023054
C242	C	1.636457	-0.251578	1.187393
C243	C	1.650581	-0.246293	1.142030
H244	H	1.681830	-0.234556	1.205791
H245	H	1.651714	-0.282592	1.195908
H246	H	1.566250	-0.241163	1.191245
H247	H	1.720787	-0.256712	1.138177
H248	H	1.635331	-0.215273	1.133512
H249	H	1.321878	-0.369595	0.675715
