data_functionalizedCrystal
_audit_creation_method	'MofGen! by Chris Wilmer'
_symmetry_space_group_name_H-M	'P1'
_symmetry_Int_Tables_number	1
_symmetry_cell_setting	triclinic
loop_
_symmetry_equiv_pos_as_xyz
  x,y,z
_cell_length_a	9.065218
_cell_length_b	9.065218
_cell_length_c	9.730223
_cell_angle_alpha	90.001132
_cell_angle_beta	90.003564
_cell_angle_gamma	85.015885
loop_
_atom_site_label
_atom_site_type_symbol
_atom_site_fract_x
_atom_site_fract_y
_atom_site_fract_z
O1	O	1.960400	0.216353	0.114287
O2	O	2.460400	0.716353	0.614287
O3	O	1.531115	0.234100	0.114289
O4	O	2.031115	0.734100	0.614289
O5	O	1.754631	0.010584	0.114285
O6	O	2.254631	0.510584	0.614285
O7	O	1.736884	0.439869	0.114291
O8	O	2.236884	0.939869	0.614291
O9	O	1.754615	0.010584	-0.114295
O10	O	2.254615	0.510584	0.385705
O11	O	1.531099	0.234100	-0.114291
O12	O	2.031099	0.734100	0.385709
O13	O	1.960384	0.216353	-0.114293
O14	O	2.460384	0.716353	0.385707
Zn15	Zn	1.745739	0.225226	-0.150584
Zn16	Zn	2.245739	0.725226	0.349416
Zn17	Zn	1.745760	0.225226	0.150580
Zn18	Zn	2.245760	0.725226	0.650580
O19	O	1.736868	0.439869	-0.114289
O20	O	2.236868	0.939869	0.385711
C21	C	1.476120	0.232394	-0.000001
C22	C	1.976120	0.732394	0.499999
C23	C	1.312277	0.227294	-0.000000
C24	C	1.812277	0.727294	0.500000
C25	C	1.752917	-0.044403	-0.000003
C26	C	2.252917	0.455597	0.499997
C27	C	1.747817	-0.208245	0.000004
C28	C	2.247817	0.291755	0.500004
C29	C	2.015378	0.218059	0.000000
C30	C	2.515378	0.718059	0.500000
C31	C	2.179221	0.223158	0.000008
C32	C	2.679221	0.723158	0.500008
C33	C	1.738582	0.494855	0.000002
C34	C	2.238582	0.994855	0.500002
C35	C	1.743681	0.658698	0.000004
C36	C	2.243681	1.158698	0.500004
N37	N	1.745735	0.225226	-0.356120
N38	N	2.245735	0.725226	0.143880
C39	C	1.836420	0.315969	-0.428040
C40	C	2.336420	0.815969	0.071960
C41	C	1.836444	0.315961	-0.571923
C42	C	2.336444	0.815961	-0.071923
C43	C	1.655087	0.134462	-0.571954
C44	C	2.155087	0.634462	-0.071954
C45	C	1.655071	0.134463	-0.428073
C46	C	2.155071	0.634463	0.071927
N47	N	1.745775	0.225216	0.356116
N48	N	2.245775	0.725216	0.856116
H49	H	1.910244	0.389874	-0.369461
H50	H	2.410244	0.889874	0.130539
O51	O	1.557292	0.036573	-0.649550
O52	O	2.057292	0.536573	-0.149550
H53	H	1.478923	0.106201	-0.715101
H54	H	1.978923	0.606201	-0.215101
H55	H	1.910290	0.389852	-0.630474
H56	H	2.410290	0.889852	-0.130474
O57	O	1.557251	0.036592	-0.350486
O58	O	2.057251	0.536592	0.149514
H59	H	1.494191	-0.026503	-0.424688
H60	H	1.994191	0.473497	0.075312
