data_functionalizedCrystal
_audit_creation_method	'MofGen! by Chris Wilmer'
_symmetry_space_group_name_H-M	'P1'
_symmetry_Int_Tables_number	1
_symmetry_cell_setting	triclinic
loop_
_symmetry_equiv_pos_as_xyz
  x,y,z
_cell_length_a	14.395555
_cell_length_b	14.395555
_cell_length_c	14.395555
_cell_angle_alpha	60.000749
_cell_angle_beta	90.002623
_cell_angle_gamma	60.001260
loop_
_atom_site_label
_atom_site_type_symbol
_atom_site_fract_x
_atom_site_fract_y
_atom_site_fract_z
Zr1	Zr	0.894946	1.016746	-0.121871
O2	O	0.746622	1.210542	-0.270205
O3	O	0.940411	0.822950	-0.076396
O4	O	0.940418	1.016737	-0.270192
O5	O	0.746614	1.016762	0.076458
O6	O	1.093292	1.016730	-0.270184
O7	O	0.746615	1.016755	-0.076409
O8	O	1.093279	0.670081	0.076482
O9	O	0.746627	1.363411	-0.270207
O10	O	1.073894	0.902656	-0.056998
O11	O	0.959805	0.902666	0.057079
O12	O	0.959814	1.130826	-0.171091
O13	O	0.845725	1.130836	-0.057014
Zr14	Zr	1.138760	1.016746	0.121948
Zr15	Zr	1.138762	1.016735	-0.121858
Zr16	Zr	0.894944	1.016757	0.121935
Zr17	Zr	0.894953	1.260555	-0.121874
Zr18	Zr	1.138753	0.772937	0.121952
O19	O	1.093295	1.210542	0.076473
O20	O	1.093298	1.210526	-0.270187
O21	O	0.746620	1.210557	0.076455
O22	O	1.287084	0.822950	0.270283
O23	O	1.287086	0.822935	-0.076378
O24	O	0.940408	0.822966	0.270264
O25	O	1.287092	1.016730	-0.076380
O26	O	1.093288	1.016755	0.270269
O27	O	0.940414	1.016762	0.270261
O28	O	1.287091	1.016737	0.076487
O29	O	0.940428	1.363403	-0.270197
O30	O	1.093278	0.670089	0.270275
O31	O	1.287079	0.670081	0.270285
O32	O	1.287081	0.670072	0.076492
O33	O	0.746625	1.363420	-0.076414
O34	O	0.940427	1.363411	-0.076404
O35	O	1.073892	0.902666	0.171168
O36	O	1.187982	0.902656	0.057091
O37	O	1.073901	1.130826	-0.057002
O38	O	0.959812	1.130836	0.057076
C39	C	1.016844	0.711778	0.000043
C40	C	1.016841	0.608274	0.000045
C41	C	0.954638	0.547688	0.062248
C42	C	0.909556	0.561941	-0.045029
C43	C	1.061895	0.409625	0.107290
C44	C	0.971697	0.623954	-0.107296
C45	C	1.124095	0.471575	0.045100
C46	C	1.079040	0.485875	-0.062241
C47	C	0.711876	1.016760	0.000023
C48	C	0.608369	1.016764	0.000017
C49	C	0.485579	1.141173	-0.062181
C50	C	0.454742	1.078977	-0.107255
C51	C	0.454783	1.078955	0.045082
C52	C	0.578896	0.954568	-0.045119
C53	C	0.578934	0.954564	0.107278
C54	C	0.548170	0.892278	0.062231
C55	C	1.321830	1.016732	0.000055
C56	C	1.425337	1.016728	0.000060
C57	C	1.016855	1.016732	-0.304925
C58	C	1.016856	1.016728	-0.408427
C59	C	1.016862	1.321714	0.000034
C60	C	1.016865	1.425218	0.000033
C61	C	1.079063	0.892319	-0.406807
C62	C	0.971789	0.954515	-0.499835
C63	C	1.124104	0.954537	-0.499827
C64	C	0.909518	1.078924	-0.500092
C65	C	1.061911	1.078928	-0.500069
C66	C	0.954572	1.141214	-0.593115
C67	C	1.016851	1.016760	0.305002
C68	C	1.016850	1.016764	0.408504
C69	C	1.321821	0.711764	0.000060
C70	C	1.425325	0.608256	0.000067
C71	C	1.016842	0.711792	0.305007
C72	C	1.016838	0.608293	0.408510
C73	C	1.321819	0.711778	0.305023
C74	C	1.425322	0.608274	0.408532
C75	C	0.711887	1.321714	-0.304946
C76	C	0.608384	1.425218	-0.408455
C77	C	0.711885	1.321728	0.000018
C78	C	0.608381	1.425236	0.000011
C79	C	1.016864	1.321700	-0.304929
C80	C	1.016868	1.425199	-0.408433
C81	C	1.548117	0.547697	0.062244
C82	C	1.578974	0.409590	0.107299
C83	C	1.578885	0.561988	-0.045040
C84	C	1.454818	0.471449	0.045186
C85	C	1.454733	0.623920	-0.107214
C86	C	1.485516	0.485822	-0.062185
C87	C	0.954628	0.547711	0.406894
C88	C	1.061903	0.409609	0.499919
C89	C	0.909593	0.561948	0.499916
C90	C	1.124176	0.471491	0.500173
C91	C	0.971788	0.623905	0.500155
C92	C	1.079128	0.485812	0.593198
C93	C	1.423704	0.547671	0.531322
C94	C	1.516691	0.409573	0.562122
C95	C	1.516764	0.561844	0.562159
C96	C	1.516946	0.471477	0.437969
C97	C	1.517004	0.623822	0.438009
C98	C	1.610009	0.485734	0.468736
H99	H	1.131641	0.458927	-0.114923
O100	O	1.649914	0.288199	0.227411
H101	H	1.608254	0.305455	0.287373
O102	O	0.921125	0.745238	-0.227491
H103	H	0.972443	0.720057	-0.279149
O104	O	0.451885	1.280517	-0.131953
H105	H	0.529586	1.279308	-0.130699
O106	O	1.515733	0.745208	0.367150
H107	H	1.514591	0.783559	0.417863
O108	O	1.515827	0.422012	0.367248
H109	H	1.592682	0.320044	0.409470
H110	H	0.401226	1.131554	-0.197947
H111	H	0.818862	0.599129	-0.083148
H112	H	0.401279	1.131562	0.083177
H113	H	1.214768	0.434406	0.083246
H114	H	1.214809	0.901935	-0.500720
O115	O	1.112363	0.288274	0.227428
H116	H	1.060565	0.313227	0.278882
H117	H	0.901964	0.574918	0.114773
O118	O	1.148644	0.752979	-0.301148
H119	H	1.094021	0.736919	-0.249641
O120	O	0.649552	0.884981	-0.095738
H121	H	0.726346	0.885593	-0.095403
O122	O	0.921305	0.884877	-0.501099
H123	H	0.973093	0.781614	-0.424705
H124	H	0.818775	1.131468	-0.499276
O125	O	0.885061	0.583591	0.301235
H126	H	0.796420	0.620315	0.301076
O127	O	0.582129	0.752826	0.131913
H128	H	0.632720	0.701507	0.094277
H129	H	1.401200	0.715581	-0.197877
O130	O	1.244374	0.421959	0.499077
H131	H	1.304096	0.319995	0.575947
H132	H	1.100018	0.317987	0.500849
O133	O	1.451511	0.450059	-0.131890
H134	H	1.486804	0.343969	-0.077376
H135	H	1.100053	1.131459	-0.499093
H136	H	1.632362	0.599224	-0.083152
H137	H	1.517757	0.598875	0.615788
H138	H	0.901890	1.246499	-0.672747
H139	H	0.632446	0.902032	0.197950
O140	O	1.715494	0.449902	0.434767
H141	H	1.715554	0.538461	0.382901
O142	O	1.581799	0.583579	0.132022
H143	H	1.632313	0.495412	0.221016
O144	O	1.384181	0.421868	0.095809
H145	H	1.307388	0.499584	0.095496
H146	H	1.131814	0.458784	0.672829
H147	H	0.933645	0.715560	0.499166
H148	H	0.818896	0.599126	0.500826
H149	H	1.343944	0.574771	0.556757
O150	O	1.517894	0.288225	0.632959
H151	H	1.441495	0.313160	0.659818
