data_functionalizedCrystal
_audit_creation_method	'MofGen! by Chris Wilmer'
_symmetry_space_group_name_H-M	'P1'
_symmetry_Int_Tables_number	1
_symmetry_cell_setting	triclinic
loop_
_symmetry_equiv_pos_as_xyz
  x,y,z
_cell_length_a	17.077404
_cell_length_b	16.120484
_cell_length_c	17.077396
_cell_angle_alpha	92.867798
_cell_angle_beta	89.982756
_cell_angle_gamma	92.925780
loop_
_atom_site_label
_atom_site_type_symbol
_atom_site_fract_x
_atom_site_fract_y
_atom_site_fract_z
Zn1	Zn	1.184177	-0.331895	-0.459673
Zn2	Zn	1.517510	0.001438	-0.126339
Zn3	Zn	1.850843	0.334771	0.206994
Zn4	Zn	1.177426	-0.471321	-0.335057
Zn5	Zn	1.510759	-0.137988	-0.001723
Zn6	Zn	1.844093	0.195345	0.331610
Zn7	Zn	1.052912	-0.331927	-0.328422
Zn8	Zn	1.386245	0.001407	0.004911
Zn9	Zn	1.719579	0.334740	0.338245
Zn10	Zn	1.046216	-0.471270	-0.466278
Zn11	Zn	1.379549	-0.137936	-0.132944
Zn12	Zn	1.712883	0.195397	0.200389
O13	O	1.115183	-0.401603	-0.397357
O14	O	1.448516	-0.068270	-0.064024
O15	O	1.781849	0.265063	0.269309
O16	O	1.293128	-0.350399	-0.443154
O17	O	1.626461	-0.017066	-0.109821
O18	O	1.959794	0.316268	0.223512
O19	O	1.160886	-0.452865	-0.224331
O20	O	1.494219	-0.119532	0.109002
O21	O	1.827553	0.213802	0.442335
O22	O	1.075952	-0.215257	-0.340292
O23	O	1.409285	0.118077	-0.006959
O24	O	1.742619	0.451410	0.326375
O25	O	1.288168	-0.452835	-0.351600
O26	O	1.621501	-0.119501	-0.018266
O27	O	1.954835	0.213832	0.315067
O28	O	1.172392	-0.215234	-0.436721
O29	O	1.505725	0.118100	-0.103388
O30	O	1.839058	0.451433	0.229946
O31	O	1.069406	-0.350452	-0.219457
O32	O	1.402740	-0.017119	0.113876
O33	O	1.736073	0.316214	0.447210
O34	O	0.942177	-0.350402	-0.346697
O35	O	1.275511	-0.017069	-0.013363
O36	O	1.608844	0.316264	0.319970
O37	O	1.064539	-0.452747	-0.575247
O38	O	1.397873	-0.119413	-0.241914
O39	O	1.731206	0.213920	0.091420
O40	O	0.937258	-0.452777	-0.447979
O41	O	1.270591	-0.119444	-0.114645
O42	O	1.603924	0.213890	0.218688
O43	O	1.165899	-0.350349	-0.570394
O44	O	1.499232	-0.017016	-0.237061
O45	O	1.832565	0.316318	0.096273
O46	O	1.154393	-0.587980	-0.358004
O47	O	1.487726	-0.254647	-0.024671
O48	O	1.821060	0.078687	0.308662
O49	O	1.057994	-0.587942	-0.454412
O50	O	1.391327	-0.254609	-0.121078
O51	O	1.724660	0.078724	0.212255
C52	C	0.911235	-0.401588	-0.397335
C53	C	1.244569	-0.068255	-0.064002
C54	C	1.577902	0.265079	0.269332
C55	C	0.823985	-0.401602	-0.397345
C56	C	1.157318	-0.068268	-0.064012
C57	C	1.490652	0.265065	0.269322
C58	C	0.780450	-0.454989	-0.450006
C59	C	1.113783	-0.121655	-0.116672
C60	C	1.447117	0.211678	0.216661
C61	C	0.698469	-0.454991	-0.450018
C62	C	1.031803	-0.121657	-0.116685
C63	C	1.365136	0.211676	0.216648
C64	C	0.660025	-0.401609	-0.397366
C65	C	0.993359	-0.068276	-0.064032
C66	C	1.326692	0.265058	0.269301
C67	C	0.703566	-0.348216	-0.344702
C68	C	1.036900	-0.014883	-0.011369
C69	C	1.370233	0.318451	0.321964
C70	C	0.785546	-0.348211	-0.344694
C71	C	1.118879	-0.014877	-0.011361
C72	C	1.452212	0.318456	0.321972
C73	C	0.532696	-0.348233	-0.344722
C74	C	0.866029	-0.014899	-0.011389
C75	C	1.199362	0.318434	0.321945
C76	C	0.450711	-0.348239	-0.344729
C77	C	0.784044	-0.014905	-0.011396
C78	C	1.117377	0.318428	0.321937
C79	C	0.445619	-0.455012	-0.450046
C80	C	0.778953	-0.121679	-0.116713
C81	C	1.112286	0.211654	0.216620
C82	C	0.527599	-0.455007	-0.450038
C83	C	0.860932	-0.121674	-0.116705
C84	C	1.194265	0.211660	0.216629
C85	C	0.571134	-0.401615	-0.397373
C86	C	0.904467	-0.068282	-0.064040
C87	C	1.237801	0.265052	0.269293
C88	C	1.104756	-0.618211	-0.407662
C89	C	1.438089	-0.284878	-0.074328
C90	C	1.771422	0.048455	0.259005
C91	C	1.100367	-0.710877	-0.412096
C92	C	1.433700	-0.377544	-0.078763
C93	C	1.767033	-0.044211	0.254570
C94	C	1.092358	-0.880539	-0.420209
C95	C	1.425691	-0.547205	-0.086876
C96	C	1.759025	-0.213872	0.246458
C97	C	1.138148	-0.921827	-0.374519
C98	C	1.471481	-0.588494	-0.041185
C99	C	1.804814	-0.255161	0.292148
C100	C	1.133692	-1.016233	-0.379032
C101	C	1.467025	-0.682899	-0.045699
C102	C	1.800358	-0.349566	0.287634
C103	C	1.096813	-0.786125	-0.415696
C104	C	1.430146	-0.452791	-0.082363
C105	C	1.763480	-0.119458	0.250971
C106	C	1.319926	-0.401619	-0.397380
C107	C	1.653259	-0.068286	-0.064047
C108	C	1.986593	0.265048	0.269286
C109	C	1.407176	-0.401626	-0.397390
C110	C	1.740509	-0.068292	-0.064057
C111	C	2.073842	0.265041	0.269277
C112	C	1.115225	-0.401539	-0.602099
C113	C	1.448558	-0.068205	-0.268765
C114	C	1.781892	0.265128	0.064568
C115	C	1.115243	-0.401511	-0.689347
C116	C	1.448577	-0.068178	-0.356014
C117	C	1.781910	0.265156	-0.022680
C118	C	1.125672	-0.184149	-0.387030
C119	C	1.459005	0.149184	-0.053696
C120	C	1.792338	0.482517	0.279637
C121	C	1.130142	-0.091483	-0.382629
C122	C	1.463475	0.241850	-0.049295
C123	C	1.796808	0.575183	0.284038
C124	C	1.067625	-0.348179	-0.727798
C125	C	1.400959	-0.014845	-0.394465
C126	C	1.734292	0.318488	-0.061132
C127	C	1.067639	-0.348160	-0.809778
C128	C	1.400972	-0.014826	-0.476445
C129	C	1.734306	0.318507	-0.143111
C130	C	1.115275	-0.401470	-0.853305
C131	C	1.448609	-0.068136	-0.519971
C132	C	1.781942	0.265197	-0.186638
C133	C	1.162895	-0.454808	-0.814848
C134	C	1.496229	-0.121475	-0.481515
C135	C	1.829562	0.211858	-0.148181
C136	C	1.162877	-0.454831	-0.732870
C137	C	1.496210	-0.121497	-0.399537
C138	C	1.829543	0.211836	-0.066203
C139	C	1.162932	-0.454756	-0.985716
C140	C	1.496265	-0.121423	-0.652382
C141	C	1.829598	0.211911	-0.319049
C142	C	1.162951	-0.454733	-1.067699
C143	C	1.496285	-0.121399	-0.734366
C144	C	1.829618	0.211934	-0.401033
C145	C	1.067694	-0.348085	-1.062623
C146	C	1.401027	-0.014752	-0.729290
C147	C	1.734361	0.318582	-0.395957
C148	C	1.067675	-0.348108	-0.980646
C149	C	1.401009	-0.014774	-0.647312
C150	C	1.734342	0.318559	-0.313979
C151	C	1.115297	-0.401445	-0.942195
C152	C	1.448630	-0.068112	-0.608861
C153	C	1.781963	0.265222	-0.275528
C154	C	1.115188	-0.401607	-0.193410
C155	C	1.448522	-0.068274	0.139924
C156	C	1.781855	0.265059	0.473257
C157	C	1.115333	-0.401400	-0.106150
C158	C	1.448667	-0.068067	0.227183
C159	C	1.782000	0.265267	0.560516
H160	H	0.663026	-0.498464	-0.492899
H161	H	0.996360	-0.165131	-0.159566
H162	H	1.329693	0.168202	0.173767
H163	H	1.201741	-0.498142	-1.103137
H164	H	1.535074	-0.164809	-0.769803
H165	H	1.868408	0.168524	-0.436470
C166	C	1.195624	-0.873808	-0.317090
C167	C	1.528957	-0.540475	0.016244
C168	C	1.862290	-0.207142	0.349577
H169	H	1.223770	-0.912130	-0.289018
H170	H	1.557103	-0.578797	0.044315
H171	H	1.890436	-0.245464	0.377649
H172	H	1.167183	-0.839895	-0.281273
H173	H	1.500516	-0.506562	0.052061
H174	H	1.833850	-0.173229	0.385394
H175	H	1.231387	-0.839782	-0.345555
H176	H	1.564720	-0.506448	-0.012222
H177	H	1.898054	-0.173115	0.321112
H178	H	1.049813	-0.916089	-0.462712
H179	H	1.383146	-0.582756	-0.129378
H180	H	1.716479	-0.249422	0.203955
H181	H	1.028839	-0.304762	-0.692364
H182	H	1.362172	0.028571	-0.359031
H183	H	1.695505	0.361904	-0.025697
C184	C	1.015308	-0.289415	-1.104912
C185	C	1.348642	0.043918	-0.771579
C186	C	1.681975	0.377252	-0.438246
H187	H	0.986944	-0.257661	-1.067248
H188	H	1.320277	0.075672	-0.733915
H189	H	1.653610	0.409005	-0.400581
H190	H	0.979572	-0.321291	-1.138401
H191	H	1.312905	0.012043	-0.805068
H192	H	1.646239	0.345376	-0.471735
H193	H	1.047103	-0.253083	-1.135170
H194	H	1.380436	0.080251	-0.801837
H195	H	1.713769	0.413584	-0.468504
H196	H	1.028861	-0.304734	-0.841081
H197	H	1.362194	0.028599	-0.507748
H198	H	1.695527	0.361933	-0.174414
H199	H	1.028889	-0.304694	-0.945208
H200	H	1.362223	0.028639	-0.611875
H201	H	1.695556	0.361973	-0.278541
H202	H	1.201677	-0.498218	-0.850294
H203	H	1.535011	-0.164885	-0.516961
H204	H	1.868344	0.168448	-0.183628
C205	C	1.215312	-0.513428	-0.943421
C206	C	1.548646	-0.180094	-0.610088
C207	C	1.881979	0.153239	-0.276754
H208	H	1.243691	-0.545169	-0.981083
H209	H	1.577025	-0.211836	-0.647750
H210	H	1.910358	0.121498	-0.314417
H211	H	1.183526	-0.549759	-0.913162
H212	H	1.516859	-0.216426	-0.579829
H213	H	1.850192	0.116908	-0.246496
H214	H	1.251049	-0.481543	-0.909932
H215	H	1.584382	-0.148209	-0.576598
H216	H	1.917716	0.185124	-0.243265
C217	C	1.215256	-0.513497	-0.690574
C218	C	1.548589	-0.180163	-0.357240
C219	C	1.881923	0.153170	-0.023907
H220	H	1.243634	-0.545239	-0.728236
H221	H	1.576968	-0.211906	-0.394903
H222	H	1.910301	0.121428	-0.061569
H223	H	1.183467	-0.549827	-0.660316
H224	H	1.516800	-0.216493	-0.326983
H225	H	1.850134	0.116840	0.006350
H226	H	1.250994	-0.481614	-0.657083
H227	H	1.584327	-0.148281	-0.323750
H228	H	1.917660	0.185052	0.009583
H229	H	0.811745	-0.498461	-0.492879
H230	H	1.145078	-0.165128	-0.159546
H231	H	1.478411	0.168206	0.173787
C232	C	0.397734	-0.513738	-0.507980
C233	C	0.731068	-0.180404	-0.174647
C234	C	1.064401	0.152929	0.158686
H235	H	0.343405	-0.506090	-0.500453
H236	H	0.676738	-0.172756	-0.167120
H237	H	1.010072	0.160577	0.166214
H238	H	0.408469	-0.569737	-0.499068
H239	H	0.741802	-0.236404	-0.165735
H240	H	1.075135	0.096930	0.167599
H241	H	0.411778	-0.501602	-0.560165
H242	H	0.745112	-0.168268	-0.226831
H243	H	1.078445	0.165065	0.106502
C244	C	0.408423	-0.289513	-0.286820
C245	C	0.741757	0.043821	0.046513
C246	C	1.075090	0.377154	0.379846
H247	H	0.446092	-0.257704	-0.255463
H248	H	0.779425	0.075629	0.077871
H249	H	1.112758	0.408963	0.411204
H250	H	0.374896	-0.321355	-0.254084
H251	H	0.708230	0.011979	0.079249
H252	H	1.041563	0.345312	0.412583
H253	H	0.378203	-0.253234	-0.315195
H254	H	0.711536	0.080100	0.018138
H255	H	1.044869	0.413433	0.351472
C256	C	0.569886	-0.513724	-0.507955
C257	C	0.903219	-0.180391	-0.174621
C258	C	1.236553	0.152942	0.158712
H259	H	0.532219	-0.545518	-0.539326
H260	H	0.865552	-0.212184	-0.205993
H261	H	1.198885	0.121149	0.127340
H262	H	0.600111	-0.550005	-0.479594
H263	H	0.933444	-0.216672	-0.146261
H264	H	1.266777	0.116662	0.187072
H265	H	0.603410	-0.481867	-0.540689
H266	H	0.936743	-0.148534	-0.207355
H267	H	1.270077	0.184799	0.125978
H268	H	0.672259	-0.304748	-0.301835
H269	H	1.005592	0.028585	0.031498
H270	H	1.338926	0.361918	0.364832
C271	C	0.580583	-0.289499	-0.286795
C272	C	0.913916	0.043834	0.046538
C273	C	1.247250	0.377167	0.379872
H274	H	0.545947	-0.257713	-0.255433
H275	H	0.879280	0.075621	0.077900
H276	H	1.212614	0.408954	0.411233
H277	H	0.614320	-0.253213	-0.315151
H278	H	0.947654	0.080120	0.018183
H279	H	1.280987	0.413453	0.351516
H280	H	0.611017	-0.321347	-0.254052
H281	H	0.944351	0.011987	0.079281
H282	H	1.277684	0.345320	0.412615
C283	C	0.833438	-0.289487	-0.286769
C284	C	1.166771	0.043846	0.046564
C285	C	1.500104	0.377180	0.379898
H286	H	0.887767	-0.297122	-0.294310
H287	H	1.221101	0.036211	0.039023
H288	H	1.554434	0.369544	0.372357
H289	H	0.819400	-0.301614	-0.234585
H290	H	1.152734	0.031719	0.098748
H291	H	1.486067	0.365052	0.432081
H292	H	0.822700	-0.233486	-0.295689
H293	H	1.156033	0.099848	0.037645
H294	H	1.489366	0.433181	0.370978
