data_functionalizedCrystal
_audit_creation_method	'MofGen! by Chris Wilmer'
_symmetry_space_group_name_H-M	'P1'
_symmetry_Int_Tables_number	1
_symmetry_cell_setting	triclinic
loop_
_symmetry_equiv_pos_as_xyz
  x,y,z
_cell_length_a	27.732048
_cell_length_b	27.732048
_cell_length_c	7.540329
_cell_angle_alpha	89.991480
_cell_angle_beta	90.002547
_cell_angle_gamma	82.642655
loop_
_atom_site_label
_atom_site_type_symbol
_atom_site_fract_x
_atom_site_fract_y
_atom_site_fract_z
O1	O	0.640926	0.057516	-0.147273
O2	O	0.500133	0.066262	-0.147329
O3	O	0.574902	-0.008508	-0.147265
O4	O	0.566157	0.132286	-0.147336
O5	O	0.574898	-0.008509	0.147700
O6	O	0.500128	0.066261	0.147636
O7	O	0.640922	0.057515	0.147692
Cu8	Cu	0.570525	0.061888	0.174597
Cu9	Cu	0.570530	0.061889	-0.174234
O10	O	0.566152	0.132285	0.147629
C11	C	0.482124	0.066078	0.000147
C12	C	0.428469	0.065525	0.000127
C13	C	0.089654	0.106229	0.000183
C14	C	-0.112006	0.104178	0.000200
O15	O	-0.143262	0.141398	0.000258
N16	N	-0.131130	0.059843	0.000219
C17	C	-0.099835	0.016017	0.000246
O18	O	-0.120728	-0.021740	0.000281
C19	C	0.101824	0.018068	0.000241
C20	C	0.120944	0.062407	0.000204
C21	C	0.108775	0.150563	0.000148
C22	C	0.159187	0.151075	0.000134
C23	C	0.190477	0.107253	0.000155
C24	C	0.171356	0.062919	0.000190
C25	C	0.133117	-0.025757	0.000281
C26	C	0.183535	-0.025240	0.000284
C27	C	0.202655	0.019098	0.000247
C28	C	0.253059	0.019609	0.000198
N29	N	0.272183	0.063944	0.000179
C30	C	0.240892	0.107766	0.000157
C31	C	-0.205709	0.014943	0.000244
C32	C	-0.256124	0.014430	0.000242
C33	C	-0.268291	0.102591	0.000200
C34	C	-0.217876	0.103104	0.000189
C35	C	-0.186585	0.059278	0.000225
C36	C	0.346761	0.108839	0.000127
C37	C	0.397178	0.109347	0.000105
C38	C	0.409341	0.021186	0.000157
C39	C	0.358929	0.020678	0.000169
C40	C	0.327639	0.064508	0.000160
O41	O	0.284343	-0.017592	0.000160
O42	O	0.261794	0.145518	0.000162
C43	C	0.039242	0.105716	0.000197
C44	C	0.020120	0.061382	0.000232
C45	C	0.051411	0.017560	0.000253
C46	C	-0.030294	0.060869	0.000230
C47	C	-0.061585	0.104691	0.000209
C48	C	-0.042461	0.149026	0.000189
C49	C	0.007951	0.149539	0.000176
C50	C	0.032287	-0.026775	0.000273
C51	C	-0.018125	-0.027284	0.000284
C52	C	-0.049416	0.016538	0.000263
C53	C	0.574716	-0.026515	0.000222
C54	C	0.574164	-0.080170	0.000236
C55	C	0.614867	-0.418985	0.000162
C56	C	0.612816	-0.620645	0.000136
O57	O	0.650037	-0.651900	0.000073
N58	N	0.568481	-0.639768	0.000120
C59	C	0.524656	-0.608474	0.000099
O60	O	0.486899	-0.629367	0.000066
C61	C	0.526707	-0.406815	0.000111
C62	C	0.571045	-0.387694	0.000145
C63	C	0.659202	-0.399864	0.000194
C64	C	0.659714	-0.349452	0.000210
C65	C	0.615892	-0.318161	0.000194
C66	C	0.571557	-0.337282	0.000162
C67	C	0.482882	-0.375521	0.000077
C68	C	0.483399	-0.325104	0.000076
C69	C	0.527737	-0.305983	0.000110
C70	C	0.528248	-0.255580	0.000162
N71	N	0.572583	-0.236456	0.000178
C72	C	0.616405	-0.267747	0.000194
C73	C	0.523582	-0.714348	0.000095
C74	C	0.523069	-0.764762	0.000095
C75	C	0.611230	-0.776930	0.000129
C76	C	0.611742	-0.726514	0.000142
C77	C	0.567917	-0.695224	0.000111
C78	C	0.617477	-0.161878	0.000229
C79	C	0.617986	-0.111461	0.000252
C80	C	0.529825	-0.099298	0.000209
C81	C	0.529316	-0.149710	0.000195
C82	C	0.573147	-0.180999	0.000199
O83	O	0.491047	-0.224296	0.000204
O84	O	0.654156	-0.246844	0.000187
C85	C	0.614355	-0.469397	0.000145
C86	C	0.570021	-0.488518	0.000113
C87	C	0.526198	-0.457228	0.000097
C88	C	0.569508	-0.538933	0.000113
C89	C	0.613330	-0.570223	0.000129
C90	C	0.657665	-0.551100	0.000145
C91	C	0.658177	-0.500688	0.000161
C92	C	0.481863	-0.476351	0.000081
C93	C	0.481355	-0.526764	0.000067
C94	C	0.525177	-0.558054	0.000083
C95	C	0.658931	0.057699	0.000213
C96	C	0.712586	0.058252	0.000221
C97	C	0.566338	0.150292	0.000137
C98	C	0.566891	0.203947	0.000111
N99	N	0.570524	0.061887	0.419945
N100	N	0.570534	0.061886	-0.419582
H101	H	-0.271687	-0.021674	0.000245
H102	H	0.174750	0.187180	0.000103
O103	O	0.664752	-0.195619	0.000262
H104	H	0.666641	-0.218872	-0.119967
O105	O	0.075029	0.197832	0.000127
H106	H	0.081788	0.219062	-0.120118
H107	H	0.447710	-0.299629	0.000048
H108	H	0.321291	0.144530	0.000125
O109	O	-0.197253	0.150924	0.000183
H110	H	-0.227486	0.181307	0.000182
H111	H	0.446777	-0.391080	0.000039
O112	O	0.338300	-0.027142	0.000203
H113	H	0.368531	-0.057528	0.000223
O114	O	0.417802	0.157171	0.000068
H115	H	0.440486	0.159510	0.120277
H116	H	-0.293777	0.138273	0.000183
H117	H	0.695819	-0.333889	0.000230
O118	O	0.434595	-0.442605	0.000070
H119	H	0.432721	-0.419351	0.120296
H120	H	0.487892	-0.688875	0.000071
H121	H	-0.180236	-0.020747	0.000274
O122	O	0.482562	-0.065541	0.000186
H123	H	0.461323	-0.072299	0.120400
O124	O	0.706471	-0.433610	0.000236
H125	H	0.737381	-0.411835	0.000276
O126	O	0.658497	-0.810682	0.000145
H127	H	0.660370	-0.833933	-0.120088
O128	O	0.112505	-0.073581	0.000358
H129	H	0.125104	-0.094626	-0.119832
O130	O	0.217285	-0.072509	0.000316
H131	H	0.195515	-0.103423	0.000329
O132	O	-0.076217	0.196292	0.000190
H133	H	-0.099486	0.198166	-0.120015
O134	O	0.443094	-0.026078	0.000205
H135	H	0.481361	-0.018269	0.000219
O136	O	-0.038741	-0.075112	0.000335
H137	H	-0.061420	-0.077465	-0.119880
O138	O	0.028572	0.197360	0.000172
H139	H	-0.001662	0.227742	0.000182
O140	O	0.659566	-0.705897	0.000152
H141	H	0.661913	-0.683226	0.120378
H142	H	0.057760	-0.062462	0.000294
H143	H	0.654093	-0.095896	0.000285
O144	O	0.475247	-0.785384	0.000082
H145	H	0.444864	-0.755151	0.000054
O146	O	0.481497	-0.170338	0.000164
H147	H	0.451111	-0.140108	0.000148
H148	H	0.694282	-0.485125	0.000189
H149	H	0.693347	-0.576585	0.000166
H150	H	0.445246	-0.542327	0.000055
