data_functionalizedCrystal
_audit_creation_method	'MofGen! by Chris Wilmer'
_symmetry_space_group_name_H-M	'P1'
_symmetry_Int_Tables_number	1
_symmetry_cell_setting	triclinic
loop_
_symmetry_equiv_pos_as_xyz
  x,y,z
_cell_length_a	14.908783
_cell_length_b	16.959453
_cell_length_c	14.908308
_cell_angle_alpha	93.265363
_cell_angle_beta	89.788727
_cell_angle_gamma	93.310818
loop_
_atom_site_label
_atom_site_type_symbol
_atom_site_fract_x
_atom_site_fract_y
_atom_site_fract_z
Zn1	Zn	1.345317	-0.276462	-0.587824
Zn2	Zn	1.353899	-0.400618	-0.437461
Zn3	Zn	1.203631	-0.275607	-0.428795
Zn4	Zn	1.194925	-0.415754	-0.579083
O5	O	1.274443	-0.342110	-0.508291
O6	O	1.472283	-0.286955	-0.575163
O7	O	1.341201	-0.377343	-0.310489
O8	O	1.222478	-0.165108	-0.449922
O9	O	1.478588	-0.378172	-0.464692
O10	O	1.326574	-0.165737	-0.566760
O11	O	1.230799	-0.285498	-0.304122
O12	O	1.076648	-0.300174	-0.441446
O13	O	1.207640	-0.403969	-0.706065
O14	O	1.070252	-0.403140	-0.551862
O15	O	1.318133	-0.301632	-0.712487
O16	O	1.332759	-0.513238	-0.456216
O17	O	1.215961	-0.524358	-0.560265
C18	C	1.040824	-0.353207	-0.494766
C19	C	0.940880	-0.357974	-0.489001
C20	C	0.746496	-0.272096	-0.593377
C21	C	0.652590	-0.276573	-0.587963
C22	C	0.659158	-0.371400	-0.472756
C23	C	0.753065	-0.366923	-0.478170
C24	C	0.796731	-0.317271	-0.538483
C25	C	0.890639	-0.312798	-0.543901
C26	C	0.897206	-0.407621	-0.428689
C27	C	0.803299	-0.412097	-0.423276
C28	C	1.274370	-0.547478	-0.508254
C29	C	1.274419	-0.635333	-0.508272
C30	C	1.328713	-1.007080	-0.569241
C31	C	1.220416	-1.006533	-0.447489
C32	C	1.220384	-0.923988	-0.447466
C33	C	1.274516	-0.882985	-0.508333
C34	C	1.328681	-0.924527	-0.569222
C35	C	1.166213	-0.882440	-0.386584
C36	C	1.166178	-0.799889	-0.386560
C37	C	1.220316	-0.758884	-0.447423
C38	C	1.274484	-0.800432	-0.508314
C39	C	1.328616	-0.759429	-0.569181
C40	C	1.382789	-0.800974	-0.630068
C41	C	1.382819	-0.883522	-0.630085
C42	C	1.220287	-0.676336	-0.447406
C43	C	1.328584	-0.676876	-0.569162
C44	C	1.508974	-0.330971	-0.521869
C45	C	1.608917	-0.326224	-0.527656
C46	C	1.260958	-0.354584	-0.742813
C47	C	1.255211	-0.359900	-0.842753
C48	C	1.274540	-0.135940	-0.508349
C49	C	1.274581	-0.048083	-0.508374
C50	C	1.359466	-0.263306	-1.037238
C51	C	1.354070	-0.268298	-1.131140
C52	C	1.239017	-0.374870	-1.124461
C53	C	1.244414	-0.369879	-1.030558
C54	C	1.304641	-0.314096	-0.986951
C55	C	1.310042	-0.309108	-0.893047
C56	C	1.194986	-0.415676	-0.886369
C57	C	1.189589	-0.420668	-0.980271
C58	C	1.287927	-0.329626	-0.274684
C59	C	1.293848	-0.324079	-0.174755
H60	H	0.767734	-0.452521	-0.374168
H61	H	1.189983	-0.420286	-1.159982
C62	C	1.414384	-0.212428	-1.186454
N63	N	1.459815	-0.170344	-1.228116
C64	C	1.425720	-0.201949	-0.989268
N65	N	1.475623	-0.155733	-0.953138
H66	H	0.938116	-0.444412	-0.383997
C67	C	1.123336	-0.482021	-1.028250
N68	N	1.073432	-0.528232	-1.064386
C69	C	1.388139	-0.631779	-0.636118
N70	N	1.432996	-0.597812	-0.686550
H71	H	1.359083	-0.263688	-0.857543
H72	H	1.426860	-0.767580	-0.679630
H73	H	1.122139	-0.915831	-0.337032
H74	H	1.150346	-0.457035	-0.845414
H75	H	1.372822	-1.040909	-0.618812
C76	C	1.442398	-0.929228	-0.697060
N77	N	1.487271	-0.963658	-0.747508
H78	H	0.611692	-0.239785	-0.632661
C79	C	1.160947	-1.051632	-0.380473
N80	N	1.116183	-1.085601	-0.329969
H81	H	1.122069	-0.766068	-0.336981
H82	H	0.926190	-0.272370	-0.593012
C83	C	0.794530	-0.217483	-0.659725
N84	N	0.830708	-0.176346	-0.709700
C85	C	1.160702	-0.630640	-0.380432
N86	N	1.115822	-0.596222	-0.329982
C87	C	0.611110	-0.426007	-0.406409
N88	N	0.574919	-0.467136	-0.356436
