data_functionalizedCrystal
_audit_creation_method	'MofGen! by Chris Wilmer'
_symmetry_space_group_name_H-M	'P1'
_symmetry_Int_Tables_number	1
_symmetry_cell_setting	triclinic
loop_
_symmetry_equiv_pos_as_xyz
  x,y,z
_cell_length_a	21.295418
_cell_length_b	25.639239
_cell_length_c	21.295411
_cell_angle_alpha	89.980474
_cell_angle_beta	89.956262
_cell_angle_gamma	90.054499
loop_
_atom_site_label
_atom_site_type_symbol
_atom_site_fract_x
_atom_site_fract_y
_atom_site_fract_z
Zn1	Zn	0.962320	-0.207990	-0.356243
Zn2	Zn	0.962207	-0.295410	-0.250972
Zn3	Zn	0.857043	-0.208014	-0.250953
Zn4	Zn	0.856998	-0.295420	-0.356169
O5	O	0.909642	-0.251708	-0.303584
O6	O	1.050395	-0.219572	-0.342318
O7	O	0.948229	-0.283822	-0.162880
O8	O	0.871075	-0.134846	-0.264943
O9	O	1.050312	-0.283799	-0.264976
O10	O	0.948421	-0.134828	-0.342299
O11	O	0.870965	-0.219613	-0.162866
O12	O	0.768948	-0.219623	-0.264871
O13	O	0.870997	-0.283816	-0.444268
O14	O	0.768914	-0.283840	-0.342172
O15	O	0.948377	-0.219582	-0.444322
O16	O	0.948185	-0.368576	-0.264904
O17	O	0.870888	-0.368584	-0.342191
C18	C	0.746090	-0.251736	-0.303512
C19	C	0.676122	-0.251760	-0.303496
C20	C	0.643255	-0.285242	-0.343686
C21	C	0.577512	-0.285229	-0.343715
C22	C	0.544640	-0.251740	-0.303541
C23	C	0.577515	-0.218252	-0.263347
C24	C	0.643257	-0.218262	-0.263325
N25	N	0.441365	-0.247648	-0.248483
N26	N	0.378913	-0.247641	-0.248506
C27	C	0.346565	-0.251707	-0.303608
N28	N	0.379028	-0.255789	-0.358686
N29	N	0.441485	-0.255799	-0.358662
C30	C	0.473354	-0.251725	-0.303561
C31	C	0.242412	-0.285176	-0.343832
C32	C	0.176668	-0.285160	-0.343862
C33	C	0.176673	-0.218185	-0.263489
C34	C	0.242415	-0.218199	-0.263465
C35	C	0.275281	-0.251697	-0.303636
C36	C	0.909536	-0.387551	-0.303555
C37	C	0.909548	-0.445665	-0.303564
C38	C	0.949996	-0.806011	-0.263409
C39	C	0.950020	-0.860616	-0.263418
O40	O	0.984300	-0.888838	-0.229245
N41	N	0.909753	-0.887947	-0.303626
C42	C	0.869463	-0.860672	-0.343833
O43	O	0.835215	-0.888934	-0.378034
C44	C	0.869442	-0.806069	-0.343827
C45	C	0.909708	-0.778740	-0.303612
C46	C	0.990259	-0.778683	-0.223198
C47	C	0.990233	-0.724082	-0.223188
C48	C	0.949945	-0.696810	-0.263391
C49	C	0.909682	-0.724139	-0.303603
C50	C	0.829156	-0.778794	-0.384037
C51	C	0.829139	-0.724187	-0.384028
C52	C	0.869404	-0.696858	-0.343812
C53	C	0.869369	-0.642267	-0.343796
N54	N	0.909636	-0.614935	-0.303588
C55	C	0.949924	-0.642207	-0.263385
C56	C	0.869510	-0.975343	-0.343842
C57	C	0.869527	-1.029945	-0.343845
C58	C	0.950086	-1.029885	-0.263431
C59	C	0.950065	-0.975282	-0.263425
C60	C	0.909778	-0.948011	-0.303634
C61	C	0.949868	-0.527542	-0.263369
C62	C	0.949837	-0.472937	-0.263361
C63	C	0.869281	-0.473001	-0.343778
C64	C	0.869309	-0.527602	-0.343783
C65	C	0.909607	-0.554871	-0.303577
O66	O	0.835108	-0.614010	-0.377953
O67	O	0.984172	-0.613939	-0.229195
C68	C	1.073832	-0.251681	-0.303657
C69	C	1.143801	-0.251670	-0.303688
C70	C	0.909694	-0.251697	-0.467774
C71	C	0.909717	-0.251693	-0.537743
C72	C	0.909766	-0.115335	-0.303627
C73	C	0.909818	-0.057221	-0.303645
C74	C	0.950007	-0.218244	-0.570639
C75	C	0.950006	-0.218221	-0.636381
C76	C	0.909721	-0.251657	-0.669225
C77	C	0.869424	-0.285108	-0.636321
C78	C	0.869421	-0.285126	-0.570580
N79	N	0.904857	-0.297396	-0.772441
N80	N	0.904863	-0.297377	-0.834892
C81	C	0.909725	-0.251604	-0.867300
N82	N	0.914594	-0.205848	-0.834897
N83	N	0.914591	-0.205867	-0.772440
C84	C	0.909719	-0.251641	-0.740511
C85	C	0.950017	-0.218128	-0.971482
C86	C	0.950011	-0.218104	-1.037225
C87	C	0.869433	-0.284995	-1.037164
C88	C	0.869435	-0.285014	-0.971422
C89	C	0.909730	-0.251581	-0.938584
C90	C	0.909626	-0.251682	-0.140032
C91	C	0.909726	-0.251539	-0.070065
H92	H	0.149909	-0.312424	-0.376594
H93	H	0.982824	-0.190902	-0.944744
O94	O	0.675246	-0.317704	-0.382746
C95	C	0.713343	-0.287990	-0.423468
H96	H	0.723225	-0.248343	-0.401348
H97	H	0.759552	-0.309304	-0.431848
H98	H	0.688061	-0.282296	-0.470136
H99	H	1.023070	-0.800881	-0.190460
H100	H	0.982813	-0.190981	-0.663170
O101	O	0.989164	-0.185715	-0.538839
C102	C	1.024736	-0.156197	-0.581977
H103	H	0.998956	-0.154380	-0.628821
H104	H	1.031488	-0.115006	-0.562990
H105	H	1.072527	-0.175334	-0.589002
H106	H	0.550746	-0.312494	-0.376445
O107	O	0.989210	-0.185593	-1.069085
C108	C	1.024762	-0.156082	-1.026002
H109	H	1.026920	-0.177512	-0.979141
H110	H	1.074365	-0.150495	-1.045034
H111	H	1.001751	-0.116377	-1.018991
H112	H	0.836626	-0.312213	-1.063905
O113	O	0.830383	-0.317644	-0.668250
C114	C	0.866194	-0.351390	-0.706312
H115	H	0.915768	-0.354616	-0.686535
H116	H	0.843390	-0.391630	-0.707040
H117	H	0.868380	-0.335212	-0.756139
O118	O	0.144651	-0.185715	-0.224468
C119	C	0.079578	-0.192880	-0.233110
H120	H	0.070570	-0.233247	-0.253663
H121	H	0.054552	-0.189294	-0.185968
H122	H	0.060989	-0.161895	-0.266686
O123	O	0.274415	-0.185751	-0.224386
C124	C	0.312343	-0.215476	-0.183640
H125	H	0.322163	-0.255127	-0.205752
H126	H	0.358593	-0.194177	-0.175232
H127	H	0.286946	-0.221161	-0.136987
H128	H	0.836630	-0.312254	-0.944637
O129	O	0.830266	-0.317672	-0.538719
C130	C	0.794695	-0.347169	-0.581801
H131	H	0.820475	-0.348960	-0.628685
H132	H	0.787946	-0.388371	-0.562803
H133	H	0.746903	-0.328030	-0.588753
O134	O	0.989013	-0.446471	-0.224275
C135	C	1.024566	-0.482255	-0.188785
H136	H	1.026749	-0.521165	-0.214581
H137	H	1.074161	-0.466428	-0.182129
H138	H	1.001541	-0.488108	-0.140949
H139	H	0.982684	-0.549738	-0.230630
H140	H	1.023023	-0.701834	-0.190444
O141	O	0.545560	-0.185797	-0.224251
C142	C	0.507439	-0.215510	-0.183551
H143	H	0.527191	-0.256687	-0.179569
H144	H	0.506669	-0.196543	-0.135147
H145	H	0.457632	-0.217328	-0.203023
O146	O	0.830388	-1.056408	-0.382965
C147	C	0.794815	-1.020621	-0.418431
H148	H	0.820584	-0.981671	-0.420633
H149	H	0.788080	-1.036382	-0.468024
H150	H	0.747015	-1.014875	-0.395317
O151	O	0.675159	-0.185794	-0.224188
C152	C	0.658995	-0.197133	-0.161430
H153	H	0.640858	-0.238893	-0.158168
H154	H	0.702200	-0.192600	-0.130324
H155	H	0.620858	-0.169073	-0.145051
O156	O	0.274245	-0.317726	-0.382918
C157	C	0.231134	-0.347282	-0.418393
H158	H	0.184303	-0.325861	-0.420635
H159	H	0.250177	-0.352920	-0.467972
H160	H	0.224060	-0.386963	-0.395261
O161	O	0.989240	-0.948817	-0.224343
C162	C	1.024787	-0.984604	-0.188849
H163	H	1.026965	-1.023514	-0.214643
H164	H	1.074383	-0.968782	-0.182192
H165	H	1.001758	-0.990453	-0.141014
H166	H	0.982893	-1.052099	-0.230698
O167	O	0.830335	-0.948797	-0.382811
C168	C	0.789669	-0.917279	-0.346918
H169	H	0.811892	-0.909086	-0.299242
H170	H	0.781198	-0.878885	-0.372548
H171	H	0.743035	-0.938379	-0.339940
H172	H	0.796364	-0.801036	-0.416781
O173	O	0.789944	-0.697778	-0.423110
C174	C	0.754427	-0.733613	-0.458615
H175	H	0.752275	-0.772547	-0.432831
H176	H	0.704820	-0.717889	-0.465274
H177	H	0.777465	-0.739379	-0.506450
O178	O	0.830174	-0.554072	-0.382905
C179	C	0.794597	-0.518289	-0.418373
H180	H	0.820358	-0.479335	-0.420571
H181	H	0.787869	-0.534049	-0.467967
H182	H	0.746794	-0.512549	-0.395262
O183	O	0.830240	-0.446479	-0.382897
C184	C	0.866058	-0.414831	-0.423575
H185	H	0.915639	-0.431239	-0.427523
H186	H	0.843274	-0.414210	-0.471994
H187	H	0.868225	-0.373456	-0.404103
