data_functionalizedCrystal
_audit_creation_method	'MofGen! by Chris Wilmer'
_symmetry_space_group_name_H-M	'P1'
_symmetry_Int_Tables_number	1
_symmetry_cell_setting	triclinic
loop_
_symmetry_equiv_pos_as_xyz
  x,y,z
_cell_length_a	12.759394
_cell_length_b	12.759401
_cell_length_c	12.759401
_cell_angle_alpha	89.993060
_cell_angle_beta	90.008635
_cell_angle_gamma	89.983638
loop_
_atom_site_label
_atom_site_type_symbol
_atom_site_fract_x
_atom_site_fract_y
_atom_site_fract_z
Zn1	Zn	-0.418407	-1.606120	0.594014
Zn2	Zn	0.081593	-1.106120	1.094014
Zn3	Zn	-0.594053	-1.606054	0.418332
Zn4	Zn	-0.094053	-1.106054	0.918332
Zn5	Zn	-0.418394	-1.430462	0.418350
Zn6	Zn	0.081606	-0.930462	0.918350
Zn7	Zn	-0.594049	-1.430410	0.593969
Zn8	Zn	-0.094049	-0.930410	1.093969
O9	O	-0.506226	-1.518262	0.506166
O10	O	-0.006226	-1.018262	1.006166
O11	O	-0.441714	-1.753132	0.570721
O12	O	0.058286	-1.253132	1.070721
O13	O	-0.570748	-1.582755	0.271314
O14	O	-0.070748	-1.082755	0.771314
O15	O	-0.271374	-1.453813	0.441678
O16	O	0.228626	-0.953813	0.941678
O17	O	-0.570761	-1.753084	0.441649
O18	O	-0.070761	-1.253084	0.941649
O19	O	-0.271384	-1.582868	0.570738
O20	O	0.228616	-1.082868	1.070738
O21	O	-0.441692	-1.453748	0.271326
O22	O	0.058308	-0.953748	0.771326
O23	O	-0.441688	-1.283434	0.441634
O24	O	0.058312	-0.783434	0.941634
O25	O	-0.570754	-1.453725	0.740996
O26	O	-0.070754	-0.953725	1.240996
O27	O	-0.570741	-1.283396	0.570662
O28	O	-0.070741	-0.783396	1.070662
O29	O	-0.441710	-1.582818	0.741029
O30	O	0.058290	-1.082818	1.241029
O31	O	-0.741074	-1.582705	0.441605
O32	O	-0.241074	-1.082705	0.941605
O33	O	-0.741071	-1.453661	0.570645
O34	O	-0.241071	-0.953661	1.070645
C35	C	-0.506213	-1.245294	0.506146
C36	C	-0.006213	-0.745294	1.006146
C37	C	-0.506233	-1.128518	0.506162
C38	C	-0.006233	-0.628518	1.006162
C39	C	-0.779193	-1.518198	0.506141
C40	C	-0.279193	-1.018198	1.006141
C41	C	-0.895970	-1.518268	0.506165
C42	C	-0.395970	-1.018268	1.006165
C43	C	-0.506233	-1.518273	0.780200
C44	C	-0.006233	-1.018273	1.280200
C45	C	-0.506236	-1.518278	0.896976
C46	C	-0.006236	-1.018278	1.396976
C47	C	-0.895920	-1.652742	0.371897
C48	C	-0.395920	-1.152742	0.871897
C49	C	-0.950756	-1.720007	0.304775
C50	C	-0.450756	-1.220007	0.804775
C51	C	-1.060477	-1.720069	0.304804
C52	C	-0.560477	-1.220069	0.804804
C53	C	-1.115366	-1.652861	0.371963
C54	C	-0.615366	-1.152861	0.871963
C55	C	-1.060530	-1.585596	0.439085
C56	C	-0.560530	-1.085596	0.939085
C57	C	-0.950806	-1.585539	0.439047
C58	C	-0.450806	-1.085539	0.939047
C59	C	-1.060580	-1.451128	0.573357
C60	C	-0.560580	-0.951128	1.073357
C61	C	-0.950858	-1.451059	0.573325
C62	C	-0.450858	-0.951059	1.073325
C63	C	-1.115468	-1.383920	0.640517
C64	C	-0.615468	-0.883920	1.140517
C65	C	-1.060633	-1.316648	0.707636
C66	C	-0.560633	-0.816648	1.207636
C67	C	-0.950904	-1.316588	0.707603
C68	C	-0.450904	-0.816588	1.207603
C69	C	-0.896023	-1.383795	0.640447
C70	C	-0.396023	-0.883795	1.140447
C71	C	-0.232193	-1.518353	0.506215
C72	C	0.267807	-1.018353	1.006215
C73	C	-0.115416	-1.518393	0.506236
C74	C	0.384584	-1.018393	1.006236
C75	C	-0.506240	-1.792295	0.506188
C76	C	-0.006240	-1.292295	1.006188
C77	C	-0.506245	-1.909071	0.506197
C78	C	-0.006245	-1.409071	1.006197
C79	C	-0.573533	-1.073663	0.573240
C80	C	-0.073533	-0.573663	1.073240
C81	C	-0.573537	-0.963939	0.573261
C82	C	-0.073537	-0.463939	1.073261
C83	C	-0.438938	-0.963933	0.439116
C84	C	0.061062	-0.463933	0.939116
C85	C	-0.438929	-1.073655	0.439101
C86	C	0.061071	-0.573655	0.939101
C87	C	-0.439054	-1.585489	0.951857
C88	C	0.060946	-1.085489	1.451857
C89	C	-0.439052	-1.585480	1.061581
C90	C	0.060948	-1.085480	1.561581
C91	C	-0.573423	-1.451047	1.061534
C92	C	-0.073423	-0.951047	1.561534
C93	C	-0.573419	-1.451051	0.951812
C94	C	-0.073419	-0.951051	1.451812
C95	C	-0.506242	-1.518249	1.233199
C96	C	-0.006242	-1.018249	1.733199
C97	C	-0.506238	-1.518265	1.116422
C98	C	-0.006238	-1.018265	1.616422
H99	H	-0.806579	-1.652686	0.371853
H100	H	-0.306579	-1.152686	0.871853
H101	H	-0.384143	-0.919251	0.384515
H102	H	0.115857	-0.419251	0.884515
H103	H	-1.204810	-1.383979	0.640540
H104	H	-0.704810	-0.883979	1.140540
H105	H	-0.806682	-1.383746	0.640408
H106	H	-0.306682	-0.883746	1.140408
H107	H	-0.384119	-1.118319	0.384477
H108	H	0.115881	-0.618319	0.884477
O109	O	-0.645863	-1.378523	0.892623
O110	O	-0.145863	-0.878523	1.392623
H111	H	-0.728331	-1.396490	0.913652
H112	H	-0.228331	-0.896490	1.413652
H113	H	-1.105331	-1.261938	0.762316
H114	H	-0.605331	-0.761938	1.262316
H115	H	-0.384346	-1.640226	0.907213
H116	H	0.115654	-1.140226	1.407213
H117	H	-0.384344	-1.640207	1.106260
H118	H	0.115656	-1.140207	1.606260
O119	O	-0.891760	-1.244027	0.779989
O120	O	-0.391760	-0.744027	1.279989
H121	H	-0.948364	-1.197300	0.826680
H122	H	-0.448364	-0.697300	1.326680
O123	O	-0.646108	-1.132842	0.645578
O124	O	-0.146108	-0.632842	1.145578
H125	H	-0.692898	-1.076260	0.692234
H126	H	-0.192898	-0.576260	1.192234
O127	O	-0.645885	-1.378541	1.120676
O128	O	-0.145885	-0.878541	1.620676
H129	H	-0.634609	-1.389833	1.206194
H130	H	-0.134609	-0.889833	1.706194
H131	H	-1.105124	-1.774847	0.250152
H132	H	-0.605124	-1.274847	0.750152
O133	O	-0.646127	-0.904715	0.645561
O134	O	-0.146127	-0.404715	1.145561
H135	H	-0.699458	-0.854706	0.598391
H136	H	-0.199458	-0.354706	1.098391
O137	O	-0.891547	-1.792509	0.232363
O138	O	-0.391547	-1.292509	0.732363
H139	H	-0.841615	-1.745509	0.178850
H140	H	-0.341615	-1.245509	0.678850
O141	O	-1.233708	-1.652921	0.371998
O142	O	-0.733708	-1.152921	0.871998
H143	H	-1.262618	-1.710982	0.314039
H144	H	-0.762618	-1.210982	0.814039
