data_functionalizedCrystal
_audit_creation_method	'MofGen! by Chris Wilmer'
_symmetry_space_group_name_H-M	'P1'
_symmetry_Int_Tables_number	1
_symmetry_cell_setting	triclinic
loop_
_symmetry_equiv_pos_as_xyz
  x,y,z
_cell_length_a	16.974897
_cell_length_b	27.731996
_cell_length_c	16.053802
_cell_angle_alpha	92.537600
_cell_angle_beta	83.774775
_cell_angle_gamma	83.011669
loop_
_atom_site_label
_atom_site_type_symbol
_atom_site_fract_x
_atom_site_fract_y
_atom_site_fract_z
O1	O	1.055171	0.057516	-0.140660
O2	O	0.824115	0.065813	-0.125068
O3	O	0.946840	-0.008719	-0.133331
O4	O	0.932446	0.132049	-0.132396
O5	O	0.940085	-0.004634	0.005982
O6	O	0.817360	0.069899	0.014246
O7	O	1.048417	0.061602	-0.001346
Zn8	Zn	0.931816	0.066399	0.028569
Zn9	Zn	0.940716	0.061016	-0.154983
O10	O	0.925691	0.136134	0.006918
C11	C	0.791186	0.067615	-0.053416
C12	C	0.703134	0.066891	-0.047473
C13	C	0.665442	0.064325	-0.120615
C14	C	0.582705	0.063654	-0.115019
C15	C	0.537663	0.065544	-0.036280
C16	C	0.575361	0.068111	0.036867
C17	C	0.658096	0.068787	0.031270
C18	C	0.289829	0.063766	-0.011397
C19	C	0.207090	0.063089	-0.005806
C20	C	0.214439	0.058632	-0.157693
C21	C	0.297176	0.059305	-0.163283
C22	C	0.334866	0.061875	-0.090136
N23	N	0.453094	0.064856	-0.030558
N24	N	0.419433	0.062567	-0.095858
C25	C	0.943167	-0.024685	-0.063652
C26	C	0.942275	-0.078342	-0.063583
C27	C	0.940356	-0.413298	-0.139186
C28	C	0.936974	-0.614963	-0.138972
O29	O	0.939634	-0.642929	-0.203525
N30	N	0.932872	-0.637954	-0.063005
C31	C	0.929610	-0.610525	0.012915
O32	O	0.926035	-0.634707	0.077536
C33	C	0.932986	-0.408860	0.012701
C34	C	0.937096	-0.385873	-0.063272
C35	C	0.944465	-0.390310	-0.215153
C36	C	0.945315	-0.339897	-0.215205
C37	C	0.942055	-0.312472	-0.139292
C38	C	0.937946	-0.335460	-0.063325
C39	C	0.929718	-0.381431	0.088621
C40	C	0.930560	-0.331012	0.088561
C41	C	0.934671	-0.308025	0.012588
C42	C	0.935536	-0.257621	0.012536
N43	N	0.939638	-0.234631	-0.063431
C44	C	0.942898	-0.262056	-0.139345
C45	C	0.927839	-0.716402	0.013022
C46	C	0.926997	-0.766818	0.013076
C47	C	0.934360	-0.771253	-0.138812
C48	C	0.935208	-0.720836	-0.138865
C49	C	0.931941	-0.693411	-0.062945
C50	C	0.944682	-0.156185	-0.139451
C51	C	0.945535	-0.105767	-0.139497
C52	C	0.938168	-0.101337	0.012391
C53	C	0.937319	-0.151750	0.012437
C54	C	0.940574	-0.179173	-0.063490
O55	O	0.932869	-0.229625	0.077056
O56	O	0.946454	-0.237863	-0.203955
C57	C	0.939506	-0.463711	-0.139133
C58	C	0.935397	-0.486698	-0.063166
C59	C	0.932137	-0.459273	0.012748
C60	C	0.934554	-0.537114	-0.063112
C61	C	0.937814	-0.564540	-0.139026
C62	C	0.941916	-0.541549	-0.214994
C63	C	0.942766	-0.491136	-0.215047
C64	C	0.928035	-0.482264	0.088716
C65	C	0.927187	-0.532677	0.088762
C66	C	0.930446	-0.560103	0.012848
C67	C	1.081345	0.059800	-0.072999
C68	C	1.169397	0.060523	-0.078948
C69	C	0.929365	0.152099	-0.062764
C70	C	0.930256	0.205757	-0.062838
N71	N	0.925748	0.070072	0.153838
N72	N	0.946790	0.057339	-0.280252
C73	C	0.977986	0.038370	0.194014
C74	C	0.973749	0.040944	0.281706
C75	C	0.917276	0.075223	0.329220
C76	C	0.865032	0.106927	0.289038
C77	C	0.869266	0.104351	0.201348
C78	C	0.898780	0.086466	0.591875
C79	C	0.894552	0.089041	0.679571
C80	C	1.003268	0.023057	0.672234
C81	C	1.007500	0.020485	0.584542
C82	C	0.955253	0.052187	0.544368
N83	N	0.912945	0.077856	0.418856
N84	N	0.959581	0.049551	0.454734
H85	H	0.538681	0.069653	0.100978
N86	N	0.345745	0.057262	-0.248214
H87	H	0.326152	0.086132	-0.279993
H88	H	0.403866	0.058060	-0.240599
H89	H	1.053485	-0.007428	0.545858
H90	H	0.856240	0.112280	0.559172
H91	H	0.933980	-0.170468	0.074300
N92	N	0.833647	0.126020	0.730821
H93	H	0.801192	0.145713	0.692066
H94	H	0.797058	0.108665	0.769581
N95	N	0.924531	-0.452688	0.170597
H96	H	0.875527	-0.427619	0.177292
H97	H	0.921837	-0.474941	0.218674
N98	N	0.934641	-0.071749	0.094265
H99	H	0.931907	-0.093959	0.142405
H100	H	0.984025	-0.054783	0.094236
N101	N	0.804115	0.143897	0.340281
H102	H	0.809360	0.140721	0.401929
H103	H	0.813583	0.177719	0.324345
H104	H	1.016285	0.015129	0.314417
H105	H	0.320507	0.065856	0.048164
H106	H	0.688783	0.070878	0.090830
H107	H	0.947329	-0.178506	-0.201277
H108	H	0.826727	0.130165	0.168638
N109	N	0.947200	-0.466346	-0.296989
H110	H	0.949134	-0.491376	-0.345066
H111	H	0.898516	-0.441475	-0.297007
N112	N	1.059616	-0.011135	0.715564
H113	H	1.048367	-0.004303	0.778325
H114	H	1.051626	-0.045857	0.700842
H115	H	0.702110	0.062785	-0.184733
H116	H	0.948659	-0.321185	-0.277070
N117	N	0.948035	-0.419890	-0.297042
H118	H	0.950784	-0.397671	-0.345168
H119	H	0.997060	-0.444938	-0.303610
H120	H	0.552020	0.061564	-0.174579
H121	H	0.183743	0.056541	-0.217245
H122	H	0.948884	-0.087054	-0.201366
H123	H	0.938554	-0.702123	-0.200729
N124	N	0.158511	0.065126	0.079126
H125	H	0.195020	0.066522	0.124605
H126	H	0.117578	0.095082	0.085432
N127	N	0.937889	-0.800830	-0.220702
H128	H	0.888512	-0.817800	-0.220757
H129	H	0.940645	-0.778582	-0.268782
N130	N	0.922580	-0.791610	0.095016
H131	H	0.920642	-0.766582	0.143095
H132	H	0.872875	-0.808383	0.101671
H133	H	1.023975	0.010458	0.155334
H134	H	0.925183	-0.694077	0.074848
H135	H	0.927888	-0.308684	0.150386
N136	N	0.925268	-0.406219	0.170562
H137	H	0.973942	-0.431089	0.170668
H138	H	0.923296	-0.381159	0.218595
H139	H	0.944574	-0.563888	-0.276806
H140	H	0.923845	-0.551390	0.150633
