data_functionalizedCrystal
_audit_creation_method	'MofGen! by Chris Wilmer'
_symmetry_space_group_name_H-M	'P1'
_symmetry_Int_Tables_number	1
_symmetry_cell_setting	triclinic
loop_
_symmetry_equiv_pos_as_xyz
  x,y,z
_cell_length_a	9.065215
_cell_length_b	15.995292
_cell_length_c	8.140239
_cell_angle_alpha	89.999675
_cell_angle_beta	89.997810
_cell_angle_gamma	84.241657
loop_
_atom_site_label
_atom_site_type_symbol
_atom_site_fract_x
_atom_site_fract_y
_atom_site_fract_z
O1	O	1.957465	0.122762	-0.136581
O2	O	1.527938	0.132835	-0.136588
O3	O	1.754488	0.005996	-0.136587
O4	O	1.730915	0.249600	-0.136582
O5	O	1.754475	0.005995	0.136640
O6	O	1.527926	0.132833	0.136640
O7	O	1.957452	0.122760	0.136646
Zn8	Zn	1.742687	0.127796	0.180023
Zn9	Zn	1.742703	0.127798	-0.179965
O10	O	1.730903	0.249598	0.136645
C11	C	1.472969	0.131866	0.000025
C12	C	1.309195	0.128973	0.000022
C13	C	1.753522	-0.025207	0.000023
C14	C	1.750646	-0.118182	0.000010
C15	C	1.740072	-0.456001	0.000025
C16	C	1.903589	-0.431449	0.000638
C17	C	1.906697	-0.334750	0.000016
C18	C	1.745319	-0.288405	0.000019
C19	C	1.663575	-0.318124	-0.156003
C20	C	1.661606	-0.414930	-0.156128
C21	C	1.658253	-0.414814	0.154582
C22	C	1.664313	-0.318276	0.156638
C23	C	1.748275	-0.193686	0.000010
C24	C	1.737110	-0.550719	0.000023
C25	C	2.012422	0.123728	0.000030
C26	C	2.176196	0.126621	0.000022
C27	C	1.731869	0.280802	0.000032
C28	C	1.734745	0.373777	0.000034
N29	N	1.742687	0.127795	0.425706
N30	N	1.742716	0.127794	-0.425648
H31	H	1.966611	-0.458969	0.112528
N32	N	1.986991	-0.310270	0.140328
N33	N	1.943523	-0.326105	0.281630
H34	H	2.000238	-0.308821	0.380730
H35	H	1.544822	-0.287157	-0.161802
N36	N	1.511221	-0.434345	-0.165055
N37	N	1.482980	-0.509241	-0.166750
H38	H	1.376773	-0.522952	-0.173068
H39	H	1.966271	-0.459991	-0.110623
H40	H	1.720350	-0.297633	-0.272116
H41	H	1.723835	-0.299260	0.272062
N42	N	1.722528	-0.449757	0.302940
N43	N	1.777327	-0.403352	0.405033
H44	H	1.822740	-0.428030	0.509803
H45	H	1.546522	-0.286199	0.166063
H46	H	1.718229	-0.441317	-0.272759
N47	N	1.507256	-0.433495	0.155909
N48	N	1.423290	-0.410457	0.039139
H49	H	1.316651	-0.423653	0.040066
N50	N	1.987498	-0.311055	-0.140536
N51	N	2.041759	-0.365968	-0.238484
H52	H	2.098826	-0.349235	-0.337758
