data_functionalizedCrystal
_audit_creation_method	'MofGen! by Chris Wilmer'
_symmetry_space_group_name_H-M	'P1'
_symmetry_Int_Tables_number	1
_symmetry_cell_setting	triclinic
loop_
_symmetry_equiv_pos_as_xyz
  x,y,z
_cell_length_a	19.805405
_cell_length_b	19.805407
_cell_length_c	19.805399
_cell_angle_alpha	89.980803
_cell_angle_beta	90.029301
_cell_angle_gamma	89.977440
loop_
_atom_site_label
_atom_site_type_symbol
_atom_site_fract_x
_atom_site_fract_y
_atom_site_fract_z
Zn1	Zn	-0.269548	-1.034736	0.382705
Zn2	Zn	-0.382737	-1.034650	0.269513
Zn3	Zn	-0.269559	-0.921550	0.269530
Zn4	Zn	-0.382693	-0.921514	0.382661
O5	O	-0.326134	-0.978113	0.326102
O6	O	-0.284577	-1.129441	0.367701
O7	O	-0.367746	-1.019627	0.174799
O8	O	-0.174841	-0.936615	0.284569
O9	O	-0.367736	-1.129378	0.284540
O10	O	-0.174833	-1.019772	0.367717
O11	O	-0.284596	-0.936533	0.174811
O12	O	-0.284553	-0.826829	0.284526
O13	O	-0.367661	-0.936553	0.477383
O14	O	-0.367672	-0.826802	0.367642
O15	O	-0.284534	-1.019737	0.477415
O16	O	-0.477448	-1.019592	0.284497
O17	O	-0.477416	-0.936471	0.367626
C18	C	-0.326110	-0.802257	0.326081
C19	C	-0.326115	-0.727025	0.326089
C20	C	-0.282890	-0.691714	0.369456
C21	C	-0.282892	-0.621025	0.369457
C22	C	-0.326124	-0.585649	0.326093
C23	C	-0.369350	-0.620965	0.282721
C24	C	-0.369344	-0.691652	0.282718
C25	C	-0.369375	-0.335892	0.282735
C26	C	-0.369379	-0.265199	0.282744
C27	C	-0.282923	-0.265265	0.369474
C28	C	-0.282917	-0.335952	0.369470
C29	C	-0.326141	-0.371262	0.326096
C30	C	-0.326137	-0.447910	0.326095
C31	C	-0.326131	-0.509002	0.326098
C32	C	-0.501991	-0.978036	0.326069
C33	C	-0.577222	-0.978066	0.326078
C34	C	-0.612561	-1.021389	0.282838
C35	C	-0.683249	-1.021418	0.282853
C36	C	-0.718598	-0.978119	0.326105
C37	C	-0.683255	-0.934794	0.369350
C38	C	-0.612568	-0.934769	0.369338
C39	C	-0.968328	-0.934894	0.369400
C40	C	-1.039020	-0.934921	0.369407
C41	C	-1.039010	-1.021542	0.282915
C42	C	-0.968322	-1.021517	0.282903
C43	C	-0.932985	-0.978195	0.326150
C44	C	-0.856337	-0.978165	0.326134
C45	C	-0.795245	-0.978145	0.326118
C46	C	-0.149592	-0.978207	0.326150
C47	C	-0.074360	-0.978248	0.326170
C48	C	-0.326092	-0.978151	0.502645
C49	C	-0.326074	-0.978167	0.577877
C50	C	-0.326155	-0.154655	0.326117
C51	C	-0.326150	-0.229887	0.326108
C52	C	-0.326128	-0.978114	0.150246
C53	C	-0.325956	-0.978229	0.075015
C54	C	-0.282787	-1.021481	0.613239
C55	C	-0.282768	-1.021488	0.683928
C56	C	-0.326038	-0.978184	0.719253
C57	C	-0.369327	-0.934864	0.683886
C58	C	-0.369342	-0.934854	0.613198
C59	C	-0.369264	-0.934902	0.968959
C60	C	-0.369246	-0.934917	1.039651
C61	C	-0.282689	-1.021536	1.039688
C62	C	-0.282705	-1.021527	0.969001
C63	C	-0.325990	-0.978205	0.933640
C64	C	-0.326010	-0.978197	0.856992
C65	C	-0.326022	-0.978194	0.795900
H66	H	-0.247696	-0.592278	0.404772
C67	C	-0.235361	-0.374862	0.417168
H68	H	-0.209613	-0.343708	0.442992
H69	H	-0.261286	-0.402443	0.446610
H70	H	-0.205832	-0.402434	0.391321
C71	C	-0.573683	-1.069019	0.235261
H72	H	-0.604856	-1.094829	0.209516
H73	H	-0.546146	-1.043138	0.205740
H74	H	-0.546070	-1.098487	0.261181
C75	C	-0.722119	-1.069070	0.235286
H76	H	-0.690942	-1.094846	0.209519
H77	H	-0.749654	-1.098558	0.261206
H78	H	-0.749733	-1.043199	0.205775
C79	C	-0.416897	-0.730494	0.235019
H80	H	-0.442651	-0.699303	0.209199
H81	H	-0.390968	-0.758068	0.205573
H82	H	-0.446422	-0.758068	0.260863
C83	C	-1.077882	-1.069201	0.235348
H84	H	-1.125044	-1.063022	0.241552
H85	H	-1.066335	-1.059316	0.189861
H86	H	-1.066255	-1.114671	0.245296
C87	C	-0.235338	-0.730624	0.417156
H88	H	-0.241529	-0.777781	0.410949
H89	H	-0.189849	-0.719051	0.407336
H90	H	-0.245310	-0.719053	0.462618
H91	H	-0.247471	-1.056792	0.940243
H92	H	-0.247441	-1.056809	1.068488
C93	C	-0.235171	-1.069150	0.722826
H94	H	-0.241356	-1.062954	0.769984
H95	H	-0.245102	-1.114615	0.711241
H96	H	-0.189687	-1.059280	0.711258
H97	H	-0.404571	-0.364632	0.247418
H98	H	-0.247553	-1.056747	0.584482
H99	H	-0.712041	-0.899543	0.404569
H100	H	-0.939544	-1.056773	0.247681
C101	C	-0.416925	-0.887228	0.722738
H102	H	-0.442703	-0.861426	0.691552
H103	H	-0.446414	-0.913108	0.750309
H104	H	-0.391019	-0.857753	0.750315
C105	C	-0.235370	-0.226422	0.417179
H106	H	-0.241557	-0.179257	0.410968
H107	H	-0.245335	-0.238021	0.462637
H108	H	-0.189877	-0.238020	0.407352
C109	C	-1.077903	-0.887296	0.416992
H110	H	-1.046734	-0.861496	0.442752
H111	H	-1.105518	-0.857828	0.391081
H112	H	-1.105438	-0.913190	0.446509
H113	H	-0.583796	-0.899492	0.404549
H114	H	-0.939562	-0.899618	0.404612
H115	H	-0.404547	-0.592156	0.247411
C116	C	-0.416841	-0.887275	1.078508
H117	H	-0.442618	-0.861467	1.047325
H118	H	-0.446331	-0.913152	1.106079
H119	H	-0.390929	-0.857804	1.106084
C120	C	-0.416862	-0.887237	0.930071
H121	H	-0.442628	-0.861449	0.961235
H122	H	-0.390957	-0.857760	0.902508
H123	H	-0.446372	-0.913094	0.902483
C124	C	-0.416974	-0.887225	0.574300
H125	H	-0.442751	-0.861444	0.605461
H126	H	-0.391098	-0.857739	0.546719
H127	H	-0.446473	-0.913115	0.546730
H128	H	-0.404585	-0.236398	0.247430
