data_functionalizedCrystal
_audit_creation_method	'MofGen! by Chris Wilmer'
_symmetry_space_group_name_H-M	'P1'
_symmetry_Int_Tables_number	1
_symmetry_cell_setting	triclinic
loop_
_symmetry_equiv_pos_as_xyz
  x,y,z
_cell_length_a	21.395362
_cell_length_b	29.839131
_cell_length_c	21.395356
_cell_angle_alpha	89.970658
_cell_angle_beta	89.957023
_cell_angle_gamma	90.057297
loop_
_atom_site_label
_atom_site_type_symbol
_atom_site_fract_x
_atom_site_fract_y
_atom_site_fract_z
Zn1	Zn	0.957807	-0.178674	-0.354578
Zn2	Zn	1.457807	0.321326	0.145422
Zn3	Zn	0.957692	-0.253802	-0.249798
Zn4	Zn	1.457692	0.246198	0.250202
Zn5	Zn	0.853024	-0.178707	-0.249780
Zn6	Zn	1.353024	0.321293	0.250220
Zn7	Zn	0.852972	-0.253799	-0.354503
Zn8	Zn	1.352972	0.246201	0.145497
O9	O	0.905373	-0.216245	-0.302165
O10	O	1.405373	0.283755	0.197835
O11	O	1.045470	-0.188627	-0.340718
O12	O	1.545470	0.311373	0.159282
O13	O	0.943781	-0.243855	-0.162117
O14	O	1.443781	0.256145	0.337883
O15	O	0.866994	-0.115836	-0.263706
O16	O	1.366994	0.384164	0.236294
O17	O	1.045385	-0.243823	-0.263737
O18	O	1.545385	0.256177	0.236263
O19	O	0.943977	-0.115812	-0.340701
O20	O	1.443977	0.384188	0.159299
O21	O	0.866882	-0.188684	-0.162104
O22	O	1.366882	0.311316	0.337896
O23	O	0.765339	-0.188681	-0.263632
O24	O	1.265339	0.311319	0.236368
O25	O	0.866905	-0.243818	-0.442191
O26	O	1.366905	0.256182	0.057809
O27	O	0.765301	-0.243850	-0.340571
O28	O	1.265301	0.256150	0.159429
O29	O	0.943927	-0.188625	-0.442246
O30	O	1.443927	0.311375	0.057754
O31	O	0.943730	-0.316668	-0.263663
O32	O	1.443730	0.183332	0.236337
O33	O	0.866793	-0.316666	-0.340589
O34	O	1.366793	0.183334	0.159411
C35	C	0.742586	-0.216269	-0.302092
C36	C	1.242586	0.283731	0.197908
C37	C	0.672944	-0.216290	-0.302076
C38	C	1.172944	0.283710	0.197924
C39	C	0.905260	-0.332968	-0.302133
C40	C	1.405260	0.167032	0.197867
C41	C	0.905269	-0.382903	-0.302141
C42	C	1.405269	0.117097	0.197859
C43	C	0.640228	-0.245055	-0.342078
C44	C	1.140228	0.254945	0.157922
C45	C	0.574792	-0.245044	-0.342106
C46	C	1.074792	0.254956	0.157894
C47	C	0.542076	-0.216273	-0.302120
C48	C	1.042076	0.283727	0.197880
C49	C	0.574801	-0.187503	-0.262115
C50	C	1.074801	0.312497	0.237885
C51	C	0.640235	-0.187511	-0.262093
C52	C	1.140235	0.312489	0.237907
C53	C	0.438353	-0.212660	-0.245715
C54	C	0.938353	0.287340	0.254285
C55	C	0.372920	-0.212655	-0.245736
C56	C	0.872920	0.287345	0.254264
C57	C	0.340256	-0.216244	-0.302189
C58	C	0.840256	0.283756	0.197811
C59	C	0.373032	-0.219847	-0.358623
C60	C	0.873032	0.280153	0.141377
C61	C	0.438466	-0.219856	-0.358601
C62	C	0.938466	0.280144	0.141399
C63	C	0.471124	-0.216260	-0.302140
C64	C	0.971124	0.283740	0.197860
C65	C	0.236586	-0.244998	-0.342226
C66	C	0.736586	0.255002	0.157774
C67	C	0.171150	-0.244984	-0.342254
C68	C	0.671150	0.255016	0.157746
C69	C	0.171159	-0.187445	-0.262258
C70	C	0.671159	0.312555	0.237742
C71	C	0.236595	-0.187457	-0.262235
C72	C	0.736595	0.312543	0.237765
C73	C	0.269304	-0.216236	-0.302218
C74	C	0.769304	0.283764	0.197782
C75	C	0.945508	-0.692534	-0.262168
C76	C	1.445508	-0.192534	0.237832
C77	C	0.945585	-0.880207	-0.262192
C78	C	1.445585	-0.380207	0.237808
O79	O	0.979707	-0.904462	-0.228181
O80	O	1.479707	-0.404462	0.271819
N81	N	0.905503	-0.903687	-0.302212
N82	N	1.405503	-0.403687	0.197788
C83	C	0.865403	-0.880247	-0.342231
C84	C	1.365403	-0.380247	0.157769
O85	O	0.831317	-0.904524	-0.376276
O86	O	1.331317	-0.404524	0.123724
C87	C	0.865329	-0.692574	-0.342210
C88	C	1.365329	-0.192574	0.157790
C89	C	0.905409	-0.669097	-0.302183
C90	C	1.405409	-0.169097	0.197817
C91	C	0.985585	-0.669056	-0.222145
C92	C	1.485585	-0.169056	0.277855
C93	C	0.985562	-0.622141	-0.222137
C94	C	1.485562	-0.122141	0.277863
C95	C	0.945463	-0.598703	-0.262152
C96	C	1.445463	-0.098703	0.237848
C97	C	0.905386	-0.622181	-0.302175
C98	C	1.405386	-0.122181	0.197825
C99	C	0.825232	-0.669134	-0.382232
C100	C	1.325232	-0.169134	0.117768
C101	C	0.825218	-0.622213	-0.382224
C102	C	1.325218	-0.122213	0.117776
C103	C	0.865298	-0.598736	-0.342197
C104	C	1.365298	-0.098736	0.157803
C105	C	0.865265	-0.551828	-0.342182
C106	C	1.365265	-0.051828	0.157818
N107	N	0.905347	-0.528348	-0.302162
N108	N	1.405347	-0.028348	0.197838
C109	C	0.945446	-0.551786	-0.262147
C110	C	1.445446	-0.051786	0.237853
C111	C	0.865443	-0.978777	-0.342239
C112	C	1.365443	-0.478777	0.157761
C113	C	0.865461	-1.025695	-0.342244
C114	C	1.365461	-0.525695	0.157756
C115	C	0.945644	-1.025652	-0.262205
C116	C	1.445644	-0.525652	0.237795
C117	C	0.945623	-0.978734	-0.262198
C118	C	1.445623	-0.478734	0.237802
C119	C	0.905525	-0.955297	-0.302219
C120	C	1.405525	-0.455297	0.197781
C121	C	0.945396	-0.453260	-0.262132
C122	C	1.445396	0.046740	0.237868
C123	C	0.945368	-0.406340	-0.262126
C124	C	1.445368	0.093660	0.237874
C125	C	0.865188	-0.406387	-0.342167
C126	C	1.365188	0.093613	0.157833
C127	C	0.865212	-0.453302	-0.342171
C128	C	1.365212	0.046698	0.157829
C129	C	0.905322	-0.476738	-0.302152
C130	C	1.405322	0.023262	0.197848
O131	O	0.831166	-0.527544	-0.376180
O132	O	1.331166	-0.027544	0.123820
O133	O	0.979536	-0.527500	-0.228117
O134	O	1.479536	-0.027500	0.271883
C135	C	0.945530	-0.739450	-0.262176
C136	C	1.445530	-0.239450	0.237824
C137	C	0.905453	-0.762928	-0.302199
C138	C	1.405453	-0.262928	0.197801
C139	C	0.865354	-0.739490	-0.342214
C140	C	1.365354	-0.239490	0.157786
C141	C	0.905470	-0.809845	-0.302204
C142	C	1.405470	-0.309845	0.197796
C143	C	0.945569	-0.833283	-0.262189
C144	C	1.445569	-0.333283	0.237811
C145	C	0.985651	-0.809803	-0.222169
C146	C	1.485651	-0.309803	0.277831
C147	C	0.985629	-0.762887	-0.222161
C148	C	1.485629	-0.262887	0.277839
C149	C	0.825272	-0.762970	-0.382234
C150	C	1.325272	-0.262970	0.117766
C151	C	0.825297	-0.809886	-0.382238
C152	C	1.325297	-0.309886	0.117762
C153	C	0.865396	-0.833323	-0.342223
C154	C	1.365396	-0.333323	0.157777
C155	C	1.068797	-0.216222	-0.302238
C156	C	1.568797	0.283778	0.197762
C157	C	1.138438	-0.216212	-0.302269
C158	C	1.638438	0.283788	0.197731
C159	C	0.905423	-0.216218	-0.465588
C160	C	1.405423	0.283782	0.034412
C161	C	0.905444	-0.216206	-0.535229
C162	C	1.405444	0.283794	-0.035229
C163	C	0.905504	-0.099067	-0.302210
C164	C	1.405504	0.400933	0.197790
C165	C	0.905560	-0.049133	-0.302229
C166	C	1.405560	0.450867	0.197771
C167	C	0.865413	-0.187475	-0.567926
C168	C	1.365413	0.312525	-0.067926
C169	C	0.865411	-0.187466	-0.633361
C170	C	1.365411	0.312534	-0.133361
C171	C	0.905451	-0.216184	-0.666098
C172	C	1.405451	0.283816	-0.166098
C173	C	0.945484	-0.244921	-0.633393
C174	C	1.445484	0.255079	-0.133393
C175	C	0.945481	-0.244932	-0.567959
C176	C	1.445481	0.255068	-0.067959
C177	C	0.961902	-0.219705	-0.769803
C178	C	1.461902	0.280295	-0.269803
C179	C	0.961906	-0.219691	-0.835236
C180	C	1.461906	0.280309	-0.335236
C181	C	0.905461	-0.216154	-0.867918
C182	C	1.405461	0.283846	-0.367918
C183	C	0.849010	-0.212621	-0.835160
C184	C	1.349010	0.287379	-0.335160
C185	C	0.849006	-0.212632	-0.769726
C186	C	1.349006	0.287368	-0.269726
C187	C	0.905459	-0.216176	-0.737050
C188	C	1.405459	0.283824	-0.237050
C189	C	0.865425	-0.187412	-0.971567
C190	C	1.365425	0.312588	-0.471567
C191	C	0.865422	-0.187407	-1.037004
C192	C	1.365422	0.312593	-0.537004
C193	C	0.945500	-0.244860	-1.037035
C194	C	1.445500	0.255140	-0.537035
C195	C	0.945498	-0.244867	-0.971600
C196	C	1.445498	0.255133	-0.471600
C197	C	0.905461	-0.216141	-0.938870
C198	C	1.405461	0.283859	-0.438870
C199	C	0.905360	-0.216241	-0.139377
C200	C	1.405360	0.283759	0.360623
C201	C	0.905461	-0.216126	-0.069736
C202	C	1.405461	0.283874	0.430264
H203	H	0.666856	-0.268489	-0.374636
H204	H	1.166856	0.231511	0.125364
H205	H	0.144523	-0.164017	-0.229704
H206	H	0.644523	0.335983	0.270296
C207	C	0.821375	-0.155857	-0.669334
C208	C	1.321375	0.344143	-0.169334
N209	N	0.788209	-0.132047	-0.696427
N210	N	1.288209	0.367953	-0.196427
H211	H	0.263220	-0.268429	-0.374785
H212	H	0.763220	0.231571	0.125215
C213	C	0.989715	-0.952913	-0.218167
C214	C	1.489715	-0.452913	0.281833
N215	N	1.022929	-0.933466	-0.185003
N216	N	1.522929	-0.433466	0.314997
C217	C	1.029759	-0.835593	-0.178151
C218	C	1.529759	-0.335593	0.321849
N219	N	1.062982	-0.855021	-0.145002
N220	N	1.562982	-0.355021	0.354998
C221	C	1.024004	-0.223577	-0.871264
C222	C	1.524004	0.276423	-0.371264
N223	N	1.070777	-0.226505	-0.898399
N224	N	1.570777	0.273495	-0.398399
C225	C	1.029649	-0.596322	-0.178098
C226	C	1.529649	-0.096322	0.321902
N227	N	1.062855	-0.576877	-0.144925
N228	N	1.562855	-0.076877	0.355075
H229	H	1.018241	-0.688134	-0.189559
H230	H	1.518241	-0.188134	0.310441
C231	C	0.989458	-0.380517	-0.218089
C232	C	1.489458	0.119483	0.281911
N233	N	1.022665	-0.361069	-0.184920
N234	N	1.522665	0.138931	0.315080
H235	H	0.792654	-0.828997	-0.414832
H236	H	1.292654	-0.328997	0.085168
C237	C	0.786910	-0.208750	-0.733694
C238	C	1.286910	0.291250	-0.233694
N239	N	0.740138	-0.205829	-0.706555
N240	N	1.240138	0.294171	-0.206555
C241	C	0.781174	-0.737195	-0.426273
C242	C	1.281174	-0.237195	0.073727
N243	N	0.747961	-0.717783	-0.459451
N244	N	1.247961	-0.217783	0.040549
H245	H	0.978085	-0.268304	-0.660052
H246	H	1.478085	0.231696	-0.160052
H247	H	0.978081	-0.268328	-0.541338
H248	H	1.478081	0.231672	-0.041338
C249	C	0.821366	-0.155879	-0.531926
C250	C	1.321366	0.344121	-0.031926
N251	N	0.788188	-0.132082	-0.504811
N252	N	1.288188	0.367918	-0.004811
C253	C	0.272584	-0.155817	-0.218223
C254	C	0.772584	0.344183	0.281777
N255	N	0.299692	-0.131983	-0.185071
N256	N	0.799692	0.368017	0.314929
C257	C	0.821384	-0.155798	-1.072970
C258	C	1.321384	0.344202	-0.572970
N259	N	0.788216	-0.131987	-1.100060
N260	N	1.288216	0.368013	-0.600060
H261	H	0.832824	-0.164022	-0.944917
H262	H	1.332824	0.335978	-0.444917
H263	H	0.978103	-0.268241	-1.063689
H264	H	1.478103	0.231759	-0.563689
C265	C	0.538797	-0.276690	-0.386111
C266	C	1.038797	0.223310	0.113889
N267	N	0.511687	-0.300527	-0.419255
N268	N	1.011687	0.199473	0.080745
H269	H	0.465149	-0.222789	-0.404551
H270	H	0.965149	0.277211	0.095449
H271	H	0.346239	-0.209723	-0.199785
H272	H	0.846239	0.290277	0.300215
C273	C	0.786914	-0.208734	-0.871106
C274	C	1.286914	0.291266	-0.371106
N275	N	0.740145	-0.205807	-0.898183
N276	N	1.240145	0.294193	-0.398183
C277	C	0.989557	-0.276458	-0.935632
C278	C	1.489557	0.223542	-0.435632
N279	N	1.022750	-0.300251	-0.908542
N280	N	1.522750	0.199749	-0.408542
H281	H	0.346437	-0.222769	-0.404593
H282	H	0.846437	0.277231	0.095407
C283	C	0.135162	-0.276633	-0.386257
C284	C	0.635162	0.223367	0.113743
N285	N	0.108055	-0.300474	-0.419398
N286	N	0.608055	0.199526	0.080602
C287	C	0.474278	-0.208714	-0.183608
C288	C	0.974278	0.291286	0.316392
N289	N	0.501336	-0.205742	-0.136830
N290	N	1.001336	0.294258	0.363170
H291	H	1.007870	-0.222582	-0.743198
H292	H	1.507870	0.277418	-0.243198
C293	C	0.538812	-0.155854	-0.218131
C294	C	1.038812	0.344146	0.281869
N295	N	0.511705	-0.132015	-0.185002
N296	N	1.011705	0.367985	0.314998
C297	C	0.676224	-0.155869	-0.218082
C298	C	1.176224	0.344131	0.281918
N299	N	0.703333	-0.132036	-0.184930
N300	N	1.203333	0.367964	0.315070
H301	H	0.978058	-0.472335	-0.229546
H302	H	1.478058	0.027665	0.270454
H303	H	0.978295	-1.044743	-0.229623
H304	H	1.478295	-0.544743	0.270377
C305	C	0.821364	-1.051515	-0.386270
C306	C	1.321364	-0.551515	0.113730
N307	N	0.788151	-1.070962	-0.419436
N308	N	1.288151	-0.570962	0.080564
C309	C	1.029718	-0.737068	-0.178125
C310	C	1.529718	-0.237068	0.321875
N311	N	1.062928	-0.717624	-0.144955
N312	N	1.562928	-0.217624	0.355045
H313	H	0.832789	-0.959698	-0.374830
H314	H	1.332789	-0.459698	0.125170
H315	H	0.792591	-0.688242	-0.414823
H316	H	1.292591	-0.188242	0.085177
C317	C	0.781106	-0.596436	-0.426252
C318	C	1.281106	-0.096436	0.073748
N319	N	0.747879	-0.577021	-0.459413
N320	N	1.247879	-0.077021	0.040587
C321	C	0.821121	-0.479129	-0.386200
C322	C	1.321121	0.020871	0.113800
N323	N	0.787915	-0.498578	-0.419369
N324	N	1.287915	0.001422	0.080631
H325	H	0.832537	-0.387297	-0.374745
H326	H	1.332537	0.112703	0.125255
