data_functionalizedCrystal
_audit_creation_method	'MofGen! by Chris Wilmer'
_symmetry_space_group_name_H-M	'P1'
_symmetry_Int_Tables_number	1
_symmetry_cell_setting	triclinic
loop_
_symmetry_equiv_pos_as_xyz
  x,y,z
_cell_length_a	6.817900
_cell_length_b	11.102188
_cell_length_c	12.200875
_cell_angle_alpha	92.493457
_cell_angle_beta	107.143593
_cell_angle_gamma	108.603875
loop_
_atom_site_label
_atom_site_type_symbol
_atom_site_fract_x
_atom_site_fract_y
_atom_site_fract_z
V1	V	-4.094460	-0.176128	-0.357661
V2	V	-3.594460	0.323872	0.142339
O3	O	-4.053827	0.008167	-0.350853
O4	O	-3.553827	0.508167	0.149147
O5	O	-4.071344	-0.348946	-0.355215
O6	O	-3.571344	0.151054	0.144785
O7	O	-4.063800	-0.173549	-0.513649
O8	O	-3.563800	0.326451	-0.013649
O9	O	-4.061423	-0.168445	-0.191321
O10	O	-3.561423	0.331555	0.308679
V11	V	-4.572513	-0.154068	-0.337765
V12	V	-4.072513	0.345932	0.162235
O13	O	-4.367717	-0.224516	-0.401304
O14	O	-3.867717	0.275484	0.098696
O15	O	-4.749453	-0.105680	-0.294123
O16	O	-4.249453	0.394320	0.205877
O17	O	-4.372422	0.018750	-0.340211
O18	O	-3.872422	0.518750	0.159789
O19	O	-4.730542	-0.338362	-0.344574
O20	O	-4.230542	0.161638	0.155426
O21	O	-4.722946	-0.161751	-0.504105
O22	O	-4.222946	0.338249	-0.004105
O23	O	-4.379966	-0.156647	-0.181777
O24	O	-3.879966	0.343353	0.318223
C25	C	-3.921922	-0.391071	-0.349573
C26	C	-3.421922	0.108929	0.150427
C27	C	-3.984427	-0.532353	-0.348613
C28	C	-3.484427	-0.032353	0.151387
C29	C	-3.958635	-0.580493	-0.243113
C30	C	-3.458635	-0.080493	0.256887
C31	C	-4.017389	-0.713244	-0.242215
C32	C	-3.517389	-0.213244	0.257785
C33	C	-4.127719	-0.749703	-0.452326
C34	C	-3.627719	-0.249703	0.047674
C35	C	-4.068980	-0.616955	-0.453223
C36	C	-3.568980	-0.116955	0.046777
C37	C	-3.912297	-0.167333	-0.551670
C38	C	-3.412297	0.332667	-0.051670
C39	C	-3.968681	-0.166368	-0.679191
C40	C	-3.468681	0.333632	-0.179191
C41	C	-4.071870	-0.164603	-0.912666
C42	C	-3.571870	0.335397	-0.412666
C43	C	-4.014440	-0.165585	-0.782744
C44	C	-3.514440	0.334415	-0.282744
C45	C	-4.185187	0.060868	-0.345851
C46	C	-3.685187	0.560868	0.154149
C47	C	-4.101921	0.202149	-0.346818
C48	C	-3.601921	0.702149	0.153182
C49	C	-4.194811	-0.162867	-0.143750
C50	C	-3.694811	0.337133	0.356250
C51	C	-4.117665	-0.163826	-0.016228
C52	C	-3.617665	0.336174	0.483772
H53	H	-4.089999	-0.577761	-0.539139
H54	H	-3.589999	-0.077761	-0.039139
H55	H	-4.196565	-0.818602	-0.537496
H56	H	-3.696565	-0.318602	-0.037496
N57	N	-3.867431	-0.489256	-0.130280
N58	N	-3.367431	0.010744	0.369720
H59	H	-3.978484	-0.508788	-0.088085
H60	H	-3.478484	-0.008788	0.411915
H61	H	-3.834096	-0.397886	-0.146935
H62	H	-3.334096	0.102114	0.353065
N63	N	-3.989581	-0.765169	-0.128427
N64	N	-3.489581	-0.265169	0.371573
H65	H	-3.927107	-0.691427	-0.062299
H66	H	-3.427107	-0.191427	0.437701
H67	H	-3.886602	-0.815056	-0.119587
H68	H	-3.386602	-0.315056	0.380413
