data_functionalizedCrystal
_audit_creation_method	'MofGen! by Chris Wilmer'
_symmetry_space_group_name_H-M	'P1'
_symmetry_Int_Tables_number	1
_symmetry_cell_setting	triclinic
loop_
_symmetry_equiv_pos_as_xyz
  x,y,z
_cell_length_a	14.908783
_cell_length_b	19.120786
_cell_length_c	19.121283
_cell_angle_alpha	90.122160
_cell_angle_beta	91.006590
_cell_angle_gamma	95.607498
loop_
_atom_site_label
_atom_site_type_symbol
_atom_site_fract_x
_atom_site_fract_y
_atom_site_fract_z
Zn1	Zn	1.341484	-0.238637	0.447275
Zn2	Zn	1.341963	-0.350835	0.325058
Zn3	Zn	1.197388	-0.239806	0.323308
Zn4	Zn	1.184464	-0.362571	0.434879
O5	O	1.266325	-0.297962	0.382630
O6	O	1.467766	-0.248119	0.436982
O7	O	1.328394	-0.331684	0.226984
O8	O	1.221711	-0.141318	0.344208
O9	O	1.468118	-0.330550	0.347190
O10	O	1.327578	-0.140459	0.435286
O11	O	1.222175	-0.250112	0.225699
O12	O	1.069455	-0.261493	0.332188
O13	O	1.199684	-0.350553	0.534364
O14	O	1.059960	-0.351688	0.414159
O15	O	1.315046	-0.259499	0.543471
O16	O	1.315862	-0.450725	0.335170
O17	O	1.200149	-0.459347	0.415855
C18	C	1.031981	-0.307991	0.371639
C19	C	0.931725	-0.312299	0.366953
C20	C	0.742952	-0.234688	0.451779
C21	C	0.648754	-0.238733	0.447379
C22	C	0.649127	-0.324432	0.353749
C23	C	0.743326	-0.320386	0.358149
C24	C	0.790235	-0.275514	0.407167
C25	C	0.884436	-0.271472	0.411570
C26	C	0.884808	-0.357166	0.317937
C27	C	0.790609	-0.361212	0.313537
C28	C	1.256678	-0.480532	0.374374
C29	C	1.252633	-0.558634	0.370869
C30	C	1.305806	-0.594822	0.416677
C31	C	1.302001	-0.668207	0.413385
C32	C	1.245027	-0.705402	0.364282
C33	C	1.191847	-0.669209	0.318473
C34	C	1.195648	-0.595826	0.321768
C35	C	1.230791	-0.926998	0.351960
C36	C	1.226996	-1.000387	0.348666
C37	C	1.337149	-0.999379	0.443579
C38	C	1.340949	-0.925994	0.446868
C39	C	1.287766	-0.889808	0.401061
C40	C	1.241138	-0.780414	0.360914
C41	C	1.291651	-0.814798	0.404433
C42	C	1.501584	-0.287895	0.393664
C43	C	1.601838	-0.283604	0.398366
C44	C	1.255870	-0.306205	0.564996
C45	C	1.251415	-0.309717	0.642710
C46	C	1.276033	-0.114679	0.390934
C47	C	1.280170	-0.036575	0.394473
C48	C	1.223212	-0.332000	1.082004
C49	C	1.227395	-0.328690	1.008984
C50	C	1.289554	-0.279631	0.977219
C51	C	1.347527	-0.233875	1.018478
C52	C	1.343338	-0.237183	1.091497
C53	C	1.305200	-0.267269	0.756988
C54	C	1.309386	-0.263967	0.683964
C55	C	1.189253	-0.358780	0.674475
C56	C	1.185074	-0.362087	0.747495
C57	C	1.243043	-0.316328	0.788748
C58	C	1.293833	-0.276248	0.902581
C59	C	1.238759	-0.319709	0.863384
C60	C	1.276730	-0.289766	1.200972
C61	C	1.281182	-0.286249	1.123258
H62	H	0.610260	-0.205487	0.483705
H63	H	1.380447	-1.028850	0.480873
F64	F	0.599189	-0.372176	0.301578
H65	H	1.152348	-0.566363	0.284468
F66	F	1.180499	-0.820006	0.308660
H67	H	1.142056	-0.396033	0.640879
F68	F	0.740676	-0.408963	0.261369
H69	H	0.923315	-0.390415	0.281615
H70	H	0.922628	-0.234935	0.451484
F71	F	1.366452	-0.555242	0.468936
H72	H	0.781146	-0.198154	0.491694
H73	H	1.352408	-0.230013	0.790567
H74	H	1.345308	-0.697667	0.450681
H75	H	1.387342	-0.895711	0.486851
H76	H	1.180597	-1.030669	0.308680
H77	H	1.187489	-0.897541	0.314661
H78	H	1.145454	-0.699500	0.278495
F79	F	1.352280	-0.775211	0.456693
F80	F	1.157057	-0.384218	1.115804
F81	F	1.165691	-0.377382	0.965082
F82	F	1.118923	-0.414307	0.781296
H83	H	1.360003	-0.224013	0.658103
F84	F	1.413664	-0.181650	0.984670
H85	H	1.390541	-0.199925	1.125085
H86	H	1.188145	-0.359649	0.889250
F87	F	1.359966	-0.224023	0.868768
