data_functionalizedCrystal
_audit_creation_method	'MofGen! by Chris Wilmer'
_symmetry_space_group_name_H-M	'P1'
_symmetry_Int_Tables_number	1
_symmetry_cell_setting	triclinic
loop_
_symmetry_equiv_pos_as_xyz
  x,y,z
_cell_length_a	6.817900
_cell_length_b	11.102288
_cell_length_c	16.255661
_cell_angle_alpha	93.854370
_cell_angle_beta	103.488922
_cell_angle_gamma	108.605689
loop_
_atom_site_label
_atom_site_type_symbol
_atom_site_fract_x
_atom_site_fract_y
_atom_site_fract_z
V1	V	-4.052939	-0.176866	-0.263871
O2	O	-4.013087	0.007443	-0.258848
O3	O	-4.030117	-0.349679	-0.262067
O4	O	-4.004166	-0.174609	-0.378954
O5	O	-4.039217	-0.168840	-0.141151
V6	V	-4.533301	-0.154766	-0.249193
O7	O	-4.321131	-0.225344	-0.296069
O8	O	-4.715306	-0.106287	-0.216995
O9	O	-4.332916	0.018048	-0.250997
O10	O	-4.690550	-0.339074	-0.254216
O11	O	-4.664420	-0.162792	-0.371913
O12	O	-4.358867	-0.157023	-0.134110
C13	C	-3.881352	-0.391793	-0.257904
C14	C	-3.943976	-0.533073	-0.257196
C15	C	-4.156468	-0.605936	-0.261085
C16	C	-4.215302	-0.738685	-0.260426
C17	C	-3.849130	-0.725694	-0.251984
C18	C	-3.790303	-0.592949	-0.252650
C19	C	-3.848248	-0.168472	-0.407005
C20	C	-3.889824	-0.167770	-0.501086
C21	C	-3.799137	-0.159385	-0.723905
C22	C	-3.971599	-0.267595	-0.793381
C23	C	-3.966013	-0.166454	-0.673335
C24	C	-3.867658	-0.057005	-0.771496
C25	C	-4.039592	-0.165177	-0.839718
C26	C	-4.137972	-0.274760	-0.741581
C27	C	-4.033954	-0.064074	-0.719680
C28	C	-4.206557	-0.172315	-0.789137
C29	C	-3.923622	-0.167190	-0.577485
C30	C	-4.082002	-0.164450	-0.935567
C31	C	-4.145024	0.060155	-0.255158
C32	C	-4.061638	0.201433	-0.255872
C33	C	-4.178128	-0.163164	-0.106055
C34	C	-4.115790	-0.163859	-0.011973
H35	H	-4.388329	-0.798006	-0.263595
H36	H	-4.281602	-0.557189	-0.264786
O37	O	-3.699853	-0.783883	-0.247410
C38	C	-3.682147	-0.842774	-0.173145
H39	H	-3.739781	-0.794201	-0.124276
H40	H	-3.507186	-0.832652	-0.144685
H41	H	-3.785149	-0.949087	-0.190422
O42	O	-3.941087	-0.370346	-0.831728
C43	C	-4.134208	-0.448087	-0.891499
H44	H	-4.275783	-0.430318	-0.873633
H45	H	-4.151872	-0.553643	-0.891002
H46	H	-4.131132	-0.423167	-0.958196
O47	O	-4.274050	-0.384716	-0.725673
C48	C	-4.408680	-0.460951	-0.803806
H49	H	-4.418591	-0.397298	-0.855698
H50	H	-4.576278	-0.510743	-0.796126
H51	H	-4.340041	-0.536458	-0.822773
H52	H	-4.379245	-0.177811	-0.817484
O53	O	-3.583758	-0.522342	-0.248827
C54	C	-3.460743	-0.603655	-0.244686
H55	H	-3.541416	-0.693777	-0.218530
H56	H	-3.292814	-0.550925	-0.200649
H57	H	-3.448522	-0.632013	-0.311529
O58	O	-3.732118	0.052819	-0.787797
C59	C	-3.852683	0.121976	-0.832267
H60	H	-4.021755	0.053398	-0.866196
H61	H	-3.771637	0.169199	-0.881534
H62	H	-3.862148	0.199254	-0.785033
O63	O	-3.593394	-0.153253	-0.689980
C64	C	-3.560914	-0.260794	-0.727899
H65	H	-3.722042	-0.341929	-0.754437
H66	H	-3.450781	-0.294273	-0.677758
H67	H	-3.483657	-0.233141	-0.782160
H68	H	-4.059789	0.021975	-0.687572
