data_functionalizedCrystal
_audit_creation_method	'MofGen! by Chris Wilmer'
_symmetry_space_group_name_H-M	'P1'
_symmetry_Int_Tables_number	1
_symmetry_cell_setting	triclinic
loop_
_symmetry_equiv_pos_as_xyz
  x,y,z
_cell_length_a	18.101398
_cell_length_b	18.101395
_cell_length_c	17.077396
_cell_angle_alpha	89.972533
_cell_angle_beta	89.989660
_cell_angle_gamma	90.026661
loop_
_atom_site_label
_atom_site_type_symbol
_atom_site_fract_x
_atom_site_fract_y
_atom_site_fract_z
Zn1	Zn	1.132125	-0.294917	-0.443656
Zn2	Zn	1.132020	-0.418766	-0.312393
Zn3	Zn	1.008283	-0.294933	-0.312425
Zn4	Zn	1.008235	-0.418712	-0.443637
O5	O	1.070166	-0.356832	-0.378028
O6	O	1.235744	-0.311362	-0.426238
O7	O	1.115582	-0.402369	-0.202550
O8	O	1.024775	-0.191298	-0.329855
O9	O	1.235667	-0.402353	-0.329799
O10	O	1.115762	-0.191287	-0.426270
O11	O	1.024673	-0.311389	-0.202574
O12	O	0.904644	-0.311337	-0.329836
O13	O	1.024693	-0.402261	-0.553487
O14	O	0.904608	-0.402277	-0.426237
O15	O	1.115715	-0.311310	-0.553501
O16	O	1.115535	-0.522392	-0.329781
O17	O	1.024591	-0.522352	-0.426206
C18	C	0.877755	-0.356803	-0.378039
C19	C	0.795441	-0.356809	-0.378062
C20	C	0.496350	-0.356852	-0.378029
C21	C	0.527678	-0.414346	-0.438383
C22	C	0.613296	-0.414166	-0.438631
C23	C	0.644733	-0.356831	-0.378046
C24	C	0.613678	-0.278829	-0.400650
C25	C	0.528033	-0.279174	-0.401079
C26	C	0.527897	-0.376674	-0.294926
C27	C	0.613547	-0.378385	-0.295370
C28	C	0.728592	-0.356815	-0.378053
C29	C	0.412491	-0.356864	-0.378023
C30	C	1.070067	-0.549243	-0.378005
C31	C	1.070092	-0.631557	-0.378021
C32	C	1.070255	-0.930648	-0.378063
C33	C	1.013168	-0.899329	-0.438882
C34	C	1.012896	-0.813711	-0.438692
C35	C	1.070174	-0.782265	-0.378043
C36	C	1.049044	-0.813415	-0.295317
C37	C	1.048676	-0.899060	-0.295681
C38	C	1.148596	-0.898998	-0.399243
C39	C	1.148136	-0.813346	-0.401057
C40	C	1.070130	-0.698406	-0.378027
C41	C	1.070297	-1.014507	-0.378074
C42	C	1.263328	-0.356862	-0.378017
C43	C	1.345642	-0.356875	-0.378013
C44	C	1.070211	-0.356778	-0.582772
C45	C	1.070230	-0.356754	-0.670022
C46	C	1.070285	-0.163670	-0.378068
C47	C	1.070336	-0.081356	-0.378085
C48	C	1.117626	-0.309392	-0.711021
C49	C	1.117635	-0.309368	-0.793001
C50	C	1.070251	-0.356709	-0.833982
C51	C	1.022849	-0.404074	-0.792977
C52	C	1.022837	-0.404094	-0.710998
C53	C	1.022879	-0.404029	-0.963847
C54	C	1.022891	-0.404010	-1.045832
C55	C	1.117677	-0.309303	-1.045850
C56	C	1.117665	-0.309323	-0.963871
C57	C	1.070264	-0.356689	-0.922873
C58	C	1.070164	-0.356833	-0.174080
C59	C	1.070288	-0.356648	-0.086831
H60	H	0.506283	-0.432580	-0.274383
H61	H	1.192919	-0.791938	-0.359988
F62	F	0.936995	-0.787007	-0.420360
H63	H	1.167861	-0.920547	-0.458538
F64	F	0.640074	-0.453415	-0.273090
H65	H	0.634291	-0.472009	-0.424464
F66	F	0.937730	-0.927551	-0.420791
H67	H	0.634946	-0.339550	-0.247987
H68	H	0.984268	-0.442588	-0.930469
F69	F	1.168107	-0.258983	-0.836632
H70	H	0.507638	-0.334796	-0.249957
H71	H	0.508073	-0.262362	-0.461831
F72	F	0.641733	-0.256456	-0.479195
F73	F	1.030272	-0.926188	-0.519320
H74	H	1.156272	-0.270735	-1.079236
H75	H	0.984234	-0.442654	-0.677618
H76	H	0.984265	-0.442618	-0.826350
H77	H	1.156254	-0.270777	-0.930507
F78	F	1.100659	-0.926146	-0.234429
F79	F	1.204192	-0.925481	-0.341354
F80	F	1.168965	-0.786733	-0.480634
H81	H	1.089315	-0.793048	-0.248768
H82	H	0.992383	-0.792026	-0.277053
H83	H	0.984305	-0.442559	-1.079196
F84	F	1.168064	-0.259007	-0.667414
H85	H	0.991408	-0.919099	-0.277739
H86	H	0.634042	-0.234831	-0.358063
H87	H	0.506168	-0.401397	-0.499601
F88	F	0.640099	-0.397023	-0.519113
F89	F	0.500728	-0.490199	-0.420078
H90	H	1.026116	-0.792647	-0.500033
F91	F	0.500945	-0.221286	-0.346130
