data_functionalizedCrystal
_audit_creation_method	'MofGen! by Chris Wilmer'
_symmetry_space_group_name_H-M	'P1'
_symmetry_Int_Tables_number	1
_symmetry_cell_setting	triclinic
loop_
_symmetry_equiv_pos_as_xyz
  x,y,z
_cell_length_a	15.944551
_cell_length_b	23.532407
_cell_length_c	14.421503
_cell_angle_alpha	89.999621
_cell_angle_beta	89.996859
_cell_angle_gamma	83.173708
loop_
_atom_site_label
_atom_site_type_symbol
_atom_site_fract_x
_atom_site_fract_y
_atom_site_fract_z
O1	O	1.113910	0.073442	-0.077025
O2	O	0.869284	0.082498	-0.077049
O3	O	0.998974	-0.004933	-0.077019
O4	O	0.984221	0.160873	-0.077055
O5	O	0.998953	-0.004920	0.077204
O6	O	0.869263	0.082511	0.077174
O7	O	1.113889	0.073455	0.077199
Cu8	Cu	0.991574	0.077984	0.091268
Cu9	Cu	0.991599	0.077969	-0.091119
O10	O	0.984199	0.160886	0.077169
C11	C	0.837983	0.082128	0.000060
C12	C	0.744746	0.081001	0.000051
C13	C	0.998588	-0.026144	0.000095
C14	C	0.997458	-0.089366	0.000102
C15	C	0.530369	0.024113	0.000081
C16	C	0.469137	0.050524	-0.075964
C17	C	0.574038	0.078962	0.000063
C18	C	0.469138	0.050550	0.076088
C19	C	0.409142	0.076989	0.000078
C20	C	0.514034	0.105388	-0.076046
C21	C	0.514041	0.105406	0.076075
C22	C	0.452826	0.131856	0.000010
C23	C	0.669030	0.080097	0.000053
C24	C	0.314150	0.075858	0.000081
C25	C	1.067121	-0.488199	0.000058
C26	C	1.066072	-0.547603	0.000051
O27	O	1.130650	-0.584098	0.000023
N28	N	0.988971	-0.570528	0.000044
C29	C	0.912915	-0.534045	0.000035
O30	O	0.847239	-0.558999	0.000027
C31	C	0.913965	-0.474642	0.000035
C32	C	0.991071	-0.451721	0.000052
C33	C	1.144220	-0.465277	0.000073
C34	C	1.145269	-0.405877	0.000082
C35	C	1.069219	-0.369399	0.000076
C36	C	0.992120	-0.392320	0.000060
C37	C	0.837910	-0.438160	0.000019
C38	C	0.838967	-0.378754	0.000019
C39	C	0.916072	-0.355832	0.000035
C40	C	0.917118	-0.296442	0.000063
N41	N	0.994219	-0.273517	0.000070
C42	C	1.070269	-0.309995	0.000076
C43	C	0.910716	-0.658796	0.000032
C44	C	0.909664	-0.718198	0.000038
C45	C	1.062821	-0.731752	0.000053
C46	C	1.063872	-0.672349	0.000053
C47	C	0.987816	-0.635871	0.000039
C48	C	1.072466	-0.185250	0.000096
C49	C	1.073508	-0.125844	0.000108
C50	C	0.920352	-0.112295	0.000089
C51	C	0.919309	-0.171696	0.000081
C52	C	0.995373	-0.208173	0.000081
O53	O	0.852574	-0.259913	0.000087
O54	O	1.135935	-0.285033	0.000072
C55	C	1.145190	0.073824	0.000088
C56	C	1.238427	0.074951	0.000090
C57	C	0.984586	0.182097	0.000053
C58	C	0.985715	0.245318	0.000040
N59	N	0.991562	0.077994	0.219550
N60	N	0.991618	0.077954	-0.219400
C61	C	0.931583	0.118404	0.469190
C62	C	1.007390	0.129461	0.530997
C63	C	0.991583	0.077981	0.408711
C64	C	0.915795	0.066938	0.530998
C65	C	0.991596	0.077969	0.591433
C66	C	1.067428	0.089063	0.469158
C67	C	0.975783	0.026517	0.469153
C68	C	1.051645	0.037552	0.530932
C69	C	0.991574	0.077989	0.303450
C70	C	0.991613	0.077960	0.696691
H71	H	0.449231	0.027320	-0.140246
H72	H	0.775123	-0.456812	0.000000
O73	O	0.846503	-0.076830	-0.000084
C74	C	0.758863	-0.001862	-0.079974
C75	C	0.842518	-0.042005	-0.079895
H76	H	0.755622	0.026313	-0.144484
H77	H	0.703536	-0.028414	-0.080047
H78	H	0.755528	0.026262	-0.015403
H79	H	0.845936	-0.070137	-0.144455
H80	H	0.897806	-0.015418	-0.079773
H81	H	0.851698	0.057603	0.558164
O82	O	0.537798	0.132996	-0.152805
C83	C	0.652877	0.165061	-0.238895
C84	C	0.626081	0.133773	-0.151940
H85	H	0.724253	0.165710	-0.238216
H86	H	0.634069	0.141833	-0.303646
H87	H	0.620129	0.210843	-0.239167
H88	H	0.658815	0.087990	-0.151578
H89	H	0.644873	0.157045	-0.087229
O90	O	1.148391	-0.103552	0.000284
C91	C	1.238438	-0.044332	0.080168
C92	C	1.153617	-0.069548	0.080099
H93	H	1.242683	-0.016825	0.144681
H94	H	1.292645	-0.080589	0.080226
H95	H	1.242756	-0.016882	0.015599
H96	H	1.149217	-0.096991	0.144656
H97	H	1.099451	-0.033264	0.079992
O98	O	0.959847	-0.025354	0.436555
C99	C	0.942658	-0.083567	0.302000
C100	C	0.960748	-0.024802	0.338795
H101	H	0.943362	-0.083136	0.222958
H102	H	0.993160	-0.118143	0.328399
H103	H	0.877992	-0.092913	0.327413
H104	H	1.025388	-0.015401	0.313397
H105	H	0.910194	0.009742	0.312403
O106	O	0.871216	0.159247	0.436724
C107	C	0.840814	0.244794	0.344973
C108	C	0.909255	0.198568	0.381660
H109	H	0.871544	0.276603	0.300461
H110	H	0.793383	0.223792	0.301415
H111	H	0.806846	0.268229	0.405946
H112	H	0.943287	0.175118	0.320743
H113	H	0.956630	0.219603	0.425246
O114	O	1.023230	0.181373	0.563525
C115	C	0.972906	0.263978	0.655380
C116	C	0.954880	0.205189	0.618630
H117	H	0.917650	0.283257	0.699924
H118	H	1.033002	0.258600	0.698921
H119	H	0.981392	0.293618	0.594439
H120	H	0.946353	0.175518	0.679514
H121	H	0.894802	0.210611	0.575062
H122	H	0.777032	-0.349056	0.000006
O123	O	0.445283	0.022951	0.152815
C124	C	0.362190	0.029343	0.292813
C125	C	0.389116	0.060668	0.205955
H126	H	0.316790	0.059827	0.335810
H127	H	0.329508	-0.009058	0.270938
H128	H	0.420398	0.014077	0.336029
H129	H	0.330953	0.075971	0.162700
H130	H	0.421830	0.099042	0.227894
H131	H	1.208056	-0.387220	0.000092
H132	H	1.131539	0.098450	0.442108
H133	H	0.533968	0.128591	0.140359
O134	O	1.146431	-0.220597	0.000141
C135	C	1.298450	-0.227755	0.000112
C136	C	1.214750	-0.187661	0.000076
H137	H	1.353708	-0.201142	0.000040
H138	H	1.301841	-0.255896	0.064668
H139	H	1.301761	-0.255915	-0.064417
H140	H	1.211383	-0.159465	0.064561
H141	H	1.211394	-0.159558	-0.064522
H142	H	1.206153	-0.494973	0.000075
H143	H	0.846878	-0.736855	0.000041
O144	O	1.112354	-0.003178	0.563037
C145	C	1.260803	-0.037562	0.567735
C146	C	1.192137	0.008605	0.531330
H147	H	1.325322	-0.028058	0.542098
H148	H	1.260074	-0.037521	0.646782
H149	H	1.247833	-0.081314	0.541221
H150	H	1.205060	0.052380	0.557775
H151	H	1.192883	0.008514	0.452283
O152	O	1.138845	-0.650180	0.000019
C153	C	1.290643	-0.669910	0.000086
C154	C	1.205792	-0.695087	0.000108
H155	H	1.344792	-0.706205	0.000178
H156	H	1.295033	-0.642462	-0.064474
H157	H	1.294915	-0.642416	0.064611
H158	H	1.201463	-0.722607	-0.064373
H159	H	1.201438	-0.722503	0.064710
O160	O	1.136678	-0.767216	-0.000116
C161	C	1.224348	-0.842177	-0.079997
C162	C	1.140691	-0.802037	-0.079932
H163	H	1.227611	-0.870349	-0.144512
H164	H	1.279673	-0.815622	-0.080052
H165	H	1.227667	-0.870304	-0.015430
H166	H	1.137289	-0.773902	-0.144488
H167	H	1.085405	-0.828627	-0.079829
H168	H	0.564086	-0.021407	-0.000003
H169	H	0.856524	-0.190359	0.000094
H170	H	0.848778	-0.629098	0.000028
H171	H	0.419284	0.177423	-0.000042
