data_functionalizedCrystal
_audit_creation_method	'MofGen! by Chris Wilmer'
_symmetry_space_group_name_H-M	'P1'
_symmetry_Int_Tables_number	1
_symmetry_cell_setting	triclinic
loop_
_symmetry_equiv_pos_as_xyz
  x,y,z
_cell_length_a	16.120484
_cell_length_b	13.897449
_cell_length_c	13.897441
_cell_angle_alpha	89.973931
_cell_angle_beta	87.134365
_cell_angle_gamma	87.074300
loop_
_atom_site_label
_atom_site_type_symbol
_atom_site_fract_x
_atom_site_fract_y
_atom_site_fract_z
Zn1	Zn	-0.331881	-1.455180	0.564961
Zn2	Zn	-0.081881	-1.205180	0.814961
Zn3	Zn	0.168119	-0.955180	1.064961
Zn4	Zn	0.418119	-0.705180	1.314961
Zn5	Zn	-0.471313	-1.446873	0.411830
Zn6	Zn	-0.221313	-1.196873	0.661830
Zn7	Zn	0.028687	-0.946873	0.911830
Zn8	Zn	0.278687	-0.696873	1.161830
Zn9	Zn	-0.331918	-1.293867	0.403666
Zn10	Zn	-0.081918	-1.043867	0.653666
Zn11	Zn	0.168082	-0.793867	0.903666
Zn12	Zn	0.418082	-0.543867	1.153666
Zn13	Zn	-0.471255	-1.285653	0.573065
Zn14	Zn	-0.221255	-1.035653	0.823065
Zn15	Zn	0.028745	-0.785653	1.073065
Zn16	Zn	0.278745	-0.535653	1.323065
O17	O	-0.401592	-1.370393	0.488381
O18	O	-0.151592	-1.120393	0.738381
O19	O	0.098408	-0.870393	0.988381
O20	O	0.348408	-0.620393	1.238381
O21	O	-0.350386	-1.589059	0.544673
O22	O	-0.100386	-1.339059	0.794673
O23	O	0.149614	-1.089059	1.044673
O24	O	0.399614	-0.839059	1.294673
O25	O	-0.452861	-1.426537	0.275768
O26	O	-0.202861	-1.176537	0.525768
O27	O	0.047139	-0.926537	0.775768
O28	O	0.297139	-0.676537	1.025768
O29	O	-0.215248	-1.322181	0.418254
O30	O	0.034752	-1.072181	0.668254
O31	O	0.284752	-0.822181	0.918254
O32	O	0.534752	-0.572181	1.168254
O33	O	-0.452826	-1.582956	0.432169
O34	O	-0.202826	-1.332956	0.682169
O35	O	0.047174	-1.082956	0.932169
O36	O	0.297174	-0.832956	1.182169
O37	O	-0.215221	-1.440697	0.536757
O38	O	0.034779	-1.190697	0.786757
O39	O	0.284779	-0.940697	1.036757
O40	O	0.534779	-0.690697	1.286757
O41	O	-0.350448	-1.314125	0.269770
O42	O	-0.100448	-1.064125	0.519770
O43	O	0.149552	-0.814125	0.769770
O44	O	0.399552	-0.564125	1.019770
O45	O	-0.350392	-1.157797	0.426112
O46	O	-0.100392	-0.907797	0.676112
O47	O	0.149608	-0.657797	0.926112
O48	O	0.399608	-0.407797	1.176112
O49	O	-0.452727	-1.308180	0.706969
O50	O	-0.202727	-1.058180	0.956969
O51	O	0.047273	-0.808180	1.206969
O52	O	0.297273	-0.558180	1.456969
O53	O	-0.452762	-1.151762	0.550568
O54	O	-0.202762	-0.901762	0.800568
O55	O	0.047238	-0.651762	1.050568
O56	O	0.297238	-0.401762	1.300568
O57	O	-0.350330	-1.432731	0.701015
O58	O	-0.100330	-1.182731	0.951015
O59	O	0.149670	-0.932731	1.201015
O60	O	0.399670	-0.682731	1.451015
O61	O	-0.587971	-1.418572	0.440027
O62	O	-0.337971	-1.168572	0.690027
O63	O	-0.087971	-0.918572	0.940027
O64	O	0.162029	-0.668572	1.190027
O65	O	-0.587928	-1.300124	0.558485
O66	O	-0.337928	-1.050124	0.808485
O67	O	-0.087928	-0.800124	1.058485
O68	O	0.162072	-0.550124	1.308485
C69	C	-0.401575	-1.119780	0.488334
C70	C	-0.151575	-0.869780	0.738334
C71	C	0.098425	-0.619780	0.988334
C72	C	0.348425	-0.369780	1.238334
C73	C	-0.401589	-1.012565	0.488339
C74	C	-0.151589	-0.762565	0.738339
C75	C	0.098411	-0.512565	0.988339
C76	C	0.348411	-0.262565	1.238339
C77	C	-0.401590	-0.925495	0.488351
C78	C	-0.151590	-0.675495	0.738351
C79	C	0.098410	-0.425495	0.988351
C80	C	0.348410	-0.175495	1.238351
C81	C	-0.401595	-0.816263	0.488375
C82	C	-0.151595	-0.566263	0.738375
C83	C	0.098405	-0.316263	0.988375
C84	C	0.348405	-0.066263	1.238375
C85	C	-0.618199	-1.357581	0.501042
C86	C	-0.368199	-1.107581	0.751042
C87	C	-0.118199	-0.857581	1.001042
C88	C	0.131801	-0.607581	1.251042
C89	C	-0.710865	-1.352189	0.506491
C90	C	-0.460865	-1.102189	0.756491
C91	C	-0.210865	-0.852189	1.006491
C92	C	0.039135	-0.602189	1.256491
C93	C	-0.880526	-1.342349	0.516459
C94	C	-0.630526	-1.092349	0.766459
C95	C	-0.380526	-0.842349	1.016459
C96	C	-0.130526	-0.592349	1.266459
C97	C	-0.921817	-1.398611	0.460318
C98	C	-0.671817	-1.148611	0.710318
C99	C	-0.421817	-0.898611	0.960318
C100	C	-0.171817	-0.648611	1.210318
C101	C	-1.016222	-1.393136	0.465864
C102	C	-0.766222	-1.143136	0.715864
C103	C	-0.516222	-0.893136	0.965864
C104	C	-0.266222	-0.643136	1.215864
C105	C	-0.786112	-1.347822	0.510914
C106	C	-0.536112	-1.097822	0.760914
C107	C	-0.286112	-0.847822	1.010914
C108	C	-0.036112	-0.597822	1.260914
C109	C	-0.184138	-1.383282	0.475691
C110	C	0.065862	-1.133282	0.725691
C111	C	0.315862	-0.883282	0.975691
C112	C	0.565862	-0.633282	1.225691
C113	C	-0.091473	-1.388774	0.470283
C114	C	0.158527	-1.138774	0.720283
C115	C	0.408527	-0.888774	0.970283
C116	C	0.658527	-0.638774	1.220283
C117	C	-0.401518	-1.370466	0.739969
C118	C	-0.151518	-1.120466	0.989969
C119	C	0.098482	-0.870466	1.239969
C120	C	0.348482	-0.620466	1.489969
C121	C	-0.401487	-1.370497	0.847181
C122	C	-0.151487	-1.120497	1.097181
C123	C	0.098513	-0.870497	1.347181
C124	C	0.348513	-0.620497	1.597181
C125	C	-0.401605	-0.621985	0.488416
C126	C	-0.151605	-0.371985	0.738416
C127	C	0.098395	-0.121985	0.988416
C128	C	0.348395	0.128015	1.238416
C129	C	-0.401602	-0.729200	0.488400
C130	C	-0.151602	-0.479200	0.738400
C131	C	0.098398	-0.229200	0.988400
C132	C	0.348398	0.020800	1.238400
C133	C	-0.401605	-1.370380	0.237767
C134	C	-0.151605	-1.120380	0.487767
C135	C	0.098395	-0.870380	0.737767
C136	C	0.348395	-0.620380	0.987767
C137	C	-0.401401	-1.370550	0.130542
C138	C	-0.151401	-1.120550	0.380542
C139	C	0.098599	-0.870550	0.630542
C140	C	0.348599	-0.620550	0.880542
C141	C	-0.401430	-1.370527	1.043473
C142	C	-0.151430	-1.120527	1.293473
C143	C	0.098570	-0.870527	1.543473
C144	C	0.348570	-0.620527	1.793473
C145	C	-0.401464	-1.370507	0.934243
C146	C	-0.151464	-1.120507	1.184243
C147	C	0.098536	-0.870507	1.434243
C148	C	0.348536	-0.620507	1.684243
H149	H	-0.886266	-1.450890	0.408089
H150	H	-0.636266	-1.200890	0.658089
H151	H	-0.386266	-0.950890	0.908089
H152	H	-0.136266	-0.700890	1.158089
C153	C	-0.928551	-1.271716	0.587004
C154	C	-0.678551	-1.021716	0.837004
C155	C	-0.428551	-0.771716	1.087004
C156	C	-0.178551	-0.521716	1.337004
N157	N	-0.964733	-1.218511	0.640132
N158	N	-0.714733	-0.968511	0.890132
N159	N	-0.464733	-0.718511	1.140132
N160	N	-0.214733	-0.468511	1.390132
