data_functionalizedCrystal
_audit_creation_method	'MofGen! by Chris Wilmer'
_symmetry_space_group_name_H-M	'P1'
_symmetry_Int_Tables_number	1
_symmetry_cell_setting	triclinic
loop_
_symmetry_equiv_pos_as_xyz
  x,y,z
_cell_length_a	12.759401
_cell_length_b	13.897448
_cell_length_c	12.759393
_cell_angle_alpha	89.967173
_cell_angle_beta	89.979527
_cell_angle_gamma	90.019217
loop_
_atom_site_label
_atom_site_type_symbol
_atom_site_fract_x
_atom_site_fract_y
_atom_site_fract_z
Zn1	Zn	1.606240	-0.383924	-0.594007
Zn2	Zn	1.606123	-0.545252	-0.418322
Zn3	Zn	1.430540	-0.383977	-0.418342
Zn4	Zn	1.430521	-0.545183	-0.593959
O5	O	1.518356	-0.464584	-0.506158
O6	O	1.753245	-0.405331	-0.570714
O7	O	1.582791	-0.523909	-0.271303
O8	O	1.453903	-0.248988	-0.441673
O9	O	1.753160	-0.523858	-0.441638
O10	O	1.582989	-0.248949	-0.570734
O11	O	1.453790	-0.405421	-0.271318
O12	O	1.283516	-0.405354	-0.441627
O13	O	1.453872	-0.523740	-0.740987
O14	O	1.283503	-0.523792	-0.570652
O15	O	1.582971	-0.405264	-0.741022
O16	O	1.582772	-0.680224	-0.441592
O17	O	1.453758	-0.680173	-0.570632
C18	C	1.245389	-0.464572	-0.506137
C19	C	1.128612	-0.464590	-0.506153
C20	C	1.073770	-0.526354	-0.573230
C21	C	0.964046	-0.526358	-0.573251
C22	C	0.964015	-0.402830	-0.439108
C23	C	1.073737	-0.402823	-0.439093
C24	C	1.518279	-0.715198	-0.506127
C25	C	1.518343	-0.822412	-0.506149
C26	C	1.518453	-1.018707	-0.506215
C27	C	1.518389	-0.909475	-0.506182
C28	C	1.792389	-0.464596	-0.506179
C29	C	1.909166	-0.464602	-0.506188
C30	C	1.518432	-0.464489	-0.780191
C31	C	1.518465	-0.464448	-0.896968
C32	C	1.518462	-0.212991	-0.506211
C33	C	1.518507	-0.105777	-0.506234
C34	C	1.585714	-0.402711	-1.061581
C35	C	1.585694	-0.402749	-0.951857
C36	C	1.451259	-0.526121	-0.951808
C37	C	1.451286	-0.526088	-1.061531
C38	C	1.518340	-0.464609	-0.233190
C39	C	1.518511	-0.464377	-0.116414
H40	H	0.919399	-0.576651	-0.627874
H41	H	1.396525	-0.576362	-0.907109
H42	H	1.396560	-0.576309	-1.106177
C43	C	0.903650	-0.334903	-0.365337
H44	H	0.830448	-0.343760	-0.374943
H45	H	0.921653	-0.270107	-0.380829
H46	H	0.921597	-0.348952	-0.294715
C47	C	1.134067	-0.334880	-0.365303
H48	H	1.085673	-0.298105	-0.325356
H49	H	1.176902	-0.292895	-0.405569
H50	H	1.176836	-0.371733	-0.319447
C51	C	1.659669	-0.334843	-1.121950
H52	H	1.699696	-0.298130	-1.073574
H53	H	1.619514	-0.292797	-1.164761
H54	H	1.705443	-0.371740	-1.164745
C55	C	1.659611	-0.334911	-0.891545
H56	H	1.699643	-0.298151	-0.939950
H57	H	1.705366	-0.371820	-0.848738
H58	H	1.619420	-0.292892	-0.848750
H59	H	1.118446	-0.576647	-0.627837
