data_functionalizedCrystal
_audit_creation_method	'MofGen! by Chris Wilmer'
_symmetry_space_group_name_H-M	'P1'
_symmetry_Int_Tables_number	1
_symmetry_cell_setting	triclinic
loop_
_symmetry_equiv_pos_as_xyz
  x,y,z
_cell_length_a	10.967874
_cell_length_b	12.811415
_cell_length_c	9.482900
_cell_angle_alpha	94.039455
_cell_angle_beta	68.707142
_cell_angle_gamma	83.236536
loop_
_atom_site_label
_atom_site_type_symbol
_atom_site_fract_x
_atom_site_fract_y
_atom_site_fract_z
O1	O	1.747454	0.070668	-0.567984
O2	O	1.369623	0.097047	-0.476810
O3	O	1.564751	-0.066408	-0.504136
O4	O	1.552326	0.234123	-0.540658
O5	O	1.525120	-0.033078	-0.256811
O6	O	1.329992	0.130378	-0.229485
O7	O	1.707823	0.103998	-0.320659
Cu8	Cu	1.515289	0.120231	-0.252489
Cu9	Cu	1.562157	0.080814	-0.544980
O10	O	1.512695	0.267454	-0.293333
C11	C	1.301382	0.114311	-0.341095
C12	C	1.157088	0.116083	-0.305181
C13	C	1.113288	0.099607	-0.417291
C14	C	0.964154	0.101439	-0.380175
C15	C	1.543025	-0.088108	-0.374938
C16	C	1.537315	-0.202425	-0.358441
C17	C	1.569773	-0.453568	-0.597100
C18	C	1.564410	-0.560979	-0.581606
C19	C	1.521215	-0.524662	-0.311959
C20	C	1.526578	-0.417250	-0.327453
C21	C	1.550860	-0.381707	-0.470028
C22	C	1.556233	-0.274295	-0.485523
C23	C	1.513029	-0.237978	-0.215875
C24	C	1.507665	-0.345390	-0.200381
C25	C	1.776065	0.086734	-0.456377
C26	C	1.920360	0.084960	-0.492301
C27	C	1.534422	0.289153	-0.422534
C28	C	1.540133	0.403469	-0.439041
N29	N	1.482333	0.147954	-0.046769
N30	N	1.595123	0.053083	-0.750701
C31	C	1.552428	0.088986	0.015647
C32	C	1.525018	0.112060	0.186888
H33	H	1.084178	0.131551	-0.181722
C34	C	1.659347	-0.001243	-0.082029
C35	C	1.629144	-0.096823	-0.025005
C36	C	1.727603	-0.179960	-0.114972
H37	H	1.742444	0.010767	-0.079653
H38	H	1.663509	-0.004822	-0.184121
H39	H	1.624996	-0.093244	0.077060
H40	H	1.546063	-0.108867	-0.027385
H41	H	1.731765	-0.183539	-0.217063
H42	H	1.810694	-0.167940	-0.112590
H43	H	1.707118	-0.244822	-0.076302
H44	H	1.501435	-0.553619	-0.195879
H45	H	1.589556	-0.424630	-0.713193
C46	C	1.585028	-0.638842	-0.719765
C47	C	1.607462	-0.584722	-0.847939
C48	C	1.626467	-0.656416	-0.975244
H49	H	1.508375	-0.671670	-0.701905
H50	H	1.659380	-0.691353	-0.737051
H51	H	1.533118	-0.532231	-0.830655
H52	H	1.684117	-0.551898	-0.865847
H53	H	1.700819	-0.708927	-0.992531
H54	H	1.549810	-0.689240	-0.957369
H55	H	1.641703	-0.619708	-1.062228
H56	H	1.444705	0.179628	0.260221
C57	C	1.017466	0.064549	-0.656987
C58	C	0.985459	0.142974	-0.738863
C59	C	1.074893	0.124215	-0.890567
H60	H	1.012520	-0.002912	-0.701211
H61	H	1.104798	0.066106	-0.660130
H62	H	0.898149	0.141407	-0.735729
H63	H	0.990414	0.210444	-0.694687
H64	H	1.162225	0.125771	-0.893710
H65	H	1.069939	0.056751	-0.934776
H66	H	1.053196	0.177427	-0.946136
H67	H	1.576009	-0.245359	-0.601616
H68	H	0.891247	0.116907	-0.256708
H69	H	1.487891	-0.374343	-0.084299
H70	H	1.497633	-0.179457	-0.112405
H71	H	1.402025	0.215518	0.026569
C72	C	1.210405	0.079205	-0.581966
C73	C	1.178399	0.157634	-0.663837
C74	C	1.267842	0.138885	-0.815537
H75	H	1.205468	0.011745	-0.626201
H76	H	1.297734	0.080766	-0.585098
H77	H	1.091092	0.156064	-0.660713
H78	H	1.183344	0.225103	-0.619649
H79	H	1.355170	0.140445	-0.818669
H80	H	1.262898	0.071422	-0.859757
H81	H	1.246146	0.192100	-0.871102
C82	C	1.702006	-0.037254	0.151869
C83	C	1.671576	-0.132706	0.209193
C84	C	1.769978	-0.215985	0.119557
H85	H	1.785090	-0.025276	0.154321
H86	H	1.706298	-0.040986	0.049722
H87	H	1.667298	-0.128974	0.311313
H88	H	1.588509	-0.144718	0.206737
H89	H	1.774270	-0.219717	0.017411
H90	H	1.853056	-0.203997	0.122016
H91	H	1.749339	-0.280760	0.158430
