data_functionalizedCrystal
_audit_creation_method	'MofGen! by Chris Wilmer'
_symmetry_space_group_name_H-M	'P1'
_symmetry_Int_Tables_number	1
_symmetry_cell_setting	triclinic
loop_
_symmetry_equiv_pos_as_xyz
  x,y,z
_cell_length_a	19.077105
_cell_length_b	16.959454
_cell_length_c	16.959447
_cell_angle_alpha	90.025463
_cell_angle_beta	92.316278
_cell_angle_gamma	87.716588
loop_
_atom_site_label
_atom_site_type_symbol
_atom_site_fract_x
_atom_site_fract_y
_atom_site_fract_z
Zn1	Zn	1.076006	-0.363302	0.495445
Zn2	Zn	1.576006	0.136698	0.995445
Zn3	Zn	1.075930	-0.495488	0.363272
Zn4	Zn	1.575930	0.004512	0.863272
Zn5	Zn	0.958309	-0.358012	0.357976
Zn6	Zn	1.458309	0.141988	0.857976
Zn7	Zn	0.958285	-0.490122	0.490106
Zn8	Zn	1.458285	0.009878	0.990106
O9	O	1.017132	-0.426731	0.426700
O10	O	1.517132	0.073269	0.926700
O11	O	1.174487	-0.385296	0.482363
O12	O	1.674487	0.114704	0.982363
O13	O	1.060305	-0.477283	0.251957
O14	O	1.560305	0.022717	0.751957
O15	O	0.973964	-0.248104	0.376230
O16	O	1.473964	0.251896	0.876230
O17	O	1.174431	-0.482412	0.385256
O18	O	1.674431	0.017588	0.885256
O19	O	1.060435	-0.251991	0.477228
O20	O	1.560435	0.248009	0.977228
O21	O	0.973890	-0.376280	0.248067
O22	O	1.473890	0.123720	0.748067
O23	O	0.859815	-0.371077	0.371052
O24	O	1.359815	0.128923	0.871052
O25	O	0.973923	-0.473267	0.601426
O26	O	1.473923	0.026733	1.101426
O27	O	0.859797	-0.468138	0.468127
O28	O	1.359797	0.031862	0.968127
O29	O	1.060412	-0.380093	0.605349
O30	O	1.560412	0.119907	1.105349
O31	O	1.060282	-0.605385	0.380078
O32	O	1.560282	-0.105385	0.880078
O33	O	0.973849	-0.601443	0.473262
O34	O	1.473849	-0.101443	0.973262
C35	C	0.834268	-0.418452	0.418436
C36	C	1.334268	0.081548	0.918436
C37	C	0.756038	-0.414929	0.414920
C38	C	1.256038	0.085071	0.914920
C39	C	0.719295	-0.463885	0.463730
C40	C	1.219295	0.036115	0.963730
C41	C	0.645789	-0.460564	0.460430
C42	C	1.145789	0.039436	0.960430
C43	C	0.609028	-0.408292	0.408315
C44	C	1.109028	0.091708	0.908315
C45	C	0.645777	-0.359331	0.359503
C46	C	1.145777	0.140669	0.859503
C47	C	0.719281	-0.362648	0.362807
C48	C	1.219281	0.137352	0.862807
C49	C	0.389194	-0.392940	0.393024
C50	C	0.889194	0.107060	0.893024
C51	C	0.315684	-0.389629	0.389721
C52	C	0.815684	0.110371	0.889721
C53	C	0.315701	-0.490862	0.490650
C54	C	0.815701	0.009138	0.990650
C55	C	0.389207	-0.494178	0.493947
C56	C	0.889207	0.005822	0.993947
C57	C	0.425949	-0.445214	0.445137
C58	C	0.925949	0.054786	0.945137
N59	N	0.533894	-0.404898	0.404938
N60	N	1.033894	0.095102	0.904938
N61	N	0.501082	-0.448604	0.448518
N62	N	1.001082	0.051396	0.948518
C63	C	1.017073	-0.632094	0.426684
C64	C	1.517073	-0.132094	0.926684
C65	C	1.017113	-0.719953	0.426706
C66	C	1.517113	-0.219953	0.926706
C67	C	0.972192	-1.089409	0.475218
C68	C	1.472192	-0.589409	0.975218
C69	C	1.062269	-1.093458	0.378270
C70	C	1.562269	-0.593458	0.878270
C71	C	1.062244	-1.010911	0.378262
C72	C	1.562244	-0.510911	0.878262
C73	C	1.017192	-0.967609	0.426732
C74	C	1.517192	-0.467609	0.926732
C75	C	0.972165	-1.006855	0.475210
C76	C	1.472165	-0.506855	0.975210
C77	C	1.107266	-0.971659	0.329779
C78	C	1.607266	-0.471659	0.829779
C79	C	1.107242	-0.889107	0.329768
C80	C	1.607242	-0.389107	0.829768
C81	C	1.062193	-0.845804	0.378242
C82	C	1.562193	-0.345804	0.878242
C83	C	1.017165	-0.885054	0.426723
C84	C	1.517165	-0.385054	0.926723
C85	C	0.972113	-0.841753	0.475193
C86	C	1.472113	-0.341753	0.975193
C87	C	0.927087	-0.881002	0.523678
C88	C	1.427087	-0.381002	1.023678
C89	C	0.927116	-0.963552	0.523684
C90	C	1.427116	-0.463552	1.023684
C91	C	1.062165	-0.763254	0.378236
C92	C	1.562165	-0.263254	0.878236
C93	C	0.972085	-0.759198	0.475184
C94	C	1.472085	-0.259198	0.975184
C95	C	1.200711	-0.435043	0.434996
C96	C	1.700711	0.064957	0.934996
C97	C	1.278941	-0.438585	0.438531
C98	C	1.778941	0.061415	0.938531
C99	C	1.017173	-0.426672	0.632870
C100	C	1.517173	0.073328	1.132870
C101	C	1.017191	-0.426647	0.720727
C102	C	1.517191	0.073353	1.220727
C103	C	1.017211	-0.220566	0.426734
C104	C	1.517211	0.279434	0.926734
C105	C	1.017244	-0.132711	0.426749
C106	C	1.517244	0.367289	0.926749
C107	C	1.017132	-0.426734	0.221333
C108	C	1.517132	0.073266	0.721333
C109	C	1.017251	-0.426543	0.133483
C110	C	1.517251	0.073457	0.633483
C111	C	1.062192	-0.479221	0.764029
C112	C	1.562192	0.020779	1.264029
C113	C	0.972201	-0.374052	0.759980
C114	C	1.472201	0.125948	1.259980
C115	C	0.972214	-0.374030	0.842526
C116	C	1.472214	0.125970	1.342526
C117	C	1.017215	-0.426604	0.885828
C118	C	1.517215	0.073396	1.385828
C119	C	1.062204	-0.479202	0.846583
C120	C	1.562204	0.020798	1.346583
C121	C	0.927220	-0.321439	0.881777
C122	C	1.427220	0.178561	1.381777
C123	C	0.927230	-0.321414	0.964328
C124	C	1.427230	0.178586	1.464328
C125	C	0.972235	-0.373986	1.007632
C126	C	1.472235	0.126014	1.507632
C127	C	1.017227	-0.426585	0.968382
C128	C	1.517227	0.073415	1.468382
C129	C	1.062228	-0.479160	1.011684
C130	C	1.562228	0.020840	1.511684
C131	C	1.107224	-0.531756	0.972436
C132	C	1.607224	-0.031756	1.472436
C133	C	1.107210	-0.531774	0.889887
C134	C	1.607210	-0.031774	1.389887
C135	C	0.972250	-0.373968	1.090181
C136	C	1.472250	0.126032	1.590181
C137	C	1.062240	-0.479140	1.094238
C138	C	1.562240	0.020860	1.594238
H139	H	0.419133	-0.536745	0.536382
H140	H	0.919133	-0.036745	1.036382
H141	H	1.143862	-0.574564	1.007703
H142	H	1.643862	-0.074564	1.507703
H143	H	0.890578	-0.278640	0.846514
H144	H	1.390578	0.221360	1.346514
H145	H	0.615841	-0.316766	0.317073
H146	H	1.115841	0.183234	0.817073
C147	C	0.878495	-0.264275	1.007047
C148	C	1.378495	0.235725	1.507047
C149	C	0.918367	-0.215415	1.056269
C150	C	1.418367	0.284585	1.556269
C151	C	0.873496	-0.162778	1.095645
C152	C	1.373496	0.337222	1.595645
H153	H	0.851672	-0.232891	0.969528
H154	H	1.351672	0.267109	1.469528
H155	H	0.847838	-0.293101	1.037902
H156	H	1.347838	0.206899	1.537902
H157	H	0.949011	-0.186591	1.025416
H158	H	1.449011	0.313409	1.525416
H159	H	0.945188	-0.246778	1.093803
H160	H	1.445188	0.253222	1.593803
H161	H	0.842840	-0.191604	1.126500
H162	H	1.342840	0.308396	1.626500
H163	H	0.846676	-0.131399	1.058120
H164	H	1.346676	0.368601	1.558120
H165	H	0.900542	-0.129625	1.129052
H166	H	1.400542	0.370375	1.629052
H167	H	0.935614	-0.331147	1.122133
H168	H	1.435614	0.168853	1.622133
C169	C	1.111084	-0.720543	0.325729
C170	C	1.611084	-0.220543	0.825729
C171	C	1.156149	-0.675115	0.372552
C172	C	1.656149	-0.175115	0.872552
C173	C	1.201220	-0.635752	0.324207
C174	C	1.701220	-0.135752	0.824207
H175	H	1.137982	-0.758068	0.296846
H176	H	1.637982	-0.258068	0.796846
H177	H	1.084185	-0.687119	0.290061
H178	H	1.584185	-0.187119	0.790061
H179	H	1.183046	-0.708536	0.408206
H180	H	1.683046	-0.208536	0.908206
H181	H	1.129270	-0.637576	0.401434
H182	H	1.629270	-0.137576	0.901434
H183	H	1.174321	-0.602328	0.288539
H184	H	1.674321	-0.102328	0.788539
H185	H	1.228114	-0.673283	0.295326
H186	H	1.728114	-0.173283	0.795326
H187	H	1.231798	-0.604919	0.355968
H188	H	1.731798	-0.104919	0.855968
H189	H	0.749220	-0.506453	0.506165
H190	H	1.249220	-0.006453	1.006165
H191	H	1.143842	-0.574595	0.857923
H192	H	1.643842	-0.074595	1.357923
H193	H	1.098889	-0.521951	1.129489
H194	H	1.598889	-0.021951	1.629489
H195	H	0.615876	-0.500430	0.500176
H196	H	1.115876	-0.000430	1.000176
C197	C	0.759212	-0.309401	0.309942
C198	C	1.259212	0.190599	0.809942
C199	C	0.801426	-0.260684	0.356682
C200	C	1.301426	0.239316	0.856682
C201	C	0.838212	-0.211612	0.308012
C202	C	1.338212	0.288388	0.808012
H203	H	0.787923	-0.340796	0.276726
H204	H	1.287923	0.159204	0.776726
H205	H	0.726813	-0.277751	0.278446
H206	H	1.226813	0.222249	0.778446
H207	H	0.833821	-0.292331	0.388166
H208	H	1.333821	0.207669	0.888166
H209	H	0.772733	-0.229273	0.389898
H210	H	1.272733	0.270727	0.889898
H211	H	0.805813	-0.179962	0.276515
H212	H	1.305813	0.320038	0.776515
H213	H	0.866919	-0.243014	0.274797
H214	H	1.366919	0.256986	0.774797
H215	H	0.866853	-0.178547	0.339718
H216	H	1.366853	0.321453	0.839718
C217	C	0.275723	-0.332987	0.333060
C218	C	0.775723	0.167013	0.833060
C219	C	0.233497	-0.375759	0.280405
C220	C	0.733497	0.124241	0.780405
C221	C	0.196677	-0.323607	0.228203
C222	C	0.696677	0.176393	0.728203
H223	H	0.247016	-0.297290	0.361997
H224	H	0.747016	0.202710	0.861997
H225	H	0.308101	-0.304301	0.304416
H226	H	0.808101	0.195699	0.804416
H227	H	0.201123	-0.404432	0.309046
H228	H	0.701123	0.095568	0.809046
H229	H	0.262186	-0.411452	0.251450
H230	H	0.762186	0.088548	0.751450
H231	H	0.229055	-0.294921	0.199559
H232	H	0.729055	0.205079	0.699559
H233	H	0.167975	-0.287913	0.257147
H234	H	0.667975	0.212087	0.757147
H235	H	0.168028	-0.352620	0.192467
H236	H	0.668028	0.147380	0.692467
H237	H	0.419100	-0.353077	0.353274
H238	H	0.919100	0.146923	0.853274
H239	H	0.890457	-0.995516	0.563157
H240	H	1.390457	-0.495516	1.063157
H241	H	1.143939	-1.006921	0.290312
H242	H	1.643939	-0.506921	0.790312
C243	C	1.111115	-0.536362	0.721568
C244	C	1.611115	-0.036362	1.221568
C245	C	1.150535	-0.582388	0.777162
C246	C	1.650535	-0.082388	1.277162
C247	C	1.195615	-0.635029	0.738077
C248	C	1.695615	-0.135029	1.238077
H249	H	1.084253	-0.569664	0.688140
H250	H	1.584253	-0.069664	1.188140
H251	H	1.141828	-0.507543	0.690780
H252	H	1.641828	-0.007543	1.190780
H253	H	1.119826	-0.611205	0.807938
H254	H	1.619826	-0.111205	1.307938
H255	H	1.177411	-0.549107	0.810593
H256	H	1.677411	-0.049107	1.310593
H257	H	1.226328	-0.606210	0.707288
H258	H	1.726328	-0.106210	1.207288
H259	H	1.168747	-0.668326	0.704650
H260	H	1.668747	-0.168326	1.204650
H261	H	1.222371	-0.666259	0.775792
H262	H	1.722371	-0.166259	1.275792
C263	C	0.923095	-0.712327	0.527840
C264	C	1.423095	-0.212327	1.027840
C265	C	0.883663	-0.764370	0.570285
C266	C	1.383663	-0.264370	1.070285
C267	C	0.838520	-0.721221	0.618792
C268	C	1.338520	-0.221221	1.118792
H269	H	0.949913	-0.681292	0.563580
H270	H	1.449913	-0.181292	1.063580
H271	H	0.892393	-0.678797	0.496204
H272	H	1.392393	-0.178797	0.996204
H273	H	0.914361	-0.797886	0.601918
H274	H	1.414361	-0.297886	1.101918
H275	H	0.856831	-0.795406	0.534565
H276	H	1.356831	-0.295406	1.034565
H277	H	0.807818	-0.687691	0.587157
H278	H	1.307818	-0.187691	1.087157
H279	H	0.865344	-0.690188	0.654528
H280	H	1.365344	-0.190188	1.154528
H281	H	0.811756	-0.756525	0.647592
H282	H	1.311756	-0.256525	1.147592
C283	C	0.923421	-0.317008	0.712830
C284	C	1.423421	0.182992	1.212830
C285	C	0.933051	-0.328271	0.632137
C286	C	1.433051	0.171729	1.132137
C287	C	0.888133	-0.275725	0.588677
C288	C	1.388133	0.224275	1.088677
H289	H	0.876101	-0.326380	0.724120
H290	H	1.376101	0.173620	1.224120
H291	H	0.933751	-0.264345	0.726789
H292	H	1.433751	0.235655	1.226789
H293	H	0.922717	-0.380921	0.618184
H294	H	1.422717	0.119079	1.118184
H295	H	0.980362	-0.318893	0.620823
H296	H	1.480362	0.181107	1.120823
H297	H	0.898462	-0.223062	0.602635
H298	H	1.398462	0.276938	1.102635
H299	H	0.840815	-0.285101	0.599973
H300	H	1.340815	0.214899	1.099973
H301	H	0.894665	-0.283355	0.533922
H302	H	1.394665	0.216645	1.033922
H303	H	0.890402	-0.845736	0.563139
H304	H	1.390402	-0.345736	1.063139
H305	H	0.285778	-0.530724	0.530389
H306	H	0.785778	-0.030724	1.030389
C307	C	0.923282	-1.131873	0.527943
C308	C	1.423282	-0.631873	1.027943
C309	C	0.883836	-1.076280	0.570401
C310	C	1.383836	-0.576280	1.070401
C311	C	0.838781	-1.115369	0.618988
C312	C	1.338781	-0.615369	1.118988
H313	H	0.892580	-1.162736	0.496387
H314	H	1.392580	-0.662736	0.996387
H315	H	0.950185	-1.165230	0.563671
H316	H	1.450185	-0.665230	1.063671
H317	H	0.856936	-1.042937	0.534678
H318	H	1.356936	-0.542937	1.034678
H319	H	0.914521	-1.045415	0.601973
H320	H	1.414521	-0.545415	1.101973
H321	H	0.865683	-1.148726	0.654715
H322	H	1.365683	-0.648726	1.154715
H323	H	0.808083	-1.146230	0.587425
H324	H	1.308083	-0.646230	1.087425
H325	H	0.812016	-1.077656	0.647806
H326	H	1.312016	-0.577656	1.147806
H327	H	1.143905	-0.857155	0.290290
H328	H	1.643905	-0.357155	0.790290
C329	C	1.111279	-1.140389	0.325697
C330	C	1.611279	-0.640389	0.825697
C331	C	1.180909	-1.123402	0.346088
C332	C	1.680909	-0.623402	0.846088
C333	C	1.226072	-1.166624	0.297665
C334	C	1.726072	-0.666624	0.797665
H335	H	1.104926	-1.195186	0.332607
H336	H	1.604926	-0.695186	0.832607
H337	H	1.101041	-1.126422	0.272101
H338	H	1.601041	-0.626422	0.772101
H339	H	1.191143	-1.137374	0.399671
H340	H	1.691143	-0.637374	0.899671
H341	H	1.187283	-1.068613	0.339174
H342	H	1.687283	-0.568613	0.839174
H343	H	1.215835	-1.152656	0.244070
H344	H	1.715835	-0.652656	0.744070
H345	H	1.219713	-1.221418	0.304580
H346	H	1.719713	-0.721418	0.804580
H347	H	1.273320	-1.155098	0.311489
H348	H	1.773320	-0.655098	0.811489
