data_functionalizedCrystal
_audit_creation_method	'MofGen! by Chris Wilmer'
_symmetry_space_group_name_H-M	'P1'
_symmetry_Int_Tables_number	1
_symmetry_cell_setting	triclinic
loop_
_symmetry_equiv_pos_as_xyz
  x,y,z
_cell_length_a	10.654545
_cell_length_b	10.654551
_cell_length_c	9.130313
_cell_angle_alpha	89.997246
_cell_angle_beta	89.996934
_cell_angle_gamma	84.484254
loop_
_atom_site_label
_atom_site_type_symbol
_atom_site_fract_x
_atom_site_fract_y
_atom_site_fract_z
O1	O	1.667844	0.176372	-0.121779
O2	O	1.302364	0.193184	-0.121784
O3	O	1.493506	0.002038	-0.121778
O4	O	1.476702	0.367517	-0.121785
O5	O	1.493493	0.002033	0.121821
O6	O	1.302351	0.193178	0.121815
O7	O	1.667830	0.176366	0.121820
Cu8	Cu	1.485090	0.184771	0.144060
Cu9	Cu	1.485105	0.184778	-0.144024
O10	O	1.476689	0.367511	0.121814
C11	C	1.255560	0.191948	0.000015
C12	C	1.116116	0.188258	0.000012
C13	C	1.050604	0.186518	0.132799
C14	C	0.919585	0.183030	0.132799
C15	C	0.919600	0.183028	-0.132786
C16	C	1.050618	0.186507	-0.132784
C17	C	1.492265	-0.044762	0.000019
C18	C	1.488573	-0.184205	0.000012
C19	C	1.486847	-0.249706	-0.132775
C20	C	1.483367	-0.380727	-0.132776
C21	C	1.483344	-0.380735	0.132809
C22	C	1.486815	-0.249715	0.132808
C23	C	1.714635	0.177602	0.000018
C24	C	1.854079	0.181292	0.000011
C25	C	1.477929	0.414312	0.000014
C26	C	1.481622	0.553755	0.000011
N27	N	1.485088	0.184766	0.346683
N28	N	1.485117	0.184774	-0.346646
C29	C	1.569754	0.100163	0.423337
C30	C	1.569766	0.100163	0.576674
C31	C	1.400441	0.269381	0.576688
C32	C	1.400424	0.269374	0.423354
H33	H	1.488275	-0.196371	-0.240906
H34	H	1.638708	0.031270	0.639082
N35	N	1.488691	-0.179063	0.276039
H36	H	1.491153	-0.086123	0.255885
H37	H	1.410362	-0.192459	0.334026
N38	N	1.661047	0.008908	0.340620
H39	H	1.750311	0.024193	0.367276
H40	H	1.645702	-0.080324	0.367346
H41	H	1.481959	-0.434051	-0.240905
H42	H	0.866251	0.181614	0.240927
N43	N	1.309089	0.360626	0.340677
H44	H	1.324320	0.449903	0.367339
H45	H	1.321963	0.347671	0.231932
N46	N	1.121252	0.188406	0.276022
H47	H	1.059864	0.186773	0.360140
H48	H	1.185123	0.112132	0.281812
N49	N	1.309130	0.360633	0.659384
H50	H	1.321988	0.347803	0.768153
H51	H	1.324402	0.449864	0.632565
H52	H	0.866255	0.181603	-0.240904
H53	H	1.481915	-0.434089	0.240926
N54	N	1.121291	0.188368	-0.276011
H55	H	1.059919	0.186738	-0.360137
H56	H	1.166148	0.267526	-0.281803
