data_functionalizedCrystal
_audit_creation_method	'MofGen! by Chris Wilmer'
_symmetry_space_group_name_H-M	'P1'
_symmetry_Int_Tables_number	1
_symmetry_cell_setting	triclinic
loop_
_symmetry_equiv_pos_as_xyz
  x,y,z
_cell_length_a	11.792241
_cell_length_b	10.654550
_cell_length_c	9.730223
_cell_angle_alpha	90.003749
_cell_angle_beta	89.998500
_cell_angle_gamma	95.660841
loop_
_atom_site_label
_atom_site_type_symbol
_atom_site_fract_x
_atom_site_fract_y
_atom_site_fract_z
O1	O	0.159415	-1.667383	-0.114404
O2	O	0.174603	-1.301862	-0.114382
O3	O	0.001859	-1.493493	-0.114383
O4	O	0.332159	-1.475752	-0.114402
O5	O	0.001863	-1.493490	0.114196
O6	O	0.174608	-1.301859	0.114198
O7	O	0.159419	-1.667381	0.114176
Zn8	Zn	0.167014	-1.484620	0.150479
Zn9	Zn	0.167008	-1.484623	-0.150685
O10	O	0.332163	-1.475750	0.114178
C11	C	-0.040432	-1.492377	-0.000094
C12	C	-0.166454	-1.489042	-0.000095
C13	C	0.173490	-1.255066	-0.000089
C14	C	0.170154	-1.115632	-0.000080
C15	C	0.160532	-1.714177	-0.000120
C16	C	0.163869	-1.853611	-0.000137
C17	C	-0.397180	-1.482908	-0.000118
C18	C	-0.268787	-1.486316	-0.000105
C19	C	0.374455	-1.476865	-0.000114
C20	C	0.500476	-1.480201	-0.000122
N21	N	0.167017	-1.484627	0.356016
C22	C	0.271863	-1.035858	-0.000106
C23	C	0.268721	-0.904847	-0.000129
C24	C	0.062152	-0.933394	-0.000107
C25	C	0.065295	-1.064404	-0.000074
C26	C	0.391124	-1.019376	-0.000124
C27	C	0.387982	-0.888364	-0.000148
N28	N	0.166996	-1.484625	-0.356221
C29	C	0.090552	-1.569503	0.427941
C30	C	0.090539	-1.569500	0.571824
C31	C	0.243465	-1.399740	0.571844
C32	C	0.243472	-1.399739	0.427963
C33	C	0.002265	-1.667516	0.427931
C34	C	0.002251	-1.667513	0.571814
H35	H	-0.017527	-1.129352	-0.000033
O36	O	-0.039800	-0.883836	-0.000051
C37	C	-0.244356	-0.925980	-0.000120
C38	C	-0.128972	-0.982267	-0.000147
H39	H	-0.316482	-1.005535	-0.000227
H40	H	-0.251068	-0.865381	0.095550
H41	H	-0.250931	-0.865339	-0.095771
H42	H	-0.122319	-1.042966	0.095439
H43	H	-0.122310	-1.042795	-0.095880
O44	O	-0.101751	-1.642274	0.381102
C45	C	-0.219447	-1.613541	0.183348
C46	C	-0.101615	-1.642182	0.236195
H47	H	-0.219369	-1.613430	0.066186
H48	H	-0.287291	-1.688784	0.222274
H49	H	-0.238892	-1.517107	0.222479
H50	H	-0.082062	-1.738580	0.197086
H51	H	-0.033837	-1.566862	0.197281
H52	H	0.305726	-1.330615	0.369403
O53	O	0.035213	-1.776303	0.374898
C54	C	0.097285	-1.980653	0.422634
C55	C	0.059961	-1.857532	0.482878
H56	H	0.117326	-2.046350	0.509906
H57	H	0.025672	-2.028548	0.356733
H58	H	0.176572	-1.958166	0.356645
H59	H	-0.019301	-1.879910	0.548928
H60	H	0.131641	-1.809672	0.548700
O61	O	0.441582	-0.838627	-0.114376
C62	C	0.542537	-0.879612	-0.322380
C63	C	0.481843	-0.936107	-0.193103
H64	H	0.575125	-0.958394	-0.386052
H65	H	0.480114	-0.828831	-0.386271
H66	H	0.617379	-0.809760	-0.290466
H67	H	0.407004	-1.006010	-0.224894
H68	H	0.544339	-0.986810	-0.129243
H69	H	-0.080191	-1.637233	0.616436
H70	H	0.021698	-1.763969	0.610857
H71	H	0.429097	-1.054925	-0.098814
O72	O	0.446751	-1.054012	0.114098
C73	C	0.545083	-0.985477	0.322092
C74	C	0.482091	-0.946081	0.192814
H75	H	0.573694	-0.898235	0.385755
H76	H	0.485498	-1.053110	0.385992
H77	H	0.622768	-1.034258	0.290179
H78	H	0.404408	-0.897248	0.224604
H79	H	0.541753	-0.878505	0.128946
H80	H	0.424026	-0.842589	0.098534
O81	O	0.317617	-1.317113	0.641677
C82	C	0.382320	-1.099195	0.685653
C83	C	0.298260	-1.192631	0.606509
H84	H	0.366716	-0.998531	0.657227
H85	H	0.369177	-1.113662	0.800859
H86	H	0.473364	-1.116231	0.657390
H87	H	0.207183	-1.175652	0.634657
H88	H	0.311502	-1.178142	0.491322
