data_functionalizedCrystal
_audit_creation_method	'MofGen! by Chris Wilmer'
_symmetry_space_group_name_H-M	'P1'
_symmetry_Int_Tables_number	1
_symmetry_cell_setting	triclinic
loop_
_symmetry_equiv_pos_as_xyz
  x,y,z
_cell_length_a	13.032831
_cell_length_b	25.639239
_cell_length_c	13.033109
_cell_angle_alpha	97.152107
_cell_angle_beta	76.665514
_cell_angle_gamma	82.842759
loop_
_atom_site_label
_atom_site_type_symbol
_atom_site_fract_x
_atom_site_fract_y
_atom_site_fract_z
Zn1	Zn	1.699833	-0.367536	-0.806318
Zn2	Zn	2.199833	0.132464	-0.306318
Zn3	Zn	1.677108	-0.442245	-0.628682
Zn4	Zn	2.177108	0.057755	-0.128682
Zn5	Zn	1.499677	-0.342107	-0.606217
Zn6	Zn	1.999677	0.157893	-0.106217
Zn7	Zn	1.522123	-0.442199	-0.783726
Zn8	Zn	2.022123	0.057801	-0.283726
O9	O	1.599685	-0.398522	-0.706236
O10	O	2.099685	0.101478	-0.206236
O11	O	1.845447	-0.388108	-0.801610
O12	O	2.345447	0.111892	-0.301610
O13	O	1.634667	-0.418339	-0.477073
O14	O	2.134667	0.081661	0.022927
O15	O	1.526345	-0.272326	-0.632814
O16	O	2.026345	0.227674	-0.132814
O17	O	1.828751	-0.442996	-0.671102
O18	O	2.328751	0.057004	-0.171102
O19	O	1.673399	-0.291009	-0.779827
O20	O	2.173399	0.208991	-0.279827
O21	O	1.504309	-0.344768	-0.460568
O22	O	2.004309	0.155232	0.039432
O23	O	1.354026	-0.344723	-0.610908
O24	O	1.854026	0.155277	-0.110908
O25	O	1.564601	-0.442917	-0.935352
O26	O	2.064601	0.057083	-0.435352
O27	O	1.370518	-0.418260	-0.741323
O28	O	1.870518	0.081740	-0.241323
O29	O	1.695164	-0.388063	-0.951950
O30	O	2.195164	0.111937	-0.451950
O31	O	1.656433	-0.515393	-0.649197
O32	O	2.156433	-0.015393	-0.149197
O33	O	1.542566	-0.515359	-0.763107
O34	O	2.042566	-0.015359	-0.263107
C35	C	1.323735	-0.378728	-0.671227
C36	C	1.823735	0.121272	-0.171227
C37	C	1.205685	-0.370274	-0.656275
C38	C	1.705685	0.129726	-0.156275
C39	C	1.161229	-0.402934	-0.714039
C40	C	1.661229	0.097066	-0.214039
C41	C	1.039219	-0.394197	-0.698587
C42	C	1.539219	0.105803	-0.198587
C43	C	1.599501	-0.534348	-0.706165
C44	C	2.099501	-0.034348	-0.206165
C45	C	1.599523	-0.592465	-0.706182
C46	C	2.099523	-0.092465	-0.206182
C47	C	1.659168	-0.952867	-0.647061
C48	C	2.159168	-0.452867	-0.147061
C49	C	1.659211	-1.007476	-0.647081
C50	C	2.159211	-0.507476	-0.147081
O51	O	1.709731	-1.035729	-0.596737
O52	O	2.209731	-0.535729	-0.096737
N53	N	1.599881	-1.034779	-0.706330
N54	N	2.099881	-0.534779	-0.206330
C55	C	1.540513	-1.007473	-0.765573
C56	C	2.040513	-0.507473	-0.265573
O57	O	1.490053	-1.035711	-0.815971
O58	O	1.990053	-0.535711	-0.315971
C59	C	1.540477	-0.952866	-0.765558
C60	C	2.040477	-0.452866	-0.265558
C61	C	1.599802	-0.925564	-0.706297
C62	C	2.099802	-0.425564	-0.206297
C63	C	1.718489	-0.925566	-0.587805
C64	C	2.218489	-0.425566	-0.087805
C65	C	1.718444	-0.870961	-0.587784
C66	C	2.218444	-0.370961	-0.087784
C67	C	1.659078	-0.843658	-0.647020
C68	C	2.159078	-0.343658	-0.147020
C69	C	1.599757	-0.870960	-0.706276
C70	C	2.099757	-0.370960	-0.206276
C71	C	1.481115	-0.925561	-0.824806
C72	C	1.981115	-0.425561	-0.324806
C73	C	1.481085	-0.870951	-0.824788
C74	C	1.981085	-0.370951	-0.324788
C75	C	1.540410	-0.843650	-0.765526
C76	C	2.040410	-0.343650	-0.265526
C77	C	1.540346	-0.789052	-0.765490
C78	C	2.040346	-0.289052	-0.265490
N79	N	1.599676	-0.761749	-0.706241
N80	N	2.099676	-0.261749	-0.206241
C81	C	1.659042	-0.789052	-0.647006
C82	C	2.159042	-0.289052	-0.147006
C83	C	1.540595	-1.122150	-0.765599
C84	C	2.040595	-0.622150	-0.265599
C85	C	1.540625	-1.176755	-0.765608
C86	C	2.040625	-0.676755	-0.265608
C87	C	1.659324	-1.176754	-0.647117
C88	C	2.159324	-0.676754	-0.147117
C89	C	1.659288	-1.122148	-0.647103
C90	C	2.159288	-0.622148	-0.147103
C91	C	1.599925	-1.094847	-0.706350
C92	C	2.099925	-0.594847	-0.206350
C93	C	1.658943	-0.674378	-0.646966
C94	C	2.158943	-0.174378	-0.146966
C95	C	1.658889	-0.619768	-0.646947
C96	C	2.158889	-0.119768	-0.146947
C97	C	1.540194	-0.619774	-0.765441
C98	C	2.040194	-0.119774	-0.265441
C99	C	1.540243	-0.674378	-0.765456
C100	C	2.040243	-0.174378	-0.265456
C101	C	1.599625	-0.701679	-0.706216
C102	C	2.099625	-0.201679	-0.206216
O103	O	1.489856	-0.760764	-0.815812
O104	O	1.989856	-0.260764	-0.315812
O105	O	1.709504	-0.760808	-0.596626
O106	O	2.209504	-0.260808	-0.096626
C107	C	1.876714	-0.418394	-0.741382
C108	C	2.376714	0.081606	-0.241382
C109	C	1.994767	-0.426862	-0.756360
C110	C	2.494767	0.073138	-0.256360
C111	C	1.634921	-0.418322	-0.983267
C112	C	2.134921	0.081678	-0.483267
C113	C	1.649937	-0.426759	-1.101321
C114	C	2.149937	0.073241	-0.601321
C115	C	1.599903	-0.262169	-0.706334
C116	C	2.099903	0.237831	-0.206334
C117	C	1.599995	-0.204063	-0.706376
C118	C	2.099995	0.295937	-0.206376
C119	C	1.592133	-0.394120	-1.145787
C120	C	2.092133	0.105880	-0.645787
C121	C	1.607650	-0.402840	-1.267801
C122	C	2.107650	0.097160	-0.767801
C123	C	1.564648	-0.378766	-0.430291
C124	C	2.064648	0.121234	0.069709
C125	C	1.549838	-0.370195	-0.312263
C126	C	2.049838	0.129805	0.187737
H127	H	0.986955	-0.359764	-0.637694
H128	H	1.486955	0.140236	-0.137694
H129	H	1.531152	-0.359722	-1.093524
H130	H	2.031152	0.140278	-0.593524
H131	H	1.153417	-0.335843	-0.595386
H132	H	1.653417	0.164157	-0.095386
O133	O	1.723366	-1.206216	-0.583242
O134	O	2.223366	-0.706216	-0.083242
H135	H	1.694610	-1.188510	-0.497556
H136	H	2.194610	-0.688510	0.002444
O137	O	1.469062	-0.324622	-1.243057
O138	O	1.969062	0.175378	-0.743057
H139	H	1.469554	-0.324920	-1.158083
H140	H	1.969554	0.175080	-0.658083
O141	O	1.063982	-0.472470	-0.837034
O142	O	1.563982	0.027530	-0.337034
H143	H	1.148952	-0.472178	-0.836511
H144	H	1.648952	0.027822	-0.336511
O145	O	1.722886	-0.590320	-0.583036
O146	O	2.222886	-0.090320	-0.083036
H147	H	1.764184	-0.618485	-0.541862
H148	H	2.264184	-0.118485	-0.041862
O149	O	1.722979	-0.703819	-0.583063
O150	O	2.222979	-0.203819	-0.083063
H151	H	1.764206	-0.675652	-0.541851
H152	H	2.264206	-0.175652	-0.041851
H153	H	1.492245	-1.099923	-0.813840
H154	H	1.992245	-0.599923	-0.313840
O155	O	1.730715	-0.472327	-1.170533
O156	O	2.230715	0.027673	-0.670533
H157	H	1.730233	-0.472023	-1.255508
H158	H	2.230233	0.027977	-0.755508
H159	H	1.432746	-0.848726	-0.873037
H160	H	1.932746	-0.348726	-0.373037
H161	H	1.766755	-0.848736	-0.539532
H162	H	2.266755	-0.348736	-0.039532
O163	O	1.476626	-1.206200	-0.829510
O164	O	1.976626	-0.706200	-0.329510
H165	H	1.505375	-1.202956	-0.915183
H166	H	2.005375	-0.702956	-0.415183
O167	O	1.782516	-0.955009	-0.523903
O168	O	2.282516	-0.455009	-0.023903
H169	H	1.823746	-0.926841	-0.482696
H170	H	2.323746	-0.426841	0.017304
O171	O	1.723285	-1.092703	-0.583199
O172	O	2.223285	-0.592703	-0.083199
H173	H	1.764574	-1.120869	-0.542021
H174	H	2.264574	-0.620869	-0.042021
H175	H	1.213498	-0.437361	-0.774937
H176	H	1.713498	0.062639	-0.274937
H177	H	1.668630	-0.437242	-1.320060
H178	H	2.168630	0.062758	-0.820060
O179	O	1.417136	-0.955002	-0.888733
O180	O	1.917136	-0.455002	-0.388733
H181	H	1.375868	-0.926836	-0.929926
H182	H	1.875868	-0.426836	-0.429926
H183	H	1.491856	-0.597535	-0.813667
H184	H	1.991856	-0.097535	-0.313667
O185	O	1.476257	-0.703830	-0.829369
O186	O	1.976257	-0.203830	-0.329369
H187	H	1.434973	-0.675669	-0.870558
H188	H	1.934973	-0.175669	-0.370558
