data_functionalizedCrystal
_audit_creation_method	'MofGen! by Chris Wilmer'
_symmetry_space_group_name_H-M	'P1'
_symmetry_Int_Tables_number	1
_symmetry_cell_setting	triclinic
loop_
_symmetry_equiv_pos_as_xyz
  x,y,z
_cell_length_a	19.376995
_cell_length_b	16.704503
_cell_length_c	16.704494
_cell_angle_alpha	66.032140
_cell_angle_beta	104.456823
_cell_angle_gamma	70.612589
loop_
_atom_site_label
_atom_site_type_symbol
_atom_site_fract_x
_atom_site_fract_y
_atom_site_fract_z
Zr1	Zr	0.733289	0.834355	0.160618
O2	O	0.635057	0.977090	0.021412
O3	O	0.756777	0.681457	0.193902
O4	O	0.772595	0.823631	0.048869
O5	O	0.614299	0.846920	0.291531
O6	O	0.888623	0.826731	0.081209
O7	O	0.619240	0.834917	0.166445
O8	O	0.860329	0.572409	0.340646
O9	O	0.642593	1.101242	0.032094
O10	O	0.861390	0.750424	0.243577
O11	O	0.771112	0.757068	0.312792
O12	O	0.789735	0.924458	0.142035
O13	O	0.699457	0.931102	0.211250
Zr14	Zr	0.910461	0.858442	0.411695
Zr15	Zr	0.918341	0.839299	0.212197
Zr16	Zr	0.725409	0.853498	0.360116
Zr17	Zr	0.745308	1.032362	0.177654
Zr18	Zr	0.898442	0.660435	0.394658
O19	O	0.886973	1.011340	0.378411
O20	O	0.898177	0.984120	0.094751
O21	O	0.623852	1.004310	0.305073
O22	O	1.008693	0.715707	0.550901
O23	O	1.019898	0.688488	0.267240
O24	O	0.745573	0.708677	0.477562
O25	O	1.029452	0.845877	0.280782
O26	O	0.871155	0.869166	0.523444
O27	O	0.755127	0.866066	0.491104
O28	O	1.024511	0.857880	0.405868
O29	O	0.789685	1.105172	0.073093
O30	O	0.854065	0.587625	0.499220
O31	O	1.001157	0.591555	0.540219
O32	O	1.007421	0.576339	0.381644
O33	O	0.636330	1.116458	0.190669
O34	O	0.783421	1.120388	0.231667
O35	O	0.854015	0.768339	0.430278
O36	O	0.944294	0.761695	0.361063
O37	O	0.872638	0.935729	0.259521
O38	O	0.782360	0.942374	0.328736
C39	C	0.806841	0.598721	0.264846
C40	C	0.801738	0.514662	0.257614
C41	C	0.906246	0.236539	0.405734
C42	C	0.901454	0.157555	0.398943
C43	C	0.787357	0.277709	0.237242
C44	C	0.792150	0.356693	0.244034
C45	C	0.851597	0.336102	0.328282
C46	C	0.856393	0.415088	0.335071
C47	C	0.742293	0.535240	0.173374
C48	C	0.737501	0.456256	0.166582
C49	C	0.590403	0.840214	0.221639
C50	C	0.511844	0.838115	0.199742
C51	C	0.403839	0.828543	0.099974
C52	C	0.477657	0.830517	0.120557
C53	C	0.472222	0.843737	0.258380
C54	C	0.398404	0.841760	0.237811
C55	C	0.364218	0.834164	0.158606
C56	C	0.358783	0.847381	0.296444
C57	C	0.284969	0.845409	0.275874
C58	C	0.250776	0.837816	0.196671
C59	C	0.290404	0.832192	0.138036
C60	C	0.392967	0.854984	0.375644
C61	C	0.353346	0.860605	0.434277
C62	C	0.279534	0.858626	0.413711
C63	C	0.245341	0.851033	0.334508
C64	C	0.239906	0.864250	0.472346
C65	C	0.166093	0.862278	0.451775
C66	C	0.171528	0.849061	0.313938
C67	C	1.053347	0.852583	0.350674
C68	C	1.131907	0.854682	0.372571
C69	C	0.831732	0.822453	0.036615
C70	C	0.835077	0.814326	-0.048077
C71	C	0.836910	1.094076	0.307466
C72	C	0.842012	1.178135	0.314699
C73	C	0.766562	0.980764	-0.313240
C74	C	0.769703	0.973133	-0.392818
C75	C	0.844506	0.791434	-0.286813
C76	C	0.841365	0.799065	-0.207235
C77	C	0.802390	0.893733	-0.220453
C78	C	0.799244	0.901363	-0.140874
C79	C	0.874052	0.719665	-0.034870
C80	C	0.877193	0.712034	-0.114448
C81	C	0.812018	0.870344	0.535698
C82	C	0.808673	0.878471	0.620390
C83	C	1.038313	0.604906	0.329364
C84	C	1.111770	0.522945	0.344028
C85	C	0.796984	0.622667	0.514388
C86	C	0.788536	0.546734	0.591848
C87	C	1.028456	0.628851	0.578905
C88	C	1.098568	0.555018	0.678262
C89	C	0.615294	1.063946	-0.006592
C90	C	0.545183	1.137779	-0.105949
C91	C	0.605438	1.087891	0.242949
C92	C	0.531981	1.169852	0.228285
C93	C	0.846766	1.070130	0.057925
C94	C	0.855214	1.146063	-0.019535
C95	C	1.102991	0.478572	0.289580
C96	C	1.172006	0.401570	0.303339
C97	C	1.249798	0.368939	0.371551
C98	C	1.258575	0.413321	0.426001
C99	C	1.189562	0.490326	0.412237
C100	C	0.827843	0.516960	0.689558
C101	C	0.819903	0.445625	0.762347
C102	C	0.772659	0.404060	0.737425
C103	C	0.733347	0.433841	0.639704
C104	C	0.741284	0.505180	0.566916
C105	C	1.178625	0.516877	0.688793
C106	C	1.244510	0.447513	0.782144
C107	C	1.230336	0.416286	0.864962
C108	C	1.150271	0.454434	0.854427
C109	C	1.084388	0.523802	0.761078
C110	C	0.465126	1.175930	-0.116479
C111	C	0.399242	1.245318	-0.209828
C112	C	0.413416	1.276550	-0.292646
C113	C	0.493481	1.238396	-0.282111
C114	C	0.559364	1.169014	-0.188763
C115	C	0.540760	1.214233	0.282725
C116	C	0.471747	1.291254	0.268946
C117	C	0.393955	1.323888	0.200731
C118	C	0.385178	1.279503	0.146285
C119	C	0.454190	1.202488	0.160059
C120	C	0.902464	1.187606	0.005418
C121	C	0.910417	1.258943	-0.067352
C122	C	0.871116	1.288742	-0.165075
C123	C	0.823865	1.247191	-0.190027
C124	C	0.815916	1.175850	-0.117257
H125	H	0.689098	0.473008	0.097992
H126	H	0.334056	1.276371	-0.218387
N127	N	0.919229	0.609937	-0.100204
H128	H	0.878727	0.601566	-0.142980
H129	H	0.941451	0.556021	-0.029325
N130	N	0.520389	0.824460	0.057309
H131	H	0.534171	0.759449	0.059639
H132	H	0.572305	0.826908	0.082394
H133	H	0.766204	0.345972	0.796703
N134	N	0.624661	1.179046	0.356297
H135	H	0.626897	1.153011	0.423574
H136	H	0.636191	1.237079	0.337752
H137	H	0.694882	0.399989	0.619426
N138	N	0.319524	1.406940	0.185898
H139	H	0.268907	1.420881	0.134427
H140	H	0.324643	1.469760	0.163842
H141	H	0.453569	1.150505	-0.049056
H142	H	0.359763	1.333045	-0.368650
H143	H	0.740529	1.044002	-0.468367
N144	N	0.508763	1.272085	-0.371440
H145	H	0.454874	1.321823	-0.432167
H146	H	0.538023	1.211934	-0.374914
N147	N	1.301395	0.341450	0.965645
H148	H	1.301596	0.372601	1.006333
H149	H	1.354223	0.322046	0.959663
N150	N	0.944870	1.155473	0.110813
H151	H	0.984150	1.080781	0.151852
H152	H	0.902817	1.171554	0.135555
H153	H	0.624548	1.137952	-0.180200
N154	N	0.698837	0.537344	0.461519
H155	H	0.667691	0.500201	0.456782
H156	H	0.740852	0.521362	0.436704
H157	H	1.138742	0.428999	0.921871
H158	H	1.196720	0.526446	0.456582
H159	H	0.945954	0.076488	0.462013
H160	H	0.738951	0.294456	0.168658
N161	N	0.683350	0.642631	0.089825
H162	H	0.695406	0.689545	0.106907
H163	H	0.625548	0.657426	0.077897
H164	H	1.190181	0.542291	0.621369
H165	H	0.321831	1.306085	0.090744
N166	N	0.912705	0.625785	0.065210
H167	H	0.886129	0.583584	0.062408
H168	H	0.904796	0.645057	0.113568
N169	N	1.019093	0.513755	0.216007
H170	H	1.024016	0.473954	0.183606
H171	H	0.993246	0.587470	0.164759
N172	N	1.162529	0.353712	0.244606
H173	H	1.102775	0.386067	0.199315
H174	H	1.184608	0.279484	0.290507
N175	N	0.886543	0.689343	-0.272583
H176	H	0.846040	0.680978	-0.315364
H177	H	0.908770	0.635416	-0.201707
N178	N	1.330859	0.406374	0.793493
H179	H	1.329834	0.436678	0.726860
H180	H	1.357426	0.330923	0.826654
N181	N	0.724525	1.082867	-0.327497
H182	H	0.765025	1.091245	-0.284726
H183	H	0.678080	1.088860	-0.308978
H184	H	0.447031	1.166354	0.115728
N185	N	0.998041	0.564932	0.749725
H186	H	0.999067	0.534616	0.816359
H187	H	0.965834	0.547341	0.708574
N188	N	0.961384	1.303747	-0.040428
H189	H	0.985066	1.274046	0.032520
H190	H	0.925922	1.378960	-0.076068
N191	N	0.879701	1.365679	-0.243557
H192	H	0.915600	1.387468	-0.212912
H193	H	0.823953	1.425863	-0.293265
N194	N	0.276788	0.872445	0.557766
H195	H	0.288195	0.813210	0.620363
H196	H	0.237287	0.936805	0.548184
H197	H	0.851920	0.421386	0.841911
N198	N	0.481224	1.339116	0.327676
H199	H	0.540977	1.306744	0.372985
H200	H	0.449797	1.329312	0.367493
N201	N	0.781478	1.279336	-0.295430
H202	H	0.793684	1.330837	-0.337734
H203	H	0.720542	1.309661	-0.317611
H204	H	0.262573	0.825996	0.073545
H205	H	1.305987	0.306235	0.382750
H206	H	0.866313	0.550795	0.709869
N207	N	0.764951	1.131048	-0.144177
H208	H	0.741262	1.160758	-0.217127
H209	H	0.719117	1.146552	-0.124777
H210	H	0.954654	0.219772	0.474330
N211	N	0.920511	0.392887	0.425930
H212	H	0.954402	0.317826	0.473965
H213	H	0.892935	0.425404	0.456838
H214	H	0.143697	0.842865	0.249447
H215	H	0.190670	0.836216	0.179921
H216	H	0.376008	0.822347	0.035483
N217	N	0.509092	0.851928	0.343807
H218	H	0.514160	0.914821	0.319374
H219	H	0.565011	0.791215	0.391424
N220	N	0.472597	0.857071	0.397932
H221	H	0.466073	0.916714	0.339831
H222	H	0.516850	0.793113	0.411936
H223	H	0.381188	0.866793	0.498763
N224	N	1.342485	0.378112	0.499570
H225	H	1.368365	0.304404	0.550868
H226	H	1.337521	0.417968	0.531912
N227	N	0.123347	0.868337	0.515006
H228	H	0.109566	0.933348	0.512676
H229	H	0.160471	0.809741	0.584728
N230	N	0.757208	1.003464	-0.155124
H231	H	0.734990	1.057438	-0.225982
H232	H	0.797750	1.011742	-0.112295
