data_functionalizedCrystal
_audit_creation_method	'MofGen! by Chris Wilmer'
_symmetry_space_group_name_H-M	'P1'
_symmetry_Int_Tables_number	1
_symmetry_cell_setting	triclinic
loop_
_symmetry_equiv_pos_as_xyz
  x,y,z
_cell_length_a	13.339070
_cell_length_b	13.185408
_cell_length_c	9.016244
_cell_angle_alpha	89.999388
_cell_angle_beta	90.012247
_cell_angle_gamma	96.198598
loop_
_atom_site_label
_atom_site_type_symbol
_atom_site_fract_x
_atom_site_fract_y
_atom_site_fract_z
O1	O	0.243482	1.373292	-0.123190
O2	O	0.148745	1.084460	-0.123232
O3	O	0.334352	1.195727	-0.123182
O4	O	0.057874	1.262024	-0.123240
O5	O	0.334361	1.195718	0.123498
O6	O	0.148754	1.084451	0.123449
O7	O	0.243491	1.373283	0.123490
Cu8	Cu	0.196123	1.228866	0.145994
Cu9	Cu	0.196112	1.228876	-0.145735
O10	O	0.057884	1.262016	0.123441
C11	C	0.368997	1.184524	0.000162
C12	C	0.472211	1.151143	0.000173
C13	C	0.139145	1.046733	0.000104
C14	C	0.110538	0.934328	0.000089
C15	C	0.907668	1.410697	0.000280
C16	C	0.810695	1.442064	0.000277
C17	C	0.726069	1.369336	0.000251
C18	C	0.738426	1.265237	0.000228
C19	C	0.835408	1.233867	0.000242
C20	C	0.653810	1.192506	0.000213
C21	C	0.666166	1.088406	0.000190
C22	C	0.763140	1.057042	0.000203
C23	C	0.847766	1.129770	0.000230
C24	C	0.556827	1.223875	0.000199
C25	C	0.484568	1.047045	0.000161
C26	C	0.581541	1.015679	0.000164
C27	C	0.008684	0.895277	0.000065
C28	C	-0.018197	0.789668	0.000073
C29	C	0.056774	0.723099	0.000093
C30	C	0.158631	0.762150	0.000107
C31	C	0.185514	0.867770	0.000111
C32	C	0.233605	0.695592	0.000139
C33	C	0.335461	0.734643	0.000153
C34	C	0.362340	0.840253	0.000155
C35	C	0.287369	0.906821	0.000135
C36	C	0.206722	0.589973	0.000135
C37	C	0.383552	0.562466	0.000181
C38	C	0.410432	0.668075	0.000173
C39	C	1.023239	1.273219	0.000142
C40	C	0.920025	1.306600	0.000267
C41	C	0.253091	1.411010	0.000152
C42	C	0.281698	1.523415	0.000156
N43	N	0.196134	1.228866	0.351180
C44	C	0.295245	1.288770	0.586193
C45	C	0.295472	1.288463	0.414302
C46	C	0.188816	1.117307	0.413595
C47	C	0.189487	1.117640	0.585540
C48	C	0.103818	1.279680	0.585666
C49	C	0.105128	1.281863	0.413711
N50	N	0.196114	1.228886	0.649079
H51	H	0.546778	1.308634	0.000218
H52	H	0.123789	0.558188	0.000126
O53	O	0.402402	0.976351	0.000393
C54	C	0.404134	0.914875	0.128125
H55	H	0.451938	0.957976	0.217437
H56	H	0.323969	0.895400	0.170988
H57	H	0.437891	0.841539	0.099239
O58	O	0.456478	0.497915	-0.000002
C59	C	0.516816	0.515336	-0.127762
H60	H	0.511195	0.595930	-0.170358
H61	H	0.598618	0.506364	-0.099006
H62	H	0.489428	0.457803	-0.217230
H63	H	-0.052346	0.949485	0.000059
H64	H	0.309250	0.992818	0.000133
H65	H	0.304108	1.370946	0.627540
H66	H	0.493365	0.699886	0.000184
H67	H	0.773195	0.972278	0.000196
H68	H	0.254315	1.076836	0.370559
O69	O	0.103648	1.061243	0.364755
C70	C	0.129963	0.976752	0.283325
H71	H	0.208295	0.958768	0.318082
H72	H	0.072828	0.907839	0.306220
H73	H	0.130045	0.995327	0.159831
O74	O	0.305542	1.386330	0.364259
C75	C	0.224288	1.436531	0.416267
H76	H	0.191203	1.396332	0.519967
H77	H	0.252201	1.519102	0.444152
H78	H	0.163757	1.434755	0.326739
H79	H	0.363973	1.253578	0.629433
O80	O	0.631817	1.399674	0.000050
C81	C	0.579600	1.361691	-0.127744
H82	H	0.614389	1.291996	-0.170351
H83	H	0.496961	1.339203	-0.099028
H84	H	0.585224	1.423156	-0.217188
H85	H	0.364562	1.252946	0.373196
H86	H	0.800642	1.526821	0.000298
O87	O	0.015721	1.235752	0.362381
C88	C	0.033585	1.154209	0.268288
H89	H	0.109966	1.127648	0.295887
H90	H	-0.028143	1.088387	0.284982
H91	H	0.033378	1.180653	0.147915
O92	O	0.030790	0.620492	-0.000111
C93	C	0.070276	0.577671	-0.127885
H94	H	0.137391	0.630502	-0.170462
H95	H	0.095757	0.500249	-0.099156
H96	H	0.009612	0.567633	-0.217358
O97	O	0.110819	1.379980	0.365221
C98	C	0.028738	1.426791	0.421994
H99	H	-0.000884	1.384978	0.526414
H100	H	0.054504	1.509812	0.450151
H101	H	-0.033777	1.423435	0.335327
H102	H	0.976575	1.469901	0.000314
H103	H	-0.101128	0.757880	0.000061
H104	H	0.103766	1.360887	0.629025
O105	O	0.942020	1.099427	0.000036
C106	C	0.994214	1.137432	-0.127733
H107	H	0.959415	1.207132	-0.170322
H108	H	1.076858	1.159917	-0.098990
H109	H	0.988576	1.075981	-0.217200
H110	H	0.591616	0.930919	0.000146
O111	O	0.461295	0.878137	-0.000082
C112	C	0.508516	0.843940	-0.127808
H113	H	0.449393	0.822956	-0.217120
H114	H	0.566299	0.907155	-0.170676
H115	H	0.548040	0.774057	-0.098911
O116	O	0.016115	1.228092	0.633999
C117	C	-0.066137	1.274306	0.576502
H118	H	-0.041611	1.318865	0.471943
H119	H	-0.130179	1.212931	0.548370
H120	H	-0.093130	1.328488	0.662697
O121	O	0.268698	1.069479	0.633256
C122	C	0.258297	0.968235	0.580458
H123	H	0.208093	0.962558	0.477808
H124	H	0.335713	0.945136	0.550607
H125	H	0.222678	0.915144	0.670261
H126	H	0.118542	1.070216	0.627140
