data_functionalizedCrystal
_audit_creation_method	'MofGen! by Chris Wilmer'
_symmetry_space_group_name_H-M	'P1'
_symmetry_Int_Tables_number	1
_symmetry_cell_setting	triclinic
loop_
_symmetry_equiv_pos_as_xyz
  x,y,z
_cell_length_a	12.827893
_cell_length_b	12.827892
_cell_length_c	12.827885
_cell_angle_alpha	90.029786
_cell_angle_beta	90.021189
_cell_angle_gamma	90.013601
loop_
_atom_site_label
_atom_site_type_symbol
_atom_site_fract_x
_atom_site_fract_y
_atom_site_fract_z
Zn1	Zn	-1.597670	0.416032	-0.590902
Zn2	Zn	-1.597564	0.590810	-0.416162
Zn3	Zn	-1.422911	0.416078	-0.416170
Zn4	Zn	-1.422896	0.590727	-0.590857
O5	O	-1.510260	0.503412	-0.503523
O6	O	-1.743892	0.439233	-0.567738
O7	O	-1.574358	0.567685	-0.269927
O8	O	-1.446144	0.269836	-0.439371
O9	O	-1.743814	0.567641	-0.439358
O10	O	-1.574538	0.269802	-0.567746
O11	O	-1.446041	0.439310	-0.269933
O12	O	-1.276673	0.439230	-0.439327
O13	O	-1.446118	0.567499	-0.737099
O14	O	-1.276662	0.567543	-0.567668
O15	O	-1.574524	0.439152	-0.737132
O16	O	-1.574343	0.737035	-0.439314
O17	O	-1.446016	0.736974	-0.567661
C18	C	-1.238750	0.503383	-0.503494
C19	C	-1.122597	0.503396	-0.503506
C20	C	-1.070851	0.439967	-0.567130
C21	C	-0.950800	0.439979	-0.567144
C22	C	-1.510195	0.774922	-0.503504
C23	C	-1.510262	0.891075	-0.503531
C24	C	-0.782830	0.503432	-0.503544
C25	C	-0.898983	0.503419	-0.503532
C26	C	-1.510331	0.503311	-0.776093
C27	C	-1.510362	0.503269	-0.892246
C28	C	-1.510354	0.230841	-0.503564
C29	C	-1.510394	0.114688	-0.503582
C30	C	-1.573838	0.942855	-0.440092
C31	C	-1.573910	1.062905	-0.440118
C32	C	-1.573907	0.439746	-0.944048
C33	C	-1.573940	0.439700	-1.064098
C34	C	-1.510249	0.503436	-0.232013
C35	C	-1.510422	0.503185	-0.115860
H36	H	-0.906300	0.385678	-0.621619
O37	O	-1.438221	0.950073	-0.575495
H38	H	-1.485034	0.999732	-0.628668
H39	H	-1.628220	0.898312	-0.385762
O40	O	-1.438332	0.575223	-1.056880
H41	H	-1.485101	0.628375	-1.007139
H42	H	-1.628336	1.107435	-0.385802
O43	O	-1.438274	1.055725	-0.575524
H44	H	-1.456132	1.076543	-0.657583
H45	H	-1.628348	0.385320	-1.108646
H46	H	-1.628283	0.385392	-0.899520
O47	O	-1.129884	0.368010	-0.639267
H48	H	-1.109030	0.386004	-0.721275
H49	H	-0.943477	0.557732	-0.449064
O50	O	-1.438317	0.575258	-0.951218
H51	H	-1.456177	0.657306	-0.930318
H52	H	-1.078022	0.557707	-0.449044
