data_functionalizedCrystal
_audit_creation_method	'MofGen! by Chris Wilmer'
_symmetry_space_group_name_H-M	'P1'
_symmetry_Int_Tables_number	1
_symmetry_cell_setting	triclinic
loop_
_symmetry_equiv_pos_as_xyz
  x,y,z
_cell_length_a	23.532361
_cell_length_b	23.532357
_cell_length_c	17.666332
_cell_angle_alpha	89.987974
_cell_angle_beta	89.994922
_cell_angle_gamma	82.828980
loop_
_atom_site_label
_atom_site_type_symbol
_atom_site_fract_x
_atom_site_fract_y
_atom_site_fract_z
O1	O	0.755268	0.069011	-0.062881
O2	O	1.255268	0.569011	0.437119
O3	O	0.589399	0.079042	-0.062901
O4	O	1.089399	0.579042	0.437099
O5	O	0.677350	-0.008908	-0.062875
O6	O	1.177350	0.491092	0.437125
O7	O	0.667317	0.156961	-0.062907
O8	O	1.167317	0.656961	0.437093
O9	O	0.677335	-0.008912	0.063022
O10	O	1.177335	0.491088	0.563022
O11	O	0.589384	0.079038	0.062996
O12	O	1.089384	0.579038	0.562996
O13	O	0.755253	0.069007	0.063015
O14	O	1.255253	0.569007	0.563015
Cu15	Cu	0.672317	0.074022	0.074501
Cu16	Cu	1.172317	0.574022	0.574501
Cu17	Cu	0.672335	0.074027	-0.074387
Cu18	Cu	1.172335	0.574027	0.425613
O19	O	0.667302	0.156957	0.062989
O20	O	1.167302	0.656957	0.562989
C21	C	0.568175	0.078789	0.000045
C22	C	1.068175	0.578789	0.500045
C23	C	0.504957	0.078034	0.000039
C24	C	1.004957	0.578034	0.500039
C25	C	0.231722	0.074733	-0.068583
C26	C	0.731722	0.574733	0.431417
C27	C	0.291122	0.075448	-0.068585
C28	C	0.791122	0.575448	0.431415
O29	O	0.321855	0.075800	-0.126947
O30	O	0.821855	0.575800	0.373053
N31	N	0.320819	0.075806	0.000042
N32	N	0.820819	0.575806	0.500042
C33	C	0.291114	0.075444	0.068675
C34	C	0.791114	0.575444	0.568675
O35	O	0.321828	0.075814	0.127047
O36	O	0.821828	0.575814	0.627047
C37	C	0.231716	0.074725	0.068676
C38	C	0.731716	0.574725	0.568676
C39	C	0.202021	0.074372	0.000045
C40	C	0.702021	0.574372	0.500045
C41	C	0.202027	0.074379	-0.137208
C42	C	0.702027	0.574379	0.362792
C43	C	0.142631	0.073665	-0.137206
C44	C	0.642631	0.573665	0.362794
C45	C	0.112931	0.073305	-0.068578
C46	C	0.612931	0.573305	0.431422
C47	C	0.142626	0.073658	0.000047
C48	C	0.642626	0.573658	0.500047
C49	C	0.202013	0.074359	0.137308
C50	C	0.702013	0.574359	0.637308
C51	C	0.142611	0.073639	0.137304
C52	C	0.642611	0.573639	0.637304
C53	C	0.112916	0.073286	0.068673
C54	C	0.612916	0.573286	0.568673
C55	C	0.053529	0.072584	0.068677
C56	C	0.553529	0.572584	0.568677
N57	N	0.023832	0.072225	0.000051
N58	N	0.523832	0.572225	0.500051
C59	C	0.053533	0.072586	-0.068577
C60	C	0.553533	0.572586	0.431423
C61	C	0.415854	0.076953	0.068667
C62	C	0.915854	0.576953	0.568667
C63	C	0.475250	0.077676	0.068667
C64	C	0.975250	0.577676	0.568667
C65	C	0.475254	0.077679	-0.068593
C66	C	0.975254	0.577679	0.431407
C67	C	0.415856	0.076959	-0.068592
C68	C	0.915856	0.576959	0.431408
C69	C	0.386157	0.076594	0.000041
C70	C	0.886157	0.576594	0.500041
C71	C	-0.071203	0.071087	-0.068567
C72	C	0.428797	0.571087	0.431433
C73	C	-0.130604	0.070376	-0.068558
C74	C	0.369396	0.570376	0.431442
C75	C	-0.130602	0.070370	0.068701
C76	C	0.369398	0.570370	0.568701
C77	C	-0.071206	0.071085	0.068693
C78	C	0.428794	0.571085	0.568693
C79	C	-0.041508	0.071441	0.000053
C80	C	0.458492	0.571441	0.500053
O81	O	0.022759	0.072229	0.127010
O82	O	0.522759	0.572229	0.627010
O83	O	0.022812	0.072208	-0.126939
O84	O	0.522812	0.572208	0.373061
C85	C	0.677092	-0.030127	0.000076
C86	C	1.177092	0.469873	0.500076
C87	C	0.676337	-0.093345	0.000083
C88	C	1.176337	0.406655	0.500083
C89	C	0.671609	-0.485353	-0.068585
C90	C	1.171609	0.014647	0.431415
C91	C	0.670891	-0.544752	-0.068589
C92	C	1.170891	-0.044752	0.431411
O93	O	0.670508	-0.575467	-0.126953
O94	O	1.170508	-0.075467	0.373047
N95	N	0.670527	-0.574466	0.000036
N96	N	1.170527	-0.074466	0.500036
C97	C	0.670875	-0.544776	0.068670
C98	C	1.170875	-0.044776	0.568670
O99	O	0.670499	-0.575504	0.127041
O100	O	1.170499	-0.075504	0.627041
C101	C	0.671588	-0.485378	0.068674
C102	C	1.171588	0.014622	0.568674
C103	C	0.671958	-0.455668	0.000044
C104	C	1.171958	0.044332	0.500044
C105	C	0.671978	-0.455643	-0.137209
C106	C	1.171978	0.044357	0.362791
C107	C	0.672696	-0.396248	-0.137205
C108	C	1.172696	0.103752	0.362795
C109	C	0.673045	-0.366563	-0.068576
C110	C	1.173045	0.133437	0.431424
C111	C	0.672676	-0.396273	0.000049
C112	C	1.172676	0.103727	0.500049
C113	C	0.671931	-0.455689	0.137307
C114	C	1.171931	0.044311	0.637307
C115	C	0.672644	-0.396286	0.137305
C116	C	1.172644	0.103714	0.637305
C117	C	0.673014	-0.366576	0.068675
C118	C	1.173014	0.133424	0.568675
C119	C	0.673744	-0.307193	0.068682
C120	C	1.173744	0.192807	0.568682
N121	N	0.674108	-0.277479	0.000057
N122	N	1.174108	0.222521	0.500057
C123	C	0.673758	-0.307164	-0.068572
C124	C	1.173758	0.192836	0.431428
C125	C	0.669376	-0.669518	0.068657
C126	C	1.169376	-0.169518	0.568657
C127	C	0.668667	-0.728916	0.068654
C128	C	1.168667	-0.228916	0.568654
C129	C	0.668683	-0.728888	-0.068605
C130	C	1.168683	-0.228888	0.431395
C131	C	0.669396	-0.669489	-0.068602
C132	C	1.169396	-0.169489	0.431398
C133	C	0.669740	-0.639804	0.000032
C134	C	1.169740	-0.139804	0.500032
C135	C	0.675267	-0.182430	-0.068557
C136	C	1.175267	0.317570	0.431443
C137	C	0.675988	-0.123030	-0.068546
C138	C	1.175988	0.376970	0.431454
C139	C	0.675969	-0.123063	0.068713
C140	C	1.175969	0.376937	0.568713
C141	C	0.675252	-0.182459	0.068703
C142	C	1.175252	0.317541	0.568703
C143	C	0.674899	-0.212140	0.000062
C144	C	1.174899	0.287860	0.500062
O145	O	0.674125	-0.276440	0.127016
O146	O	1.174125	0.223560	0.627016
O147	O	0.674127	-0.276428	-0.126933
O148	O	1.174127	0.223572	0.373067
C149	C	0.776477	0.069260	0.000067
C150	C	1.276477	0.569260	0.500067
C151	C	0.839695	0.070015	0.000069
C152	C	1.339695	0.570015	0.500069
C153	C	0.667560	0.178176	0.000037
C154	C	1.167560	0.678176	0.500037
C155	C	0.668315	0.241394	0.000025
C156	C	1.168315	0.741394	0.500025
N157	N	0.672308	0.074018	0.179220
N158	N	1.172308	0.574018	0.679220
N159	N	0.672348	0.074027	-0.179106
N160	N	1.172348	0.574027	0.320894
C161	C	0.711266	0.035092	0.218842
C162	C	1.211266	0.535092	0.718842
C163	C	0.711269	0.035089	0.298089
C164	C	1.211269	0.535089	0.798089
C165	C	0.672321	0.074022	0.337713
C166	C	1.172321	0.574022	0.837713
C167	C	0.633356	0.112950	0.298082
C168	C	1.133356	0.612950	0.798082
C169	C	0.633350	0.112948	0.218836
C170	C	1.133350	0.612948	0.718836
N171	N	0.664777	0.124459	0.462121
N172	N	1.164777	0.624459	0.962121
N173	N	0.664786	0.124459	0.537401
N174	N	1.164786	0.624459	1.037401
C175	C	0.672335	0.074030	0.576477
C176	C	1.172335	0.574030	1.076477
N177	N	0.679887	0.023598	0.537427
N178	N	1.179887	0.523598	1.037427
N179	N	0.679881	0.023599	0.462140
N180	N	1.179881	0.523599	0.962140
C181	C	0.672322	0.074028	0.423642
C182	C	1.172322	0.574028	0.923642
C183	C	0.711298	0.035098	0.702027
C184	C	1.211298	0.535098	1.202027
C185	C	0.711298	0.035095	0.781276
C186	C	1.211298	0.535095	1.281276
C187	C	0.633388	0.112960	0.781267
C188	C	1.133388	0.612960	1.281267
C189	C	0.633385	0.112959	0.702020
C190	C	1.133385	0.612959	1.202020
C191	C	0.672344	0.074028	0.662404
C192	C	1.172344	0.574028	1.162404
H193	H	0.391676	0.076663	0.124559
H194	H	0.891676	0.576663	0.624559
H195	H	0.226203	0.074671	-0.193096
H196	H	0.726203	0.574671	0.306904
Br197	Br	-0.030907	0.071571	-0.161722
Br198	Br	0.469093	0.571571	0.338278
Br199	Br	0.669848	-0.629238	0.161812
Br200	Br	1.169848	-0.129238	0.661812
H201	H	0.742994	0.003390	0.330355
H202	H	1.242994	0.503390	0.830355
Br203	Br	0.102341	0.073182	-0.230353
Br204	Br	0.602341	0.573182	0.269647
Br205	Br	0.580514	0.165791	0.648242
Br206	Br	1.080514	0.665791	1.148242
H207	H	0.391682	0.076672	-0.124477
H208	H	0.891682	0.576672	0.375523
H209	H	0.743019	0.003397	0.669771
H210	H	1.243019	0.503397	1.169771
H211	H	0.499447	0.077972	-0.124474
H212	H	0.999447	0.577972	0.375526
H213	H	0.743020	0.003394	0.813536
H214	H	1.243020	0.503394	1.313536
H215	H	0.226181	0.074644	0.193195
H216	H	0.726181	0.574644	0.693195
H217	H	0.676290	-0.098843	-0.124435
H218	H	1.176290	0.401157	0.375565
Br219	Br	0.674763	-0.222782	0.161844
Br220	Br	1.174763	0.277218	0.661844
Br221	Br	0.580475	0.165779	0.165059
Br222	Br	1.080475	0.665779	0.665059
Br223	Br	0.674788	-0.222703	-0.161714
Br224	Br	1.174788	0.277297	0.338286
H225	H	-0.154779	0.070090	-0.124449
H226	H	0.345221	0.570090	0.375551
H227	H	0.669696	-0.645303	-0.124486
H228	H	1.169696	-0.145303	0.375514
Br229	Br	0.580522	0.165792	0.835035
Br230	Br	1.080522	0.665792	1.335035
H231	H	0.668397	-0.753068	-0.124487
H232	H	1.168397	-0.253068	0.375513
Br233	Br	0.580493	0.165784	0.351853
Br234	Br	1.080493	0.665784	0.851853
Br235	Br	0.673110	-0.356002	0.230456
Br236	Br	1.173110	0.143998	0.730456
H237	H	0.118433	0.073347	0.193194
H238	H	0.618433	0.573347	0.693194
H239	H	0.499422	0.077973	0.124553
H240	H	0.999422	0.577973	0.624553
Br241	Br	-0.030906	0.071573	0.161835
Br242	Br	0.469094	0.571573	0.661835
H243	H	0.672995	-0.372063	-0.193090
H244	H	1.172995	0.127937	0.306910
Br245	Br	-0.170922	0.069884	0.161834
Br246	Br	0.329078	0.569884	0.661834
H247	H	0.742987	0.003391	0.186589
H248	H	1.242987	0.503391	0.686589
Br249	Br	0.671503	-0.495919	-0.230362
Br250	Br	1.171503	0.004081	0.269638
H251	H	0.671631	-0.479868	0.193193
H252	H	1.171631	0.020132	0.693193
H253	H	0.668375	-0.753102	0.124540
H254	H	1.168375	-0.253102	0.624540
H255	H	0.676256	-0.098883	0.124589
H256	H	1.176256	0.401117	0.624589
