data_functionalizedCrystal
_audit_creation_method	'MofGen! by Chris Wilmer'
_symmetry_space_group_name_H-M	'P1'
_symmetry_Int_Tables_number	1
_symmetry_cell_setting	triclinic
loop_
_symmetry_equiv_pos_as_xyz
  x,y,z
_cell_length_a	6.394989
_cell_length_b	10.654550
_cell_length_c	9.730223
_cell_angle_alpha	90.000043
_cell_angle_beta	90.001437
_cell_angle_gamma	85.491321
loop_
_atom_site_label
_atom_site_type_symbol
_atom_site_fract_x
_atom_site_fract_y
_atom_site_fract_z
O1	O	-0.293441	-1.670947	-0.114177
O2	O	-0.321399	-1.305765	-0.114202
O3	O	-0.003431	-1.493539	-0.114190
O4	O	-0.611409	-1.483172	-0.114189
O5	O	-0.003422	-1.493527	0.114390
O6	O	-0.321390	-1.305752	0.114378
O7	O	-0.293433	-1.670934	0.114403
Zn8	Zn	-0.307410	-1.488341	0.150682
Zn9	Zn	-0.307421	-1.488358	-0.150482
O10	O	-0.611400	-1.483160	0.114391
C11	C	-0.319341	-1.258939	0.000085
C12	C	-0.313200	-1.119430	0.000075
C13	C	-0.295490	-1.717760	0.000113
C14	C	-0.301631	-1.857269	0.000113
N15	N	-0.307401	-1.488339	0.356219
C16	C	0.074425	-1.491483	0.000094
C17	C	0.310750	-1.485219	0.000093
N18	N	-0.307414	-1.488369	-0.356018
C19	C	-0.500414	-1.041927	0.000080
C20	C	-0.494631	-0.910845	0.000104
C21	C	-0.114403	-0.934782	0.000113
C22	C	-0.120188	-1.065861	0.000099
C23	C	-0.166665	-1.571516	0.428150
C24	C	-0.166665	-1.571528	0.572033
C25	C	-0.448157	-1.405184	0.572041
C26	C	-0.448144	-1.405166	0.428161
H27	H	-0.647080	-0.847747	0.000110
C28	C	0.094936	-0.876377	0.000056
C29	C	0.059938	-0.744994	0.000029
C30	C	0.252734	-0.691153	-0.000047
H31	H	0.172265	-0.902640	0.079744
H32	H	0.172119	-0.902700	-0.079688
H33	H	-0.017213	-0.718681	0.079765
H34	H	-0.017359	-0.718696	-0.079653
H35	H	0.329918	-0.717477	-0.079791
H36	H	0.330049	-0.717425	0.079643
H37	H	0.229015	-0.602005	-0.000078
H38	H	-0.562750	-1.337468	0.630630
C39	C	0.083154	-1.149955	-0.000191
C40	C	0.199237	-1.125309	-0.117803
C41	C	0.386543	-1.202763	-0.118121
H42	H	0.162465	-1.133469	0.079429
H43	H	0.052150	-1.235710	-0.000273
H44	H	0.230247	-1.039574	-0.117709
H45	H	0.119990	-1.141803	-0.197443
H46	H	0.355539	-1.288519	-0.118202
H47	H	0.465835	-1.186271	-0.038495
H48	H	0.465319	-1.186060	-0.197925
H49	H	-0.052063	-1.639256	0.630595
H50	H	-0.052060	-1.639238	0.369578
C51	C	-0.601189	-1.314803	0.350301
C52	C	-0.724498	-1.241998	0.444097
C53	C	-0.865510	-1.158755	0.372423
H54	H	-0.525453	-1.261211	0.294182
H55	H	-0.688968	-1.361324	0.294189
H56	H	-0.636731	-1.195481	0.500185
H57	H	-0.800280	-1.295557	0.500219
H58	H	-0.953288	-1.205276	0.316311
H59	H	-0.789756	-1.105172	0.316307
H60	H	-0.949205	-1.109355	0.436052
H61	H	-0.657577	-1.085539	0.000071
