data_functionalizedCrystal
_audit_creation_method	'MofGen! by Chris Wilmer'
_symmetry_space_group_name_H-M	'P1'
_symmetry_Int_Tables_number	1
_symmetry_cell_setting	triclinic
loop_
_symmetry_equiv_pos_as_xyz
  x,y,z
_cell_length_a	10.489741
_cell_length_b	19.188930
_cell_length_c	9.565339
_cell_angle_alpha	89.995116
_cell_angle_beta	89.999100
_cell_angle_gamma	83.841978
loop_
_atom_site_label
_atom_site_type_symbol
_atom_site_fract_x
_atom_site_fract_y
_atom_site_fract_z
O1	O	1.691850	0.098497	-0.116191
O2	O	1.320448	0.107743	-0.116215
O3	O	1.516867	0.001537	-0.116175
O4	O	1.495431	0.204704	-0.116231
O5	O	1.516852	0.001543	0.116345
O6	O	1.320432	0.107750	0.116305
O7	O	1.691835	0.098504	0.116329
Zn8	Zn	1.506131	0.103128	0.153235
Zn9	Zn	1.506152	0.103119	-0.153121
O10	O	1.495416	0.204711	0.116289
C11	C	1.272924	0.107048	0.000043
C12	C	1.131341	0.104959	0.000035
C13	C	1.064712	0.037383	0.000067
C14	C	0.971879	0.069302	-0.114584
C15	C	0.971898	0.069325	0.114663
C16	C	1.040373	0.136906	-0.114710
C17	C	1.040401	0.136919	0.114640
C18	C	0.947595	0.168887	-0.000039
C19	C	1.516165	-0.024476	0.000089
C20	C	1.514081	-0.101994	0.000101
C21	C	1.629334	-0.146146	0.000115
C22	C	1.627376	-0.218983	0.000092
C23	C	1.510159	-0.247665	0.000084
C24	C	1.394892	-0.203503	0.000062
C25	C	1.396853	-0.130668	0.000071
N26	N	1.420556	-0.356268	0.079209
N27	N	1.418701	-0.425459	0.079204
C28	C	1.504244	-0.467113	0.000055
N29	N	1.591732	-0.436964	-0.079071
N30	N	1.593590	-0.367767	-0.079059
C31	C	1.508020	-0.326642	0.000074
C32	C	1.617382	-0.590244	0.000043
C33	C	1.615419	-0.663081	0.000012
C34	C	1.382932	-0.647600	-0.000004
C35	C	1.384898	-0.574764	0.000013
C36	C	1.502126	-0.546090	0.000043
C37	C	1.739359	0.099199	0.000068
C38	C	1.880941	0.101288	0.000067
C39	C	1.496118	0.230723	0.000022
C40	C	1.498202	0.308242	0.000001
N41	N	1.506127	0.103134	0.362314
N42	N	1.506166	0.103108	-0.362200
C43	C	1.415262	0.152234	0.453499
C44	C	1.530443	0.166361	0.546681
C45	C	1.390995	0.089012	0.546688
C46	C	1.621366	0.117292	0.453444
C47	C	1.481842	0.039916	0.453443
C48	C	1.597107	0.054016	0.546583
H49	H	0.896927	0.224498	-0.000117
H50	H	1.293614	0.077080	0.587649
H51	H	0.941511	0.040706	-0.211499
C52	C	1.081151	0.175513	-0.245784
H53	H	1.171483	0.176590	-0.245013
H54	H	1.039982	0.222086	-0.246092
H55	H	1.057161	0.151673	-0.327110
C56	C	1.253992	-0.679138	-0.000019
H57	H	1.185631	-0.642408	-0.000031
H58	H	1.248385	-0.707237	0.081058
H59	H	1.248404	-0.707221	-0.081122
C60	C	1.270070	-0.082099	0.000068
H61	H	1.199976	-0.109610	0.000067
H62	H	1.266008	-0.053355	-0.081008
H63	H	1.266001	-0.053374	0.081172
C64	C	1.258119	-0.526195	0.000021
H65	H	1.188026	-0.553706	0.000025
H66	H	1.254052	-0.497452	-0.081057
H67	H	1.254052	-0.497469	0.081123
C68	C	1.081487	0.175515	0.245564
H69	H	1.058323	0.151442	0.326956
H70	H	1.039774	0.221967	0.246378
H71	H	1.171728	0.176932	0.244149
C72	C	1.742200	-0.711652	0.000011
H73	H	1.724246	-0.759138	-0.000019
H74	H	1.790279	-0.702906	0.081102
H75	H	1.790284	-0.702885	-0.081078
H76	H	0.941553	0.040722	0.211592
C77	C	1.311553	0.208373	0.398266
H78	H	1.251423	0.186578	0.343626
H79	H	1.350535	0.241048	0.342250
H80	H	1.268705	0.232120	0.474858
C81	C	1.558235	0.238563	0.602018
H82	H	1.634309	0.233411	0.656634
H83	H	1.488486	0.257905	0.658077
H84	H	1.569076	0.268917	0.525466
C85	C	1.265954	-0.235047	0.000048
H86	H	1.197592	-0.198317	0.000028
H87	H	1.260344	-0.263144	0.081127
H88	H	1.260371	-0.263132	-0.081053
H89	H	1.724790	-0.122805	0.000135
C90	C	1.754158	-0.267559	0.000118
H91	H	1.824254	-0.240050	0.000145
H92	H	1.758239	-0.296292	-0.080965
H93	H	1.758204	-0.296295	0.081215
C94	C	1.746325	-0.558699	0.000060
H95	H	1.814687	-0.595429	0.000045
H96	H	1.751919	-0.530615	0.081151
H97	H	1.751925	-0.530601	-0.081029
C98	C	1.752943	0.133507	0.398358
H99	H	1.752110	0.133443	0.299042
H100	H	1.817531	0.098830	0.430971
H101	H	1.770346	0.178265	0.431059
C102	C	1.701041	-0.002092	0.601466
H103	H	1.782752	0.008047	0.569365
H104	H	1.684471	-0.046873	0.568130
H105	H	1.700035	-0.002052	0.700777
H106	H	1.461239	-0.013519	0.412456
H107	H	1.115644	-0.018169	-0.000061
