data_functionalizedCrystal
_audit_creation_method	'MofGen! by Chris Wilmer'
_symmetry_space_group_name_H-M	'P1'
_symmetry_Int_Tables_number	1
_symmetry_cell_setting	triclinic
loop_
_symmetry_equiv_pos_as_xyz
  x,y,z
_cell_length_a	12.759401
_cell_length_b	16.120444
_cell_length_c	12.759393
_cell_angle_alpha	92.864172
_cell_angle_beta	89.980789
_cell_angle_gamma	92.926867
loop_
_atom_site_label
_atom_site_type_symbol
_atom_site_fract_x
_atom_site_fract_y
_atom_site_fract_z
Zn1	Zn	1.584971	-0.331853	-0.615154
Zn2	Zn	2.084971	0.168147	-0.115154
Zn3	Zn	1.575917	-0.471290	-0.448370
Zn4	Zn	2.075917	0.028710	0.051630
Zn5	Zn	1.409268	-0.331896	-0.439496
Zn6	Zn	1.909268	0.168104	0.060504
Zn7	Zn	1.400319	-0.471228	-0.624007
Zn8	Zn	1.900319	0.028772	-0.124007
O9	O	1.492619	-0.401567	-0.531757
O10	O	1.992619	0.098433	-0.031757
O11	O	1.730790	-0.350358	-0.593039
O12	O	2.230790	0.149642	-0.093039
O13	O	1.553767	-0.452843	-0.300174
O14	O	2.053767	0.047157	0.199826
O15	O	1.440109	-0.215224	-0.455379
O16	O	1.940109	0.284776	0.044621
O17	O	1.724139	-0.452801	-0.470503
O18	O	2.224139	0.047199	0.029497
O19	O	1.569197	-0.215193	-0.584435
O20	O	2.069197	0.284807	-0.084435
O21	O	1.431331	-0.350431	-0.293655
O22	O	1.931331	0.149569	0.206345
O23	O	1.261060	-0.350371	-0.463963
O24	O	1.761060	0.149629	0.036037
O25	O	1.424858	-0.452695	-0.769851
O26	O	1.924858	0.047305	-0.269851
O27	O	1.254486	-0.452737	-0.599522
O28	O	1.754486	0.047263	-0.099522
O29	O	1.560520	-0.350297	-0.763347
O30	O	2.060520	0.149703	-0.263347
O31	O	1.545090	-0.587948	-0.479086
O32	O	2.045090	-0.087948	0.020914
O33	O	1.416079	-0.587902	-0.608126
O34	O	1.916079	-0.087902	-0.108126
C35	C	1.219652	-0.401552	-0.531741
C36	C	1.719652	0.098448	-0.031741
C37	C	1.102875	-0.401566	-0.531760
C38	C	1.602875	0.098434	-0.031760
C39	C	1.051471	-0.348320	-0.595675
C40	C	1.551471	0.151680	-0.095675
C41	C	0.941746	-0.348329	-0.595682
C42	C	1.441746	0.151671	-0.095682
C43	C	0.934839	-0.454837	-0.467859
C44	C	1.434839	0.045163	0.032141
C45	C	1.044562	-0.454823	-0.467846
C46	C	1.544562	0.045177	0.032154
C47	C	1.478659	-0.618175	-0.545553
C48	C	1.978659	-0.118175	-0.045553
C49	C	1.472784	-0.710841	-0.551490
C50	C	1.972784	-0.210841	-0.051490
C51	C	1.523357	-0.921785	-0.501184
C52	C	2.023357	-0.421785	-0.001184
C53	C	1.462075	-0.880497	-0.562341
C54	C	1.962075	-0.380497	-0.062341
C55	C	1.468035	-0.786091	-0.556301
C56	C	1.968035	-0.286091	-0.056301
C57	C	1.517398	-1.016199	-0.507221
C58	C	2.017398	-0.516199	-0.007221
C59	C	1.766651	-0.401582	-0.531773
C60	C	2.266651	0.098418	-0.031773
C61	C	1.883427	-0.401588	-0.531780
C62	C	2.383427	0.098412	-0.031780
C63	C	1.492700	-0.401485	-0.805785
C64	C	1.992700	0.098515	-0.305785
C65	C	1.492735	-0.401450	-0.922559
C66	C	1.992735	0.098550	-0.422559
C67	C	1.506661	-0.184113	-0.517930
C68	C	2.006661	0.315887	-0.017930
C69	C	1.512646	-0.091447	-0.512038
C70	C	2.012646	0.408553	-0.012038
C71	C	1.563404	-0.348091	-1.083765
C72	C	2.063404	0.151909	-0.583765
C73	C	1.563382	-0.348123	-0.974043
C74	C	2.063382	0.151877	-0.474043
C75	C	1.422114	-0.454753	-0.980804
C76	C	1.922114	0.045247	-0.480804
C77	C	1.422142	-0.454724	-1.090524
C78	C	1.922142	0.045276	-0.590524
C79	C	1.492602	-0.401588	-0.258791
C80	C	1.992602	0.098412	0.241209
C81	C	1.492786	-0.401389	-0.142002
C82	C	1.992786	0.098611	0.357998
H83	H	0.887347	-0.498197	-0.415823
H84	H	1.387347	0.001803	0.084177
H85	H	0.899898	-0.304969	-0.647726
H86	H	1.399898	0.195031	-0.147726
H87	H	1.086416	-0.498183	-0.415794
H88	H	1.586416	0.001817	0.084206
H89	H	1.580293	-0.886236	-0.444293
H90	H	2.080293	-0.386236	0.055707
H91	H	1.364634	-0.498130	-1.137942
H92	H	1.864634	0.001870	-0.637942
H93	H	1.405134	-0.916050	-0.619234
H94	H	1.905134	-0.416050	-0.119234
H95	H	1.098946	-0.304952	-0.647714
H96	H	1.598946	0.195048	-0.147714
H97	H	1.620926	-0.304661	-1.125675
H98	H	2.120926	0.195339	-0.625675
H99	H	1.620887	-0.304724	-0.926632
H100	H	2.120887	0.195276	-0.426632
H101	H	1.364596	-0.498176	-0.938878
H102	H	1.864596	0.001824	-0.438878
