data_functionalizedCrystal
_audit_creation_method	'MofGen! by Chris Wilmer'
_symmetry_space_group_name_H-M	'P1'
_symmetry_Int_Tables_number	1
_symmetry_cell_setting	triclinic
loop_
_symmetry_equiv_pos_as_xyz
  x,y,z
_cell_length_a	19.188905
_cell_length_b	23.532407
_cell_length_c	17.666332
_cell_angle_alpha	89.988854
_cell_angle_beta	89.983521
_cell_angle_gamma	82.991616
loop_
_atom_site_label
_atom_site_type_symbol
_atom_site_fract_x
_atom_site_fract_y
_atom_site_fract_z
O1	O	0.925934	0.071034	-0.063081
O2	O	1.425934	0.571034	0.436919
O3	O	0.722590	0.080620	-0.063056
O4	O	1.222590	0.580620	0.436944
O5	O	0.830394	-0.007092	-0.063055
O6	O	1.330394	0.492908	0.436945
O7	O	0.818130	0.158746	-0.063081
O8	O	1.318130	0.658746	0.436919
O9	O	0.830375	-0.007096	0.062842
O10	O	1.330375	0.492904	0.562842
O11	O	0.722571	0.080616	0.062841
O12	O	1.222571	0.580616	0.562841
O13	O	0.925915	0.071030	0.062816
O14	O	1.425915	0.571030	0.562816
Cu15	Cu	0.824241	0.075822	0.074324
Cu16	Cu	1.324241	0.575822	0.574324
Cu17	Cu	0.824264	0.075828	-0.074564
Cu18	Cu	1.324264	0.575828	0.425436
O19	O	0.818111	0.158742	0.062815
O20	O	1.318111	0.658742	0.562815
C21	C	0.696570	0.080310	-0.000104
C22	C	1.196570	0.580310	0.499896
C23	C	0.619067	0.079385	-0.000094
C24	C	1.119067	0.579385	0.499906
C25	C	0.582687	0.078944	-0.068722
C26	C	1.082687	0.578944	0.431278
C27	C	0.509866	0.078068	-0.068732
C28	C	1.009866	0.578068	0.431268
C29	C	0.473430	0.077623	-0.000109
C30	C	0.973430	0.577623	0.499891
C31	C	0.509819	0.078068	0.068529
C32	C	1.009819	0.578068	0.568529
C33	C	0.582637	0.078949	0.068536
C34	C	1.082637	0.578949	0.568536
N35	N	0.364510	0.043829	0.050966
N36	N	0.864510	0.543829	0.550966
N37	N	0.295336	0.042991	0.050954
N38	N	0.795336	0.542991	0.550954
C39	C	0.254032	0.074970	-0.000127
C40	C	0.754032	0.574970	0.499873
N41	N	0.284517	0.107812	-0.051207
N42	N	0.784517	0.607812	0.448793
N43	N	0.353698	0.108648	-0.051197
N44	N	0.853698	0.608648	0.448803
C45	C	0.394471	0.076668	-0.000109
C46	C	0.894471	0.576668	0.499891
C47	C	0.138691	0.073580	-0.068770
C48	C	0.638691	0.573580	0.431230
C49	C	0.065869	0.072709	-0.068776
C50	C	0.565869	0.572709	0.431224
C51	C	0.065823	0.072703	0.068486
C52	C	0.565823	0.572703	0.568486
C53	C	0.138644	0.073580	0.068491
C54	C	0.638644	0.573580	0.568491
C55	C	0.175074	0.074016	-0.000139
C56	C	0.675074	0.574016	0.499861
C57	C	0.830072	-0.028311	-0.000105
C58	C	1.330072	0.471689	0.499895
C59	C	0.829133	-0.091530	-0.000099
C60	C	1.329133	0.408470	0.499901
C61	C	0.887040	-0.490514	-0.000147
C62	C	1.387040	0.009486	0.499853
C63	C	0.886168	-0.549916	-0.000153
C64	C	1.386168	-0.049916	0.499847
O65	O	0.939848	-0.586551	-0.000188
O66	O	1.439848	-0.086551	0.499812
N67	N	0.822078	-0.572674	-0.000145
N68	N	1.322078	-0.072674	0.499855
C69	C	0.758857	-0.536026	-0.000138
C70	C	1.258857	-0.036026	0.499862
O71	O	0.704264	-0.560837	-0.000132
O72	O	1.204264	-0.060837	0.499868
C73	C	0.759730	-0.476625	-0.000138
C74	C	1.259730	0.023375	0.499862
C75	C	0.823824	-0.453871	-0.000139
C76	C	1.323824	0.046129	0.499861
C77	C	0.951129	-0.467759	-0.000149
C78	C	1.451129	0.032241	0.499851
C79	C	0.952000	-0.408362	-0.000142
C80	C	1.452000	0.091638	0.499858
C81	C	0.888784	-0.371718	-0.000133
C82	C	1.388784	0.128282	0.499867
C83	C	0.824696	-0.394473	-0.000132
C84	C	1.324696	0.105527	0.499868
C85	C	0.696509	-0.439978	-0.000137
C86	C	1.196509	0.060022	0.499863
C87	C	0.697388	-0.380574	-0.000138
C88	C	1.197388	0.119426	0.499862
C89	C	0.761482	-0.357820	-0.000138
C90	C	1.261482	0.142180	0.499862
C91	C	0.762351	-0.298432	-0.000116
C92	C	1.262351	0.201568	0.499884
N93	N	0.826440	-0.275674	-0.000125
N94	N	1.326440	0.224326	0.499875
C95	C	0.889657	-0.312317	-0.000133
C96	C	1.389657	0.187683	0.499867
C97	C	0.757029	-0.660772	-0.000140
C98	C	1.257029	-0.160772	0.499860
C99	C	0.756155	-0.720172	-0.000135
C100	C	1.256155	-0.220172	0.499865
C101	C	0.883466	-0.734058	-0.000151
C102	C	1.383466	-0.234058	0.499849
C103	C	0.884339	-0.674657	-0.000151
C104	C	1.384339	-0.174657	0.499849
C105	C	0.821118	-0.638014	-0.000149
C106	C	1.321118	-0.138014	0.499851
C107	C	0.891483	-0.187577	-0.000118
C108	C	1.391483	0.312423	0.499882
C109	C	0.892350	-0.128173	-0.000107
C110	C	1.392350	0.371827	0.499893
C111	C	0.765039	-0.114292	-0.000095
C112	C	1.265039	0.385708	0.499905
C113	C	0.764172	-0.173691	-0.000102
C114	C	1.264172	0.326309	0.499898
C115	C	0.827400	-0.210332	-0.000115
C116	C	1.327400	0.289668	0.499885
O117	O	0.708699	-0.261762	-0.000085
O118	O	1.208699	0.238238	0.499915
O119	O	0.944241	-0.287498	-0.000149
O120	O	1.444241	0.212502	0.499851
C121	C	0.951935	0.071340	-0.000137
C122	C	1.451935	0.571340	0.499863
C123	C	1.029437	0.072265	-0.000152
C124	C	1.529437	0.572265	0.499848
C125	C	0.818433	0.179961	-0.000137
C126	C	1.318433	0.679961	0.499863
C127	C	0.819372	0.243180	-0.000148
C128	C	1.319372	0.743180	0.499852
N129	N	0.824231	0.075818	0.179043
N130	N	1.324231	0.575818	0.679043
N131	N	0.824280	0.075827	-0.179283
N132	N	1.324280	0.575827	0.320717
C133	C	0.871982	0.036998	0.218653
C134	C	1.371982	0.536998	0.718653
C135	C	0.871986	0.036995	0.297901
C136	C	1.371986	0.536995	0.797901
C137	C	0.824246	0.075822	0.337535
C138	C	1.324246	0.575822	0.837535
C139	C	0.776486	0.114645	0.297916
C140	C	1.276486	0.614645	0.797916
C141	C	0.776478	0.114643	0.218670
C142	C	1.276478	0.614643	0.718670
N143	N	0.815008	0.126238	0.461947
N144	N	1.315008	0.626238	0.961947
N145	N	0.815020	0.126238	0.537227
N146	N	1.315020	0.626238	1.037227
C147	C	0.824264	0.075830	0.576299
C148	C	1.324264	0.575830	1.076299
N149	N	0.833510	0.025420	0.537247
N150	N	1.333510	0.525420	1.037247
N151	N	0.833503	0.025421	0.461960
N152	N	1.333503	0.525421	0.961960
C153	C	0.824248	0.075829	0.423465
C154	C	1.324248	0.575829	0.923465
C155	C	0.872022	0.037004	0.701839
C156	C	1.372022	0.537004	1.201839
C157	C	0.872021	0.037001	0.781088
C158	C	1.372021	0.537001	1.281088
C159	C	0.776524	0.114656	0.781101
C160	C	1.276524	0.614656	1.281101
C161	C	0.776522	0.114654	0.701854
C162	C	1.276522	0.614654	1.201854
C163	C	0.824274	0.075829	0.662227
C164	C	1.324274	0.575829	1.162227
H165	H	0.480240	0.077710	-0.124619
H166	H	0.980240	0.577710	0.375381
H167	H	0.910872	0.005382	0.330157
H168	H	1.410872	0.505382	0.830157
H169	H	0.703964	-0.738692	-0.000121
H170	H	1.203964	-0.238692	0.499879
H171	H	0.737651	0.146267	0.813371
H172	H	1.237651	0.646267	1.313371
C173	C	0.962860	-0.103148	-0.000110
C174	C	1.462860	0.396852	0.499890
N175	N	1.015968	-0.084301	-0.000115
N176	N	1.515968	0.415699	0.499885
H177	H	0.910863	0.005383	0.186392
H178	H	1.410863	0.505383	0.686392
H179	H	0.036249	0.072353	-0.124664
H180	H	0.536249	0.572353	0.375336
C181	C	0.627838	-0.340270	-0.000132
C182	C	1.127838	0.159730	0.499868
N183	N	0.575453	-0.309914	-0.000126
N184	N	1.075453	0.190086	0.499874
C185	C	0.924544	-0.005709	0.658247
C186	C	1.424544	0.494291	1.158247
N187	N	0.964102	-0.037882	0.625416
N188	N	1.464102	0.462118	1.125416
H189	H	0.705543	-0.630940	-0.000132
H190	H	1.205543	-0.130940	0.499868
C191	C	0.961037	-0.227874	-0.000126
C192	C	1.461037	0.272126	0.499874
N193	N	1.013426	-0.258226	-0.000125
N194	N	1.513426	0.241774	0.499875
C195	C	0.724042	0.157401	0.658281
C196	C	1.224042	0.657401	1.158281
N197	N	0.684526	0.189613	0.625462
N198	N	1.184526	0.689613	1.125462
H199	H	0.036157	0.072344	0.124360
H200	H	0.536157	0.572344	0.624360
C201	C	0.954846	-0.649634	-0.000158
C202	C	1.454846	-0.149634	0.499842
N203	N	1.007955	-0.630789	-0.000167
N204	N	1.507955	-0.130789	0.499833
C205	C	0.695504	-0.073973	-0.000091
C206	C	1.195504	0.426027	0.499909
N207	N	0.643130	-0.043603	-0.000095
N208	N	1.143130	0.456397	0.499905
C209	C	1.022509	-0.383341	-0.000151
C210	C	1.522509	0.116659	0.499849
N211	N	1.075620	-0.364499	-0.000161
N212	N	1.575620	0.135501	0.499839
H213	H	1.002610	-0.497589	-0.000159
H214	H	1.502610	0.002411	0.499841
C215	C	0.723968	0.157353	0.341515
C216	C	1.223968	0.657353	0.841515
N217	N	0.684408	0.189520	0.374354
N218	N	1.184408	0.689520	0.874354
H219	H	0.612344	0.079299	-0.124606
H220	H	1.112344	0.579299	0.375394
C221	C	0.953006	-0.774377	-0.000168
C222	C	1.453006	-0.274377	0.499832
N223	N	1.005380	-0.804747	-0.000183
N224	N	1.505380	-0.304747	0.499817
H225	H	0.644318	-0.458493	-0.000141
H226	H	1.144318	0.041507	0.499859
H227	H	0.168353	0.073941	-0.124652
H228	H	0.668353	0.573941	0.375348
C229	C	0.693666	-0.198721	-0.000096
C230	C	1.193666	0.301279	0.499904
N231	N	0.640560	-0.217569	-0.000100
N232	N	1.140560	0.282431	0.499900
H233	H	0.737593	0.146256	0.186419
H234	H	1.237593	0.646256	0.686419
C235	C	0.178665	0.074058	0.143988
C236	C	0.678665	0.574058	0.643988
N237	N	0.208808	0.074418	0.200857
N238	N	0.708808	0.574418	0.700857
H239	H	0.612258	0.079310	0.124423
H240	H	1.112258	0.579310	0.624423
C241	C	0.469738	0.077578	0.144014
C242	C	0.969738	0.577578	0.644014
N243	N	0.439549	0.077210	0.200872
N244	N	0.939549	0.577210	0.700872
C245	C	0.924542	-0.005717	0.824659
C246	C	1.424542	0.494283	1.324659
N247	N	0.964099	-0.037895	0.857477
N248	N	1.464099	0.462105	1.357477
