data_functionalizedCrystal
_audit_creation_method	'MofGen! by Chris Wilmer'
_symmetry_space_group_name_H-M	'P1'
_symmetry_Int_Tables_number	1
_symmetry_cell_setting	triclinic
loop_
_symmetry_equiv_pos_as_xyz
  x,y,z
_cell_length_a	19.288864
_cell_length_b	13.101039
_cell_length_c	19.288857
_cell_angle_alpha	86.651623
_cell_angle_beta	83.134677
_cell_angle_gamma	93.359745
loop_
_atom_site_label
_atom_site_type_symbol
_atom_site_fract_x
_atom_site_fract_y
_atom_site_fract_z
O1	O	0.925194	0.085549	0.082787
O2	O	0.722930	0.085480	0.094479
O3	O	0.829909	0.085504	-0.012497
O4	O	0.818215	0.085525	0.189763
O5	O	0.822233	-0.084927	-0.004809
O6	O	0.715254	-0.084952	0.102167
O7	O	0.917518	-0.084882	0.090475
Zn8	Zn	0.815168	-0.111977	0.097542
Zn9	Zn	0.825281	0.112574	0.087413
O10	O	0.810540	-0.084907	0.197452
C11	C	0.693215	0.000255	0.097948
C12	C	0.616111	0.000228	0.096820
N13	N	0.808271	-0.265227	0.104455
C14	C	0.571414	0.000250	0.159587
C15	C	0.498967	0.000262	0.158526
C16	C	0.471222	0.000271	0.094693
C17	C	0.515928	0.000243	0.031918
C18	C	0.588373	0.000221	0.032981
C19	C	0.365652	0.060010	0.041819
C20	C	0.293208	0.060038	0.040758
C21	C	0.247779	0.000333	0.091410
C22	C	0.274801	-0.059387	0.143136
C23	C	0.347245	-0.059409	0.144199
C24	C	0.392669	0.000294	0.093533
C25	C	0.124526	0.000366	0.153031
C26	C	0.052079	0.000371	0.151968
C27	C	0.069042	0.000362	0.025358
C28	C	0.141488	0.000347	0.026423
C29	C	0.169226	0.000354	0.090262
C30	C	0.798888	-0.474272	0.113866
C31	C	0.841564	-0.525138	0.071086
C32	C	0.836343	-0.641457	0.076322
C33	C	0.804108	-0.357942	0.108630
C34	C	0.947233	0.000345	0.087007
C35	C	1.024338	0.000378	0.088134
C36	C	0.825696	0.000287	-0.034529
C37	C	0.824568	0.000284	-0.111633
N38	N	0.832183	0.265824	0.080494
C39	C	0.828227	0.093186	-0.152035
C40	C	0.827158	0.093193	-0.224481
C41	C	0.822446	0.000293	-0.256525
C42	C	0.818783	-0.092621	-0.216114
C43	C	0.819845	-0.092626	-0.143668
C44	C	0.858243	-0.070861	-0.373546
C45	C	0.857186	-0.070852	-0.445992
C46	C	0.819168	0.000304	-0.479971
C47	C	0.782218	0.071468	-0.441498
C48	C	0.783279	0.071463	-0.369052
C49	C	0.821294	0.000288	-0.335079
C50	C	0.821667	0.093220	-0.598927
C51	C	0.820594	0.093224	-0.671374
C52	C	0.812226	-0.092594	-0.663006
C53	C	0.813292	-0.092595	-0.590560
C54	C	0.818016	0.000315	-0.558525
C55	C	0.814753	0.000312	0.219484
C56	C	0.815880	0.000322	0.296587
H57	H	0.593993	0.000258	0.211569
H58	H	0.830133	0.168848	-0.257381
F59	F	0.376002	-0.122968	0.199245
F60	F	0.833251	0.192070	-0.117945
H61	H	0.753191	0.129406	-0.337731
F62	F	0.413995	0.123560	-0.012097
F63	F	0.486399	0.000248	-0.036017
F64	F	0.004508	0.000389	0.218777
F65	F	0.746011	-0.531531	0.166876
H66	H	0.046456	0.000433	-0.026619
F67	F	0.741751	0.147200	-0.477655
F68	F	0.189060	0.000328	-0.040383
H69	H	0.825510	0.168873	-0.572843
H70	H	0.823570	0.168879	-0.704268
H71	H	0.462568	0.000277	0.209640
F72	F	0.807207	-0.191466	-0.697104
H73	H	0.882022	-0.481326	0.030528
H74	H	0.810319	-0.168246	-0.557665
H75	H	0.887276	-0.128795	-0.477311
F76	F	0.226457	-0.122934	0.197049
F77	F	0.815950	-0.191510	-0.100668
H78	H	0.889200	-0.128812	-0.345886
H79	H	0.624766	0.000203	-0.018133
H80	H	0.271213	0.108669	-0.001357
F81	F	0.154049	0.000365	0.220973
F82	F	0.813763	-0.191492	-0.250217
