data_functionalizedCrystal
_audit_creation_method	'MofGen! by Chris Wilmer'
_symmetry_space_group_name_H-M	'P1'
_symmetry_Int_Tables_number	1
_symmetry_cell_setting	triclinic
loop_
_symmetry_equiv_pos_as_xyz
  x,y,z
_cell_length_a	13.635800
_cell_length_b	11.168121
_cell_length_c	17.982968
_cell_angle_alpha	85.739329
_cell_angle_beta	102.451960
_cell_angle_gamma	71.491504
loop_
_atom_site_label
_atom_site_type_symbol
_atom_site_fract_x
_atom_site_fract_y
_atom_site_fract_z
V1	V	2.020431	-0.175887	0.237555
O2	O	2.000881	0.007235	0.233026
O3	O	2.008810	-0.347585	0.235936
O4	O	1.993525	-0.173716	0.341158
O5	O	2.016271	-0.167837	0.127076
V6	V	2.260965	-0.153921	0.224340
O7	O	2.153751	-0.224073	0.266543
O8	O	2.352743	-0.105735	0.195352
O9	O	2.160983	0.017776	0.225958
O10	O	2.339213	-0.337043	0.228869
O11	O	2.323823	-0.161971	0.334818
O12	O	2.176267	-0.156092	0.120737
V13	V	2.520431	-0.175887	0.237555
O14	O	2.500881	0.007235	0.233026
O15	O	2.508810	-0.347585	0.235936
O16	O	2.493525	-0.173716	0.341158
O17	O	2.516271	-0.167837	0.127076
V18	V	2.760965	-0.153921	0.224340
O19	O	2.653751	-0.224073	0.266543
O20	O	2.852743	-0.105735	0.195352
O21	O	2.660983	0.017776	0.225958
O22	O	2.839213	-0.337043	0.228869
O23	O	2.823823	-0.161971	0.334818
O24	O	2.676267	-0.156092	0.120737
C25	C	1.934458	-0.389424	0.232190
C26	C	1.965581	-0.529792	0.231558
C27	C	2.066352	-0.598501	0.234889
C28	C	2.098522	-0.743579	0.234235
C29	C	1.914960	-0.167636	0.366410
C30	C	1.933687	-0.166996	0.451106
C31	C	2.067007	0.059609	0.229702
C32	C	2.025502	0.199976	0.230340
C33	C	2.086504	-0.162177	0.095481
C34	C	2.057396	-0.162810	0.010784
C35	C	2.434458	-0.389424	0.232190
C36	C	2.465581	-0.529792	0.231558
C37	C	2.414960	-0.167636	0.366410
C38	C	2.433687	-0.166996	0.451106
C39	C	2.033909	-0.173023	0.494778
C40	C	2.051498	-0.172422	0.574358
C41	C	1.968867	-0.165802	0.610267
C42	C	1.868637	-0.159771	0.566588
C43	C	1.851046	-0.160363	0.487008
C44	C	1.939575	-0.157380	0.887525
C45	C	1.957175	-0.156791	0.967112
C46	C	2.140028	-0.169438	0.974875
C47	C	2.122437	-0.170031	0.895295
C48	C	2.022207	-0.163993	0.851624
C49	C	2.003134	-0.164642	0.765333
C50	C	1.987941	-0.165161	0.696556
C51	C	2.567007	0.059609	0.229702
C52	C	2.525502	0.199976	0.230340
C53	C	2.586504	-0.162177	0.095481
C54	C	2.557396	-0.162810	0.010784
C55	C	2.533913	-0.173011	0.494764
C56	C	2.551519	-0.172394	0.574344
C57	C	2.468900	-0.165771	0.610265
C58	C	2.368665	-0.159752	0.566601
C59	C	2.351058	-0.160360	0.487022
C60	C	2.457783	-0.169418	-0.025118
C61	C	2.430414	-0.169998	-0.104700
C62	C	2.502663	-0.163978	-0.148379
C63	C	2.602283	-0.157365	-0.112472
C64	C	2.629647	-0.156776	-0.032892
C65	C	2.566352	-0.598501	0.234889
C66	C	2.598522	-0.743579	0.234235
H67	H	2.128810	-0.549921	0.238230
C68	C	2.347593	-0.800249	0.222759
C69	C	2.408956	-0.720308	0.226488
H70	H	2.275641	-0.751025	0.220376
H71	H	2.375387	-0.863712	0.267317
H72	H	2.350124	-0.840208	0.178046
H73	H	2.406433	-0.680355	0.271204
H74	H	2.381155	-0.656822	0.181925
H75	H	2.184846	-0.802642	0.237079
H76	H	1.939172	-0.740966	0.227485
H77	H	1.903126	-0.578374	0.228226
H78	H	2.483251	-0.165277	0.675064
C79	C	2.474368	-0.052300	-0.274766
C80	C	2.472577	-0.164638	-0.235854
H81	H	2.455785	-0.052711	-0.328768
H82	H	2.544030	-0.047508	-0.259643
H83	H	2.424487	0.019508	-0.262285
H84	H	2.522464	-0.236445	-0.248330
H85	H	2.402905	-0.169442	-0.250983
H86	H	2.349294	-0.175382	-0.133924
C87	C	2.707062	-0.259829	-0.196215
C88	C	2.681697	-0.150763	-0.160489
H89	H	2.756095	-0.255760	-0.225855
H90	H	2.643817	-0.263835	-0.228977
H91	H	2.738495	-0.333858	-0.158036
H92	H	2.650258	-0.076733	-0.198668
H93	H	2.744955	-0.146744	-0.127724
C94	C	2.711060	-0.293056	0.487147
C95	C	2.624739	-0.180284	0.455291
H96	H	2.767136	-0.297534	0.462783
H97	H	2.688728	-0.364561	0.479470
H98	H	2.735867	-0.293540	0.540790
H99	H	2.599927	-0.179804	0.401648
H100	H	2.647073	-0.108760	0.462961
H101	H	2.101201	-0.178422	0.465548
H102	H	2.133105	-0.177323	0.609912
H103	H	2.628810	-0.549921	0.238230
H104	H	2.633142	-0.177300	0.609885
C105	C	2.299583	-0.290087	0.887679
C106	C	2.213270	-0.177305	0.855829
H107	H	2.355661	-0.294568	0.863317
H108	H	2.277243	-0.361585	0.879996
H109	H	2.324391	-0.290582	0.941324
H110	H	2.188456	-0.176814	0.802184
H111	H	2.235612	-0.105788	0.863505
H112	H	2.301402	-0.154360	0.595861
H113	H	2.221640	-0.174349	1.010442
C114	C	2.251926	-0.262925	0.403367
C115	C	2.240893	-0.153827	0.439061
H116	H	2.183913	-0.258903	0.373765
H117	H	2.280756	-0.336928	0.441555
H118	H	2.298581	-0.266919	0.370565
H119	H	2.194244	-0.149837	0.471868
H120	H	2.212048	-0.079804	0.400869
C121	C	2.283849	-0.070872	-0.004268
C122	C	2.378351	-0.176020	0.022884
H123	H	2.234809	-0.074940	0.025366
H124	H	2.253313	-0.072180	-0.056796
H125	H	2.299336	0.005816	0.000223
H126	H	2.362865	-0.252709	0.018387
H127	H	2.408892	-0.174724	0.075425
H128	H	2.710765	-0.151402	-0.003666
C129	C	2.718752	-0.882197	0.172168
C130	C	2.715063	-0.823302	0.238081
H131	H	2.790703	-0.931421	0.174545
H132	H	2.690959	-0.818716	0.127619
H133	H	2.677109	-0.936414	0.169648
H134	H	2.756700	-0.769077	0.240598
H135	H	2.742871	-0.886791	0.282643
H136	H	1.889880	-0.151398	0.996345
H137	H	2.403126	-0.578374	0.228226
H138	H	1.801357	-0.154374	0.595830
C139	C	1.831481	-0.152969	0.762122
C140	C	1.829460	-0.150966	0.839548
H141	H	1.763509	-0.149065	0.732508
H142	H	1.884368	-0.229610	0.757683
H143	H	1.847917	-0.081574	0.743664
H144	H	1.813031	-0.222366	0.858008
H145	H	1.776556	-0.074316	0.843991
H146	H	1.769429	-0.155424	0.451448
