data_functionalizedCrystal
_audit_creation_method	'MofGen! by Chris Wilmer'
_symmetry_space_group_name_H-M	'P1'
_symmetry_Int_Tables_number	1
_symmetry_cell_setting	triclinic
loop_
_symmetry_equiv_pos_as_xyz
  x,y,z
_cell_length_a	12.811457
_cell_length_b	13.262508
_cell_length_c	11.892095
_cell_angle_alpha	109.778227
_cell_angle_beta	91.498327
_cell_angle_gamma	82.749985
loop_
_atom_site_label
_atom_site_type_symbol
_atom_site_fract_x
_atom_site_fract_y
_atom_site_fract_z
O1	O	1.386616	0.148016	0.093659
O2	O	1.083020	0.161473	0.066671
O3	O	1.245837	-0.001340	0.033310
O4	O	1.223799	0.310829	0.127020
O5	O	1.232262	0.012214	0.224092
O6	O	1.069445	0.175027	0.257453
O7	O	1.373041	0.161570	0.284441
Zn8	Zn	1.219088	0.170450	0.301238
Zn9	Zn	1.236973	0.152593	0.049874
O10	O	1.210224	0.324383	0.317802
C11	C	1.037434	0.167081	0.157725
C12	C	0.921825	0.163583	0.144797
C13	C	0.689784	0.171769	0.328512
C14	C	0.581159	0.168483	0.316371
C15	C	0.595949	0.153718	0.108372
C16	C	0.704574	0.157004	0.120513
C17	C	0.751487	0.166031	0.230587
C18	C	0.860113	0.169325	0.242730
C19	C	0.874902	0.154552	0.034729
C20	C	0.766277	0.151266	0.022588
C21	C	1.239063	-0.034543	0.116409
C22	C	1.239089	-0.153672	0.079781
C23	C	1.209557	-0.459936	0.392527
C24	C	1.209524	-0.348008	0.426941
C25	C	1.216916	-0.299418	0.340154
C26	C	1.224339	-0.362769	0.218947
C27	C	1.224364	-0.474707	0.184528
C28	C	1.231723	-0.314189	0.132155
C29	C	1.239146	-0.377539	0.010948
C30	C	1.239171	-0.489467	-0.023465
C31	C	1.231780	-0.538056	0.063322
C32	C	1.231698	-0.202250	0.166574
C33	C	1.246505	-0.217021	-0.041425
C34	C	1.246538	-0.328950	-0.075840
C35	C	1.418628	0.155962	0.193385
C36	C	1.534237	0.159459	0.206305
C37	C	1.216999	0.357586	0.234701
C38	C	1.216973	0.476715	0.271321
N39	N	1.206889	0.182637	0.472788
N40	N	1.249181	0.140397	-0.121678
C41	C	1.334067	0.055534	0.683399
C42	C	1.325548	0.064060	0.803489
C43	C	1.181326	0.208211	0.833057
C44	C	1.189846	0.199684	0.712968
C45	C	1.266220	0.123344	0.638143
C46	C	1.274743	0.114824	0.518053
C47	C	1.130518	0.258969	0.547621
C48	C	1.121998	0.267495	0.667711
H49	H	0.530923	0.173162	0.396114
H50	H	1.216887	-0.208280	0.368182
H51	H	1.231811	-0.629198	0.035308
H52	H	1.203491	-0.296437	0.525629
H53	H	1.059814	0.329647	0.728645
O54	O	0.550286	0.145135	0.001537
C55	C	0.474448	0.235495	0.015439
H56	H	0.493611	0.305486	0.097073
H57	H	0.475234	0.260048	-0.067574
H58	H	0.393177	0.214020	0.028059
O59	O	0.720622	0.142692	-0.084249
C60	C	0.644790	0.233057	-0.070344
H61	H	0.663950	0.303040	0.011299
H62	H	0.645588	0.257620	-0.153350
H63	H	0.563514	0.211584	-0.057740
O64	O	1.408134	-0.018648	0.610550
C65	C	1.358456	-0.090491	0.514931
H66	H	1.277458	-0.050079	0.501358
H67	H	1.408224	-0.112876	0.429915
H68	H	1.349518	-0.166610	0.536196
O69	O	1.107091	0.282215	0.905832
C70	C	1.038894	0.228867	0.950878
H71	H	1.080580	0.146703	0.947589
H72	H	1.015644	0.279424	1.047270
H73	H	0.965313	0.217337	0.894203
H74	H	0.727979	0.179134	0.418143
H75	H	1.252581	-0.380545	-0.174529
O76	O	0.905668	0.177900	0.349618
C77	C	0.888024	0.088876	0.382789
H78	H	0.871870	0.018850	0.299631
H79	H	0.960610	0.063259	0.428836
H80	H	0.817326	0.112531	0.446721
O81	O	0.934682	0.149008	-0.060511
C82	C	0.869981	0.140307	-0.160271
H83	H	0.785475	0.174020	-0.128518
H84	H	0.899012	0.188071	-0.214288
H85	H	0.873137	0.051797	-0.218674
O86	O	1.246255	-0.550871	-0.141252
C87	C	1.160372	-0.516960	-0.201985
H88	H	1.128104	-0.429903	-0.149381
H89	H	1.187486	-0.522365	-0.294618
H90	H	1.096079	-0.571190	-0.211068
O91	O	1.064457	0.324807	0.503753
C92	C	0.959559	0.308150	0.516789
H93	H	0.954214	0.272985	0.591352
H94	H	0.906562	0.388452	0.540103
H95	H	0.933075	0.249547	0.429455
H96	H	1.252516	-0.177460	-0.112095
H97	H	1.225644	-0.150680	0.265261
H98	H	1.203532	-0.499508	0.463175
H99	H	1.336933	0.052667	0.457132
H100	H	1.380794	0.008841	0.840332
