data_functionalizedCrystal
_audit_creation_method	'MofGen! by Chris Wilmer'
_symmetry_space_group_name_H-M	'P1'
_symmetry_Int_Tables_number	1
_symmetry_cell_setting	triclinic
loop_
_symmetry_equiv_pos_as_xyz
  x,y,z
_cell_length_a	18.215407
_cell_length_b	18.215405
_cell_length_c	18.215399
_cell_angle_alpha	90.027541
_cell_angle_beta	90.019833
_cell_angle_gamma	90.023180
loop_
_atom_site_label
_atom_site_type_symbol
_atom_site_fract_x
_atom_site_fract_y
_atom_site_fract_z
Zn1	Zn	1.125083	-0.292983	0.416118
Zn2	Zn	1.375083	-0.042983	0.666118
Zn3	Zn	1.625083	0.207017	0.916118
Zn4	Zn	1.875083	0.457017	1.166118
Zn5	Zn	1.124996	-0.416054	0.293053
Zn6	Zn	1.374996	-0.166054	0.543053
Zn7	Zn	1.624996	0.083946	0.793053
Zn8	Zn	1.874996	0.333946	1.043053
Zn9	Zn	1.002016	-0.293007	0.293065
Zn10	Zn	1.252016	-0.043007	0.543065
Zn11	Zn	1.502016	0.206993	0.793065
Zn12	Zn	1.752016	0.456993	1.043065
Zn13	Zn	1.001986	-0.416013	0.416077
Zn14	Zn	1.251986	-0.166013	0.666077
Zn15	Zn	1.501986	0.083987	0.916077
Zn16	Zn	1.751986	0.333987	1.166077
O17	O	1.063520	-0.354514	0.354578
O18	O	1.313520	-0.104514	0.604578
O19	O	1.563520	0.145486	0.854578
O20	O	1.813520	0.395486	1.104578
O21	O	1.228056	-0.309316	0.399805
O22	O	1.478056	-0.059316	0.649805
O23	O	1.728056	0.190684	0.899805
O24	O	1.978056	0.440684	1.149805
O25	O	1.108658	-0.399759	0.190070
O26	O	1.358658	-0.149759	0.440070
O27	O	1.608658	0.100241	0.690070
O28	O	1.858658	0.350241	0.940070
O29	O	1.018389	-0.190020	0.309411
O30	O	1.268389	0.059980	0.559411
O31	O	1.518389	0.309980	0.809411
O32	O	1.768389	0.559980	1.059411
O33	O	1.227992	-0.399736	0.309389
O34	O	1.477992	-0.149736	0.559389
O35	O	1.727992	0.100264	0.809389
O36	O	1.977992	0.350264	1.059389
O37	O	1.108807	-0.190002	0.399817
O38	O	1.358807	0.059998	0.649817
O39	O	1.608807	0.309998	0.899817
O40	O	1.858807	0.559998	1.149817
O41	O	1.018305	-0.309357	0.190079
O42	O	1.268305	-0.059357	0.440079
O43	O	1.518305	0.190643	0.690079
O44	O	1.768305	0.440643	0.940079
O45	O	0.899027	-0.309317	0.309372
O46	O	1.149027	-0.059317	0.559372
O47	O	1.399027	0.190683	0.809372
O48	O	1.649027	0.440683	1.059372
O49	O	1.018339	-0.399666	0.519067
O50	O	1.268339	-0.149666	0.769067
O51	O	1.518339	0.100334	1.019067
O52	O	1.768339	0.350334	1.269067
O53	O	0.899006	-0.399689	0.399748
O54	O	1.149006	-0.149689	0.649748
O55	O	1.399006	0.100311	0.899748
O56	O	1.649006	0.350311	1.149748
O57	O	1.108778	-0.309276	0.519097
O58	O	1.358778	-0.059276	0.769097
O59	O	1.608778	0.190724	1.019097
O60	O	1.858778	0.440724	1.269097
O61	O	1.108630	-0.519033	0.309350
O62	O	1.358630	-0.269033	0.559350
O63	O	1.608630	-0.019033	0.809350
O64	O	1.858630	0.230967	1.059350
O65	O	1.018255	-0.519003	0.399736
O66	O	1.268255	-0.269003	0.649736
O67	O	1.518255	-0.019003	0.899736
O68	O	1.768255	0.230997	1.149736
C69	C	0.872314	-0.354502	0.354557
C70	C	1.122314	-0.104502	0.604557
C71	C	1.372314	0.145498	0.854557
C72	C	1.622314	0.395498	1.104557
C73	C	0.790515	-0.354514	0.354566
C74	C	1.040515	-0.104514	0.604566
C75	C	1.290515	0.145486	0.854566
C76	C	1.540515	0.395486	1.104566
C77	C	0.602329	-0.401645	0.401566
C78	C	0.852329	-0.151645	0.651566
C79	C	1.102329	0.098355	0.901566
C80	C	1.352329	0.348355	1.151566
C81	C	0.525470	-0.401647	0.401575
C82	C	0.775470	-0.151647	0.651575
C83	C	1.025470	0.098353	0.901575
C84	C	1.275470	0.348353	1.151575
C85	C	0.525463	-0.307397	0.307607
C86	C	0.775463	-0.057397	0.557607
C87	C	1.025463	0.192603	0.807607
C88	C	1.275463	0.442603	1.057607
C89	C	0.602321	-0.307392	0.307602
C90	C	0.852321	-0.057392	0.557602
C91	C	1.102321	0.192608	0.807602
C92	C	1.352321	0.442608	1.057602
C93	C	0.640751	-0.354520	0.354580
C94	C	0.890751	-0.104520	0.604580
C95	C	1.140751	0.145480	0.854580
C96	C	1.390751	0.395480	1.104580
C97	C	0.487035	-0.354528	0.354594
C98	C	0.737035	-0.104528	0.604594
C99	C	0.987035	0.145472	0.854594
C100	C	1.237035	0.395472	1.104594
C101	C	0.403702	-0.354530	0.354604
C102	C	0.653702	-0.104530	0.604604
C103	C	0.903702	0.145470	0.854604
C104	C	1.153702	0.395470	1.104604
C105	C	0.724090	-0.354517	0.354572
C106	C	0.974090	-0.104517	0.604572
C107	C	1.224090	0.145483	0.854572
C108	C	1.474090	0.395483	1.104572
C109	C	1.063450	-0.545721	0.354553
C110	C	1.313450	-0.295721	0.604553
C111	C	1.563450	-0.045721	0.854553
C112	C	1.813450	0.204279	1.104553
C113	C	1.063487	-0.627520	0.354567
C114	C	1.313487	-0.377520	0.604567
C115	C	1.563487	-0.127520	0.854567
C116	C	1.813487	0.122480	1.104567
C117	C	1.110589	-0.815643	0.401705
C118	C	1.360589	-0.565643	0.651705
C119	C	1.610589	-0.315643	0.901705
C120	C	1.860589	-0.065643	1.151705
C121	C	1.110616	-0.892502	0.401719
C122	C	1.360616	-0.642502	0.651719
C123	C	1.610616	-0.392502	0.901719
C124	C	1.860616	-0.142502	1.151719
C125	C	1.016542	-0.892634	0.307497
C126	C	1.266542	-0.642634	0.557497
C127	C	1.516542	-0.392634	0.807497
C128	C	1.766542	-0.142634	1.057497
C129	C	1.016512	-0.815776	0.307488
C130	C	1.266512	-0.565776	0.557488
C131	C	1.516512	-0.315776	0.807488
C132	C	1.766512	-0.065776	1.057488
C133	C	1.063540	-0.777283	0.354590
C134	C	1.313540	-0.527283	0.604590
C135	C	1.563540	-0.277283	0.854590
C136	C	1.813540	-0.027283	1.104590
C137	C	1.063597	-0.930999	0.354614
C138	C	1.313597	-0.680999	0.604614
C139	C	1.563597	-0.430999	0.854614
C140	C	1.813597	-0.180999	1.104614
C141	C	1.063625	-1.014333	0.354628
C142	C	1.313625	-0.764333	0.604628
C143	C	1.563625	-0.514333	0.854628
C144	C	1.813625	-0.264333	1.104628
C145	C	1.063511	-0.693944	0.354577
C146	C	1.313511	-0.443944	0.604577
C147	C	1.563511	-0.193944	0.854577
C148	C	1.813511	0.056056	1.104577
C149	C	1.255473	-0.354528	0.354600
C150	C	1.505473	-0.104528	0.604600
C151	C	1.755473	0.145472	0.854600
C152	C	2.005473	0.395472	1.104600
C153	C	1.337272	-0.354533	0.354609
C154	C	1.587272	-0.104533	0.604609
C155	C	1.837272	0.145467	0.854609
C156	C	2.087272	0.395467	1.104609
C157	C	1.063565	-0.354464	0.546531
C158	C	1.313565	-0.104464	0.796531
C159	C	1.563565	0.145536	1.046531
C160	C	1.813565	0.395536	1.296531
C161	C	1.063584	-0.354442	0.628330
C162	C	1.313584	-0.104442	0.878330
C163	C	1.563584	0.145558	1.128330
C164	C	1.813584	0.395558	1.378330
C165	C	1.063611	-0.162561	0.354620
C166	C	1.313611	0.087439	0.604620
C167	C	1.563611	0.337439	0.854620
C168	C	1.813611	0.587439	1.104620
C169	C	1.063650	-0.080763	0.354638
C170	C	1.313650	0.169237	0.604638
C171	C	1.563650	0.419237	0.854638
C172	C	1.813650	0.669237	1.104638
C173	C	1.063518	-0.354512	0.163372
C174	C	1.313518	-0.104512	0.413372
C175	C	1.563518	0.145488	0.663372
C176	C	1.813518	0.395488	0.913372
C177	C	1.063641	-0.354326	0.081574
C178	C	1.313641	-0.104326	0.331574
C179	C	1.563641	0.145674	0.581574
C180	C	1.813641	0.395674	0.831574
C181	C	1.110692	-0.307332	0.816541
C182	C	1.360692	-0.057332	1.066541
C183	C	1.610692	0.192668	1.316541
C184	C	1.860692	0.442668	1.566541
C185	C	1.110701	-0.307311	0.893400
C186	C	1.360701	-0.057311	1.143400
C187	C	1.610701	0.192689	1.393400
C188	C	1.860701	0.442689	1.643400
C189	C	1.016528	-0.401438	0.893358
C190	C	1.266528	-0.151438	1.143358
C191	C	1.516528	0.098562	1.393358
C192	C	1.766528	0.348562	1.643358
C193	C	1.016516	-0.401455	0.816500
C194	C	1.266516	-0.151455	1.066500
C195	C	1.516516	0.098545	1.316500
C196	C	1.766516	0.348545	1.566500
C197	C	1.063602	-0.354403	0.778094
C198	C	1.313602	-0.104403	1.028094
C199	C	1.563602	0.145597	1.278094
C200	C	1.813602	0.395597	1.528094
C201	C	1.063623	-0.354365	0.931810
C202	C	1.313623	-0.104365	1.181810
C203	C	1.563623	0.145635	1.431810
C204	C	1.813623	0.395635	1.681810
C205	C	1.063632	-0.354342	1.015144
C206	C	1.313632	-0.104342	1.265144
C207	C	1.563632	0.145658	1.515144
C208	C	1.813632	0.395658	1.765144
C209	C	1.063592	-0.354425	0.694755
C210	C	1.313592	-0.104425	0.944755
C211	C	1.563592	0.145575	1.194755
C212	C	1.813592	0.395575	1.444755
H213	H	0.633617	-0.440018	0.439820
H214	H	0.883617	-0.190018	0.689820
H215	H	1.133617	0.059982	0.939820
H216	H	1.383617	0.309982	1.189820
H217	H	0.494190	-0.440020	0.439836
H218	H	0.744190	-0.190020	0.689836
H219	H	0.994190	0.059980	0.939836
H220	H	1.244190	0.309980	1.189836
H221	H	1.148881	-0.784304	0.440060
H222	H	1.398881	-0.534304	0.690060
H223	H	1.648881	-0.284304	0.940060
H224	H	1.898881	-0.034304	1.190060
Cl225	Cl	1.169884	-0.248178	0.768261
Cl226	Cl	1.419884	0.001822	1.018261
Cl227	Cl	1.669884	0.251822	1.268261
Cl228	Cl	1.919884	0.501822	1.518261
Cl229	Cl	1.169763	-0.940723	0.460955
Cl230	Cl	1.419763	-0.690723	0.710955
Cl231	Cl	1.669763	-0.440723	0.960955
Cl232	Cl	1.919763	-0.190723	1.210955
Cl233	Cl	0.957354	-0.767548	0.248259
Cl234	Cl	1.207354	-0.517548	0.498259
Cl235	Cl	1.457354	-0.267548	0.748259
Cl236	Cl	1.707354	-0.017548	0.998259
H237	H	0.978193	-0.439748	0.924637
H238	H	1.228193	-0.189748	1.174637
H239	H	1.478193	0.060252	1.424637
H240	H	1.728193	0.310252	1.674637
Cl241	Cl	0.957308	-0.460632	0.768163
Cl242	Cl	1.207308	-0.210632	1.018163
Cl243	Cl	1.457308	0.039368	1.268163
Cl244	Cl	1.707308	0.289368	1.518163
Cl245	Cl	0.477145	-0.248156	0.248550
Cl246	Cl	0.727145	0.001844	0.498550
Cl247	Cl	0.977145	0.251844	0.748550
Cl248	Cl	1.227145	0.501844	0.998550
Cl249	Cl	0.650627	-0.248139	0.248535
Cl250	Cl	0.900627	0.001861	0.498535
Cl251	Cl	1.150627	0.251861	0.748535
Cl252	Cl	1.400627	0.501861	0.998535
Cl253	Cl	0.957424	-0.941030	0.248286
Cl254	Cl	1.207424	-0.691030	0.498286
Cl255	Cl	1.457424	-0.441030	0.748286
Cl256	Cl	1.707424	-0.191030	0.998286
H257	H	1.149046	-0.268979	0.924700
H258	H	1.399046	-0.018979	1.174700
H259	H	1.649046	0.231021	1.424700
H260	H	1.899046	0.481021	1.674700
