data_functionalizedCrystal
_audit_creation_method	'MofGen! by Chris Wilmer'
_symmetry_space_group_name_H-M	'P1'
_symmetry_Int_Tables_number	1
_symmetry_cell_setting	triclinic
loop_
_symmetry_equiv_pos_as_xyz
  x,y,z
_cell_length_a	19.188933
_cell_length_b	27.731996
_cell_length_c	26.809956
_cell_angle_alpha	89.974654
_cell_angle_beta	89.980971
_cell_angle_gamma	82.883478
loop_
_atom_site_label
_atom_site_type_symbol
_atom_site_fract_x
_atom_site_fract_y
_atom_site_fract_z
O1	O	0.925757	0.060362	-0.041469
O2	O	0.722392	0.068485	-0.041475
O3	O	0.830410	-0.005956	-0.041461
O4	O	0.817740	0.134803	-0.041483
O5	O	0.830371	-0.005976	0.041498
O6	O	0.722354	0.068465	0.041484
O7	O	0.925719	0.060342	0.041490
Zn8	Zn	0.824030	0.064400	0.054659
Zn9	Zn	0.824081	0.064427	-0.054644
O10	O	0.817701	0.134783	0.041476
C11	C	0.696364	0.068212	0.000004
C12	C	0.618865	0.067422	0.000002
C13	C	0.065667	0.061794	-0.045212
C14	C	0.138487	0.062533	-0.045214
C15	C	0.174880	0.062894	0.000006
C16	C	0.138451	0.062503	0.045233
C17	C	0.065634	0.061759	0.045234
N18	N	0.283694	0.091561	0.033662
N19	N	0.352867	0.092269	0.033658
C20	C	0.394274	0.065136	0.000007
N21	N	0.363894	0.037273	-0.033648
N22	N	0.294714	0.036567	-0.033646
C23	C	0.253838	0.063701	0.000011
C24	C	0.509654	0.066325	-0.045219
C25	C	0.582476	0.067062	-0.045219
C26	C	0.582438	0.067036	0.045230
C27	C	0.509619	0.066295	0.045228
C28	C	0.473231	0.065942	0.000003
C29	C	0.830130	-0.023974	0.000020
C30	C	0.829346	-0.077633	0.000025
C31	C	0.824435	-0.410353	-0.045220
C32	C	0.821458	-0.612020	-0.045229
O33	O	0.821061	-0.638083	-0.083688
N34	N	0.821067	-0.637249	-0.000009
C35	C	0.821416	-0.612058	0.045217
O36	O	0.821009	-0.638144	0.083680
C37	C	0.824388	-0.410392	0.045226
C38	C	0.824786	-0.385166	0.000002
C39	C	0.824832	-0.385127	-0.090440
C40	C	0.825580	-0.334713	-0.090438
C41	C	0.825931	-0.309526	-0.045215
C42	C	0.825534	-0.334752	0.000005
C43	C	0.824732	-0.385201	0.090451
C44	C	0.825474	-0.334781	0.090449
C45	C	0.825871	-0.309555	0.045226
C46	C	0.826633	-0.259151	0.045230
N47	N	0.827024	-0.233922	0.000009
C48	C	0.826673	-0.259109	-0.045213
C49	C	0.819858	-0.717937	0.045210
C50	C	0.819116	-0.768353	0.045208
C51	C	0.819156	-0.768311	-0.045239
C52	C	0.819903	-0.717894	-0.045237
C53	C	0.820248	-0.692707	-0.000011
C54	C	0.828244	-0.153237	-0.045204
C55	C	0.828995	-0.102820	-0.045197
C56	C	0.828951	-0.102866	0.045249
C57	C	0.828204	-0.153279	0.045243
C58	C	0.827848	-0.178464	0.000012
O59	O	0.827023	-0.233057	0.083669
O60	O	0.827065	-0.233013	-0.083670
C61	C	0.823687	-0.460766	-0.045223
C62	C	0.823290	-0.485992	-0.000003
C63	C	0.823641	-0.460805	0.045219
C64	C	0.822548	-0.536409	-0.000005
C65	C	0.822197	-0.561596	-0.045228
C66	C	0.822588	-0.536367	-0.090448
C67	C	0.823336	-0.485954	-0.090446
C68	C	0.823251	-0.486034	0.090440
C69	C	0.822503	-0.536448	0.090434
C70	C	0.822152	-0.561635	0.045211
C71	C	0.951747	0.060615	0.000010
C72	C	1.029246	0.061405	0.000008
C73	C	0.817981	0.152801	-0.000006
C74	C	0.818765	0.206459	-0.000015
N75	N	0.824001	0.064382	0.129255
N76	N	0.824116	0.064442	-0.129240
C77	C	0.782049	0.035158	0.526151
C78	C	0.782016	0.035145	0.317274
O79	O	0.746300	0.010257	0.290284
N80	N	0.824029	0.064389	0.291133
C81	C	0.866057	0.093637	0.317215
O82	O	0.901796	0.118507	0.290188
C83	C	0.866093	0.093647	0.526092
C84	C	0.824072	0.064404	0.552230
C85	C	0.740032	0.005917	0.552289
C86	C	0.740037	0.005923	0.604505
C87	C	0.782060	0.035169	0.630584
C88	C	0.824078	0.064410	0.604446
C89	C	0.908124	0.122891	0.552173
C90	C	0.908131	0.122891	0.604396
C91	C	0.866110	0.093648	0.630533
C92	C	0.866107	0.093662	0.682741
N93	N	0.824093	0.064417	0.708881
C94	C	0.782070	0.035171	0.682803
C95	C	0.866034	0.093630	0.207552
C96	C	0.866024	0.093628	0.155333
C97	C	0.781984	0.035135	0.155395
C98	C	0.781990	0.035140	0.207615
C99	C	0.824021	0.064385	0.233692
C100	C	0.782085	0.035186	0.792461
C101	C	0.782093	0.035195	0.844682
C102	C	0.866135	0.093686	0.844615
C103	C	0.866125	0.093678	0.792399
C104	C	0.824098	0.064424	0.766323
O105	O	0.901810	0.118533	0.709762
O106	O	0.746348	0.010297	0.709839
C107	C	0.782043	0.035152	0.473935
C108	C	0.824060	0.064393	0.447797
C109	C	0.866083	0.093639	0.473876
C110	C	0.824050	0.064391	0.395578
C111	C	0.782027	0.035145	0.369500
C112	C	0.740014	0.005901	0.395640
C113	C	0.740020	0.005906	0.447857
C114	C	0.908097	0.122884	0.447735
C115	C	0.908087	0.122876	0.395519
C116	C	0.866064	0.093630	0.369440
H117	H	0.480026	0.066036	-0.082044
N118	N	0.827880	-0.178966	-0.091400
N119	N	0.778236	-0.202531	-0.101501
H120	H	0.777983	-0.220703	-0.134126
H121	H	0.035980	0.061444	0.082058
N122	N	0.697110	-0.023965	0.525656
N123	N	0.705967	-0.069028	0.531513
H124	H	0.675648	-0.090132	0.512706
H125	H	0.818871	-0.788827	-0.082061
H126	H	0.942344	0.146703	0.530901
H127	H	0.168088	0.062796	0.082052
N128	N	0.619672	0.067452	-0.091418
N129	N	0.587171	0.067135	-0.131791
H130	H	0.613441	0.067411	-0.164420
N131	N	0.697087	-0.023968	0.368989
N132	N	0.697093	-0.023963	0.322365
H133	H	0.666780	-0.045057	0.303539
N134	N	0.619616	0.067399	0.091418
N135	N	0.684631	0.068060	0.091412
H136	H	0.710892	0.068314	0.124034
N137	N	0.175695	0.062946	-0.091409
N138	N	0.209510	0.097435	-0.101495
H139	H	0.235785	0.097730	-0.134121
H140	H	0.747871	0.011382	0.865961
N141	N	0.951012	0.152757	0.368831
N142	N	0.988527	0.178865	0.392128
H143	H	1.018846	0.199966	0.373281
N144	N	0.739060	0.005275	0.234312
N145	N	0.673930	0.011178	0.228497
H146	H	0.643608	-0.009916	0.247350
N147	N	0.739164	0.005293	0.765838
N148	N	0.701661	-0.020815	0.789190
H149	H	0.671348	-0.041927	0.770388
H150	H	0.479964	0.065981	0.082052
N151	N	0.829385	-0.077051	-0.091395
N152	N	0.780571	-0.044352	-0.101487
H153	H	0.780844	-0.026153	-0.134112
N154	N	0.908933	0.123503	0.128630
N155	N	0.881315	0.155510	0.099483
H156	H	0.911623	0.176608	0.080625
N157	N	0.825983	-0.308957	-0.136638
N158	N	0.825667	-0.331459	-0.177008
H159	H	0.825949	-0.313272	-0.209639
H160	H	0.825744	-0.314275	0.127279
N161	N	0.824469	-0.410842	-0.136643
N162	N	0.824821	-0.388303	-0.177010
H163	H	0.824568	-0.406461	-0.209644
H164	H	0.820226	-0.697358	-0.082062
N165	N	0.697111	-0.023952	0.631193
N166	N	0.659598	-0.050061	0.607894
H167	H	0.629280	-0.071164	0.626738
N168	N	0.951032	0.152761	0.474361
N169	N	0.988539	0.178866	0.451010
H170	H	1.018863	0.199970	0.469813
H171	H	0.942359	0.146705	0.625625
H172	H	0.036045	0.061504	-0.082039
H173	H	0.818803	-0.788889	0.082034
N174	N	0.820209	-0.692220	0.091415
N175	N	0.819862	-0.714758	0.131783
H176	H	0.820113	-0.696598	0.164416
N177	N	0.739063	0.005251	0.128759
N178	N	0.701557	-0.020865	0.152097
H179	H	0.671250	-0.041973	0.133284
N180	N	0.909065	0.123536	0.765697
N181	N	0.974193	0.117621	0.771519
H182	H	1.004530	0.138701	0.752662
N183	N	0.824332	-0.410953	0.136652
N184	N	0.824644	-0.388449	0.177021
H185	H	0.824362	-0.406635	0.209653
H186	H	0.827887	-0.173820	0.082067
H187	H	0.829240	-0.082349	0.082068
H188	H	0.900348	0.117499	0.865858
N189	N	0.823627	-0.460312	0.136636
N190	N	0.873278	-0.436752	0.146731
H191	H	0.873549	-0.418587	0.179360
H192	H	0.900262	0.117446	0.228780
N193	N	0.823745	-0.460197	-0.136646
N194	N	0.823432	-0.482701	-0.177016
H195	H	0.823720	-0.464514	-0.209647
N196	N	0.822238	-0.562109	-0.136638
N197	N	0.821574	-0.607123	-0.136627
H198	H	0.821326	-0.625306	-0.169246
N199	N	0.822106	-0.562206	0.136637
N200	N	0.822419	-0.539705	0.177008
H201	H	0.822134	-0.557894	0.209639
H202	H	0.705802	-0.017906	0.469133
