data_functionalizedCrystal
_audit_creation_method	'MofGen! by Chris Wilmer'
_symmetry_space_group_name_H-M	'P1'
_symmetry_Int_Tables_number	1
_symmetry_cell_setting	triclinic
loop_
_symmetry_equiv_pos_as_xyz
  x,y,z
_cell_length_a	18.366186
_cell_length_b	19.288856
_cell_length_c	19.288865
_cell_angle_alpha	96.865496
_cell_angle_beta	90.013443
_cell_angle_gamma	90.006398
loop_
_atom_site_label
_atom_site_type_symbol
_atom_site_fract_x
_atom_site_fract_y
_atom_site_fract_z
O1	O	0.060591	-0.921338	0.086625
O2	O	0.060586	-0.719077	0.098319
O3	O	0.060575	-0.826052	-0.008658
O4	O	0.060603	-0.814363	0.193603
O5	O	-0.060525	-0.826070	-0.008672
O6	O	-0.060513	-0.719095	0.098306
O7	O	-0.060508	-0.921356	0.086611
Zn8	Zn	-0.079738	-0.820229	0.092456
Zn9	Zn	0.079816	-0.820205	0.092474
O10	O	-0.060496	-0.814381	0.193589
C11	C	0.000036	-0.693209	0.097937
C12	C	0.000034	-0.616105	0.096811
C13	C	0.000031	-0.052064	0.151959
C14	C	0.000036	-0.124511	0.153024
C15	C	0.000027	-0.169218	0.090254
C16	C	0.000031	-0.141472	0.026415
C17	C	0.000033	-0.069027	0.025352
C18	C	-0.042406	-0.290494	0.043435
C19	C	-0.042413	-0.362938	0.044501
C20	C	0.000025	-0.392664	0.093530
C21	C	0.042459	-0.349935	0.141505
C22	C	0.042461	-0.277490	0.140442
C23	C	0.000025	-0.247773	0.091399
C24	C	0.000032	-0.498955	0.158519
C25	C	0.000042	-0.571404	0.159581
C26	C	0.000029	-0.588364	0.032971
C27	C	0.000026	-0.515917	0.031910
C28	C	0.000024	-0.471217	0.094687
N29	N	-0.188629	-0.820250	0.092444
N30	N	0.188707	-0.820189	0.092481
C31	C	0.226819	-0.862097	0.134581
C32	C	0.303047	-0.862102	0.134582
C33	C	0.341160	-0.820207	0.092469
C34	C	0.303039	-0.778291	0.050366
C35	C	0.226812	-0.778282	0.050372
C36	C	0.461905	-0.818621	0.029816
C37	C	0.538130	-0.818635	0.029809
C38	C	0.576267	-0.820231	0.092450
C39	C	0.538170	-0.821827	0.155101
C40	C	0.461944	-0.821818	0.155107
C41	C	0.423815	-0.820212	0.092458
C42	C	0.697034	-0.862146	0.134554
C43	C	0.773263	-0.862146	0.134556
C44	C	0.773254	-0.778339	0.050334
C45	C	0.697026	-0.778335	0.050339
C46	C	0.658921	-0.820242	0.092448
C47	C	0.000023	-0.825685	-0.034542
C48	C	0.000016	-0.824556	-0.111645
C49	C	0.000039	0.052776	0.086995
C50	C	0.000031	-0.024327	0.088128
C51	C	0.000014	-0.887324	-0.156343
C52	C	0.000026	-0.886263	-0.228790
C53	C	0.000025	-0.822431	-0.256536
C54	C	0.000031	-0.759655	-0.211828
C55	C	0.000027	-0.760717	-0.139383
C56	C	-0.042395	-0.772258	-0.364827
C57	C	-0.042395	-0.771198	-0.437271
C58	C	0.000041	-0.819151	-0.479982
C59	C	0.042468	-0.868177	-0.450240
C60	C	0.042464	-0.869239	-0.377795
C61	C	0.000030	-0.821272	-0.335090
C62	C	0.000052	-0.880774	-0.603236
C63	C	0.000068	-0.879710	-0.675684
C64	C	0.000066	-0.753100	-0.658720
C65	C	0.000057	-0.754165	-0.586273
C66	C	0.000047	-0.818004	-0.558536
C67	C	0.000057	-0.814748	0.219472
C68	C	0.000068	-0.815877	0.296576
H69	H	-0.076965	-0.266299	0.003506
H70	H	-0.076938	-0.731275	-0.461480
H71	H	0.195798	-0.896220	0.168871
H72	H	0.000033	-0.015673	0.203076
H73	H	0.430928	-0.823116	0.206119
H74	H	0.000025	-0.177877	-0.024693
H75	H	0.000027	-0.937378	-0.265191
H76	H	0.569144	-0.817340	-0.021205
H77	H	0.000008	-0.939307	-0.133765
H78	H	0.000030	-0.147099	0.205004
H79	H	0.000047	-0.932755	-0.580651
H80	H	0.000071	-0.930826	-0.712077
H81	H	0.000033	-0.046445	-0.026628
H82	H	0.000032	-0.707682	-0.234423
H83	H	0.077013	-0.242703	0.179504
H84	H	0.569219	-0.823127	0.206110
H85	H	0.334083	-0.896228	0.168868
H86	H	0.000028	-0.709602	-0.102988
H87	H	0.666007	-0.896266	0.168845
H88	H	0.077011	-0.909156	-0.353582
H89	H	0.077013	-0.374135	0.181430
H90	H	0.000031	-0.462558	0.209635
H91	H	-0.076956	-0.733206	-0.330057
H92	H	0.804293	-0.896271	0.168844
H93	H	0.804285	-0.744223	0.016049
H94	H	0.077024	-0.907225	-0.485014
H95	H	0.665995	-0.744212	0.016053
H96	H	0.000069	-0.701126	-0.681309
H97	H	0.000048	-0.593985	0.211562
H98	H	0.430861	-0.817315	-0.021197
H99	H	0.334075	-0.744178	0.016079
H100	H	0.000027	-0.624764	-0.018138
H101	H	0.195782	-0.744154	0.016088
H102	H	0.000022	-0.493334	-0.020068
H103	H	-0.076969	-0.397722	0.005440
H104	H	0.000055	-0.703052	-0.549879
