data_functionalizedCrystal
_audit_creation_method	'MofGen! by Chris Wilmer'
_symmetry_space_group_name_H-M	'P1'
_symmetry_Int_Tables_number	1
_symmetry_cell_setting	triclinic
loop_
_symmetry_equiv_pos_as_xyz
  x,y,z
_cell_length_a	10.540539
_cell_length_b	27.732048
_cell_length_c	9.016244
_cell_angle_alpha	89.992799
_cell_angle_beta	89.994699
_cell_angle_gamma	83.584073
loop_
_atom_site_label
_atom_site_type_symbol
_atom_site_fract_x
_atom_site_fract_y
_atom_site_fract_z
O1	O	1.682935	0.068112	-0.123289
O2	O	1.313244	0.074530	-0.123309
O3	O	1.509571	0.000996	-0.123270
O4	O	1.486608	0.141645	-0.123327
O5	O	1.509543	0.000998	0.123411
O6	O	1.313215	0.074531	0.123372
O7	O	1.682907	0.068113	0.123392
Cu8	Cu	1.498058	0.071322	0.145906
Cu9	Cu	1.498092	0.071321	-0.145822
O10	O	1.486579	0.141647	0.123353
C11	C	1.265947	0.074049	0.000030
C12	C	1.125062	0.072609	0.000023
C13	C	0.944031	0.017434	0.000622
C14	C	1.090586	0.018894	0.000050
C15	C	1.062283	0.098458	-0.140849
C16	C	0.915818	0.096625	-0.140950
C17	C	0.915250	0.097720	0.139571
C18	C	1.062210	0.098215	0.141418
C19	C	1.509075	-0.017013	0.000075
C20	C	1.507623	-0.070677	0.000087
C21	C	1.614502	-0.408819	0.000017
C22	C	1.609117	-0.610513	-0.000004
O23	O	1.706850	-0.641153	-0.000064
N24	N	1.492703	-0.630369	-0.000009
C25	C	1.377627	-0.599799	-0.000019
O26	O	1.278486	-0.621317	-0.000039
C27	C	1.383013	-0.398107	-0.000008
C28	C	1.499435	-0.378253	0.000012
C29	C	1.730915	-0.388965	0.000035
C30	C	1.732260	-0.338544	0.000048
C31	C	1.617193	-0.307978	0.000043
C32	C	1.500780	-0.327832	0.000025
C33	C	1.267939	-0.367538	-0.000028
C34	C	1.269296	-0.317112	-0.000030
C35	C	1.385718	-0.297258	-0.000010
C36	C	1.387058	-0.246846	0.000033
N37	N	1.503472	-0.226989	0.000038
C38	C	1.618540	-0.257555	0.000043
C39	C	1.374807	-0.705691	-0.000021
C40	C	1.373460	-0.756114	-0.000021
C41	C	1.604950	-0.766824	-0.000010
C42	C	1.606296	-0.716400	0.000001
C43	C	1.491221	-0.685834	-0.000016
C44	C	1.621356	-0.151668	0.000072
C45	C	1.622691	-0.101243	0.000092
C46	C	1.391201	-0.090538	0.000073
C47	C	1.389865	-0.140959	0.000061
C48	C	1.504953	-0.171523	0.000056
O49	O	1.289377	-0.216177	0.000076
O50	O	1.717666	-0.236029	0.000030
C51	C	1.613157	-0.459239	0.000003
C52	C	1.496745	-0.479094	-0.000015
C53	C	1.381678	-0.448528	-0.000020
C54	C	1.495398	-0.529517	-0.000015
C55	C	1.610465	-0.560083	-0.000010
C56	C	1.726879	-0.540226	-0.000005
C57	C	1.728224	-0.489806	0.000008
C58	C	1.265264	-0.468384	-0.000025
C59	C	1.263928	-0.518805	-0.000037
C60	C	1.378995	-0.549371	-0.000032
C61	C	1.730203	0.068594	0.000051
C62	C	1.871089	0.070034	0.000047
C63	C	1.487075	0.159656	0.000006
C64	C	1.488527	0.213320	-0.000016
N65	N	1.498044	0.071324	0.351092
N66	N	1.498117	0.071316	-0.351009
C67	C	1.392710	0.110527	0.586104
C68	C	1.392933	0.110674	0.414213
C69	C	1.630269	0.082796	0.413432
C70	C	1.629691	0.083074	0.585377
C71	C	1.472476	0.020519	0.585655
C72	C	1.469417	0.020848	0.413701
H73	H	1.105663	0.080501	-0.245673
C74	C	1.259461	0.101347	0.641999
H75	H	1.197210	0.125396	0.602782
H76	H	1.257722	0.102804	0.747251
H77	H	1.241234	0.070174	0.610420
H78	H	1.408750	0.148000	0.629283
H79	H	1.278658	-0.772274	-0.000012
H80	H	1.134071	-0.001446	0.101034
H81	H	1.824622	-0.413847	0.000033
C82	C	1.853450	-0.573855	-0.000011
H83	H	1.835962	-0.606727	-0.000034
H84	H	1.901231	-0.567802	0.086010
H85	H	1.901229	-0.567788	-0.086047
C86	C	1.135855	-0.540639	-0.000063
H87	H	1.067525	-0.515209	-0.000080
H88	H	1.130489	-0.560093	0.085947
H89	H	1.130534	-0.560077	-0.086110
H90	H	1.171560	-0.443502	-0.000032
H91	H	1.710523	0.055665	0.626974
C92	C	1.414909	0.161583	0.358597
H93	H	1.423747	0.182255	0.441090
H94	H	1.344158	0.174472	0.300116
H95	H	1.490405	0.159433	0.300290
C96	C	1.731521	-0.800452	-0.000027
H97	H	1.714034	-0.833325	-0.000046
H98	H	1.779312	-0.794400	0.085986
H99	H	1.779291	-0.794386	-0.086071
H100	H	1.710530	0.055017	0.372543
H101	H	1.701097	-0.700239	0.000016
H102	H	1.281093	-0.680808	-0.000035
H103	H	1.084735	0.137377	0.149907
H104	H	0.884446	0.080337	0.246350
H105	H	1.823027	-0.473646	0.000024
H106	H	1.082923	0.137906	-0.146106
C107	C	1.860321	-0.316709	0.000061
H108	H	1.844661	-0.282301	0.000076
H109	H	1.907665	-0.327172	-0.085958
H110	H	1.907640	-0.327181	0.086099
C111	C	1.338026	0.009098	0.358671
H112	H	1.300766	0.034842	0.297785
H113	H	1.284113	0.005350	0.441336
H114	H	1.348148	-0.020143	0.302908
H115	H	1.717499	-0.085081	0.000112
C116	C	0.906638	-0.011234	0.137097
H117	H	0.846199	0.008616	0.194948
H118	H	0.980469	-0.020696	0.195098
H119	H	0.870145	-0.039306	0.105437
C120	C	0.904478	-0.011117	-0.135063
H121	H	0.843708	0.008880	-0.192064
H122	H	0.867815	-0.039066	-0.102654
H123	H	0.977514	-0.020770	-0.194199
C124	C	1.139873	-0.389366	-0.000063
H125	H	1.071548	-0.363934	-0.000086
H126	H	1.134502	-0.408818	0.085952
H127	H	1.134548	-0.408806	-0.086105
C128	C	1.148205	-0.008772	-0.136591
H129	H	1.082029	-0.020944	-0.191975
H130	H	1.207799	-0.035018	-0.105177
H131	H	1.190316	0.012583	-0.196943
H132	H	0.866172	0.135256	-0.147360
H133	H	1.175585	-0.292227	-0.000046
H134	H	1.297516	-0.065642	0.000074
H135	H	1.652436	0.120134	0.625452
H136	H	1.653575	0.119438	0.370341
C137	C	1.118606	0.072701	0.282213
H138	H	1.080200	0.088355	0.367368
H139	H	1.208131	0.074305	0.284812
H140	H	1.102260	0.039701	0.281328
C141	C	1.261805	-0.162799	0.000036
H142	H	1.193470	-0.137371	0.000025
H143	H	1.256445	-0.182256	0.086041
H144	H	1.256489	-0.182236	-0.086015
H145	H	1.378213	0.009599	0.629103
H146	H	1.294616	0.103771	0.372067
H147	H	1.541272	-0.009733	0.370740
C148	C	1.576320	-0.018909	0.640602
H149	H	1.635023	-0.004511	0.701846
H150	H	1.620246	-0.034020	0.557920
H151	H	1.537750	-0.042517	0.695976
H152	H	0.888449	0.077519	-0.246238
C153	C	0.849182	0.150133	0.140838
H154	H	0.794940	0.155138	0.056803
H155	H	0.911921	0.172182	0.137728
H156	H	0.799902	0.155408	0.228753
H157	H	1.715071	-0.176549	0.000063
