data_functionalizedCrystal
_audit_creation_method	'MofGen! by Chris Wilmer'
_symmetry_space_group_name_H-M	'P1'
_symmetry_Int_Tables_number	1
_symmetry_cell_setting	triclinic
loop_
_symmetry_equiv_pos_as_xyz
  x,y,z
_cell_length_a	26.455835
_cell_length_b	26.455273
_cell_length_c	26.451828
_cell_angle_alpha	60.005170
_cell_angle_beta	60.010757
_cell_angle_gamma	59.993435
loop_
_atom_site_label
_atom_site_type_symbol
_atom_site_fract_x
_atom_site_fract_y
_atom_site_fract_z
O1	O	0.069940	-0.738516	0.617604
O2	O	0.026299	-0.574986	0.497618
O3	O	0.129847	-0.678463	0.497546
O4	O	-0.033607	-0.635040	0.617676
O5	O	0.164197	-0.644116	0.531822
O6	O	0.060649	-0.540639	0.531894
O7	O	0.104290	-0.704170	0.651880
Cu8	Cu	0.085606	-0.619268	0.595016
Cu9	Cu	0.044984	-0.659887	0.554481
O10	O	0.000742	-0.600693	0.651952
N11	N	0.114179	-0.590703	0.623530
N12	N	0.016416	-0.688458	0.525968
C13	C	0.157553	-0.547535	0.933368
C14	C	0.424104	-0.547506	0.666656
C15	C	0.157413	-0.547503	0.666729
C16	C	0.157397	-0.280846	0.666749
C17	C	0.200330	-0.409550	0.709625
C18	C	0.200339	-0.504608	0.709615
C19	C	0.224118	-0.480848	0.733375
C20	C	0.327800	-0.462984	0.678792
C21	C	0.392611	-0.484588	0.657175
C22	C	0.392630	-0.589450	0.697162
C23	C	0.327821	-0.567844	0.718781
C24	C	0.215955	-0.377135	0.645910
C25	C	0.194327	-0.312320	0.624323
C26	C	0.141457	-0.312339	0.730169
C27	C	0.163084	-0.377154	0.751756
C28	C	0.136618	-0.488954	0.725292
C29	C	0.115007	-0.510553	0.703686
C30	C	0.220833	-0.563461	0.650740
C31	C	0.242447	-0.541861	0.672339
C32	C	0.136680	-0.488971	0.837094
C33	C	0.115112	-0.510589	0.901907
C34	C	0.220969	-0.563508	0.901868
C35	C	0.242535	-0.541892	0.837053
C36	C	0.200389	-0.504622	0.804668
C37	C	0.295409	-0.504610	0.709593
C38	C	0.132990	-0.570876	1.004655
C39	C	0.495389	-0.570440	0.642547
C40	C	0.132802	-0.570856	0.643399
C41	C	0.133212	-0.209553	0.643833
C42	C	-0.097217	-0.706972	0.506986
C43	C	-0.002040	-0.707108	0.412067
C44	C	-0.002230	-0.802124	0.507163
C45	C	-0.002214	-0.707101	0.507221
C46	C	-0.025925	-0.730827	0.483360
N47	N	0.553723	-0.590712	0.623415
O48	O	0.751638	-0.596429	0.475603
O49	O	0.751819	-0.716773	0.638980
O50	O	0.751753	-0.716500	0.535361
O51	O	0.751705	-0.596703	0.579222
O52	O	0.648791	-0.682239	0.569747
O53	O	0.648858	-0.682512	0.673366
O54	O	0.648676	-0.562169	0.509989
Cu55	Cu	0.639366	-0.619212	0.594817
Cu56	Cu	0.761130	-0.659729	0.554152
O57	O	0.648743	-0.562442	0.613609
N58	N	0.846773	-0.688230	0.525548
N59	N	0.114157	-0.151217	0.623565
O60	O	-0.033591	0.046803	0.617717
O61	O	0.129795	0.046806	0.497390
O62	O	0.026157	0.046789	0.497680
O63	O	0.070046	0.046819	0.617427
O64	O	0.060509	-0.056181	0.532004
O65	O	0.164146	-0.056164	0.531714
O66	O	0.000760	-0.056167	0.652041
Cu67	Cu	0.085590	-0.065568	0.595012
Cu68	Cu	0.044965	0.056206	0.554419
O69	O	0.104397	-0.056151	0.651751
N70	N	0.016390	0.141855	0.525867
N71	N	0.114410	-0.590756	1.062992
O72	O	0.108565	-0.738494	1.260998
O73	O	-0.011747	-0.575059	1.261012
O74	O	-0.011470	-0.678679	1.260970
O75	O	0.108287	-0.634874	1.261040
O76	O	0.022849	-0.644347	1.158004
O77	O	0.022572	-0.540726	1.158046
O78	O	0.142884	-0.704162	1.158033
Cu79	Cu	0.085861	-0.619309	1.148638
Cu80	Cu	0.045275	-0.659911	1.270406
O81	O	0.142606	-0.600541	1.158074
N82	N	0.016726	-0.688471	1.356052
C83	C	0.039385	-0.537207	0.498225
C84	C	0.167616	-0.665350	0.498136
C85	C	0.091204	-0.741950	0.651272
C86	C	-0.037027	-0.613806	0.651361
C87	C	0.700360	-0.716215	0.676756
C88	C	0.700279	-0.715877	0.548436
C89	C	0.700133	-0.562725	0.472214
C90	C	0.700218	-0.563065	0.600533
C91	C	0.167511	-0.004552	0.497940
C92	C	0.039211	-0.004699	0.498341
C93	C	-0.036999	-0.004682	0.651449
C94	C	0.091344	-0.004663	0.651090
C95	C	-0.011156	-0.537302	1.209530
C96	C	-0.010806	-0.665617	1.209458
C97	C	0.142293	-0.741918	1.209514
C98	C	0.141950	-0.613596	1.209563
H99	H	0.102355	-0.458618	0.810728
C100	C	0.104032	-0.004655	0.701913
H101	H	0.145029	-0.004656	0.686780
H102	H	0.075473	0.031253	0.713189
H103	H	0.099434	-0.040568	0.737123
H104	H	0.700073	-0.524942	0.425295
H105	H	0.214338	-0.004265	0.460069
C106	C	-0.100447	-0.601307	0.702324
H107	H	-0.126419	-0.560324	0.687305
H108	H	-0.119004	-0.629917	0.713602
H109	H	-0.095044	-0.605958	0.737505
H110	H	0.180068	-0.788855	1.209502
H111	H	0.214562	-0.674609	0.460411
C112	C	-0.061611	-0.678250	1.209370
H113	H	-0.046475	-0.719242	1.209344
H114	H	-0.096838	-0.673629	1.245260
H115	H	-0.072854	-0.649674	1.173443
H116	H	0.179573	-0.604224	1.209577
H117	H	0.700208	-0.525435	0.609919
H118	H	0.100526	-0.788925	0.688956
H119	H	0.700298	-0.753510	0.539047
H120	H	0.700405	-0.753994	0.723681
C121	C	-0.100385	-0.004683	0.702484
H122	H	-0.126408	-0.004686	0.687535
H123	H	-0.094949	-0.040586	0.737668
H124	H	-0.118909	0.031234	0.713725
H125	H	0.029814	-0.004702	0.460721
H126	H	-0.048928	-0.490363	1.209534
H127	H	0.063231	-0.497836	0.928300
H128	H	0.294416	-0.554643	0.810656
C129	C	0.267328	-0.604491	0.937487
H130	H	0.245362	-0.615120	0.980731
H131	H	0.292617	-0.641136	0.926854
H132	H	0.292601	-0.582491	0.926858
C133	C	0.044916	-0.493332	0.720918
H134	H	0.038077	-0.511526	0.702706
H135	H	0.026728	-0.508243	0.764648
H136	H	0.026705	-0.449597	0.706017
C137	C	0.267153	-0.604440	0.609741
H138	H	0.308197	-0.610665	0.603500
H139	H	0.260940	-0.643288	0.629524
H140	H	0.260906	-0.584639	0.570897
H141	H	0.294333	-0.554601	0.659567
C142	C	0.292191	-0.613637	0.752661
H143	H	0.320779	-0.654389	0.755028
H144	H	0.266925	-0.611986	0.793267
H145	H	0.266893	-0.602790	0.730581
H146	H	0.102328	-0.458621	0.755642
H147	H	0.418982	-0.450689	0.632093
C148	C	0.428288	-0.659006	0.707258
H149	H	0.399714	-0.680705	0.728702
H150	H	0.453554	-0.665013	0.668313
H151	H	0.453587	-0.674212	0.731000
H152	H	0.301415	-0.411495	0.671309
H153	H	0.246280	-0.403511	0.611604
H154	H	0.207047	-0.285927	0.572438
H155	H	0.111138	-0.285961	0.764475
H156	H	0.030065	-0.490230	0.460543
C157	C	0.145825	-0.412812	0.821845
H158	H	0.120524	-0.384235	0.843844
H159	H	0.123837	-0.438064	0.832406
H160	H	0.182446	-0.438128	0.832526
