data_functionalizedCrystal
_audit_creation_method	'MofGen! by Chris Wilmer'
_symmetry_space_group_name_H-M	'P1'
_symmetry_Int_Tables_number	1
_symmetry_cell_setting	triclinic
loop_
_symmetry_equiv_pos_as_xyz
  x,y,z
_cell_length_a	16.959455
_cell_length_b	16.625546
_cell_length_c	16.959447
_cell_angle_alpha	89.969057
_cell_angle_beta	89.982031
_cell_angle_gamma	90.019415
loop_
_atom_site_label
_atom_site_type_symbol
_atom_site_fract_x
_atom_site_fract_y
_atom_site_fract_z
Zn1	Zn	1.208399	-0.321062	-0.446898
Zn2	Zn	1.708399	0.178938	0.053102
Zn3	Zn	1.208308	-0.455906	-0.314715
Zn4	Zn	1.708308	0.044094	0.185285
Zn5	Zn	1.076219	-0.321084	-0.314736
Zn6	Zn	1.576219	0.178916	0.185264
Zn7	Zn	1.076187	-0.455849	-0.446854
Zn8	Zn	1.576187	0.044151	0.053146
O9	O	1.142278	-0.388475	-0.380801
O10	O	1.642278	0.111525	0.119199
O11	O	1.318998	-0.338964	-0.429374
O12	O	1.818998	0.161036	0.070626
O13	O	1.190761	-0.438055	-0.204107
O14	O	1.690761	0.061945	0.295893
O15	O	1.093805	-0.208248	-0.332295
O16	O	1.593805	0.291752	0.167705
O17	O	1.318931	-0.438033	-0.332260
O18	O	1.818931	0.061967	0.167740
O19	O	1.190917	-0.208232	-0.429394
O20	O	1.690917	0.291768	0.070606
O21	O	1.093716	-0.339002	-0.204122
O22	O	1.593716	0.160998	0.295878
O23	O	0.965604	-0.338946	-0.332252
O24	O	1.465604	0.161054	0.167748
O25	O	1.093750	-0.437936	-0.557471
O26	O	1.593750	0.062064	-0.057471
O27	O	0.965580	-0.437957	-0.429318
O28	O	1.465580	0.062043	0.070682
O29	O	1.190885	-0.338908	-0.557503
O30	O	1.690885	0.161092	-0.057503
O31	O	1.190730	-0.568731	-0.332217
O32	O	1.690730	-0.068731	0.167783
O33	O	1.093661	-0.568689	-0.429298
O34	O	1.593661	-0.068689	0.070702
C35	C	0.936912	-0.388448	-0.380783
C36	C	1.436912	0.111552	0.119217
C37	C	0.849055	-0.388456	-0.380794
C38	C	1.349055	0.111544	0.119206
C39	C	0.477568	-0.336878	-0.330364
C40	C	0.977568	0.163122	0.169636
C41	C	0.477592	-0.440139	-0.431283
C42	C	0.977592	0.059861	0.068717
C43	C	0.560138	-0.440127	-0.431278
C44	C	1.060138	0.059873	0.068722
C45	C	0.601402	-0.388491	-0.380815
C46	C	1.101402	0.111509	0.119185
C47	C	0.560121	-0.336866	-0.330356
C48	C	1.060121	0.163134	0.169644
C49	C	0.601425	-0.491757	-0.481731
C50	C	1.101425	0.008243	0.018269
C51	C	0.683976	-0.491748	-0.481727
C52	C	1.183976	0.008252	0.018273
C53	C	0.725242	-0.440107	-0.431267
C54	C	1.225242	0.059893	0.068733
C55	C	0.683956	-0.388479	-0.380807
C56	C	1.183956	0.111521	0.119193
C57	C	0.725221	-0.336843	-0.330343
C58	C	1.225221	0.163157	0.169657
C59	C	0.683936	-0.285211	-0.279886
C60	C	1.183936	0.214789	0.220114
C61	C	0.601387	-0.285225	-0.279895
C62	C	1.101387	0.214775	0.220105
C63	C	0.807790	-0.440093	-0.431257
C64	C	1.307790	0.059907	0.068743
C65	C	0.807774	-0.336832	-0.330335
C66	C	1.307774	0.163168	0.169665
C67	C	1.142203	-0.597966	-0.380768
C68	C	1.642203	-0.097966	0.119232
C69	C	1.142244	-0.687587	-0.380780
C70	C	1.642244	-0.187587	0.119220
C71	C	1.142382	-1.015763	-0.380862
C72	C	1.642382	-0.515763	0.119138
C73	C	1.142341	-0.924454	-0.380842
C74	C	1.642341	-0.424454	0.119158
C75	C	1.142312	-0.851678	-0.380821
C76	C	1.642312	-0.351678	0.119179
C77	C	1.142272	-0.760363	-0.380801
C78	C	1.642272	-0.260363	0.119199
C79	C	1.348446	-0.388502	-0.380819
C80	C	1.848446	0.111498	0.119181
C81	C	1.436303	-0.388514	-0.380827
C82	C	1.936303	0.111486	0.119173
C83	C	1.142324	-0.388413	-0.586969
C84	C	1.642324	0.111587	-0.086969
C85	C	1.142344	-0.388386	-0.674826
C86	C	1.642344	0.111614	-0.174826
C87	C	1.142375	-0.178166	-0.380851
C88	C	1.642375	0.321834	0.119149
C89	C	1.142416	-0.088545	-0.380873
C90	C	1.642416	0.411455	0.119127
C91	C	1.192881	-0.439945	-0.716094
C92	C	1.692881	0.060055	-0.216094
C93	C	1.091820	-0.336807	-0.716112
C94	C	1.591820	0.163193	-0.216112
C95	C	1.091834	-0.336783	-0.798657
C96	C	1.591834	0.163217	-0.298657
C97	C	1.142371	-0.388342	-0.839925
C98	C	1.642371	0.111658	-0.339925
C99	C	1.192894	-0.439925	-0.798647
C100	C	1.692894	0.060075	-0.298647
C101	C	1.041306	-0.285208	-0.839942
C102	C	1.541306	0.214792	-0.339942
C103	C	1.041317	-0.285182	-0.922493
C104	C	1.541317	0.214818	-0.422493
C105	C	1.091858	-0.336738	-0.963762
C106	C	1.591858	0.163262	-0.463762
C107	C	1.142384	-0.388322	-0.922479
C108	C	1.642384	0.111678	-0.422479
C109	C	1.192921	-0.439881	-0.963747
C110	C	1.692921	0.060119	-0.463747
C111	C	1.243452	-0.491462	-0.922465
C112	C	1.743452	0.008538	-0.422465
C113	C	1.243435	-0.491481	-0.839916
C114	C	1.743435	0.008519	-0.339916
C115	C	1.091874	-0.336719	-1.046311
C116	C	1.591874	0.163281	-0.546311
C117	C	1.192935	-0.439861	-1.046300
C118	C	1.692935	0.060139	-0.546300
C119	C	1.142278	-0.388479	-0.175435
C120	C	1.642278	0.111521	0.324565
C121	C	1.142411	-0.388278	-0.087578
C122	C	1.642411	0.111722	0.412422
H123	H	0.567766	-0.243190	-0.238815
H124	H	1.067766	0.256810	0.261185
H125	H	0.717583	-0.533789	-0.522813
H126	H	1.217583	-0.033789	-0.022813
H127	H	1.000156	-0.243237	-0.806335
H128	H	1.500156	0.256763	-0.306335
N129	N	0.435390	-0.284139	-0.278836
N130	N	0.935390	0.215861	0.221164
N131	N	0.361686	-0.284148	-0.278851
N132	N	0.861686	0.215852	0.221149
H133	H	0.331896	-0.246900	-0.242459
H134	H	0.831896	0.253100	0.257541
H135	H	0.841401	-0.482133	-0.472336
H136	H	1.341401	0.017867	0.027664
H137	H	1.000172	-0.243182	-0.956097
H138	H	1.500172	0.256818	-0.456097
N139	N	1.244559	-0.492516	-1.088466
N140	N	1.744559	0.007484	-0.588466
N141	N	1.294940	-0.464135	-1.134549
N142	N	1.794940	0.035865	-0.634549
H143	H	1.331400	-0.501321	-1.164331
H144	H	1.831400	-0.001321	-0.664331
H145	H	1.284596	-0.533444	-0.956076
H146	H	1.784596	-0.033444	-0.456076
N147	N	0.435456	-0.492882	-0.482836
N148	N	0.935456	0.007118	0.017164
N149	N	0.472326	-0.538968	-0.527886
N150	N	0.972326	-0.038968	-0.027886
H151	H	0.442566	-0.576220	-0.564300
H152	H	0.942566	-0.076220	-0.064300
N153	N	1.040255	-0.284039	-1.088466
N154	N	1.540255	0.215961	-0.588466
N155	N	0.995131	-0.238014	-1.051611
N156	N	1.495131	0.261986	-0.551611
H157	H	0.958671	-0.200805	-1.081382
H158	H	1.458671	0.299195	-0.581382
H159	H	0.841366	-0.294778	-0.289245
H160	H	1.341366	0.205222	0.210755
H161	H	1.050671	-0.294835	-0.682506
H162	H	1.550671	0.205165	-0.182506
N163	N	1.295039	-0.544162	-0.797736
N164	N	1.795039	-0.044162	-0.297736
N165	N	1.295013	-0.544176	-0.724033
N166	N	1.795013	-0.044176	-0.224033
H167	H	1.331455	-0.581384	-0.694239
H168	H	1.831455	-0.081384	-0.194239
N169	N	1.244494	-0.492622	-0.673919
N170	N	1.744494	0.007378	-0.173919
N171	N	1.244482	-0.492632	-0.600215
N172	N	1.744482	0.007368	-0.100215
H173	H	1.280935	-0.529835	-0.570427
H174	H	1.780935	-0.029835	-0.070427
N175	N	0.559285	-0.544509	-0.533271
N176	N	1.059285	-0.044509	-0.033271
N177	N	0.568481	-0.618903	-0.527894
N178	N	1.068481	-0.118903	-0.027894
H179	H	0.538716	-0.656162	-0.564297
H180	H	1.038716	-0.156162	-0.064297
N181	N	0.726103	-0.232480	-0.228338
N182	N	1.226103	0.267520	0.271662
N183	N	0.799807	-0.232489	-0.228337
N184	N	1.299807	0.267511	0.271663
H185	H	0.829591	-0.195250	-0.191932
H186	H	1.329591	0.304750	0.308068
