data_functionalizedCrystal
_audit_creation_method	'MofGen! by Chris Wilmer'
_symmetry_space_group_name_H-M	'P1'
_symmetry_Int_Tables_number	1
_symmetry_cell_setting	triclinic
loop_
_symmetry_equiv_pos_as_xyz
  x,y,z
_cell_length_a	17.077404
_cell_length_b	18.101396
_cell_length_c	17.077396
_cell_angle_alpha	90.027670
_cell_angle_beta	89.983895
_cell_angle_gamma	89.965006
loop_
_atom_site_label
_atom_site_type_symbol
_atom_site_fract_x
_atom_site_fract_y
_atom_site_fract_z
Zn1	Zn	1.199960	0.294864	-0.443828
Zn2	Zn	1.533293	0.628197	-0.110494
Zn3	Zn	1.866627	0.961530	0.222839
Zn4	Zn	1.199840	0.418714	-0.312566
Zn5	Zn	1.533173	0.752047	0.020768
Zn6	Zn	1.866507	1.085381	0.354101
Zn7	Zn	1.068697	0.294887	-0.312578
Zn8	Zn	1.402030	0.628220	0.020755
Zn9	Zn	1.735364	0.961553	0.354088
Zn10	Zn	1.068627	0.418663	-0.443792
Zn11	Zn	1.401961	0.751997	-0.110458
Zn12	Zn	1.735294	1.085330	0.222875
O13	O	1.134281	0.356782	-0.378191
O14	O	1.467614	0.690115	-0.044858
O15	O	1.800948	1.023449	0.288476
O16	O	1.309791	0.311304	-0.426425
O17	O	1.643124	0.644638	-0.093092
O18	O	1.976458	0.977971	0.240241
O19	O	1.182422	0.402319	-0.202720
O20	O	1.515756	0.735652	0.130613
O21	O	1.849089	1.068986	0.463946
O22	O	1.086189	0.191251	-0.330009
O23	O	1.419522	0.524584	0.003324
O24	O	1.752855	0.857917	0.336657
O25	O	1.309703	0.402297	-0.329987
O26	O	1.643036	0.735630	0.003346
O27	O	1.976369	1.068963	0.336679
O28	O	1.182627	0.191234	-0.426438
O29	O	1.515960	0.524567	-0.093104
O30	O	1.849294	0.857900	0.240229
O31	O	1.086072	0.311343	-0.202730
O32	O	1.419406	0.644677	0.130604
O33	O	1.752739	0.978010	0.463937
O34	O	0.958841	0.311294	-0.329974
O35	O	1.292174	0.644628	0.003359
O36	O	1.625508	0.977961	0.336692
O37	O	1.086070	0.402210	-0.553644
O38	O	1.419403	0.735544	-0.220310
O39	O	1.752737	1.068877	0.113023
O40	O	0.958790	0.402233	-0.426376
O41	O	1.292123	0.735566	-0.093043
O42	O	1.625456	1.068899	0.240290
O43	O	1.182560	0.311255	-0.553670
O44	O	1.515893	0.644589	-0.220337
O45	O	1.849226	0.977922	0.112997
O46	O	1.182355	0.522340	-0.329953
O47	O	1.515688	0.855674	0.003381
O48	O	1.849022	1.189007	0.336714
O49	O	1.085954	0.522303	-0.426364
O50	O	1.419287	0.855636	-0.093031
O51	O	1.752620	1.188970	0.240303
C52	C	0.930333	0.356761	-0.378173
C53	C	1.263667	0.690094	-0.044840
C54	C	1.597000	1.023428	0.288493
C55	C	0.843083	0.356770	-0.378184
C56	C	1.176417	0.690103	-0.044851
C57	C	1.509750	1.023436	0.288482
C58	C	0.802140	0.309474	-0.428476
C59	C	1.135473	0.642808	-0.095143
C60	C	1.468807	0.976141	0.238191
C61	C	0.720159	0.309479	-0.428480
C62	C	1.053493	0.642812	-0.095146
C63	C	1.386826	0.976146	0.238187
C64	C	0.679124	0.356784	-0.378195
C65	C	1.012457	0.690117	-0.044862
C66	C	1.345791	1.023450	0.288472
C67	C	0.720073	0.404081	-0.327898
C68	C	1.053407	0.737415	0.005436
C69	C	1.386740	1.070748	0.338769
C70	C	0.802052	0.404072	-0.327891
C71	C	1.135386	0.737406	0.005443
C72	C	1.468719	1.070739	0.338776
C73	C	0.549203	0.404098	-0.327917
C74	C	0.882537	0.737431	0.005416
C75	C	1.215870	1.070765	0.338750
C76	C	0.467219	0.404108	-0.327925
C77	C	0.800552	0.737442	0.005408
C78	C	1.133885	1.070775	0.338742
C79	C	0.467310	0.309505	-0.428506
C80	C	0.800644	0.642838	-0.095173
C81	C	1.133977	0.976172	0.238160
C82	C	0.549289	0.309496	-0.428499
C83	C	0.882623	0.642829	-0.095166
C84	C	1.215956	0.976163	0.238167
C85	C	0.590233	0.356795	-0.378203
C86	C	0.923566	0.690128	-0.044869
C87	C	1.256900	1.023461	0.288464
C88	C	1.134155	0.549193	-0.378170
C89	C	1.467488	0.882526	-0.044837
C90	C	1.800822	1.215859	0.288497
C91	C	1.134173	0.631507	-0.378187
C92	C	1.467506	0.964840	-0.044854
C93	C	1.800840	1.298173	0.288479
C94	C	1.134312	0.930598	-0.378233
C95	C	1.467646	1.263931	-0.044900
C96	C	1.800979	1.597264	0.288434
C97	C	1.073803	0.899280	-0.439043
C98	C	1.407137	1.232613	-0.105709
C99	C	1.740470	1.565946	0.227624
C100	C	1.073525	0.813662	-0.438852
C101	C	1.406859	1.146995	-0.105518
C102	C	1.740192	1.480329	0.227815
C103	C	1.134243	0.782215	-0.378211
C104	C	1.467576	1.115548	-0.044878
C105	C	1.800910	1.448882	0.288456
C106	C	1.111846	0.813367	-0.295482
C107	C	1.445179	1.146700	0.037851
C108	C	1.778513	1.480034	0.371184
C109	C	1.111447	0.899012	-0.295847
C110	C	1.444780	1.232345	0.037486
C111	C	1.778113	1.565679	0.370819
C112	C	1.217354	0.898944	-0.399424
C113	C	1.550688	1.232277	-0.066090
C114	C	1.884021	1.565610	0.267243
C115	C	1.216875	0.813293	-0.401237
C116	C	1.550209	1.146626	-0.067904
C117	C	1.883542	1.479959	0.265430
C118	C	1.134205	0.698356	-0.378194
C119	C	1.467539	1.031689	-0.044860
C120	C	1.800872	1.365022	0.288473
C121	C	1.134348	1.014457	-0.378245
C122	C	1.467682	1.347790	-0.044912
C123	C	1.801015	1.681124	0.288422
C124	C	1.339025	0.356804	-0.378209
C125	C	1.672359	0.690137	-0.044876
C126	C	2.005692	1.023470	0.288458
C127	C	1.426275	0.356813	-0.378217
C128	C	1.759608	0.690146	-0.044883
C129	C	2.092942	1.023479	0.288450
C130	C	1.134321	0.356725	-0.582935
C131	C	1.467654	0.690058	-0.249602
C132	C	1.800987	1.023391	0.083731
C133	C	1.134337	0.356700	-0.670185
C134	C	1.467671	0.690033	-0.336852
C135	C	1.801004	1.023367	-0.003518
C136	C	1.134402	1.163620	-0.378232
C137	C	1.467735	1.496953	-0.044899
C138	C	1.801068	1.830287	0.288435
C139	C	1.134383	1.081306	-0.378257
C140	C	1.467716	1.414639	-0.044924
C141	C	1.801049	1.747973	0.288410
C142	C	1.084183	0.309324	-0.711180
C143	C	1.417516	0.642657	-0.377846
C144	C	1.750850	0.975990	-0.044513
C145	C	1.084196	0.309307	-0.793160
C146	C	1.417529	0.642640	-0.459827
C147	C	1.750863	0.975973	-0.126493
C148	C	1.134367	0.356663	-0.834145
C149	C	1.467701	0.689997	-0.500811
C150	C	1.801034	1.023330	-0.167478
C151	C	1.184524	0.404045	-0.793144
C152	C	1.517857	0.737379	-0.459811
C153	C	1.851191	1.070712	-0.126478
C154	C	1.184507	0.404065	-0.711165
C155	C	1.517840	0.737399	-0.377832
C156	C	1.851173	1.070732	-0.044499
C157	C	1.184558	0.403999	-0.964015
C158	C	1.517891	0.737332	-0.630681
C159	C	1.851225	1.070666	-0.297348
C160	C	1.184577	0.403978	-1.045999
C161	C	1.517910	0.737311	-0.712666
C162	C	1.851243	1.070645	-0.379333
C163	C	1.084247	0.309240	-1.046009
C164	C	1.417581	0.642574	-0.712676
C165	C	1.750914	0.975907	-0.379343
C166	C	1.084230	0.309260	-0.964030
C167	C	1.417563	0.642594	-0.630697
C168	C	1.750897	0.975927	-0.297364
C169	C	1.134388	0.356641	-0.923036
C170	C	1.467721	0.689975	-0.589702
C171	C	1.801054	1.023308	-0.256369
C172	C	1.134287	0.356786	-0.174243
C173	C	1.467620	0.690119	0.159090
C174	C	1.800954	1.023452	0.492424
C175	C	1.134422	0.356601	-0.086994
C176	C	1.467756	0.689935	0.246340
C177	C	1.801089	1.023268	0.579673
H178	H	0.433970	0.270991	-0.469458
H179	H	0.767304	0.604324	-0.136125
H180	H	1.100637	0.937658	0.197209
O181	O	1.238687	0.455058	-1.090205
O182	O	1.572021	0.788391	-0.756871
O183	O	1.905354	1.121725	-0.423538
H184	H	1.203527	0.492712	-1.127549
H185	H	1.536860	0.826046	-0.794216
H186	H	1.870193	1.159379	-0.460883
O187	O	0.846216	0.455080	-0.273643
O188	O	1.179549	0.788414	0.059691
O189	O	1.512883	1.121747	0.393024
H190	H	0.883567	0.492793	-0.308698
H191	H	1.216901	0.826126	0.024635
H192	H	1.550234	1.159460	0.357969
O193	O	0.846393	0.258450	-0.482715
O194	O	1.179726	0.591783	-0.149381
O195	O	1.513059	0.925117	0.183952
H196	H	0.910277	0.266392	-0.474268
H197	H	1.243610	0.599725	-0.140935
H198	H	1.576944	0.933059	0.192399
H199	H	1.225409	0.442575	-0.930639
H200	H	1.558742	0.775908	-0.597306
H201	H	1.892075	1.109242	-0.263973
O202	O	0.992002	0.786593	-0.420255
O203	O	1.325336	1.119927	-0.086922
O204	O	1.658669	1.453260	0.246411
H205	H	0.993572	0.752706	-0.366127
H206	H	1.326905	1.086040	-0.032794
H207	H	1.660238	1.419373	0.300540
O208	O	1.238635	0.455123	-0.837352
O209	O	1.571969	0.788456	-0.504018
O210	O	1.905302	1.121790	-0.170685
H211	H	1.225116	0.513248	-0.821610
H212	H	1.558450	0.846582	-0.488276
H213	H	1.891783	1.179915	-0.154943
O214	O	1.238604	0.455166	-0.666950
O215	O	1.571937	0.788499	-0.333617
O216	O	1.905271	1.121832	-0.000283
H217	H	1.230158	0.447230	-0.603060
H218	H	1.563491	0.780563	-0.269727
H219	H	1.896824	1.113897	0.063607
O220	O	0.422954	0.455121	-0.273684
O221	O	0.756287	0.788454	0.059649
O222	O	1.089620	1.121787	0.392983
H223	H	0.465195	0.488000	-0.238699
H224	H	0.798528	0.821334	0.094635
H225	H	1.131862	1.154667	0.427968
H226	H	1.051791	0.791980	-0.277209
H227	H	1.385124	1.125314	0.056124
H228	H	1.718457	1.458647	0.389457
H229	H	1.087538	0.792597	-0.500194
H230	H	1.420871	1.125931	-0.166861
H231	H	1.754204	1.459264	0.166473
H232	H	0.582698	0.270981	-0.469450
H233	H	0.916032	0.604314	-0.136117
H234	H	1.249365	0.937647	0.197217
O235	O	1.277014	0.925859	-0.340747
O236	O	1.610348	1.259192	-0.007413
O237	O	1.943681	1.592526	0.325920
H238	H	1.304128	0.877763	-0.310914
H239	H	1.637462	1.211097	0.022420
H240	H	1.970795	1.544430	0.355753
O241	O	0.675996	0.258467	-0.482722
O242	O	1.009329	0.591801	-0.149388
O243	O	1.342663	0.925134	0.183945
H244	H	0.718303	0.225578	-0.517693
H245	H	1.051636	0.558912	-0.184359
H246	H	1.384970	0.892245	0.148974
O247	O	1.092259	0.926687	-0.520472
O248	O	1.425592	1.260021	-0.187139
O249	O	1.758926	1.593354	0.146195
H250	H	1.104018	0.878874	-0.559464
H251	H	1.437351	1.212207	-0.226131
H252	H	1.770685	1.545540	0.107202
H253	H	1.237769	0.920491	-0.458722
H254	H	1.571103	1.253825	-0.125388
H255	H	1.904436	1.587158	0.207945
H256	H	0.582537	0.442612	-0.286958
H257	H	0.915870	0.775945	0.046375
H258	H	1.249204	1.109279	0.379708
H259	H	1.043352	0.270731	-0.826534
H260	H	1.376686	0.604064	-0.493201
H261	H	1.710019	0.937397	-0.159867
O262	O	0.675815	0.455098	-0.273656
O263	O	1.009148	0.788431	0.059678
O264	O	1.342482	1.121765	0.393011
H265	H	0.691529	0.513235	-0.287002
H266	H	1.024862	0.846569	0.046332
H267	H	1.358195	1.179902	0.379665
O268	O	0.992759	0.927855	-0.420685
O269	O	1.326092	1.261188	-0.087351
O270	O	1.659426	1.594521	0.245982
H271	H	0.995387	0.964265	-0.368438
H272	H	1.328720	1.297598	-0.035104
H273	H	1.662054	1.630931	0.298229
H274	H	1.050744	0.919053	-0.277897
H275	H	1.384077	1.252387	0.055437
H276	H	1.717410	1.585720	0.388770
H277	H	1.154536	0.792999	-0.248939
H278	H	1.487869	1.126332	0.084395
H279	H	1.821203	1.459666	0.417728
H280	H	1.153607	0.919732	-0.248995
H281	H	1.486940	1.253065	0.084339
H282	H	1.820274	1.586398	0.417672
O283	O	1.239265	0.786310	-0.481876
O284	O	1.572599	1.119643	-0.148543
O285	O	1.905932	1.452976	0.184790
H286	H	1.191747	0.750909	-0.505464
H287	H	1.525080	1.084242	-0.172130
H288	H	1.858414	1.417575	0.161203
O289	O	1.279760	0.784967	-0.346825
O290	O	1.613093	1.118301	-0.013492
O291	O	1.946427	1.451634	0.319841
H292	H	1.252981	0.748133	-0.302322
H293	H	1.586314	1.081466	0.031011
H294	H	1.919647	1.414799	0.364345
H295	H	1.043332	0.270756	-0.677816
H296	H	1.376665	0.604089	-0.344482
H297	H	1.709999	0.937423	-0.011149
H298	H	1.043379	0.270695	-0.930663
H299	H	1.376713	0.604028	-0.597329
H300	H	1.710046	0.937362	-0.263996
H301	H	1.043408	0.270660	-1.079391
H302	H	1.376741	0.603993	-0.746058
H303	H	1.710075	0.937327	-0.412724
