data_functionalizedCrystal
_audit_creation_method	'MofGen! by Chris Wilmer'
_symmetry_space_group_name_H-M	'P1'
_symmetry_Int_Tables_number	1
_symmetry_cell_setting	triclinic
loop_
_symmetry_equiv_pos_as_xyz
  x,y,z
_cell_length_a	17.077404
_cell_length_b	13.897447
_cell_length_c	17.077396
_cell_angle_alpha	90.026095
_cell_angle_beta	90.018362
_cell_angle_gamma	90.017500
loop_
_atom_site_label
_atom_site_type_symbol
_atom_site_fract_x
_atom_site_fract_y
_atom_site_fract_z
Zn1	Zn	1.200073	-0.384067	0.443832
Zn2	Zn	1.533406	-0.050734	0.777165
Zn3	Zn	1.866740	0.282600	1.110499
Zn4	Zn	1.199988	-0.545380	0.312571
Zn5	Zn	1.533321	-0.212046	0.645905
Zn6	Zn	1.866654	0.121287	0.979238
Zn7	Zn	1.068805	-0.384095	0.312582
Zn8	Zn	1.402138	-0.050761	0.645916
Zn9	Zn	1.735471	0.282572	0.979249
Zn10	Zn	1.068780	-0.545316	0.443798
Zn11	Zn	1.402114	-0.211983	0.777131
Zn12	Zn	1.735447	0.121351	1.110464
O13	O	1.134411	-0.464714	0.378196
O14	O	1.467745	-0.131381	0.711529
O15	O	1.801078	0.201952	1.044862
O16	O	1.309909	-0.405481	0.426430
O17	O	1.643242	-0.072147	0.759763
O18	O	1.976575	0.261186	1.093096
O19	O	1.182561	-0.524023	0.202726
O20	O	1.515894	-0.190690	0.536059
O21	O	1.849227	0.142644	0.869392
O22	O	1.086264	-0.249109	0.330012
O23	O	1.419597	0.084224	0.663345
O24	O	1.752930	0.417557	0.996679
O25	O	1.309846	-0.523996	0.329993
O26	O	1.643179	-0.190663	0.663326
O27	O	1.976513	0.142670	0.996660
O28	O	1.182706	-0.249089	0.426440
O29	O	1.516039	0.084244	0.759774
O30	O	1.849372	0.417578	1.093107
O31	O	1.086181	-0.405528	0.202734
O32	O	1.419514	-0.072194	0.536067
O33	O	1.752848	0.261139	0.869401
O34	O	0.958955	-0.405466	0.329979
O35	O	1.292288	-0.072133	0.663312
O36	O	1.625621	0.261201	0.996645
O37	O	1.086222	-0.523888	0.553649
O38	O	1.419555	-0.190555	0.886982
O39	O	1.752889	0.142779	1.220316
O40	O	0.958937	-0.523915	0.426382
O41	O	1.292270	-0.190581	0.759715
O42	O	1.625603	0.142752	1.093048
O43	O	1.182682	-0.405419	0.553674
O44	O	1.516015	-0.072086	0.887008
O45	O	1.849349	0.261248	1.220341
O46	O	1.182537	-0.680353	0.329960
O47	O	1.515870	-0.347020	0.663293
O48	O	1.849204	-0.013686	0.996626
O49	O	1.086139	-0.680306	0.426371
O50	O	1.419473	-0.346973	0.759704
O51	O	1.752806	-0.013640	1.093038
C52	C	0.930464	-0.464687	0.378178
C53	C	1.263797	-0.131354	0.711512
C54	C	1.597130	0.201980	1.044845
C55	C	0.843214	-0.464699	0.378189
C56	C	1.176547	-0.131365	0.711523
C57	C	1.509880	0.201968	1.044856
C58	C	0.802257	-0.403097	0.428480
C59	C	1.135590	-0.069764	0.761814
C60	C	1.468924	0.263569	1.095147
C61	C	0.720277	-0.403103	0.428484
C62	C	1.053610	-0.069770	0.761817
C63	C	1.386943	0.263563	1.095151
C64	C	0.679254	-0.464717	0.378200
C65	C	1.012588	-0.131383	0.711533
C66	C	1.345921	0.201950	1.044867
C67	C	0.720217	-0.526321	0.327903
C68	C	1.053550	-0.192987	0.661237
C69	C	1.386884	0.140346	0.994570
C70	C	0.802196	-0.526309	0.327896
C71	C	1.135529	-0.192976	0.661230
C72	C	1.468863	0.140358	0.994563
C73	C	0.549347	-0.526343	0.327923
C74	C	0.882680	-0.193009	0.661256
C75	C	1.216014	0.140324	0.994589
C76	C	0.467362	-0.526356	0.327930
C77	C	0.800696	-0.193023	0.661264
C78	C	1.134029	0.140311	0.994597
C79	C	0.467428	-0.403137	0.428511
C80	C	0.800761	-0.069804	0.761844
C81	C	1.134094	0.263530	1.095177
C82	C	0.549406	-0.403125	0.428504
C83	C	0.882740	-0.069792	0.761837
C84	C	1.216073	0.263541	1.095170
C85	C	0.590363	-0.464731	0.378208
C86	C	0.923697	-0.131398	0.711541
C87	C	1.257030	0.201936	1.044874
C88	C	1.134348	-0.715329	0.378178
C89	C	1.467681	-0.381995	0.711511
C90	C	1.801014	-0.048662	1.044844
C91	C	1.134392	-0.822543	0.378196
C92	C	1.467725	-0.489209	0.711529
C93	C	1.801059	-0.155876	1.044863
C94	C	1.134430	-0.909612	0.378214
C95	C	1.467763	-0.576279	0.711547
C96	C	1.801097	-0.242946	1.044881
C97	C	1.134485	-1.018845	0.378234
C98	C	1.467818	-0.685512	0.711567
C99	C	1.801152	-0.352178	1.044901
C100	C	1.339156	-0.464743	0.378214
C101	C	1.672489	-0.131409	0.711547
C102	C	2.005822	0.201924	1.044881
C103	C	1.426405	-0.464755	0.378222
C104	C	1.759739	-0.131421	0.711555
C105	C	2.093072	0.201912	1.044888
C106	C	1.134459	-0.464643	0.582940
C107	C	1.467792	-0.131310	0.916273
C108	C	1.801126	0.202023	1.249607
C109	C	1.134479	-0.464613	0.670190
C110	C	1.467812	-0.131280	1.003523
C111	C	1.801146	0.202054	1.336857
C112	C	1.134497	-0.213121	0.378231
C113	C	1.467830	0.120212	0.711565
C114	C	1.801164	0.453545	1.044898
C115	C	1.134533	-0.105907	0.378246
C116	C	1.467867	0.227426	0.711580
C117	C	1.801200	0.560759	1.044913
C118	C	1.134409	-0.464716	0.174248
C119	C	1.467743	-0.131382	0.507581
C120	C	1.801076	0.201951	0.840915
C121	C	1.134541	-0.464474	0.086999
C122	C	1.467874	-0.131141	0.420332
C123	C	1.801208	0.202192	0.753665
C124	C	1.184708	-0.402921	0.711195
C125	C	1.518041	-0.069588	1.044528
C126	C	1.851374	0.263745	1.377861
C127	C	1.184717	-0.402889	0.793175
C128	C	1.518051	-0.069556	1.126508
C129	C	1.851384	0.263778	1.459842
C130	C	1.134501	-0.464554	0.834149
C131	C	1.467835	-0.131221	1.167483
C132	C	1.801168	0.202112	1.500816
C133	C	1.084267	-0.526249	0.793139
C134	C	1.417601	-0.192916	1.126473
C135	C	1.750934	0.140418	1.459806
C136	C	1.084255	-0.526276	0.711160
C137	C	1.417588	-0.192942	1.044494
C138	C	1.750921	0.140391	1.377827
C139	C	1.084299	-0.526191	0.964009
C140	C	1.417632	-0.192858	1.297343
C141	C	1.750966	0.140476	1.630676
C142	C	1.084313	-0.526166	1.045994
C143	C	1.417646	-0.192833	1.379327
C144	C	1.750979	0.140501	1.712661
C145	C	1.184762	-0.402805	1.046024
C146	C	1.518095	-0.069471	1.379358
C147	C	1.851428	0.263862	1.712691
C148	C	1.184749	-0.402831	0.964045
C149	C	1.518082	-0.069498	1.297379
C150	C	1.851415	0.263836	1.630712
C151	C	1.134516	-0.464527	0.923041
C152	C	1.467849	-0.131194	1.256374
C153	C	1.801182	0.202139	1.589707
H154	H	0.582805	-0.352960	0.469454
H155	H	0.916138	-0.019627	0.802787
H156	H	1.249471	0.313707	1.136121
H157	H	0.686933	-0.352943	0.469438
H158	H	1.020266	-0.019610	0.802771
H159	H	1.353600	0.313723	1.136104
Br160	Br	0.664545	-0.609932	0.259653
Br161	Br	0.997878	-0.276599	0.592986
Br162	Br	1.331212	0.056735	0.926320
H163	H	1.043421	-0.576377	1.079353
H164	H	1.376754	-0.243044	1.412687
H165	H	1.710087	0.090289	1.746020
Br166	Br	1.252924	-0.319206	0.848821
Br167	Br	1.586257	0.014128	1.182155
Br168	Br	1.919591	0.347461	1.515488
Br169	Br	0.411845	-0.319529	0.496769
Br170	Br	0.745178	0.013804	0.830103
Br171	Br	1.078511	0.347138	1.163436
H172	H	0.582691	-0.576506	0.286964
H173	H	0.916025	-0.243173	0.620298
H174	H	1.249358	0.090161	0.953631
H175	H	0.433964	-0.576528	0.286985
H176	H	0.767298	-0.243194	0.620319
H177	H	1.100631	0.090139	0.953652
Br178	Br	0.857781	-0.609912	0.259640
Br179	Br	1.191115	-0.276579	0.592973
Br180	Br	1.524448	0.056754	0.926307
H181	H	1.225602	-0.352709	0.677839
H182	H	1.558935	-0.019376	1.011172
H183	H	1.892268	0.313958	1.344506
Br184	Br	1.252906	-0.319150	0.908437
Br185	Br	1.586240	0.014183	1.241770
Br186	Br	1.919573	0.347517	1.575104
Br187	Br	1.252939	-0.319078	1.101672
Br188	Br	1.586272	0.014256	1.435005
Br189	Br	1.919605	0.347589	1.768339
H190	H	1.043381	-0.576416	0.930626
H191	H	1.376715	-0.243082	1.263959
H192	H	1.710048	0.090251	1.597293
H193	H	1.043378	-0.576455	0.826507
H194	H	1.376711	-0.243121	1.159840
H195	H	1.710045	0.090212	1.493174
H196	H	1.043345	-0.576502	0.677775
H197	H	1.376679	-0.243168	1.011109
H198	H	1.710012	0.090165	1.344442
Br199	Br	0.857922	-0.319481	0.496733
Br200	Br	1.191255	0.013852	0.830066
Br201	Br	1.524589	0.347185	1.163399
