data_functionalizedCrystal
_audit_creation_method	'MofGen! by Chris Wilmer'
_symmetry_space_group_name_H-M	'P1'
_symmetry_Int_Tables_number	1
_symmetry_cell_setting	triclinic
loop_
_symmetry_equiv_pos_as_xyz
  x,y,z
_cell_length_a	16.959455
_cell_length_b	16.959453
_cell_length_c	11.169409
_cell_angle_alpha	90.037272
_cell_angle_beta	90.024447
_cell_angle_gamma	90.018936
loop_
_atom_site_label
_atom_site_type_symbol
_atom_site_fract_x
_atom_site_fract_y
_atom_site_fract_z
Zn1	Zn	1.208445	-0.314640	0.678650
Zn2	Zn	1.208349	-0.446846	0.477949
Zn3	Zn	1.076255	-0.314683	0.477968
Zn4	Zn	1.076238	-0.446778	0.678578
O5	O	1.142322	-0.380737	0.578286
O6	O	1.319043	-0.332188	0.652048
O7	O	1.190794	-0.429362	0.310002
O8	O	1.093837	-0.204067	0.504626
O9	O	1.318973	-0.429319	0.504595
O10	O	1.190956	-0.204035	0.652066
O11	O	1.093745	-0.332262	0.310015
O12	O	0.965642	-0.332196	0.504557
O13	O	1.093808	-0.429202	0.846537
O14	O	0.965629	-0.429245	0.651944
O15	O	1.190940	-0.332121	0.846590
O16	O	1.190777	-0.557448	0.504525
O17	O	1.093716	-0.557398	0.651926
C18	C	0.936955	-0.380718	0.578246
C19	C	0.849099	-0.380729	0.578257
C20	C	0.807808	-0.330128	0.501642
C21	C	0.807836	-0.431336	0.654889
C22	C	0.725290	-0.431345	0.654907
C23	C	0.683999	-0.380744	0.578292
C24	C	0.725255	-0.330134	0.501660
C25	C	0.684029	-0.481949	0.731546
C26	C	0.601478	-0.481959	0.731568
C27	C	0.560186	-0.431361	0.654946
C28	C	0.601446	-0.380750	0.578310
C29	C	0.560155	-0.330149	0.501695
C30	C	0.601414	-0.279540	0.425051
C31	C	0.683962	-0.279536	0.425038
C32	C	0.477637	-0.431366	0.654960
C33	C	0.477602	-0.330154	0.501713
C34	C	1.142256	-0.586103	0.578242
C35	C	1.142300	-0.673960	0.578263
C36	C	1.192956	-1.045360	0.655203
C37	C	1.091908	-1.045510	0.501547
C38	C	1.091879	-0.962965	0.501520
C39	C	1.142388	-0.921613	0.578336
C40	C	1.192927	-0.962806	0.655180
C41	C	1.041335	-0.921765	0.424686
C42	C	1.041303	-0.839214	0.424656
C43	C	1.091817	-0.797860	0.501467
C44	C	1.142359	-0.839059	0.578314
C45	C	1.192868	-0.797707	0.655130
C46	C	1.243414	-0.838905	0.731971
C47	C	1.243441	-0.921453	0.731992
C48	C	1.091790	-0.715312	0.501447
C49	C	1.192839	-0.715154	0.655108
C50	C	1.348490	-0.380756	0.578328
C51	C	1.436347	-0.380765	0.578345
C52	C	1.142382	-0.380649	0.891329
C53	C	1.142408	-0.380612	1.024729
C54	C	1.142409	-0.174569	0.578357
C55	C	1.142447	-0.086712	0.578387
C56	C	1.142307	-0.380767	0.266461
C57	C	1.142434	-0.380582	0.133062
H58	H	0.444048	-0.472565	0.717370
O59	O	0.986800	-0.794786	0.341760
H60	H	0.924760	-0.810662	0.362243
O61	O	0.852306	-0.275552	0.418973
H62	H	0.809723	-0.240374	0.365696
O63	O	1.037285	-0.670874	0.418575
H64	H	1.002170	-0.713497	0.365161
H65	H	0.567892	-0.523168	0.793974
H66	H	0.567784	-0.238337	0.362677
H67	H	1.284592	-0.955003	0.794552
H68	H	0.717562	-0.238333	0.362640
H69	H	1.234112	-1.078907	0.717762
O70	O	1.037442	-1.090105	0.418681
H71	H	1.045959	-1.154428	0.431597
O72	O	1.247327	-0.670552	0.737947
H73	H	1.282475	-0.713069	0.791378
H74	H	0.841460	-0.472530	0.717271
H75	H	0.717654	-0.523143	0.793926
O76	O	0.986867	-0.966375	0.341842
H77	H	0.924814	-0.950581	0.362336
H78	H	0.443988	-0.288949	0.439321
H79	H	1.284536	-0.805226	0.794521
