data_functionalizedCrystal
_audit_creation_method	'MofGen! by Chris Wilmer'
_symmetry_space_group_name_H-M	'P1'
_symmetry_Int_Tables_number	1
_symmetry_cell_setting	triclinic
loop_
_symmetry_equiv_pos_as_xyz
  x,y,z
_cell_length_a	10.723022
_cell_length_b	13.596369
_cell_length_c	10.723023
_cell_angle_alpha	89.996484
_cell_angle_beta	84.467387
_cell_angle_gamma	90.006782
loop_
_atom_site_label
_atom_site_type_symbol
_atom_site_fract_x
_atom_site_fract_y
_atom_site_fract_z
O1	O	1.657169	-0.081782	0.175020
O2	O	1.294016	-0.081785	0.191775
O3	O	1.483970	-0.081780	0.001821
O4	O	1.467216	-0.081787	0.364974
O5	O	1.483993	0.081803	0.001811
O6	O	1.294040	0.081798	0.191765
O7	O	1.657193	0.081801	0.175010
Zn8	Zn	1.475620	0.107772	0.183386
Zn9	Zn	1.475589	-0.107756	0.183399
O10	O	1.467239	0.081796	0.364964
C11	C	1.247529	0.000006	0.190551
C12	C	1.108974	0.000005	0.186904
C13	C	1.060414	0.000006	0.077365
C14	C	0.917211	0.000005	0.073593
N15	N	1.475569	-0.254848	0.183400
C16	C	1.475573	-0.343845	0.183401
C17	C	1.475591	-0.455497	0.183398
C18	C	1.475612	-0.544487	0.183389
C19	C	1.475629	-0.656146	0.183385
C20	C	1.703681	0.000008	0.176234
C21	C	1.842235	0.000003	0.179881
C22	C	1.482763	0.000010	-0.044683
C23	C	1.479115	0.000006	-0.183238
N24	N	1.475650	0.254864	0.183376
C25	C	1.477501	0.084745	-0.245021
C26	C	1.473732	0.084743	-0.388224
C27	C	1.468446	0.000004	0.411469
C28	C	1.472094	0.000001	0.550023
H29	H	1.124856	0.000004	-0.013624
H30	H	1.473471	-0.072551	-0.396852
H31	H	1.477712	-0.072543	-0.236361
H32	H	0.875399	-0.000018	-0.020195
H33	H	0.884038	0.000007	0.273673
H34	H	1.478917	0.157295	-0.191899
H35	H	1.044532	-0.000001	0.277893
C36	C	1.579771	0.236719	-0.441683
C37	C	1.471853	0.182687	-0.459941
H38	H	1.578603	0.297189	-0.485955
H39	H	1.651836	0.200061	-0.471854
H40	H	1.582048	0.249566	-0.354854
H41	H	1.469581	0.169833	-0.546769
H42	H	1.399768	0.219353	-0.429776
