data_functionalizedCrystal
_audit_creation_method	'MofGen! by Chris Wilmer'
_symmetry_space_group_name_H-M	'P1'
_symmetry_Int_Tables_number	1
_symmetry_cell_setting	triclinic
loop_
_symmetry_equiv_pos_as_xyz
  x,y,z
_cell_length_a	10.686220
_cell_length_b	18.215405
_cell_length_c	18.215399
_cell_angle_alpha	89.969449
_cell_angle_beta	85.648888
_cell_angle_gamma	85.593045
loop_
_atom_site_label
_atom_site_type_symbol
_atom_site_fract_x
_atom_site_fract_y
_atom_site_fract_z
Zn1	Zn	1.929037	0.206568	0.329900
Zn2	Zn	1.928880	0.329646	0.206835
Zn3	Zn	1.718027	0.216044	0.216277
Zn4	Zn	1.717968	0.339053	0.339285
O5	O	1.823478	0.272828	0.273074
O6	O	2.105592	0.214991	0.305696
O7	O	1.900868	0.314606	0.105105
O8	O	1.746108	0.111799	0.231373
O9	O	2.105476	0.305416	0.215281
O10	O	1.901136	0.104836	0.314851
O11	O	1.745956	0.231143	0.112042
O12	O	1.541443	0.240265	0.240473
O13	O	1.746008	0.321450	0.441023
O14	O	1.541400	0.330639	0.330847
O15	O	1.901079	0.224113	0.434128
O16	O	1.900812	0.433882	0.224381
O17	O	1.745856	0.440794	0.321692
C18	C	1.495638	0.287502	0.287703
C19	C	1.355386	0.293797	0.293979
C20	C	1.823555	0.272774	0.465024
C21	C	1.823588	0.272751	0.546821
C22	C	1.823345	0.464040	0.273045
C23	C	1.823403	0.545836	0.273052
C24	C	2.152598	0.258097	0.258389
C25	C	2.292850	0.251820	0.252130
C26	C	1.823646	0.080867	0.273119
C27	C	1.823718	-0.000935	0.273137
C28	C	1.904278	0.730398	0.222460
C29	C	1.904334	0.807255	0.222476
C30	C	1.742839	0.814498	0.323734
C31	C	1.742790	0.737643	0.323722
C32	C	1.823508	0.695595	0.273081
C33	C	1.823613	0.849306	0.273108
C34	C	1.823674	0.932637	0.273125
C35	C	1.823449	0.612259	0.273064
C36	C	1.823474	0.272825	0.081868
C37	C	1.823686	0.272630	0.000060
C38	C	1.904362	0.222022	0.731425
C39	C	1.904377	0.222000	0.808283
C40	C	1.742902	0.323361	0.815452
C41	C	1.742882	0.323379	0.738595
C42	C	1.823619	0.272711	0.696584
C43	C	1.823654	0.272670	0.850298
C44	C	1.823670	0.272647	0.933631
C45	C	1.823602	0.272733	0.613245
H46	H	1.301623	0.334558	0.334607
H47	H	1.970108	0.835588	0.181257
N48	N	1.991467	0.167335	0.845869
H49	H	1.940221	0.135518	0.880049
H50	H	2.042594	0.135289	0.807549
N51	N	1.991445	0.167377	0.686113
H52	H	1.979192	0.175082	0.632137
H53	H	2.081550	0.174803	0.695536
H54	H	1.970005	0.696165	0.181227
H55	H	1.677120	0.848742	0.364963
N56	N	1.655798	0.378050	0.701001
H57	H	1.597348	0.350759	0.671729
H58	H	1.604738	0.410140	0.739311
H59	H	1.677017	0.709304	0.364946
N60	N	1.364044	0.197836	0.198307
H61	H	1.457504	0.200838	0.201303
H62	H	1.341107	0.146309	0.210871
N63	N	1.655806	0.377999	0.860765
H64	H	1.668065	0.370294	0.914741
H65	H	1.675377	0.429689	0.846448
