data_functionalizedCrystal
_audit_creation_method	'MofGen! by Chris Wilmer'
_symmetry_space_group_name_H-M	'P1'
_symmetry_Int_Tables_number	1
_symmetry_cell_setting	triclinic
loop_
_symmetry_equiv_pos_as_xyz
  x,y,z
_cell_length_a	12.759401
_cell_length_b	12.759399
_cell_length_c	12.759393
_cell_angle_alpha	89.967969
_cell_angle_beta	89.980163
_cell_angle_gamma	90.016641
loop_
_atom_site_label
_atom_site_type_symbol
_atom_site_fract_x
_atom_site_fract_y
_atom_site_fract_z
Zn1	Zn	1.606252	-0.418161	-0.594017
Zn2	Zn	1.606145	-0.593880	-0.418336
Zn3	Zn	1.430554	-0.418220	-0.418352
Zn4	Zn	1.430541	-0.593803	-0.593973
O5	O	1.518373	-0.506016	-0.506170
O6	O	1.753259	-0.441478	-0.570724
O7	O	1.582813	-0.570635	-0.271317
O8	O	1.453911	-0.271191	-0.441680
O9	O	1.753180	-0.570578	-0.441652
O10	O	1.582995	-0.271148	-0.570740
O11	O	1.453807	-0.441579	-0.271329
O12	O	1.283531	-0.441505	-0.441637
O13	O	1.453889	-0.570447	-0.741000
O14	O	1.283522	-0.570504	-0.570665
O15	O	1.582983	-0.441403	-0.741032
O16	O	1.582801	-0.740891	-0.441609
O17	O	1.453785	-0.740834	-0.570649
C18	C	1.245406	-0.506003	-0.506149
C19	C	1.128629	-0.506023	-0.506165
C20	C	1.073790	-0.573296	-0.573244
C21	C	0.964066	-0.573300	-0.573265
C22	C	0.964030	-0.438756	-0.439118
C23	C	1.073752	-0.438747	-0.439104
C24	C	1.518309	-0.778984	-0.506146
C25	C	1.518377	-0.895760	-0.506171
C26	C	1.585632	-0.950617	-0.439056
C27	C	1.585700	-1.060341	-0.439091
C28	C	1.451248	-1.060342	-0.573359
C29	C	1.451187	-0.950620	-0.573328
C30	C	1.709709	-1.210217	-0.401704
C31	C	1.776955	-1.265077	-0.334573
C32	C	1.793119	-1.229538	-0.232062
C33	C	1.742023	-1.139141	-0.196662
C34	C	1.674769	-1.084287	-0.263788
C35	C	1.658625	-1.119824	-0.366313
C36	C	1.327176	-0.800742	-0.610705
C37	C	1.259916	-0.745885	-0.677826
C38	C	1.243741	-0.781422	-0.780338
C39	C	1.294819	-0.871822	-0.815734
C40	C	1.362079	-0.926679	-0.748613
C41	C	1.378256	-0.891135	-0.646102
C42	C	1.792406	-0.506030	-0.506191
C43	C	1.909183	-0.506036	-0.506200
C44	C	1.518446	-0.505910	-0.780203
C45	C	1.518478	-0.505865	-0.896980
C46	C	1.518466	-0.231983	-0.506217
C47	C	1.518506	-0.115206	-0.506237
C48	C	1.451328	-0.438653	-0.951848
C49	C	1.451353	-0.438620	-1.061572
C50	C	1.585685	-0.573015	-1.061551
C51	C	1.585654	-0.573052	-0.951829
C52	C	1.518360	-0.506046	-0.233202
C53	C	1.518533	-0.505796	-0.116426
H54	H	1.118467	-0.628073	-0.627852
O55	O	0.910958	-0.638749	-0.638457
C56	C	0.922580	-0.772156	-0.771551
C57	C	0.982854	-0.698104	-0.697753
H58	H	0.980681	-0.820147	-0.819527
H59	H	0.871201	-0.827106	-0.723279
H60	H	0.871222	-0.723973	-0.826537
H61	H	1.034268	-0.746202	-0.642753
H62	H	1.034166	-0.643150	-0.746091
O63	O	1.858360	-1.282991	-0.166903
C64	C	1.895016	-1.446601	-0.079929
C65	C	1.821055	-1.386194	-0.153745
H66	H	1.864871	-1.530045	-0.069249
H67	H	1.977081	-1.448815	-0.115220
H68	H	1.897815	-1.405629	-0.000602
H69	H	1.818167	-1.427118	-0.233089
H70	H	1.739028	-1.383973	-0.118369
O71	O	1.126867	-0.373362	-0.373839
C72	C	1.115263	-0.239869	-0.240830
C73	C	1.054979	-0.313879	-0.314662
H74	H	1.057167	-0.191741	-0.192983
H75	H	1.166568	-0.287985	-0.185735
H76	H	1.166694	-0.185034	-0.289175
H77	H	1.003491	-0.368728	-0.266402
H78	H	1.003740	-0.265698	-0.369760
H79	H	1.696564	-1.239154	-0.485179
O80	O	1.651054	-0.638120	-1.114881
C81	C	1.792887	-0.652224	-1.238815
C82	C	1.718936	-0.578373	-1.178469
H83	H	1.847774	-0.603949	-1.290257
H84	H	1.840952	-0.700253	-1.180798
H85	H	1.744624	-0.707157	-1.290124
H86	H	1.767119	-0.523376	-1.127159
H87	H	1.670868	-0.530417	-1.236543
H88	H	1.640338	-0.627788	-0.907154
H89	H	1.640344	-0.905952	-0.384374
O90	O	1.625255	-0.996474	-0.229261
C91	C	1.597654	-0.877385	-0.085372
C92	C	1.653806	-0.976840	-0.124348
H93	H	1.620699	-0.861493	-0.000539
H94	H	1.621381	-0.807836	-0.136254
H95	H	1.509242	-0.889243	-0.090455
H96	H	1.742228	-0.965085	-0.119265
H97	H	1.629994	-1.046354	-0.073460
O98	O	1.385968	-0.373366	-0.898729
C99	C	1.252765	-0.240028	-0.910336
C100	C	1.326721	-0.313927	-0.970618
H101	H	1.204861	-0.191937	-0.968432
H102	H	1.197729	-0.288230	-0.858983
H103	H	1.301018	-0.185155	-0.858953
H104	H	1.278553	-0.368815	-1.022059
H105	H	1.381760	-0.265660	-1.021906
H106	H	0.919336	-0.383984	-0.384518
H107	H	1.755182	-1.110219	-0.113184
H108	H	1.403673	-1.000285	-0.777443
H109	H	1.396672	-0.383891	-1.106240
H110	H	1.818558	-1.338678	-0.363405
H111	H	1.396543	-1.105022	-0.628034
H112	H	1.281649	-0.900757	-0.899208
O113	O	1.178431	-0.728263	-0.845674
C114	C	1.101197	-0.718562	-1.017718
C115	C	1.175142	-0.778887	-0.943818
H116	H	1.098530	-0.759454	-1.097090
H117	H	1.019091	-0.716435	-0.982517
H118	H	1.131287	-0.635083	-1.028273
H119	H	1.145147	-0.862393	-0.933234
H120	H	1.257235	-0.780928	-0.979053
H121	H	1.218332	-0.672272	-0.649000
O122	O	1.342714	-0.766286	-0.511069
C123	C	1.264049	-0.725747	-0.344233
C124	C	1.246315	-0.764803	-0.457033
H125	H	1.186122	-0.724514	-0.300519
H126	H	1.320842	-0.780485	-0.302272
H127	H	1.298313	-0.643248	-0.346428
H128	H	1.212017	-0.847286	-0.454934
H129	H	1.189560	-0.709993	-0.498948
