data_functionalizedCrystal
_audit_creation_method	'MofGen! by Chris Wilmer'
_symmetry_space_group_name_H-M	'P1'
_symmetry_Int_Tables_number	1
_symmetry_cell_setting	triclinic
loop_
_symmetry_equiv_pos_as_xyz
  x,y,z
_cell_length_a	11.792241
_cell_length_b	9.065215
_cell_length_c	8.140239
_cell_angle_alpha	90.002190
_cell_angle_beta	89.996328
_cell_angle_gamma	95.395943
loop_
_atom_site_label
_atom_site_type_symbol
_atom_site_fract_x
_atom_site_fract_y
_atom_site_fract_z
O1	O	0.166414	-1.958841	-0.136595
O2	O	0.499747	-1.625507	0.196738
O3	O	0.833081	-1.292174	0.530071
O4	O	0.180069	-1.529427	-0.136603
O5	O	0.513402	-1.196094	0.196731
O6	O	0.846736	-0.862761	0.530064
O7	O	0.008129	-1.754555	-0.136587
O8	O	0.341462	-1.421221	0.196746
O9	O	0.674795	-1.087888	0.530079
O10	O	0.338354	-1.733713	-0.136611
O11	O	0.671688	-1.400380	0.196723
O12	O	1.005021	-1.067047	0.530056
O13	O	0.008127	-1.754542	0.136640
O14	O	0.341460	-1.421209	0.469973
O15	O	0.674793	-1.087876	0.803306
O16	O	0.180067	-1.529415	0.136624
O17	O	0.513400	-1.196082	0.469958
O18	O	0.846734	-0.862748	0.803291
O19	O	0.166412	-1.958828	0.136632
O20	O	0.499745	-1.625495	0.469965
O21	O	0.833079	-1.292162	0.803298
Zn22	Zn	0.173239	-1.744120	0.180009
Zn23	Zn	0.506572	-1.410786	0.513342
Zn24	Zn	0.839906	-1.077453	0.846675
Zn25	Zn	0.173242	-1.744136	-0.179980
Zn26	Zn	0.506575	-1.410803	0.153354
Zn27	Zn	0.839909	-1.077469	0.486687
O28	O	0.338352	-1.733701	0.136616
O29	O	0.671686	-1.400368	0.469950
O30	O	1.005019	-1.067034	0.803283
C31	C	-0.034171	-1.753239	0.000026
C32	C	0.299163	-1.419906	0.333359
C33	C	0.632496	-1.086573	0.666692
C34	C	-0.160206	-1.749321	0.000024
C35	C	0.173127	-1.415988	0.333357
C36	C	0.506461	-1.082654	0.666691
C37	C	0.178756	-1.474447	0.000010
C38	C	0.512090	-1.141113	0.333343
C39	C	0.845423	-0.807780	0.666677
C40	C	0.174835	-1.310640	0.000007
C41	C	0.508168	-0.977307	0.333341
C42	C	0.841501	-0.643974	0.666674
C43	C	0.167725	-2.013809	0.000015
C44	C	0.501058	-1.680476	0.333349
C45	C	0.834391	-1.347142	0.666682
C46	C	0.171646	-2.177615	0.000007
C47	C	0.504980	-1.844282	0.333341
C48	C	0.838313	-1.510949	0.666674
C49	C	-0.390958	-1.742116	-0.000004
C50	C	-0.057625	-1.408782	0.333330
C51	C	0.275709	-1.075449	0.666663
C52	C	-0.262551	-1.746119	0.000011
C53	C	0.070783	-1.412786	0.333345
C54	C	0.404116	-1.079452	0.666678
C55	C	0.380652	-1.735016	-0.000000
C56	C	0.713985	-1.401683	0.333333
C57	C	1.047318	-1.068350	0.666666
C58	C	0.506687	-1.738935	-0.000009
C59	C	0.840020	-1.405601	0.333324
C60	C	1.173354	-1.072268	0.666657
N61	N	0.173237	-1.744119	0.425691
N62	N	0.506570	-1.410786	0.759025
N63	N	0.839903	-1.077452	1.092358
N64	N	0.173235	-1.744148	-0.425662
N65	N	0.506569	-1.410815	-0.092329
N66	N	0.839902	-1.077481	0.241004
