data_functionalizedCrystal
_audit_creation_method	'MofGen! by Chris Wilmer'
_symmetry_space_group_name_H-M	'P1'
_symmetry_Int_Tables_number	1
_symmetry_cell_setting	triclinic
loop_
_symmetry_equiv_pos_as_xyz
  x,y,z
_cell_length_a	13.339070
_cell_length_b	14.853559
_cell_length_c	12.376457
_cell_angle_alpha	101.294162
_cell_angle_beta	75.589755
_cell_angle_gamma	99.630374
loop_
_atom_site_label
_atom_site_type_symbol
_atom_site_fract_x
_atom_site_fract_y
_atom_site_fract_z
O1	O	1.362290	0.439689	-0.094026
O2	O	1.067681	0.380345	-0.094022
O3	O	1.222859	0.280748	-0.094023
O4	O	1.207112	0.539286	-0.094025
O5	O	1.184078	0.305603	0.093990
O6	O	1.028900	0.405201	0.093991
O7	O	1.323509	0.464544	0.093987
Zn8	Zn	1.170047	0.438819	0.123840
Zn9	Zn	1.221143	0.406071	-0.123875
O10	O	1.168331	0.564142	0.093988
C11	C	1.010587	0.382749	-0.000015
C12	C	0.898244	0.352869	-0.000014
C13	C	1.202757	0.259409	-0.000018
C14	C	1.200625	0.158793	-0.000025
C15	C	0.533774	0.585199	-0.000034
C16	C	0.639326	0.613275	-0.000038
C17	C	0.704061	0.548176	-0.000032
C18	C	0.663233	0.454996	-0.000021
C19	C	0.557672	0.426916	-0.000025
C20	C	0.727959	0.389893	-0.000024
C21	C	0.687132	0.296713	-0.000013
C22	C	0.581581	0.268638	-0.000016
C23	C	0.516846	0.333737	-0.000023
C24	C	0.833520	0.417973	-0.000019
C25	C	0.857418	0.259690	-0.000011
C26	C	0.751866	0.231614	-0.000006
C27	C	1.212713	-0.280185	-0.102510
C28	C	1.170432	-0.253081	0.102468
C29	C	1.172445	-0.158546	0.102469
C30	C	1.194591	-0.124827	-0.000021
C31	C	1.214724	-0.185642	-0.102513
C32	C	1.152303	-0.097726	0.204958
C33	C	1.154314	-0.003185	0.204963
C34	C	1.176467	0.030537	0.102472
C35	C	1.196601	-0.030284	-0.000024
C36	C	1.218747	0.003435	-0.102514
C37	C	1.238889	-0.057384	-0.205010
C38	C	1.236877	-0.151921	-0.205004
C39	C	1.178479	0.125074	0.102466
C40	C	1.220758	0.097978	-0.102516
C41	C	1.380603	0.462140	-0.000022
C42	C	1.492948	0.492019	-0.000031
C43	C	1.188433	0.585480	-0.000019
C44	C	1.190567	0.686096	-0.000020
N45	N	1.135184	0.461170	0.292898
N46	N	1.256015	0.383714	-0.292933
C47	C	1.336945	0.331812	0.647882
C48	C	1.361340	0.316167	0.529542
C49	C	1.304803	0.352416	0.470375
C50	C	1.223866	0.404314	0.529560
C51	C	1.199474	0.419967	0.647912
C52	C	1.167332	0.440571	0.470405
C53	C	1.086395	0.492468	0.529590
C54	C	1.062006	0.508118	0.647930
C55	C	1.118544	0.471869	0.707096
C56	C	1.191725	0.424918	0.352053
C57	C	1.054253	0.513073	0.352083
C58	C	1.029858	0.528718	0.470423
H59	H	0.866750	0.493841	-0.000024
C60	C	1.132164	0.063709	0.317711
N61	N	1.115485	0.114094	0.402633
H62	H	0.790006	0.571041	-0.000038
H63	H	0.672562	0.689140	-0.000056
H64	H	0.910127	0.206680	-0.000011
H65	H	1.229116	-0.329707	-0.185961
C66	C	1.091692	0.489054	0.837279
N67	N	1.071463	0.501988	0.935333
C68	C	1.263251	-0.020280	-0.317746
N69	N	1.281603	0.007672	-0.402656
C70	C	0.462561	0.656796	-0.000043
N71	N	0.408922	0.710728	-0.000049
H72	H	1.152396	-0.280543	0.185911
H73	H	1.134268	-0.125188	0.288400
H74	H	1.324670	0.339675	0.374018
C75	C	1.245121	0.135060	-0.215266
N76	N	1.263469	0.162989	-0.300190
H77	H	1.162057	0.174585	0.185917
H78	H	1.257624	0.382663	0.303876
C79	C	1.450363	0.259075	0.464448
N80	N	1.517417	0.216068	0.415418
C81	C	1.399128	0.291946	0.712973
N82	N	1.445968	0.261916	0.762001
C83	C	0.536673	0.166137	-0.000003
N84	N	0.502850	0.088934	0.000012
C85	C	0.972978	0.565212	0.713030
N86	N	0.905919	0.608213	0.762061
C87	C	0.400730	0.302857	-0.000017
N88	N	0.313270	0.279601	-0.000013
C89	C	0.706943	0.129116	-0.000002
N90	N	0.673106	0.051915	-0.000000
H91	H	0.963958	0.570974	0.518626
C92	C	1.259020	-0.218828	-0.317740
N93	N	1.275693	-0.269228	-0.402652
H94	H	1.008217	0.542592	0.303910
