data_functionalizedCrystal
_audit_creation_method	'MofGen! by Chris Wilmer'
_symmetry_space_group_name_H-M	'P1'
_symmetry_Int_Tables_number	1
_symmetry_cell_setting	triclinic
loop_
_symmetry_equiv_pos_as_xyz
  x,y,z
_cell_length_a	16.625548
_cell_length_b	16.625546
_cell_length_c	16.625548
_cell_angle_alpha	89.986596
_cell_angle_beta	89.991764
_cell_angle_gamma	90.023536
loop_
_atom_site_label
_atom_site_type_symbol
_atom_site_fract_x
_atom_site_fract_y
_atom_site_fract_z
Zn1	Zn	-1.232582	0.321112	0.455897
Zn2	Zn	-0.732582	0.821112	0.955897
Zn3	Zn	-1.232515	0.455916	0.321060
Zn4	Zn	-0.732515	0.955916	0.821060
Zn5	Zn	-1.097773	0.321103	0.321078
Zn6	Zn	-0.597773	0.821103	0.821078
Zn7	Zn	-1.097715	0.455909	0.455849
Zn8	Zn	-0.597715	0.955909	0.955849
O9	O	-1.165146	0.388510	0.388471
O10	O	-0.665146	0.888510	0.888471
O11	O	-1.345406	0.339001	0.438023
O12	O	-0.845406	0.839001	0.938023
O13	O	-1.214637	0.438031	0.208230
O14	O	-0.714637	0.938031	0.708230
O15	O	-1.115709	0.208272	0.338990
O16	O	-0.615709	0.708272	0.838990
O17	O	-1.345356	0.438040	0.338959
O18	O	-0.845356	0.938040	0.838959
O19	O	-1.214752	0.208279	0.438041
O20	O	-0.714752	0.708279	0.938041
O21	O	-1.115643	0.338985	0.208243
O22	O	-0.615643	0.838985	0.708243
O23	O	-0.984933	0.338979	0.338943
O24	O	-0.484933	0.838979	0.838943
O25	O	-1.115609	0.438029	0.568688
O26	O	-0.615609	0.938029	1.068688
O27	O	-0.984890	0.438020	0.437959
O28	O	-0.484890	0.938020	0.937959
O29	O	-1.214696	0.338995	0.568723
O30	O	-0.714696	0.838995	1.068723
O31	O	-1.214580	0.568747	0.338912
O32	O	-0.714580	1.068747	0.838912
O33	O	-1.115543	0.568743	0.437942
O34	O	-0.615543	1.068743	0.937942
C35	C	-0.955655	0.388499	0.388449
C36	C	-0.455655	0.888499	0.888449
C37	C	-0.866034	0.388513	0.388458
C38	C	-0.366034	0.888513	0.888458
C39	C	-1.165070	0.598001	0.388437
C40	C	-0.665070	1.098001	0.888437
C41	C	-1.165111	0.687622	0.388450
C42	C	-0.665111	1.187622	0.888450
C43	C	-1.165153	0.388512	0.598780
C44	C	-0.665153	0.888512	1.098780
C45	C	-1.165156	0.388513	0.688401
C46	C	-0.665156	0.888513	1.188401
C47	C	-1.375455	0.388522	0.388494
C48	C	-0.875455	0.888522	0.888494
C49	C	-1.465076	0.388527	0.388504
C50	C	-0.965076	0.888527	0.888504
C51	C	-0.537859	0.388518	0.388493
C52	C	-0.037859	0.888518	0.888493
C53	C	-0.629167	0.388515	0.388480
C54	C	-0.129167	0.888515	0.888480
C55	C	-0.701943	0.388516	0.388475
C56	C	-0.201943	0.888516	0.888475
C57	C	-0.793258	0.388512	0.388464
C58	C	-0.293258	0.888512	0.888464
C59	C	-1.165245	0.178201	0.388523
C60	C	-0.665245	0.678201	0.888523
C61	C	-1.165287	0.088580	0.388545
C62	C	-0.665287	0.588580	0.888545
C63	C	-1.165252	1.015798	0.388534
C64	C	-0.665252	1.515798	0.888534
C65	C	-1.165210	0.924489	0.388513
C66	C	-0.665210	1.424489	0.888513
C67	C	-1.165181	0.851713	0.388491
C68	C	-0.665181	1.351713	0.888491
C69	C	-1.165140	0.760399	0.388471
C70	C	-0.665140	1.260399	0.888471
C71	C	-1.165123	0.388520	1.016577
C72	C	-0.665123	0.888520	1.516577
C73	C	-1.165130	0.388521	0.925268
C74	C	-0.665130	0.888521	1.425268
C75	C	-1.165140	0.388518	0.852492
C76	C	-0.665140	0.888518	1.352492
C77	C	-1.165146	0.388517	0.761178
C78	C	-0.665146	0.888517	1.261178
C79	C	-1.165131	0.388524	1.178980
C80	C	-0.665131	0.888524	1.678980
C81	C	-1.165123	0.388518	1.089359
C82	C	-0.665123	0.888518	1.589359
