data_functionalizedCrystal
_audit_creation_method	'MofGen! by Chris Wilmer'
_symmetry_space_group_name_H-M	'P1'
_symmetry_Int_Tables_number	1
_symmetry_cell_setting	triclinic
loop_
_symmetry_equiv_pos_as_xyz
  x,y,z
_cell_length_a	14.908979
_cell_length_b	14.908968
_cell_length_c	19.805407
_cell_angle_alpha	86.697368
_cell_angle_beta	86.714368
_cell_angle_gamma	89.788607
loop_
_atom_site_label
_atom_site_type_symbol
_atom_site_fract_x
_atom_site_fract_y
_atom_site_fract_z
Zn1	Zn	1.395190	0.278689	0.310335
Zn2	Zn	1.403799	0.429014	0.190283
Zn3	Zn	1.244858	0.287362	0.203288
Zn4	Zn	1.253478	0.437688	0.309557
O5	O	1.324331	0.358188	0.253366
O6	O	1.522156	0.291371	0.289293
O7	O	1.382711	0.410223	0.097292
O8	O	1.257589	0.160388	0.223256
O9	O	1.528481	0.401814	0.201091
O10	O	1.368037	0.154016	0.301904
O11	O	1.265938	0.306152	0.106846
O12	O	1.120177	0.314563	0.222502
O13	O	1.272281	0.416598	0.404377
O14	O	1.126510	0.425007	0.300577
O15	O	1.376396	0.299782	0.404948
O16	O	1.391069	0.555989	0.200336
O17	O	1.280629	0.562361	0.287967
C18	C	1.090719	0.371668	0.262867
C19	C	0.990780	0.377456	0.266946
C20	C	0.853246	0.443204	0.313264
C21	C	0.947148	0.437766	0.309437
C22	C	0.940503	0.322582	0.228279
C23	C	0.846601	0.328020	0.232106
C24	C	0.802976	0.388332	0.274601
C25	C	0.709073	0.393765	0.278431
C26	C	0.702430	0.278586	0.197270
C27	C	0.796331	0.273148	0.193443
C28	C	1.337743	0.591798	0.242670
C29	C	1.343563	0.691733	0.238113
C30	C	1.409303	0.829236	0.186105
C31	C	1.403840	0.735338	0.190384
C32	C	1.288744	0.742032	0.281566
C33	C	1.294208	0.835930	0.277287
C34	C	1.354490	0.879528	0.229556
C35	C	1.359958	0.973427	0.225281
C36	C	1.244859	0.980120	0.316459
C37	C	1.239395	0.886222	0.320738
C38	C	1.558856	0.344657	0.243828
C39	C	1.658796	0.338891	0.239764
C40	C	1.324339	0.358190	0.429908
C41	C	1.324343	0.358190	0.505140
C42	C	1.310885	1.123665	0.264126
C43	C	1.305139	1.023727	0.268734
C44	C	1.378549	0.297374	0.540783
C45	C	1.378541	0.297371	0.611472
C46	C	1.324331	0.358191	0.646516
C47	C	1.270119	0.419010	0.610868
C48	C	1.270123	0.419008	0.540181
C49	C	1.270102	0.419022	0.895942
C50	C	1.270104	0.419022	0.966634
C51	C	1.378520	0.297385	0.967232
C52	C	1.378524	0.297383	0.896545
C53	C	1.324308	0.358199	0.860904
C54	C	1.324316	0.358199	0.784255
C55	C	1.324327	0.358195	0.723163
C56	C	1.324316	0.358206	1.077510
C57	C	1.324306	0.358200	1.002278
H58	H	1.409046	1.008923	0.186418
H59	H	1.422683	0.247850	0.640489
O60	O	0.843392	0.208106	0.147609
H61	H	0.792658	0.170869	0.121363
O62	O	1.223728	0.694995	0.333039
H63	H	1.186523	0.745740	0.362534
H64	H	0.817726	0.492304	0.347871
H65	H	1.458395	0.864733	0.147246
H66	H	0.661490	0.233902	0.165790
O67	O	1.462968	0.681087	0.143528
H68	H	1.448665	0.700036	0.090196
H69	H	1.422661	0.247863	0.996260
H70	H	1.422670	0.247860	0.868015
O71	O	1.437022	0.231779	0.502984
H72	H	1.417552	0.162100	0.520408
H73	H	0.976039	0.273486	0.193676
H74	H	0.673555	0.442871	0.313035
O75	O	1.174376	0.839201	0.372218
H76	H	1.212091	0.794051	0.406999
H77	H	1.225973	0.468523	0.511162
O78	O	1.211640	0.484603	0.648664
H79	H	1.254499	0.528037	0.677133
H80	H	1.200229	1.021078	0.351842
O81	O	1.211622	0.484613	1.004437
H82	H	1.173914	0.526895	0.967779
O83	O	1.211582	0.484570	0.857507
H84	H	1.173876	0.526849	0.893755
O85	O	1.001372	0.496941	0.351142
H86	H	0.955257	0.539785	0.381337
