data_functionalizedCrystal
_audit_creation_method	'MofGen! by Chris Wilmer'
_symmetry_space_group_name_H-M	'P1'
_symmetry_Int_Tables_number	1
_symmetry_cell_setting	triclinic
loop_
_symmetry_equiv_pos_as_xyz
  x,y,z
_cell_length_a	19.188933
_cell_length_b	19.188930
_cell_length_c	14.750779
_cell_angle_alpha	77.396187
_cell_angle_beta	102.599826
_cell_angle_gamma	83.145175
loop_
_atom_site_label
_atom_site_type_symbol
_atom_site_fract_x
_atom_site_fract_y
_atom_site_fract_z
O1	O	0.910945	0.102365	-0.079807
O2	O	1.410945	0.602365	0.420193
O3	O	0.707632	0.114100	-0.079818
O4	O	1.207632	0.614100	0.420182
O5	O	0.815159	0.006573	-0.079793
O6	O	1.315159	0.506573	0.420207
O7	O	0.803418	0.209892	-0.079832
O8	O	1.303418	0.709892	0.420168
O9	O	0.845556	-0.023820	0.079864
O10	O	1.345556	0.476180	0.579864
O11	O	0.738029	0.083707	0.079840
O12	O	1.238029	0.583707	0.579840
O13	O	0.941342	0.071972	0.079850
O14	O	1.441342	0.571972	0.579850
Zn15	Zn	0.844511	0.073014	0.105194
Zn16	Zn	1.344511	0.573014	0.605194
Zn17	Zn	0.804462	0.113058	-0.105161
Zn18	Zn	1.304462	0.613058	0.394839
O19	O	0.833814	0.179498	0.079826
O20	O	1.333814	0.679498	0.579826
C21	C	0.696819	0.098523	0.000010
C22	C	1.196819	0.598523	0.500010
C23	C	0.619314	0.097383	0.000007
C24	C	1.119314	0.597383	0.500007
C25	C	0.049492	0.105802	-0.087011
C26	C	0.549492	0.605802	0.412989
C27	C	0.122315	0.106871	-0.087014
C28	C	0.622315	0.606871	0.412986
C29	C	0.175301	0.090841	0.000014
C30	C	0.675301	0.590841	0.500014
C31	C	0.155462	0.073723	0.087053
C32	C	0.655462	0.573723	0.587053
C33	C	0.082640	0.072648	0.087055
C34	C	0.582640	0.572648	0.587055
N35	N	0.296653	0.119930	0.064786
N36	N	0.796653	0.619930	0.564786
N37	N	0.365829	0.120954	0.064779
N38	N	0.865829	0.620954	0.564779
C39	C	0.394710	0.094079	0.000015
C40	C	0.894710	0.594079	0.500015
N41	N	0.351798	0.066153	-0.064755
N42	N	0.851798	0.566153	0.435245
N43	N	0.282614	0.065132	-0.064751
N44	N	0.782614	0.565132	0.435249
C45	C	0.254266	0.092005	0.000022
C46	C	0.754266	0.592005	0.500022
C47	C	0.493506	0.112350	-0.087023
C48	C	0.993506	0.612350	0.412977
C49	C	0.566333	0.113414	-0.087023
C50	C	1.066333	0.613414	0.412977
C51	C	0.599477	0.080272	0.087047
C52	C	1.099477	0.580272	0.587047
C53	C	0.526653	0.079202	0.087045
C54	C	1.026653	0.579202	0.587045
C55	C	0.473671	0.095245	0.000008
C56	C	0.973671	0.595245	0.500008
C57	C	0.829978	-0.034635	0.000038
C58	C	1.329978	0.465365	0.500038
C59	C	0.828839	-0.112141	0.000046
C60	C	1.328839	0.387859	0.500046
C61	C	0.891931	-0.157066	0.000054
C62	C	1.391931	0.342934	0.500054
C63	C	0.890857	-0.229887	0.000038
C64	C	1.390857	0.270113	0.500038
C65	C	0.826690	-0.257783	0.000035
C66	C	1.326690	0.242217	0.500035
C67	C	0.763588	-0.212847	0.000021
C68	C	1.263588	0.287153	0.500021
C69	C	0.764663	-0.140026	0.000027
C70	C	1.264663	0.359974	0.500027
N71	N	0.787987	-0.376131	0.054366
N72	N	1.287987	0.123869	0.554366
N73	N	0.786971	-0.445309	0.054363
N74	N	1.286971	0.054691	0.554363
C75	C	0.823448	-0.477188	0.000015
C76	C	1.323448	0.022812	0.500015
N77	N	0.860993	-0.437279	-0.054317
N78	N	1.360993	0.062721	0.445683
N79	N	0.862012	-0.368096	-0.054310
N80	N	1.362012	0.131904	0.445690
C81	C	0.825517	-0.336744	0.000028
C82	C	1.325517	0.163256	0.500028
C83	C	0.885379	-0.601074	0.000005
C84	C	1.385379	-0.101074	0.500005
C85	C	0.884301	-0.673895	-0.000017
C86	C	1.384301	-0.173895	0.499983
C87	C	0.757032	-0.656856	-0.000024
C88	C	1.257032	-0.156856	0.499976
C89	C	0.758111	-0.584035	-0.000013
C90	C	1.258111	-0.084035	0.499987
C91	C	0.822287	-0.556149	0.000006
C92	C	1.322287	-0.056149	0.500006
C93	C	0.952154	0.087549	0.000020
C94	C	1.452154	0.587549	0.500020
C95	C	1.029658	0.088691	0.000017
C96	C	1.529658	0.588691	0.500017
C97	C	0.818995	0.220707	-0.000008
C98	C	1.318995	0.720707	0.499992
C99	C	0.820133	0.298214	-0.000022
C100	C	1.320133	0.798214	0.499978
N101	N	0.871849	0.045684	0.248756
N102	N	1.371849	0.545684	0.748756
N103	N	0.777131	0.140382	-0.248723
N104	N	1.277131	0.640382	0.251277
C105	C	0.700781	0.216679	0.600535
C106	C	1.200781	0.716679	1.100535
C107	C	0.719942	0.197533	0.701039
C108	C	1.219942	0.697533	1.201039
C109	C	0.815177	0.102353	0.701023
C110	C	1.315177	0.602353	1.201023
C111	C	0.796022	0.121489	0.600517
C112	C	1.296022	0.621489	1.100517
C113	C	0.738823	0.178653	0.550281
C114	C	1.238823	0.678653	1.050281
C115	C	0.834064	0.083463	0.550264
C116	C	1.334064	0.583463	1.050264
C117	C	0.814912	0.102600	0.449767
C118	C	1.314912	0.602600	0.949767
C119	C	0.757718	0.159763	0.399524
C120	C	1.257718	0.659763	0.899524
C121	C	0.719672	0.197790	0.449785
C122	C	1.219672	0.697790	0.949785
C123	C	0.891265	0.026302	0.600501
C124	C	1.391265	0.526302	1.100501
C125	C	0.929308	-0.011724	0.550247
C126	C	1.429308	0.488276	1.050247
C127	C	0.910153	0.007410	0.449749
C128	C	1.410153	0.507410	0.949749
C129	C	0.852958	0.064573	0.399506
C130	C	1.352958	0.564573	0.899506
C131	C	0.948199	-0.030617	0.399488
C132	C	1.448199	0.469383	0.899488
C133	C	0.929047	-0.011480	0.298991
C134	C	1.429047	0.488520	0.798991
C135	C	0.833806	0.083710	0.299009
C136	C	1.333806	0.583710	0.799009
H137	H	0.006357	0.118863	-0.157884
H138	H	0.506357	0.618863	0.342116
H139	H	0.582478	0.127344	-0.157894
H140	H	1.082478	0.627344	0.342106
H141	H	0.642618	0.067218	0.157908
H142	H	1.142618	0.567218	0.657908
F143	F	0.953681	-0.571395	0.000029
F144	F	1.453681	-0.071395	0.500029
H145	H	0.673090	0.244334	0.408881
H146	H	1.173090	0.744334	0.908881
H147	H	0.198608	0.060670	0.157913
H148	H	0.698608	0.560670	0.657913
F149	F	0.505543	0.060998	0.179673
F150	F	1.005543	0.560998	0.679673
H151	H	0.975881	-0.058266	0.591161
H152	H	1.475881	0.441734	1.091161
F153	F	0.679447	0.238013	0.754516
F154	F	1.179447	0.738013	1.254516
H155	H	0.450366	0.125411	-0.157894
H156	H	0.950366	0.625411	0.342106
H157	H	0.960026	-0.042445	0.258074
H158	H	1.460026	0.457555	0.758074
F159	F	0.960230	-0.127389	0.000053
F160	F	1.460230	0.372611	0.500053
H161	H	0.994775	-0.077156	0.440403
H162	H	1.494775	0.422844	0.940403
F163	F	0.958010	-0.277708	0.000045
F164	F	1.458010	0.222292	0.500045
H165	H	0.711343	-0.235565	0.000016
H166	H	1.211343	0.264435	0.500016
H167	H	0.713284	-0.103448	0.000021
H168	H	1.213284	0.396552	0.500021
H169	H	0.138467	0.120810	-0.157885
H170	H	0.638467	0.620810	0.342115
H171	H	0.935679	-0.710472	-0.000016
H172	H	1.435679	-0.210472	0.499984
H173	H	0.706735	-0.547456	-0.000013
H174	H	1.206735	-0.047456	0.499987
H175	H	0.654200	0.263223	0.559631
H176	H	1.154200	0.763223	1.059631
H177	H	0.066494	0.058716	0.157925
H178	H	0.566494	0.558716	0.657925
F179	F	0.772922	0.144545	0.245542
F180	F	1.272922	0.644545	0.745542
F181	F	0.737338	0.180133	0.292565
F182	F	1.237338	0.680133	0.792565
H183	H	0.704786	-0.679567	-0.000032
H184	H	1.204786	-0.179567	0.499968
H185	H	0.861751	0.055811	0.741936
H186	H	1.361751	0.555811	1.241936
H187	H	0.906859	0.010725	0.682332
H188	H	1.406859	0.510725	1.182332
