data_functionalizedCrystal
_audit_creation_method	'MofGen! by Chris Wilmer'
_symmetry_space_group_name_H-M	'P1'
_symmetry_Int_Tables_number	1
_symmetry_cell_setting	triclinic
loop_
_symmetry_equiv_pos_as_xyz
  x,y,z
_cell_length_a	15.944551
_cell_length_b	15.995350
_cell_length_c	14.472310
_cell_angle_alpha	89.998838
_cell_angle_beta	89.982781
_cell_angle_gamma	96.504444
loop_
_atom_site_label
_atom_site_type_symbol
_atom_site_fract_x
_atom_site_fract_y
_atom_site_fract_z
O1	O	1.114529	-0.107983	-0.076926
O2	O	0.869979	-0.121297	-0.076908
O3	O	0.998939	0.007247	-0.076916
O4	O	0.985569	-0.236527	-0.076917
O5	O	0.998906	0.007240	0.076766
O6	O	0.869946	-0.121304	0.076774
O7	O	1.114496	-0.107990	0.076756
Cu8	Cu	0.992218	-0.114648	0.090798
Cu9	Cu	0.992257	-0.114639	-0.090949
O10	O	0.985536	-0.236535	0.076765
C11	C	0.838668	-0.120748	-0.000064
C12	C	0.745422	-0.119091	-0.000057
C13	C	0.998370	0.038438	-0.000077
C14	C	0.996713	0.131389	-0.000082
C15	C	1.145806	-0.108539	-0.000089
C16	C	1.239052	-0.110196	-0.000102
C17	C	1.453904	-0.193835	-0.000081
C18	C	1.514943	-0.154992	-0.075854
C19	C	1.409778	-0.113194	-0.000089
C20	C	1.514888	-0.154981	0.075665
C21	C	1.574691	-0.116096	-0.000072
C22	C	1.469589	-0.074329	-0.075924
C23	C	1.469527	-0.074329	0.075663
C24	C	1.530548	-0.035428	-0.000128
C25	C	1.314776	-0.111525	-0.000099
C26	C	1.669692	-0.117759	-0.000068
C27	C	0.986105	-0.267726	-0.000077
C28	C	0.987762	-0.360676	-0.000077
N29	N	0.992196	-0.114654	0.218628
C30	C	0.990761	0.469137	-0.000079
C31	C	0.898918	0.421708	-0.000417
C32	C	0.900576	0.325017	-0.000070
C33	C	0.993713	0.301576	-0.000081
C34	C	1.038995	0.342647	0.087674
C35	C	1.036687	0.439283	0.087748
C36	C	1.038622	0.439649	-0.087018
C37	C	1.038601	0.342704	-0.088178
C38	C	0.995386	0.206878	-0.000079
C39	C	0.989091	0.563835	-0.000074
N40	N	0.992285	-0.114627	-0.218780
C41	C	0.992256	-0.114636	0.592720
C42	C	0.923020	-0.183187	0.553559
C43	C	0.923180	-0.183437	0.446470
C44	C	0.992226	-0.114645	0.407129
C45	C	1.079868	-0.133731	0.445959
C46	C	1.079479	-0.134219	0.553081
C47	C	0.974631	-0.026795	0.553251
C48	C	0.972621	-0.027381	0.446124
C49	C	0.992214	-0.114648	0.302240
C50	C	0.992273	-0.114634	0.697608
H51	H	1.535069	-0.189098	-0.139912
H52	H	0.862359	0.441301	0.062169
H53	H	0.908150	-0.012896	0.420746
H54	H	1.106522	0.327338	-0.093484
H55	H	1.563705	0.031569	-0.000166
H56	H	0.858034	-0.172064	0.420219
H57	H	1.449616	-0.040249	-0.140058
H58	H	1.019773	0.026022	0.419347
H59	H	0.934120	-0.248005	0.580467
H60	H	1.007517	0.314264	0.152986
H61	H	1.132619	-0.085131	0.420472
H62	H	0.934435	-0.248621	0.420835
O63	O	0.853090	0.288104	0.083417
H64	H	0.786774	0.302833	0.080374
O65	O	1.126000	0.481997	0.093045
H66	H	1.125023	0.551271	0.093139
H67	H	0.857663	-0.172001	0.579351
O68	O	1.128318	0.481717	-0.087825
H69	H	1.138800	0.523430	-0.026642
H70	H	1.095010	-0.198280	0.578055
O71	O	1.149775	-0.070608	0.587404
H72	H	1.183901	-0.039640	0.527488
H73	H	1.095771	-0.197063	0.419120
O74	O	1.442830	-0.029190	0.160516
H75	H	1.460758	-0.062798	0.223328
H76	H	1.534957	-0.189106	0.139724
O77	O	0.992905	0.463533	0.174641
H78	H	0.973573	0.406264	0.216211
H79	H	0.864980	0.296600	-0.062976
O80	O	0.850293	0.446272	-0.083759
H81	H	0.891061	0.492551	-0.125832
O82	O	0.891796	-0.002496	0.589070
H83	H	0.862262	-0.052763	0.635408
H84	H	1.107420	0.328517	0.090930
H85	H	1.420595	-0.260771	-0.000157
H86	H	1.008609	0.460194	-0.153531
O87	O	1.041499	0.040786	0.586799
H88	H	1.087071	0.012007	0.631367
H89	H	1.005495	0.315460	-0.153096
