data_functionalizedCrystal
_audit_creation_method	'MofGen! by Chris Wilmer'
_symmetry_space_group_name_H-M	'P1'
_symmetry_Int_Tables_number	1
_symmetry_cell_setting	triclinic
loop_
_symmetry_equiv_pos_as_xyz
  x,y,z
_cell_length_a	33.592126
_cell_length_b	33.591377
_cell_length_c	33.588093
_cell_angle_alpha	60.004089
_cell_angle_beta	60.008299
_cell_angle_gamma	59.994549
loop_
_atom_site_label
_atom_site_type_symbol
_atom_site_fract_x
_atom_site_fract_y
_atom_site_fract_z
O1	O	0.055297	-0.581666	0.486338
O2	O	0.555297	-0.081666	0.986338
O3	O	0.020882	-0.452873	0.391864
O4	O	0.520882	0.047127	0.891864
O5	O	0.102445	-0.534352	0.391775
O6	O	0.602445	-0.034352	0.891775
O7	O	-0.026266	-0.500187	0.486427
O8	O	0.473734	-0.000187	0.986427
O9	O	0.129510	-0.507292	0.418747
O10	O	0.629510	-0.007292	0.918747
O11	O	0.047947	-0.425814	0.418835
O12	O	0.547947	0.074186	0.918835
O13	O	0.082362	-0.554606	0.513309
O14	O	0.582362	-0.054606	1.013309
Cu15	Cu	0.067626	-0.487739	0.468535
Cu16	Cu	0.567626	0.012261	0.968535
Cu17	Cu	0.035618	-0.519740	0.436638
Cu18	Cu	0.535618	-0.019740	0.936638
O19	O	0.000799	-0.473128	0.513398
O20	O	0.500799	0.026872	1.013398
N21	N	0.090139	-0.465235	0.490972
N22	N	0.590139	0.034765	0.990972
N23	N	0.013110	-0.542249	0.414202
N24	N	0.513110	-0.042249	0.914202
C25	C	0.124394	-0.431229	0.734914
C26	C	0.624394	0.068771	1.234914
C27	C	0.334265	-0.431145	0.524799
C28	C	0.834265	0.068855	1.024799
C29	C	0.124204	-0.431200	0.524965
C30	C	0.624204	0.068800	1.024965
C31	C	0.124184	-0.221175	0.524955
C32	C	0.624184	0.278825	1.024955
C33	C	0.158017	-0.322536	0.558710
C34	C	0.658017	0.177464	1.058710
C35	C	0.158027	-0.397406	0.558711
C36	C	0.658027	0.102594	1.058711
C37	C	0.176763	-0.378688	0.577408
C38	C	0.676763	0.121312	1.077408
C39	C	0.258412	-0.364594	0.534386
C40	C	0.758412	0.135406	1.034386
C41	C	0.309454	-0.381596	0.517340
C42	C	0.809454	0.118404	1.017340
C43	C	0.309485	-0.464188	0.548836
C44	C	0.809485	0.035812	1.048836
C45	C	0.258444	-0.447186	0.565883
C46	C	0.758444	0.052814	1.065883
C47	C	0.170304	-0.297002	0.508532
C48	C	0.670304	0.202998	1.008532
C49	C	0.153260	-0.245956	0.491537
C50	C	0.653260	0.254044	0.991537
C51	C	0.111648	-0.245983	0.574901
C52	C	0.611648	0.254017	1.074901
C53	C	0.128691	-0.297029	0.591896
C54	C	0.628691	0.202971	1.091896
C55	C	0.107841	-0.385091	0.571080
C56	C	0.607841	0.114909	1.071080
C57	C	0.090813	-0.402108	0.554078
C58	C	0.590813	0.097892	1.054078
C59	C	0.174153	-0.443755	0.512351
C60	C	0.674153	0.056245	1.012351
C61	C	0.191183	-0.426739	0.529347
C62	C	0.691183	0.073261	1.029347
C63	C	0.107923	-0.385106	0.659111
C64	C	0.607923	0.114894	1.159111
C65	C	0.090955	-0.402138	0.710156
C66	C	0.590955	0.097862	1.210156
C67	C	0.174335	-0.443795	0.710087
C68	C	0.674335	0.056205	1.210087
C69	C	0.191302	-0.426764	0.659041
C70	C	0.691302	0.073236	1.159041
C71	C	0.158095	-0.397418	0.633555
C72	C	0.658095	0.102582	1.133555
C73	C	0.232909	-0.397388	0.558656
C74	C	0.732909	0.102612	1.058656
C75	C	0.105069	-0.449619	0.791057
C76	C	0.605069	0.050381	1.291057
C77	C	0.390406	-0.449193	0.505789
C78	C	0.890406	0.050807	1.005789
C79	C	0.104813	-0.449599	0.506607
C80	C	0.604813	0.050401	1.006607
C81	C	0.105125	-0.165028	0.506915
C82	C	0.605125	0.334972	1.006915
C83	C	-0.020560	-0.576246	0.169890
C84	C	0.479440	-0.076246	0.669890
C85	C	-0.020889	-0.786183	0.379970
C86	C	0.479111	-0.286183	0.879970
C87	C	-0.020859	-0.576235	0.380063
C88	C	0.479141	-0.076235	0.880063
C89	C	-0.230772	-0.576015	0.379658
C90	C	0.269228	-0.076015	0.879658
C91	C	-0.129417	-0.609898	0.346025
C92	C	0.370583	-0.109898	0.846025
C93	C	-0.054587	-0.609979	0.346172
C94	C	0.445413	-0.109979	0.846172
C95	C	-0.073269	-0.628671	0.327396
C96	C	0.426731	-0.128671	0.827396
C97	C	-0.087401	-0.710299	0.370335
C98	C	0.412599	-0.210299	0.870335
C99	C	-0.070424	-0.761345	0.387369
C100	C	0.429576	-0.261345	0.887369
C101	C	0.012165	-0.761428	0.356003
C102	C	0.512165	-0.261428	0.856003
C103	C	-0.004813	-0.710383	0.338967
C104	C	0.495187	-0.210383	0.838967
C105	C	-0.155001	-0.622196	0.396191
C106	C	0.344999	-0.122196	0.896191
C107	C	-0.206043	-0.605128	0.413125
C108	C	0.293957	-0.105128	0.913125
C109	C	-0.205914	-0.563467	0.329724
C110	C	0.294086	-0.063467	0.829724
C111	C	-0.154872	-0.580535	0.312790
C112	C	0.345128	-0.080535	0.812790
C113	C	-0.066886	-0.559797	0.333828
C114	C	0.433114	-0.059797	0.833828
C115	C	-0.049903	-0.542809	0.350903
C116	C	0.450097	-0.042809	0.850903
C117	C	-0.008321	-0.626180	0.392654
C118	C	0.491679	-0.126180	0.892654
C119	C	-0.025304	-0.643170	0.375585
C120	C	0.474696	-0.143170	0.875585
C121	C	-0.066758	-0.559805	0.245702
C122	C	0.433242	-0.059805	0.745702
C123	C	-0.049671	-0.542819	0.194658
C124	C	0.450329	-0.042819	0.694658
C125	C	-0.008026	-0.626194	0.194706
C126	C	0.491974	-0.126194	0.694706
C127	C	-0.025111	-0.643179	0.245752
C128	C	0.474889	-0.143179	0.745752
C129	C	-0.054479	-0.609983	0.271248
C130	C	0.445521	-0.109983	0.771248
C131	C	-0.054597	-0.684821	0.346135
C132	C	0.445403	-0.184821	0.846135
C133	C	-0.002109	-0.556901	0.113746
C134	C	0.497891	-0.056901	0.613746
C135	C	-0.002869	-0.842328	0.398966
C136	C	0.497131	-0.342328	0.898966
C137	C	-0.002496	-0.556887	0.398501
C138	C	0.497504	-0.056887	0.898501
C139	C	-0.286914	-0.556929	0.397631
C140	C	0.213086	-0.056929	0.897631
N141	N	0.436349	-0.465146	0.490703
N142	N	0.936349	0.034854	0.990703
O143	O	0.592194	-0.469605	0.374236
O144	O	1.092194	0.030395	0.874236
O145	O	0.592389	-0.564393	0.502890
O146	O	1.092389	-0.064393	1.002890
O147	O	0.592305	-0.564176	0.421300
O148	O	1.092305	-0.064176	0.921300
O149	O	0.592277	-0.469822	0.455826
O150	O	1.092277	0.030178	0.955826
O151	O	0.511216	-0.537214	0.448415
O152	O	1.011216	-0.037214	0.948415
O153	O	0.511300	-0.537431	0.530004
O154	O	1.011300	-0.037431	1.030004
O155	O	0.511104	-0.442643	0.401350
O156	O	1.011104	0.057357	0.901350
Cu157	Cu	0.503798	-0.487575	0.468153
Cu158	Cu	1.003798	0.012425	0.968153
Cu159	Cu	0.599695	-0.519461	0.436087
Cu160	Cu	1.099695	-0.019461	0.936087
O161	O	0.511188	-0.442860	0.482940
O162	O	1.011188	0.057140	0.982940
N163	N	0.667145	-0.541890	0.413532
N164	N	1.167145	-0.041890	0.913532
N165	N	0.090108	-0.119085	0.490958
N166	N	0.590108	0.380915	0.990958
O167	O	-0.026275	0.036848	0.486394
O168	O	0.473725	0.536848	0.986394
O169	O	0.102381	0.036888	0.391584
O170	O	0.602381	0.536888	0.891584
O171	O	0.020751	0.036852	0.391854
O172	O	0.520751	0.536852	0.891854
O173	O	0.055356	0.036884	0.486124
O174	O	0.555356	0.536884	0.986124
O175	O	0.047821	-0.044242	0.418876
O176	O	0.547821	0.455758	0.918876
O177	O	0.129452	-0.044207	0.418606
O178	O	0.629452	0.455793	0.918606
O179	O	0.000796	-0.044246	0.513417
O180	O	0.500796	0.455754	1.013417
Cu181	Cu	0.067596	-0.051631	0.468479
Cu182	Cu	0.567596	0.448369	0.968479
Cu183	Cu	0.035582	0.044273	0.436522
Cu184	Cu	0.535582	0.544273	0.936522
O185	O	0.082426	-0.044211	0.513146
O186	O	0.582426	0.455789	1.013146
N187	N	0.013063	0.111726	0.414043
N188	N	0.513063	0.611726	0.914043
N189	N	0.090453	-0.465282	0.837001
N190	N	0.590453	0.034718	1.337001
O191	O	0.085913	-0.581648	0.992925
O192	O	0.585913	-0.081648	1.492925
O193	O	-0.008857	-0.452947	0.992970
O194	O	0.491143	0.047053	1.492970
O195	O	-0.008635	-0.534562	0.992946
O196	O	0.491365	-0.034562	1.492946
O197	O	0.085691	-0.500033	0.992949
O198	O	0.585691	-0.000033	1.492949
O199	O	0.018365	-0.507512	0.911855
O200	O	0.518365	-0.007512	1.411855
O201	O	0.018143	-0.425898	0.911878
O202	O	0.518143	0.074102	1.411878
O203	O	0.112912	-0.554598	0.911834
O204	O	0.612912	-0.054598	1.411834
Cu205	Cu	0.067993	-0.487778	0.904452
Cu206	Cu	0.567993	0.012222	1.404452
Cu207	Cu	0.036063	-0.519767	1.000352
Cu208	Cu	0.536063	-0.019767	1.500352
O209	O	0.112691	-0.472984	0.911857
O210	O	0.612691	0.027016	1.411857
N211	N	0.013602	-0.542269	1.067803
N212	N	0.513602	-0.042269	1.567803
C213	C	0.031188	-0.423114	0.392334
C214	C	0.531188	0.076886	0.892334
C215	C	0.132194	-0.524016	0.392223
C216	C	0.632194	-0.024016	0.892223
C217	C	0.072056	-0.584366	0.512840
C218	C	0.572056	-0.084366	1.012840
C219	C	-0.028950	-0.483464	0.512950
C220	C	0.471050	0.016536	1.012950
C221	C	0.551868	-0.563965	0.532655
C222	C	1.051868	-0.063965	1.032655
C223	C	0.551766	-0.563697	0.431617
C224	C	1.051766	-0.063697	0.931617
C225	C	0.551623	-0.443070	0.371586
C226	C	1.051623	0.056930	0.871586
C227	C	0.551728	-0.443339	0.472623
C228	C	1.051728	0.056661	0.972623
C229	C	0.132090	-0.003555	0.392006
C230	C	0.632090	0.496445	0.892006
C231	C	0.031035	-0.003698	0.392374
C232	C	0.531035	0.496302	0.892374
C233	C	-0.028947	-0.003703	0.512961
C234	C	0.471053	0.496297	1.012961
C235	C	0.072143	-0.003661	0.512626
C236	C	0.572143	0.496339	1.012626
C237	C	-0.008408	-0.423209	0.952430
C238	C	0.491592	0.076791	1.452430
C239	C	-0.008128	-0.524272	0.952385
C240	C	0.491872	-0.024272	1.452385
C241	C	0.112464	-0.584336	0.952374
C242	C	0.612464	-0.084336	1.452374
C243	C	0.112190	-0.483267	0.952401
C244	C	0.612190	0.016733	1.452401
H245	H	0.050098	-0.392105	0.730957
H246	H	0.550098	0.107895	1.230957
O247	O	0.147592	-0.474543	0.952414
O248	O	0.647592	0.025457	1.452414
C249	C	0.229766	-0.506428	0.952356
C250	C	0.729766	-0.006428	1.452356
C251	C	0.189712	-0.516377	0.952353
C252	C	0.689712	-0.016377	1.452353
H253	H	0.263833	-0.540240	0.952296
H254	H	0.763833	-0.040240	1.452296
H255	H	0.216299	-0.497171	0.986305
H256	H	0.716299	0.002829	1.486305
H257	H	0.238827	-0.474488	0.918432
H258	H	0.738827	0.025512	1.418432
H259	H	0.180633	-0.548322	0.986254
H260	H	0.680633	-0.048322	1.486254
H261	H	0.203200	-0.525605	0.918381
H262	H	0.703200	-0.025605	1.418381
O263	O	0.176296	-0.532618	0.356746
O264	O	0.676296	-0.032618	0.856746
C265	C	0.247910	-0.508976	0.303440
C266	C	0.747910	-0.008976	0.803440
C267	C	0.197970	-0.499175	0.343609
C268	C	0.697970	0.000825	0.843609
H269	H	0.265452	-0.481950	0.292814
H270	H	0.765452	0.018050	0.792814
H271	H	0.242814	-0.504552	0.270173
H272	H	0.742814	-0.004552	0.770173
H273	H	0.272451	-0.547713	0.317623
H274	H	0.772451	-0.047713	0.817623
H275	H	0.173402	-0.460441	0.329472
H276	H	0.673402	0.039559	0.829472
H277	H	0.203103	-0.503631	0.376868
H278	H	0.703103	-0.003631	0.876868
H279	H	0.023621	-0.003702	0.362756
H280	H	0.523621	0.496298	0.862756
H281	H	-0.065919	-0.476185	0.542670
H282	H	0.434081	0.023815	1.042670
O283	O	0.552000	-0.599527	0.576693
O284	O	1.052000	-0.099527	1.076693
C285	C	0.594127	-0.680822	0.620179
C286	C	1.094127	-0.180822	1.120179
C287	C	0.594032	-0.640595	0.570275
C288	C	1.094032	-0.140595	1.070275
H289	H	0.628112	-0.714031	0.615008
H290	H	1.128112	-0.214031	1.115008
H291	H	0.560236	-0.691530	0.637724
H292	H	1.060236	-0.191530	1.137724
H293	H	0.594119	-0.666670	0.644759
H294	H	1.094119	-0.166670	1.144759
H295	H	0.594058	-0.654713	0.545658
H296	H	1.094058	-0.154713	1.045658
H297	H	0.627920	-0.629893	0.552769
H298	H	1.127920	-0.129893	1.052769
H299	H	0.237680	-0.473893	0.585645
H300	H	0.737680	0.026107	1.085645
H301	H	0.079411	-0.621363	0.542512
H302	H	0.579411	-0.121363	1.042512
H303	H	0.551722	-0.413701	0.480010
H304	H	1.051722	0.086299	0.980010
H305	H	0.168963	-0.003318	0.362168
H306	H	0.668963	0.496682	0.862168
H307	H	0.551779	-0.593338	0.424228
H308	H	1.051779	-0.093338	0.924228
H309	H	0.142219	-0.621297	0.952354
H310	H	0.642219	-0.121297	1.452354
H311	H	-0.065895	-0.003715	0.542725
H312	H	0.434105	0.496285	1.042725
H313	H	0.015526	-0.653210	0.416597
H314	H	0.515526	-0.153210	0.916597
H315	H	0.080878	-0.361206	0.638363
H316	H	0.580878	0.138794	1.138363
H317	H	0.551560	-0.413310	0.334638
H318	H	1.051560	0.086690	0.834638
H319	H	0.079554	-0.003651	0.542242
H320	H	0.579554	0.496349	1.042242
O321	O	-0.043859	-0.379094	0.952467
O322	O	0.456141	0.120906	1.452467
C323	C	-0.066521	-0.298760	0.952460
C324	C	0.433479	0.201240	1.452460
C325	C	-0.026334	-0.348701	0.952430
C326	C	0.473666	0.151299	1.452430
H327	H	-0.052364	-0.274170	0.952421
H328	H	0.447636	0.225830	1.452421
H329	H	-0.099767	-0.303858	0.986409
H330	H	0.400233	0.196142	1.486409
H331	H	-0.077174	-0.281270	0.918536
H332	H	0.422826	0.218730	1.418536
H333	H	-0.015639	-0.366219	0.986332
H334	H	0.484361	0.133781	1.486332
H335	H	0.006886	-0.343571	0.918459
H336	H	0.506886	0.156429	1.418459
H337	H	0.023834	-0.386116	0.362662
H338	H	0.523834	0.113884	0.862662
O339	O	-0.043406	-0.533142	0.952322
O340	O	0.456594	-0.033142	1.452322
C341	C	-0.065692	-0.591060	0.952275
C342	C	0.434308	-0.091060	1.452275
C343	C	-0.025693	-0.581076	0.952336
C344	C	0.474307	-0.081076	1.452336
H345	H	-0.051390	-0.629817	0.952297
H346	H	0.448610	-0.129817	1.452297
H347	H	-0.076336	-0.564083	0.918325
H348	H	0.423664	-0.064083	1.418325
H349	H	-0.098981	-0.586676	0.986198
H350	H	0.401019	-0.086676	1.486198
H351	H	0.007622	-0.585467	0.918436
H352	H	0.507622	-0.085467	1.418436
H353	H	-0.015091	-0.608051	0.986309
H354	H	0.484909	-0.108051	1.486309
H355	H	0.201378	-0.467681	0.730833
H356	H	0.701378	0.032319	1.230833
H357	H	0.080840	-0.361208	0.594989
H358	H	0.580840	0.138792	1.094989
O359	O	0.240054	-0.438812	0.634271
O360	O	0.740054	0.061188	1.134271
C361	C	0.316508	-0.503510	0.618575
C362	C	0.816508	-0.003510	1.118575
C363	C	0.261307	-0.489934	0.646665
C364	C	0.761307	0.010066	1.146665
H365	H	0.333706	-0.544841	0.628577
H366	H	0.833706	-0.044841	1.128577
H367	H	0.333756	-0.489456	0.628603
H368	H	0.833756	0.010544	1.128603
H369	H	0.322921	-0.486275	0.577717
H370	H	0.822921	0.013725	1.077717
H371	H	0.254850	-0.507164	0.687529
H372	H	0.754850	-0.007164	1.187529
H373	H	0.244087	-0.503979	0.636596
H374	H	0.744087	-0.003979	1.136596
O375	O	0.042059	-0.390209	0.566175
O376	O	0.542059	0.109791	1.066175
C377	C	-0.034349	-0.394119	0.630935
C378	C	0.465651	0.105881	1.130935
C379	C	0.020858	-0.407634	0.617303
C380	C	0.520858	0.092366	1.117303
H381	H	-0.051508	-0.408193	0.672272
H382	H	0.448492	0.091807	1.172272
H383	H	-0.040850	-0.411337	0.613777
H384	H	0.459150	0.088663	1.113777
H385	H	-0.051568	-0.352788	0.616844
H386	H	0.448432	0.147212	1.116844
H387	H	0.038114	-0.448958	0.631391
H388	H	0.538114	0.051042	1.131391
H389	H	0.027324	-0.390382	0.634454
H390	H	0.527324	0.109618	1.134454
O391	O	0.206388	-0.472174	0.483757
O392	O	0.706388	0.027826	0.983757
C393	C	0.272405	-0.478662	0.408614
C394	C	0.772405	0.021338	0.908614
C395	C	0.235913	-0.446426	0.440947
C396	C	0.735913	0.053574	0.940947
H397	H	0.296293	-0.457861	0.373999
H398	H	0.796293	0.042139	0.873999
H399	H	0.251652	-0.488705	0.398537
H400	H	0.751652	0.011295	0.898537
H401	H	0.296311	-0.513304	0.429390
H402	H	0.796311	-0.013304	0.929390
H403	H	0.211998	-0.411764	0.420200
H404	H	0.711998	0.088236	0.920200
H405	H	0.256697	-0.436422	0.451026
H406	H	0.756697	0.063578	0.951026
O407	O	0.334241	-0.512564	0.555821
O408	O	0.834241	-0.012564	1.055821
C409	C	0.349882	-0.582971	0.540829
C410	C	0.849882	-0.082971	1.040829
C411	C	0.321807	-0.528188	0.532892
C412	C	0.821807	-0.028188	1.032892
H413	H	0.339848	-0.595617	0.522287
H414	H	0.839848	-0.095617	1.022287
H415	H	0.339874	-0.604366	0.581556
H416	H	0.839874	-0.104366	1.081556
H417	H	0.390741	-0.589478	0.524492
H418	H	0.890741	-0.089478	1.024492
H419	H	0.280942	-0.521636	0.549200
H420	H	0.780942	-0.021636	1.049200
H421	H	0.331856	-0.506821	0.492159
H422	H	0.831856	-0.006821	0.992159
O423	O	0.334154	-0.349672	0.493754
O424	O	0.834154	0.150328	0.993754
C425	C	0.328738	-0.265961	0.464335
C426	C	0.828738	0.234039	0.964335
C427	C	0.300704	-0.302060	0.491045
C428	C	0.800704	0.197940	0.991045
H429	H	0.301707	-0.227460	0.462145
H430	H	0.801707	0.272540	0.962145
H431	H	0.352595	-0.267477	0.425938
H432	H	0.852595	0.232523	0.925938
H433	H	0.352673	-0.276229	0.485182
H434	H	0.852673	0.223771	0.985182
H435	H	0.276743	-0.291817	0.470239
H436	H	0.776743	0.208183	0.970239
H437	H	0.276878	-0.300538	0.529444
H438	H	0.776878	0.199462	1.029444
H439	H	0.232048	-0.436761	0.519270
H440	H	0.732048	0.063239	1.019270
H441	H	0.194180	-0.317769	0.481510
H442	H	0.694180	0.182231	0.981510
O443	O	0.165255	-0.221224	0.442776
O444	O	0.665255	0.278776	0.942776
C445	C	0.208299	-0.226581	0.361882
C446	C	0.708299	0.273419	0.861882
C447	C	0.194761	-0.254650	0.417089
C448	C	0.694761	0.245350	0.917089
H449	H	0.232148	-0.253594	0.341098
H450	H	0.732148	0.246406	0.841098
H451	H	0.229103	-0.202687	0.351792
H452	H	0.729103	0.297313	0.851792
H453	H	0.173634	-0.202677	0.351884
H454	H	0.673634	0.297323	0.851884
H455	H	0.229401	-0.278580	0.427126
H456	H	0.729401	0.221420	0.927126
H457	H	0.173938	-0.278513	0.427150
H458	H	0.673938	0.221487	0.927150
O459	O	0.233556	-0.316241	0.527452
O460	O	0.733556	0.183759	1.027452
C461	C	0.175968	-0.254484	0.565079
C462	C	0.675968	0.245516	1.065079
C463	C	0.204079	-0.309259	0.573001
C464	C	0.704079	0.190741	1.073001
H465	H	0.152137	-0.248820	0.601899
H466	H	0.652137	0.251180	1.101899
H467	H	0.152011	-0.240098	0.542685
H468	H	0.652011	0.259902	1.042685
H469	H	0.202976	-0.233975	0.544782
H470	H	0.702976	0.266025	1.044782
H471	H	0.177106	-0.329807	0.593310
H472	H	0.677106	0.170193	1.093310
H473	H	0.228043	-0.323607	0.595375
H474	H	0.728043	0.176393	1.095375
H475	H	0.087777	-0.225214	0.601924
H476	H	0.587777	0.274786	1.101924
H477	H	-0.059677	-0.501957	0.173865
H478	H	0.440323	-0.001957	0.673865
O479	O	0.116815	-0.321815	0.640646
O480	O	0.616815	0.178185	1.140646
C481	C	0.120745	-0.337428	0.717079
C482	C	0.620745	0.162572	1.217079
C483	C	0.134237	-0.309337	0.661876
C484	C	0.634237	0.190663	1.161876
H485	H	0.134815	-0.327342	0.734262
H486	H	0.634815	0.172658	1.234262
H487	H	0.137977	-0.378299	0.723555
H488	H	0.637977	0.121701	1.223555
H489	H	0.079418	-0.327414	0.734295
H490	H	0.579418	0.172586	1.234295
H491	H	0.175557	-0.319311	0.644624
H492	H	0.675557	0.180689	1.144624
H493	H	0.116970	-0.268474	0.655436
H494	H	0.616970	0.231526	1.155436
O495	O	-0.095208	-0.527541	0.270453
O496	O	0.404792	-0.027541	0.770453
C497	C	-0.101741	-0.461505	0.286081
C498	C	0.398259	0.038495	0.786081
C499	C	-0.069472	-0.498018	0.258027
C500	C	0.430528	0.001982	0.758027
H501	H	-0.080950	-0.437619	0.276037
H502	H	0.419050	0.062381	0.776037
H503	H	-0.111825	-0.482244	0.326955
H504	H	0.388175	0.017756	0.826955
H505	H	-0.136355	-0.437596	0.275993
H506	H	0.363645	0.062404	0.775993
H507	H	-0.034837	-0.521935	0.268074
H508	H	0.465163	-0.021935	0.768074
H509	H	-0.059426	-0.477248	0.217159
H510	H	0.440574	0.022752	0.717159
O511	O	0.020506	-0.658507	0.170018
O512	O	0.520506	-0.158507	0.670018
C513	C	0.059973	-0.742999	0.175460
C514	C	0.559973	-0.242999	0.675460
C515	C	0.027666	-0.706456	0.203480
C516	C	0.527666	-0.206456	0.703480
H517	H	0.065764	-0.781773	0.202502
H518	H	0.565764	-0.281773	0.702502
H519	H	0.096730	-0.737201	0.151632
H520	H	0.596730	-0.237201	0.651632
H521	H	0.041314	-0.737070	0.151497
H522	H	0.541314	-0.237070	0.651497
H523	H	0.046283	-0.712362	0.227469
H524	H	0.546283	-0.212362	0.727469
H525	H	-0.009088	-0.712262	0.227278
H526	H	0.490912	-0.212262	0.727278
H527	H	-0.090726	-0.532768	0.309877
H528	H	0.409274	-0.032768	0.809877
O529	O	-0.061755	-0.494076	0.338895
O530	O	0.438245	0.005924	0.838895
C531	C	-0.032355	-0.426558	0.299656
C532	C	0.467645	0.073442	0.799656
C533	C	-0.018867	-0.481754	0.313233
C534	C	0.481133	0.018246	0.813233
H535	H	0.002311	-0.416577	0.278897
H536	H	0.502311	0.083423	0.778897
H537	H	-0.053151	-0.416471	0.334270
H538	H	0.446849	0.083529	0.834270
H539	H	-0.056217	-0.405756	0.275718
H540	H	0.443783	0.094244	0.775718
H541	H	0.005011	-0.502594	0.337158
H542	H	0.505011	-0.002594	0.837158
H543	H	0.001904	-0.491804	0.278599
H544	H	0.501904	0.008196	0.778599
O545	O	-0.013294	-0.691932	0.387599
O546	O	0.486706	-0.191932	0.887599
C547	C	0.029720	-0.772835	0.430834
C548	C	0.529720	-0.272835	0.930834
C549	C	0.016162	-0.717627	0.417258
C550	C	0.516162	-0.217627	0.917258
H551	H	0.053529	-0.793626	0.454823
H552	H	0.553529	-0.293626	0.954823
H553	H	0.050572	-0.782929	0.396220
H554	H	0.550572	-0.282929	0.896220
H555	H	-0.004940	-0.782822	0.451536
H556	H	0.495060	-0.282822	0.951536
H557	H	0.050797	-0.707600	0.396567
H558	H	0.550797	-0.207600	0.896567
H559	H	-0.004708	-0.707563	0.451889
H560	H	0.495292	-0.207563	0.951889
H561	H	-0.015108	-0.684041	0.266548
H562	H	0.484892	-0.184041	0.766548
O563	O	0.027118	-0.685707	0.315488
O564	O	0.527118	-0.185707	0.815488
C565	C	0.110831	-0.691178	0.286150
C566	C	0.610831	-0.191178	0.786150
C567	C	0.074721	-0.719183	0.312759
C568	C	0.574721	-0.219183	0.812759
H569	H	0.149327	-0.718232	0.283926
H570	H	0.649327	-0.218232	0.783926
H571	H	0.100601	-0.667289	0.307027
H572	H	0.600601	-0.167289	0.807027
H573	H	0.109298	-0.667276	0.247763
H574	H	0.609298	-0.167276	0.747763
H575	H	0.076235	-0.743113	0.351146
H576	H	0.576235	-0.243113	0.851146
H577	H	0.084963	-0.743042	0.291845
H578	H	0.584963	-0.243042	0.791845
H579	H	-0.097137	-0.782089	0.407066
H580	H	0.402863	-0.282089	0.907066
O581	O	0.060506	-0.786338	0.349104
O582	O	0.560506	-0.286338	0.849104
C583	C	0.123266	-0.865015	0.361422
C584	C	0.623266	-0.365015	0.861422
C585	C	0.068507	-0.836866	0.369279
C586	C	0.568507	-0.336866	0.869279
H587	H	0.129753	-0.905871	0.377721
H588	H	0.629753	-0.405871	0.877721
H589	H	0.135928	-0.855031	0.379995
H590	H	0.635928	-0.355031	0.879995
H591	H	0.144662	-0.854976	0.320698
H592	H	0.644662	-0.354976	0.820698
H593	H	0.047072	-0.846890	0.409992
H594	H	0.547072	-0.346890	0.909992
H595	H	0.055882	-0.846852	0.350675
H596	H	0.555882	-0.346852	0.850675
O597	O	-0.135750	-0.685486	0.377218
O598	O	0.364250	-0.185486	0.877218
C599	C	-0.206099	-0.669819	0.362115
C600	C	0.293901	-0.169819	0.862115
C601	C	-0.151341	-0.697948	0.354283
C602	C	0.348659	-0.197948	0.854283
H603	H	-0.218723	-0.679892	0.343586
H604	H	0.281277	-0.179892	0.843586
H605	H	-0.212615	-0.628954	0.345757
H606	H	0.287385	-0.128954	0.845757
H607	H	-0.227505	-0.679812	0.402838
H608	H	0.272495	-0.179812	0.902838
H609	H	-0.129899	-0.687995	0.313571
H610	H	0.370101	-0.187995	0.813571
H611	H	-0.144862	-0.738806	0.370674
H612	H	0.355138	-0.238806	0.870674
O613	O	-0.130349	-0.650695	0.428539
O614	O	0.369651	-0.150695	0.928539
C615	C	-0.135866	-0.690235	0.513051
C616	C	0.364134	-0.190235	1.013051
C617	C	-0.163844	-0.657946	0.476468
C618	C	0.336156	-0.157946	0.976468
H619	H	-0.162934	-0.696115	0.551809
H620	H	0.337066	-0.196115	1.051809
H621	H	-0.111979	-0.671571	0.507254
H622	H	0.388021	-0.171571	1.007254
H623	H	-0.111966	-0.726953	0.507167
H624	H	0.388034	-0.226953	1.007167
H625	H	-0.187770	-0.621222	0.482330
H626	H	0.312230	-0.121222	0.982330
H627	H	-0.187699	-0.676648	0.482274
H628	H	0.312301	-0.176648	0.982274
H629	H	-0.226640	-0.539563	0.302661
H630	H	0.273360	-0.039563	0.802661
O631	O	-0.230955	-0.617093	0.461847
O632	O	0.269045	-0.117093	0.961847
C633	C	-0.288645	-0.656319	0.529352
C634	C	0.211355	-0.156319	1.029352
C635	C	-0.260472	-0.642788	0.474168
C636	C	0.239528	-0.142788	0.974168
H637	H	-0.312508	-0.677105	0.539332
H638	H	0.187492	-0.177105	1.039332
H639	H	-0.312575	-0.621681	0.539396
H640	H	0.187425	-0.121681	1.039396
H641	H	-0.261677	-0.680218	0.550188
H642	H	0.238323	-0.180218	1.050188
H643	H	-0.287404	-0.618902	0.453294
H644	H	0.212596	-0.118902	0.953294
H645	H	-0.236535	-0.677446	0.464161
H646	H	0.263465	-0.177446	0.964161
H647	H	-0.134040	-0.570516	0.271939
H648	H	0.365960	-0.070516	0.771939
