data_functionalizedCrystal
_audit_creation_method	'MofGen! by Chris Wilmer'
_symmetry_space_group_name_H-M	'P1'
_symmetry_Int_Tables_number	1
_symmetry_cell_setting	triclinic
loop_
_symmetry_equiv_pos_as_xyz
  x,y,z
_cell_length_a	19.077236
_cell_length_b	18.050588
_cell_length_c	19.076919
_cell_angle_alpha	92.272257
_cell_angle_beta	89.887323
_cell_angle_gamma	92.322377
loop_
_atom_site_label
_atom_site_type_symbol
_atom_site_fract_x
_atom_site_fract_y
_atom_site_fract_z
Zn1	Zn	1.058268	-0.269585	-0.440545
Zn2	Zn	1.062898	-0.388600	-0.323039
Zn3	Zn	0.945484	-0.269196	-0.318325
Zn4	Zn	0.940717	-0.398508	-0.435778
O5	O	1.001842	-0.331472	-0.379422
O6	O	1.157217	-0.281389	-0.428926
O7	O	1.051256	-0.368452	-0.224083
O8	O	0.960503	-0.165321	-0.334560
O9	O	1.160618	-0.368829	-0.342595
O10	O	1.043365	-0.165607	-0.424354
O11	O	0.964992	-0.280726	-0.220619
O12	O	0.846518	-0.290333	-0.329937
O13	O	0.952378	-0.385716	-0.534741
O14	O	0.843015	-0.385338	-0.416229
O15	O	1.038742	-0.290996	-0.538243
O16	O	1.046633	-0.493841	-0.337973
O17	O	0.956867	-0.501120	-0.420801
C18	C	0.819269	-0.338869	-0.372055
C19	C	0.741163	-0.342052	-0.368920
C20	C	0.702696	-0.298100	-0.412463
C21	C	0.629307	-0.301087	-0.409512
C22	C	0.594387	-0.348030	-0.363019
C23	C	0.632860	-0.391983	-0.319471
C24	C	0.706248	-0.388992	-0.322420
C25	C	0.375093	-0.361846	-0.349370
C26	C	0.301700	-0.364835	-0.346426
C27	C	0.298152	-0.273938	-0.436466
C28	C	0.371541	-0.270954	-0.439414
C29	C	0.410008	-0.314904	-0.395863
N30	N	0.519372	-0.351086	-0.360003
N31	N	0.485022	-0.311844	-0.398876
C32	C	1.001754	-0.524427	-0.379397
C33	C	1.001779	-0.606973	-0.379413
C34	C	0.953038	-0.859781	-0.424458
C35	C	1.016420	-0.808470	-0.444280
C36	C	1.001924	-0.904089	-0.379458
C37	C	0.938473	-0.808321	-0.359647
C38	C	1.001849	-0.758106	-0.379437
C39	C	1.065338	-0.853865	-0.399314
C40	C	0.987349	-0.853721	-0.314650
C41	C	1.050776	-0.802430	-0.334449
C42	C	1.001965	-0.988186	-0.379471
C43	C	1.001815	-0.674010	-0.379424
C44	C	1.185127	-0.324047	-0.386818
C45	C	1.263233	-0.320883	-0.389970
C46	C	0.994512	-0.339505	-0.562701
C47	C	0.991388	-0.342928	-0.640804
C48	C	1.001949	-0.137764	-0.379463
C49	C	1.001995	-0.055217	-0.379480
C50	C	1.034884	-0.295223	-0.679321
C51	C	1.031940	-0.298436	-0.752707
C52	C	0.985504	-0.349359	-0.787574
C53	C	0.942003	-0.397066	-0.749051
C54	C	0.944944	-0.393848	-0.675667
C55	C	0.971884	-0.364268	-1.006853
C56	C	0.968948	-0.367483	-1.080243
C57	C	1.058884	-0.268852	-1.083893
C58	C	1.061824	-0.265642	-1.010508
C59	C	1.018321	-0.313346	-0.971991
N60	N	0.982495	-0.352647	-0.862585
N61	N	1.021326	-0.310054	-0.896981
C62	C	1.009184	-0.323416	-0.196857
C63	C	1.012444	-0.319778	-0.118760
H64	H	0.737567	-0.424781	-0.286961
H65	H	0.904191	-0.438526	-0.777445
H66	H	0.273271	-0.403065	-0.308566
H67	H	0.909518	-0.432688	-0.644306
C68	C	1.085961	-0.239204	-0.640974
H69	H	1.111437	-0.211248	-0.674426
H70	H	1.117711	-0.265112	-0.613576
H71	H	1.060237	-0.206677	-0.611270
C72	C	1.106639	-0.768762	-0.283033
H73	H	1.151639	-0.784405	-0.297212
H74	H	1.096695	-0.784941	-0.237156
H75	H	1.106054	-0.716160	-0.283025
H76	H	0.975029	-0.873685	-0.259866
H77	H	0.731122	-0.259876	-0.450324
H78	H	1.094301	-0.230013	-1.115261
C79	C	0.866033	-0.781186	-0.337036
H80	H	0.831385	-0.800926	-0.369071
H81	H	0.866666	-0.728527	-0.336786
H82	H	0.855351	-0.797373	-0.291310
H83	H	0.604423	-0.430201	-0.281613
H84	H	0.931132	-0.408953	-1.108629
C85	C	0.586993	-0.252747	-0.457413
H86	H	0.538285	-0.261244	-0.448995
H87	H	0.597137	-0.265276	-0.505089
H88	H	0.599444	-0.201890	-0.447697
C89	C	0.897303	-0.893632	-0.475919
H90	H	0.907752	-0.878184	-0.521943
H91	H	0.852352	-0.877379	-0.462307
H92	H	0.897436	-0.946224	-0.475265
H93	H	1.067360	-0.259592	-0.784065
H94	H	0.406404	-0.397634	-0.313909
C95	C	1.112904	-0.209627	-0.972159
H96	H	1.138385	-0.181672	-1.005610
H97	H	1.144651	-0.235544	-0.944764
H98	H	1.087186	-0.177099	-0.942452
H99	H	1.028720	-0.788524	-0.499078
C100	C	0.924039	-0.416744	-0.964491
H101	H	0.932433	-0.407533	-0.915792
H102	H	0.933814	-0.466753	-0.976923
H103	H	0.876348	-0.408310	-0.974615
C104	C	0.409951	-0.219322	-0.490557
H105	H	0.459167	-0.223842	-0.486083
H106	H	0.398352	-0.169447	-0.479881
H107	H	0.396038	-0.232838	-0.537269
C108	C	0.255838	-0.225590	-0.484361
H109	H	0.207130	-0.234088	-0.475944
H110	H	0.265982	-0.238110	-0.532039
H111	H	0.268291	-0.174735	-0.474636
C112	C	1.137802	-0.880850	-0.422026
H113	H	1.137380	-0.933493	-0.421918
H114	H	1.172517	-0.860724	-0.390263
H115	H	1.148207	-0.864989	-0.467921
