data_functionalizedCrystal
_audit_creation_method	'MofGen! by Chris Wilmer'
_symmetry_space_group_name_H-M	'P1'
_symmetry_Int_Tables_number	1
_symmetry_cell_setting	triclinic
loop_
_symmetry_equiv_pos_as_xyz
  x,y,z
_cell_length_a	10.967874
_cell_length_b	10.967829
_cell_length_c	9.482900
_cell_angle_alpha	87.494390
_cell_angle_beta	68.707142
_cell_angle_gamma	82.165976
loop_
_atom_site_label
_atom_site_type_symbol
_atom_site_fract_x
_atom_site_fract_y
_atom_site_fract_z
O1	O	1.749692	0.082124	-0.579802
O2	O	1.372697	0.112780	-0.493039
O3	O	1.562648	-0.077174	-0.493031
O4	O	1.559741	0.272078	-0.579811
O5	O	1.524072	-0.038440	-0.251280
O6	O	1.334121	0.151514	-0.251288
O7	O	1.711117	0.120858	-0.338051
Cu8	Cu	1.519096	0.139722	-0.272596
Cu9	Cu	1.564717	0.093915	-0.558495
O10	O	1.521165	0.310812	-0.338059
C11	C	1.305002	0.132843	-0.360211
C12	C	1.160765	0.134902	-0.324594
C13	C	1.116443	0.115755	-0.433949
C14	C	0.967367	0.117883	-0.397139
C15	C	1.540234	-0.102392	-0.360204
C16	C	1.530904	-0.235241	-0.324589
C17	C	1.546728	-0.314529	-0.433947
C18	C	1.537085	-0.451836	-0.397140
C19	C	1.778812	0.100795	-0.470882
C20	C	1.923051	0.098734	-0.506509
C21	C	1.543580	0.336029	-0.470889
C22	C	1.552912	0.468877	-0.506514
N23	N	1.487019	0.171940	-0.071512
N24	N	1.596804	0.061688	-0.759578
C25	C	1.555246	0.103412	0.000766
C26	C	1.528567	0.130226	0.168148
H27	H	0.894950	0.135859	-0.276258
C28	C	1.422960	0.236307	0.251949
N29	N	1.343418	0.316206	0.315071
C30	C	1.020875	0.074457	-0.669818
N31	N	1.094558	0.056170	-0.792820
C32	C	1.502953	-0.280857	-0.161289
N33	N	1.481902	-0.315214	-0.038287
C34	C	1.062934	0.159177	-0.161294
N35	N	0.989249	0.177460	-0.038292
H36	H	1.633405	0.024887	-0.061267
C37	C	1.574683	-0.268913	-0.597249
N38	N	1.595744	-0.234559	-0.720252
C39	C	1.381417	0.278016	0.012295
N40	N	1.301875	0.357915	0.075416
C41	C	1.509133	-0.497446	-0.233831
N42	N	1.488082	-0.531802	-0.110830
H43	H	1.674967	-0.016842	0.178392
C44	C	1.214274	0.091478	-0.597248
N45	N	1.287959	0.073189	-0.720248
C46	C	1.580859	-0.485515	-0.669823
N47	N	1.601910	-0.451162	-0.792825
