data_functionalizedCrystal
_audit_creation_method	'MofGen! by Chris Wilmer'
_symmetry_space_group_name_H-M	'P1'
_symmetry_Int_Tables_number	1
_symmetry_cell_setting	triclinic
loop_
_symmetry_equiv_pos_as_xyz
  x,y,z
_cell_length_a	8.597226
_cell_length_b	10.268362
_cell_length_c	11.792254
_cell_angle_alpha	89.994545
_cell_angle_beta	84.768959
_cell_angle_gamma	82.291947
loop_
_atom_site_label
_atom_site_type_symbol
_atom_site_fract_x
_atom_site_fract_y
_atom_site_fract_z
O1	O	-2.083926	0.342183	-0.169457
O2	O	-1.583926	0.842183	0.330543
O3	O	-1.627096	0.290915	-0.182445
O4	O	-1.127096	0.790915	0.317555
O5	O	-1.866586	0.317783	-0.010855
O6	O	-1.366586	0.817783	0.489145
O7	O	-1.844435	0.315316	-0.341047
O8	O	-1.344435	0.815316	0.158953
O9	O	-1.866565	0.101180	-0.010848
O10	O	-1.366565	0.601180	0.489152
O11	O	-1.627075	0.074312	-0.182438
O12	O	-1.127075	0.574312	0.317562
O13	O	-2.083905	0.125580	-0.169450
O14	O	-1.583905	0.625580	0.330550
Cu15	Cu	-1.855488	0.080169	-0.175943
Cu16	Cu	-1.355488	0.580169	0.324057
Cu17	Cu	-1.855513	0.336327	-0.175952
Cu18	Cu	-1.355513	0.836327	0.324048
O19	O	-1.844414	0.098713	-0.341039
O20	O	-1.344414	0.598713	0.158961
C21	C	-1.568601	0.176050	-0.181045
C22	C	-1.068601	0.676050	0.318955
C23	C	-1.394335	0.156493	-0.176869
C24	C	-0.894335	0.656493	0.323131
N25	N	-1.855482	-0.099998	-0.175936
N26	N	-1.355482	0.400002	0.324064
C27	C	-1.855505	-0.365666	-0.175949
C28	C	-1.355505	0.134334	0.324051
C29	C	-1.855487	-0.217830	-0.175945
C30	C	-1.355487	0.282170	0.324055
C31	C	-1.142400	0.240442	-0.170847
C32	C	-0.642400	0.740442	0.329153
C33	C	-1.316668	0.259989	-0.175015
C34	C	-0.816668	0.759989	0.324985
C35	C	-1.865181	0.209325	0.031448
C36	C	-1.365181	0.709325	0.531448
C37	C	-1.861004	0.208858	0.157489
C38	C	-1.361004	0.708858	0.657489
N39	N	-1.855531	0.516495	-0.175950
N40	N	-1.355531	1.016495	0.324050
C41	C	-1.845820	0.207173	-0.383343
C42	C	-1.345820	0.707173	0.116657
C43	C	-1.849997	0.207649	-0.509384
C44	C	-1.349997	0.707649	-0.009384
C45	C	-1.857611	0.208482	0.259848
C46	C	-1.357611	0.708482	0.759848
C47	C	-1.853367	0.208017	0.388263
C48	C	-1.353367	0.708017	0.888263
H49	H	-1.327509	0.052931	-0.175274
H50	H	-0.827509	0.552931	0.324726
H51	H	-1.383499	0.363558	-0.176623
H52	H	-0.883499	0.863558	0.323377
