data_functionalizedCrystal
_audit_creation_method	'MofGen! by Chris Wilmer'
_symmetry_space_group_name_H-M	'P1'
_symmetry_Int_Tables_number	1
_symmetry_cell_setting	triclinic
loop_
_symmetry_equiv_pos_as_xyz
  x,y,z
_cell_length_a	27.732046
_cell_length_b	26.809956
_cell_length_c	27.732066
_cell_angle_alpha	90.008081
_cell_angle_beta	82.646039
_cell_angle_gamma	89.997320
loop_
_atom_site_label
_atom_site_type_symbol
_atom_site_fract_x
_atom_site_fract_y
_atom_site_fract_z
O1	O	-0.640935	0.041405	-0.057506
O2	O	-0.390935	0.291405	0.192494
O3	O	-0.140935	0.541405	0.442494
O4	O	0.109065	0.791405	0.692494
O5	O	-0.500142	0.041421	-0.066252
O6	O	-0.250142	0.291421	0.183748
O7	O	-0.000142	0.541421	0.433748
O8	O	0.249858	0.791421	0.683748
O9	O	-0.574907	0.041414	0.008517
O10	O	-0.324907	0.291414	0.258517
O11	O	-0.074907	0.541414	0.508517
O12	O	0.175093	0.791414	0.758517
O13	O	-0.566171	0.041412	-0.132275
O14	O	-0.316171	0.291412	0.117725
O15	O	-0.066171	0.541412	0.367725
O16	O	0.183829	0.791412	0.617725
O17	O	-0.574893	-0.041545	0.008506
O18	O	-0.324893	0.208455	0.258506
O19	O	-0.074893	0.458455	0.508506
O20	O	0.175107	0.708455	0.758506
O21	O	-0.500128	-0.041538	-0.066263
O22	O	-0.250128	0.208462	0.183737
O23	O	-0.000128	0.458462	0.433737
O24	O	0.249872	0.708462	0.683737
O25	O	-0.640921	-0.041554	-0.057517
O26	O	-0.390921	0.208446	0.192483
O27	O	-0.140921	0.458446	0.442483
O28	O	0.109079	0.708446	0.692483
Zn29	Zn	-0.570522	-0.054718	-0.061892
Zn30	Zn	-0.320522	0.195282	0.188108
Zn31	Zn	-0.070522	0.445282	0.438108
Zn32	Zn	0.179478	0.695282	0.688108
Zn33	Zn	-0.570541	0.054584	-0.061877
Zn34	Zn	-0.320541	0.304584	0.188123
Zn35	Zn	-0.070541	0.554584	0.438123
Zn36	Zn	0.179459	0.804584	0.688123
O37	O	-0.566157	-0.041547	-0.132286
O38	O	-0.316157	0.208453	0.117714
O39	O	-0.066157	0.458453	0.367714
O40	O	0.183843	0.708453	0.617714
C41	C	-0.482128	-0.000057	-0.066074
C42	C	-0.232128	0.249943	0.183926
C43	C	0.017872	0.499943	0.433926
C44	C	0.267872	0.749943	0.683926
C45	C	-0.428473	-0.000050	-0.065522
C46	C	-0.178473	0.249950	0.184478
C47	C	0.071527	0.499950	0.434478
C48	C	0.321527	0.749950	0.684478
N49	N	-0.570513	-0.129314	-0.061902
N50	N	-0.320513	0.120686	0.188098
N51	N	-0.070513	0.370686	0.438098
N52	N	0.179487	0.620686	0.688098
C53	C	-0.089661	-0.000069	-0.106227
C54	C	0.160339	0.249931	0.143773
C55	C	0.410339	0.499931	0.393773
C56	C	0.660339	0.749931	0.643773
C57	C	0.111999	-0.000071	-0.104177
C58	C	0.361999	0.249929	0.145823
C59	C	0.611999	0.499929	0.395823
C60	C	0.861999	0.749929	0.645823
O61	O	0.143253	-0.000093	-0.141398
O62	O	0.393253	0.249907	0.108602
O63	O	0.643253	0.499907	0.358602
O64	O	0.893253	0.749907	0.608602
N65	N	0.131126	-0.000070	-0.059843
N66	N	0.381126	0.249930	0.190157
N67	N	0.631126	0.499930	0.440157
N68	N	0.881126	0.749930	0.690157
C69	C	0.099834	-0.000071	-0.016017
C70	C	0.349834	0.249929	0.233983
C71	C	0.599834	0.499929	0.483983
C72	C	0.849834	0.749929	0.733983
O73	O	0.120730	-0.000074	0.021739
O74	O	0.370730	0.249926	0.271739
O75	O	0.620730	0.499926	0.521739
O76	O	0.870730	0.749926	0.771739
C77	C	-0.101825	-0.000072	-0.018068
C78	C	0.148175	0.249928	0.231932
C79	C	0.398175	0.499928	0.481932
C80	C	0.648175	0.749928	0.731932
C81	C	-0.120948	-0.000069	-0.062405
C82	C	0.129052	0.249931	0.187595
C83	C	0.379052	0.499931	0.437595
C84	C	0.629052	0.749931	0.687595
C85	C	-0.108785	-0.000066	-0.150561
C86	C	0.141215	0.249934	0.099439
C87	C	0.391215	0.499934	0.349439
C88	C	0.641215	0.749934	0.599439
C89	C	-0.159197	-0.000063	-0.151073
C90	C	0.090803	0.249937	0.098927
C91	C	0.340803	0.499937	0.348927
C92	C	0.590803	0.749937	0.598927
C93	C	-0.190485	-0.000063	-0.107251
C94	C	0.059515	0.249937	0.142749
C95	C	0.309515	0.499937	0.392749
C96	C	0.559515	0.749937	0.642749
C97	C	-0.171360	-0.000065	-0.062917
C98	C	0.078640	0.249935	0.187083
C99	C	0.328640	0.499935	0.437083
C100	C	0.578640	0.749935	0.687083
C101	C	-0.133116	-0.000076	0.025757
C102	C	0.116884	0.249924	0.275757
C103	C	0.366884	0.499924	0.525757
C104	C	0.616884	0.749924	0.775757
C105	C	-0.183533	-0.000078	0.025241
C106	C	0.066467	0.249922	0.275241
C107	C	0.316467	0.499922	0.525241
C108	C	0.566467	0.749922	0.775241
C109	C	-0.202657	-0.000075	-0.019097
C110	C	0.047343	0.249925	0.230903
C111	C	0.297343	0.499925	0.480903
C112	C	0.547343	0.749925	0.730903
C113	C	-0.253060	-0.000061	-0.019607
C114	C	-0.003060	0.249939	0.230393
C115	C	0.246940	0.499939	0.480393
C116	C	0.496940	0.749939	0.730393
N117	N	-0.272187	-0.000063	-0.063942
N118	N	-0.022187	0.249937	0.186058
N119	N	0.227813	0.499937	0.436058
N120	N	0.477813	0.749937	0.686058
C121	C	-0.240899	-0.000064	-0.107764
C122	C	0.009101	0.249936	0.142236
C123	C	0.259101	0.499936	0.392236
C124	C	0.509101	0.749936	0.642236
C125	C	0.205708	-0.000069	-0.014944
C126	C	0.455708	0.249931	0.235056
C127	C	0.705708	0.499931	0.485056
C128	C	0.955708	0.749931	0.735056
C129	C	0.256123	-0.000068	-0.014431
C130	C	0.506123	0.249932	0.235569
C131	C	0.756123	0.499932	0.485569
C132	C	1.006123	0.749932	0.735569
C133	C	0.268285	-0.000070	-0.102592
C134	C	0.518285	0.249930	0.147408
C135	C	0.768285	0.499930	0.397408
C136	C	1.018285	0.749930	0.647408
C137	C	0.217869	-0.000067	-0.103104
C138	C	0.467869	0.249933	0.146896
C139	C	0.717869	0.499933	0.396896
C140	C	0.967869	0.749933	0.646896
C141	C	0.186582	-0.000071	-0.059279
C142	C	0.436582	0.249929	0.190721
C143	C	0.686582	0.499929	0.440721
C144	C	0.936582	0.749929	0.690721
C145	C	-0.346768	-0.000056	-0.108836
C146	C	-0.096768	0.249944	0.141164
C147	C	0.153232	0.499944	0.391164
C148	C	0.403232	0.749944	0.641164
C149	C	-0.397186	-0.000051	-0.109344
C150	C	-0.147186	0.249949	0.140656
C151	C	0.102814	0.499949	0.390656
C152	C	0.352814	0.749949	0.640656
C153	C	-0.409343	-0.000052	-0.021184
C154	C	-0.159343	0.249948	0.228816
C155	C	0.090657	0.499948	0.478816
C156	C	0.340657	0.749948	0.728816
C157	C	-0.358930	-0.000055	-0.020675
C158	C	-0.108930	0.249945	0.229325
C159	C	0.141070	0.499945	0.479325
C160	C	0.391070	0.749945	0.729325
C161	C	-0.327644	-0.000059	-0.064505
C162	C	-0.077644	0.249941	0.185495
C163	C	0.172356	0.499941	0.435495
C164	C	0.422356	0.749941	0.685495
O165	O	-0.284342	-0.000045	0.017593
O166	O	-0.034342	0.249955	0.267593
O167	O	0.215658	0.499955	0.517593
O168	O	0.465658	0.749955	0.767593
O169	O	-0.261804	-0.000071	-0.145515
O170	O	-0.011804	0.249929	0.104485
O171	O	0.238196	0.499929	0.354485
O172	O	0.488196	0.749929	0.604485
C173	C	-0.039249	-0.000072	-0.105715
C174	C	0.210751	0.249928	0.144285
C175	C	0.460751	0.499928	0.394285
C176	C	0.710751	0.749928	0.644285
C177	C	-0.020124	-0.000075	-0.061381
C178	C	0.229876	0.249925	0.188619
C179	C	0.479876	0.499925	0.438619
C180	C	0.729876	0.749925	0.688619
C181	C	-0.051412	-0.000075	-0.017559
C182	C	0.198588	0.249925	0.232441
C183	C	0.448588	0.499925	0.482441
C184	C	0.698588	0.749925	0.732441
C185	C	0.030290	-0.000074	-0.060869
C186	C	0.280290	0.249926	0.189131
C187	C	0.530290	0.499926	0.439131
C188	C	0.780290	0.749926	0.689131
C189	C	0.061578	-0.000075	-0.104691
C190	C	0.311578	0.249925	0.145309
C191	C	0.561578	0.499925	0.395309
C192	C	0.811578	0.749925	0.645309
C193	C	0.042451	-0.000076	-0.149025
C194	C	0.292451	0.249924	0.100975
C195	C	0.542451	0.499924	0.350975
C196	C	0.792451	0.749924	0.600975
C197	C	-0.007961	-0.000073	-0.149537
C198	C	0.242039	0.249927	0.100463
C199	C	0.492039	0.499927	0.350463
C200	C	0.742039	0.749927	0.600463
C201	C	-0.032286	-0.000073	0.026775
C202	C	0.217714	0.249927	0.276775
C203	C	0.467714	0.499927	0.526775
C204	C	0.717714	0.749927	0.776775
C205	C	0.018127	-0.000076	0.027284
C206	C	0.268127	0.249924	0.277284
C207	C	0.518127	0.499924	0.527284
C208	C	0.768127	0.749924	0.777284
C209	C	0.049415	-0.000076	-0.016538
C210	C	0.299415	0.249924	0.233462
C211	C	0.549415	0.499924	0.483462
C212	C	0.799415	0.749924	0.733462
C213	C	-0.603643	-0.473943	-0.028777
C214	C	-0.353643	-0.223943	0.221223
C215	C	-0.103643	0.026057	0.471223
C216	C	0.146357	0.276057	0.721223
C217	C	-0.603654	-0.682821	-0.028770
C218	C	-0.353654	-0.432821	0.221230
C219	C	-0.103654	-0.182821	0.471230
C220	C	0.146346	0.067179	0.721230
O221	O	-0.631802	-0.709827	-0.000609
O222	O	-0.381802	-0.459827	0.249391
O223	O	-0.131802	-0.209827	0.499391
O224	O	0.118198	0.040173	0.749391
N225	N	-0.570544	-0.708941	-0.061866
N226	N	-0.320544	-0.458941	0.188134
N227	N	-0.070544	-0.208941	0.438134
N228	N	0.179456	0.041059	0.688134
C229	C	-0.537426	-0.682839	-0.094965
C230	C	-0.287426	-0.432839	0.155035
C231	C	-0.037426	-0.182839	0.405035
C232	C	0.212574	0.067161	0.655035
O233	O	-0.509261	-0.709848	-0.123112
O234	O	-0.259261	-0.459848	0.126888
O235	O	-0.009261	-0.209848	0.376888
O236	O	0.240739	0.040152	0.626888
C237	C	-0.537413	-0.473962	-0.094970
C238	C	-0.287413	-0.223962	0.155030
C239	C	-0.037413	0.026038	0.405030
C240	C	0.212587	0.276038	0.655030
C241	C	-0.570528	-0.447844	-0.061874
C242	C	-0.320528	-0.197844	0.188126
C243	C	-0.070528	0.052156	0.438126
C244	C	0.179472	0.302156	0.688126
C245	C	-0.636755	-0.447825	0.004316
C246	C	-0.386755	-0.197825	0.254316
C247	C	-0.136755	0.052175	0.504316
C248	C	0.113245	0.302175	0.754316
C249	C	-0.636754	-0.395609	0.004312
C250	C	-0.386754	-0.145609	0.254312
C251	C	-0.136754	0.104391	0.504312
C252	C	0.113246	0.354391	0.754312
C253	C	-0.603640	-0.369510	-0.028785
C254	C	-0.353640	-0.119510	0.221215
C255	C	-0.103640	0.130490	0.471215
C256	C	0.146360	0.380490	0.721215
C257	C	-0.570527	-0.395628	-0.061878
C258	C	-0.320527	-0.145628	0.188122
C259	C	-0.070527	0.104372	0.438122
C260	C	0.179473	0.354372	0.688122
C261	C	-0.504293	-0.447861	-0.128066
C262	C	-0.254293	-0.197861	0.121934
C263	C	-0.004293	0.052139	0.371934
C264	C	0.245707	0.302139	0.621934
C265	C	-0.504292	-0.395638	-0.128063
C266	C	-0.254292	-0.145638	0.121937
C267	C	-0.004292	0.104362	0.371937
C268	C	0.245708	0.354362	0.621937
C269	C	-0.537408	-0.369520	-0.094968
C270	C	-0.287408	-0.119520	0.155032
C271	C	-0.037408	0.130480	0.405032
C272	C	0.212592	0.380480	0.655032
C273	C	-0.537411	-0.317313	-0.094979
C274	C	-0.287411	-0.067313	0.155021
C275	C	-0.037411	0.182687	0.405021
C276	C	0.212589	0.432687	0.655021
N277	N	-0.570522	-0.291193	-0.061883
N278	N	-0.320522	-0.041193	0.188117
N279	N	-0.070522	0.208807	0.438117
N280	N	0.179478	0.458807	0.688117
C281	C	-0.603636	-0.317291	-0.028786
C282	C	-0.353636	-0.067291	0.221214
C283	C	-0.103636	0.182709	0.471214
C284	C	0.146364	0.432709	0.721214
C285	C	-0.537436	-0.792502	-0.094961
C286	C	-0.287436	-0.542502	0.155039
C287	C	-0.037436	-0.292502	0.405039
C288	C	0.212564	-0.042502	0.655039
C289	C	-0.537440	-0.844721	-0.094960
C290	C	-0.287440	-0.594721	0.155040
C291	C	-0.037440	-0.344721	0.405040
C292	C	0.212560	-0.094721	0.655040
C293	C	-0.603667	-0.844699	-0.028765
C294	C	-0.353667	-0.594699	0.221235
C295	C	-0.103667	-0.344699	0.471235
C296	C	0.146333	-0.094699	0.721235
C297	C	-0.603665	-0.792479	-0.028768
C298	C	-0.353665	-0.542479	0.221232
C299	C	-0.103665	-0.292479	0.471232
C300	C	0.146335	-0.042479	0.721232
C301	C	-0.570546	-0.766382	-0.061864
C302	C	-0.320546	-0.516382	0.188136
C303	C	-0.070546	-0.266382	0.438136
C304	C	0.179454	-0.016382	0.688136
C305	C	-0.603630	-0.207634	-0.028797
C306	C	-0.353630	0.042366	0.221203
C307	C	-0.103630	0.292366	0.471203
C308	C	0.146370	0.542366	0.721203
C309	C	-0.603627	-0.155413	-0.028805
C310	C	-0.353627	0.094587	0.221195
C311	C	-0.103627	0.344587	0.471195
C312	C	0.146373	0.594587	0.721195
C313	C	-0.537398	-0.155439	-0.094999
C314	C	-0.287398	0.094561	0.155001
C315	C	-0.037398	0.344561	0.405001
C316	C	0.212602	0.594561	0.655001
C317	C	-0.537403	-0.207655	-0.094993
C318	C	-0.287403	0.042345	0.155007
C319	C	-0.037403	0.292345	0.405007
C320	C	0.212597	0.542345	0.655007
C321	C	-0.570521	-0.233751	-0.061888
C322	C	-0.320521	0.016249	0.188112
C323	C	-0.070521	0.266249	0.438112
C324	C	0.179479	0.516249	0.688112
O325	O	-0.509274	-0.290274	-0.123122
O326	O	-0.259274	-0.040274	0.126878
O327	O	-0.009274	0.209726	0.376878
O328	O	0.240726	0.459726	0.626878
O329	O	-0.631790	-0.290273	-0.000636
O330	O	-0.381790	-0.040273	0.249364
O331	O	-0.131790	0.209727	0.499364
O332	O	0.118210	0.459727	0.749364
C333	C	-0.603644	-0.526159	-0.028774
C334	C	-0.353644	-0.276159	0.221226
C335	C	-0.103644	-0.026159	0.471226
C336	C	0.146356	0.223841	0.721226
C337	C	-0.570531	-0.552277	-0.061867
C338	C	-0.320531	-0.302277	0.188133
C339	C	-0.070531	-0.052277	0.438133
C340	C	0.179469	0.197723	0.688133
C341	C	-0.537417	-0.526178	-0.094963
C342	C	-0.287417	-0.276178	0.155037
C343	C	-0.037417	-0.026178	0.405037
C344	C	0.212583	0.223822	0.655037
C345	C	-0.570535	-0.604496	-0.061866
C346	C	-0.320535	-0.354496	0.188134
C347	C	-0.070535	-0.104496	0.438134
C348	C	0.179465	0.145504	0.688134
C349	C	-0.603649	-0.630595	-0.028769
C350	C	-0.353649	-0.380595	0.221231
C351	C	-0.103649	-0.130595	0.471231
C352	C	0.146351	0.119405	0.721231
C353	C	-0.636760	-0.604474	0.004327
C354	C	-0.386760	-0.354474	0.254327
C355	C	-0.136760	-0.104474	0.504327
C356	C	0.113240	0.145526	0.754327
C357	C	-0.636758	-0.552258	0.004323
C358	C	-0.386758	-0.302258	0.254323
C359	C	-0.136758	-0.052258	0.504323
C360	C	0.113242	0.197742	0.754323
C361	C	-0.504307	-0.552299	-0.128060
C362	C	-0.254307	-0.302299	0.121940
C363	C	-0.004307	-0.052299	0.371940
C364	C	0.245693	0.197701	0.621940
C365	C	-0.504311	-0.604515	-0.128054
C366	C	-0.254311	-0.354515	0.121946
C367	C	-0.004311	-0.104515	0.371946
C368	C	0.245689	0.145485	0.621946
C369	C	-0.537426	-0.630614	-0.094957
C370	C	-0.287426	-0.380614	0.155043
C371	C	-0.037426	-0.130614	0.405043
C372	C	0.212574	0.119386	0.655043
C373	C	0.341065	-0.000073	-0.057696
C374	C	0.591065	0.249927	0.192304
C375	C	0.841065	0.499927	0.442304
C376	C	1.091065	0.749927	0.692304
C377	C	0.287411	-0.000068	-0.058253
C378	C	0.537411	0.249932	0.191747
C379	C	0.787411	0.499932	0.441747
C380	C	1.037411	0.749932	0.691747
C381	C	-0.574715	-0.000064	0.026518
C382	C	-0.324715	0.249936	0.276518
C383	C	-0.074715	0.499936	0.526518
C384	C	0.175285	0.749936	0.776518
C385	C	-0.574159	-0.000060	0.080173
C386	C	-0.324159	0.249940	0.330173
C387	C	-0.074159	0.499940	0.580173
C388	C	0.175841	0.749940	0.830173
N389	N	-0.570554	0.129180	-0.061863
N390	N	-0.320554	0.379180	0.188137
N391	N	-0.070554	0.629180	0.438137
N392	N	0.179446	0.879180	0.688137
C393	C	-0.526189	-0.000055	0.457245
C394	C	-0.276189	0.249945	0.707245
C395	C	-0.026189	0.499945	0.957245
C396	C	0.223811	0.749945	1.207245
C397	C	-0.528237	-0.000053	0.255585
C398	C	-0.278237	0.249947	0.505585
C399	C	-0.028237	0.499947	0.755585
C400	C	0.221763	0.749947	1.005585
O401	O	-0.491016	-0.000029	0.224332
O402	O	-0.241016	0.249971	0.474332
O403	O	0.008984	0.499971	0.724332
O404	O	0.258984	0.749971	0.974332
N405	N	-0.572571	-0.000058	0.236457
N406	N	-0.322571	0.249942	0.486457
N407	N	-0.072571	0.499942	0.736457
N408	N	0.177429	0.749942	0.986457
C409	C	-0.616397	-0.000060	0.267749
C410	C	-0.366397	0.249940	0.517749
C411	C	-0.116397	0.499940	0.767749
C412	C	0.133603	0.749940	1.017749
O413	O	-0.654153	-0.000059	0.246853
O414	O	-0.404153	0.249941	0.496853
O415	O	-0.154153	0.499941	0.746853
O416	O	0.095847	0.749941	0.996853
C417	C	-0.614349	-0.000058	0.469408
C418	C	-0.364349	0.249942	0.719408
C419	C	-0.114349	0.499942	0.969408
C420	C	0.135651	0.749942	1.219408
C421	C	-0.570012	-0.000058	0.488532
C422	C	-0.320012	0.249942	0.738532
C423	C	-0.070012	0.499942	0.988532
C424	C	0.179988	0.749942	1.238532
C425	C	-0.481856	-0.000054	0.476370
C426	C	-0.231856	0.249946	0.726370
C427	C	0.018144	0.499946	0.976370
C428	C	0.268144	0.749946	1.226370
C429	C	-0.481344	-0.000057	0.526782
C430	C	-0.231344	0.249943	0.776782
C431	C	0.018656	0.499943	1.026782
C432	C	0.268656	0.749943	1.276782
C433	C	-0.525167	-0.000061	0.558069
C434	C	-0.275167	0.249939	0.808069
C435	C	-0.025167	0.499939	1.058069
C436	C	0.224833	0.749939	1.308069
C437	C	-0.569500	-0.000061	0.538944
C438	C	-0.319500	0.249939	0.788944
C439	C	-0.069500	0.499939	1.038944
C440	C	0.180500	0.749939	1.288944
C441	C	-0.658174	-0.000056	0.500698
C442	C	-0.408174	0.249944	0.750698
C443	C	-0.158174	0.499944	1.000698
C444	C	0.091826	0.749944	1.250698
C445	C	-0.657658	-0.000054	0.551116
C446	C	-0.407658	0.249946	0.801116
C447	C	-0.157658	0.499946	1.051116
C448	C	0.092342	0.749946	1.301116
C449	C	-0.613321	-0.000055	0.570240
C450	C	-0.363321	0.249945	0.820240
C451	C	-0.113321	0.499945	1.070240
C452	C	0.136679	0.749945	1.320240
C453	C	-0.612811	-0.000068	0.620644
C454	C	-0.362811	0.249932	0.870644
C455	C	-0.112811	0.499932	1.120644
C456	C	0.137189	0.749932	1.370644
N457	N	-0.568477	-0.000063	0.639771
N458	N	-0.318477	0.249937	0.889771
N459	N	-0.068477	0.499937	1.139771
N460	N	0.181523	0.749937	1.389771
C461	C	-0.524654	-0.000059	0.608483
C462	C	-0.274654	0.249941	0.858483
C463	C	-0.024654	0.499941	1.108483
C464	C	0.225346	0.749941	1.358483
C465	C	-0.617469	-0.000062	0.161874
C466	C	-0.367469	0.249938	0.411874
C467	C	-0.117469	0.499938	0.661874
C468	C	0.132531	0.749938	0.911874
C469	C	-0.617981	-0.000063	0.111460
C470	C	-0.367981	0.249937	0.361460
C471	C	-0.117981	0.499937	0.611460
C472	C	0.132019	0.749937	0.861460
C473	C	-0.529821	-0.000056	0.099299
C474	C	-0.279821	0.249944	0.349299
C475	C	-0.029821	0.499944	0.599299
C476	C	0.220179	0.749944	0.849299
C477	C	-0.529309	-0.000058	0.149715
C478	C	-0.279309	0.249942	0.399715
C479	C	-0.029309	0.499942	0.649715
C480	C	0.220691	0.749942	0.899715
C481	C	-0.573135	-0.000057	0.181002
C482	C	-0.323135	0.249943	0.431002
C483	C	-0.073135	0.499943	0.681002
C484	C	0.176865	0.749943	0.931002
C485	C	-0.523584	-0.000066	0.714353
C486	C	-0.273584	0.249934	0.964353
C487	C	-0.023584	0.499934	1.214353
C488	C	0.226416	0.749934	1.464353
C489	C	-0.523076	-0.000072	0.764770
C490	C	-0.273076	0.249928	1.014770
C491	C	-0.023076	0.499928	1.264770
C492	C	0.226924	0.749928	1.514770
C493	C	-0.611236	-0.000077	0.776926
C494	C	-0.361236	0.249923	1.026926
C495	C	-0.111236	0.499923	1.276926
C496	C	0.138764	0.749923	1.526926
C497	C	-0.611744	-0.000074	0.726514
C498	C	-0.361744	0.249926	0.976514
C499	C	-0.111744	0.499926	1.226514
C500	C	0.138256	0.749926	1.476514
C501	C	-0.567914	-0.000067	0.695228
C502	C	-0.317914	0.249933	0.945228
C503	C	-0.067914	0.499933	1.195228
C504	C	0.182086	0.749933	1.445228
O505	O	-0.650012	-0.000086	0.651925
O506	O	-0.400012	0.249914	0.901925
O507	O	-0.150012	0.499914	1.151925
O508	O	0.099988	0.749914	1.401925
O509	O	-0.486904	-0.000049	0.629389
O510	O	-0.236904	0.249951	0.879389
O511	O	0.013096	0.499951	1.129389
O512	O	0.263096	0.749951	1.379389
C513	C	-0.526701	-0.000052	0.406833
C514	C	-0.276701	0.249948	0.656833
C515	C	-0.026701	0.499948	0.906833
C516	C	0.223299	0.749948	1.156833
C517	C	-0.571034	-0.000052	0.387708
C518	C	-0.321034	0.249948	0.637708
C519	C	-0.071034	0.499948	0.887708
C520	C	0.178966	0.749948	1.137708
C521	C	-0.614857	-0.000055	0.418995
C522	C	-0.364857	0.249945	0.668995
C523	C	-0.114857	0.499945	0.918995
C524	C	0.135143	0.749945	1.168995
C525	C	-0.571547	-0.000053	0.337293
C526	C	-0.321547	0.249947	0.587293
C527	C	-0.071547	0.499947	0.837293
C528	C	0.178453	0.749947	1.087293
C529	C	-0.527724	-0.000050	0.306006
C530	C	-0.277724	0.249950	0.556006
C531	C	-0.027724	0.499950	0.806006
C532	C	0.222276	0.749950	1.056006
C533	C	-0.483390	-0.000045	0.325133
C534	C	-0.233390	0.249955	0.575133
C535	C	0.016610	0.499955	0.825133
C536	C	0.266610	0.749955	1.075133
C537	C	-0.482878	-0.000048	0.375545
C538	C	-0.232878	0.249952	0.625545
C539	C	0.017122	0.499952	0.875545
C540	C	0.267122	0.749952	1.125545
C541	C	-0.659191	-0.000060	0.399868
C542	C	-0.409191	0.249940	0.649868
C543	C	-0.159191	0.499940	0.899868
C544	C	0.090809	0.749940	1.149868
C545	C	-0.659699	-0.000058	0.349456
C546	C	-0.409699	0.249942	0.599456
C547	C	-0.159699	0.499942	0.849456
C548	C	0.090301	0.749942	1.099456
C549	C	-0.615877	-0.000054	0.318168
C550	C	-0.365877	0.249946	0.568168
C551	C	-0.115877	0.499946	0.818168
C552	C	0.134123	0.749946	1.068168
C553	C	-0.566347	-0.000070	0.849712
C554	C	-0.316347	0.249930	1.099712
C555	C	-0.066347	0.499930	1.349712
C556	C	0.183653	0.749930	1.599712
C557	C	-0.566899	-0.000075	0.796057
C558	C	-0.316899	0.249925	1.046057
C559	C	-0.066899	0.499925	1.296057
C560	C	0.183101	0.749925	1.546057
H561	H	-0.412753	-0.000048	-0.145450
H562	H	-0.162753	0.249952	0.104550
H563	H	0.087247	0.499952	0.354550
H564	H	0.337247	0.749952	0.604550
H565	H	-0.477327	-0.469118	-0.155015
H566	H	-0.227327	-0.219118	0.094985
H567	H	0.022673	0.030882	0.344985
H568	H	0.272673	0.280882	0.594985
H569	H	-0.510439	-0.134181	-0.121948
H570	H	-0.260439	0.115819	0.128052
H571	H	-0.010439	0.365819	0.378052
H572	H	0.239561	0.615819	0.628052
H573	H	-0.057756	-0.000074	0.062461
H574	H	0.192244	0.249926	0.312461
H575	H	0.442244	0.499926	0.562461
H576	H	0.692244	0.749926	0.812461
H577	H	-0.445240	-0.000053	0.542347
H578	H	-0.195240	0.249947	0.792347
H579	H	0.054760	0.499947	1.042347
H580	H	0.304760	0.749947	1.292347
H581	H	-0.694878	-0.000062	0.425338
H582	H	-0.444878	0.249938	0.675338
H583	H	-0.194878	0.499938	0.925338
H584	H	0.055122	0.749938	1.175338
H585	H	0.033692	-0.000074	0.063391
H586	H	0.283692	0.249926	0.313391
H587	H	0.533692	0.499926	0.563391
H588	H	0.783692	0.749926	0.813391
H589	H	-0.209005	-0.000081	0.060929
H590	H	0.040995	0.249919	0.310929
H591	H	0.290995	0.499919	0.560929
H592	H	0.540995	0.749919	0.810929
H593	H	-0.663724	-0.625732	0.031275
H594	H	-0.413724	-0.375732	0.281275
H595	H	-0.163724	-0.125732	0.531275
H596	H	0.086276	0.124268	0.781275
H597	H	-0.446168	-0.000050	0.450900
H598	H	-0.196168	0.249950	0.700900
H599	H	0.053832	0.499950	0.950900
H600	H	0.303832	0.749950	1.200900
H601	H	-0.654085	-0.000071	0.095894
H602	H	-0.404085	0.249929	0.345894
H603	H	-0.154085	0.499929	0.595894
H604	H	0.095915	0.749929	0.845894
H605	H	-0.647847	-0.000081	0.710942
H606	H	-0.397847	0.249919	0.960942
H607	H	-0.147847	0.499919	1.210942
H608	H	0.102153	0.749919	1.460942
H609	H	-0.630631	-0.865958	-0.001816
H610	H	-0.380631	-0.615958	0.248184
H611	H	-0.130631	-0.365958	0.498184
H612	H	0.119369	-0.115958	0.748184
H613	H	-0.494139	-0.000055	0.073816
H614	H	-0.244139	0.249945	0.323816
H615	H	0.005861	0.499945	0.573816
H616	H	0.255861	0.749945	0.823816
H617	H	-0.447708	-0.000045	0.299650
H618	H	-0.197708	0.249955	0.549650
H619	H	0.052292	0.499955	0.799650
H620	H	0.302292	0.749955	1.049650
H621	H	-0.487893	-0.000061	0.688885
H622	H	-0.237893	0.249939	0.938885
H623	H	0.012107	0.499939	1.188885
H624	H	0.262107	0.749939	1.438885
H625	H	-0.477321	-0.374392	-0.155014
H626	H	-0.227321	-0.124392	0.094986
H627	H	0.022679	0.125608	0.344986
H628	H	0.272679	0.375608	0.594986
H629	H	-0.630631	-0.771218	-0.001818
H630	H	-0.380631	-0.521218	0.248182
H631	H	-0.130631	-0.271218	0.498182
H632	H	0.119369	-0.021218	0.748182
H633	H	-0.653159	-0.000062	0.187345
H634	H	-0.403159	0.249938	0.437345
H635	H	-0.153159	0.499938	0.687345
H636	H	0.096841	0.749938	0.937345
H637	H	-0.695806	-0.000061	0.333890
H638	H	-0.445806	0.249939	0.583890
H639	H	-0.195806	0.499939	0.833890
H640	H	0.054194	0.749939	1.083890
H641	H	0.180238	-0.000072	0.020746
H642	H	0.430238	0.249928	0.270746
H643	H	0.680238	0.499928	0.520746
H644	H	0.930238	0.749928	0.770746
H645	H	-0.694278	-0.000056	0.485137
H646	H	-0.444278	0.249944	0.735137
H647	H	-0.194278	0.499944	0.985137
H648	H	0.055722	0.749944	1.235137
H649	H	-0.510442	-0.228920	-0.121947
H650	H	-0.260442	0.021080	0.128053
H651	H	-0.010442	0.271080	0.378053
H652	H	0.239558	0.521080	0.628053
H653	H	-0.083315	-0.000069	-0.186248
H654	H	0.166685	0.249931	0.063752
H655	H	0.416685	0.499931	0.313752
H656	H	0.666685	0.749931	0.563752
H657	H	-0.321300	-0.000061	-0.144526
H658	H	-0.071300	0.249939	0.105474
H659	H	0.178700	0.499939	0.355474
H660	H	0.428700	0.749939	0.605474
H661	H	-0.693347	-0.000051	0.576588
H662	H	-0.443347	0.249949	0.826588
H663	H	-0.193347	0.499949	1.076588
H664	H	0.056653	0.749949	1.326588
H665	H	-0.646915	-0.000082	0.802409
H666	H	-0.396915	0.249918	1.052409
H667	H	-0.146915	0.499918	1.302409
H668	H	0.103085	0.749918	1.552409
H669	H	-0.493206	-0.000060	0.165282
H670	H	-0.243206	0.249940	0.415282
H671	H	0.006794	0.499940	0.665282
H672	H	0.256794	0.749940	0.915282
H673	H	-0.446774	-0.000049	0.391111
H674	H	-0.196774	0.249951	0.641111
H675	H	0.053226	0.499951	0.891111
H676	H	0.303226	0.749951	1.141111
H677	H	-0.343359	-0.000050	0.015428
H678	H	-0.093359	0.249950	0.265428
H679	H	0.156641	0.499950	0.515428
H680	H	0.406641	0.749950	0.765428
H681	H	-0.174762	-0.000060	-0.187177
H682	H	0.075238	0.249940	0.062823
H683	H	0.325238	0.499940	0.312823
H684	H	0.575238	0.749940	0.562823
H685	H	0.202302	-0.000067	-0.139207
H686	H	0.452302	0.249933	0.110793
H687	H	0.702302	0.499933	0.360793
H688	H	0.952302	0.749933	0.610793
H689	H	-0.477341	-0.531053	-0.155011
H690	H	-0.227341	-0.281053	0.094989
H691	H	0.022659	-0.031053	0.344989
H692	H	0.272659	0.218947	0.594989
H693	H	0.293768	-0.000070	-0.138273
H694	H	0.543768	0.249930	0.111727
H695	H	0.793768	0.499930	0.361727
H696	H	1.043768	0.749930	0.611727
H697	H	0.271689	-0.000063	0.021673
H698	H	0.521689	0.249937	0.271673
H699	H	0.771689	0.499937	0.521673
H700	H	1.021689	0.749937	0.771673
H701	H	-0.434826	-0.000049	0.014495
H702	H	-0.184826	0.249951	0.264495
H703	H	0.065174	0.499951	0.514495
H704	H	0.315174	0.749951	0.764495
H705	H	-0.117554	-0.000079	0.061861
H706	H	0.132446	0.249921	0.311861
H707	H	0.382446	0.499921	0.561861
H708	H	0.632446	0.749921	0.811861
H709	H	-0.023526	-0.000071	-0.185641
H710	H	0.226474	0.249929	0.064359
H711	H	0.476474	0.499929	0.314359
H712	H	0.726474	0.749929	0.564359
H713	H	-0.663721	-0.469070	0.031269
H714	H	-0.413721	-0.219070	0.281269
H715	H	-0.163721	0.030930	0.531269
H716	H	0.086279	0.280930	0.781269
H717	H	0.067935	-0.000075	-0.184707
H718	H	0.317935	0.249925	0.065293
H719	H	0.567935	0.499925	0.315293
H720	H	0.817935	0.749925	0.565293
H721	H	-0.477345	-0.625776	-0.155008
H722	H	-0.227345	-0.375776	0.094992
H723	H	0.022655	-0.125776	0.344992
H724	H	0.272655	0.124224	0.594992
H725	H	-0.630598	-0.228875	-0.001839
H726	H	-0.380598	0.021125	0.248161
H727	H	-0.130598	0.271125	0.498161
H728	H	0.119402	0.521125	0.748161
H729	H	-0.630596	-0.134149	-0.001855
H730	H	-0.380596	0.115851	0.248145
H731	H	-0.130596	0.365851	0.498145
H732	H	0.119404	0.615851	0.748145
H733	H	-0.663724	-0.530997	0.031273
H734	H	-0.413724	-0.280997	0.281273
H735	H	-0.163724	-0.030997	0.531273
H736	H	0.086276	0.219003	0.781273
H737	H	-0.663718	-0.374347	0.031262
H738	H	-0.413718	-0.124347	0.281262
H739	H	-0.163718	0.125653	0.531262
H740	H	0.086282	0.375653	0.781262
H741	H	-0.510479	-0.865982	-0.121915
H742	H	-0.260479	-0.615982	0.128085
H743	H	-0.010479	-0.365982	0.378085
H744	H	0.239521	-0.115982	0.628085
H745	H	-0.510466	-0.771257	-0.121913
H746	H	-0.260466	-0.521257	0.128087
H747	H	-0.010466	-0.271257	0.378087
H748	H	0.239534	-0.021257	0.628087
H749	H	-0.486970	-0.000074	0.780338
H750	H	-0.236970	0.249926	1.030338
H751	H	0.013030	0.499926	1.280338
H752	H	0.263030	0.749926	1.530338
