data_functionalizedCrystal
_audit_creation_method	'MofGen! by Chris Wilmer'
_symmetry_space_group_name_H-M	'P1'
_symmetry_Int_Tables_number	1
_symmetry_cell_setting	triclinic
loop_
_symmetry_equiv_pos_as_xyz
  x,y,z
_cell_length_a	19.288864
_cell_length_b	11.026607
_cell_length_c	17.766277
_cell_angle_alpha	89.996915
_cell_angle_beta	89.976791
_cell_angle_gamma	95.861131
loop_
_atom_site_label
_atom_site_type_symbol
_atom_site_fract_x
_atom_site_fract_y
_atom_site_fract_z
O1	O	0.940539	0.151279	-0.062839
O2	O	0.740867	0.171687	-0.062788
O3	O	0.824155	-0.015080	-0.062806
O4	O	0.857252	0.338046	-0.062820
O5	O	0.824135	-0.015089	0.062382
O6	O	0.740847	0.171677	0.062401
O7	O	0.940520	0.151270	0.062350
Cu8	Cu	0.840682	0.161473	0.073806
Cu9	Cu	0.840705	0.161484	-0.074244
O10	O	0.857232	0.338036	0.062368
C11	C	0.714897	0.171025	-0.000187
C12	C	0.637544	0.169054	-0.000167
C13	C	0.606746	0.278640	-0.000183
C14	C	0.534064	0.276788	-0.000191
C15	C	0.492182	0.165344	-0.000198
C16	C	0.522988	0.055744	-0.000178
C17	C	0.595669	0.057599	-0.000162
C18	C	0.372816	0.077740	-0.044079
C19	C	0.300137	0.075890	-0.044100
C20	C	0.268011	0.159618	-0.000244
C21	C	0.308573	0.245218	0.043623
C22	C	0.381254	0.247073	0.043639
C23	C	0.413372	0.163320	-0.000215
C24	C	0.158403	0.267204	-0.000268
C25	C	0.085720	0.265347	-0.000271
C26	C	0.074645	0.044300	-0.000266
C27	C	0.147327	0.046159	-0.000255
C28	C	0.189202	0.157615	-0.000259
C29	C	0.818039	-0.060262	-0.000211
C30	C	0.799837	-0.194876	-0.000209
C31	C	0.850095	-0.268957	-0.000223
C32	C	0.831284	-0.408088	-0.000221
C33	C	0.966489	0.151931	-0.000253
C34	C	1.043843	0.153902	-0.000277
C35	C	0.863348	0.383218	-0.000228
C36	C	0.881550	0.517833	-0.000235
N37	N	0.840670	0.161464	0.177936
N38	N	0.840721	0.161483	-0.178374
C39	C	0.877570	0.078804	0.217315
C40	C	0.877573	0.078799	0.296117
C41	C	0.840686	0.161474	0.335537
C42	C	0.803778	0.244140	0.296149
C43	C	0.803770	0.244135	0.217349
C44	C	0.845401	0.271967	0.460372
C45	C	0.845414	0.271973	0.539171
C46	C	0.840706	0.161488	0.578583
C47	C	0.836000	0.050992	0.539187
C48	C	0.835992	0.050987	0.460387
C49	C	0.840690	0.161488	0.420983
C50	C	0.877612	0.078816	0.703408
C51	C	0.877610	0.078808	0.782211
C52	C	0.803819	0.244160	0.782242
C53	C	0.803816	0.244157	0.703440
C54	C	0.840716	0.161486	0.664028
H55	H	0.172402	-0.043078	-0.000246
C56	C	0.408148	-0.014369	-0.092331
N57	N	0.434759	-0.083742	-0.128675
C58	C	0.255525	-0.018278	-0.092349
N59	N	0.221924	-0.089211	-0.128688
C60	C	0.652804	0.401245	-0.000173
N61	N	0.687497	0.493591	-0.000161
H62	H	0.773742	0.311453	0.328249
H63	H	0.488883	-0.034995	-0.000194
H64	H	0.849223	0.361943	0.428289
H65	H	0.040545	-0.046440	-0.000318
H66	H	0.938508	-0.442594	-0.000306
C67	C	0.722892	-0.248341	-0.000188
N68	N	0.664936	-0.288608	-0.000171
H69	H	0.849250	0.361946	0.571241
H70	H	0.907050	-0.229377	-0.000233
H71	H	0.907655	0.011490	0.814274
H72	H	0.774326	-0.447663	-0.000211
C73	C	0.918153	-0.012148	0.173966
N74	N	0.948718	-0.080658	0.141315
H75	H	0.620743	-0.031642	-0.000150
H76	H	0.907623	0.011485	0.328185
H77	H	0.773720	0.311447	0.185286
H78	H	0.832158	-0.038983	0.428314
C79	C	0.051843	0.385907	-0.000278
N80	N	0.026327	0.476716	-0.000281
C81	C	0.830819	-0.070552	0.582535
N82	N	0.826918	-0.162096	0.615188
H83	H	0.508984	0.366029	-0.000202
C84	C	0.918194	-0.012134	0.660052
N85	N	0.948760	-0.080640	0.627398
C86	C	0.763242	0.335105	0.825599
N87	N	0.732679	0.403606	0.858260
C88	C	0.763283	0.335178	0.660122
N89	N	0.732771	0.403766	0.627495
C90	C	0.273240	0.337324	0.091871
N91	N	0.246623	0.406695	0.128211
C92	C	0.204468	0.389806	-0.000263
N93	N	0.239162	0.482151	-0.000259
C94	C	0.425869	0.341219	0.091899
N95	N	0.459473	0.412126	0.128253
