data_functionalizedCrystal
_audit_creation_method	'MofGen! by Chris Wilmer'
_symmetry_space_group_name_H-M	'P1'
_symmetry_Int_Tables_number	1
_symmetry_cell_setting	triclinic
loop_
_symmetry_equiv_pos_as_xyz
  x,y,z
_cell_length_a	12.837943
_cell_length_b	17.038272
_cell_length_c	11.295483
_cell_angle_alpha	94.391706
_cell_angle_beta	85.461227
_cell_angle_gamma	92.970248
loop_
_atom_site_label
_atom_site_type_symbol
_atom_site_fract_x
_atom_site_fract_y
_atom_site_fract_z
O1	O	1.400057	0.199823	-0.099006
O2	O	1.900057	0.699823	0.400994
O3	O	1.097361	0.189716	-0.099013
O4	O	1.597361	0.689716	0.400987
O5	O	1.246909	0.080820	-0.099000
O6	O	1.746909	0.580820	0.401000
O7	O	1.250509	0.308719	-0.099019
O8	O	1.750509	0.808719	0.400981
O9	O	1.233773	0.090368	0.099049
O10	O	1.733773	0.590368	0.599049
O11	O	1.084224	0.199264	0.099036
O12	O	1.584224	0.699264	0.599036
O13	O	1.386921	0.209371	0.099043
O14	O	1.886921	0.709371	0.599043
Cu15	Cu	1.234373	0.205189	0.117123
Cu16	Cu	1.734373	0.705189	0.617123
Cu17	Cu	1.249908	0.193897	-0.117093
Cu18	Cu	1.749908	0.693897	0.382907
O19	O	1.237372	0.318267	0.099030
O20	O	1.737372	0.818267	0.599030
C21	C	1.051871	0.191076	0.000011
C22	C	1.551871	0.691076	0.500011
C23	C	0.935896	0.180893	0.000008
C24	C	1.435896	0.680893	0.500008
C25	C	0.705733	0.303310	0.000015
C26	C	1.205733	0.803310	0.500015
C27	C	0.596764	0.293746	0.000014
C28	C	1.096764	0.793746	0.500014
C29	C	0.608986	0.152201	0.000013
C30	C	1.108986	0.652201	0.500013
C31	C	0.717955	0.161765	0.000014
C32	C	1.217955	0.661765	0.500014
C33	C	0.766324	0.237322	0.000014
C34	C	1.266324	0.737322	0.500014
C35	C	0.875296	0.246885	0.000007
C36	C	1.375296	0.746885	0.500007
C37	C	0.887516	0.105342	0.000014
C38	C	1.387516	0.605342	0.500014
C39	C	0.778546	0.095777	0.000013
C40	C	1.278546	0.595777	0.500013
C41	C	1.237069	0.056221	0.000024
C42	C	1.737069	0.556221	0.500024
C43	C	1.227305	-0.031301	0.000024
C44	C	1.727305	0.468699	0.500024
C45	C	1.316945	-0.074719	0.000027
C46	C	1.816945	0.425281	0.500027
C47	C	1.307766	-0.156956	0.000015
C48	C	1.807766	0.343044	0.500015
C49	C	1.208945	-0.195773	0.000009
C50	C	1.708945	0.304227	0.500009
C51	C	1.119299	-0.152349	0.000002
C52	C	1.619299	0.347651	0.500002
C53	C	1.128480	-0.070114	0.000005
C54	C	1.628480	0.429886	0.500005
C55	C	1.176511	-0.443954	-0.000008
C56	C	1.676511	0.056046	0.499992
C57	C	1.167337	-0.526195	-0.000007
C58	C	1.667337	-0.026195	0.499993
C59	C	1.355805	-0.530796	0.000004
C60	C	1.855805	-0.030796	0.500004
C61	C	1.364977	-0.448559	0.000014
C62	C	1.864977	0.051441	0.500014
C63	C	1.275331	-0.405143	0.000001
C64	C	1.775331	0.094857	0.500001
C65	C	1.199560	-0.279832	0.000001
C66	C	1.699560	0.220168	0.500001
C67	C	1.284718	-0.321086	0.000000
C68	C	1.784718	0.178914	0.500000
C69	C	1.432411	0.208011	0.000017
C70	C	1.932411	0.708011	0.500017
C71	C	1.548386	0.218194	0.000011
C72	C	2.048386	0.718194	0.500011
C73	C	1.247213	0.342865	0.000003
C74	C	1.747213	0.842865	0.500003
C75	C	1.256977	0.430387	-0.000004
C76	C	1.756977	0.930387	0.499996
N77	N	1.223454	0.213132	0.281859
N78	N	1.723454	0.713132	0.781859
N79	N	1.260835	0.185950	-0.281829
N80	N	1.760835	0.685950	0.218171
C81	C	1.339435	0.128734	0.531158
C82	C	1.839435	0.628734	1.031158
C83	C	1.331191	0.134742	0.655821
C84	C	1.831191	0.634742	1.155821
C85	C	1.198717	0.231151	0.655850
C86	C	1.698717	0.731151	1.155850
C87	C	1.206961	0.225143	0.531187
C88	C	1.706961	0.725143	1.031187
C89	C	1.277323	0.173934	0.468845
C90	C	1.777323	0.673934	0.968845
C91	C	1.285572	0.167930	0.344180
C92	C	1.785572	0.667930	0.844180
C93	C	1.153093	0.264335	0.344211
C94	C	1.653093	0.764335	0.844211
C95	C	1.144849	0.270343	0.468874
C96	C	1.644849	0.770343	0.968874
H97	H	0.745116	0.364831	0.000013
H98	H	1.245116	0.864831	0.500013
H99	H	0.739148	0.034262	0.000027
H100	H	1.239148	0.534262	0.500027
H101	H	1.342867	0.126235	0.293423
H102	H	1.842867	0.626235	0.793423
Br103	Br	0.514533	0.383305	0.000024
Br104	Br	1.014533	0.883305	0.500024
H105	H	0.936862	0.051609	0.000005
H106	H	1.436862	0.551609	0.500005
Br107	Br	0.543321	0.049669	0.000035
Br108	Br	1.043321	0.549669	0.500035
Br109	Br	1.103215	0.300635	0.740467
Br110	Br	1.603215	0.800635	1.240467
H111	H	1.087559	0.312035	0.519647
H112	H	1.587559	0.812035	1.019647
Br113	Br	1.068806	0.325688	0.259633
Br114	Br	1.568806	0.825688	0.759633
Br115	Br	1.451064	-0.022046	0.000053
Br116	Br	1.951064	0.477954	0.500053
H117	H	1.380760	-0.192303	0.000021
H118	H	1.880760	0.307697	0.500021
H119	H	1.396734	0.087042	0.480399
H120	H	1.896734	0.587042	0.980399
Br121	Br	1.499098	-0.395886	-0.000016
Br122	Br	1.999098	0.104114	0.499984
H123	H	1.428789	-0.566154	0.000012
H124	H	1.928789	-0.066154	0.500012
H125	H	1.381767	0.097934	0.706553
H126	H	1.881767	0.597934	1.206553
H127	H	0.914677	0.308407	0.000008
H128	H	1.414677	0.808407	0.500008
Br129	Br	1.054848	-0.385043	-0.000033
Br130	Br	1.554848	0.114957	0.499967
Br131	Br	1.033214	-0.578874	-0.000003
Br132	Br	1.533214	-0.078874	0.499997
H133	H	1.038837	-0.183960	-0.000010
H134	H	1.538837	0.316040	0.499990
Br135	Br	1.418828	-0.268405	-0.000002
Br136	Br	1.918828	0.231595	0.499998
Br137	Br	1.006821	-0.011189	-0.000009
Br138	Br	1.506821	0.488811	0.499991
H139	H	1.119099	-0.311445	-0.000001
H140	H	1.619099	0.188555	0.499999
