data_functionalizedCrystal
_audit_creation_method	'MofGen! by Chris Wilmer'
_symmetry_space_group_name_H-M	'P1'
_symmetry_Int_Tables_number	1
_symmetry_cell_setting	triclinic
loop_
_symmetry_equiv_pos_as_xyz
  x,y,z
_cell_length_a	16.992694
_cell_length_b	27.732048
_cell_length_c	16.053802
_cell_angle_alpha	92.539157
_cell_angle_beta	87.249047
_cell_angle_gamma	86.655439
loop_
_atom_site_label
_atom_site_type_symbol
_atom_site_fract_x
_atom_site_fract_y
_atom_site_fract_z
O1	O	1.042477	0.100541	-0.069340
O2	O	1.542477	0.600541	0.430660
O3	O	0.814206	0.099416	-0.069364
O4	O	1.314206	0.599416	0.430636
O5	O	0.935430	0.029889	-0.069335
O6	O	1.435430	0.529889	0.430665
O7	O	0.921253	0.170068	-0.069368
O8	O	1.421253	0.670068	0.430632
O9	O	0.928758	0.033699	0.069522
O10	O	1.428758	0.533699	0.569522
O11	O	0.807534	0.103227	0.069493
O12	O	1.307534	0.603227	0.569493
O13	O	1.035804	0.104351	0.069518
O14	O	1.535804	0.604351	0.569518
Zn15	Zn	0.920610	0.104394	0.091552
Zn16	Zn	1.420610	0.604394	0.591552
Zn17	Zn	0.929401	0.099374	-0.091398
Zn18	Zn	1.429401	0.599374	0.408602
O19	O	0.914580	0.173879	0.069489
O20	O	1.414580	0.673879	0.569489
C21	C	0.781675	0.099876	0.000062
C22	C	1.281675	0.599876	0.500062
C23	C	0.694684	0.095561	0.000053
C24	C	1.194684	0.595561	0.500053
C25	C	0.643939	0.137184	0.000044
C26	C	1.143939	0.637184	0.500044
C27	C	0.562201	0.133129	0.000056
C28	C	1.062201	0.633129	0.500056
C29	C	0.531209	0.087449	0.000072
C30	C	1.031209	0.587449	0.500072
C31	C	0.581960	0.045823	0.000084
C32	C	1.081960	0.545823	0.500084
C33	C	0.663696	0.049880	0.000077
C34	C	1.163696	0.549880	0.500077
C35	C	0.287814	0.070636	0.000098
C36	C	0.787814	0.570636	0.500098
C37	C	0.206072	0.066583	0.000103
C38	C	0.706072	0.566583	0.500103
C39	C	0.186318	0.153889	0.000077
C40	C	0.686318	0.653889	0.500077
C41	C	0.268057	0.157941	0.000065
C42	C	0.768057	0.657941	0.500065
C43	C	0.318800	0.116315	0.000081
C44	C	0.818800	0.616315	0.500081
N45	N	0.447660	0.083302	0.000082
N46	N	0.947660	0.583302	0.500082
N47	N	0.402348	0.120463	0.000077
N48	N	0.902348	0.620463	0.500077
C49	C	0.931796	0.013774	0.000096
C50	C	1.431796	0.513774	0.500096
C51	C	0.930900	-0.039919	0.000103
C52	C	1.430900	0.460081	0.500103
C53	C	0.996895	-0.375882	0.000067
C54	C	1.496895	0.124118	0.500067
C55	C	0.993571	-0.577686	0.000055
C56	C	1.493571	-0.077686	0.500055
O57	O	1.053919	-0.606333	0.000025
O58	O	1.553919	-0.106333	0.500025
N59	N	0.921689	-0.599917	0.000048
N60	N	1.421689	-0.099917	0.500048
C61	C	0.850634	-0.571695	0.000038
C62	C	1.350634	-0.071695	0.500038
O63	O	0.789419	-0.595235	0.000024
O64	O	1.289419	-0.095235	0.500024
C65	C	0.853960	-0.369893	0.000045
C66	C	1.353960	0.130107	0.500045
C67	C	0.925846	-0.347663	0.000060
C68	C	1.425846	0.152337	0.500060
C69	C	1.068775	-0.353652	0.000081
C70	C	1.568775	0.146348	0.500081
C71	C	1.069606	-0.303204	0.000089
C72	C	1.569606	0.196796	0.500089
C73	C	0.998556	-0.274986	0.000082
C74	C	1.498556	0.225014	0.500082
C75	C	0.926676	-0.297215	0.000067
C76	C	1.426676	0.202785	0.500067
C77	C	0.782906	-0.341671	0.000029
C78	C	1.282906	0.158329	0.500029
C79	C	0.783744	-0.291218	0.000029
C80	C	1.283744	0.208782	0.500029
C81	C	0.855630	-0.268989	0.000044
C82	C	1.355630	0.231011	0.500044
C83	C	0.856457	-0.218549	0.000068
C84	C	1.356457	0.281451	0.500068
N85	N	0.928338	-0.196317	0.000075
N86	N	1.428338	0.303683	0.500075
C87	C	0.999388	-0.224535	0.000082
C88	C	1.499388	0.275465	0.500082
C89	C	0.848893	-0.677645	0.000037
C90	C	1.348893	-0.177645	0.500037
C91	C	0.848061	-0.728095	0.000037
C92	C	1.348061	-0.228095	0.500037
C93	C	0.990998	-0.734082	0.000052
C94	C	1.490998	-0.234082	0.500052
C95	C	0.991829	-0.683631	0.000058
C96	C	1.491829	-0.183631	0.500058
C97	C	0.920775	-0.655413	0.000044
C98	C	1.420775	-0.155413	0.500044
C99	C	1.001126	-0.118591	0.000098
C100	C	1.501126	0.381409	0.500098
C101	C	1.001949	-0.068138	0.000109
C102	C	1.501949	0.431862	0.500109
C103	C	0.859013	-0.062155	0.000090
C104	C	1.359013	0.437845	0.500090
C105	C	0.858189	-0.112603	0.000084
C106	C	1.358189	0.387397	0.500084
C107	C	0.929252	-0.140820	0.000085
C108	C	1.429252	0.359180	0.500085
O109	O	0.796141	-0.189872	0.000089
O110	O	1.296141	0.310128	0.500089
O111	O	1.060595	-0.200987	0.000078
O112	O	1.560595	0.299013	0.500078
C113	C	0.996065	-0.426330	0.000059
C114	C	1.496065	0.073670	0.500059
C115	C	0.924185	-0.448559	0.000045
C116	C	1.424185	0.051441	0.500045
C117	C	0.853136	-0.420341	0.000038
C118	C	1.353136	0.079659	0.500038
C119	C	0.923354	-0.499010	0.000045
C120	C	1.423354	0.000990	0.500045
C121	C	0.994403	-0.527228	0.000052
C122	C	1.494403	-0.027228	0.500052
C123	C	1.066285	-0.504997	0.000059
C124	C	1.566285	-0.004997	0.500059
C125	C	1.067115	-0.454549	0.000066
C126	C	1.567115	0.045451	0.500066
C127	C	0.781254	-0.442573	0.000031
C128	C	1.281254	0.057427	0.500031
C129	C	0.780430	-0.493021	0.000024
C130	C	1.280430	0.006979	0.500024
C131	C	0.851480	-0.521240	0.000031
C132	C	1.351480	-0.021240	0.500031
C133	C	1.068336	0.103892	0.000090
C134	C	1.568336	0.603892	0.500090
C135	C	1.155327	0.108206	0.000093
C136	C	1.655327	0.608206	0.500093
C137	C	0.918214	0.189993	0.000056
C138	C	1.418214	0.689993	0.500056
C139	C	0.919111	0.243686	0.000044
C140	C	1.419111	0.743686	0.500044
N141	N	0.914616	0.107820	0.216411
N142	N	1.414616	0.607820	0.716411
N143	N	0.935401	0.095944	-0.216257
N144	N	1.435401	0.595944	0.283743
C145	C	0.966215	0.078248	0.260117
C146	C	1.466215	0.578248	0.760117
C147	C	0.962030	0.080649	0.347523
C148	C	1.462030	0.580649	0.847523
C149	C	0.906248	0.112625	0.391221
C150	C	1.406248	0.612625	0.891221
C151	C	0.854643	0.142199	0.347509
C152	C	1.354643	0.642199	0.847509
C153	C	0.858825	0.139794	0.260104
C154	C	1.358825	0.639794	0.760104
C155	C	0.887978	0.123113	0.652626
C156	C	1.387978	0.623113	1.152626
C157	C	0.883801	0.125516	0.740037
C158	C	1.383801	0.625516	1.240037
C159	C	0.991188	0.063966	0.740045
C160	C	1.491188	0.563966	1.240045
C161	C	0.995369	0.061567	0.652639
C162	C	1.495369	0.561567	1.152639
C163	C	0.943761	0.091138	0.608934
C164	C	1.443761	0.591138	1.108934
N165	N	0.901970	0.115082	0.480564
N166	N	1.401970	0.615082	0.980564
N167	N	0.948036	0.088679	0.519593
N168	N	1.448036	0.588679	1.019593
H169	H	0.705012	0.015986	0.000084
H170	H	1.205012	0.515986	0.500084
N171	N	0.131597	0.198787	0.000069
N172	N	0.631597	0.698787	0.500069
H173	H	0.099707	0.197642	-0.051401
H174	H	0.599707	0.697642	0.448599
H175	H	0.094831	0.200440	0.051582
H176	H	0.594831	0.700440	0.551582
N177	N	1.017703	0.048759	0.394650
N178	N	1.517703	0.548759	0.894650
H179	H	0.986300	0.027188	0.430930
H180	H	1.486300	0.527188	0.930930
H181	H	1.053662	0.028177	0.353640
H182	H	1.553662	0.528177	0.853640
H183	H	1.011642	0.052211	0.224544
H184	H	1.511642	0.552211	0.724544
N185	N	1.055534	0.027079	0.605509
N186	N	1.555534	0.527079	1.105509
H187	H	1.087588	0.008708	0.646461
H188	H	1.587588	0.508708	1.146461
H189	H	1.027527	0.003553	0.569258
H190	H	1.527527	0.503553	1.069258
H191	H	0.556720	0.008630	0.000109
H192	H	1.056720	0.508630	0.500109
H193	H	0.845959	0.147193	0.617049
H194	H	1.345959	0.647193	1.117049
N195	N	0.702886	-0.516988	0.000007
N196	N	1.202886	-0.016988	0.500007
H197	H	0.701827	-0.539190	-0.051473
H198	H	1.201827	-0.039190	0.448527
H199	H	0.696914	-0.536354	0.051510
H200	H	1.196914	-0.036354	0.551510
H201	H	0.838375	0.151557	0.775611
H202	H	1.338375	0.651557	1.275611
H203	H	0.725882	-0.268245	0.000016
H204	H	1.225882	0.231755	0.500016
N205	N	0.301479	0.207211	0.000063
N206	N	0.801479	0.707211	0.500063
H207	H	0.360958	0.203465	0.000060
H208	H	0.860958	0.703465	0.500060
H209	H	0.285345	0.224154	-0.051415
H210	H	0.785345	0.724154	0.448585
H211	H	0.789524	-0.746189	0.000039
H212	H	1.289524	-0.246189	0.500039
N213	N	1.145414	-0.384084	0.000090
N214	N	1.645414	0.115916	0.500090
H215	H	1.191068	-0.362339	0.000099
H216	H	1.691068	0.137661	0.500099
H217	H	1.145710	-0.403735	0.051569
H218	H	1.645710	0.096265	0.551569
H219	H	0.180842	0.029383	0.000114
H220	H	0.680842	0.529383	0.500114
H221	H	1.058992	-0.141559	0.000096
H222	H	1.558992	0.358441	0.500096
H223	H	1.033204	0.039890	0.775637
H224	H	1.533204	0.539890	1.275637
N225	N	0.342536	0.025740	0.000096
N226	N	0.842536	0.525740	0.500096
H227	H	0.399020	0.035238	0.000090
H228	H	0.899020	0.535238	0.500090
H229	H	0.330097	0.007379	0.051574
H230	H	0.830097	0.507379	0.551574
H231	H	1.060490	-0.050041	0.000124
H232	H	1.560490	0.449959	0.500124
H233	H	0.791029	-0.654674	0.000026
H234	H	1.291029	-0.154674	0.500026
H235	H	1.048850	-0.757066	0.000058
H236	H	1.548850	-0.257066	0.500058
N237	N	1.147140	-0.279232	0.000102
N238	N	1.647140	0.220768	0.500102
H239	H	1.192017	-0.304770	0.000104
H240	H	1.692017	0.195230	0.500104
H241	H	1.153075	-0.259839	-0.051373
H242	H	1.653075	0.240161	0.448627
H243	H	1.050364	-0.665535	0.000070
H244	H	1.550364	-0.165535	0.500070
H245	H	0.724370	-0.359762	0.000012
H246	H	1.224370	0.140238	0.500012
N247	N	0.704618	-0.412141	0.000023
N248	N	1.204618	0.087859	0.500023
H249	H	0.658962	-0.433884	0.000017
H250	H	1.158962	0.066116	0.500017
H251	H	0.699374	-0.389673	0.051503
H252	H	1.199374	0.110327	0.551503
H253	H	0.809220	0.168233	0.383093
H254	H	1.309220	0.668233	0.883093
H255	H	0.816806	0.163875	0.224520
H256	H	1.316806	0.663875	0.724520
H257	H	0.799653	-0.130703	0.000094
H258	H	1.299653	0.369297	0.500094
N259	N	0.782383	-0.031714	0.000106
N260	N	1.282383	0.468286	0.500106
H261	H	0.793823	0.003618	0.000115
H262	H	1.293823	0.503618	0.500115
H263	H	0.753493	-0.040625	-0.051372
H264	H	1.253493	0.459375	0.448628
H265	H	1.125652	-0.436454	0.000078
H266	H	1.625652	0.063546	0.500078
H267	H	0.520888	0.167023	0.000048
H268	H	1.020888	0.667023	0.500048
N269	N	0.677364	0.186453	0.000017
N270	N	1.177364	0.686453	0.500017
H271	H	0.632811	0.212205	0.000014
H272	H	1.132811	0.712205	0.500014
H273	H	0.708382	0.191452	0.051489
H274	H	1.208382	0.691452	0.551489
N275	N	1.142918	-0.535437	0.000074
N276	N	1.642918	-0.035437	0.500074
H277	H	1.131476	-0.570769	0.000068
H278	H	1.631476	-0.070769	0.500068
H279	H	1.176747	-0.529337	-0.051398
H280	H	1.676747	-0.029337	0.448602
