data_functionalizedCrystal
_audit_creation_method	'MofGen! by Chris Wilmer'
_symmetry_space_group_name_H-M	'P1'
_symmetry_Int_Tables_number	1
_symmetry_cell_setting	triclinic
loop_
_symmetry_equiv_pos_as_xyz
  x,y,z
_cell_length_a	29.839131
_cell_length_b	29.839134
_cell_length_c	29.839125
_cell_angle_alpha	89.973955
_cell_angle_beta	90.017709
_cell_angle_gamma	89.966214
loop_
_atom_site_label
_atom_site_type_symbol
_atom_site_fract_x
_atom_site_fract_y
_atom_site_fract_z
Zn1	Zn	-0.179008	-0.686720	0.254174
Zn2	Zn	-0.254120	-0.686652	0.179044
Zn3	Zn	-0.178995	-0.611602	0.179038
Zn4	Zn	-0.254101	-0.611550	0.254127
O5	O	-0.216556	-0.649131	0.216596
O6	O	-0.188985	-0.749578	0.244230
O7	O	-0.244156	-0.676690	0.116176
O8	O	-0.116129	-0.621617	0.189022
O9	O	-0.244169	-0.749528	0.189032
O10	O	-0.116139	-0.676805	0.244224
O11	O	-0.188962	-0.621551	0.116172
O12	O	-0.188945	-0.548728	0.188977
O13	O	-0.244138	-0.621528	0.317000
O14	O	-0.244125	-0.548690	0.244144
O15	O	-0.188967	-0.676755	0.317035
O16	O	-0.316985	-0.676639	0.188986
O17	O	-0.316971	-0.621462	0.244150
C18	C	-0.216532	-0.532408	0.216555
C19	C	-0.216532	-0.482474	0.216548
C20	C	-0.187777	-0.125894	0.187913
C21	C	-0.187766	-0.313567	0.187891
O22	O	-0.163282	-0.337838	0.163512
N23	N	-0.216539	-0.337029	0.216566
C24	C	-0.245314	-0.313569	0.245251
O25	O	-0.269783	-0.337831	0.269644
C26	C	-0.245323	-0.125897	0.245275
C27	C	-0.216552	-0.102438	0.216594
C28	C	-0.159008	-0.102435	0.159235
C29	C	-0.159013	-0.055520	0.159239
C30	C	-0.187787	-0.032063	0.187921
C31	C	-0.216556	-0.055522	0.216598
C32	C	-0.274096	-0.102438	0.273961
C33	C	-0.274095	-0.055517	0.273965
C34	C	-0.245323	-0.032058	0.245285
C35	C	-0.245336	0.014849	0.245284
N36	N	-0.216563	0.038311	0.216609
C37	C	-0.187789	0.014854	0.187927
C38	C	-0.245308	-0.412100	0.245236
C39	C	-0.245306	-0.459018	0.245230
C40	C	-0.187758	-0.459013	0.187870
C41	C	-0.187762	-0.412094	0.187875
C42	C	-0.216535	-0.388638	0.216561
C43	C	-0.187801	0.113380	0.187937
C44	C	-0.187810	0.160300	0.187942
C45	C	-0.245357	0.160291	0.245303
C46	C	-0.245350	0.113375	0.245297
C47	C	-0.216569	0.089921	0.216612
O48	O	-0.269803	0.039149	0.269653
O49	O	-0.163316	0.039124	0.163545
C50	C	-0.187773	-0.172810	0.187909
C51	C	-0.216542	-0.196269	0.216586
C52	C	-0.245316	-0.172812	0.245268
C53	C	-0.216540	-0.243187	0.216580
C54	C	-0.187766	-0.266643	0.187898
C55	C	-0.158994	-0.243182	0.159223
C56	C	-0.158998	-0.196266	0.159227
C57	C	-0.274089	-0.196274	0.273943
C58	C	-0.274082	-0.243189	0.273936
C59	C	-0.245308	-0.266646	0.245255
C60	C	-0.333279	-0.649050	0.216573
C61	C	-0.383213	-0.649056	0.216579
C62	C	-0.692851	-0.677914	0.187914
C63	C	-0.880524	-0.677969	0.187931
O64	O	-0.904784	-0.702441	0.163543
N65	N	-0.903998	-0.649224	0.216629
C66	C	-0.880551	-0.620465	0.245327
O67	O	-0.904824	-0.596020	0.269740
C68	C	-0.692879	-0.620412	0.245312
C69	C	-0.669407	-0.649156	0.216609
C70	C	-0.669379	-0.706656	0.159214
C71	C	-0.622463	-0.706640	0.159208
C72	C	-0.599020	-0.677882	0.187902
C73	C	-0.622492	-0.649140	0.216603
C74	C	-0.669433	-0.591656	0.274011
C75	C	-0.622512	-0.591646	0.274006
C76	C	-0.599040	-0.620390	0.245303
C77	C	-0.552133	-0.620367	0.245292
N78	N	-0.528658	-0.649112	0.216594
C79	C	-0.552102	-0.677869	0.187899
C80	C	-0.979082	-0.620494	0.245333
C81	C	-1.026000	-0.620507	0.245336
C82	C	-1.025969	-0.678012	0.187941
C83	C	-0.979050	-0.677996	0.187936
C84	C	-0.955607	-0.649239	0.216635
C85	C	-0.453576	-0.677834	0.187889
C86	C	-0.406657	-0.677814	0.187884
C87	C	-0.406691	-0.620311	0.245281
C88	C	-0.453607	-0.620329	0.245284
C89	C	-0.477048	-0.649094	0.216586
O90	O	-0.527844	-0.595912	0.269671
O91	O	-0.527821	-0.702318	0.163497
C92	C	-0.739766	-0.677930	0.187920
C93	C	-0.763238	-0.649188	0.216620
C94	C	-0.739794	-0.620430	0.245315
C95	C	-0.810156	-0.649200	0.216624
C96	C	-0.833599	-0.677958	0.187929
C97	C	-0.810125	-0.706703	0.159231
C98	C	-0.763210	-0.706687	0.159225
C99	C	-0.763269	-0.591685	0.274013
C100	C	-0.810184	-0.591703	0.274016
C101	C	-0.833628	-0.620461	0.245321
C102	C	-0.099378	-0.649225	0.216628
C103	C	-0.049443	-0.649265	0.216641
C104	C	-0.216552	-0.649143	0.333774
C105	C	-0.216550	-0.649148	0.383708
C106	C	-0.216579	0.233691	0.216629
C107	C	-0.216584	0.183756	0.216624
C108	C	-0.216528	-0.649145	0.099873
C109	C	-0.216403	-0.649227	0.049939
C110	C	-0.187747	-0.677935	0.693373
C111	C	-0.187709	-0.677957	0.881046
O112	O	-0.163262	-0.702399	0.905329
N113	N	-0.216430	-0.649208	0.904494
C114	C	-0.245160	-0.620449	0.881020
O115	O	-0.269585	-0.595993	0.905270
C116	C	-0.245196	-0.620424	0.693348
C117	C	-0.216476	-0.649179	0.669903
C118	C	-0.159030	-0.706687	0.669928
C119	C	-0.159042	-0.706683	0.623012
C120	C	-0.187771	-0.677927	0.599542
C121	C	-0.216488	-0.649175	0.622987
C122	C	-0.273924	-0.591663	0.669875
C123	C	-0.273929	-0.591659	0.622954
C124	C	-0.245210	-0.620414	0.599509
C125	C	-0.245229	-0.620415	0.552602
N126	N	-0.216508	-0.649164	0.529154
C127	C	-0.187779	-0.677920	0.552624
C128	C	-0.245140	-0.620464	0.979551
C129	C	-0.245132	-0.620471	1.026469
C130	C	-0.187680	-0.677979	1.026491
C131	C	-0.187691	-0.677974	0.979573
C132	C	-0.216419	-0.649214	0.956103
C133	C	-0.187806	-0.677910	0.454098
C134	C	-0.187821	-0.677904	0.407179
C135	C	-0.245271	-0.620395	0.407160
C136	C	-0.245257	-0.620402	0.454076
C137	C	-0.216521	-0.649161	0.477543
O138	O	-0.269659	-0.595982	0.528290
O139	O	-0.163351	-0.702366	0.528366
C140	C	-0.187736	-0.677939	0.740288
C141	C	-0.216453	-0.649187	0.763734
C142	C	-0.245182	-0.620431	0.740263
C143	C	-0.216445	-0.649194	0.810651
C144	C	-0.187716	-0.677950	0.834122
C145	C	-0.158995	-0.706699	0.810674
C146	C	-0.159007	-0.706695	0.763759
C147	C	-0.273903	-0.591682	0.763711
C148	C	-0.273889	-0.591689	0.810627
C149	C	-0.245160	-0.620445	0.834097
H150	H	-0.297520	-0.177180	0.297300
O151	O	-0.302080	-0.265995	0.301735
C152	C	-0.362719	-0.318959	0.307684
C153	C	-0.331053	-0.293154	0.276148
H154	H	-0.386146	-0.340930	0.287010
H155	H	-0.383316	-0.294151	0.328176
H156	H	-0.342113	-0.340925	0.331218
H157	H	-0.351624	-0.271188	0.252587
H158	H	-0.310455	-0.317986	0.255688
H159	H	-0.959942	-0.701402	0.164563
O160	O	-0.273094	-0.592448	0.476901
C161	C	-0.279103	-0.531765	0.529818
C162	C	-0.247533	-0.563407	0.504011
H163	H	-0.258450	-0.508272	0.551736
H164	H	-0.302588	-0.552343	0.551824
H165	H	-0.299648	-0.511235	0.504971
H166	H	-0.226959	-0.583945	0.528825
H167	H	-0.224078	-0.542804	0.481998
H168	H	-0.135654	-0.730097	0.603927
H169	H	-0.164404	-0.701327	0.473200
O170	O	-0.131008	-0.125237	0.131434
C171	C	-0.070356	-0.178251	0.125472
C172	C	-0.102029	-0.152453	0.157014
H173	H	-0.046925	-0.200269	0.146140
H174	H	-0.049765	-0.153438	0.104988
H175	H	-0.090956	-0.200169	0.101931
H176	H	-0.081464	-0.130534	0.180583
H177	H	-0.122622	-0.177290	0.177467
O178	O	-0.692156	-0.563721	0.301938
C179	C	-0.687215	-0.506673	0.358854
C180	C	-0.661426	-0.538295	0.327254
H181	H	-0.662380	-0.486100	0.379323
H182	H	-0.709139	-0.527267	0.382402
H183	H	-0.709223	-0.483217	0.338202
H184	H	-0.639393	-0.561756	0.347869
H185	H	-0.639530	-0.517673	0.303705
H186	H	-0.297299	-0.568265	0.744606
H187	H	-0.135566	-0.262288	0.135868
O188	O	-0.301979	-0.125267	0.301848
C189	C	-0.308101	-0.178232	0.362519
C190	C	-0.276473	-0.152417	0.330954
H191	H	-0.287492	-0.200183	0.386065
H192	H	-0.331560	-0.200207	0.341884
H193	H	-0.328670	-0.153391	0.382997
H194	H	-0.255875	-0.177227	0.310468
H195	H	-0.253043	-0.130436	0.351614
H196	H	-0.268740	-0.478114	0.268579
H197	H	-0.297281	-0.568274	0.829712
O198	O	-0.131167	-0.734668	0.740964
C199	C	-0.125126	-0.795299	0.687992
C200	C	-0.156710	-0.763658	0.713784
H201	H	-0.145764	-0.818740	0.666003
H202	H	-0.104597	-0.815882	0.712808
H203	H	-0.101629	-0.774674	0.666045
H204	H	-0.180235	-0.784248	0.735731
H205	H	-0.177208	-0.743074	0.688942
H206	H	-0.387547	-0.701220	0.164509
H207	H	-0.164332	-0.392997	0.164522
O208	O	-0.740393	-0.734547	0.131297
C209	C	-0.687428	-0.740628	0.070656
C210	C	-0.713244	-0.709023	0.102251
H211	H	-0.665465	-0.720005	0.047170
H212	H	-0.712230	-0.761174	0.050118
H213	H	-0.665454	-0.764109	0.091314
H214	H	-0.735219	-0.685515	0.081627
H215	H	-0.688418	-0.688509	0.122790
O216	O	-0.302005	-0.032664	0.301817
C217	C	-0.327539	0.039612	0.327230
C218	C	-0.295900	0.013788	0.295675
H219	H	-0.322621	0.077172	0.322269
H220	H	-0.319700	0.030395	0.363478
H221	H	-0.363746	0.030380	0.319281
H222	H	-0.259682	0.023005	0.303584
H223	H	-0.303778	0.023006	0.259437
H224	H	-0.268523	-0.597061	1.045554
H225	H	-0.164380	0.179398	0.164586
H226	H	-0.268741	-0.393007	0.268597
O227	O	-0.599719	-0.563775	0.301932
C228	C	-0.546709	-0.557672	0.362557
C229	C	-0.572500	-0.589287	0.330968
H230	H	-0.524689	-0.578286	0.386034
H231	H	-0.571526	-0.537140	0.383104
H232	H	-0.524793	-0.534178	0.341894
H233	H	-0.594417	-0.612808	0.351596
H234	H	-0.547659	-0.609787	0.310419
H235	H	-0.472656	-0.701258	0.164521
O236	O	-0.599717	-0.734545	0.131267
C237	C	-0.585365	-0.756397	0.054873
C238	C	-0.611156	-0.724769	0.086465
H239	H	-0.594597	-0.748499	0.018643
H240	H	-0.594569	-0.792624	0.062773
H241	H	-0.547805	-0.751462	0.059816
H242	H	-0.648722	-0.729664	0.081539
H243	H	-0.601914	-0.688554	0.078556
O244	O	-1.048816	-0.705960	0.160136
C245	C	-1.121088	-0.731504	0.134758
C246	C	-1.095268	-0.699819	0.166255
H247	H	-1.158649	-0.726543	0.139687
H248	H	-1.111845	-0.767717	0.142729
H249	H	-1.111881	-0.723684	0.098513
H250	H	-1.104461	-0.707598	0.202510
H251	H	-1.104513	-0.663615	0.158245
O252	O	-0.131058	-0.734602	0.692671
C253	C	-0.054640	-0.756465	0.707047
C254	C	-0.086267	-0.724824	0.681259
H255	H	-0.018419	-0.748564	0.697837
H256	H	-0.062506	-0.792687	0.697817
H257	H	-0.059583	-0.751547	0.744607
H258	H	-0.081341	-0.729702	0.643693
H259	H	-0.078393	-0.688613	0.690527
H260	H	-1.045106	-0.597097	0.268705
O261	O	-0.273264	0.183150	0.273150
C262	C	-0.298781	0.255434	0.298557
C263	C	-0.267150	0.229600	0.267003
H264	H	-0.293856	0.292993	0.293592
H265	H	-0.290941	0.246220	0.334805
H266	H	-0.334991	0.246209	0.290612
H267	H	-0.230930	0.238811	0.274908
H268	H	-0.275029	0.238816	0.230764
H269	H	-0.744185	-0.568268	0.297380
O270	O	-0.956382	-0.592512	0.273224
C271	C	-0.961376	-0.535491	0.330165
C272	C	-0.987136	-0.567153	0.298597
H273	H	-0.986230	-0.514986	0.350694
H274	H	-0.939453	-0.511977	0.309531
H275	H	-0.939371	-0.556095	0.353663
H276	H	-1.009166	-0.546585	0.275092
H277	H	-1.009032	-0.590667	0.319258
O278	O	-0.159878	-0.705851	0.384474
C279	C	-0.102912	-0.762911	0.389457
C280	C	-0.134526	-0.731279	0.415223
H281	H	-0.082414	-0.783484	0.414306
H282	H	-0.079391	-0.742324	0.367497
H283	H	-0.123554	-0.786365	0.367486
H284	H	-0.113920	-0.707818	0.437218
H285	H	-0.158048	-0.751893	0.437154
O286	O	-0.159819	-0.481872	0.160052
C287	C	-0.134333	-0.554156	0.134615
C288	C	-0.165989	-0.528321	0.166143
H289	H	-0.139318	-0.591715	0.139521
H290	H	-0.098110	-0.544991	0.142574
H291	H	-0.142158	-0.544882	0.098379
H292	H	-0.158205	-0.537581	0.202389
H293	H	-0.202203	-0.537488	0.158145
H294	H	-0.268537	-0.597044	0.960446
O295	O	-0.159748	-0.705918	0.956869
C296	C	-0.102784	-0.762979	0.961856
C297	C	-0.134401	-0.731347	0.987620
H298	H	-0.082289	-0.783553	0.986707
H299	H	-0.079260	-0.742391	0.939901
H300	H	-0.123423	-0.786431	0.939882
H301	H	-0.113797	-0.707888	1.009619
H302	H	-0.157926	-0.751962	1.009547
H303	H	-0.688462	-0.730076	0.135847
O304	O	-0.131070	-0.173535	0.131303
C305	C	-0.109169	-0.159154	0.054918
C306	C	-0.140822	-0.184925	0.086496
H307	H	-0.117048	-0.168345	0.018685
H308	H	-0.072949	-0.168417	0.062835
H309	H	-0.114097	-0.121591	0.059861
H310	H	-0.135933	-0.222494	0.081571
H311	H	-0.177030	-0.175624	0.078571
O312	O	-0.832833	-0.734654	0.131315
C313	C	-0.827867	-0.791712	0.074408
C314	C	-0.802092	-0.760073	0.105988
H315	H	-0.803024	-0.812279	0.053930
H316	H	-0.849850	-0.771131	0.050867
H317	H	-0.849815	-0.815172	0.095076
H318	H	-0.780120	-0.736607	0.085356
H319	H	-0.780137	-0.780682	0.129530
O320	O	-0.476461	-0.592468	0.273184
C321	C	-0.529388	-0.586404	0.333859
C322	C	-0.503546	-0.618003	0.302280
H323	H	-0.551285	-0.607036	0.357397
H324	H	-0.551417	-0.562943	0.313234
H325	H	-0.504564	-0.565835	0.354345
H326	H	-0.528338	-0.638601	0.281787
H327	H	-0.481510	-0.641433	0.322930
O328	O	-0.159833	0.090671	0.160028
C329	C	-0.102743	0.095640	0.103146
C330	C	-0.134398	0.121414	0.134727
H331	H	-0.082164	0.120484	0.082689
H332	H	-0.123312	0.073712	0.079586
H333	H	-0.079296	0.073637	0.123812
H334	H	-0.157852	0.143441	0.114097
H335	H	-0.113801	0.143313	0.158288
H336	H	-0.164288	-0.701393	1.045609
O337	O	-0.273134	-0.592476	0.384287
C338	C	-0.298619	-0.567002	0.311991
C339	C	-0.267037	-0.598638	0.337840
H340	H	-0.293707	-0.571980	0.274435
H341	H	-0.290716	-0.530774	0.321169
H342	H	-0.334841	-0.574853	0.321239
H343	H	-0.230804	-0.590828	0.328607
H344	H	-0.274978	-0.634856	0.328660
O345	O	-0.301776	-0.563673	0.600139
C346	C	-0.307830	-0.503022	0.547132
C347	C	-0.276240	-0.534679	0.572946
H348	H	-0.287197	-0.479578	0.525133
H349	H	-0.328343	-0.482444	0.571934
H350	H	-0.331342	-0.523635	0.525193
H351	H	-0.252701	-0.514101	0.594886
H352	H	-0.255758	-0.555259	0.548120
O353	O	-0.301834	-0.563686	0.692573
C354	C	-0.358827	-0.506655	0.687578
C355	C	-0.327234	-0.538313	0.661819
H356	H	-0.379378	-0.486139	0.662725
H357	H	-0.338212	-0.483152	0.709524
H358	H	-0.382304	-0.527264	0.709563
H359	H	-0.303750	-0.517740	0.639810
H360	H	-0.347877	-0.561816	0.639902
H361	H	-0.268782	0.094274	0.268647
O362	O	-0.383983	-0.592339	0.273172
C363	C	-0.388952	-0.535339	0.330137
C364	C	-0.414726	-0.566981	0.298560
H365	H	-0.413796	-0.514835	0.350677
H366	H	-0.367023	-0.511824	0.309509
H367	H	-0.366949	-0.555959	0.353624
H368	H	-0.436752	-0.546397	0.275066
H369	H	-0.436625	-0.590497	0.319215
O370	O	-0.832961	-0.563826	0.301965
C371	C	-0.847270	-0.541959	0.378363
C372	C	-0.821458	-0.573559	0.346760
H373	H	-0.837972	-0.549810	0.414586
H374	H	-0.884837	-0.546909	0.373483
H375	H	-0.838087	-0.505739	0.370410
H376	H	-0.830604	-0.609791	0.354693
H377	H	-0.783897	-0.568571	0.351646
O378	O	-0.131018	-0.032804	0.131368
C379	C	-0.073953	-0.037769	0.074461
C380	C	-0.105630	-0.063545	0.106009
H381	H	-0.053425	-0.062612	0.053943
H382	H	-0.050462	-0.015842	0.095110
H383	H	-0.094547	-0.015765	0.050952
H384	H	-0.085072	-0.085573	0.129525
H385	H	-0.129122	-0.085444	0.085332
O386	O	-0.131038	-0.734568	0.833497
C387	C	-0.070395	-0.740654	0.886502
C388	C	-0.102021	-0.709047	0.860673
H389	H	-0.046933	-0.720033	0.908487
H390	H	-0.049833	-0.761197	0.861709
H391	H	-0.091030	-0.764138	0.908456
H392	H	-0.081421	-0.685536	0.838718
H393	H	-0.122584	-0.688536	0.885490
