data_functionalizedCrystal
_audit_creation_method	'MofGen! by Chris Wilmer'
_symmetry_space_group_name_H-M	'P1'
_symmetry_Int_Tables_number	1
_symmetry_cell_setting	triclinic
loop_
_symmetry_equiv_pos_as_xyz
  x,y,z
_cell_length_a	17.077404
_cell_length_b	18.050589
_cell_length_c	17.077396
_cell_angle_alpha	90.024642
_cell_angle_beta	90.018362
_cell_angle_gamma	90.026191
loop_
_atom_site_label
_atom_site_type_symbol
_atom_site_fract_x
_atom_site_fract_y
_atom_site_fract_z
Zn1	Zn	1.200026	-0.295700	0.443840
Zn2	Zn	1.199920	-0.419897	0.312583
Zn3	Zn	1.068757	-0.295721	0.312590
Zn4	Zn	1.068713	-0.419848	0.443809
O5	O	1.134354	-0.357791	0.378205
O6	O	1.309858	-0.312186	0.426438
O7	O	1.182496	-0.403454	0.202737
O8	O	1.086233	-0.191793	0.330017
O9	O	1.309781	-0.403434	0.330004
O10	O	1.182675	-0.191778	0.426445
O11	O	1.086131	-0.312222	0.202742
O12	O	0.958905	-0.312175	0.329987
O13	O	1.086157	-0.403350	0.553660
O14	O	0.958872	-0.403371	0.426393
O15	O	1.182632	-0.312139	0.553683
O16	O	1.182453	-0.523815	0.329974
O17	O	1.086056	-0.523779	0.426385
C18	C	0.930406	-0.357770	0.378188
C19	C	0.843156	-0.357779	0.378199
C20	C	0.802207	-0.310351	0.428489
C21	C	0.720227	-0.310356	0.428492
C22	C	0.679197	-0.357793	0.378209
C23	C	0.720152	-0.405223	0.327914
C24	C	0.802131	-0.405214	0.327907
C25	C	0.549282	-0.405240	0.327933
C26	C	0.467297	-0.405250	0.327941
C27	C	0.467378	-0.310382	0.428519
C28	C	0.549357	-0.310373	0.428512
C29	C	0.590306	-0.357804	0.378217
C30	C	1.134259	-0.550744	0.378192
C31	C	1.134291	-0.633289	0.378213
C32	C	1.081921	-0.832747	0.430623
C33	C	1.062786	-0.882188	0.358994
C34	C	1.134368	-0.784420	0.378223
C35	C	1.153541	-0.882060	0.449860
C36	C	1.134441	-0.930405	0.378239
C37	C	1.115195	-0.832773	0.306557
C38	C	1.205983	-0.832641	0.397471
C39	C	1.186876	-0.882060	0.325793
C40	C	1.134324	-0.700321	0.378215
C41	C	1.134485	-1.014501	0.378240
C42	C	1.339098	-0.357813	0.378223
C43	C	1.426348	-0.357822	0.378231
C44	C	1.134402	-0.357737	0.582950
C45	C	1.134422	-0.357713	0.670200
C46	C	1.134471	-0.164086	0.378236
C47	C	1.134520	-0.081540	0.378249
C48	C	1.134352	-0.357792	0.174258
C49	C	1.134484	-0.357606	0.087008
C50	C	1.184658	-0.310216	0.711203
C51	C	1.184667	-0.310191	0.793183
C52	C	1.134444	-0.357668	0.834159
C53	C	1.084202	-0.405168	0.793150
C54	C	1.084190	-0.405188	0.711171
C55	C	1.084234	-0.405123	0.964020
C56	C	1.084248	-0.405104	1.046005
C57	C	1.184712	-0.310126	1.046032
C58	C	1.184699	-0.310146	0.964053
C59	C	1.134458	-0.357647	0.923050
H60	H	0.835471	-0.443834	0.286955
Cl61	Cl	0.969330	-0.915788	0.333861
H62	H	0.686739	-0.443844	0.286969
H63	H	1.037504	-0.811094	0.474873
H64	H	1.225619	-0.271448	1.079421
H65	H	0.835608	-0.271724	0.469437
H66	H	1.098937	-0.811213	0.245964
Cl67	Cl	1.247804	-0.250530	0.659699
H68	H	1.043307	-0.443822	0.826519
H69	H	0.686890	-0.271737	0.469445
H70	H	1.231259	-0.903576	0.281435
Cl71	Cl	0.600936	-0.250743	0.491732
Cl72	Cl	1.299415	-0.799014	0.422635
H73	H	1.169729	-0.903710	0.510436
Cl74	Cl	1.021030	-0.464900	0.659624
Cl75	Cl	1.247859	-0.250510	0.844727
Cl76	Cl	1.247843	-0.250464	0.912542
H77	H	1.043350	-0.443763	1.079365
Cl78	Cl	1.021072	-0.464839	0.912474
Cl79	Cl	0.415899	-0.250752	0.491744
Cl80	Cl	0.415718	-0.464904	0.264746
H81	H	0.582620	-0.443862	0.286976
