data_functionalizedCrystal
_audit_creation_method	'MofGen! by Chris Wilmer'
_symmetry_space_group_name_H-M	'P1'
_symmetry_Int_Tables_number	1
_symmetry_cell_setting	triclinic
loop_
_symmetry_equiv_pos_as_xyz
  x,y,z
_cell_length_a	11.026607
_cell_length_b	14.750712
_cell_length_c	11.026660
_cell_angle_alpha	74.521995
_cell_angle_beta	108.585426
_cell_angle_gamma	105.479695
loop_
_atom_site_label
_atom_site_type_symbol
_atom_site_fract_x
_atom_site_fract_y
_atom_site_fract_z
O1	O	1.705109	-0.079815	0.555220
O2	O	1.338529	-0.079818	0.494458
O3	O	1.491439	-0.079816	0.341550
O4	O	1.552198	-0.079817	0.708128
O5	O	1.534664	0.079835	0.298333
O6	O	1.381754	0.079833	0.451240
O7	O	1.748334	0.079836	0.512003
Zn8	Zn	1.571907	0.105183	0.474760
Zn9	Zn	1.514956	-0.105164	0.531701
O10	O	1.595424	0.079834	0.664910
C11	C	1.312482	0.000008	0.461639
C12	C	1.170468	0.000006	0.428223
C13	C	1.116817	0.000005	0.520492
C14	C	0.970039	0.000004	0.485957
N15	N	1.610784	0.248739	0.435901
C16	C	1.367482	0.600554	0.679038
C17	C	1.394736	0.701053	0.651818
C18	C	1.530188	0.701018	0.516490
C19	C	1.502940	0.600516	0.543694
C20	C	1.421588	0.550292	0.624969
C21	C	1.557046	0.550255	0.489625
C22	C	1.529806	0.449762	0.516832
C23	C	1.448460	0.399531	0.598107
C24	C	1.394348	0.449800	0.652176
C25	C	1.638405	0.600480	0.408357
C26	C	1.692511	0.550219	0.354288
C27	C	1.665264	0.449724	0.381487
C28	C	1.583918	0.399493	0.462763
C29	C	1.719376	0.399455	0.327418
C30	C	1.692136	0.298963	0.354625
C31	C	1.556678	0.299000	0.489969
C32	C	1.774380	0.000009	0.544822
C33	C	1.916392	0.000003	0.578240
N34	N	1.476075	0.751280	0.570563
C35	C	1.501842	0.000008	0.272283
C36	C	1.468425	0.000002	0.130272
C37	C	1.526168	0.000006	-0.070156
C38	C	1.560706	0.000004	0.076623
C39	C	1.585020	0.000008	0.734178
C40	C	1.618435	0.000008	0.876191
H41	H	1.107729	-0.000018	0.323668
N42	N	1.780239	0.604394	0.266618
H43	H	1.810377	0.557302	0.236491
H44	H	1.858538	0.646081	0.316452
N45	N	1.329902	0.000002	0.047213
H46	H	1.295884	-0.059180	0.007417
H47	H	1.328035	0.059225	-0.024552
H48	H	1.426287	0.317703	0.620262
H49	H	1.722989	-0.000027	-0.061070
H50	H	1.736196	0.258039	0.310598
N51	N	1.199891	-0.000001	0.659004
H52	H	1.197207	0.059180	0.686868
H53	H	1.292927	-0.000038	0.663946
N54	N	0.999468	0.000012	0.716754
H55	H	1.092547	0.000014	0.721794
H56	H	0.964630	-0.059172	0.776578
H57	H	1.660586	0.682308	0.386214
N58	N	0.886966	0.000016	0.347438
H59	H	0.793890	0.000018	0.342400
H60	H	0.889753	-0.059166	0.319651
H61	H	1.785624	0.440361	0.261253
N62	N	1.468919	0.244824	0.577619
H63	H	1.508080	0.262309	0.666544
H64	H	1.459903	0.173554	0.586540
N65	N	1.306589	0.395618	0.739823
H66	H	1.276436	0.442706	0.769946
H67	H	1.356377	0.353916	0.818135
H68	H	1.350671	0.741972	0.695857
N69	N	1.279723	0.546372	0.766685
H70	H	1.249571	0.593460	0.796808
H71	H	1.329511	0.504670	0.844997
H72	H	1.596430	0.741922	0.450319
H73	H	1.421603	0.000001	-0.132884
H74	H	1.665267	-0.000031	0.139358
