data_functionalizedCrystal
_audit_creation_method	'MofGen! by Chris Wilmer'
_symmetry_space_group_name_H-M	'P1'
_symmetry_Int_Tables_number	1
_symmetry_cell_setting	triclinic
loop_
_symmetry_equiv_pos_as_xyz
  x,y,z
_cell_length_a	14.853568
_cell_length_b	14.853567
_cell_length_c	13.930277
_cell_angle_alpha	90.000757
_cell_angle_beta	89.995589
_cell_angle_gamma	96.364941
loop_
_atom_site_label
_atom_site_type_symbol
_atom_site_fract_x
_atom_site_fract_y
_atom_site_fract_z
O1	O	-1.196368	0.117706	0.079760
O2	O	-0.696368	0.617706	0.579760
O3	O	-0.933909	0.131727	0.079775
O4	O	-0.433909	0.631727	0.579775
O5	O	-1.072149	-0.006513	0.079770
O6	O	-0.572149	0.493487	0.579770
O7	O	-1.058128	0.255946	0.079765
O8	O	-0.558128	0.755946	0.579765
O9	O	-1.072130	-0.006516	-0.079892
O10	O	-0.572130	0.493484	0.420108
O11	O	-0.933889	0.131724	-0.079887
O12	O	-0.433889	0.631724	0.420113
O13	O	-1.196349	0.117703	-0.079902
O14	O	-0.696349	0.617703	0.420098
Zn15	Zn	-1.065116	0.124713	-0.105244
Zn16	Zn	-0.565116	0.624713	0.394756
Zn17	Zn	-1.065141	0.124717	0.105117
Zn18	Zn	-0.565141	0.624717	0.605117
O19	O	-1.058108	0.255943	-0.079897
O20	O	-0.558108	0.755943	0.420103
C21	C	-0.900310	0.131090	-0.000054
C22	C	-0.400310	0.631090	0.499946
C23	C	-0.800227	0.129186	-0.000048
C24	C	-0.300227	0.629186	0.499952
C25	C	-1.071504	-0.040103	-0.000058
C26	C	-0.571504	0.459897	0.499942
C27	C	-1.069600	-0.140187	-0.000050
C28	C	-0.569600	0.359813	0.499950
C29	C	-0.387693	0.039019	-0.000069
C30	C	0.112307	0.539019	0.499931
C31	C	-0.366412	0.203252	-0.000072
C32	C	0.133588	0.703252	0.499928
C33	C	-0.460446	0.205043	-0.000068
C34	C	0.039554	0.705043	0.499932
C35	C	-0.518107	0.123820	-0.000064
C36	C	-0.018107	0.623820	0.499936
C37	C	-0.481736	0.040807	-0.000063
C38	C	0.018264	0.540807	0.499937
C39	C	-0.496825	0.288054	-0.000059
C40	C	0.003175	0.788054	0.499941
C41	C	-0.590864	0.289848	-0.000055
C42	C	-0.090864	0.789848	0.499945
C43	C	-0.648527	0.208624	-0.000058
C44	C	-0.148527	0.708624	0.499942
C45	C	-0.612150	0.125608	-0.000058
C46	C	-0.112150	0.625608	0.499942
C47	C	-0.669812	0.044385	-0.000054
C48	C	-0.169812	0.544385	0.499946
C49	C	-0.633437	-0.038632	-0.000061
C50	C	-0.133437	0.461368	0.499939
C51	C	-0.539399	-0.040416	-0.000066
C52	C	-0.039399	0.459584	0.499934
C53	C	-0.742565	0.210409	-0.000052
C54	C	-0.242565	0.710409	0.499948
C55	C	-0.763855	0.046173	-0.000047
C56	C	-0.263855	0.546173	0.499953
C57	C	-0.979435	-0.552721	-0.000063
C58	C	-0.479435	-0.052721	0.499937
C59	C	-1.143667	-0.574002	-0.000072
C60	C	-0.643667	-0.074002	0.499928
C61	C	-1.145457	-0.479968	-0.000067
C62	C	-0.645457	0.020032	0.499933
C63	C	-1.064235	-0.422306	-0.000061
C64	C	-0.564235	0.077694	0.499939
C65	C	-0.981222	-0.458678	-0.000060
C66	C	-0.481222	0.041322	0.499940
C67	C	-1.228469	-0.443589	-0.000077
C68	C	-0.728469	0.056411	0.499923
C69	C	-1.230262	-0.349550	-0.000072
C70	C	-0.730262	0.150450	0.499928
C71	C	-1.149039	-0.291886	-0.000059
C72	C	-0.649039	0.208114	0.499941
C73	C	-1.066023	-0.328263	-0.000058
C74	C	-0.566023	0.171737	0.499942
C75	C	-0.984800	-0.270602	-0.000052
C76	C	-0.484800	0.229398	0.499948
C77	C	-0.901783	-0.306977	-0.000044
C78	C	-0.401783	0.193023	0.499956
C79	C	-0.899999	-0.401015	-0.000048
C80	C	-0.399999	0.098985	0.499952
C81	C	-1.150823	-0.197849	-0.000056
C82	C	-0.650823	0.302151	0.499944
C83	C	-0.986588	-0.176559	-0.000049
C84	C	-0.486588	0.323441	0.499951
C85	C	-0.229947	0.118340	-0.000072
C86	C	0.270053	0.618340	0.499928
C87	C	-0.330031	0.120242	-0.000073
C88	C	0.169969	0.620242	0.499927
C89	C	-1.058753	0.289534	-0.000067
C90	C	-0.558753	0.789534	0.499933
C91	C	-1.060657	0.389617	-0.000069
C92	C	-0.560657	0.889617	0.499931
N93	N	-1.065105	0.124710	-0.248810
N94	N	-0.565105	0.624710	0.251190
C95	C	-1.003926	0.185906	-0.701077
C96	C	-0.503926	0.685906	-0.201077
C97	C	-1.126381	0.063521	-0.701051
C98	C	-0.626381	0.563521	-0.201051
C99	C	-1.126371	0.063519	-0.600555
C100	C	-0.626371	0.563519	-0.100555
C101	C	-1.065138	0.124711	-0.550316
C102	C	-0.565138	0.624711	-0.050316
C103	C	-1.003915	0.185907	-0.600572
C104	C	-0.503915	0.685907	-0.100572
C105	C	-1.187598	0.002330	-0.550291
C106	C	-0.687598	0.502330	-0.050291
C107	C	-1.187590	0.002326	-0.449790
C108	C	-0.687590	0.502326	0.050210
C109	C	-1.126352	0.063515	-0.399548
C110	C	-0.626352	0.563515	0.100452
C111	C	-1.065127	0.124712	-0.449811
C112	C	-0.565127	0.624712	0.050189
C113	C	-1.003894	0.185905	-0.399572
C114	C	-0.503894	0.685905	0.100428
C115	C	-0.942663	0.247098	-0.449832
C116	C	-0.442663	0.747098	0.050168
C117	C	-0.942677	0.247096	-0.550331
C118	C	-0.442677	0.747096	-0.050331
C119	C	-1.126338	0.063517	-0.299050
C120	C	-0.626338	0.563517	0.200950
C121	C	-1.003883	0.185905	-0.299067
C122	C	-0.503883	0.685905	0.200933
N123	N	-1.065159	0.124713	0.248683
N124	N	-0.565159	0.624713	0.748683
H125	H	-0.810798	-0.019969	-0.000048
H126	H	-0.310798	0.480031	0.499952
H127	H	-1.209795	-0.620955	-0.000085
H128	H	-0.709795	-0.120955	0.499915
H129	H	-1.294595	-0.490543	-0.000090
H130	H	-0.794595	0.009457	0.499910
H131	H	-1.176195	0.013698	-0.258132
H132	H	-0.676195	0.513698	0.241868
H133	H	-0.892811	0.296926	-0.408916
H134	H	-0.392811	0.796926	0.091084
H135	H	-1.297859	-0.319941	-0.000078
H136	H	-0.797859	0.180059	0.499922
H137	H	-0.620472	0.357445	-0.000049
H138	H	-0.120472	0.857445	0.499951
H139	H	-0.832411	-0.430641	-0.000042
H140	H	-0.332411	0.069359	0.499958
H141	H	-0.835652	-0.260017	-0.000046
H142	H	-0.335652	0.239983	0.499954
H143	H	-0.920445	-0.129616	-0.000040
H144	H	-0.420445	0.370384	0.499960
H145	H	-0.319459	0.269380	-0.000067
H146	H	0.180541	0.769380	0.499933
H147	H	-0.911844	-0.582342	-0.000052
H148	H	-0.411844	-0.082342	0.499948
H149	H	-1.218414	-0.168236	-0.000069
H150	H	-0.718414	0.331764	0.499931
H151	H	-0.509774	-0.108004	-0.000094
H152	H	-0.009774	0.391996	0.499906
H153	H	-0.680397	-0.104763	-0.000051
H154	H	-0.180397	0.395237	0.499949
H155	H	-0.358072	-0.028571	-0.000079
H156	H	0.141928	0.471429	0.499921
H157	H	-0.954016	0.235733	-0.258168
H158	H	-0.454016	0.735733	0.241832
H159	H	-1.176240	0.013704	-0.741959
H160	H	-0.676240	0.513704	-0.241959
H161	H	-0.892826	0.296918	-0.591260
H162	H	-0.392826	0.796918	-0.091260
H163	H	-1.237457	-0.047487	-0.591200
H164	H	-0.737457	0.452513	-0.091200
H165	H	-1.237446	-0.047502	-0.408873
H166	H	-0.737446	0.452498	0.091127
H167	H	-0.449870	0.354181	-0.000053
H168	H	0.050130	0.854181	0.499947
H169	H	-0.772178	0.278000	-0.000048
H170	H	-0.272178	0.778000	0.499952
H171	H	-0.954071	0.235727	-0.742002
H172	H	-0.454071	0.735727	-0.242002
