data_functionalizedCrystal
_audit_creation_method	'MofGen! by Chris Wilmer'
_symmetry_space_group_name_H-M	'P1'
_symmetry_Int_Tables_number	1
_symmetry_cell_setting	triclinic
loop_
_symmetry_equiv_pos_as_xyz
  x,y,z
_cell_length_a	19.121102
_cell_length_b	25.639239
_cell_length_c	19.120904
_cell_angle_alpha	92.410104
_cell_angle_beta	90.088173
_cell_angle_gamma	87.592882
loop_
_atom_site_label
_atom_site_type_symbol
_atom_site_fract_x
_atom_site_fract_y
_atom_site_fract_z
Zn1	Zn	1.054765	-0.255751	-0.442042
Zn2	Zn	1.388098	0.077582	-0.108709
Zn3	Zn	1.721431	0.410915	0.224625
Zn4	Zn	1.059658	-0.339618	-0.324799
Zn5	Zn	1.392991	-0.006285	0.008534
Zn6	Zn	1.726325	0.327049	0.341868
Zn7	Zn	0.942536	-0.248315	-0.319827
Zn8	Zn	1.275869	0.085018	0.013507
Zn9	Zn	1.609203	0.418352	0.346840
Zn10	Zn	0.937469	-0.339266	-0.437001
Zn11	Zn	1.270803	-0.005933	-0.103668
Zn12	Zn	1.604136	0.327400	0.229665
O13	O	0.998607	-0.295738	-0.380917
O14	O	1.331940	0.037596	-0.047584
O15	O	1.665274	0.370929	0.285749
O16	O	1.153518	-0.270136	-0.430680
O17	O	1.486852	0.063198	-0.097347
O18	O	1.820185	0.396531	0.235987
O19	O	1.048290	-0.324541	-0.226035
O20	O	1.381623	0.008792	0.107299
O21	O	1.714956	0.342125	0.440632
O22	O	0.957496	-0.176139	-0.336067
O23	O	1.290829	0.157194	-0.002734
O24	O	1.624163	0.490527	0.330599
O25	O	1.157113	-0.331752	-0.344542
O26	O	1.490446	0.001581	-0.011209
O27	O	1.823780	0.334915	0.322125
O28	O	1.039950	-0.181603	-0.425859
O29	O	1.373283	0.151730	-0.092525
O30	O	1.706617	0.485064	0.240808
O31	O	0.962241	-0.257461	-0.222382
O32	O	1.295574	0.075872	0.110952
O33	O	1.628907	0.409205	0.444285
O34	O	0.843760	-0.257121	-0.331180
O35	O	1.177093	0.076213	0.002154
O36	O	1.510426	0.409546	0.335487
O37	O	0.948861	-0.331153	-0.535775
O38	O	1.282194	0.002180	-0.202441
O39	O	1.615527	0.335514	0.130892
O40	O	0.840037	-0.323942	-0.417267
O41	O	1.173370	0.009391	-0.083934
O42	O	1.506704	0.342724	0.249399
O43	O	1.035037	-0.269795	-0.539478
O44	O	1.368370	0.063538	-0.206145
O45	O	1.701704	0.396872	0.127189
O46	O	1.043377	-0.412733	-0.339654
O47	O	1.376710	-0.079400	-0.006321
O48	O	1.710043	0.253933	0.327013
O49	O	0.953605	-0.412475	-0.422089
O50	O	1.286939	-0.079142	-0.088755
O51	O	1.620272	0.254192	0.244578
C52	C	0.816461	-0.289687	-0.373137
C53	C	1.149794	0.043647	-0.039804
C54	C	1.483128	0.376980	0.293529
C55	C	0.738537	-0.287111	-0.369826
C56	C	1.071871	0.046222	-0.036492
C57	C	1.405204	0.379556	0.296841
C58	C	0.700012	-0.320740	-0.413021
C59	C	1.033345	0.012593	-0.079687
C60	C	1.366679	0.345927	0.253646
C61	C	0.626794	-0.318313	-0.409912
C62	C	0.960128	0.015020	-0.076579
C63	C	1.293461	0.348353	0.256754
C64	C	0.592104	-0.282260	-0.363605
C65	C	0.925437	0.051074	-0.030272
C66	C	1.258770	0.384407	0.303062
C67	C	0.630634	-0.248627	-0.320408
C68	C	0.963968	0.084706	0.012925
C69	C	1.297301	0.418039	0.346259
C70	C	0.703850	-0.251052	-0.323520
C71	C	1.037184	0.082281	0.009813
C72	C	1.370517	0.415615	0.343146
C73	C	0.371134	-0.273194	-0.351972
C74	C	0.704467	0.060140	-0.018639
C75	C	1.037801	0.393473	0.314695
C76	C	0.297913	-0.270773	-0.348862
C77	C	0.631246	0.062561	-0.015528
C78	C	0.964579	0.395894	0.317805
C79	C	0.294078	-0.340458	-0.438367
C80	C	0.627411	-0.007125	-0.105034
C81	C	0.960744	0.326209	0.228300
C82	C	0.367296	-0.342882	-0.441472
C83	C	0.700629	-0.009548	-0.108139
C84	C	1.033962	0.323785	0.225195
C85	C	0.405820	-0.309247	-0.398278
C86	C	0.739153	0.024086	-0.064945
C87	C	1.072486	0.357419	0.268389
C88	C	0.517264	-0.279779	-0.360425
C89	C	0.850597	0.053554	-0.027092
C90	C	1.183930	0.386887	0.306242
C91	C	0.480658	-0.311726	-0.401462
C92	C	0.813992	0.021608	-0.068129
C93	C	1.147325	0.354941	0.265205
C94	C	0.998491	-0.431575	-0.380880
C95	C	1.331824	-0.098242	-0.047547
C96	C	1.665157	0.235091	0.285787
C97	C	0.998504	-0.489690	-0.380890
C98	C	1.331837	-0.156357	-0.047557
C99	C	1.665170	0.176977	0.285776
C100	C	1.045465	-0.850185	-0.338075
C101	C	1.378798	-0.516852	-0.004742
C102	C	1.712131	-0.183519	0.328592
C103	C	1.045491	-0.904791	-0.338085
C104	C	1.378825	-0.571458	-0.004752
C105	C	1.712158	-0.238124	0.328581
O106	O	1.085298	-0.933135	-0.301642
O107	O	1.418632	-0.599802	0.031692
O108	O	1.751965	-0.266468	0.365025
N109	N	0.998728	-0.931982	-0.380969
N110	N	1.332062	-0.598649	-0.047636
N111	N	1.665395	-0.265315	0.285698
C112	C	0.951940	-0.904565	-0.423850
C113	C	1.285273	-0.571232	-0.090517
C114	C	1.618607	-0.237899	0.242817
O115	O	0.912167	-0.932708	-0.460327
O116	O	1.245501	-0.599375	-0.126994
O117	O	1.578834	-0.266041	0.206340
C118	C	0.951917	-0.849961	-0.423843
C119	C	1.285251	-0.516628	-0.090509
C120	C	1.618584	-0.183295	0.242824
C121	C	0.998679	-0.822772	-0.380951
C122	C	1.332012	-0.489439	-0.047618
C123	C	1.665345	-0.156106	0.285716
C124	C	1.092223	-0.822997	-0.295188
C125	C	1.425556	-0.489663	0.038146
C126	C	1.758889	-0.156330	0.371479
C127	C	1.092195	-0.768395	-0.295176
C128	C	1.425528	-0.435061	0.038157
C129	C	1.758862	-0.101728	0.371490
C130	C	1.045409	-0.740982	-0.338052
C131	C	1.378742	-0.407648	-0.004719
C132	C	1.712076	-0.074315	0.328614
C133	C	0.998651	-0.768171	-0.380940
C134	C	1.331984	-0.434837	-0.047606
C135	C	1.665318	-0.101504	0.285727
C136	C	0.905133	-0.822546	-0.466727
C137	C	1.238466	-0.489212	-0.133393
C138	C	1.571800	-0.155879	0.199940
C139	C	0.905115	-0.767938	-0.466716
C140	C	1.238448	-0.434604	-0.133383
C141	C	1.571781	-0.101271	0.199951
C142	C	0.951876	-0.740749	-0.423825
C143	C	1.285209	-0.407416	-0.090491
C144	C	1.618543	-0.074082	0.242842
C145	C	0.951837	-0.686156	-0.423805
C146	C	1.285170	-0.352823	-0.090471
C147	C	1.618504	-0.019489	0.242862
N148	N	0.998600	-0.658965	-0.380921
N149	N	1.331933	-0.325631	-0.047588
N150	N	1.665267	0.007702	0.285746
C151	C	1.045386	-0.686378	-0.338045
C152	C	1.378719	-0.353044	-0.004712
C153	C	1.712053	-0.019711	0.328622
C154	C	0.951992	-1.019238	-0.423863
C155	C	1.285326	-0.685905	-0.090530
C156	C	1.618659	-0.352572	0.242804
C157	C	0.952011	-1.073841	-0.423867
C158	C	1.285345	-0.740508	-0.090534
C159	C	1.618678	-0.407175	0.242800
C160	C	1.045564	-1.074063	-0.338103
C161	C	1.378897	-0.740730	-0.004770
C162	C	1.712230	-0.407396	0.328563
C163	C	1.045541	-1.019459	-0.338096
C164	C	1.378874	-0.686125	-0.004763
C165	C	1.712208	-0.352792	0.328571
C166	C	0.998756	-0.992047	-0.380980
C167	C	1.332089	-0.658714	-0.047646
C168	C	1.665422	-0.325380	0.285687
C169	C	1.045324	-0.571710	-0.338024
C170	C	1.378657	-0.238376	-0.004691
C171	C	1.711990	0.094957	0.328643
C172	C	1.045290	-0.517103	-0.338014
C173	C	1.378623	-0.183770	-0.004681
C174	C	1.711956	0.149564	0.328652
C175	C	0.951740	-0.516886	-0.423780
C176	C	1.285074	-0.183553	-0.090447
C177	C	1.618407	0.149780	0.242886
C178	C	0.951771	-0.571488	-0.423788
C179	C	1.285105	-0.238155	-0.090454
C180	C	1.618438	0.095178	0.242879
C181	C	0.998569	-0.598899	-0.380907
C182	C	1.331902	-0.265565	-0.047574
C183	C	1.665236	0.067768	0.285759
O184	O	0.912052	-0.657777	-0.460232
O185	O	1.245386	-0.324444	-0.126898
O186	O	1.578719	0.008889	0.206435
O187	O	1.085159	-0.658229	-0.301581
O188	O	1.418492	-0.324895	0.031753
O189	O	1.751825	0.008438	0.365086
C190	C	1.181464	-0.301813	-0.388728
C191	C	1.514798	0.031521	-0.055395
C192	C	1.848131	0.364854	0.277939
C193	C	1.259387	-0.304401	-0.392057
C194	C	1.592721	0.028932	-0.058723
C195	C	1.926054	0.362265	0.274610
C196	C	0.990838	-0.301264	-0.563775
C197	C	1.324171	0.032069	-0.230442
C198	C	1.657505	0.365402	0.102892
C199	C	0.987527	-0.303619	-0.641698
C200	C	1.320861	0.029714	-0.308365
C201	C	1.654194	0.363047	0.024968
C202	C	0.998742	-0.159371	-0.380971
C203	C	1.332076	0.173963	-0.047637
C204	C	1.665409	0.507296	0.285696
C205	C	0.998800	-0.101259	-0.380993
C206	C	1.332134	0.232074	-0.047660
C207	C	1.665467	0.565408	0.285673
C208	C	1.030837	-0.272781	-0.680236
C209	C	1.364170	0.060552	-0.346903
C210	C	1.697504	0.393885	-0.013569
C211	C	1.027718	-0.274992	-0.753453
C212	C	1.361051	0.058341	-0.420119
C213	C	1.694384	0.391675	-0.086786
C214	C	0.981292	-0.308044	-0.788130
C215	C	1.314625	0.025289	-0.454797
C216	C	1.647958	0.358623	-0.121464
C217	C	0.937977	-0.338883	-0.749587
C218	C	1.271310	-0.005550	-0.416254
C219	C	1.604644	0.327784	-0.082921
C220	C	0.941093	-0.336669	-0.676372
C221	C	1.274427	-0.003336	-0.343039
C222	C	1.607760	0.329997	-0.009705
C223	C	0.969635	-0.316324	-1.009097
C224	C	1.302968	0.017010	-0.675764
C225	C	1.636301	0.350343	-0.342430
C226	C	0.966523	-0.318536	-1.082318
C227	C	1.299856	0.014797	-0.748985
C228	C	1.633190	0.348131	-0.415651
C229	C	1.056263	-0.254644	-1.086178
C230	C	1.389596	0.078689	-0.752845
C231	C	1.722930	0.412022	-0.419511
C232	C	1.059378	-0.252436	-1.012961
C233	C	1.392712	0.080898	-0.679628
C234	C	1.726045	0.414231	-0.346294
C235	C	1.016061	-0.283273	-0.974424
C236	C	1.349395	0.050061	-0.641091
C237	C	1.682728	0.383394	-0.307758
C238	C	0.978104	-0.310306	-0.862970
C239	C	1.311437	0.023028	-0.529636
C240	C	1.644770	0.356361	-0.196303
C241	C	1.019246	-0.281008	-0.899586
C242	C	1.352579	0.052325	-0.566253
C243	C	1.685913	0.385659	-0.232920
C244	C	1.006386	-0.290196	-0.198772
C245	C	1.339720	0.043137	0.134561
C246	C	1.673053	0.376471	0.467894
C247	C	1.009833	-0.287698	-0.120856
C248	C	1.343166	0.045635	0.212478
C249	C	1.676500	0.378969	0.545811
H250	H	0.489010	-0.250426	-0.322720
H251	H	0.822344	0.082908	0.010613
H252	H	1.155677	0.416241	0.343947
H253	H	0.262704	-0.367840	-0.473534
H254	H	0.596037	-0.034507	-0.140201
H255	H	0.929370	0.298826	0.193133
H256	H	0.913645	-0.494558	-0.458687
H257	H	1.246979	-0.161225	-0.125354
H258	H	1.580312	0.172109	0.207979
H259	H	1.083618	-0.997325	-0.303171
H260	H	1.416952	-0.663991	0.030163
H261	H	1.750285	-0.330658	0.363496
C262	C	1.081909	-0.236421	-0.642097
C263	C	1.415242	0.096912	-0.308764
C264	C	1.748576	0.430246	0.024569
N265	N	1.120376	-0.209031	-0.613373
N266	N	1.453709	0.124302	-0.280040
N267	N	1.787042	0.457635	0.053294
H268	H	0.900174	-0.365793	-0.777828
H269	H	1.233507	-0.032459	-0.444494
H270	H	1.566840	0.300874	-0.111161
H271	H	0.508906	-0.341078	-0.439168
H272	H	0.842240	-0.007745	-0.105835
H273	H	1.175573	0.325589	0.227499
C274	C	0.746228	-0.214059	-0.276001
C275	C	1.079561	0.119275	0.057332
C276	C	1.412895	0.452608	0.390666
N277	N	0.778146	-0.186193	-0.240209
N278	N	1.111480	0.147140	0.093125
N279	N	1.444813	0.480474	0.426458
C280	C	0.927031	-0.346658	-0.901122
C281	C	1.260365	-0.013325	-0.567789
C282	C	1.593698	0.320009	-0.234456
N283	N	0.888561	-0.374036	-0.929861
N284	N	1.221894	-0.040703	-0.596528
N285	N	1.555227	0.292630	-0.263195
C286	C	0.900564	-1.103742	-0.471044
C287	C	1.233897	-0.770409	-0.137711
C288	C	1.567230	-0.437076	0.195623
N289	N	0.861814	-1.126262	-0.506583
N290	N	1.195148	-0.792929	-0.173249
N291	N	1.528481	-0.459595	0.160084
H292	H	1.097185	-0.225523	-0.984732
H293	H	1.430518	0.107810	-0.651398
H294	H	1.763852	0.441144	-0.318065
C295	C	0.405450	-0.382546	-0.492410
C296	C	0.738783	-0.049212	-0.159077
C297	C	1.072117	0.284121	0.174256
N298	N	0.434188	-0.412423	-0.530775
N299	N	0.767521	-0.079090	-0.197442
N300	N	1.100855	0.254243	0.135892
H301	H	0.728252	-0.350100	-0.450727
H302	H	1.061585	-0.016767	-0.117393
H303	H	1.394918	0.316566	0.215940
C304	C	1.075363	-0.241069	-0.795841
C305	C	1.408697	0.092265	-0.462508
C306	C	1.742030	0.425598	-0.129174
N307	N	1.111252	-0.215516	-0.827767
N308	N	1.444586	0.117818	-0.494434
N309	N	1.777919	0.451151	-0.161101
C310	C	1.103900	-0.220719	-1.128574
C311	C	1.437233	0.112614	-0.795240
C312	C	1.770567	0.445948	-0.461907
N313	N	1.139778	-0.195162	-1.160507
N314	N	1.473112	0.138171	-0.827173
N315	N	1.806445	0.471504	-0.493840
H316	H	1.083369	-0.494968	-0.303084
H317	H	1.416702	-0.161634	0.030249
H318	H	1.750035	0.171699	0.363582
H319	H	0.928715	-0.345452	-1.110550
H320	H	1.262049	-0.012119	-0.777217
H321	H	1.595382	0.321215	-0.443884
C322	C	0.413501	-0.236198	-0.304452
C323	C	0.746835	0.097136	0.028881
C324	C	1.080168	0.430469	0.362214
N325	N	0.445415	-0.208331	-0.268657
N326	N	0.778748	0.125002	0.064676
N327	N	1.112082	0.458335	0.398010
H328	H	1.083662	-1.096393	-0.303194
H329	H	1.416995	-0.763059	0.030139
H330	H	1.750329	-0.429726	0.363473
C331	C	0.893450	-0.370595	-0.633981
C332	C	1.226784	-0.037261	-0.300647
C333	C	1.560117	0.296072	0.032686
N334	N	0.857563	-0.396147	-0.602052
N335	N	1.190896	-0.062814	-0.268719
N336	N	1.524229	0.270519	0.064614
H337	H	1.130325	-0.845310	-0.260273
H338	H	1.463659	-0.511977	0.073061
H339	H	1.796992	-0.178644	0.406394
H340	H	1.083432	-0.594021	-0.303108
H341	H	1.416766	-0.260688	0.030225
H342	H	1.750099	0.072646	0.363558
C343	C	1.143631	-0.738494	-0.247986
C344	C	1.476965	-0.405161	0.085348
C345	C	1.810298	-0.071827	0.418681
N346	N	1.182374	-0.715976	-0.212437
N347	N	1.515708	-0.382642	0.120896
N348	N	1.849041	-0.049309	0.454229
C349	C	0.900524	-0.989090	-0.471044
C350	C	1.233858	-0.655757	-0.137711
C351	C	1.567191	-0.322424	0.195622
N352	N	0.861762	-0.966386	-0.506585
N353	N	1.195095	-0.633053	-0.173252
N354	N	1.528429	-0.299719	0.160082
C355	C	0.853646	-0.737788	-0.513893
C356	C	1.186979	-0.404455	-0.180559
C357	C	1.520312	-0.071122	0.152774
N358	N	0.814878	-0.715081	-0.549425
N359	N	1.148212	-0.381747	-0.216092
N360	N	1.481545	-0.048414	0.117242
C361	C	0.584420	-0.355317	-0.457417
C362	C	0.917753	-0.021984	-0.124084
C363	C	1.251087	0.311349	0.209250
N364	N	0.552504	-0.383194	-0.493195
N365	N	0.885838	-0.049861	-0.159862
N366	N	1.219171	0.283473	0.173471
C367	C	0.853693	-0.852441	-0.513914
C368	C	1.187026	-0.519108	-0.180581
C369	C	1.520359	-0.185775	0.152753
N370	N	0.814946	-0.874958	-0.549459
N371	N	1.148279	-0.541625	-0.216126
N372	N	1.481612	-0.208291	0.117207
C373	C	0.259754	-0.231109	-0.297919
C374	C	0.593088	0.102225	0.035415
C375	C	0.926421	0.435558	0.368748
N376	N	0.231014	-0.201236	-0.259549
N377	N	0.564347	0.132097	0.073784
N378	N	0.897680	0.465431	0.407117
H379	H	0.602383	-0.219270	-0.282707
H380	H	0.935716	0.114064	0.050627
H381	H	1.269050	0.447397	0.383960
C382	C	0.900329	-0.601397	-0.470967
C383	C	1.233663	-0.268063	-0.137634
C384	C	1.566996	0.065270	0.195699
N385	N	0.861587	-0.623920	-0.506510
N386	N	1.194921	-0.290587	-0.173177
N387	N	1.528254	0.042746	0.160157
H388	H	0.934373	-0.341441	-0.977730
H389	H	1.267706	-0.008108	-0.644396
H390	H	1.601040	0.325225	-0.311063
H391	H	1.057043	-0.254095	-0.871348
H392	H	1.390376	0.079238	-0.538015
H393	H	1.723710	0.412571	-0.204682
