data_functionalizedCrystal
_audit_creation_method	'MofGen! by Chris Wilmer'
_symmetry_space_group_name_H-M	'P1'
_symmetry_Int_Tables_number	1
_symmetry_cell_setting	triclinic
loop_
_symmetry_equiv_pos_as_xyz
  x,y,z
_cell_length_a	19.288874
_cell_length_b	12.837939
_cell_length_c	18.366186
_cell_angle_alpha	90.008087
_cell_angle_beta	89.993232
_cell_angle_gamma	91.015568
loop_
_atom_site_label
_atom_site_type_symbol
_atom_site_fract_x
_atom_site_fract_y
_atom_site_fract_z
O1	O	0.180511	-1.374627	-0.060545
O2	O	0.680511	-0.874627	0.439455
O3	O	0.171594	-1.072863	-0.060547
O4	O	0.671594	-0.572863	0.439453
O5	O	0.075518	-1.232460	-0.060540
O6	O	0.575518	-0.732460	0.439460
O7	O	0.276587	-1.215031	-0.060552
O8	O	0.776587	-0.715031	0.439448
O9	O	0.075511	-1.232432	0.060559
O10	O	0.575511	-0.732432	0.560559
O11	O	0.171587	-1.072836	0.060552
O12	O	0.671587	-0.572836	0.560552
O13	O	0.180504	-1.374600	0.060555
O14	O	0.680504	-0.874600	0.560555
Zn15	Zn	0.176044	-1.223714	0.079781
Zn16	Zn	0.676044	-0.723714	0.579781
Zn17	Zn	0.176054	-1.223750	-0.079773
Zn18	Zn	0.676054	-0.723750	0.420227
O19	O	0.276580	-1.215004	0.060548
O20	O	0.776580	-0.715004	0.560548
C21	C	0.168579	-1.034243	0.000002
C22	C	0.668579	-0.534243	0.500002
C23	C	0.159595	-0.919207	0.000001
C24	C	0.659595	-0.419207	0.500001
C25	C	0.267600	-0.677750	0.000006
C26	C	0.767600	-0.177750	0.500006
C27	C	0.259162	-0.569663	0.000006
C28	C	0.759162	-0.069663	0.500006
C29	C	0.134281	-0.594944	0.000005
C30	C	0.634281	-0.094944	0.500005
C31	C	0.142719	-0.703031	0.000006
C32	C	0.642719	-0.203031	0.500006
C33	C	0.209381	-0.744430	0.000005
C34	C	0.709381	-0.244430	0.500005
C35	C	0.217818	-0.852519	0.000000
C36	C	0.717818	-0.352519	0.500000
C37	C	0.092938	-0.877798	0.000005
C38	C	0.592938	-0.377798	0.500005
C39	C	0.084500	-0.769711	0.000004
C40	C	0.584500	-0.269711	0.500004
C41	C	0.049599	-1.231884	0.000009
C42	C	0.549599	-0.731884	0.500009
C43	C	-0.027619	-1.230195	0.000009
C44	C	0.472381	-0.730195	0.500009
C45	C	-0.584020	-1.218057	0.066002
C46	C	-0.084020	-0.718057	0.566002
C47	C	-0.511465	-1.219632	0.066006
C48	C	-0.011465	-0.719632	0.566006
C49	C	-0.475176	-1.220440	-0.000004
C50	C	0.024824	-0.720440	0.499996
C51	C	-0.511447	-1.219645	-0.066023
C52	C	-0.011447	-0.719645	0.433977
C53	C	-0.584001	-1.218059	-0.066025
C54	C	-0.084001	-0.718059	0.433975
C55	C	-0.361525	-1.283658	-0.050574
C56	C	0.138475	-0.783658	0.449426
C57	C	-0.288973	-1.285250	-0.050570
C58	C	0.211027	-0.785250	0.449430
C59	C	-0.251396	-1.225326	-0.000000
C60	C	0.248604	-0.725326	0.500000
C61	C	-0.286380	-1.163822	0.050576
C62	C	0.213620	-0.663822	0.550576
C63	C	-0.358934	-1.162236	0.050574
C64	C	0.141066	-0.662236	0.550574
C65	C	-0.396503	-1.222158	-0.000009
C66	C	0.103497	-0.722158	0.499991
C67	C	-0.136460	-1.227821	0.066019
C68	C	0.363540	-0.727821	0.566019
C69	C	-0.063903	-1.229390	0.066020
C70	C	0.436097	-0.729390	0.566020
C71	C	-0.063887	-1.229413	-0.066011
C72	C	0.436113	-0.729413	0.433989
C73	C	-0.136442	-1.227833	-0.066011
C74	C	0.363558	-0.727833	0.433989
C75	C	-0.172725	-1.227042	0.000007
C76	C	0.327275	-0.727042	0.500007
C77	C	0.302499	-1.215580	-0.000004
C78	C	0.802499	-0.715580	0.499996
C79	C	0.379717	-1.217268	-0.000008
C80	C	0.879717	-0.717268	0.499992
N81	N	0.176038	-1.223697	0.188672
N82	N	0.676038	-0.723697	0.688672
C83	C	0.183520	-0.413221	0.000005
C84	C	0.683520	0.086779	0.500005
C85	C	0.192505	-0.528256	0.000004
C86	C	0.692505	-0.028256	0.500004
N87	N	0.176055	-1.223774	-0.188664
N88	N	0.676055	-0.723774	0.311336
C89	C	0.133520	-1.294390	0.226775
C90	C	0.633520	-0.794390	0.726775
C91	C	0.133517	-1.294396	0.303003
C92	C	0.633517	-0.794396	0.803003
C93	C	0.176045	-1.223720	0.341124
C94	C	0.676045	-0.723720	0.841124
C95	C	0.218566	-1.153015	0.303012
C96	C	0.718566	-0.653015	0.803012
C97	C	0.218562	-1.153003	0.226785
C98	C	0.718562	-0.653003	0.726785
C99	C	0.238386	-1.209851	0.461881
C100	C	0.738386	-0.709851	0.961881
C101	C	0.238391	-1.209870	0.538106
C102	C	0.738391	-0.709870	1.038106
C103	C	0.176056	-1.223750	0.576232
C104	C	0.676056	-0.723750	1.076232
C105	C	0.113715	-1.237633	0.538124
C106	C	0.613715	-0.737633	1.038124
C107	C	0.113711	-1.237621	0.461897
C108	C	0.613711	-0.737621	0.961897
C109	C	0.176054	-1.223724	0.423779
C110	C	0.676054	-0.723724	0.923779
C111	C	0.133532	-1.294453	0.696990
C112	C	0.633532	-0.794453	1.196990
C113	C	0.133527	-1.294452	0.773220
C114	C	0.633527	-0.794452	1.273220
C115	C	0.218582	-1.153076	0.773227
C116	C	0.718582	-0.653076	1.273227
C117	C	0.218580	-1.153071	0.696999
C118	C	0.718580	-0.653071	1.196999
C119	C	0.176056	-1.223766	0.658885
C120	C	0.676056	-0.723766	1.158885
H121	H	0.030226	-0.735989	0.000013
H122	H	0.530226	-0.235989	0.500013
H123	H	-0.613526	-1.217415	-0.119781
H124	H	-0.113526	-0.717415	0.380219
H125	H	0.098893	-1.351964	0.334033
H126	H	0.598893	-0.851964	0.834033
N127	N	-0.024787	-1.230236	0.137221
N128	N	0.475213	-0.730236	0.637221
H129	H	-0.058784	-1.229498	0.179039
H130	H	0.441216	-0.729498	0.679039
H131	H	0.003938	-1.295121	0.140090
H132	H	0.503938	-0.795121	0.640090
H133	H	0.253192	-1.095467	0.334054
H134	H	0.753192	-0.595467	0.834054
N135	N	0.030138	-0.949717	-0.000004
N136	N	0.530138	-0.449717	0.499996
H137	H	0.045597	-1.024472	-0.000007
H138	H	0.545597	-0.524472	0.499993
H139	H	0.001389	-0.936340	0.044888
H140	H	0.501389	-0.436340	0.544888
N141	N	0.087665	-1.370676	0.655863
N142	N	0.587665	-0.870676	1.155863
H143	H	0.100551	-1.444191	0.669109
H144	H	0.600551	-0.944191	1.169109
H145	H	0.037604	-1.358879	0.669148
H146	H	0.537604	-0.858879	1.169148
H147	H	-0.166002	-1.227168	0.119774
H148	H	0.333998	-0.727168	0.619774
N149	N	-0.024761	-1.230287	-0.137213
N150	N	0.475239	-0.730287	0.362787
H151	H	-0.036007	-1.165789	-0.166071
H152	H	0.463993	-0.665789	0.333929
H153	H	0.026692	-1.231448	-0.127139
H154	H	0.526692	-0.731448	0.372861
H155	H	0.306571	-0.515375	0.000009
H156	H	0.806571	-0.015375	0.500009
N157	N	0.062387	-0.550283	0.000027
N158	N	0.562387	-0.050283	0.500027
H159	H	0.065880	-0.471693	0.000034
H160	H	0.565880	0.028307	0.500034
H161	H	0.036590	-0.574692	-0.044863
H162	H	0.536590	-0.074692	0.455137
N163	N	0.339494	-0.722411	-0.000006
N164	N	0.839494	-0.222411	0.499994
H165	H	0.375097	-0.663767	-0.000010
H166	H	0.875097	-0.163767	0.499990
H167	H	0.345715	-0.766698	0.044886
H168	H	0.845715	-0.266698	0.544886
N169	N	-0.623153	-1.217202	0.137203
N170	N	-0.123153	-0.717202	0.637203
H171	H	-0.589166	-1.217940	0.179022
H172	H	-0.089166	-0.717940	0.679022
H173	H	-0.651876	-1.152315	0.140083
H174	H	-0.151876	-0.652315	0.640083
H175	H	0.098893	-1.351950	0.195745
H176	H	0.598893	-0.851950	0.695745
H177	H	0.062951	-1.248923	0.430872
H178	H	0.562951	-0.748923	0.930872
N179	N	-0.472310	-1.220527	-0.137220
N180	N	0.027690	-0.720527	0.362780
H181	H	-0.506295	-1.219788	-0.179040
H182	H	-0.006295	-0.719788	0.320960
H183	H	-0.440825	-1.156960	-0.140094
H184	H	0.059175	-0.656960	0.359906
H185	H	0.062956	-1.248935	0.569164
H186	H	0.562956	-0.748935	1.069164
N187	N	-0.472340	-1.220481	0.137206
N188	N	0.027660	-0.720481	0.637206
H189	H	-0.506335	-1.219738	0.179026
H190	H	-0.006335	-0.719738	0.679026
H191	H	-0.443618	-1.285368	0.140074
H192	H	0.056382	-0.785368	0.640074
N193	N	-0.396660	-1.095892	0.105116
N194	N	0.103340	-0.595892	0.605116
H195	H	-0.425644	-1.043335	0.078512
H196	H	0.074356	-0.543335	0.578512
H197	H	-0.427728	-1.141794	0.136211
H198	H	0.072272	-0.641794	0.636211
H199	H	0.253186	-1.095435	0.195761
H200	H	0.753186	-0.595435	0.695761
H201	H	-0.255786	-1.115029	0.091757
H202	H	0.244214	-0.615029	0.591757
H203	H	0.098900	-1.352015	0.804244
H204	H	0.598900	-0.852015	1.304244
N205	N	0.264447	-1.076836	0.814332
N206	N	0.764447	-0.576836	1.314332
H207	H	0.257997	-1.087567	0.868404
H208	H	0.757997	-0.587567	1.368404
H209	H	0.314504	-1.088571	0.800999
H210	H	0.814504	-0.588571	1.300999
H211	H	0.272097	-0.886223	0.000001
H212	H	0.772097	-0.386223	0.500001
H213	H	0.253205	-1.095511	0.665973
H214	H	0.753205	-0.595511	1.165973
H215	H	0.289153	-1.198572	0.569128
H216	H	0.789153	-0.698572	1.069128
H217	H	0.289149	-1.198530	0.430845
H218	H	0.789149	-0.698530	0.930845
N219	N	-0.251243	-1.351590	-0.105112
N220	N	0.248757	-0.851590	0.394888
H221	H	-0.286055	-1.389302	-0.137153
H222	H	0.213945	-0.889302	0.362847
H223	H	-0.220134	-1.305694	-0.136165
H224	H	0.279866	-0.805694	0.363835
N225	N	-0.175541	-1.227027	-0.137220
N226	N	0.324459	-0.727027	0.362780
H227	H	-0.204270	-1.162152	-0.140191
H228	H	0.295730	-0.662152	0.359809
H229	H	-0.141485	-1.227828	-0.178981
H230	H	0.358515	-0.727828	0.321019
N231	N	-0.402052	-1.348284	-0.105127
N232	N	0.097948	-0.848284	0.394873
H233	H	-0.368882	-1.387489	-0.137163
H234	H	0.131118	-0.887489	0.362837
H235	H	-0.433274	-1.399469	-0.078479
H236	H	0.066726	-0.899469	0.421521
