data_functionalizedCrystal
_audit_creation_method	'MofGen! by Chris Wilmer'
_symmetry_space_group_name_H-M	'P1'
_symmetry_Int_Tables_number	1
_symmetry_cell_setting	triclinic
loop_
_symmetry_equiv_pos_as_xyz
  x,y,z
_cell_length_a	6.394989
_cell_length_b	10.654550
_cell_length_c	9.130313
_cell_angle_alpha	89.999724
_cell_angle_beta	89.998557
_cell_angle_gamma	85.491321
loop_
_atom_site_label
_atom_site_type_symbol
_atom_site_fract_x
_atom_site_fract_y
_atom_site_fract_z
O1	O	0.293442	1.670947	-0.121679
O2	O	0.321399	1.305765	-0.121705
O3	O	0.003431	1.493540	-0.121693
O4	O	0.611409	1.483173	-0.121691
O5	O	0.003422	1.493526	0.121906
O6	O	0.321389	1.305752	0.121894
O7	O	0.293432	1.670934	0.121920
Cu8	Cu	0.307410	1.488342	0.144149
Cu9	Cu	0.307421	1.488357	-0.143935
O10	O	0.611400	1.483159	0.121908
C11	C	0.319341	1.258939	0.000091
C12	C	0.313200	1.119430	0.000081
N13	N	0.307401	1.488340	0.346772
C14	C	0.500414	1.041927	0.000086
C15	C	0.494631	0.910845	0.000111
C16	C	0.114403	0.934782	0.000121
C17	C	0.120188	1.065861	0.000106
C18	C	0.689256	1.485216	0.000102
C19	C	0.925582	1.491480	0.000098
C20	C	0.295490	1.717760	0.000121
C21	C	0.301631	1.857269	0.000121
N22	N	0.307414	1.488369	-0.346557
C23	C	0.166665	1.571516	0.423429
C24	C	0.166665	1.571528	0.576766
C25	C	0.448157	1.405184	0.576775
C26	C	0.448145	1.405167	0.423441
H27	H	0.657577	1.085539	0.000076
H28	H	-0.032274	1.128967	0.000106
F29	F	0.597944	1.316672	0.658381
F30	F	0.597934	1.316630	0.341850
H31	H	0.647080	0.847747	0.000118
H32	H	0.052063	1.639256	0.639176
H33	H	-0.042741	0.891149	0.000150
H34	H	0.052060	1.639239	0.361009
