data_functionalizedCrystal
_audit_creation_method	'MofGen! by Chris Wilmer'
_symmetry_space_group_name_H-M	'P1'
_symmetry_Int_Tables_number	1
_symmetry_cell_setting	triclinic
loop_
_symmetry_equiv_pos_as_xyz
  x,y,z
_cell_length_a	6.817900
_cell_length_b	12.200863
_cell_length_c	12.200875
_cell_angle_alpha	93.006308
_cell_angle_beta	107.143593
_cell_angle_gamma	107.143441
loop_
_atom_site_label
_atom_site_type_symbol
_atom_site_fract_x
_atom_site_fract_y
_atom_site_fract_z
V1	V	-4.086881	-0.158973	-0.357778
V2	V	-3.586881	0.341027	0.142222
O3	O	-4.054179	0.007371	-0.350847
O4	O	-3.554179	0.507371	0.149153
O5	O	-4.056329	-0.314959	-0.355446
O6	O	-3.556329	0.185041	0.144554
O7	O	-4.056333	-0.156645	-0.513764
O8	O	-3.556333	0.343355	-0.013764
O9	O	-4.054175	-0.152038	-0.191433
O10	O	-3.554175	0.347962	0.308567
V11	V	-4.565883	-0.139062	-0.337868
V12	V	-4.065883	0.360938	0.162132
O13	O	-4.358057	-0.202649	-0.401452
O14	O	-3.858057	0.297351	0.098548
O15	O	-4.744905	-0.095387	-0.294193
O16	O	-4.244905	0.404613	0.205807
O17	O	-4.373229	0.016923	-0.340199
O18	O	-3.873229	0.516923	0.159801
O19	O	-4.715983	-0.305407	-0.344798
O20	O	-4.215983	0.194593	0.155202
O21	O	-4.715986	-0.145997	-0.504212
O22	O	-4.215986	0.354003	-0.004212
O23	O	-4.373226	-0.141390	-0.181881
O24	O	-3.873226	0.358610	0.318119
C25	C	-3.905095	-0.352981	-0.349832
C26	C	-3.405095	0.147019	0.150168
C27	C	-3.961521	-0.480503	-0.348965
C28	C	-3.461521	0.019497	0.151035
C29	C	-4.064793	-0.713978	-0.347388
C30	C	-3.564793	-0.213978	0.152612
C31	C	-4.007317	-0.584056	-0.348266
C32	C	-3.507317	-0.084056	0.151734
C33	C	-3.905097	-0.151035	-0.551781
C34	C	-3.405097	0.348965	-0.051781
C35	C	-3.961522	-0.150164	-0.679301
C36	C	-3.461522	0.349836	-0.179301
C37	C	-4.064787	-0.148571	-0.912775
C38	C	-3.564787	0.351429	-0.412775
C39	C	-4.007315	-0.149457	-0.782853
C40	C	-3.507315	0.350543	-0.282853
C41	C	-4.187806	0.054940	-0.345810
C42	C	-3.687806	0.554940	0.154190
C43	C	-4.110619	0.182460	-0.346684
C44	C	-3.610619	0.682460	0.153316
C45	C	-4.187803	-0.147004	-0.143858
C46	C	-3.687803	0.352996	0.356142
C47	C	-4.110616	-0.147869	-0.016337
C48	C	-3.610616	0.352131	0.483663
