data_functionalizedCrystal
_audit_creation_method	'MofGen! by Chris Wilmer'
_symmetry_space_group_name_H-M	'P1'
_symmetry_Int_Tables_number	1
_symmetry_cell_setting	triclinic
loop_
_symmetry_equiv_pos_as_xyz
  x,y,z
_cell_length_a	19.288864
_cell_length_b	14.750779
_cell_length_c	19.288865
_cell_angle_alpha	102.602845
_cell_angle_beta	83.136245
_cell_angle_gamma	77.416117
loop_
_atom_site_label
_atom_site_type_symbol
_atom_site_fract_x
_atom_site_fract_y
_atom_site_fract_z
O1	O	0.906164	0.080142	0.101825
O2	O	1.239497	0.413475	0.435158
O3	O	1.572830	0.746808	0.768491
O4	O	0.703915	0.080078	0.113501
O5	O	1.037248	0.413411	0.446834
O6	O	1.370582	0.746744	0.780168
O7	O	0.810887	0.080092	0.006529
O8	O	1.144220	0.413426	0.339863
O9	O	1.477554	0.746759	0.673196
O10	O	0.799192	0.080127	0.208796
O11	O	1.132525	0.413460	0.542130
O12	O	1.465858	0.746793	0.875463
O13	O	0.841126	-0.079554	-0.023707
O14	O	1.174460	0.253780	0.309626
O15	O	1.507793	0.587113	0.642960
O16	O	0.734155	-0.079569	0.083265
O17	O	1.067488	0.253765	0.416598
O18	O	1.400821	0.587098	0.749931
O19	O	0.936403	-0.079504	0.071588
O20	O	1.269736	0.253829	0.404922
O21	O	1.603070	0.587162	0.738255
Zn22	Zn	0.840080	-0.104884	0.072626
Zn23	Zn	1.173413	0.228450	0.405959
Zn24	Zn	1.506747	0.561783	0.739292
Zn25	Zn	0.800238	0.105457	0.112464
Zn26	Zn	1.133571	0.438790	0.445797
Zn27	Zn	1.466905	0.772124	0.779130
O28	O	0.829431	-0.079519	0.178560
O29	O	1.162765	0.253814	0.511893
O30	O	1.496098	0.587147	0.845227
C31	C	0.693160	0.000246	0.098005
C32	C	1.026493	0.333579	0.431339
C33	C	1.359827	0.666913	0.764672
C34	C	0.616061	0.000221	0.096871
C35	C	0.949395	0.333554	0.430205
C36	C	1.282728	0.666887	0.763538
N37	N	0.867276	-0.248436	0.045437
N38	N	1.200610	0.084898	0.378770
N39	N	1.533943	0.418231	0.712104
C40	C	0.571360	0.000246	0.159644
C41	C	0.904693	0.333580	0.492978
C42	C	1.238027	0.666913	0.826311
C43	C	0.498911	0.000257	0.158586
C44	C	0.832244	0.333590	0.491919
C45	C	1.165578	0.666924	0.825252
C46	C	0.471163	0.000261	0.094754
C47	C	0.804496	0.333594	0.428087
C48	C	1.137829	0.666928	0.761421
C49	C	0.515875	0.000230	0.031972
C50	C	0.849208	0.333563	0.365305
C51	C	1.182541	0.666896	0.698639
C52	C	0.588324	0.000210	0.033031
C53	C	0.921657	0.333543	0.366364
C54	C	1.254991	0.666876	0.699697
C55	C	0.352302	0.056216	0.055173
C56	C	0.685635	0.389549	0.388506
C57	C	1.018969	0.722882	0.721839
C58	C	0.279853	0.056242	0.054118
C59	C	0.613186	0.389575	0.387451
C60	C	0.946519	0.722908	0.720784
C61	C	0.247706	0.000318	0.091485
C62	C	0.581040	0.333652	0.424819
C63	C	0.914373	0.666985	0.758152
C64	C	0.288014	-0.055619	0.129922
C65	C	0.621348	0.277715	0.463256
C66	C	0.954681	0.611048	0.796589
C67	C	0.360464	-0.055639	0.130981
C68	C	0.693797	0.277695	0.464314
C69	C	1.027130	0.611028	0.797648
C70	C	0.392605	0.000282	0.093599
C71	C	0.725938	0.333615	0.426932
C72	C	1.059271	0.666949	0.760266
C73	C	0.124447	0.000354	0.153114
C74	C	0.457781	0.333687	0.486448
C75	C	0.791114	0.667021	0.819781
C76	C	0.051998	0.000359	0.152052
C77	C	0.385332	0.333692	0.485385
C78	C	0.718665	0.667025	0.818718
C79	C	0.068962	0.000341	0.025438
C80	C	0.402295	0.333674	0.358772
C81	C	0.735628	0.667008	0.692105
C82	C	0.141411	0.000327	0.026501
C83	C	0.474744	0.333660	0.359834
C84	C	0.808078	0.666994	0.693167
C85	C	0.169148	0.000338	0.090342
C86	C	0.502481	0.333671	0.423675
C87	C	0.835815	0.667005	0.757008
C88	C	0.697092	-0.600278	0.215550
C89	C	1.030426	-0.266944	0.548883
C90	C	1.363759	0.066389	0.882216
C91	C	0.716155	-0.700774	0.196502
C92	C	1.049488	-0.367441	0.529836
C93	C	1.382821	-0.034107	0.863169
C94	C	0.810898	-0.700723	0.101814
C95	C	1.144231	-0.367390	0.435147
C96	C	1.477564	-0.034057	0.768480
C97	C	0.791841	-0.600225	0.120851
C98	C	1.125174	-0.266892	0.454184
C99	C	1.458508	0.066442	0.787517
C100	C	0.734938	-0.550010	0.177720
C101	C	1.068272	-0.216677	0.511053
C102	C	1.401605	0.116657	0.844387
C103	C	0.829687	-0.549957	0.083021
C104	C	1.163020	-0.216624	0.416354
C105	C	1.496353	0.116709	0.749688
C106	C	0.810634	-0.449468	0.102059
C107	C	1.143967	-0.116134	0.435393
C108	C	1.477300	0.217199	0.768726
C109	C	0.753735	-0.399246	0.158928
C110	C	1.087068	-0.065912	0.492261
C111	C	1.420401	0.267421	0.825594
C112	C	0.715885	-0.449520	0.196758
C113	C	1.049219	-0.116187	0.530092
C114	C	1.382552	0.217146	0.863425
C115	C	0.886593	-0.600174	0.026155
C116	C	1.219926	-0.266841	0.359489
C117	C	1.553259	0.066492	0.692822
C118	C	0.924438	-0.549907	-0.011675
C119	C	1.257772	-0.216573	0.321659
C120	C	1.591105	0.116760	0.654992
C121	C	0.905382	-0.449415	0.007360
C122	C	1.238716	-0.116082	0.340694
C123	C	1.572049	0.217252	0.674027
C124	C	0.848483	-0.399193	0.064229
C125	C	1.181817	-0.065860	0.397562
C126	C	1.515150	0.267474	0.730895
C127	C	0.943232	-0.399140	-0.030470
C128	C	1.276565	-0.065807	0.302863
C129	C	1.609899	0.267526	0.636196
C130	C	0.924179	-0.298651	-0.011432
C131	C	1.257512	0.034683	0.321901
C132	C	1.590846	0.368016	0.655235
C133	C	0.829430	-0.298703	0.083267
C134	C	1.162764	0.034630	0.416600
C135	C	1.496097	0.367963	0.749934
C136	C	0.947158	0.000329	0.087084
C137	C	1.280491	0.333663	0.420418
C138	C	1.613824	0.666996	0.753751
C139	C	1.024255	0.000361	0.088219
C140	C	1.357589	0.333694	0.421553
C141	C	1.690922	0.667028	0.754886
C142	C	0.825631	0.000266	-0.034466
C143	C	1.158964	0.333600	0.298867
C144	C	1.492298	0.666933	0.632201
C145	C	0.824504	0.000258	-0.111571
C146	C	1.157837	0.333591	0.221762
C147	C	1.491170	0.666924	0.555096
N148	N	0.773047	0.249009	0.139647
N149	N	1.106381	0.582342	0.472980
N150	N	1.439714	0.915675	0.806313
C151	C	0.887269	0.000273	-0.156265
C152	C	1.220602	0.333606	0.177069
C153	C	1.553935	0.666940	0.510402
C154	C	0.886205	0.000288	-0.228709
C155	C	1.219539	0.333621	0.104625
C156	C	1.552872	0.666954	0.437958
C157	C	0.822377	0.000268	-0.256460
C158	C	1.155710	0.333601	0.076873
C159	C	1.489044	0.666935	0.410207
C160	C	0.759603	0.000258	-0.211756
C161	C	1.092936	0.333592	0.121578
C162	C	1.426269	0.666925	0.454911
C163	C	0.760666	0.000253	-0.139311
C164	C	1.093999	0.333586	0.194022
C165	C	1.427333	0.666920	0.527355
C166	C	0.782793	-0.055668	-0.375342
C167	C	1.116126	0.277665	-0.042008
C168	C	1.449459	0.610998	0.291325
C169	C	0.781733	-0.055669	-0.447786
C170	C	1.115066	0.277664	-0.114453
C171	C	1.448400	0.610998	0.218880
C172	C	0.819093	0.000289	-0.479902
C173	C	1.152427	0.333622	-0.146568
C174	C	1.485760	0.666955	0.186765
C175	C	0.857528	0.056234	-0.439568
C176	C	1.190861	0.389568	-0.106234
C177	C	1.524194	0.722901	0.227099
C178	C	0.858591	0.056229	-0.367123
C179	C	1.191925	0.389563	-0.033790
C180	C	1.525258	0.722896	0.299543
C181	C	0.821217	0.000274	-0.335013
C182	C	1.154550	0.333608	-0.001680
C183	C	1.487883	0.666941	0.331654
C184	C	0.880709	0.000321	-0.603148
C185	C	1.214043	0.333655	-0.269815
C186	C	1.547376	0.666988	0.063519
C187	C	0.879642	0.000342	-0.675592
C188	C	1.212975	0.333675	-0.342259
C189	C	1.546309	0.667009	-0.008925
C190	C	0.753039	0.000303	-0.658639
C191	C	1.086373	0.333636	-0.325306
C192	C	1.419706	0.666970	0.008027
C193	C	0.754107	0.000292	-0.586195
C194	C	1.087440	0.333625	-0.252862
C195	C	1.420773	0.666958	0.080472
C196	C	0.817944	0.000296	-0.558455
C197	C	1.151278	0.333630	-0.225121
C198	C	1.484611	0.666963	0.108212
C199	C	0.814687	0.000309	0.219556
C200	C	1.148020	0.333642	0.552889
C201	C	1.481353	0.666976	0.886222
C202	C	0.815813	0.000324	0.296662
C203	C	1.149146	0.333657	0.629995
C204	C	1.482479	0.666991	0.963329
H205	H	0.593938	0.000257	0.211629
H206	H	0.927272	0.333591	0.544962
H207	H	1.260605	0.666924	0.878295
H208	H	0.147035	0.000349	0.205094
H209	H	0.480368	0.333682	0.538428
H210	H	0.813701	0.667016	0.871761
H211	H	0.887950	0.101801	-0.465714
H212	H	1.221283	0.435134	-0.132381
H213	H	1.554617	0.768468	0.200953
Cl214	Cl	0.757886	-0.235572	0.154755
Cl215	Cl	1.091220	0.097761	0.488088
Cl216	Cl	1.424553	0.431095	0.821421
Cl217	Cl	0.411135	-0.125960	0.179295
Cl218	Cl	0.744469	0.207373	0.512628
Cl219	Cl	1.077802	0.540707	0.845962
H220	H	0.954998	-0.257722	-0.042237
H221	H	1.288331	0.075611	0.291097
H222	H	1.621665	0.408944	0.624430
H223	H	0.902105	-0.681999	0.010659
H224	H	1.235439	-0.348666	0.343992
H225	H	1.568772	-0.015333	0.677325
H226	H	0.177807	0.000311	-0.024615
H227	H	0.511140	0.333644	0.308719
H228	H	0.844474	0.666978	0.642052
Cl229	Cl	-0.004198	0.000386	0.230973
Cl230	Cl	0.329135	0.333719	0.564306
Cl231	Cl	0.662468	0.667053	0.897640
H232	H	0.685332	-0.741697	0.227314
H233	H	1.018665	-0.408364	0.560647
H234	H	1.351998	-0.075030	0.893981
H235	H	0.709554	0.000240	-0.102921
H236	H	1.042887	0.333574	0.230412
H237	H	1.376220	0.666907	0.563745
Cl238	Cl	0.229184	0.126571	0.005806
Cl239	Cl	0.562518	0.459905	0.339140
Cl240	Cl	0.895851	0.793238	0.672473
H241	H	0.932689	0.000329	-0.580560
H242	H	1.266022	0.333663	-0.247227
H243	H	1.599356	0.666996	0.086107
Cl244	Cl	0.995973	-0.613041	-0.083164
Cl245	Cl	1.329306	-0.279707	0.250170
Cl246	Cl	1.662639	0.053626	0.583503
Cl247	Cl	0.480993	0.000229	-0.048274
Cl248	Cl	0.814327	0.333562	0.285059
Cl249	Cl	1.147660	0.666896	0.618392
Cl250	Cl	0.672796	0.000284	-0.693518
Cl251	Cl	1.006129	0.333617	-0.360185
Cl252	Cl	1.339462	0.666950	-0.026852
Cl253	Cl	0.965116	0.000308	-0.284905
Cl254	Cl	1.298449	0.333641	0.048428
Cl255	Cl	1.631782	0.666974	0.381762
H256	H	0.624720	0.000189	-0.018088
H257	H	0.958054	0.333523	0.315245
H258	H	1.291387	0.666856	0.648579
Cl259	Cl	0.735823	-0.126025	-0.334977
Cl260	Cl	1.069156	0.207308	-0.001643
Cl261	Cl	1.402489	0.540642	0.331690
Cl262	Cl	0.729785	-0.272914	0.182865
Cl263	Cl	1.063118	0.060420	0.516198
Cl264	Cl	1.396451	0.393753	0.849532
Cl265	Cl	0.644341	-0.386389	0.268246
Cl266	Cl	0.977674	-0.053056	0.601579
Cl267	Cl	1.311008	0.280278	0.934913
H268	H	0.989567	-0.440039	-0.076769
H269	H	1.322901	-0.106705	0.256564
H270	H	1.656234	0.226628	0.589897
H271	H	0.462509	0.000275	0.209704
H272	H	0.795842	0.333609	0.543037
H273	H	1.129175	0.666942	0.876370
H274	H	0.378468	0.101761	0.024743
H275	H	0.711801	0.435094	0.358076
H276	H	1.045135	0.768428	0.691410
Cl277	Cl	0.882432	-0.763858	0.030324
Cl278	Cl	1.215765	-0.430524	0.363658
Cl279	Cl	1.549099	-0.097191	0.696991
Cl280	Cl	0.733420	-0.126004	-0.498485
Cl281	Cl	1.066753	0.207329	-0.165152
Cl282	Cl	1.400086	0.540663	0.168181
H283	H	0.046359	0.000404	-0.026523
H284	H	0.379692	0.333737	0.306810
H285	H	0.713025	0.667070	0.640144
Cl286	Cl	0.247611	-0.125927	0.176903
Cl287	Cl	0.580944	0.207407	0.510236
Cl288	Cl	0.914277	0.540740	0.843569
H289	H	0.650752	-0.559391	0.261854
H290	H	0.984085	-0.226057	0.595187
H291	H	1.317418	0.107276	0.928520
Cl292	Cl	0.967517	0.000306	-0.121390
Cl293	Cl	1.300850	0.333639	0.211944
Cl294	Cl	1.634183	0.666972	0.545277
H295	H	0.707633	0.000244	-0.234355
H296	H	1.040966	0.333578	0.098978
H297	H	1.374299	0.666911	0.432312
H298	H	0.889884	0.101784	-0.334286
H299	H	1.223217	0.435118	-0.000952
H300	H	1.556551	0.768451	0.332381
Cl301	Cl	0.675198	0.000268	-0.530006
Cl302	Cl	1.008531	0.333602	-0.196673
Cl303	Cl	1.341865	0.666935	0.136660
H304	H	0.930754	0.000360	-0.711980
H305	H	1.264087	0.333693	-0.378647
H306	H	1.597421	0.667026	-0.045314
