data_functionalizedCrystal
_audit_creation_method	'MofGen! by Chris Wilmer'
_symmetry_space_group_name_H-M	'P1'
_symmetry_Int_Tables_number	1
_symmetry_cell_setting	triclinic
loop_
_symmetry_equiv_pos_as_xyz
  x,y,z
_cell_length_a	12.759395
_cell_length_b	12.645330
_cell_length_c	12.759387
_cell_angle_alpha	89.969429
_cell_angle_beta	89.981185
_cell_angle_gamma	90.019229
loop_
_atom_site_label
_atom_site_type_symbol
_atom_site_fract_x
_atom_site_fract_y
_atom_site_fract_z
Zn1	Zn	1.606229	-0.421928	-0.594015
Zn2	Zn	1.606116	-0.599233	-0.418340
Zn3	Zn	1.430533	-0.421989	-0.418352
Zn4	Zn	1.430511	-0.599155	-0.593979
O5	O	1.518347	-0.510576	-0.506172
O6	O	1.753235	-0.445455	-0.570722
O7	O	1.582786	-0.575780	-0.271320
O8	O	1.453896	-0.273634	-0.441674
O9	O	1.753152	-0.575721	-0.441654
O10	O	1.582979	-0.273589	-0.570733
O11	O	1.453786	-0.445560	-0.271329
O12	O	1.283509	-0.445483	-0.441639
O13	O	1.453858	-0.575586	-0.741005
O14	O	1.283493	-0.575646	-0.570672
O15	O	1.582958	-0.445379	-0.741032
O16	O	1.582765	-0.747570	-0.441619
O17	O	1.453748	-0.747512	-0.570660
C18	C	1.245380	-0.510563	-0.506153
C19	C	1.128603	-0.510583	-0.506171
C20	C	1.128625	-0.646341	-0.640315
C21	C	1.073775	-0.714228	-0.707390
C22	C	0.964053	-0.714241	-0.707403
C23	C	0.909179	-0.646357	-0.640335
C24	C	0.964029	-0.578470	-0.573260
C25	C	1.073753	-0.578467	-0.573253
C26	C	0.964007	-0.442709	-0.439123
C27	C	1.073729	-0.442700	-0.439103
C28	C	0.909133	-0.374825	-0.372056
C29	C	0.963983	-0.306942	-0.304974
C30	C	1.073711	-0.306932	-0.304963
C31	C	1.128579	-0.374813	-0.372028
C32	C	1.518270	-0.786006	-0.506157
C33	C	1.518334	-0.903836	-0.506186
C34	C	1.437504	-1.071408	-0.587616
C35	C	1.437091	-0.948848	-0.587354
C36	C	1.488361	-0.948442	-0.395464
C37	C	1.487868	-1.071040	-0.395958
C38	C	1.629630	-1.070920	-0.534579
C39	C	1.628948	-0.948312	-0.537001
C40	C	1.792381	-0.510590	-0.506190
C41	C	1.909157	-0.510596	-0.506198
C42	C	1.518418	-0.510467	-0.780205
C43	C	1.518449	-0.510420	-0.896982
C44	C	1.518453	-0.234071	-0.506209
C45	C	1.518498	-0.116241	-0.506225
C46	C	1.384130	-0.374812	-0.897010
C47	C	1.316989	-0.306987	-0.951885
C48	C	1.317021	-0.306949	-1.061607
C49	C	1.384198	-0.374745	-1.116456
C50	C	1.451338	-0.442570	-1.061581
C51	C	1.451301	-0.442599	-0.951857
C52	C	1.585650	-0.578182	-1.061553
C53	C	1.585626	-0.578216	-0.951831
C54	C	1.652827	-0.645978	-1.116402
C55	C	1.719974	-0.713799	-1.061527
C56	C	1.719941	-0.713834	-0.951799
C57	C	1.652766	-0.646041	-0.896956
C58	C	1.518337	-0.510609	-0.233204
C59	C	1.518510	-0.510357	-0.116428
H60	H	0.919395	-0.769515	-0.762026
H61	H	1.384208	-0.374717	-1.205797
H62	H	1.262293	-0.251791	-0.907215
H63	H	1.217966	-0.646345	-0.640303
H64	H	1.262348	-0.251721	-1.106286
H65	H	1.774618	-0.769062	-0.907126
C66	C	1.659511	-0.908875	-0.647062
N67	N	1.682536	-0.879150	-0.729954
C68	C	1.666564	-1.112569	-0.641803
N69	N	1.694371	-1.143939	-0.722569
H70	H	1.652736	-0.646060	-0.807615
C71	C	1.711151	-1.110093	-0.454500
N72	N	1.772545	-1.139606	-0.394183
H73	H	1.118465	-0.769496	-0.761996
C74	C	1.249275	-0.374816	-0.372016
N75	N	1.340186	-0.374821	-0.372010
H76	H	0.819838	-0.646365	-0.640361
H77	H	1.545483	-0.919288	-0.333165
C78	C	0.903615	-0.232275	-0.231211
N79	N	0.858141	-0.176037	-0.175651
C80	C	1.134037	-0.232249	-0.231174
N81	N	1.179471	-0.175997	-0.175593
C82	C	0.788436	-0.374831	-0.372083
N83	N	0.697526	-0.374834	-0.372101
C84	C	1.462420	-0.908097	-0.698269
N85	N	1.481495	-0.877408	-0.781815
C86	C	1.652854	-0.645940	-1.237099
N87	N	1.652877	-0.645911	-1.328010
H88	H	1.456085	-1.100811	-0.669985
C89	C	1.325769	-0.909354	-0.562054
N90	N	1.241911	-0.879608	-0.543023
C91	C	1.384096	-0.374841	-0.776313
N92	N	1.384067	-0.374862	-0.685403
H93	H	1.774660	-0.768998	-1.106194
H94	H	1.406629	-1.099736	-0.371938
C95	C	1.326892	-1.113144	-0.562556
N96	N	1.243579	-1.144577	-0.543674
H97	H	1.544300	-1.100702	-0.333248
H98	H	1.407969	-0.917836	-0.371009
H99	H	1.692470	-0.917666	-0.482037
