data_functionalizedCrystal
_audit_creation_method	'MofGen! by Chris Wilmer'
_symmetry_space_group_name_H-M	'P1'
_symmetry_Int_Tables_number	1
_symmetry_cell_setting	triclinic
loop_
_symmetry_equiv_pos_as_xyz
  x,y,z
_cell_length_a	19.077236
_cell_length_b	10.686285
_cell_length_c	19.077174
_cell_angle_alpha	87.730334
_cell_angle_beta	85.294282
_cell_angle_gamma	87.746031
loop_
_atom_site_label
_atom_site_type_symbol
_atom_site_fract_x
_atom_site_fract_y
_atom_site_fract_z
Zn1	Zn	1.112451	-0.452905	-0.423399
Zn2	Zn	1.612451	0.047095	0.076601
Zn3	Zn	1.115968	-0.654579	-0.297240
Zn4	Zn	1.615968	-0.154579	0.202760
Zn5	Zn	0.989833	-0.452924	-0.300781
Zn6	Zn	1.489833	0.047076	0.199219
Zn7	Zn	1.003524	-0.670690	-0.409684
Zn8	Zn	1.503524	-0.170690	0.090316
O9	O	1.055444	-0.557774	-0.357776
O10	O	1.555444	-0.057774	0.142224
O11	O	1.211291	-0.472907	-0.410922
O12	O	1.711291	0.027093	0.089078
O13	O	1.094978	-0.621095	-0.199336
O14	O	1.594978	-0.121095	0.300664
O15	O	0.998897	-0.277384	-0.324269
O16	O	1.498897	0.222616	0.175731
O17	O	1.213876	-0.621076	-0.318233
O18	O	1.713876	-0.121076	0.181767
O19	O	1.088983	-0.277370	-0.414356
O20	O	1.588983	0.222630	0.085644
O21	O	1.002307	-0.472940	-0.201938
O22	O	1.502307	0.027060	0.298062
O23	O	0.893275	-0.488561	-0.310970
O24	O	1.393275	0.011439	0.189030
O25	O	1.022232	-0.648534	-0.509877
O26	O	1.522232	-0.148534	-0.009877
O27	O	0.903334	-0.648553	-0.390980
O28	O	1.403334	-0.148553	0.109020
O29	O	1.102259	-0.488529	-0.519954
O30	O	1.602259	0.011471	-0.019954
O31	O	1.108254	-0.832253	-0.304934
O32	O	1.608254	-0.332253	0.195066
O33	O	1.025642	-0.844090	-0.387546
O34	O	1.525642	-0.344090	0.112454
C35	C	0.872797	-0.570308	-0.349871
C36	C	1.372797	-0.070308	0.150129
C37	C	0.794662	-0.575702	-0.346505
C38	C	1.294662	-0.075702	0.153495
C39	C	0.756617	-0.501224	-0.393245
C40	C	1.256617	-0.001224	0.106755
C41	C	0.683201	-0.506285	-0.390076
C42	C	1.183201	-0.006285	0.109924
C43	C	0.647830	-0.585832	-0.340170
C44	C	1.147830	-0.085832	0.159830
C45	C	0.685880	-0.660312	-0.293425
C46	C	1.185880	-0.160312	0.206575
C47	C	0.759295	-0.655244	-0.296591
C48	C	1.259295	-0.155244	0.203409
C49	C	0.428406	-0.609243	-0.325516
C50	C	0.928406	-0.109243	0.174484
C51	C	0.354986	-0.614309	-0.322355
C52	C	0.854986	-0.114309	0.177645
C53	C	0.352311	-0.460279	-0.419005
C54	C	0.852311	0.039721	0.080995
C55	C	0.425728	-0.455223	-0.422169
C56	C	0.925728	0.044777	0.077831
C57	C	0.463771	-0.529699	-0.375422
C58	C	0.963771	-0.029699	0.124578
N59	N	0.572787	-0.591010	-0.336931
N60	N	1.072787	-0.091010	0.163069
N61	N	0.538813	-0.524513	-0.378658
N62	N	1.038813	-0.024513	0.121342
C63	C	1.068835	-0.883686	-0.344384
C64	C	1.568835	-0.383686	0.155616
C65	C	1.074629	-1.023110	-0.338680
C66	C	1.574629	-0.523110	0.161320
C67	C	1.238804	-0.545192	-0.365712
C68	C	1.738804	-0.045192	0.134288
C69	C	1.316941	-0.539831	-0.369094
C70	C	1.816941	-0.039831	0.130906
C71	C	1.063380	-0.570326	-0.541136
C72	C	1.563380	-0.070326	-0.041136
C73	C	1.066762	-0.575675	-0.619273
C74	C	1.566762	-0.075675	-0.119273
C75	C	1.042020	-0.230590	-0.371237
C76	C	1.542020	0.269410	0.128763
C77	C	1.036300	-0.091163	-0.376974
C78	C	1.536300	0.408837	0.123026
C79	C	1.020104	-0.501053	-0.657336
C80	C	1.520104	-0.001053	-0.157336
C81	C	1.023280	-0.506090	-0.730754
C82	C	1.523280	-0.006090	-0.230754
C83	C	1.073117	-0.585743	-0.766107
C84	C	1.573117	-0.085743	-0.266107
C85	C	1.119777	-0.660373	-0.728039
C86	C	1.619777	-0.160373	-0.228039
C87	C	1.116598	-0.655342	-0.654622
C88	C	1.616598	-0.155342	-0.154622
C89	C	1.087796	-0.609066	-0.985534
C90	C	1.587796	-0.109066	-0.485534
C91	C	1.090973	-0.614088	-1.058956
C92	C	1.590973	-0.114088	-0.558956
C93	C	0.994475	-0.459806	-1.061665
C94	C	1.494475	0.040194	-0.561665
C95	C	0.991302	-0.454777	-0.988248
C96	C	1.491302	0.045223	-0.488248
C97	C	1.037960	-0.529412	-0.950185
C98	C	1.537960	-0.029412	-0.450185
N99	N	1.076365	-0.590890	-0.841152
N100	N	1.576365	-0.090890	-0.341152
N101	N	1.034708	-0.524271	-0.875142
N102	N	1.534708	-0.024271	-0.375142
C103	C	1.047575	-0.545178	-0.175135
C104	C	1.547575	-0.045178	0.324865
C105	C	1.044315	-0.539466	-0.097019
C106	C	1.544315	-0.039466	0.402981
H107	H	0.785411	-0.436452	-0.433885
H108	H	1.285411	0.063548	0.066115
H109	H	0.999052	-1.042764	-0.414122
H110	H	1.499052	-0.542764	0.085878
C111	C	0.971959	-0.423985	-0.772621
C112	C	1.471959	0.076015	-0.272621
N113	N	0.933303	-0.362137	-0.804155
N114	N	1.433303	0.137863	-0.304155
H115	H	1.111875	-1.071516	-0.301525
H116	H	1.611875	-0.571516	0.198475
H117	H	0.979525	-0.436184	-0.628557
H118	H	1.479525	0.063816	-0.128557
H119	H	0.326190	-0.679091	-0.281714
H120	H	0.826190	-0.179091	0.218286
C121	C	0.936476	-0.367155	-0.949364
C122	C	1.436476	0.132845	-0.449364
N123	N	0.895181	-0.301155	-0.920077
N124	N	1.395181	0.198845	-0.420077
H125	H	0.454522	-0.390452	-0.462810
H126	H	0.954522	0.109548	0.037190
H127	H	0.459372	-0.669888	-0.287452
H128	H	0.959372	-0.169888	0.212548
H129	H	0.956488	-0.399043	-1.092664
H130	H	1.456488	0.100957	-0.592664
C131	C	1.145798	-0.701721	-1.097843
C132	C	1.645798	-0.201721	-0.597843
N133	N	1.187090	-0.767723	-1.127132
N134	N	1.687090	-0.267723	-0.627132
H135	H	1.125781	-0.669853	-0.954551
H136	H	1.625781	-0.169853	-0.454551
H137	H	1.154597	-0.716098	-0.623633
H138	H	1.654597	-0.216098	-0.123633
H139	H	0.652228	-0.445640	-0.428137
H140	H	1.152228	0.054360	0.071863
C141	C	0.646970	-0.747813	-0.238527
C142	C	1.146970	-0.247813	0.261473
N143	N	0.617664	-0.813724	-0.197178
N144	N	1.117664	-0.313724	0.302822
C145	C	0.310457	-0.378339	-0.470412
C146	C	0.810457	0.121661	0.029588
N147	N	0.278931	-0.316609	-0.509129
N148	N	0.778931	0.183391	-0.009129
C149	C	0.801144	-0.737178	-0.245175
C150	C	1.301144	-0.237178	0.254825
N151	N	0.832664	-0.798892	-0.206445
N152	N	1.332664	-0.298892	0.293555
H153	H	1.160352	-0.725235	-0.756829
H154	H	1.660352	-0.225235	-0.256829
