data_functionalizedCrystal
_audit_creation_method	'MofGen! by Chris Wilmer'
_symmetry_space_group_name_H-M	'P1'
_symmetry_Int_Tables_number	1
_symmetry_cell_setting	triclinic
loop_
_symmetry_equiv_pos_as_xyz
  x,y,z
_cell_length_a	15.944551
_cell_length_b	19.288865
_cell_length_c	14.421503
_cell_angle_alpha	90.000044
_cell_angle_beta	90.003941
_cell_angle_gamma	83.317493
loop_
_atom_site_label
_atom_site_type_symbol
_atom_site_fract_x
_atom_site_fract_y
_atom_site_fract_z
O1	O	-1.114185	-0.089572	-0.077026
O2	O	-0.864185	0.160428	0.172974
O3	O	-0.614185	0.410428	0.422974
O4	O	-0.364185	0.660428	0.672974
O5	O	-0.869593	-0.100616	-0.077050
O6	O	-0.619593	0.149384	0.172950
O7	O	-0.369593	0.399384	0.422950
O8	O	-0.119593	0.649384	0.672950
O9	O	-0.998957	0.006018	-0.077019
O10	O	-0.748957	0.256018	0.172981
O11	O	-0.498957	0.506018	0.422981
O12	O	-0.248957	0.756018	0.672981
O13	O	-0.984822	-0.196206	-0.077057
O14	O	-0.734822	0.053794	0.172943
O15	O	-0.484822	0.303794	0.422943
O16	O	-0.234822	0.553794	0.672943
O17	O	-0.998933	0.006000	0.077204
O18	O	-0.748933	0.256000	0.327204
O19	O	-0.498933	0.506000	0.577204
O20	O	-0.248933	0.756000	0.827204
O21	O	-0.869570	-0.100634	0.077173
O22	O	-0.619570	0.149366	0.327173
O23	O	-0.369570	0.399366	0.577173
O24	O	-0.119570	0.649366	0.827173
O25	O	-1.114162	-0.089589	0.077198
O26	O	-0.864162	0.160411	0.327198
O27	O	-0.614162	0.410411	0.577198
O28	O	-0.364162	0.660411	0.827198
Cu29	Cu	-0.991863	-0.095113	0.091267
Cu30	Cu	-0.741863	0.154887	0.341267
Cu31	Cu	-0.491863	0.404887	0.591267
Cu32	Cu	-0.241863	0.654887	0.841267
Cu33	Cu	-0.991891	-0.095092	-0.091120
Cu34	Cu	-0.741891	0.154908	0.158880
Cu35	Cu	-0.491891	0.404908	0.408880
Cu36	Cu	-0.241891	0.654908	0.658880
O37	O	-0.984798	-0.196223	0.077166
O38	O	-0.734798	0.053777	0.327166
O39	O	-0.484798	0.303777	0.577166
O40	O	-0.234798	0.553777	0.827166
C41	C	-0.998490	0.031887	0.000095
C42	C	-0.748490	0.281887	0.250095
C43	C	-0.498490	0.531887	0.500095
C44	C	-0.248490	0.781887	0.750095
C45	C	-0.997125	0.108994	0.000103
C46	C	-0.747125	0.358994	0.250103
C47	C	-0.497125	0.608994	0.500103
C48	C	-0.247125	0.858994	0.750103
C49	C	-0.838289	-0.100167	0.000059
C50	C	-0.588289	0.149833	0.250059
C51	C	-0.338289	0.399833	0.500059
C52	C	-0.088289	0.649833	0.750059
C53	C	-0.745048	-0.098792	0.000050
C54	C	-0.495048	0.151208	0.250050
C55	C	-0.245048	0.401208	0.500050
C56	C	0.004952	0.651208	0.750050
C57	C	-1.145466	-0.090039	0.000087
C58	C	-0.895466	0.159961	0.250087
C59	C	-0.645466	0.409961	0.500087
C60	C	-0.395466	0.659961	0.750087
C61	C	-1.238706	-0.091414	0.000089
C62	C	-0.988706	0.158586	0.250089
C63	C	-0.738706	0.408586	0.500089
C64	C	-0.488706	0.658586	0.750089
C65	C	-0.530459	-0.029410	0.000081
C66	C	-0.280459	0.220590	0.250081
C67	C	-0.030459	0.470590	0.500081
C68	C	0.219541	0.720590	0.750081
C69	C	-0.469326	-0.061620	-0.075965
C70	C	-0.219326	0.188380	0.174035
C71	C	0.030674	0.438380	0.424035
C72	C	0.280674	0.688380	0.674035
C73	C	-0.574332	-0.096305	0.000061
C74	C	-0.324332	0.153695	0.250061
C75	C	-0.074332	0.403695	0.500061
C76	C	0.175668	0.653695	0.750061
C77	C	-0.469325	-0.061653	0.076087
C78	C	-0.219325	0.188347	0.326087
C79	C	0.030675	0.438347	0.576087
C80	C	0.280675	0.688347	0.826087
C81	C	-0.409429	-0.093898	0.000077
C82	C	-0.159429	0.156102	0.250077
C83	C	0.090571	0.406102	0.500077
C84	C	0.340571	0.656102	0.750077
C85	C	-0.514428	-0.128534	-0.076048
C86	C	-0.264428	0.121466	0.173952
C87	C	-0.014428	0.371466	0.423952
C88	C	0.235572	0.621466	0.673952
C89	C	-0.514433	-0.128558	0.076073
C90	C	-0.264433	0.121442	0.326073
C91	C	-0.014433	0.371442	0.576073
C92	C	0.235567	0.621442	0.826073
C93	C	-0.453318	-0.160816	0.000008
C94	C	-0.203318	0.089184	0.250008
C95	C	0.046682	0.339184	0.500008
C96	C	0.296682	0.589184	0.750008
C97	C	-0.669329	-0.097690	0.000052
C98	C	-0.419329	0.152310	0.250052
C99	C	-0.169329	0.402310	0.500052
C100	C	0.080671	0.652310	0.750052
C101	C	-0.314433	-0.092519	0.000079
C102	C	-0.064433	0.157481	0.250079
C103	C	0.185567	0.407481	0.500079
C104	C	0.435567	0.657481	0.750079
C105	C	-0.985265	-0.222092	0.000050
C106	C	-0.735265	0.027908	0.250050
C107	C	-0.485265	0.277908	0.500050
C108	C	-0.235265	0.527908	0.750050
C109	C	-0.986630	-0.299199	0.000036
C110	C	-0.736630	-0.049199	0.250036
C111	C	-0.486630	0.200801	0.500036
C112	C	-0.236630	0.450801	0.750036
N113	N	-0.991850	-0.095128	0.219548
N114	N	-0.741850	0.154872	0.469548
N115	N	-0.491850	0.404872	0.719548
N116	N	-0.241850	0.654872	0.969548
C117	C	-1.073030	0.153490	0.000116
C118	C	-0.823030	0.403490	0.250116
C119	C	-0.573030	0.653490	0.500116
C120	C	-0.323030	0.903490	0.750116
C121	C	-1.071747	0.225941	0.000101
C122	C	-0.821747	0.475941	0.250101
C123	C	-0.571747	0.725941	0.500101
C124	C	-0.321747	0.975941	0.750101
C125	C	-0.994555	0.253891	0.000092
C126	C	-0.744555	0.503891	0.250092
C127	C	-0.494555	0.753891	0.500092
C128	C	-0.244555	1.003891	0.750092
C129	C	-0.918641	0.209385	0.000075
C130	C	-0.668641	0.459385	0.250075
C131	C	-0.418641	0.709385	0.500075
C132	C	-0.168641	0.959385	0.750075
C133	C	-0.919925	0.136936	0.000081
C134	C	-0.669925	0.386936	0.250081
C135	C	-0.419925	0.636936	0.500081
C136	C	-0.169925	0.886936	0.750081
C137	C	-0.933865	0.362332	0.054108
C138	C	-0.683865	0.612332	0.304108
C139	C	-0.433865	0.862332	0.554108
C140	C	-0.183865	1.112332	0.804108
C141	C	-0.932584	0.434780	0.054108
C142	C	-0.682584	0.684780	0.304108
C143	C	-0.432584	0.934780	0.554108
C144	C	-0.182584	1.184780	0.804108
C145	C	-0.990589	0.477347	0.000071
C146	C	-0.740589	0.727347	0.250071
C147	C	-0.490589	0.977347	0.500071
C148	C	-0.240589	1.227347	0.750071
C149	C	-1.049891	0.447459	-0.053953
C150	C	-0.799891	0.697459	0.196047
C151	C	-0.549891	0.947459	0.446047
C152	C	-0.299891	1.197459	0.696047
C153	C	-1.051176	0.375011	-0.053948
C154	C	-0.801176	0.625011	0.196052
C155	C	-0.551176	0.875011	0.446052
C156	C	-0.301176	1.125011	0.696052
C157	C	-0.993153	0.332449	0.000086
C158	C	-0.743153	0.582449	0.250086
C159	C	-0.493153	0.832449	0.500086
C160	C	-0.243153	1.082449	0.750086
C161	C	-1.065108	0.600403	0.000066
C162	C	-0.815108	0.850403	0.250066
C163	C	-0.565108	1.100403	0.500066
C164	C	-0.315108	1.350403	0.750066
C165	C	-1.063822	0.672855	0.000046
C166	C	-0.813822	0.922855	0.250046
C167	C	-0.563822	1.172855	0.500046
C168	C	-0.313822	1.422855	0.750046
C169	C	-0.910714	0.656298	0.000029
C170	C	-0.660714	0.906298	0.250029
C171	C	-0.410714	1.156298	0.500029
C172	C	-0.160714	1.406298	0.750029
C173	C	-0.912002	0.583848	0.000040
C174	C	-0.662002	0.833848	0.250040
C175	C	-0.412002	1.083848	0.500040
C176	C	-0.162002	1.333848	0.750040
C177	C	-0.989201	0.555906	0.000063
C178	C	-0.739201	0.805906	0.250063
C179	C	-0.489201	1.055906	0.500063
C180	C	-0.239201	1.305906	0.750063
C181	C	-0.932018	-0.144416	0.469188
C182	C	-0.682018	0.105584	0.719188
C183	C	-0.432018	0.355584	0.969188
C184	C	-0.182018	0.605584	1.219188
C185	C	-1.007865	-0.157902	0.530995
C186	C	-0.757865	0.092098	0.780995
C187	C	-0.507865	0.342098	1.030995
C188	C	-0.257865	0.592098	1.280995
C189	C	-0.991868	-0.095114	0.408710
C190	C	-0.741868	0.154886	0.658710
C191	C	-0.491868	0.404886	0.908710
C192	C	-0.241868	0.654886	1.158710
C193	C	-0.916037	-0.081647	0.530996
C194	C	-0.666037	0.168353	0.780996
C195	C	-0.416037	0.418353	1.030996
C196	C	-0.166037	0.668353	1.280996
C197	C	-0.991878	-0.095102	0.591431
C198	C	-0.741878	0.154898	0.841431
C199	C	-0.491878	0.404898	1.091431
C200	C	-0.241878	0.654898	1.341431
C201	C	-1.067753	-0.108631	0.469156
C202	C	-0.817753	0.141369	0.719156
C203	C	-0.567753	0.391369	0.969156
C204	C	-0.317753	0.641369	1.219156
C205	C	-0.975875	-0.032348	0.469152
C206	C	-0.725875	0.217652	0.719152
C207	C	-0.475875	0.467652	0.969152
C208	C	-0.225875	0.717652	1.219152
C209	C	-1.051777	-0.045807	0.530932
C210	C	-0.801777	0.204193	0.780932
C211	C	-0.551777	0.454193	1.030932
C212	C	-0.301777	0.704193	1.280932
C213	C	-0.991861	-0.095122	0.303449
C214	C	-0.741861	0.154878	0.553449
C215	C	-0.491861	0.404878	0.803449
C216	C	-0.241861	0.654878	1.053449
C217	C	-0.991894	-0.095092	0.696690
C218	C	-0.741894	0.154908	0.946690
C219	C	-0.491894	0.404908	1.196690
C220	C	-0.241894	0.654908	1.446690
N221	N	-0.991897	-0.095085	0.780599
N222	N	-0.741897	0.154915	1.030599
N223	N	-0.491897	0.404915	1.280599
N224	N	-0.241897	0.654915	1.530599
H225	H	-0.564006	0.026108	-0.000002
H226	H	-0.314006	0.276108	0.249998
H227	H	-0.064006	0.526108	0.499998
H228	H	0.185994	0.776108	0.749998
H229	H	-0.858113	0.100707	0.000071
H230	H	-0.608113	0.350707	0.250071
H231	H	-0.358113	0.600707	0.500071
H232	H	-0.108113	0.850707	0.750071
H233	H	-0.881458	-0.186143	0.442078
H234	H	-0.631458	0.063857	0.692078
H235	H	-0.381458	0.313857	0.942078
H236	H	-0.131458	0.563857	1.192078
H237	H	-1.133560	0.262176	0.000107
H238	H	-0.883560	0.512176	0.250107
H239	H	-0.633560	0.762176	0.500107
H240	H	-0.383560	1.012176	0.750107
H241	H	-0.886628	0.327679	0.098115
H242	H	-0.636628	0.577679	0.348115
H243	H	-0.386628	0.827679	0.598115
H244	H	-0.136628	1.077679	0.848115
H245	H	-0.449338	-0.033354	0.140376
H246	H	-0.199338	0.216646	0.390376
H247	H	0.050662	0.466646	0.640376
H248	H	0.300662	0.716646	0.890376
H249	H	-0.850192	0.547618	0.000036
H250	H	-0.600192	0.797618	0.250036
H251	H	-0.350192	1.047618	0.500036
H252	H	-0.100192	1.297618	0.750036
H253	H	-0.855790	0.232147	0.000066
H254	H	-0.605790	0.482147	0.250066
H255	H	-0.355790	0.732147	0.500066
H256	H	-0.105790	0.982147	0.750066
H257	H	-0.962314	0.020710	0.441967
H258	H	-0.712314	0.270710	0.691967
H259	H	-0.462314	0.520710	0.941967
H260	H	-0.212314	0.770710	1.191967
H261	H	-1.135891	0.130744	0.000131
H262	H	-0.885891	0.380744	0.250131
H263	H	-0.635891	0.630744	0.500131
H264	H	-0.385891	0.880744	0.750131
H265	H	-0.534446	-0.156836	0.140357
H266	H	-0.284446	0.093164	0.390357
H267	H	-0.034446	0.343164	0.640357
H268	H	0.215554	0.593164	0.890357
H269	H	-0.449335	-0.033318	-0.140247
H270	H	-0.199335	0.216682	0.109753
H271	H	0.050665	0.466682	0.359753
H272	H	0.300665	0.716682	0.609753
H273	H	-1.021403	-0.210977	0.558159
H274	H	-0.771403	0.039023	0.808159
H275	H	-0.521403	0.289023	1.058159
H276	H	-0.271403	0.539023	1.308159
H277	H	-1.099459	0.350679	-0.097938
H278	H	-0.849459	0.600679	0.152062
H279	H	-0.599459	0.850679	0.402062
H280	H	-0.349459	1.100679	0.652062
H281	H	-0.847863	0.679055	0.000018
H282	H	-0.597863	0.929055	0.250018
H283	H	-0.347863	1.179055	0.500018
H284	H	-0.097863	1.429055	0.750018
H285	H	-1.131900	-0.120079	0.442107
H286	H	-0.881900	0.129921	0.692107
H287	H	-0.631900	0.379921	0.942107
H288	H	-0.381900	0.629921	1.192107
H289	H	-1.097124	0.482117	-0.097956
H290	H	-0.847124	0.732117	0.152044
H291	H	-0.597124	0.982117	0.402044
H292	H	-0.347124	1.232117	0.652044
H293	H	-0.884293	0.459109	0.098092
H294	H	-0.634293	0.709109	0.348092
H295	H	-0.384293	0.959109	0.598092
H296	H	-0.134293	1.209109	0.848092
H297	H	-1.127969	0.577652	0.000080
H298	H	-0.877969	0.827652	0.250080
H299	H	-0.627969	1.077652	0.500080
H300	H	-0.377969	1.327652	0.750080
H301	H	-1.102450	-0.004106	0.557872
H302	H	-0.852450	0.245894	0.807872
H303	H	-0.602450	0.495894	1.057872
H304	H	-0.352450	0.745894	1.307872
H305	H	-1.125636	0.709084	0.000050
H306	H	-0.875636	0.959084	0.250050
H307	H	-0.625636	1.209084	0.500050
H308	H	-0.375636	1.459084	0.750050
H309	H	-0.851905	-0.070262	0.558163
H310	H	-0.601905	0.179738	0.808163
H311	H	-0.351905	0.429738	1.058163
H312	H	-0.101905	0.679738	1.308163
H313	H	-0.534316	-0.156799	-0.140409
H314	H	-0.284316	0.093201	0.109591
H315	H	-0.034316	0.343201	0.359591
H316	H	0.215684	0.593201	0.609591
H317	H	-0.419945	-0.216391	-0.000045
H318	H	-0.169945	0.033609	0.249955
H319	H	0.080055	0.283609	0.499955
H320	H	0.330055	0.533609	0.749955
