data_functionalizedCrystal
_audit_creation_method	'MofGen! by Chris Wilmer'
_symmetry_space_group_name_H-M	'P1'
_symmetry_Int_Tables_number	1
_symmetry_cell_setting	triclinic
loop_
_symmetry_equiv_pos_as_xyz
  x,y,z
_cell_length_a	14.044220
_cell_length_b	14.044220
_cell_length_c	12.503572
_cell_angle_alpha	93.835250
_cell_angle_beta	93.843168
_cell_angle_gamma	86.811122
loop_
_atom_site_label
_atom_site_type_symbol
_atom_site_fract_x
_atom_site_fract_y
_atom_site_fract_z
O1	O	0.225116	-1.282200	-0.089210
O2	O	0.725116	-0.782200	0.410790
O3	O	0.216809	-1.005530	-0.089237
O4	O	0.716809	-0.505530	0.410763
O5	O	0.082627	-1.139712	-0.089213
O6	O	0.582627	-0.639712	0.410787
O7	O	0.359298	-1.148019	-0.089234
O8	O	0.859298	-0.648019	0.410766
O9	O	0.092737	-1.129622	0.089427
O10	O	0.592737	-0.629622	0.589427
O11	O	0.226918	-0.995440	0.089403
O12	O	0.726918	-0.495440	0.589403
O13	O	0.235226	-1.272110	0.089430
O14	O	0.735226	-0.772110	0.589430
Cu15	Cu	0.231995	-1.132854	0.105728
Cu16	Cu	0.731995	-0.632854	0.605728
Cu17	Cu	0.220040	-1.144786	-0.105535
Cu18	Cu	0.720040	-0.644786	0.394465
O19	O	0.369407	-1.137929	0.089406
O20	O	0.869407	-0.637929	0.589406
C21	C	0.052060	-1.131031	0.000107
C22	C	0.552060	-0.631031	0.500107
C23	C	-0.054082	-1.120187	0.000107
C24	C	0.445918	-0.620187	0.500107
C25	C	0.218228	-0.964864	0.000080
C26	C	0.718228	-0.464864	0.500080
C27	C	0.207383	-0.858721	0.000070
C28	C	0.707383	-0.358721	0.500070
C29	C	-0.248421	-1.100361	0.000090
C30	C	0.251579	-0.600361	0.500090
C31	C	-0.299551	-1.177275	0.000094
C32	C	0.200449	-0.677275	0.500094
C33	C	-0.407687	-1.166244	0.000084
C34	C	0.092313	-0.666244	0.500084
C35	C	-0.140274	-1.111391	0.000099
C36	C	0.359726	-0.611391	0.500099
C37	C	0.233807	-1.312777	0.000111
C38	C	0.733807	-0.812777	0.500111
C39	C	0.244651	-1.418920	0.000114
C40	C	0.744651	-0.918920	0.500114
C41	C	0.399974	-1.146609	0.000084
C42	C	0.899974	-0.646609	0.500084
C43	C	0.506117	-1.157454	0.000077
C44	C	1.006117	-0.657454	0.500077
N45	N	0.240404	-1.124469	0.254319
N46	N	0.740404	-0.624469	0.754319
C47	C	0.187558	-0.664382	0.000092
C48	C	0.687558	-0.164382	0.500092
C49	C	0.264472	-0.613253	0.000091
C50	C	0.764472	-0.113253	0.500091
C51	C	0.253441	-0.505116	0.000104
C52	C	0.753441	-0.005116	0.500104
C53	C	0.198587	-0.772529	0.000080
C54	C	0.698587	-0.272529	0.500080
N55	N	0.211624	-1.153179	-0.254126
N56	N	0.711624	-0.653179	0.245874
C57	C	0.252782	-1.112134	0.473432
C58	C	0.752782	-0.612134	0.973432
C59	C	0.199249	-1.165511	0.526768
C60	C	0.699249	-0.665511	1.026768
C61	C	0.206136	-1.158648	0.648690
C62	C	0.706136	-0.658648	1.148690
C63	C	0.245896	-1.118996	0.351499
C64	C	0.745896	-0.618996	0.851499
H65	H	-0.262115	-1.251413	0.000029
H66	H	0.237885	-0.751413	0.500029
H67	H	0.338605	-0.650692	0.000081
H68	H	0.838605	-0.150692	0.500081
H69	H	-0.285859	-1.026234	0.000080
H70	H	0.214141	-0.526234	0.500080
C71	C	0.087413	-0.613806	0.000097
C72	C	0.587413	-0.113806	0.500097
N73	N	0.011985	-0.575700	0.000096
N74	N	0.511985	-0.075700	0.500096
C75	C	0.130355	-1.234222	0.464757
C76	C	0.630355	-0.734222	0.964757
N77	N	0.078473	-1.285979	0.418045
N78	N	0.578473	-0.785979	0.918045
C79	C	0.321680	-1.043437	0.535443
C80	C	0.821680	-0.543437	1.035443
N81	N	0.373575	-0.991696	0.582162
N82	N	0.873575	-0.491696	1.082162
