data_functionalizedCrystal
_audit_creation_method	'MofGen! by Chris Wilmer'
_symmetry_space_group_name_H-M	'P1'
_symmetry_Int_Tables_number	1
_symmetry_cell_setting	triclinic
loop_
_symmetry_equiv_pos_as_xyz
  x,y,z
_cell_length_a	19.188930
_cell_length_b	19.288864
_cell_length_c	17.766277
_cell_angle_alpha	90.023209
_cell_angle_beta	89.988508
_cell_angle_gamma	96.859488
loop_
_atom_site_label
_atom_site_type_symbol
_atom_site_fract_x
_atom_site_fract_y
_atom_site_fract_z
O1	O	0.087099	-0.921360	-0.062844
O2	O	0.098849	-0.719100	-0.062794
O3	O	-0.008682	-0.826066	-0.062806
O4	O	0.194630	-0.814393	-0.062832
O5	O	-0.008688	-0.826048	0.062383
O6	O	0.098843	-0.719081	0.062395
O7	O	0.087094	-0.921341	0.062345
Cu8	Cu	0.092968	-0.820209	0.073800
Cu9	Cu	0.092974	-0.820231	-0.074250
O10	O	0.194625	-0.814374	0.062356
C11	C	0.098468	-0.693214	-0.000193
C12	C	0.097333	-0.616110	-0.000173
C13	C	0.087475	-0.947227	-0.000258
C14	C	0.088609	-1.024330	-0.000283
C15	C	-0.034696	-0.825679	-0.000209
C16	C	-0.112200	-0.824544	-0.000202
C17	C	-0.157129	-0.887309	-0.000214
C18	C	-0.229953	-0.886243	-0.000226
C19	C	-0.257844	-0.822408	-0.000211
C20	C	-0.212906	-0.759636	-0.000203
C21	C	-0.140084	-0.760704	-0.000199
N22	N	-0.365848	-0.773608	0.042405
N23	N	-0.435026	-0.772598	0.042403
C24	C	-0.477253	-0.819187	-0.000225
N25	N	-0.447689	-0.866835	-0.042841
N26	N	-0.378504	-0.867847	-0.042836
C27	C	-0.336807	-0.821243	-0.000216
C28	C	-0.601146	-0.880800	-0.000251
C29	C	-0.673971	-0.879731	-0.000268
C30	C	-0.656922	-0.753122	-0.000237
C31	C	-0.584099	-0.754193	-0.000228
C32	C	-0.556216	-0.818034	-0.000231
C33	C	0.220638	-0.814762	-0.000242
C34	C	0.298143	-0.815896	-0.000253
N35	N	0.092963	-0.820199	0.177931
C36	C	0.160427	-0.571419	-0.000193
C37	C	0.159361	-0.498972	-0.000201
C38	C	0.095197	-0.471219	-0.000204
C39	C	0.032095	-0.515921	-0.000180
C40	C	0.033163	-0.588366	-0.000164
C41	C	0.044759	-0.362960	-0.044082
C42	C	0.043694	-0.290515	-0.044103
C43	C	0.091900	-0.247773	-0.000249
C44	C	0.141184	-0.277483	0.043614
C45	C	0.142252	-0.349929	0.043630
C46	C	0.094032	-0.392665	-0.000221
C47	C	0.153843	-0.124526	-0.000277
C48	C	0.152774	-0.052078	-0.000281
C49	C	0.025506	-0.069028	-0.000267
C50	C	0.026576	-0.141475	-0.000256
C51	C	0.090747	-0.169219	-0.000265
N52	N	0.092974	-0.820247	-0.178380
C53	C	0.045372	-0.867579	0.217312
C54	C	0.045368	-0.867583	0.296114
C55	C	0.092969	-0.820213	0.335531
C56	C	0.140564	-0.772824	0.296140
C57	C	0.140561	-0.772817	0.217340
C58	C	0.156585	-0.810919	0.460362
C59	C	0.156589	-0.810931	0.539161
C60	C	0.092977	-0.820232	0.578578
C61	C	0.029359	-0.829535	0.539185
C62	C	0.029356	-0.829528	0.460385
C63	C	0.092977	-0.820216	0.420977
C64	C	0.045378	-0.867619	0.703405
C65	C	0.045374	-0.867618	0.782208
C66	C	0.140575	-0.772863	0.782233
C67	C	0.140573	-0.772861	0.703431
C68	C	0.092976	-0.820242	0.664022
H69	H	-0.134431	-0.939293	-0.000220
Cl70	Cl	-0.046163	-0.644553	-0.000140
H71	H	0.208391	-0.803361	0.571228
H72	H	-0.235620	-0.707661	-0.000192
H73	H	0.006612	-0.906167	0.328185
Cl74	Cl	-0.018256	-0.253172	-0.099253
H75	H	0.005502	-0.397756	-0.079797
H76	H	-0.103502	-0.709591	-0.000189
Cl77	Cl	-0.055159	-0.034147	-0.000263
Cl78	Cl	-0.286445	-0.965153	-0.000242
Cl79	Cl	-0.730454	-0.958643	-0.000288
H80	H	-0.024802	-0.177864	-0.000244
H81	H	-0.578442	-0.932783	-0.000257
Cl82	Cl	-0.691979	-0.672873	-0.000222
Cl83	Cl	-0.527614	-0.675284	-0.000209
H84	H	0.212680	-0.594003	-0.000201
H85	H	0.006613	-0.906158	0.185228
Cl86	Cl	0.238686	-0.442777	-0.000225
Cl87	Cl	0.200409	-0.713298	0.653918
Cl88	Cl	-0.048569	-0.481033	-0.000180
H89	H	0.182379	-0.374116	0.079348
Cl90	Cl	-0.050618	-0.841214	0.410866
Cl91	Cl	0.201792	-0.223758	0.098748
Cl92	Cl	0.236565	-0.799291	0.410819
H93	H	0.206094	-0.147116	-0.000273
Cl94	Cl	-0.050617	-0.841233	0.588728
H95	H	0.204155	-0.015690	-0.000293
H96	H	0.179319	-0.734254	0.328238
H97	H	0.179316	-0.734234	0.185275
Cl98	Cl	-0.014462	-0.927180	0.653861
Cl99	Cl	-0.014464	-0.927182	0.831720
H100	H	0.179330	-0.734291	0.814326
