data_functionalizedCrystal
_audit_creation_method	'MofGen! by Chris Wilmer'
_symmetry_space_group_name_H-M	'P1'
_symmetry_Int_Tables_number	1
_symmetry_cell_setting	triclinic
loop_
_symmetry_equiv_pos_as_xyz
  x,y,z
_cell_length_a	19.805407
_cell_length_b	18.050590
_cell_length_c	19.805399
_cell_angle_alpha	89.972574
_cell_angle_beta	89.980427
_cell_angle_gamma	90.018553
loop_
_atom_site_label
_atom_site_type_symbol
_atom_site_fract_x
_atom_site_fract_y
_atom_site_fract_z
Zn1	Zn	1.034773	-0.295677	-0.382720
Zn2	Zn	1.034703	-0.419869	-0.269532
Zn3	Zn	0.921587	-0.295697	-0.269545
Zn4	Zn	0.921566	-0.419829	-0.382679
O5	O	0.978157	-0.357768	-0.326119
O6	O	1.129480	-0.312159	-0.367718
O7	O	1.019678	-0.403422	-0.174817
O8	O	0.936639	-0.191770	-0.284580
O9	O	1.129429	-0.403402	-0.284559
O10	O	1.019796	-0.191755	-0.367730
O11	O	0.936572	-0.312194	-0.174827
O12	O	0.826868	-0.312156	-0.284540
O13	O	0.936604	-0.403335	-0.477401
O14	O	0.826853	-0.403355	-0.367660
O15	O	1.019776	-0.312121	-0.477432
O16	O	1.019657	-0.523788	-0.284519
O17	O	0.936536	-0.523759	-0.367648
C18	C	0.802301	-0.357754	-0.326097
C19	C	0.727069	-0.357766	-0.326104
C20	C	0.978105	-0.550720	-0.326092
C21	C	0.978145	-0.633266	-0.326103
C22	C	0.691735	-0.405325	-0.369314
C23	C	0.621046	-0.405326	-0.369324
C24	C	0.585694	-0.357771	-0.326119
C25	C	0.621033	-0.310207	-0.282907
C26	C	0.691720	-0.310203	-0.282902
C27	C	0.335960	-0.310224	-0.282930
C28	C	0.265268	-0.310233	-0.282937
C29	C	0.265286	-0.405347	-0.369352
C30	C	0.335973	-0.405342	-0.369346
C31	C	0.371306	-0.357776	-0.326137
C32	C	0.447955	-0.357774	-0.326128
C33	C	0.509047	-0.357776	-0.326124
C34	C	1.023440	-0.832705	-0.280961
C35	C	1.039973	-0.882039	-0.342736
C36	C	0.978183	-0.784396	-0.326130
C37	C	0.961720	-0.882144	-0.264383
C38	C	0.978222	-0.930381	-0.326151
C39	C	0.994748	-0.832643	-0.387938
C40	C	0.916466	-0.832743	-0.309543
C41	C	0.932975	-0.882055	-0.371361
C42	C	0.978163	-0.700298	-0.326118
C43	C	0.978242	-1.014478	-0.326171
C44	C	1.154700	-0.357783	-0.326142
C45	C	1.229932	-0.357789	-0.326151
C46	C	0.978195	-0.357721	-0.502662
C47	C	0.978211	-0.357701	-0.577894
C48	C	0.978228	-0.164062	-0.326161
C49	C	0.978258	-0.081517	-0.326179
C50	C	1.021520	-0.310204	-0.613255
C51	C	1.021527	-0.310182	-0.683944
C52	C	0.978228	-0.357662	-0.719270
C53	C	0.934915	-0.405162	-0.683904
C54	C	0.934905	-0.405180	-0.613217
C55	C	0.934953	-0.405093	-0.968977
C56	C	0.934968	-0.405074	-1.039669
C57	C	1.021575	-0.310096	-1.039704
C58	C	1.021565	-0.310113	-0.969017
C59	C	0.978250	-0.357609	-0.933657
C60	C	0.978242	-0.357631	-0.857009
C61	C	0.978239	-0.357645	-0.795917
C62	C	0.978158	-0.357761	-0.150263
C63	C	0.978273	-0.357572	-0.075032
H64	H	0.592280	-0.444054	-0.404509
C65	C	0.328889	-0.499356	-0.454773
C66	C	0.374832	-0.457613	-0.416840
H67	H	0.352880	-0.531620	-0.484098
H68	H	0.301302	-0.527724	-0.425241
H69	H	0.301335	-0.467029	-0.480715
H70	H	0.402383	-0.489939	-0.390894
H71	H	0.402430	-0.429242	-0.446376
H72	H	0.899693	-0.443779	-0.940196
H73	H	1.056795	-0.271506	-0.712731
C74	C	0.272346	-0.216195	-0.197524
C75	C	0.226406	-0.257951	-0.235448
H76	H	0.248353	-0.183919	-0.168212
H77	H	0.299897	-0.248507	-0.171575
H78	H	0.299937	-0.187832	-0.227068
H79	H	0.198819	-0.286319	-0.205905
H80	H	0.198844	-0.225636	-0.261400
C81	C	1.105897	-0.953886	-0.420583
C82	C	1.110454	-0.911260	-0.361708
H83	H	1.149412	-0.971913	-0.432296
H84	H	1.076308	-0.994480	-0.413053
H85	H	1.088891	-0.924166	-0.456330
H86	H	1.127456	-0.940981	-0.325960
H87	H	1.140054	-0.870660	-0.369235
H88	H	1.056843	-0.271419	-1.068503
C89	C	1.013495	-0.725852	-0.457804
C90	C	1.013657	-0.803421	-0.458463
H91	H	1.025175	-0.707813	-0.501341
H92	H	0.969780	-0.708569	-0.445947
H93	H	1.045429	-0.708569	-0.425683
H94	H	0.981719	-0.820705	-0.490580
H95	H	1.057378	-0.820712	-0.470328
H96	H	0.947779	-0.903887	-0.212156
C97	C	1.107172	-0.216219	-0.976153
C98	C	1.069158	-0.257918	-0.930187
H99	H	1.136549	-0.183991	-0.952181
H100	H	1.133056	-0.248569	-1.003719
H101	H	1.077688	-0.187806	-1.003727
H102	H	1.098642	-0.286336	-0.902616
H103	H	1.043272	-0.225564	-0.902610
H104	H	0.894719	-0.903587	-0.409612
C105	C	0.628121	-0.216184	-0.197490
C106	C	0.582176	-0.257932	-0.235416
H107	H	0.604131	-0.183909	-0.168173
H108	H	0.655672	-0.248501	-0.171546
H109	H	0.655711	-0.187819	-0.227032
H110	H	0.554589	-0.286301	-0.205874
H111	H	0.554613	-0.225611	-0.261362
H112	H	0.364720	-0.271497	-0.247741
C113	C	0.849339	-0.498953	-1.032539
C114	C	0.887364	-0.457262	-1.078502
H115	H	0.819951	-0.531166	-1.056514
H116	H	0.878809	-0.527373	-1.004968
H117	H	0.823460	-0.466590	-1.004970
H118	H	0.913248	-0.489625	-1.106067
H119	H	0.857891	-0.428840	-1.106084
C120	C	0.771185	-0.299752	-0.191871
C121	C	0.730567	-0.257928	-0.235403
H122	H	0.795169	-0.267476	-0.162552
H123	H	0.743590	-0.332064	-0.165930
H124	H	0.802350	-0.328070	-0.217611
H125	H	0.699398	-0.229613	-0.209663
H126	H	0.758163	-0.225603	-0.261347
C127	C	0.896475	-0.447313	-0.792245
C128	C	0.887319	-0.457354	-0.722733
H129	H	0.867094	-0.479540	-0.816214
H130	H	0.886589	-0.397418	-0.803837
H131	H	0.941952	-0.458186	-0.803828
H132	H	0.841843	-0.446477	-0.711149
H133	H	0.897201	-0.507262	-0.711137
H134	H	0.864271	-0.811072	-0.295482
C135	C	1.107126	-0.216311	-0.620397
C136	C	1.069115	-0.258009	-0.574428
H137	H	1.136506	-0.184084	-0.596427
H138	H	1.133009	-0.248663	-0.647963
H139	H	1.077642	-0.187899	-0.647970
H140	H	1.098600	-0.286426	-0.546858
H141	H	1.043231	-0.225653	-0.546850
C142	C	0.849313	-0.499083	-0.620278
C143	C	0.887310	-0.457403	-0.574345
H144	H	0.819934	-0.531328	-0.596279
H145	H	0.823432	-0.466721	-0.647845
H146	H	0.878807	-0.527476	-0.647853
H147	H	0.857816	-0.429006	-0.546773
H148	H	0.913194	-0.489770	-0.546766
C149	C	1.139738	-0.828328	-0.246998
C150	C	1.075119	-0.803444	-0.229449
H151	H	1.171642	-0.810258	-0.215201
H152	H	1.140389	-0.880943	-0.246934
H153	H	1.151010	-0.810648	-0.290759
H154	H	1.063845	-0.821128	-0.185691
H155	H	1.074467	-0.750818	-0.229506
H156	H	0.720514	-0.444052	-0.404494
H157	H	0.236509	-0.444075	-0.404537
