data_functionalizedCrystal
_audit_creation_method	'MofGen! by Chris Wilmer'
_symmetry_space_group_name_H-M	'P1'
_symmetry_Int_Tables_number	1
_symmetry_cell_setting	triclinic
loop_
_symmetry_equiv_pos_as_xyz
  x,y,z
_cell_length_a	16.120530
_cell_length_b	18.101395
_cell_length_c	16.120256
_cell_angle_alpha	92.874436
_cell_angle_beta	90.128265
_cell_angle_gamma	87.126665
loop_
_atom_site_label
_atom_site_type_symbol
_atom_site_fract_x
_atom_site_fract_y
_atom_site_fract_z
Zn1	Zn	1.247384	-0.375205	-0.534567
Zn2	Zn	1.497384	-0.125205	-0.284567
Zn3	Zn	1.747384	0.124795	-0.034567
Zn4	Zn	1.997384	0.374795	0.215433
Zn5	Zn	1.254317	-0.493093	-0.395509
Zn6	Zn	1.504317	-0.243093	-0.145509
Zn7	Zn	1.754317	0.006907	0.104491
Zn8	Zn	2.004317	0.256907	0.354491
Zn9	Zn	1.115376	-0.362686	-0.388485
Zn10	Zn	1.365376	-0.112686	-0.138485
Zn11	Zn	1.615376	0.137314	0.111515
Zn12	Zn	1.865376	0.387314	0.361515
Zn13	Zn	1.108274	-0.492415	-0.527479
Zn14	Zn	1.358274	-0.242415	-0.277479
Zn15	Zn	1.608274	0.007585	-0.027479
Zn16	Zn	1.858274	0.257585	0.222521
O17	O	1.181338	-0.430850	-0.461510
O18	O	1.431338	-0.180850	-0.211510
O19	O	1.681338	0.069150	0.038490
O20	O	1.931338	0.319150	0.288490
O21	O	1.364669	-0.396365	-0.522027
O22	O	1.614669	-0.146365	-0.272027
O23	O	1.864669	0.103635	-0.022027
O24	O	2.114669	0.353635	0.227973
O25	O	1.241760	-0.470839	-0.278212
O26	O	1.491760	-0.220839	-0.028212
O27	O	1.741760	0.029161	0.221788
O28	O	1.991760	0.279161	0.471788
O29	O	1.132958	-0.260718	-0.407890
O30	O	1.382958	-0.010718	-0.157890
O31	O	1.632958	0.239282	0.092110
O32	O	1.882958	0.489282	0.342110
O33	O	1.369763	-0.482978	-0.419862
O34	O	1.619763	-0.232978	-0.169862
O35	O	1.869763	0.017022	0.080138
O36	O	2.119763	0.267022	0.330138
O37	O	1.229944	-0.269915	-0.515216
O38	O	1.479944	-0.019915	-0.265216
O39	O	1.729944	0.230085	-0.015216
O40	O	1.979944	0.480085	0.234784
O41	O	1.139681	-0.375030	-0.273051
O42	O	1.389681	-0.125030	-0.023051
O43	O	1.639681	0.124970	0.226949
O44	O	1.889681	0.374970	0.476949
O45	O	0.998069	-0.374372	-0.401017
O46	O	1.248069	-0.124372	-0.151017
O47	O	1.498069	0.125628	0.098983
O48	O	1.748069	0.375628	0.348983
O49	O	1.120853	-0.481821	-0.644785
O50	O	1.370853	-0.231821	-0.394785
O51	O	1.620853	0.018179	-0.144785
O52	O	1.870853	0.268179	0.105215
O53	O	0.992850	-0.469683	-0.503135
O54	O	1.242850	-0.219683	-0.253135
O55	O	1.492850	0.030317	-0.003135
O56	O	1.742850	0.280317	0.246865
O57	O	1.223057	-0.395708	-0.649993
O58	O	1.473057	-0.145708	-0.399993
O59	O	1.723057	0.104292	-0.149993
O60	O	1.973057	0.354292	0.100007
O61	O	1.234873	-0.596632	-0.412989
O62	O	1.484873	-0.346632	-0.162989
O63	O	1.734873	-0.096632	0.087011
O64	O	1.984873	0.153368	0.337011
O65	O	1.127576	-0.596133	-0.509947
O66	O	1.377576	-0.346133	-0.259947
O67	O	1.627576	-0.096133	-0.009947
O68	O	1.877576	0.153867	0.240053
C69	C	0.965287	-0.420596	-0.450545
C70	C	1.215287	-0.170596	-0.200545
C71	C	1.465287	0.079404	0.049455
C72	C	1.715287	0.329404	0.299455
C73	C	0.872859	-0.416229	-0.445874
C74	C	1.122859	-0.166229	-0.195874
C75	C	1.372859	0.083771	0.054126
C76	C	1.622859	0.333771	0.304126
C77	C	0.703630	-0.408237	-0.437352
C78	C	0.953630	-0.158237	-0.187352
C79	C	1.203630	0.091763	0.062648
C80	C	1.453630	0.341763	0.312648
C81	C	0.659882	-0.453519	-0.485729
C82	C	0.909882	-0.203519	-0.235729
C83	C	1.159882	0.046481	0.014271
C84	C	1.409882	0.296481	0.264271
C85	C	0.565718	-0.449073	-0.480988
C86	C	0.815718	-0.199073	-0.230988
C87	C	1.065718	0.050927	0.019012
C88	C	1.315718	0.300927	0.269012
C89	C	0.797803	-0.412683	-0.442092
C90	C	1.047803	-0.162683	-0.192092
C91	C	1.297803	0.087317	0.057908
C92	C	1.547803	0.337317	0.307908
C93	C	1.181228	-0.623254	-0.461480
C94	C	1.431228	-0.373254	-0.211480
C95	C	1.681228	-0.123254	0.038520
C96	C	1.931228	0.126746	0.288520
C97	C	1.181255	-0.705570	-0.461499
C98	C	1.431255	-0.455570	-0.211499
C99	C	1.681255	-0.205570	0.038501
C100	C	1.931255	0.044430	0.288501
C101	C	1.181435	-1.004672	-0.461553
C102	C	1.431435	-0.754672	-0.211553
C103	C	1.681435	-0.504672	0.038447
C104	C	1.931435	-0.254672	0.288447
C105	C	1.114068	-0.973078	-0.522723
C106	C	1.364068	-0.723078	-0.272723
C107	C	1.614068	-0.473078	-0.022723
C108	C	1.864068	-0.223078	0.227277
C109	C	1.113773	-0.887437	-0.522506
C110	C	1.363773	-0.637437	-0.272506
C111	C	1.613773	-0.387437	-0.022506
C112	C	1.863773	-0.137437	0.227494
C113	C	1.181346	-0.856284	-0.461527
C114	C	1.431346	-0.606284	-0.211527
C115	C	1.681346	-0.356284	0.038473
C116	C	1.931346	-0.106284	0.288473
C117	C	1.162064	-0.882558	-0.372687
C118	C	1.412064	-0.632558	-0.122687
C119	C	1.662064	-0.382558	0.127313
C120	C	1.912064	-0.132558	0.377313
C121	C	1.161631	-0.968200	-0.373052
C122	C	1.411631	-0.718200	-0.123052
C123	C	1.661631	-0.468200	0.126948
C124	C	1.911631	-0.218200	0.376948
C125	C	1.268265	-0.978145	-0.488458
C126	C	1.518265	-0.728145	-0.238458
C127	C	1.768265	-0.478145	0.011542
C128	C	2.018265	-0.228145	0.261542
C129	C	1.267650	-0.892552	-0.490354
C130	C	1.517650	-0.642552	-0.240354
C131	C	1.767650	-0.392552	0.009646
C132	C	2.017650	-0.142552	0.259646
C133	C	1.181297	-0.772421	-0.461507
C134	C	1.431297	-0.522421	-0.211507
C135	C	1.681297	-0.272421	0.038493
C136	C	1.931297	-0.022421	0.288493
C137	C	1.181483	-1.088534	-0.461567
C138	C	1.431483	-0.838534	-0.211567
C139	C	1.681483	-0.588534	0.038433
C140	C	1.931483	-0.338534	0.288433
C141	C	1.398232	-0.441144	-0.472519
C142	C	1.648232	-0.191144	-0.222519
C143	C	1.898232	0.058856	0.027481
C144	C	2.148232	0.308856	0.277481
C145	C	1.490659	-0.445530	-0.477210
C146	C	1.740659	-0.195530	-0.227210
C147	C	1.990659	0.054470	0.022790
C148	C	2.240659	0.304470	0.272790
C149	C	1.170389	-0.440085	-0.678405
C150	C	1.420389	-0.190085	-0.428405
C151	C	1.670389	0.059915	-0.178405
C152	C	1.920389	0.309915	0.071595
C153	C	1.165723	-0.444021	-0.770833
C154	C	1.415723	-0.194021	-0.520833
C155	C	1.665723	0.055979	-0.270833
C156	C	1.915723	0.305979	-0.020833
C157	C	1.181470	-0.237696	-0.461560
C158	C	1.431470	0.012304	-0.211560
C159	C	1.681470	0.262304	0.038440
C160	C	1.931470	0.512304	0.288440
C161	C	1.181526	-0.155385	-0.461581
C162	C	1.431526	0.094615	-0.211581
C163	C	1.681526	0.344615	0.038419
C164	C	1.931526	0.594615	0.288419
C165	C	1.205667	-0.410307	-0.983817
C166	C	1.455667	-0.160307	-0.733817
C167	C	1.705667	0.089693	-0.483817
C168	C	1.955667	0.339693	-0.233817
C169	C	1.157177	-0.451174	-0.940053
C170	C	1.407177	-0.201174	-0.690053
C171	C	1.657177	0.048826	-0.440053
C172	C	1.907177	0.298826	-0.190053
C173	C	1.161934	-0.447193	-0.845890
C174	C	1.411934	-0.197193	-0.595890
C175	C	1.661934	0.052807	-0.345890
C176	C	1.911934	0.302807	-0.095890
C177	C	1.200912	-0.414287	-1.077988
C178	C	1.450912	-0.164287	-0.827988
C179	C	1.700912	0.085713	-0.577988
C180	C	1.950912	0.335713	-0.327988
C181	C	1.192292	-0.421599	-0.245461
C182	C	1.442292	-0.171599	0.004539
C183	C	1.692292	0.078401	0.254539
C184	C	1.942292	0.328401	0.504539
C185	C	1.197118	-0.417462	-0.153042
C186	C	1.447118	-0.167462	0.096958
C187	C	1.697118	0.082538	0.346958
C188	C	1.947118	0.332538	0.596958
H189	H	1.125322	-0.869858	-0.588241
H190	H	1.375322	-0.619858	-0.338241
H191	H	1.625322	-0.369858	-0.088241
H192	H	1.875322	-0.119858	0.161759
H193	H	0.693148	-0.495625	-0.530708
H194	H	0.943148	-0.245625	-0.280708
H195	H	1.193148	0.004375	-0.030708
H196	H	1.443148	0.254375	0.219292
N197	N	1.129143	-1.004916	-0.610067
N198	N	1.379143	-0.754916	-0.360067
N199	N	1.629143	-0.504916	-0.110067
N200	N	1.879143	-0.254916	0.139933
H201	H	1.179788	-1.040131	-0.610836
H202	H	1.429788	-0.790131	-0.360836
H203	H	1.679788	-0.540131	-0.110836
H204	H	1.929788	-0.290131	0.139164
H205	H	1.079193	-1.032442	-0.629694
H206	H	1.329193	-0.782442	-0.379694
H207	H	1.579193	-0.532442	-0.129694
H208	H	1.829193	-0.282442	0.120306
N209	N	0.659572	-0.352475	-0.377766
N210	N	0.909572	-0.102475	-0.127766
N211	N	1.159572	0.147525	0.122234
N212	N	1.409572	0.397525	0.372234
H213	H	0.701886	-0.322873	-0.346135
H214	H	0.951886	-0.072873	-0.096135
H215	H	1.201886	0.177127	0.153865
H216	H	1.451886	0.427127	0.403865
H217	H	0.621846	-0.318026	-0.409900
H218	H	0.871846	-0.068026	-0.159900
H219	H	1.121846	0.181974	0.090100
H220	H	1.371846	0.431974	0.340100
N221	N	1.097464	-0.501487	-0.984097
N222	N	1.347464	-0.251487	-0.734097
N223	N	1.597464	-0.001487	-0.484097
N224	N	1.847464	0.248513	-0.234097
H225	H	1.111094	-0.554386	-0.969689
H226	H	1.361094	-0.304386	-0.719689
H227	H	1.611094	-0.054386	-0.469689
H228	H	1.861094	0.195614	-0.219689
H229	H	1.038824	-0.486485	-0.965997
H230	H	1.288824	-0.236485	-0.715997
H231	H	1.538824	0.013515	-0.465997
H232	H	1.788824	0.263515	-0.215997
H233	H	1.050005	-0.990964	-0.504757
H234	H	1.300005	-0.740964	-0.254757
H235	H	1.550005	-0.490964	-0.004757
H236	H	1.800005	-0.240964	0.245243
N237	N	1.265409	-0.360023	-0.939782
N238	N	1.515409	-0.110023	-0.689782
N239	N	1.765409	0.139977	-0.439782
N240	N	2.015409	0.389977	-0.189782
H241	H	1.260389	-0.364285	-0.877784
H242	H	1.510389	-0.114285	-0.627784
H243	H	1.760389	0.135715	-0.377784
H244	H	2.010389	0.385715	-0.127784
H245	H	1.324030	-0.375019	-0.957945
H246	H	1.574030	-0.125019	-0.707945
H247	H	1.824030	0.124981	-0.457945
H248	H	2.074030	0.374981	-0.207945
H249	H	1.049324	-0.863287	-0.504333
H250	H	1.299324	-0.613287	-0.254333
H251	H	1.549324	-0.363287	-0.004333
H252	H	1.799324	-0.113287	0.245667
H253	H	1.098292	-0.984382	-0.350778
H254	H	1.348292	-0.734382	-0.100778
H255	H	1.598292	-0.484382	0.149222
H256	H	1.848292	-0.234382	0.399222
H257	H	1.208811	-0.988909	-0.325682
H258	H	1.458811	-0.738909	-0.075682
H259	H	1.708811	-0.488909	0.174318
H260	H	1.958811	-0.238909	0.424318
N261	N	1.225269	-0.855623	-0.310405
N262	N	1.475269	-0.605623	-0.060405
N263	N	1.725269	-0.355623	0.189595
N264	N	1.975269	-0.105623	0.439595
H265	H	1.267110	-0.826057	-0.339248
H266	H	1.517110	-0.576057	-0.089248
H267	H	1.767110	-0.326057	0.160752
H268	H	2.017110	-0.076057	0.410752
H269	H	1.196220	-0.823297	-0.265377
H270	H	1.446220	-0.573297	-0.015377
H271	H	1.696220	-0.323297	0.234623
H272	H	1.946220	-0.073297	0.484623
H273	H	1.099423	-0.857330	-0.350107
H274	H	1.349423	-0.607330	-0.100107
H275	H	1.599423	-0.357330	0.149893
H276	H	1.849423	-0.107330	0.399893
H277	H	1.286710	-1.003408	-0.552370
H278	H	1.536710	-0.753408	-0.302370
H279	H	1.786710	-0.503408	-0.052370
H280	H	2.036710	-0.253408	0.197630
N281	N	1.287027	-0.870363	-0.576986
N282	N	1.537027	-0.620363	-0.326986
N283	N	1.787027	-0.370363	-0.076986
N284	N	2.037027	-0.120363	0.173014
H285	H	1.240103	-0.836956	-0.597481
H286	H	1.490103	-0.586956	-0.347481
H287	H	1.740103	-0.336956	-0.097481
H288	H	1.990103	-0.086956	0.152519
H289	H	1.340248	-0.843178	-0.576101
H290	H	1.590248	-0.593178	-0.326101
H291	H	1.840248	-0.343178	-0.076101
H292	H	2.090248	-0.093178	0.173899
N293	N	1.337179	-0.864876	-0.436110
N294	N	1.587179	-0.614876	-0.186110
N295	N	1.837179	-0.364876	0.063890
N296	N	2.087179	-0.114876	0.313890
H297	H	1.327259	-0.877586	-0.376766
H298	H	1.577259	-0.627586	-0.126766
H299	H	1.827259	-0.377586	0.123234
H300	H	2.077259	-0.127586	0.373234
H301	H	1.391771	-0.889123	-0.456170
H302	H	1.641771	-0.639123	-0.206170
H303	H	1.891771	-0.389123	0.043830
H304	H	2.141771	-0.139123	0.293830
N305	N	1.334681	-1.005300	-0.429519
N306	N	1.584681	-0.755300	-0.179519
N307	N	1.834681	-0.505300	0.070481
N308	N	2.084681	-0.255300	0.320481
H309	H	1.308699	-1.034642	-0.385602
H310	H	1.558699	-0.784642	-0.135602
H311	H	1.808699	-0.534642	0.114398
H312	H	2.058699	-0.284642	0.364398
H313	H	1.377538	-1.037889	-0.461417
H314	H	1.627538	-0.787889	-0.211417
H315	H	1.877538	-0.537889	0.038583
H316	H	2.127538	-0.287889	0.288583
