data_functionalizedCrystal
_audit_creation_method	'MofGen! by Chris Wilmer'
_symmetry_space_group_name_H-M	'P1'
_symmetry_Int_Tables_number	1
_symmetry_cell_setting	triclinic
loop_
_symmetry_equiv_pos_as_xyz
  x,y,z
_cell_length_a	12.759401
_cell_length_b	16.959454
_cell_length_c	16.959447
_cell_angle_alpha	89.973182
_cell_angle_beta	89.985121
_cell_angle_gamma	90.020236
loop_
_atom_site_label
_atom_site_type_symbol
_atom_site_fract_x
_atom_site_fract_y
_atom_site_fract_z
Zn1	Zn	1.606179	-0.314662	-0.446885
Zn2	Zn	2.106179	0.185338	0.053115
Zn3	Zn	1.606068	-0.446855	-0.314715
Zn4	Zn	2.106068	0.053145	0.185285
Zn5	Zn	1.430492	-0.314694	-0.314727
Zn6	Zn	1.930492	0.185306	0.185273
Zn7	Zn	1.430453	-0.446803	-0.446858
Zn8	Zn	1.930453	0.053197	0.053142
O9	O	1.518298	-0.380753	-0.380796
O10	O	2.018298	0.119247	0.119204
O11	O	1.753185	-0.332206	-0.429358
O12	O	2.253185	0.167794	0.070642
O13	O	1.582747	-0.429358	-0.204105
O14	O	2.082747	0.070642	0.295895
O15	O	1.453860	-0.204079	-0.332275
O16	O	1.953860	0.295921	0.167725
O17	O	1.753103	-0.429327	-0.332253
O18	O	2.253103	0.070673	0.167747
O19	O	1.582936	-0.204055	-0.429370
O20	O	2.082936	0.295945	0.070630
O21	O	1.453752	-0.332261	-0.204115
O22	O	1.953752	0.167739	0.295885
O23	O	1.283466	-0.332211	-0.332249
O24	O	1.783466	0.167789	0.167751
O25	O	1.453793	-0.429239	-0.557472
O26	O	1.953793	0.070761	-0.057472
O27	O	1.283437	-0.429270	-0.429324
O28	O	1.783437	0.070730	0.070676
O29	O	1.582898	-0.332155	-0.557492
O30	O	2.082898	0.167845	-0.057492
O31	O	1.582709	-0.557459	-0.332227
O32	O	2.082709	-0.057459	0.167773
O33	O	1.453686	-0.557420	-0.429312
O34	O	1.953686	-0.057420	0.070688
C35	C	1.245330	-0.380739	-0.380785
C36	C	1.745330	0.119261	0.119215
C37	C	1.128554	-0.380752	-0.380800
C38	C	1.628554	0.119248	0.119200
C39	C	1.073704	-0.431371	-0.431263
C40	C	1.573704	0.068629	0.068737
C41	C	0.963980	-0.431381	-0.431272
C42	C	1.463980	0.068619	0.068728
C43	C	0.963965	-0.330150	-0.330346
C44	C	1.463965	0.169850	0.169654
C45	C	1.073687	-0.330136	-0.330342
C46	C	1.573687	0.169864	0.169658
C47	C	1.128571	-0.481987	-0.481721
C48	C	1.628571	0.018013	0.018279
C49	C	1.073722	-0.532611	-0.532188
C50	C	1.573722	-0.032611	-0.032188
C51	C	0.963998	-0.532621	-0.532197
C52	C	1.463998	-0.032621	-0.032197
C53	C	0.909123	-0.482007	-0.481738
C54	C	1.409123	0.017993	0.018262
C55	C	1.518210	-0.586120	-0.380783
C56	C	2.018210	-0.086120	0.119217
C57	C	1.518268	-0.673976	-0.380803
C58	C	2.018268	-0.173976	0.119197
C59	C	1.451213	-1.045462	-0.431343
C60	C	1.951213	-0.545462	0.068657
C61	C	1.585675	-1.045442	-0.330330
C62	C	2.085675	-0.545442	0.169670
C63	C	1.585639	-0.962896	-0.330323
C64	C	2.085639	-0.462896	0.169677
C65	C	1.518387	-0.921629	-0.380825
C66	C	2.018387	-0.421629	0.119175
C67	C	1.451172	-0.962908	-0.431336
C68	C	1.951172	-0.462908	0.068664
C69	C	1.652845	-0.921610	-0.279808
C70	C	2.152845	-0.421610	0.220192
C71	C	1.652810	-0.839059	-0.279798
C72	C	2.152810	-0.339059	0.220202
C73	C	1.585563	-0.797791	-0.330305
C74	C	2.085563	-0.297791	0.169695
C75	C	1.518346	-0.839076	-0.380818
C76	C	2.018346	-0.339076	0.119182
C77	C	1.451094	-0.797809	-0.431321
C78	C	1.951094	-0.297809	0.068679
C79	C	1.383881	-0.839092	-0.481838
C80	C	1.883881	-0.339092	0.018162
C81	C	1.383924	-0.921640	-0.481843
C82	C	1.883924	-0.421640	0.018157
C83	C	1.585520	-0.715243	-0.330300
C84	C	2.085520	-0.215243	0.169700
C85	C	1.451053	-0.715255	-0.431314
C86	C	1.951053	-0.215255	0.068686
C87	C	1.792331	-0.380769	-0.380807
C88	C	2.292331	0.119231	0.119193
C89	C	1.909108	-0.380775	-0.380812
C90	C	2.409108	0.119225	0.119188
C91	C	1.518354	-0.380688	-0.586964
C92	C	2.018354	0.119312	-0.086964
C93	C	1.518378	-0.380660	-0.674821
C94	C	2.018378	0.119340	-0.174821
C95	C	1.518415	-0.174585	-0.380827
C96	C	2.018415	0.325415	0.119173
C97	C	1.518465	-0.086729	-0.380840
C98	C	2.018465	0.413271	0.119160
C99	C	1.451309	-0.330022	-1.046308
C100	C	1.951309	0.169978	-0.546308
C101	C	1.585632	-0.431131	-1.046286
C102	C	2.085632	0.068869	-0.546286
C103	C	1.585614	-0.431149	-0.963740
C104	C	2.085614	0.068851	-0.463740
C105	C	1.518441	-0.380604	-0.922474
C106	C	2.018441	0.119396	-0.422474
C107	C	1.451286	-0.330041	-0.963754
C108	C	1.951286	0.169959	-0.463754
C109	C	1.652760	-0.481717	-0.922454
C110	C	2.152760	0.018283	-0.422454
C111	C	1.652743	-0.481738	-0.839903
C112	C	2.152743	0.018262	-0.339903
C113	C	1.585575	-0.431189	-0.798635
C114	C	2.085575	0.068811	-0.298635
C115	C	1.518419	-0.380623	-0.839921
C116	C	2.018419	0.119377	-0.339921
C117	C	1.451246	-0.330078	-0.798655
C118	C	1.951246	0.169922	-0.298655
C119	C	1.384094	-0.279507	-0.839939
C120	C	1.884094	0.220493	-0.339939
C121	C	1.384118	-0.279491	-0.922487
C122	C	1.884118	0.220509	-0.422487
C123	C	1.585551	-0.431205	-0.716087
C124	C	2.085551	0.068795	-0.216087
C125	C	1.451223	-0.330096	-0.716101
C126	C	1.951223	0.169904	-0.216101
C127	C	1.518302	-0.380762	-0.175430
C128	C	2.018302	0.119238	0.324570
C129	C	1.518482	-0.380567	-0.087574
C130	C	2.018482	0.119433	0.412426
H131	H	1.118408	-0.573815	-0.573275
H132	H	1.618408	-0.073815	-0.073275
H133	H	1.640238	-0.681634	-0.289166
H134	H	2.140238	-0.181634	0.210834
H135	H	1.118346	-0.288911	-0.289256
H136	H	1.618346	0.211089	0.210744
H137	H	1.217914	-0.481986	-0.481718
H138	H	1.717914	0.018014	0.018282
H139	H	0.919342	-0.573836	-0.573295
H140	H	1.419342	-0.073836	-0.073295
H141	H	1.707539	-0.805452	-0.238665
H142	H	2.207539	-0.305452	0.261335
H143	H	0.819778	-0.482012	-0.481756
H144	H	1.319778	0.017988	0.018244
H145	H	1.396292	-0.681661	-0.472442
H146	H	1.896292	-0.181661	0.027558
H147	H	0.919277	-0.288942	-0.289264
H148	H	1.419277	0.211058	0.210736
H149	H	1.329120	-0.805483	-0.522955
H150	H	1.829120	-0.305483	-0.022955
H151	H	1.329202	-0.955260	-0.522971
H152	H	1.829202	-0.455260	-0.022971
H153	H	1.640422	-1.079046	-0.289208
H154	H	2.140422	-0.579046	0.210792
H155	H	1.396527	-0.288932	-0.682508
H156	H	1.896527	0.211068	-0.182508
H157	H	1.329397	-0.238357	-0.806329
H158	H	1.829397	0.261643	-0.306329
H159	H	1.396493	-1.079078	-0.472475
H160	H	1.896493	-0.579078	0.027525
H161	H	1.707590	-0.955216	-0.238685
H162	H	2.207590	-0.455216	0.261315
H163	H	1.329445	-0.238320	-0.956108
H164	H	1.829445	0.261680	-0.456108
H165	H	1.396638	-0.288846	-1.079925
H166	H	1.896638	0.211154	-0.579925
H167	H	1.640313	-0.472288	-1.079889
H168	H	2.140313	0.027712	-0.579889
H169	H	1.707436	-0.522877	-0.956058
H170	H	2.207436	-0.022877	-0.456058
H171	H	1.707422	-0.522917	-0.806296
H172	H	2.207422	-0.022917	-0.306296
H173	H	1.640232	-0.472373	-0.682477
H174	H	2.140232	0.027627	-0.182477
