data_functionalizedCrystal
_audit_creation_method	'MofGen! by Chris Wilmer'
_symmetry_space_group_name_H-M	'P1'
_symmetry_Int_Tables_number	1
_symmetry_cell_setting	triclinic
loop_
_symmetry_equiv_pos_as_xyz
  x,y,z
_cell_length_a	19.288840
_cell_length_b	10.540539
_cell_length_c	17.766277
_cell_angle_alpha	90.000648
_cell_angle_beta	89.986186
_cell_angle_gamma	83.825754
loop_
_atom_site_label
_atom_site_type_symbol
_atom_site_fract_x
_atom_site_fract_y
_atom_site_fract_z
O1	O	0.922417	0.158185	-0.062717
O2	O	1.422417	0.658185	0.437283
O3	O	0.720297	0.179579	-0.062690
O4	O	1.220297	0.679579	0.437310
O5	O	0.825969	-0.015928	-0.062703
O6	O	1.325969	0.484072	0.437297
O7	O	0.816746	0.353692	-0.062704
O8	O	1.316746	0.853692	0.437296
O9	O	0.825954	-0.015921	0.062485
O10	O	1.325954	0.484079	0.562485
O11	O	0.720283	0.179586	0.062498
O12	O	1.220283	0.679586	0.562498
O13	O	0.922403	0.158192	0.062472
O14	O	1.422403	0.658192	0.562472
Cu15	Cu	0.821342	0.168890	0.073916
Cu16	Cu	1.321342	0.668890	0.573916
Cu17	Cu	0.821359	0.168881	-0.074134
Cu18	Cu	1.321359	0.668881	0.425866
O19	O	0.816732	0.353699	0.062485
O20	O	1.316732	0.853699	0.562485
C21	C	0.694409	0.178899	-0.000092
C22	C	1.194409	0.678899	0.499908
C23	C	0.617290	0.176849	-0.000082
C24	C	1.117290	0.676849	0.499918
C25	C	0.581088	0.175860	-0.068325
C26	C	1.081088	0.675860	0.431675
C27	C	0.508628	0.173919	-0.068334
C28	C	1.008628	0.673919	0.431666
C29	C	0.472375	0.172942	-0.000097
C30	C	0.972375	0.672942	0.499903
C31	C	0.508586	0.173938	0.068154
C32	C	1.008586	0.673938	0.568154
C33	C	0.581043	0.175891	0.068161
C34	C	1.081043	0.675891	0.568161
C35	C	0.362525	0.095502	0.052172
C36	C	0.862525	0.595502	0.552172
C37	C	0.290069	0.093540	0.052162
C38	C	0.790069	0.593540	0.552162
C39	C	0.248891	0.166922	-0.000117
C40	C	0.748891	0.666922	0.499883
C41	C	0.280180	0.242248	-0.052397
C42	C	0.780180	0.742248	0.447603
C43	C	0.352637	0.244202	-0.052390
C44	C	0.852637	0.744202	0.447610
C45	C	0.393807	0.170824	-0.000097
C46	C	0.893807	0.670824	0.499903
C47	C	0.134120	0.163830	-0.068374
C48	C	0.634120	0.663830	0.431626
C49	C	0.061658	0.161897	-0.068380
C50	C	0.561658	0.661897	0.431620
C51	C	0.061618	0.161903	0.068110
C52	C	0.561618	0.661903	0.568110
C53	C	0.134077	0.163849	0.068115
C54	C	0.634077	0.663849	0.568115
C55	C	0.170324	0.164806	-0.000129
C56	C	0.670324	0.664806	0.499871
C57	C	0.825270	-0.063212	-0.000110
C58	C	1.325270	0.436788	0.499890
C59	C	0.823201	-0.204114	-0.000114
C60	C	1.323201	0.295886	0.499886
C61	C	0.743911	-0.385760	-0.000384
C62	C	1.243911	0.114240	0.499616
C63	C	0.746008	-0.239189	-0.000103
C64	C	1.246008	0.260811	0.499897
C65	C	0.860341	-0.266601	0.071370
C66	C	1.360341	0.233399	0.571370
C67	C	0.857706	-0.413087	0.071431
C68	C	1.357706	0.086913	0.571431
C69	C	0.859292	-0.413648	-0.070932
C70	C	1.359292	0.086352	0.429068
C71	C	0.860004	-0.266682	-0.071878
C72	C	1.360004	0.233318	0.428122
C73	C	0.948292	0.158872	-0.000127
C74	C	1.448292	0.658872	0.499873
C75	C	1.025410	0.160922	-0.000142
C76	C	1.525410	0.660922	0.499858
C77	C	0.817431	0.400983	-0.000110
C78	C	1.317431	0.900983	0.499890
C79	C	0.819500	0.541884	-0.000111
C80	C	1.319500	1.041884	0.499889
N81	N	0.821335	0.168895	0.178046
N82	N	1.321335	0.668895	0.678046
N83	N	0.821371	0.168866	-0.178264
N84	N	1.321371	0.668866	0.321736
C85	C	0.863876	0.245637	0.782328
C86	C	1.363876	0.745637	1.282328
C87	C	0.863869	0.245649	0.703526
C88	C	1.363869	0.745649	1.203526
C89	C	0.821365	0.168867	0.664135
C90	C	1.321365	0.668867	1.164135
C91	C	0.778851	0.092092	0.703552
C92	C	1.278851	0.592092	1.203552
C93	C	0.778854	0.092091	0.782352
C94	C	1.278854	0.592091	1.282352
C95	C	0.818875	0.054425	0.539292
C96	C	1.318875	0.554425	1.039292
C97	C	0.818877	0.054423	0.460493
C98	C	1.318877	0.554423	0.960493
C99	C	0.821352	0.168870	0.421089
C100	C	1.321352	0.668870	0.921089
C101	C	0.823840	0.283321	0.460493
C102	C	1.323840	0.783321	0.960493
C103	C	0.823843	0.283321	0.539293
C104	C	1.323843	0.783321	1.039293
C105	C	0.821357	0.168860	0.578689
C106	C	1.321357	0.668860	1.078689
C107	C	0.863853	0.245661	0.296235
C108	C	1.363853	0.745661	0.796235
C109	C	0.863841	0.245676	0.217432
C110	C	1.363841	0.745676	0.717432
C111	C	0.778826	0.092106	0.217459
C112	C	1.278826	0.592106	0.717459
C113	C	0.778834	0.092103	0.296261
C114	C	1.278834	0.592103	0.796261
C115	C	0.821351	0.168878	0.335644
C116	C	1.321351	0.668878	0.835644
H117	H	0.163554	0.164646	0.123685
H118	H	0.663554	0.664646	0.623685
H119	H	0.917028	-0.245520	0.074021
H120	H	1.417028	0.254480	0.574021
Br121	Br	0.693135	-0.435570	0.084330
Br122	Br	1.193135	0.064430	0.584330
H123	H	0.032183	0.161100	-0.123953
H124	H	0.532183	0.661100	0.376047
Br125	Br	0.721146	-0.012094	0.349746
Br126	Br	1.221146	0.487906	0.849746
H127	H	0.915048	-0.462126	-0.071420
H128	H	1.415048	0.037874	0.428580
Br129	Br	0.721160	-0.012103	0.650095
Br130	Br	1.221160	0.487897	1.150095
Br131	Br	0.953807	-0.228411	-0.079093
Br132	Br	1.453807	0.271589	0.420907
H133	H	0.479146	0.173116	-0.123907
H134	H	0.979146	0.673116	0.376093
Br135	Br	0.395098	0.346429	-0.123336
Br136	Br	0.895098	0.846429	0.376664
H137	H	0.898496	0.308156	0.814389
H138	H	1.398496	0.808156	1.314389
H139	H	0.264601	0.032199	0.094728
H140	H	0.764601	0.532199	0.594728
Br141	Br	0.921570	0.349826	0.650033
Br142	Br	1.421570	0.849826	1.150033
H143	H	0.816856	-0.038771	0.428416
H144	H	1.316856	0.461229	0.928416
H145	H	0.816853	-0.038776	0.571368
H146	H	1.316853	0.461224	1.071368
H147	H	0.898469	0.308182	0.328303
H148	H	1.398469	0.808182	0.828303
Br149	Br	0.827214	0.438639	0.592769
Br150	Br	1.327214	0.938639	1.092769
Br151	Br	0.224305	0.341848	-0.123350
Br152	Br	0.724305	0.841848	0.376650
H153	H	0.825855	0.376515	0.428412
H154	H	1.325855	0.876515	0.928412
Br155	Br	0.921513	0.349910	0.163949
Br156	Br	1.421513	0.849910	0.663949
H157	H	0.396047	0.035742	0.094746
H158	H	0.896047	0.535742	0.594746
Br159	Br	0.721132	-0.012086	0.164008
Br160	Br	1.221132	0.487914	0.664008
Br161	Br	0.693092	-0.432285	-0.085826
Br162	Br	1.193092	0.067715	0.414174
Br163	Br	0.721162	-0.012104	0.835838
Br164	Br	1.221162	0.487896	1.335838
H165	H	0.610596	0.176639	-0.123894
H166	H	1.110596	0.676639	0.376106
H167	H	0.830246	-0.440667	0.124874
H168	H	1.330246	0.059333	0.624874
H169	H	0.163633	0.164623	-0.123942
H170	H	0.663633	0.664623	0.376058
Br171	Br	0.012424	0.160596	0.160719
Br172	Br	0.512424	0.660596	0.660719
H173	H	0.834315	-0.444643	-0.125113
H174	H	1.334315	0.055357	0.374887
Br175	Br	0.817323	-0.194635	0.160049
Br176	Br	1.317323	0.305365	0.660049
Br177	Br	0.630179	0.177236	0.160783
Br178	Br	1.130179	0.677236	0.660783
Br179	Br	0.459387	0.172625	0.160762
Br180	Br	0.959387	0.672625	0.660762
H181	H	0.716784	-0.195933	-0.051345
H182	H	1.216784	0.304067	0.448655
H183	H	0.716567	-0.196770	0.051232
H184	H	1.216567	0.303230	0.551232
H185	H	0.832828	-0.225217	-0.124759
H186	H	1.332828	0.274783	0.375241
Br187	Br	0.950232	-0.495122	0.076834
Br188	Br	1.450232	0.004878	0.576834
