data_functionalizedCrystal
_audit_creation_method	'MofGen! by Chris Wilmer'
_symmetry_space_group_name_H-M	'P1'
_symmetry_Int_Tables_number	1
_symmetry_cell_setting	triclinic
loop_
_symmetry_equiv_pos_as_xyz
  x,y,z
_cell_length_a	14.853567
_cell_length_b	10.489716
_cell_length_c	13.330367
_cell_angle_alpha	89.999430
_cell_angle_beta	89.995418
_cell_angle_gamma	84.082033
loop_
_atom_site_label
_atom_site_type_symbol
_atom_site_fract_x
_atom_site_fract_y
_atom_site_fract_z
O1	O	1.197292	0.166530	-0.083345
O2	O	0.934943	0.186368	-0.083361
O3	O	1.072099	-0.009218	-0.083356
O4	O	1.060136	0.362116	-0.083350
O5	O	1.072079	-0.009223	0.083491
O6	O	0.934923	0.186363	0.083486
O7	O	1.197272	0.166525	0.083502
Cu8	Cu	1.066096	0.176444	0.098728
Cu9	Cu	1.066119	0.176449	-0.098588
O10	O	1.060116	0.362111	0.083497
C11	C	0.901339	0.185467	0.000060
C12	C	0.801240	0.182773	0.000054
C13	C	0.387999	0.055204	0.000074
C14	C	0.368007	0.287565	0.000077
C15	C	0.462054	0.290098	0.000074
C16	C	0.519079	0.175182	0.000069
C17	C	0.482056	0.057734	0.000068
C18	C	0.499085	0.407544	0.000065
C19	C	0.593138	0.410081	0.000061
C20	C	0.650164	0.295164	0.000063
C21	C	0.613136	0.177711	0.000063
C22	C	0.670160	0.062795	0.000058
C23	C	0.633134	-0.054659	0.000065
C24	C	0.539082	-0.057183	0.000070
C25	C	0.744216	0.297689	0.000058
C26	C	0.764217	0.065325	0.000052
C27	C	1.071190	-0.056743	0.000064
C28	C	1.068501	-0.198343	0.000055
C29	C	1.152609	-0.296961	0.000069
C30	C	1.108174	-0.373821	-0.082195
C31	C	1.108135	-0.373789	0.082303
C32	C	1.024101	-0.273338	-0.082278
C33	C	1.024074	-0.273301	0.082294
C34	C	0.979577	-0.350111	0.000010
C35	C	1.230876	0.167426	0.000078
C36	C	1.330974	0.170120	0.000078
C37	C	1.061025	0.409636	0.000075
C38	C	1.063714	0.551236	0.000077
N39	N	1.066085	0.176439	0.237510
N40	N	1.066137	0.176443	-0.237369
C41	C	1.005384	0.263020	0.710131
C42	C	1.126879	0.089868	0.710103
C43	C	1.126869	0.089864	0.605085
C44	C	1.066116	0.176441	0.552584
C45	C	1.005374	0.263022	0.605103
C46	C	1.187616	0.003293	0.552559
C47	C	1.187609	0.003287	0.447534
C48	C	1.126851	0.089859	0.395032
C49	C	1.066106	0.176442	0.447556
C50	C	1.005353	0.263019	0.395056
C51	C	0.944602	0.349598	0.447579
C52	C	0.944616	0.349594	0.552601
C53	C	1.126838	0.089863	0.290010
C54	C	1.005343	0.263020	0.290028
H55	H	0.810641	-0.028255	0.000052
H56	H	1.176304	0.019377	0.247251
C57	C	0.938566	0.358253	0.767899
H58	H	0.947272	0.345862	0.837966
H59	H	0.878310	0.344248	0.750696
H60	H	0.948907	0.443411	0.750684
H61	H	0.906363	-0.373719	-0.000039
C62	C	1.156141	-0.433120	-0.176146
H63	H	1.114437	-0.475292	-0.214879
H64	H	1.205140	-0.493248	-0.156373
H65	H	1.178428	-0.367386	-0.215157
C66	C	0.976190	-0.214311	-0.176346
H67	H	0.978244	-0.124092	-0.175799
H68	H	0.914919	-0.232814	-0.176592
H69	H	1.005869	-0.249600	-0.234688
H70	H	0.988591	-0.229386	0.151843
H71	H	1.176347	0.019385	0.752852
H72	H	0.508926	-0.152809	0.000100
H73	H	0.357848	-0.040424	0.000083
C74	C	0.305283	0.413961	0.000084
H75	H	0.243967	0.395633	0.000093
H76	H	0.316590	0.462121	-0.058096
H77	H	0.316586	0.462102	0.058278
H78	H	1.237084	-0.067189	0.595308
H79	H	1.143650	-0.417662	0.151849
C80	C	0.784947	0.426867	0.000047
H81	H	0.849128	0.411917	0.000038
H82	H	0.765422	0.474198	0.058227
H83	H	0.765429	0.474180	-0.058147
H84	H	0.452649	0.501102	0.000058
C85	C	1.254423	-0.091954	0.389768
H86	H	1.290601	-0.143521	0.436078
H87	H	1.292239	-0.045981	0.348783
H88	H	1.221639	-0.145141	0.348814
H89	H	0.679576	-0.148223	0.000055
C90	C	0.938515	0.358260	0.232286
H91	H	0.902344	0.409823	0.278610
H92	H	0.900693	0.312282	0.191319
H93	H	0.971287	0.411450	0.191316
C94	C	0.633860	0.539273	0.000067
H95	H	0.586427	0.607348	0.000078
H96	H	0.670140	0.545099	-0.058113
H97	H	0.670126	0.545081	0.058261
H98	H	1.225769	-0.273106	-0.000010
C99	C	0.877780	0.444833	0.389827
H100	H	0.841604	0.496402	0.436142
H101	H	0.839962	0.398852	0.348858
H102	H	0.910557	0.498018	0.348858
C103	C	0.877806	0.444829	0.610376
H104	H	0.886523	0.432438	0.680442
H105	H	0.817547	0.430829	0.593185
H106	H	0.888148	0.529987	0.593159
