data_functionalizedCrystal
_audit_creation_method	'MofGen! by Chris Wilmer'
_symmetry_space_group_name_H-M	'P1'
_symmetry_Int_Tables_number	1
_symmetry_cell_setting	triclinic
loop_
_symmetry_equiv_pos_as_xyz
  x,y,z
_cell_length_a	10.967926
_cell_length_b	13.262508
_cell_length_c	9.482900
_cell_angle_alpha	115.010094
_cell_angle_beta	92.549900
_cell_angle_gamma	81.247908
loop_
_atom_site_label
_atom_site_type_symbol
_atom_site_fract_x
_atom_site_fract_y
_atom_site_fract_z
O1	O	1.599235	0.195318	0.357001
O2	O	1.249886	0.197744	0.270434
O3	O	1.443130	0.035875	0.254850
O4	O	1.405991	0.357187	0.372585
O5	O	1.403870	0.068893	0.499861
O6	O	1.210626	0.230762	0.515445
O7	O	1.559975	0.228336	0.602012
Cu8	Cu	1.381716	0.232564	0.581100
Cu9	Cu	1.428145	0.193516	0.291346
O10	O	1.366731	0.390205	0.617596
C11	C	1.185719	0.211582	0.380725
C12	C	1.053013	0.203609	0.344324
C13	C	0.973511	0.217158	0.455018
C14	C	0.836352	0.208918	0.417399
C15	C	1.425029	0.011126	0.361423
C16	C	1.429569	-0.111810	0.313945
C17	C	1.356756	-0.386364	0.714350
C18	C	1.352480	-0.270859	0.758957
C19	C	1.371752	-0.231091	0.647708
C20	C	1.395300	-0.306840	0.491844
C21	C	1.399566	-0.422355	0.447231
C22	C	1.414563	-0.267082	0.380589
C23	C	1.438111	-0.342831	0.224725
C24	C	1.442377	-0.458335	0.180119
C25	C	1.423105	-0.498103	0.291368
C26	C	1.410297	-0.151566	0.425202
C27	C	1.453108	-0.187557	0.158083
C28	C	1.457383	-0.303062	0.113476
C29	C	1.624143	0.214498	0.491718
C30	C	1.756850	0.222470	0.528109
C31	C	1.384833	0.414954	0.511020
C32	C	1.380294	0.537888	0.558488
N33	N	1.349068	0.260027	0.784899
N34	N	1.460803	0.166045	0.087546
C35	C	1.418508	0.201611	0.851399
C36	C	1.391353	0.224470	1.021051
H37	H	1.019536	0.185905	0.221703
C38	C	1.173060	0.287236	1.038379
C39	C	1.283947	0.314834	1.113727
H40	H	1.106754	0.343019	1.095601
H41	H	1.177225	0.283739	0.936546
H42	H	1.159991	0.216239	1.031913
H43	H	1.297021	0.385828	1.120182
H44	H	1.279783	0.318344	1.215587
H45	H	1.006989	0.234853	0.577636
H46	H	1.468792	-0.155179	0.067492
C47	C	1.627215	0.026030	1.088804
C48	C	1.568205	0.075673	0.994875
H49	H	1.693514	-0.029765	1.031586
H50	H	1.658243	0.081932	1.178032
H51	H	1.569910	-0.007761	1.120473
H52	H	1.625508	0.109472	0.963215
H53	H	1.537178	0.019762	0.905618
C54	C	0.701980	0.274105	0.256791
C55	C	0.791180	0.185025	0.251853
H56	H	0.674099	0.259356	0.154589
H57	H	0.634337	0.281526	0.321352
H58	H	0.737019	0.341844	0.297758
H59	H	0.756138	0.117287	0.210896
H60	H	0.858834	0.177591	0.187268
C61	C	1.482924	-0.496112	-0.073504
C62	C	1.483253	-0.386332	-0.057851
H63	H	1.498888	-0.547516	-0.179275
H64	H	1.545031	-0.513037	-0.010488
H65	H	1.404619	-0.502236	-0.041386
H66	H	1.561562	-0.380205	-0.089958
H67	H	1.421142	-0.369402	-0.120888
H68	H	1.341058	-0.418755	0.804910
H69	H	1.391113	-0.089901	0.552105
C70	C	1.342336	-0.046038	0.857039
C71	C	1.367067	-0.104127	0.696740
H72	H	1.339455	0.032346	0.887313
H73	H	1.265193	-0.060122	0.880798
H74	H	1.405601	-0.070934	0.911719
H75	H	1.303796	-0.079237	0.642060
H76	H	1.444219	-0.090035	0.672967
H77	H	0.790321	0.240168	0.650736
C78	C	1.130781	0.322789	0.802232
C79	C	1.241668	0.350387	0.877580
H80	H	1.064475	0.378572	0.859455
H81	H	1.134945	0.319292	0.700399
H82	H	1.117711	0.251792	0.795766
H83	H	1.254742	0.421381	0.884035
H84	H	1.237504	0.353897	0.979440
H85	H	1.333320	-0.209193	0.885864
H86	H	1.426591	-0.592156	0.255058
H87	H	1.498058	0.134670	0.782734
H88	H	1.461540	-0.520007	0.053202
