data_functionalizedCrystal
_audit_creation_method	'MofGen! by Chris Wilmer'
_symmetry_space_group_name_H-M	'P1'
_symmetry_Int_Tables_number	1
_symmetry_cell_setting	triclinic
loop_
_symmetry_equiv_pos_as_xyz
  x,y,z
_cell_length_a	12.759401
_cell_length_b	12.759400
_cell_length_c	12.759393
_cell_angle_alpha	89.970627
_cell_angle_beta	89.979062
_cell_angle_gamma	90.014690
loop_
_atom_site_label
_atom_site_type_symbol
_atom_site_fract_x
_atom_site_fract_y
_atom_site_fract_z
Zn1	Zn	1.606278	-0.418173	-0.594028
Zn2	Zn	1.606173	-0.593888	-0.418352
Zn3	Zn	1.430576	-0.418229	-0.418363
Zn4	Zn	1.430573	-0.593815	-0.593989
O5	O	1.518400	-0.506026	-0.506183
O6	O	1.753285	-0.441489	-0.570736
O7	O	1.582838	-0.570641	-0.271332
O8	O	1.453928	-0.271200	-0.441687
O9	O	1.753208	-0.570587	-0.441667
O10	O	1.583015	-0.271159	-0.570747
O11	O	1.453827	-0.441584	-0.271341
O12	O	1.283555	-0.441513	-0.441649
O13	O	1.453923	-0.570461	-0.741015
O14	O	1.283552	-0.570516	-0.570680
O15	O	1.583012	-0.441418	-0.741044
O16	O	1.582835	-0.740900	-0.441629
O17	O	1.453822	-0.740846	-0.570669
C18	C	1.245433	-0.506013	-0.506162
C19	C	1.128656	-0.506033	-0.506178
C20	C	1.073820	-0.573307	-0.573259
C21	C	0.964096	-0.573311	-0.573280
C22	C	0.964053	-0.438764	-0.439130
C23	C	1.073775	-0.438756	-0.439115
C24	C	1.518345	-0.778993	-0.506167
C25	C	1.518417	-0.895770	-0.506195
C26	C	1.585599	-0.950531	-0.573451
C27	C	1.585648	-1.060255	-0.573477
C28	C	1.451330	-1.060448	-0.438980
C29	C	1.451277	-0.950726	-0.438961
C30	C	1.652740	-0.895576	-0.640685
C31	C	1.719928	-0.950337	-0.707947
C32	C	1.719977	-1.060061	-0.707972
C33	C	1.652838	-1.115024	-0.640737
C34	C	1.792433	-0.506040	-0.506205
C35	C	1.909210	-0.506046	-0.506214
C36	C	1.518479	-0.505925	-0.780217
C37	C	1.518512	-0.505882	-0.896993
C38	C	1.518484	-0.231993	-0.506223
C39	C	1.518520	-0.115216	-0.506240
C40	C	1.585734	-0.438679	-0.951872
C41	C	1.585752	-0.438633	-1.061596
C42	C	1.451323	-0.573004	-1.061553
C43	C	1.451301	-0.573044	-0.951831
C44	C	1.518382	-0.506051	-0.233216
C45	C	1.518552	-0.505798	-0.116440
H46	H	1.118501	-0.628086	-0.627869
Cl47	Cl	1.670224	-0.354243	-0.882937
Cl48	Cl	1.366780	-0.657529	-0.882836
Cl49	Cl	1.670273	-0.354154	-1.130582
H50	H	0.919454	-0.628090	-0.627906
H51	H	1.118424	-0.383967	-0.384490
H52	H	1.652710	-0.806233	-0.640670
H53	H	1.652871	-1.204368	-0.640775
H54	H	0.919356	-0.383991	-0.384528
Cl55	Cl	1.804315	-0.881242	-0.792478
Cl56	Cl	1.804429	-1.128900	-0.792539
H57	H	1.396669	-1.105207	-0.384240
Cl58	Cl	1.366839	-0.657437	-1.130500
H59	H	1.396570	-0.906139	-0.384195
