data_functionalizedCrystal
_audit_creation_method	'MofGen! by Chris Wilmer'
_symmetry_space_group_name_H-M	'P1'
_symmetry_Int_Tables_number	1
_symmetry_cell_setting	triclinic
loop_
_symmetry_equiv_pos_as_xyz
  x,y,z
_cell_length_a	10.654550
_cell_length_b	14.853559
_cell_length_c	9.130313
_cell_angle_alpha	90.000938
_cell_angle_beta	89.996220
_cell_angle_gamma	84.058178
loop_
_atom_site_label
_atom_site_type_symbol
_atom_site_fract_x
_atom_site_fract_y
_atom_site_fract_z
O1	O	1.666513	0.126622	-0.121912
O2	O	1.300909	0.138687	-0.121888
O3	O	1.493482	0.001476	-0.121899
O4	O	1.473940	0.263832	-0.121901
O5	O	1.493480	0.001480	0.121700
O6	O	1.300907	0.138690	0.121711
O7	O	1.666511	0.126626	0.121687
Cu8	Cu	1.483708	0.132658	0.143941
Cu9	Cu	1.483711	0.132654	-0.144142
O10	O	1.473937	0.263836	0.121698
C11	C	1.254119	0.137803	-0.000085
C12	C	1.114703	0.135152	-0.000076
C13	C	1.034375	0.215939	-0.000098
C14	C	0.903380	0.213444	-0.000123
C15	C	0.933055	0.049367	-0.000111
C16	C	1.064047	0.051864	-0.000075
C17	C	1.085031	0.299228	-0.000099
C18	C	1.004701	0.380022	-0.000123
C19	C	0.873706	0.377526	-0.000148
C20	C	0.823041	0.294237	-0.000150
C21	C	1.492598	-0.032115	-0.000102
C22	C	1.489950	-0.132213	-0.000110
C23	C	1.478718	-0.555451	-0.132895
C24	C	1.478716	-0.555441	0.132685
C25	C	1.481214	-0.461395	0.132687
C26	C	1.482463	-0.414372	-0.000105
C27	C	1.481213	-0.461395	-0.132898
C28	C	1.482451	-0.414363	0.265477
C29	C	1.484948	-0.320311	0.265484
C30	C	1.486205	-0.273286	0.132690
C31	C	1.484957	-0.320316	-0.000108
C32	C	1.486206	-0.273293	-0.132900
C33	C	1.484967	-0.320321	-0.265700
C34	C	1.482471	-0.414371	-0.265692
C35	C	1.488701	-0.179237	0.132682
C36	C	1.488700	-0.179237	-0.132903
C37	C	1.713301	0.127510	-0.000119
C38	C	1.852716	0.130160	-0.000137
C39	C	1.474822	0.297428	-0.000102
C40	C	1.477470	0.397526	-0.000104
N41	N	1.483716	0.132661	0.346564
N42	N	1.483714	0.132644	-0.346765
C43	C	1.569009	0.071925	0.423211
C44	C	1.569006	0.071914	0.576548
C45	C	1.398412	0.193383	0.576577
C46	C	1.398410	0.193389	0.423243
C47	C	1.654315	0.011197	0.346532
C48	C	1.739616	-0.049543	0.423179
C49	C	1.739612	-0.049553	0.576516
C50	C	1.654308	0.011176	0.653206
H51	H	1.485974	-0.282022	-0.373819
H52	H	0.716375	0.292212	-0.000148
O53	O	1.477364	-0.606148	0.275911
H54	H	1.563368	-0.595592	0.339577
H55	H	0.891793	-0.018443	-0.000137
O56	O	1.150702	-0.035268	-0.000062
H57	H	1.093473	-0.093603	-0.000091
O58	O	1.654324	0.011205	0.181148
H59	H	1.580686	0.063645	0.140732
O60	O	1.306394	0.258893	0.340586
H61	H	1.245296	0.220522	0.270755
H62	H	1.045962	0.447833	-0.000109
O63	O	1.490036	-0.128518	-0.276131
H64	H	1.488743	-0.177021	-0.368464
H65	H	1.191692	0.301270	-0.000085
H66	H	1.481461	-0.452670	-0.373810
H67	H	1.328961	0.242827	0.639028
O68	O	1.477372	-0.606163	-0.276128
H69	H	1.475420	-0.679462	-0.253827
O70	O	1.481135	-0.465078	0.408698
H71	H	1.479220	-0.538380	0.386386
H72	H	1.485961	-0.282028	0.373617
H73	H	0.808305	0.443312	-0.000152
H74	H	1.654304	0.011156	0.778063
O75	O	1.831591	-0.115064	0.340478
H76	H	1.817264	-0.104856	0.220977
H77	H	1.489682	-0.140948	0.240805
O78	O	1.831617	-0.115054	0.659194
H79	H	1.890941	-0.157271	0.580108
