data_functionalizedCrystal
_audit_creation_method	'MofGen! by Chris Wilmer'
_symmetry_space_group_name_H-M	'P1'
_symmetry_Int_Tables_number	1
_symmetry_cell_setting	triclinic
loop_
_symmetry_equiv_pos_as_xyz
  x,y,z
_cell_length_a	6.817900
_cell_length_b	11.102289
_cell_length_c	9.582880
_cell_angle_alpha	90.972692
_cell_angle_beta	111.207034
_cell_angle_gamma	108.605707
loop_
_atom_site_label
_atom_site_type_symbol
_atom_site_fract_x
_atom_site_fract_y
_atom_site_fract_z
V1	V	-4.142615	-0.175303	-0.466601
O2	O	-4.101056	0.008976	-0.457719
O3	O	-4.119180	-0.348127	-0.463410
O4	O	-4.132953	-0.172364	-0.670102
O5	O	-4.087187	-0.168003	-0.249596
V6	V	-4.617989	-0.153290	-0.440646
O7	O	-4.421750	-0.223591	-0.523537
O8	O	-4.789051	-0.105002	-0.383710
O9	O	-4.418218	0.019534	-0.443837
O10	O	-4.776945	-0.337568	-0.449527
O11	O	-4.790814	-0.160589	-0.657651
O12	O	-4.404444	-0.156228	-0.237145
C13	C	-3.969000	-0.390265	-0.456049
C14	C	-4.031384	-0.531549	-0.454796
C15	C	-4.245196	-0.604390	-0.461672
C16	C	-4.303807	-0.737142	-0.460508
C17	C	-3.934767	-0.724202	-0.445584
C18	C	-3.876166	-0.591453	-0.446759
C19	C	-4.458256	-0.611861	-0.470282
C20	C	-4.516866	-0.744614	-0.469118
C21	C	-3.986568	-0.166061	-0.719704
C22	C	-4.060117	-0.164802	-0.886067
C23	C	-4.231739	0.061666	-0.451194
C24	C	-4.148596	0.202949	-0.452456
C25	C	-4.214170	-0.162536	-0.187535
C26	C	-4.119858	-0.163788	-0.021171
H27	H	-4.656061	-0.802353	-0.579987
O28	O	-3.668435	-0.520538	-0.439889
C29	C	-3.322158	-0.346116	-0.302251
C30	C	-3.557385	-0.426303	-0.309869
H31	H	-3.232288	-0.269926	-0.197122
H32	H	-3.338597	-0.297355	-0.407572
H33	H	-3.221384	-0.411776	-0.296375
H34	H	-3.658288	-0.360731	-0.315696
H35	H	-3.540782	-0.475078	-0.204550
O36	O	-3.783938	-0.782418	-0.437502
C37	C	-3.570169	-0.907760	-0.297315
C38	C	-3.740962	-0.841866	-0.306267
H39	H	-3.535406	-0.955864	-0.191237
H40	H	-3.407175	-0.832934	-0.292498
H41	H	-3.641615	-0.983345	-0.401662
H42	H	-3.669723	-0.766289	-0.201946
H43	H	-3.903930	-0.916768	-0.311158
O44	O	-4.600468	-0.588997	-0.600234
C45	C	-4.918652	-0.680706	-0.835740
C46	C	-4.757732	-0.706783	-0.688656
H47	H	-5.045869	-0.775916	-0.907256
H48	H	-4.818705	-0.626100	-0.902126
H49	H	-5.010611	-0.620776	-0.806670
H50	H	-4.665734	-0.766747	-0.717592
H51	H	-4.857801	-0.761329	-0.622312
H52	H	-4.451294	-0.558755	-0.364766
H53	H	-4.561363	-0.769701	-0.366892
