data_functionalizedCrystal
_audit_creation_method	'MofGen! by Chris Wilmer'
_symmetry_space_group_name_H-M	'P1'
_symmetry_Int_Tables_number	1
_symmetry_cell_setting	triclinic
loop_
_symmetry_equiv_pos_as_xyz
  x,y,z
_cell_length_a	13.897449
_cell_length_b	16.625539
_cell_length_c	13.897448
_cell_angle_alpha	90.027549
_cell_angle_beta	89.981481
_cell_angle_gamma	89.977908
loop_
_atom_site_label
_atom_site_type_symbol
_atom_site_fract_x
_atom_site_fract_y
_atom_site_fract_z
Zn1	Zn	1.474690	-0.455946	0.383992
Zn2	Zn	1.808024	-0.122613	0.717325
Zn3	Zn	2.141357	0.210720	1.050659
Zn4	Zn	1.474588	-0.321115	0.545305
Zn5	Zn	1.807921	0.012218	0.878638
Zn6	Zn	2.141255	0.345551	1.211972
Zn7	Zn	1.313383	-0.321123	0.384028
Zn8	Zn	1.646716	0.012210	0.717361
Zn9	Zn	1.980050	0.345543	1.050695
Zn10	Zn	1.313361	-0.455902	0.545249
Zn11	Zn	1.646694	-0.122568	0.878582
Zn12	Zn	1.980028	0.210765	1.211916
O13	O	1.394006	-0.388522	0.464643
O14	O	1.727339	-0.055188	0.797977
O15	O	2.060672	0.278145	1.131310
O16	O	1.609658	-0.438076	0.405399
O17	O	1.942992	-0.104743	0.738732
O18	O	2.276325	0.228591	1.072065
O19	O	1.453170	-0.208284	0.523950
O20	O	1.786503	0.125049	0.857283
O21	O	2.119837	0.458383	1.190616
O22	O	1.334833	-0.339030	0.249042
O23	O	1.668166	-0.005697	0.582375
O24	O	2.001499	0.327637	0.915708
O25	O	1.609583	-0.339016	0.523915
O26	O	1.942916	-0.005683	0.857248
O27	O	2.276250	0.327650	1.190581
O28	O	1.453345	-0.438084	0.249015
O29	O	1.786678	-0.104751	0.582348
O30	O	2.120011	0.228583	0.915682
O31	O	1.334734	-0.208290	0.405460
O32	O	1.668067	0.125044	0.738794
O33	O	2.001400	0.458377	1.072127
O34	O	1.178399	-0.338987	0.405406
O35	O	1.511732	-0.005653	0.738739
O36	O	1.845065	0.327680	1.072073
O37	O	1.334795	-0.568740	0.523819
O38	O	1.668129	-0.235407	0.857153
O39	O	2.001462	0.097927	1.190486
O40	O	1.178382	-0.438008	0.523854
O41	O	1.511716	-0.104674	0.857188
O42	O	1.845049	0.228659	1.190521
O43	O	1.453323	-0.568773	0.405344
O44	O	1.786657	-0.235440	0.738678
O45	O	2.119990	0.097894	1.072011
O46	O	1.453149	-0.338973	0.680279
O47	O	1.786482	-0.005640	1.013613
O48	O	2.119815	0.327694	1.346946
O49	O	1.334696	-0.438000	0.680238
O50	O	1.668029	-0.104667	1.013571
O51	O	2.001363	0.228667	1.346905
C52	C	1.143391	-0.388494	0.464629
C53	C	1.476725	-0.055160	0.797962
C54	C	1.810058	0.278173	1.131295
C55	C	1.036177	-0.388501	0.464645
C56	C	1.369511	-0.055167	0.797979
C57	C	1.702844	0.278166	1.131312
C58	C	0.949108	-0.388514	0.464649
C59	C	1.282441	-0.055181	0.797982
C60	C	1.615774	0.278153	1.131315
C61	C	0.839875	-0.388539	0.464655
C62	C	1.173208	-0.055205	0.797989
C63	C	1.506542	0.278128	1.131322
C64	C	1.394068	-0.598831	0.464572
C65	C	1.727402	-0.265497	0.797905
C66	C	2.060735	0.067836	1.131238
C67	C	1.394095	-0.688452	0.464541
C68	C	1.727428	-0.355119	0.797874
C69	C	2.060762	-0.021785	1.131208
C70	C	1.394139	-1.016628	0.464433
C71	C	1.727473	-0.683294	0.797766
C72	C	2.060806	-0.349961	1.131100
C73	C	1.394124	-0.925319	0.464466
C74	C	1.727458	-0.591986	0.797799
C75	C	2.060791	-0.258653	1.131133
C76	C	1.394118	-0.852543	0.464488
C77	C	1.727451	-0.519209	0.797821
C78	C	2.060784	-0.185876	1.131154
C79	C	1.394102	-0.761228	0.464519
C80	C	1.727435	-0.427895	0.797853
C81	C	2.060768	-0.094562	1.131186
C82	C	1.645599	-0.388550	0.464659
C83	C	1.978932	-0.055217	0.797992
C84	C	2.312265	0.278116	1.131326
C85	C	1.752812	-0.388563	0.464666
C86	C	2.086146	-0.055229	0.797999
C87	C	2.419479	0.278104	1.131332
C88	C	1.393935	-0.388498	0.715258
C89	C	1.727269	-0.055165	1.048591
C90	C	2.060602	0.278168	1.381924
C91	C	1.393993	-0.388515	0.822472
C92	C	1.727327	-0.055182	1.155805
C93	C	2.060660	0.278151	1.489138
C94	C	1.393999	-0.179031	0.464645
C95	C	1.727332	0.154302	0.797979
C96	C	2.060665	0.487636	1.131312
C97	C	1.394159	-0.089410	0.464404
C98	C	1.727492	0.243923	0.797738
C99	C	2.060825	0.577256	1.131071
C100	C	1.394103	-0.388563	0.213050
C101	C	1.727436	-0.055229	0.546384
C102	C	2.060769	0.278104	0.879717
C103	C	1.394144	-0.388580	0.105836
C104	C	1.727477	-0.055247	0.439170
C105	C	2.060810	0.278086	0.772503
C106	C	1.394095	-0.388566	1.018767
C107	C	1.727428	-0.055233	1.352100
C108	C	2.060761	0.278101	1.685433
C109	C	1.394036	-0.388540	0.909534
C110	C	1.727369	-0.055207	1.242868
C111	C	2.060702	0.278126	1.576201
