data_functionalizedCrystal
_audit_creation_method	'MofGen! by Chris Wilmer'
_symmetry_space_group_name_H-M	'P1'
_symmetry_Int_Tables_number	1
_symmetry_cell_setting	triclinic
loop_
_symmetry_equiv_pos_as_xyz
  x,y,z
_cell_length_a	12.594517
_cell_length_b	18.050589
_cell_length_c	12.594510
_cell_angle_alpha	89.966598
_cell_angle_beta	89.977213
_cell_angle_gamma	90.028021
loop_
_atom_site_label
_atom_site_type_symbol
_atom_site_fract_x
_atom_site_fract_y
_atom_site_fract_z
Zn1	Zn	1.627192	-0.295599	-0.601864
Zn2	Zn	1.627041	-0.419815	-0.423887
Zn3	Zn	1.449192	-0.295643	-0.423893
Zn4	Zn	1.449141	-0.419751	-0.601817
O5	O	1.538141	-0.357702	-0.512865
O6	O	1.776118	-0.312085	-0.578272
O7	O	1.603407	-0.403389	-0.274942
O8	O	1.472889	-0.191713	-0.447523
O9	O	1.776007	-0.403346	-0.447513
O10	O	1.603665	-0.191680	-0.578278
O11	O	1.472742	-0.312160	-0.274946
O12	O	1.300239	-0.312098	-0.447478
O13	O	1.472802	-0.403237	-0.750769
O14	O	1.300202	-0.403280	-0.578198
O15	O	1.603615	-0.312023	-0.750804
O16	O	1.603357	-0.523732	-0.447468
O17	O	1.472655	-0.523685	-0.578192
C18	C	1.261600	-0.357687	-0.512834
C19	C	1.143295	-0.357699	-0.512846
C20	C	1.538013	-0.550655	-0.512848
C21	C	1.538055	-0.633200	-0.512876
C22	C	1.074031	-0.308038	-0.441883
C23	C	1.003199	-0.375782	-0.415704
C24	C	1.003328	-0.289988	-0.539043
C25	C	1.074021	-0.425479	-0.486616
C26	C	1.074156	-0.339640	-0.610001
C27	C	1.003356	-0.407430	-0.583858
C28	C	1.467049	-0.832652	-0.583939
C29	C	1.441098	-0.882104	-0.486814
C30	C	1.538160	-0.784331	-0.512890
C31	C	1.564163	-0.881960	-0.610026
C32	C	1.538259	-0.930316	-0.512911
C33	C	1.512158	-0.832695	-0.415713
C34	C	1.635268	-0.832547	-0.538991
C35	C	1.609354	-0.881977	-0.441799
C36	C	1.538100	-0.700232	-0.512878
C37	C	1.538319	-1.014412	-0.512912
C38	C	1.815762	-0.357718	-0.512897
C39	C	1.934068	-0.357724	-0.512911
C40	C	1.538220	-0.357618	-0.790486
C41	C	1.538253	-0.357582	-0.908792
C42	C	1.538299	-0.163997	-0.512906
C43	C	1.538367	-0.081451	-0.512924
C44	C	1.609428	-0.307956	-1.048827
C45	C	1.635395	-0.375720	-0.978007
C46	C	1.512333	-0.289825	-0.978040
C47	C	1.564315	-0.425360	-1.048758
C48	C	1.441208	-0.339419	-1.048797
C49	C	1.467138	-0.407230	-0.978009
C50	C	1.538125	-0.357733	-0.236324
C51	C	1.538297	-0.357560	-0.118019
H52	H	1.105063	-0.266082	-0.381797
H53	H	1.669532	-0.903498	-0.381655
C54	C	1.115793	-0.502873	-0.456582
N55	N	1.147259	-0.561164	-0.433956
C56	C	1.330346	-0.318641	-1.090846
N57	N	1.246845	-0.302982	-1.122521
H58	H	0.972033	-0.391072	-0.333570
H59	H	0.972519	-0.449487	-0.643897
H60	H	0.972219	-0.232723	-0.561137
C61	C	1.482365	-0.803583	-0.304718
N62	N	1.459920	-0.781654	-0.221120
C63	C	1.116306	-0.318951	-0.720923
N64	N	1.148058	-0.303360	-0.804469
C65	C	1.690777	-0.251345	-1.090841
N66	N	1.752052	-0.208709	-1.122487
H67	H	1.490393	-0.232534	-0.946973
C68	C	1.385874	-0.463982	-0.936225
N69	N	1.324679	-0.506730	-0.904739
H70	H	1.717482	-0.391077	-0.946910
C71	C	1.385690	-0.803385	-0.664990
N72	N	1.324408	-0.781339	-0.726031
H73	H	1.717324	-0.810765	-0.561093
C74	C	1.330213	-0.911512	-0.456993
N75	N	1.246693	-0.933659	-0.434540
C76	C	1.593824	-0.911196	-0.720990
N77	N	1.616156	-0.933213	-0.804571
C78	C	1.594095	-0.502779	-1.090544
N79	N	1.616530	-0.561089	-1.122021
