data_functionalizedCrystal
_audit_creation_method	'MofGen! by Chris Wilmer'
_symmetry_space_group_name_H-M	'P1'
_symmetry_Int_Tables_number	1
_symmetry_cell_setting	triclinic
loop_
_symmetry_equiv_pos_as_xyz
  x,y,z
_cell_length_a	16.974959
_cell_length_b	16.109301
_cell_length_c	16.053934
_cell_angle_alpha	92.567699
_cell_angle_beta	88.925772
_cell_angle_gamma	96.567540
loop_
_atom_site_label
_atom_site_type_symbol
_atom_site_fract_x
_atom_site_fract_y
_atom_site_fract_z
O1	O	0.104619	-1.099908	0.062316
O2	O	0.117227	-0.857878	0.061479
O3	O	-0.003808	-0.985243	0.069633
O4	O	0.225654	-0.972543	0.054162
O5	O	-0.010447	-0.992215	-0.068776
O6	O	0.110588	-0.864851	-0.076930
O7	O	0.097980	-1.106880	-0.076093
Zn8	Zn	0.103230	-0.986972	-0.098487
Zn9	Zn	0.111977	-0.977786	0.083873
O10	O	0.219015	-0.979516	-0.084247
C11	C	0.113397	-0.830388	-0.007689
C12	C	0.111866	-0.738089	-0.007581
N13	N	0.097259	-0.993248	-0.222942
C14	C	-0.036490	-0.988113	0.002410
C15	C	-0.123980	-0.986269	0.008315
C16	C	-0.616075	-0.975552	0.049742
C17	C	-0.533868	-0.977277	0.044177
C18	C	-0.496399	-0.981934	-0.034052
C19	C	-0.541143	-0.984874	-0.106721
C20	C	-0.623349	-0.983154	-0.101155
C21	C	-0.250930	-0.987490	-0.058788
C22	C	-0.168718	-0.989207	-0.064349
C23	C	-0.161449	-0.981611	0.086551
C24	C	-0.243656	-0.979887	0.092110
C25	C	-0.288393	-0.982831	0.019441
N26	N	-0.412371	-0.983695	-0.039742
N27	N	-0.372421	-0.981076	0.025132
C28	C	0.251697	-0.976645	-0.017022
C29	C	0.339187	-0.978489	-0.022921
C30	C	0.101810	-1.134370	-0.006922
C31	C	0.103341	-1.226670	-0.007025
C32	C	0.180125	-0.515995	-0.012193
C33	C	0.178680	-0.429271	-0.012101
C34	C	0.035077	-0.448770	-0.002415
C35	C	0.036522	-0.535493	-0.002513
C36	C	0.109049	-0.569102	-0.007398
C37	C	0.106158	-0.395656	-0.007208
C38	C	0.104591	-0.301626	-0.007108
C39	C	0.110616	-0.663138	-0.007500
C40	C	0.148741	-0.939044	-0.270125
C41	C	0.144561	-0.943458	-0.357249
C42	C	0.088896	-1.002073	-0.397187
C43	C	0.037412	-1.056283	-0.349998
C44	C	0.041596	-1.051872	-0.262877
C45	C	0.070641	-1.021317	-0.657360
C46	C	0.066460	-1.025721	-0.744488
C47	C	0.173610	-0.912897	-0.751732
C48	C	0.177786	-0.908488	-0.664609
C49	C	0.126305	-0.962701	-0.617427
N50	N	0.084621	-1.006584	-0.486242
N51	N	0.130585	-0.958193	-0.528375
N52	N	0.117941	-0.971517	0.208329
H53	H	-0.646575	-0.971752	0.113445
H54	H	-0.510630	-0.988671	-0.170417
Cl55	Cl	-0.290754	-0.974035	0.190459
Cl56	Cl	0.271300	-0.558245	-0.018339
H57	H	-0.497447	-0.974887	0.103348
H58	H	-0.138210	-0.992974	-0.128056
H59	H	-0.659774	-0.985546	-0.160326
H60	H	-0.021360	-0.578735	0.001389
H61	H	0.215524	-0.868760	-0.790155
H62	H	-0.000324	-1.096012	-0.224461
H63	H	0.236557	-0.386034	-0.016007
Cl64	Cl	-0.056094	-0.406511	0.003731
H65	H	-0.007909	-1.104013	-0.382522
Cl66	Cl	-0.105206	-0.977928	0.177900
H67	H	0.028722	-1.065458	-0.618952
Cl68	Cl	0.218720	-0.865348	-0.219926
H69	H	0.021127	-1.073455	-0.777001
Cl70	Cl	-0.307159	-0.991183	-0.150145
H71	H	0.186482	-0.899321	-0.395665
Cl72	Cl	0.247765	-0.834799	-0.614400
