data_functionalizedCrystal
_audit_creation_method	'MofGen! by Chris Wilmer'
_symmetry_space_group_name_H-M	'P1'
_symmetry_Int_Tables_number	1
_symmetry_cell_setting	triclinic
loop_
_symmetry_equiv_pos_as_xyz
  x,y,z
_cell_length_a	14.044220
_cell_length_b	15.944551
_cell_length_c	12.503572
_cell_angle_alpha	93.522593
_cell_angle_beta	86.164750
_cell_angle_gamma	88.343808
loop_
_atom_site_label
_atom_site_type_symbol
_atom_site_fract_x
_atom_site_fract_y
_atom_site_fract_z
O1	O	1.263178	0.198062	-0.089210
O2	O	0.987210	0.190753	-0.089237
O3	O	1.132730	0.072697	-0.089213
O4	O	1.117659	0.316117	-0.089234
O5	O	1.121786	0.081592	0.089427
O6	O	0.976267	0.199647	0.089403
O7	O	1.252235	0.206956	0.089430
Cu8	Cu	1.113251	0.204114	0.105728
Cu9	Cu	1.126194	0.193595	-0.105535
O10	O	1.106715	0.325012	0.089406
C11	C	0.946424	0.192001	0.000079
C12	C	0.841198	0.182459	0.000069
C13	C	0.648534	0.165017	0.000092
C14	C	0.590906	0.232688	0.000091
C15	C	0.483701	0.222983	0.000104
C16	C	0.755749	0.174721	0.000079
C17	C	1.126632	0.045804	0.000107
C18	C	1.124756	-0.047583	0.000107
C19	C	1.030073	-0.269530	0.000083
C20	C	1.068645	-0.322870	0.088168
C21	C	1.121363	-0.218563	0.000099
C22	C	1.079457	-0.331621	-0.087957
C23	C	1.118079	-0.383722	0.000086
C24	C	1.159956	-0.270669	0.088256
C25	C	1.170759	-0.279418	-0.087948
C26	C	1.209396	-0.332734	0.000158
C27	C	1.123252	-0.123419	0.000107
C28	C	1.116197	-0.478865	0.000085
C29	C	1.293021	0.205708	0.000111
C30	C	1.398247	0.215249	0.000114
C31	C	1.112813	0.351905	0.000083
C32	C	1.114689	0.445291	0.000076
N33	N	1.104155	0.211512	0.254318
N34	N	1.135297	0.186191	-0.254126
C35	C	1.090774	0.222403	0.473431
C36	C	1.148675	0.175303	0.526768
C37	C	1.141230	0.181362	0.648690
C38	C	1.098218	0.216344	0.351498
H39	H	0.617360	0.099799	0.000104
C40	C	1.010329	-0.348940	0.188756
H41	H	1.050041	-0.381384	0.230231
H42	H	0.958353	-0.381441	0.167582
H43	H	0.986626	-0.300068	0.230523
H44	H	0.954293	-0.241893	0.000164
C45	C	1.205896	-0.234753	0.188973
H46	H	1.206771	-0.175226	0.188383
H47	H	1.269390	-0.256913	0.189239
H48	H	1.169847	-0.249950	0.251438
C49	C	1.311841	-0.369863	0.000234
H50	H	1.340276	-0.348816	0.062861
H51	H	1.348307	-0.354279	-0.061738
H52	H	1.310136	-0.429408	-0.000351
H53	H	1.203838	0.130429	0.480864
C54	C	0.633016	0.320799	0.000059
H55	H	0.700592	0.315849	0.000040
H56	H	0.608421	0.353563	0.062346
H57	H	0.616028	0.347335	-0.062253
C58	C	1.229036	-0.253320	-0.188540
H59	H	1.200338	-0.274212	-0.251069
H60	H	1.292422	-0.275904	-0.189168
H61	H	1.230280	-0.193735	-0.187456
C62	C	1.033444	-0.367669	-0.188557
H63	H	0.969740	-0.345916	-0.188448
H64	H	1.033107	-0.427219	-0.188190
H65	H	1.069088	-0.352092	-0.251101
H66	H	1.035617	0.267275	0.519330
