data_functionalizedCrystal
_audit_creation_method	'MofGen! by Chris Wilmer'
_symmetry_space_group_name_H-M	'P1'
_symmetry_Int_Tables_number	1
_symmetry_cell_setting	triclinic
loop_
_symmetry_equiv_pos_as_xyz
  x,y,z
_cell_length_a	31.640172
_cell_length_b	14.395555
_cell_length_c	14.395555
_cell_angle_alpha	119.996993
_cell_angle_beta	89.995931
_cell_angle_gamma	59.999894
loop_
_atom_site_label
_atom_site_type_symbol
_atom_site_fract_x
_atom_site_fract_y
_atom_site_fract_z
Zr1	Zr	0.407199	1.016664	0.121794
O2	O	0.339717	1.210459	0.270134
O3	O	0.427885	0.822868	0.076318
O4	O	0.427893	1.016639	0.270105
O5	O	0.339704	1.016708	-0.076515
O6	O	0.497450	1.016620	0.270085
O7	O	0.339708	1.016688	0.076346
O8	O	0.497435	0.669999	-0.076566
O9	O	0.339719	1.363329	0.270136
O10	O	0.488618	0.902564	0.056910
O11	O	0.436706	0.902593	-0.057153
O12	O	0.436715	1.130734	0.171007
O13	O	0.384802	1.130763	0.056944
Zr14	Zr	0.518128	1.016664	-0.122034
Zr15	Zr	0.518135	1.016633	0.121761
Zr16	Zr	0.407192	1.016695	-0.122002
Zr17	Zr	0.407203	1.260473	0.121798
Zr18	Zr	0.518124	0.772855	-0.122038
O19	O	0.497443	1.210460	-0.076558
O20	O	0.497453	1.210415	0.270088
O21	O	0.339707	1.210503	-0.076512
O22	O	0.585611	0.822868	-0.270374
O23	O	0.585621	0.822824	0.076271
O24	O	0.427875	0.822912	-0.270328
O25	O	0.585623	1.016620	0.076274
O26	O	0.497434	1.016689	-0.270346
O27	O	0.427877	1.016708	-0.270325
O28	O	0.585619	1.016639	-0.076587
O29	O	0.427898	1.363304	0.270111
O30	O	0.497430	0.670023	-0.270351
O31	O	0.585608	0.669999	-0.270377
O32	O	0.585614	0.669974	-0.076592
O33	O	0.339713	1.363353	0.076352
O34	O	0.427892	1.363329	0.076326
O35	O	0.488612	0.902594	-0.171247
O36	O	0.540525	0.902565	-0.057184
O37	O	0.488622	1.130734	0.056913
O38	O	0.436709	1.130763	-0.057150
C39	C	0.462659	0.711696	-0.000125
C40	C	0.462658	0.608192	-0.000126
C41	C	0.434354	0.547616	-0.062322
C42	C	0.413845	0.561864	0.044954
C43	C	0.483155	0.409548	-0.107370
C44	C	0.442120	0.623867	0.107213
C45	C	0.511457	0.471488	-0.045189
C46	C	0.490960	0.485783	0.062152
C47	C	0.323900	1.016702	-0.000079
C48	C	0.276805	1.016715	-0.000066
C49	C	0.011892	0.897549	-0.059701
C50	C	-0.165093	0.897527	-0.059723
O51	O	-0.164937	0.796234	-0.110416
N52	N	-0.214316	1.016628	-0.000164
C53	C	-0.219291	1.135743	0.059399
O54	O	-0.265219	1.237045	0.110047
C55	C	-0.042307	1.135764	0.059414
C56	C	0.006916	1.016656	-0.000140
C57	C	0.061112	0.778450	-0.119250
C58	C	0.105356	0.778457	-0.119239
C59	C	0.100379	0.897563	-0.059678
C60	C	0.051159	1.016662	-0.000128
C61	C	-0.047283	1.254878	0.118969
C62	C	-0.003031	1.254873	0.118965
C63	C	0.046191	1.135764	0.059412
C64	C	0.090426	1.135775	0.059444
N65	N	0.139648	1.016674	-0.000115
C66	C	0.144625	0.897568	-0.059676
C67	C	-0.312209	1.135723	0.059388
C68	C	-0.356455	1.135718	0.059386
C69	C	-0.302253	0.897501	-0.059737
C70	C	-0.258007	0.897508	-0.059728
C71	C	-0.262986	1.016622	-0.000171
C72	C	0.237537	0.897592	-0.059647
C73	C	0.281782	0.897609	-0.059627
C74	C	0.227577	1.135825	0.059492
C75	C	0.183336	1.135809	0.059477
C76	C	0.188319	1.016681	-0.000101
O77	O	0.090309	1.237015	0.110100
O78	O	0.190557	0.796281	-0.110338
C79	C	-0.032351	0.897542	-0.059712
C80	C	-0.081571	1.016642	-0.000162
C81	C	-0.086548	1.135748	0.059399
C82	C	-0.125817	1.016637	-0.000164
C83	C	-0.120841	0.897531	-0.059725
C84	C	-0.071618	0.778429	-0.119284
C85	C	-0.027375	0.778436	-0.119273
C86	C	-0.135770	1.254849	0.118958
C87	C	-0.180012	1.254832	0.118943
C88	C	-0.175035	1.135726	0.059382
C89	C	0.601427	1.016625	-0.000161
C90	C	0.648522	1.016612	-0.000175
C91	C	0.462672	1.016625	0.304831
C92	C	0.462675	1.016612	0.408328
C93	C	0.462668	1.321632	-0.000116
C94	C	0.462669	1.425135	-0.000114
C95	C	0.490979	0.892199	0.406704
C96	C	0.442172	0.954395	0.499737
C97	C	0.511475	0.954405	0.499716
C98	C	0.413840	1.078809	0.499998
C99	C	0.483177	1.078801	0.499963
C100	C	0.434341	1.141088	0.593014
C101	C	0.462661	1.016682	0.694919
C102	C	0.462677	1.016633	0.591390
C103	C	0.601423	0.711657	-0.000165
C104	C	0.648516	0.608141	-0.000181
C105	C	0.462651	0.711735	-0.305076
C106	C	0.462646	0.608244	-0.408575
C107	C	0.601414	0.711696	-0.305116
C108	C	0.648505	0.608193	-0.408629
C109	C	0.323913	1.321631	0.304876
C110	C	0.276823	1.425135	0.408389
C111	C	0.323904	1.321670	-0.000075
C112	C	0.276811	1.425187	-0.000060
C113	C	0.462677	1.321593	0.304835
C114	C	0.462681	1.425083	0.408335
C115	C	0.643537	0.559528	0.059378
C116	C	0.687783	0.462277	0.059386
C117	C	0.737006	0.413633	-0.000171
C118	C	0.741984	0.462256	-0.059732
C119	C	0.697739	0.559512	-0.059733
C120	C	0.697721	0.559572	-0.397700
C121	C	0.741972	0.462333	-0.494952
C122	C	0.737005	0.413711	-0.603132
C123	C	0.687783	0.462342	-0.614059
C124	C	0.643533	0.559585	-0.516808
C125	C	0.227606	1.473768	0.397460
C126	C	0.183355	1.571037	0.494712
C127	C	0.188322	1.619664	0.602892
C128	C	0.237544	1.571027	0.613819
C129	C	0.281794	1.473766	0.516568
C130	C	0.281790	1.473810	-0.059608
C131	C	0.237545	1.571088	-0.059590
C132	C	0.188321	1.619735	-0.000028
C133	C	0.183343	1.571108	0.059527
C134	C	0.227588	1.473838	0.059515
C135	C	0.434341	0.547667	-0.406953
C136	C	0.483149	0.409564	-0.499983
C137	C	0.413848	0.561916	-0.499968
C138	C	0.511482	0.471442	-0.500242
C139	C	0.442147	0.623867	-0.500212
C140	C	0.490983	0.485774	-0.593260
H141	H	0.500484	0.317946	-0.198070
H142	H	0.321867	1.434170	0.525480
H143	H	-0.220089	1.351833	0.167449
H144	H	0.321866	1.434208	-0.108117
H145	H	0.773040	0.334528	-0.682311
H146	H	0.241582	1.610632	0.701911
H147	H	0.683746	0.422739	-0.702152
H148	H	-0.067573	0.681449	-0.167774
H149	H	0.603461	0.599133	0.107891
H150	H	0.683719	0.422701	0.107887
H151	H	0.552770	0.434055	-0.499430
H152	H	0.701801	0.599079	-0.108239
H153	H	0.223551	1.434181	0.309383
H154	H	0.773029	0.334440	-0.000162
H155	H	0.321861	0.800612	-0.108126
H156	H	0.241608	1.610663	-0.108091
H157	H	0.152298	1.698938	-0.000028
H158	H	0.372581	0.599056	0.083079
H159	H	-0.316271	1.232726	0.107895
H160	H	0.500532	1.131329	0.498984
H161	H	0.782068	0.422636	-0.108221
H162	H	0.514873	0.787005	0.326939
H163	H	0.223527	1.434252	0.108003
H164	H	0.143259	1.610731	0.108020
H165	H	0.410445	0.574748	-0.327191
H166	H	0.701776	0.599146	-0.309623
H167	H	0.782047	0.422747	-0.486035
H168	H	0.603460	0.599160	-0.525723
H169	H	0.500491	0.317939	-0.500917
H170	H	0.552745	0.901796	0.500602
H171	H	0.552712	0.434315	-0.083340
H172	H	0.143280	1.610621	0.485793
H173	H	0.152287	1.698859	0.682071
H174	H	0.514953	0.458748	-0.672892
H175	H	0.424792	0.715526	-0.499220
H176	H	0.372581	0.599101	-0.500871
H177	H	-0.298208	0.800520	-0.108227
H178	H	0.424742	0.715426	0.197956
H179	H	0.514894	0.458826	0.114828
H180	H	0.410387	0.574855	-0.114840
H181	H	-0.087355	1.351870	0.167463
H182	H	0.145431	0.681466	-0.167729
H183	H	0.065173	0.681454	-0.167758
H184	H	0.241603	0.800587	-0.108162
H185	H	0.410373	1.246371	0.672647
H186	H	-0.396530	1.232709	0.107895
H187	H	-0.007092	1.351873	0.167450
H188	H	-0.217931	0.800519	-0.108232
H189	H	0.143256	1.232797	0.107985
H190	H	0.372552	1.131361	0.499190
H191	H	0.223533	1.232798	0.107989
H192	H	-0.139831	1.351842	0.167462
H193	H	0.012701	0.681445	-0.167770
H194	H	0.424830	0.901821	0.500673
