data_functionalizedCrystal
_audit_creation_method	'MofGen! by Chris Wilmer'
_symmetry_space_group_name_H-M	'P1'
_symmetry_Int_Tables_number	1
_symmetry_cell_setting	triclinic
loop_
_symmetry_equiv_pos_as_xyz
  x,y,z
_cell_length_a	13.339070
_cell_length_b	17.038272
_cell_length_c	12.376457
_cell_angle_alpha	102.103643
_cell_angle_beta	75.589755
_cell_angle_gamma	103.370425
loop_
_atom_site_label
_atom_site_type_symbol
_atom_site_fract_x
_atom_site_fract_y
_atom_site_fract_z
O1	O	1.395122	0.388434	-0.094053
O2	O	1.895122	0.888434	0.405947
O3	O	1.096082	0.336008	-0.094045
O4	O	1.596082	0.836008	0.405955
O5	O	1.243823	0.248021	-0.094040
O6	O	1.743823	0.748021	0.405960
O7	O	1.247381	0.476421	-0.094058
O8	O	1.747381	0.976421	0.405942
O9	O	1.206898	0.269979	0.093971
O10	O	1.706898	0.769979	0.593971
O11	O	1.059157	0.357966	0.093966
O12	O	1.559157	0.857966	0.593966
O13	O	1.358198	0.410392	0.093958
O14	O	1.858198	0.910392	0.593958
Zn15	Zn	1.202815	0.387665	0.123813
Zn16	Zn	1.702815	0.887665	0.623813
Zn17	Zn	1.251465	0.358734	-0.123900
Zn18	Zn	1.751465	0.858734	0.376100
O19	O	1.210456	0.498379	0.093953
O20	O	1.710456	0.998379	0.593953
C21	C	1.039168	0.338131	-0.000039
C22	C	1.539168	0.838131	0.499961
C23	C	0.924594	0.311734	-0.000035
C24	C	1.424594	0.811734	0.499965
C25	C	1.222128	0.229169	-0.000034
C26	C	1.722128	0.729169	0.499966
C27	C	1.212482	0.140282	-0.000034
C28	C	1.712482	0.640282	0.499966
C29	C	0.577472	0.516981	-0.000069
C30	C	1.077472	1.016981	0.499931
C31	C	0.685120	0.541784	-0.000076
C32	C	1.185120	1.041784	0.499924
C33	C	0.744994	0.484274	-0.000065
C34	C	1.244994	0.984274	0.499935
C35	C	0.697208	0.401956	-0.000049
C36	C	1.197208	0.901956	0.499951
C37	C	0.589551	0.377149	-0.000051
C38	C	1.089551	0.877149	0.499949
C39	C	0.757073	0.344442	-0.000047
C40	C	1.257073	0.844442	0.499953
C41	C	0.709288	0.262125	-0.000031
C42	C	1.209288	0.762125	0.499969
C43	C	0.601640	0.237322	-0.000033
C44	C	1.101640	0.737322	0.499967
C45	C	0.541767	0.294832	-0.000043
C46	C	1.041767	0.794832	0.499957
C47	C	0.864731	0.369249	-0.000045
C48	C	1.364731	0.869249	0.499955
C49	C	0.876810	0.229417	-0.000027
C50	C	1.376810	0.729417	0.499973
C51	C	0.769161	0.204614	-0.000021
C52	C	1.269161	0.704614	0.499979
C53	C	1.301039	0.109396	-0.000036
C54	C	1.801039	0.609396	0.499964
C55	C	1.291972	0.025875	-0.000046
C56	C	1.791972	0.525875	0.499954
C57	C	1.194346	-0.026757	-0.000047
C58	C	1.694346	0.473243	0.499953
C59	C	1.105783	0.004133	-0.000050
C60	C	1.605783	0.504133	0.499950
C61	C	1.114852	0.087652	-0.000047
C62	C	1.614852	0.587652	0.499953
C63	C	1.162306	-0.279475	-0.000062
C64	C	1.662306	0.220525	0.499938
C65	C	1.153242	-0.362998	-0.000061
C66	C	1.653242	0.137002	0.499939
C67	C	1.339433	-0.341250	-0.000060
C68	C	1.839433	0.158750	0.499940
C69	C	1.348493	-0.257730	-0.000050
C70	C	1.848493	0.242270	0.499950
C71	C	1.259931	-0.226847	-0.000059
C72	C	1.759931	0.273153	0.499941
C73	C	1.185075	-0.112129	-0.000055
C74	C	1.685075	0.387871	0.499945
C75	C	1.269204	-0.141478	-0.000059
C76	C	1.769204	0.358522	0.499941
C77	C	1.415112	0.408268	-0.000051
C78	C	1.915112	0.908268	0.499949
C79	C	1.529688	0.434664	-0.000061
C80	C	2.029688	0.934664	0.499939
C81	C	1.232152	0.517230	-0.000055
C82	C	1.732152	1.017230	0.499945
C83	C	1.241799	0.606116	-0.000062
C84	C	1.741799	1.106116	0.499938
N85	N	1.169620	0.407411	0.292870
N86	N	1.669620	0.907411	0.792870
N87	N	1.284667	0.338984	-0.292957
N88	N	1.784667	0.838984	0.207043
C89	C	1.361722	0.293132	0.647862
C90	C	1.861722	0.793132	1.147862
C91	C	1.384949	0.279311	0.529523
C92	C	1.884949	0.779311	1.029523
C93	C	1.331119	0.311334	0.470354
C94	C	1.831119	0.811334	0.970354
C95	C	1.254057	0.357182	0.529535
C96	C	1.754057	0.857182	1.029535
C97	C	1.230833	0.371011	0.647886
C98	C	1.730833	0.871011	1.147886
C99	C	1.200230	0.389213	0.470378
C100	C	1.700230	0.889213	0.970378
C101	C	1.123169	0.435061	0.529560
C102	C	1.623169	0.935061	1.029560
C103	C	1.099948	0.448886	0.647899
C104	C	1.599948	0.948886	1.147899
C105	C	1.153779	0.416863	0.707068
C106	C	1.653779	0.916863	1.207068
C107	C	1.223454	0.375385	0.352027
C108	C	1.723454	0.875385	0.852027
C109	C	1.092565	0.453263	0.352052
C110	C	1.592565	0.953263	0.852052
C111	C	1.069338	0.467084	0.470391
C112	C	1.569338	0.967084	0.970391
H113	H	0.903626	0.436273	-0.000054
H114	H	1.403626	0.936273	0.499946
F115	F	0.940528	0.168205	-0.000024
F116	F	1.440528	0.668205	0.499976
F117	F	1.001883	-0.051887	-0.000064
F118	F	1.501883	0.448113	0.499936
H119	H	1.037209	0.486226	0.696084
H120	H	1.537209	0.986226	1.196084
H121	H	0.528716	0.563796	-0.000088
H122	H	1.028716	1.063796	0.499912
H123	H	0.730240	0.137588	-0.000017
H124	H	1.230240	0.637588	0.499983
H125	H	0.832647	0.504474	-0.000073
H126	H	1.332647	1.004474	0.499927
H127	H	1.006593	0.504415	0.518591
H128	H	1.506593	1.004415	1.018591
H129	H	0.724021	0.608806	-0.000098
H130	H	1.224021	1.108806	0.499902
F131	F	0.427192	0.268439	-0.000033
F132	F	0.927192	0.768439	0.499967
H133	H	1.105586	-0.154992	-0.000053
H134	H	1.605586	0.345008	0.499947
F135	F	1.049329	-0.419013	-0.000057
F136	F	1.549329	0.080987	0.499943
H137	H	1.427990	-0.214880	-0.000049
H138	H	1.927990	0.285120	0.499951
H139	H	0.562739	0.170292	-0.000032
H140	H	1.062739	0.670292	0.499968
H141	H	1.048733	0.479342	0.303877
H142	H	1.548733	0.979342	0.803877
H143	H	1.447693	0.241983	0.481341
H144	H	1.947693	0.741983	0.981341
F145	F	1.419012	0.259062	0.710837
F146	F	1.919012	0.759062	1.210837
F147	F	1.068050	-0.246618	-0.000074
F148	F	1.568050	0.253382	0.499926
H149	H	1.380536	0.152246	-0.000027
H150	H	1.880536	0.652246	0.499973
F151	F	1.020598	0.120521	-0.000050
F152	F	1.520598	0.620521	0.499950
F153	F	1.355839	0.296622	0.344406
F154	F	1.855839	0.796622	0.844406
F155	F	1.386227	-0.006991	-0.000045
F156	F	1.886227	0.493009	0.499955
F157	F	1.433680	-0.374124	-0.000052
F158	F	1.933680	0.125876	0.499948
F159	F	1.373104	-0.085462	-0.000065
F160	F	1.873104	0.414538	0.499935
F161	F	1.129054	0.431569	0.833020
F162	F	1.629054	0.931569	1.333020
H163	H	1.286198	0.338055	0.303852
H164	H	1.786198	0.838055	0.803852
