data_functionalizedCrystal
_audit_creation_method	'MofGen! by Chris Wilmer'
_symmetry_space_group_name_H-M	'P1'
_symmetry_Int_Tables_number	1
_symmetry_cell_setting	triclinic
loop_
_symmetry_equiv_pos_as_xyz
  x,y,z
_cell_length_a	10.686154
_cell_length_b	11.169416
_cell_length_c	11.169409
_cell_angle_alpha	89.972049
_cell_angle_beta	85.654236
_cell_angle_gamma	85.616470
loop_
_atom_site_label
_atom_site_type_symbol
_atom_site_fract_x
_atom_site_fract_y
_atom_site_fract_z
Zn1	Zn	-1.929201	-0.336868	-0.538128
Zn2	Zn	-1.929102	-0.537615	-0.337468
Zn3	Zn	-1.718182	-0.352343	-0.352825
Zn4	Zn	-1.718212	-0.552911	-0.553466
O5	O	-1.823674	-0.444934	-0.445472
O6	O	-2.105758	-0.350619	-0.498664
O7	O	-1.901068	-0.513114	-0.171559
O8	O	-1.746203	-0.182338	-0.377415
O9	O	-2.105685	-0.498108	-0.351240
O10	O	-1.901238	-0.170969	-0.513556
O11	O	-1.746107	-0.376995	-0.182842
O12	O	-1.541616	-0.391827	-0.392287
O13	O	-1.746255	-0.524177	-0.719377
O14	O	-1.541638	-0.539183	-0.539696
O15	O	-1.901267	-0.365451	-0.708109
O16	O	-1.901097	-0.707596	-0.366112
O17	O	-1.746158	-0.718834	-0.524805
C18	C	-1.495845	-0.468845	-0.469323
C19	C	-1.355598	-0.479103	-0.479555
C20	C	-1.823654	-0.756760	-0.445480
C21	C	-1.823761	-0.890152	-0.445515
C22	C	-1.823775	-0.444794	-0.758507
C23	C	-1.823818	-0.444734	-0.891904
C24	C	-1.152784	-0.420919	-0.421520
C25	C	-1.293031	-0.410656	-0.411293
C26	C	-1.823729	-0.131888	-0.445488
C27	C	-1.823752	0.001514	-0.445494
C28	C	-1.823646	-0.444982	-0.133649
C29	C	-1.823847	-0.444686	-0.000235
H30	H	-1.301864	-0.545561	-0.545823
H31	H	-1.346759	-0.344209	-0.345022
