data_functionalizedCrystal
_audit_creation_method	'MofGen! by Chris Wilmer'
_symmetry_space_group_name_H-M	'P1'
_symmetry_Int_Tables_number	1
_symmetry_cell_setting	triclinic
loop_
_symmetry_equiv_pos_as_xyz
  x,y,z
_cell_length_a	12.811445
_cell_length_b	14.044220
_cell_length_c	11.892095
_cell_angle_alpha	85.756173
_cell_angle_beta	99.333684
_cell_angle_gamma	88.596493
loop_
_atom_site_label
_atom_site_type_symbol
_atom_site_fract_x
_atom_site_fract_y
_atom_site_fract_z
O1	O	1.420300	0.112366	0.239596
O2	O	1.920300	0.612366	0.739596
O3	O	1.113962	0.128263	0.208197
O4	O	1.613962	0.628263	0.708197
O5	O	1.262532	-0.017657	0.223414
O6	O	1.762532	0.482343	0.723414
O7	O	1.271730	0.258286	0.224379
O8	O	1.771730	0.758286	0.724379
O9	O	1.250143	-0.005509	0.034138
O10	O	1.750143	0.494491	0.534138
O11	O	1.101573	0.140411	0.018921
O12	O	1.601573	0.640411	0.518921
O13	O	1.407910	0.124514	0.050320
O14	O	1.907910	0.624514	0.550320
Zn15	Zn	1.252775	0.134391	0.004569
Zn16	Zn	1.752775	0.634391	0.504569
Zn17	Zn	1.269098	0.118386	0.253949
Zn18	Zn	1.769098	0.618386	0.753949
O19	O	1.259341	0.270434	0.035103
O20	O	1.759341	0.770434	0.535103
C21	C	1.068326	0.133818	0.109516
C22	C	1.568326	0.633818	0.609516
C23	C	0.950803	0.132258	0.097470
C24	C	1.450803	0.632258	0.597470
C25	C	1.252312	-0.046887	0.128363
C26	C	1.752312	0.453113	0.628363
C27	C	1.240305	-0.152081	0.127131
C28	C	1.740305	0.347919	0.627131
C29	C	0.743468	0.116101	0.281204
C30	C	1.243468	0.616101	0.781204
C31	C	0.633044	0.114636	0.269891
C32	C	1.133044	0.614636	0.769891
C33	C	0.619529	0.127869	0.063530
C34	C	1.119529	0.627869	0.563530
C35	C	0.729953	0.129335	0.074844
C36	C	1.229953	0.629335	0.574844
C37	C	0.791918	0.123449	0.183684
C38	C	1.291918	0.623449	0.683684
C39	C	0.902345	0.124907	0.194997
C40	C	1.402345	0.624907	0.694997
C41	C	0.888827	0.138147	-0.011362
C42	C	1.388827	0.638147	0.488638
C43	C	0.778403	0.136682	-0.022676
C44	C	1.278403	0.636682	0.477324
C45	C	1.218354	-0.344685	0.124897
C46	C	1.718354	0.155315	0.624897
C47	C	1.303515	-0.402544	0.133630
C48	C	1.803515	0.097456	0.633630
C49	C	1.291301	-0.509716	0.132387
C50	C	1.791301	-0.009716	0.632387
C51	C	1.230566	-0.237504	0.126140
C52	C	1.730566	0.262496	0.626140
C53	C	1.453547	0.118959	0.149003
C54	C	1.953547	0.618959	0.649003
C55	C	1.571071	0.120518	0.161057
C56	C	2.071071	0.620518	0.661057
C57	C	1.269561	0.299664	0.130157
C58	C	1.769561	0.799664	0.630157
C59	C	1.281569	0.404857	0.131396
C60	C	1.781569	0.904857	0.631396
N61	N	1.241642	0.145314	-0.165626
N62	N	1.741642	0.645314	0.334374
C63	C	1.357699	0.031397	-0.390387
C64	C	1.857699	0.531397	0.109613
C65	C	1.349926	0.039038	-0.509525
C66	C	1.849926	0.539038	-0.009525
C67	C	1.218317	0.168234	-0.523042
C68	C	1.718317	0.668234	-0.023042
C69	C	1.226091	0.160592	-0.403904
C70	C	1.726091	0.660592	0.096096
C71	C	1.295785	0.092172	-0.337580
C72	C	1.795785	0.592172	0.162420
C73	C	1.303563	0.084536	-0.218440
C74	C	1.803563	0.584536	0.281560
C75	C	1.171950	0.213726	-0.231960
C76	C	1.671950	0.713726	0.268040
C77	C	1.164177	0.221368	-0.351098
C78	C	1.664177	0.721368	0.148902
N79	N	1.280238	0.107456	0.424144
N80	N	1.780238	0.607456	0.924144
H81	H	0.952796	0.120114	0.283621
H82	H	1.452796	0.620114	0.783621
H83	H	1.107430	0.277072	-0.405113
H84	H	1.607430	0.777072	0.094887
Br85	Br	1.081552	-0.396275	0.110885
Br86	Br	1.581552	0.103725	0.610885
H87	H	1.360314	0.028827	-0.164439
H88	H	1.860314	0.528827	0.335561
Br89	Br	1.452296	-0.061443	-0.300371
Br90	Br	1.952296	0.438557	0.199629
Br91	Br	0.567291	0.104670	0.402244
Br92	Br	1.067291	0.604670	0.902244
Br93	Br	1.440326	-0.350956	0.147643
Br94	Br	1.940326	0.149044	0.647643
H95	H	1.400341	-0.010452	-0.552516
H96	H	1.900341	0.489548	-0.052516
Br97	Br	1.123722	0.261072	-0.613065
Br98	Br	1.623722	0.761072	-0.113065
Br99	Br	1.087931	0.296219	-0.160283
Br100	Br	1.587931	0.796219	0.339717
H101	H	0.569057	0.132670	-0.025083
H102	H	1.069057	0.632670	0.474917
Br103	Br	0.827570	0.108095	0.428911
Br104	Br	1.327570	0.608095	0.928911
Br105	Br	0.694298	0.144677	-0.170381
Br106	Br	1.194298	0.644677	0.329619
Br107	Br	0.954588	0.148099	-0.143719
Br108	Br	1.454588	0.648099	0.356281
