data_functionalizedCrystal
_audit_creation_method	'MofGen! by Chris Wilmer'
_symmetry_space_group_name_H-M	'P1'
_symmetry_Int_Tables_number	1
_symmetry_cell_setting	triclinic
loop_
_symmetry_equiv_pos_as_xyz
  x,y,z
_cell_length_a	15.995350
_cell_length_b	27.732048
_cell_length_c	14.472310
_cell_angle_alpha	89.993924
_cell_angle_beta	89.990621
_cell_angle_gamma	83.067515
loop_
_atom_site_label
_atom_site_type_symbol
_atom_site_fract_x
_atom_site_fract_y
_atom_site_fract_z
O1	O	1.110190	0.062301	-0.076773
O2	O	0.866316	0.069995	-0.076793
O3	O	0.995827	-0.004216	-0.076765
O4	O	0.980679	0.136512	-0.076801
O5	O	0.995794	-0.004212	0.076917
O6	O	0.866282	0.069999	0.076889
O7	O	1.110157	0.062306	0.076909
Cu8	Cu	0.988217	0.066153	0.090931
Cu9	Cu	0.988256	0.066148	-0.090815
O10	O	0.980646	0.136517	0.076881
C11	C	0.835108	0.069679	0.000045
C12	C	0.742170	0.068726	0.000038
C13	C	0.995493	-0.022222	0.000079
C14	C	0.994535	-0.075881	0.000086
C15	C	0.404467	0.065301	0.000059
C16	C	0.452585	0.012449	0.000415
C17	C	0.549263	0.013403	0.000062
C18	C	0.572006	0.067000	0.000049
C19	C	0.530600	0.093065	-0.087714
C20	C	0.433982	0.091738	-0.087781
C21	C	0.433591	0.092835	0.086984
C22	C	0.530536	0.092822	0.088138
C23	C	0.666691	0.067962	0.000041
C24	C	0.309782	0.064340	0.000061
C25	C	1.065040	-0.414392	0.000045
C26	C	1.061487	-0.616067	0.000031
O27	O	1.125959	-0.647045	-0.000004
N28	N	0.984692	-0.635522	0.000026
C29	C	0.908780	-0.604555	0.000018
O30	O	0.843380	-0.625730	0.000003
C31	C	0.912334	-0.402881	0.000024
C32	C	0.989134	-0.383429	0.000039
C33	C	1.141834	-0.394940	0.000058
C34	C	1.142721	-0.344524	0.000067
C35	C	1.066815	-0.313561	0.000061
C36	C	0.990021	-0.333013	0.000047
C37	C	0.836422	-0.371914	0.000009
C38	C	0.837317	-0.321493	0.000009
C39	C	0.914117	-0.302041	0.000023
C40	C	0.915002	-0.251634	0.000050
N41	N	0.991797	-0.232179	0.000056
C42	C	1.067703	-0.263142	0.000061
C43	C	0.906920	-0.710437	0.000016
C44	C	0.906031	-0.760855	0.000016
C45	C	1.058739	-0.772364	0.000028
C46	C	1.059627	-0.721945	0.000035
C47	C	0.983715	-0.690982	0.000021
C48	C	1.069561	-0.157265	0.000080
C49	C	1.070442	-0.106844	0.000092
C50	C	0.917734	-0.095340	0.000075
C51	C	0.916853	-0.145756	0.000067
C52	C	0.992773	-0.176718	0.000067
O53	O	0.850565	-0.220628	0.000075
O54	O	1.133094	-0.241958	0.000055
C55	C	1.064153	-0.464808	0.000036
C56	C	0.987359	-0.484260	0.000022
C57	C	0.911452	-0.453297	0.000017
C58	C	0.986470	-0.534679	0.000022
C59	C	1.062377	-0.565642	0.000028
C60	C	1.139172	-0.546187	0.000033
C61	C	1.140059	-0.495771	0.000042
C62	C	0.834657	-0.472752	0.000011
C63	C	0.833776	-0.523168	0.000004
C64	C	0.909683	-0.554132	0.000010
C65	C	1.141364	0.062621	0.000068
C66	C	1.234302	0.063575	0.000069
C67	C	0.980980	0.154523	0.000035
C68	C	0.981938	0.208182	0.000022
N69	N	0.988195	0.066156	0.218762
N70	N	0.988284	0.066141	-0.218646
C71	C	0.988255	0.066146	0.592853
C72	C	0.918727	0.105721	0.553672
C73	C	0.918884	0.105866	0.446584
C74	C	0.988225	0.066151	0.407262
C75	C	1.075447	0.077167	0.446103
C76	C	1.075055	0.077448	0.553225
C77	C	0.971342	0.015437	0.553394
C78	C	0.969334	0.015775	0.446267
C79	C	0.988213	0.066153	0.302374
C80	C	0.988272	0.066145	0.697742
H81	H	0.434323	-0.008675	0.063354
H82	H	0.854029	0.099303	0.420325
H83	H	1.122164	-0.706111	0.000046
H84	H	0.853660	0.099266	0.579457
O85	O	0.427008	-0.015416	-0.082469
H86	H	0.380176	0.008214	-0.123919
H87	H	0.905176	0.007416	0.420881
O88	O	0.753585	-0.392885	-0.000014
H89	H	0.749495	-0.415580	0.062624
H90	H	0.929307	0.143140	0.580573
H91	H	0.577401	-0.007228	-0.062950
H92	H	0.401325	0.131802	0.087568
O93	O	0.933105	0.155708	0.412603
H94	H	0.939905	0.179802	0.472683
O95	O	0.548637	0.145223	-0.092050
H96	H	0.488360	0.169681	-0.091087
O97	O	0.568497	0.069079	-0.174227
H98	H	0.616810	0.038599	-0.154939
H99	H	1.090059	0.114429	0.578192
O100	O	0.567013	0.067613	0.174143
H101	H	0.537380	0.086076	0.236091
H102	H	1.202598	-0.479938	0.000054
H103	H	0.855933	-0.070121	0.000073
H104	H	1.120545	-0.797583	0.000033
O105	O	1.221043	-0.579589	0.000047
H106	H	1.257846	-0.572669	-0.062583
H107	H	1.128374	0.049759	0.579142
H108	H	0.775499	-0.296285	-0.000004
H109	H	0.545395	0.131907	0.093429
H110	H	0.415933	0.072726	-0.153376
H111	H	1.128394	0.049108	0.420631
O112	O	1.095823	0.125597	0.410562
H113	H	1.043968	0.141895	0.365246
O114	O	0.834023	-0.166742	0.000054
H115	H	0.781390	-0.136738	0.000048
O116	O	0.390586	0.143132	-0.093079
H117	H	0.409788	0.160500	-0.157533
O118	O	0.888951	0.001412	0.589204
H119	H	0.859135	0.030432	0.635531
O120	O	1.032132	-0.025066	0.410843
H121	H	1.077995	-0.010030	0.364682
O122	O	1.223711	-0.428333	0.000078
H123	H	1.277251	-0.406327	0.000097
O124	O	0.406688	0.069947	0.175106
H125	H	0.372254	0.038688	0.157927
H126	H	1.132984	-0.091010	0.000106
O127	O	1.038503	-0.023579	0.586961
H128	H	1.083716	-0.006966	0.631532
O129	O	0.750937	-0.544147	-0.000005
H130	H	0.714517	-0.531705	-0.062651
O131	O	0.587263	-0.013731	0.083401
H132	H	0.536594	-0.027657	0.124316
H133	H	1.131383	-0.182469	0.000075
O134	O	1.225555	-0.323546	0.000056
H135	H	1.278181	-0.353553	0.000043
H136	H	0.843493	-0.776688	0.000020
H137	H	0.845100	-0.685230	0.000005
H138	H	0.772844	-0.447546	0.000005
