data_functionalizedCrystal
_audit_creation_method	'MofGen! by Chris Wilmer'
_symmetry_space_group_name_H-M	'P1'
_symmetry_Int_Tables_number	1
_symmetry_cell_setting	triclinic
loop_
_symmetry_equiv_pos_as_xyz
  x,y,z
_cell_length_a	13.635800
_cell_length_b	19.551823
_cell_length_c	19.551749
_cell_angle_alpha	96.340071
_cell_angle_beta	101.661913
_cell_angle_gamma	101.663376
loop_
_atom_site_label
_atom_site_type_symbol
_atom_site_fract_x
_atom_site_fract_y
_atom_site_fract_z
V1	V	-1.998622	-0.097408	-0.218187
O2	O	-1.997296	0.003928	-0.213697
O3	O	-1.970023	-0.192419	-0.217018
O4	O	-1.970020	-0.096240	-0.313198
O5	O	-1.997299	-0.092917	-0.116851
V6	V	-2.241577	-0.085248	-0.206027
O7	O	-2.126635	-0.124082	-0.244860
O8	O	-2.338663	-0.058574	-0.179353
O9	O	-2.158573	0.009763	-0.207196
O10	O	-2.301602	-0.186583	-0.210516
O11	O	-2.301598	-0.089738	-0.307362
O12	O	-2.158576	-0.086416	-0.111016
V13	V	-1.498622	-0.097408	-0.218187
O14	O	-1.497296	0.003928	-0.213697
O15	O	-1.470023	-0.192419	-0.217018
O16	O	-1.470020	-0.096240	-0.313198
O17	O	-1.497299	-0.092917	-0.116851
V18	V	-1.741577	-0.085248	-0.206027
O19	O	-1.626635	-0.124082	-0.244860
O20	O	-1.838663	-0.058574	-0.179353
O21	O	-1.658573	0.009763	-0.207196
O22	O	-1.801602	-0.186583	-0.210516
O23	O	-1.801598	-0.089738	-0.307362
O24	O	-1.658576	-0.086416	-0.111016
C25	C	-1.891596	-0.215570	-0.213659
C26	C	-1.908826	-0.293245	-0.213337
C27	C	-2.007642	-0.333302	-0.216680
C28	C	-2.023834	-0.406287	-0.216384
C29	C	-1.941201	-0.439210	-0.212731
C30	C	-1.842372	-0.399145	-0.209392
C31	C	-1.826185	-0.326162	-0.209695
C32	C	-1.886640	-0.545549	-0.168423
C33	C	-1.902829	-0.618530	-0.168116
C34	C	-1.991125	-0.664313	-0.211799
C35	C	-2.063244	-0.637106	-0.255782
C36	C	-2.047056	-0.564123	-0.256085
C37	C	-1.958743	-0.518347	-0.212402
C38	C	-2.107505	-0.783509	-0.214823
C39	C	-2.123695	-0.856496	-0.214531
C40	C	-1.942228	-0.849351	-0.207532
C41	C	-1.926043	-0.776367	-0.207831
C42	C	-2.008684	-0.743450	-0.211473
C43	C	-1.891591	-0.092883	-0.336346
C44	C	-1.908818	-0.092557	-0.414020
C45	C	-1.933551	-0.156427	-0.460698
C46	C	-1.949749	-0.156128	-0.533683
C47	C	-1.941192	-0.091955	-0.559986
C48	C	-1.916460	-0.028077	-0.513298
C49	C	-1.900273	-0.028378	-0.440315
C50	C	-1.895772	-0.040179	-0.665509
C51	C	-1.911954	-0.039880	-0.738491
C52	C	-1.991122	-0.091023	-0.785088
C53	C	-2.054098	-0.142475	-0.758697
C54	C	-2.037911	-0.142777	-0.685714
C55	C	-1.958743	-0.091621	-0.639122
C56	C	-2.033422	-0.154573	-0.910905
C57	C	-2.049626	-0.154271	-0.983891
C58	C	-2.016326	-0.026218	-0.963505
C59	C	-2.000133	-0.026521	-0.890521
C60	C	-2.008678	-0.090701	-0.864226
C61	C	-2.068671	0.032911	-0.210552
C62	C	-2.041060	0.110585	-0.210879
C63	C	-1.391596	-0.215570	-0.213659
C64	C	-1.408826	-0.293245	-0.213337
C65	C	-1.400277	-0.319520	-0.149155
C66	C	-1.416503	-0.392502	-0.148830
C67	C	-1.441260	-0.439206	-0.212691
C68	C	-1.449815	-0.412925	-0.276882
C69	C	-1.433599	-0.339944	-0.277205
C70	C	-1.421401	-0.560371	-0.258979
C71	C	-1.437611	-0.633349	-0.258654
C72	C	-1.491283	-0.664303	-0.211698
C73	C	-1.528728	-0.622267	-0.165056
C74	C	-1.512511	-0.549287	-0.165379
C75	C	-1.458847	-0.518343	-0.212348
C76	C	-1.500328	-0.769712	-0.147160
C77	C	-1.516562	-0.842696	-0.146838
C78	C	-1.549865	-0.863118	-0.274891
C79	C	-1.533641	-0.790136	-0.275211
C80	C	-1.508868	-0.743437	-0.211343
C81	C	-2.068676	-0.089774	-0.087864
C82	C	-2.041069	-0.090097	-0.010189
C83	C	-1.391591	-0.092883	-0.336346
C84	C	-1.408818	-0.092557	-0.414020
C85	C	-1.568671	0.032911	-0.210552
C86	C	-1.541060	0.110585	-0.210879
C87	C	-1.568676	-0.089774	-0.087864
C88	C	-1.541069	-0.090097	-0.010189
C89	C	-1.507642	-0.095900	-0.454070
C90	C	-1.523840	-0.095584	-0.527052
C91	C	-1.441214	-0.091931	-0.559984
C92	C	-1.342381	-0.088586	-0.519928
C93	C	-1.326183	-0.088897	-0.446947
C94	C	-1.441464	-0.093742	0.022724
C95	C	-1.415507	-0.094037	0.095709
C96	C	-1.489158	-0.090692	0.135778
C97	C	-1.588771	-0.087044	0.102860
C98	C	-1.614724	-0.086744	0.029877
H99	H	-2.104304	-0.438908	-0.219106
H100	H	-2.009364	0.026033	-0.984920
H101	H	-1.509605	-0.864086	-0.094571
O102	O	-1.825048	-0.647868	-0.120675
H103	H	-1.851144	-0.706307	-0.127794
O104	O	-1.976413	-0.225017	-0.584042
H105	H	-1.979625	-0.269694	-0.553495
O106	O	-1.907220	0.041142	-0.541660
H107	H	-1.922619	0.030622	-0.600252
H108	H	-1.407117	-0.667569	-0.296631
O109	O	-1.810283	0.014878	-0.615208
H110	H	-1.843355	0.045982	-0.578557
H111	H	-2.174796	-0.756707	-0.217787
H112	H	-1.604321	-0.098311	-0.559656
O113	O	-1.308066	-0.097968	0.131208
H114	H	-1.311813	-0.146137	0.156679
H115	H	-1.381480	-0.096466	-0.009891
O116	O	-1.973433	0.042368	-0.840167
H117	H	-1.970193	0.087044	-0.870715
O118	O	-1.442894	-0.311637	-0.346453
H119	H	-1.504167	-0.281554	-0.352262
O120	O	-1.819456	-0.733159	-0.204216
H121	H	-1.820187	-0.707364	-0.252061
H122	H	-2.105777	-0.541975	-0.291898
H123	H	-1.775093	-0.425956	-0.206419
H124	H	-1.275113	-0.085612	-0.546753
H125	H	-1.377695	-0.535175	-0.297219
H126	H	-1.245709	-0.086176	-0.414343
O127	O	-1.461163	-0.091023	0.214495
H128	H	-1.379528	-0.094129	0.230643
O129	O	-1.668208	-0.083442	0.146079
H130	H	-1.633419	-0.084272	0.202355
H131	H	-1.880132	0.023634	-0.402309
H132	H	-1.695835	-0.083780	0.003084
H133	H	-2.074938	-0.306507	-0.219650
H134	H	-1.469975	-0.450957	-0.328878
O135	O	-1.576577	-0.913483	-0.343772
H136	H	-1.513621	-0.901717	-0.371925
H137	H	-2.204165	-0.889111	-0.217258
O138	O	-2.105920	-0.198204	-0.657238
H139	H	-2.163729	-0.233695	-0.701893
O140	O	-1.542842	-0.761788	-0.344436
H141	H	-1.562773	-0.806524	-0.388789
O142	O	-1.407262	-0.420850	-0.079601
H143	H	-1.481683	-0.456266	-0.078995
O144	O	-1.458693	-0.091608	-0.638703
H145	H	-1.541300	-0.094556	-0.661016
H146	H	-2.135047	-0.674393	-0.291450
H147	H	-1.574933	-0.098876	-0.427267
H148	H	-1.814732	-0.508278	-0.132853
O149	O	-1.853095	-0.884849	-0.203593
H150	H	-1.880949	-0.942328	-0.203941
O151	O	-1.586628	-0.655640	-0.114409
H152	H	-1.591630	-0.713451	-0.122025
O153	O	-1.552843	-0.503940	-0.115051
H154	H	-1.592875	-0.537717	-0.082334
O155	O	-1.843946	0.015585	-0.766926
H156	H	-1.850677	0.068906	-0.745231
H157	H	-1.745716	-0.293548	-0.206973
O158	O	-2.139498	-0.197639	-0.808943
H159	H	-2.140188	-0.188782	-0.864126
H160	H	-1.480157	-0.731688	-0.095154
H161	H	-1.940516	-0.208687	-0.439294
H162	H	-2.040381	-0.206831	-0.889495
O163	O	-2.076281	-0.223161	-1.034242
H164	H	-2.079483	-0.267835	-1.003692
O165	O	-1.373546	-0.269150	-0.080272
H166	H	-1.370328	-0.299686	-0.035587
