data_functionalizedCrystal
_audit_creation_method	'MofGen! by Chris Wilmer'
_symmetry_space_group_name_H-M	'P1'
_symmetry_Int_Tables_number	1
_symmetry_cell_setting	triclinic
loop_
_symmetry_equiv_pos_as_xyz
  x,y,z
_cell_length_a	20.919287
_cell_length_b	21.606444
_cell_length_c	20.919309
_cell_angle_alpha	62.584087
_cell_angle_beta	86.850628
_cell_angle_gamma	58.215598
loop_
_atom_site_label
_atom_site_type_symbol
_atom_site_fract_x
_atom_site_fract_y
_atom_site_fract_z
Zr1	Zr	0.621195	0.668926	-0.113939
O2	O	0.522599	0.791034	-0.207119
O3	O	0.651418	0.541950	-0.085360
O4	O	0.656437	0.661371	-0.214199
O5	O	0.513622	0.679270	0.023334
O6	O	0.762012	0.660949	-0.219802
O7	O	0.517580	0.671613	-0.078279
O8	O	0.753035	0.447326	0.010669
O9	O	0.522600	0.892893	-0.207136
O10	O	0.743099	0.595665	-0.077370
O11	O	0.661356	0.601695	0.002644
O12	O	0.667265	0.742297	-0.149048
O13	O	0.585522	0.748327	-0.069034
Zr14	Zr	0.783263	0.680466	0.039188
Zr15	Zr	0.789575	0.668253	-0.122874
Zr16	Zr	0.614883	0.681139	0.048123
Zr17	Zr	0.621197	0.831379	-0.113967
Zr18	Zr	0.783261	0.518013	0.039215
O19	O	0.753039	0.807442	0.010609
O20	O	0.762014	0.790077	-0.219823
O21	O	0.513624	0.808399	0.023313
O22	O	0.881859	0.558358	0.132368
O23	O	0.890834	0.540993	-0.098064
O24	O	0.642444	0.559314	0.145072
O25	O	0.890835	0.670122	-0.098086
O26	O	0.748020	0.688021	0.139448
O27	O	0.642445	0.688443	0.145050
O28	O	0.886878	0.677779	0.003528
O29	O	0.656440	0.892358	-0.214238
O30	O	0.748018	0.457034	0.139487
O31	O	0.881858	0.456499	0.132385
O32	O	0.886875	0.446792	0.003567
O33	O	0.517583	0.902600	-0.078318
O34	O	0.651423	0.902066	-0.085420
O35	O	0.737192	0.607094	0.074296
O36	O	0.818936	0.601065	-0.005718
O37	O	0.743101	0.747697	-0.077395
O38	O	0.661358	0.753727	0.002619
C39	C	0.702226	0.471492	-0.037342
C40	C	0.702225	0.402526	-0.037330
C41	C	0.646242	0.422274	-0.090240
C42	C	0.646244	0.357483	-0.090255
C43	C	0.702228	0.272946	-0.037358
C44	C	0.758217	0.253199	0.015554
C45	C	0.758217	0.317989	0.015566
C46	C	0.758219	-0.008091	0.015507
C47	C	0.758213	-0.072881	0.015492
C48	C	0.646246	0.031403	-0.090315
C49	C	0.646246	0.096193	-0.090303
C50	C	0.702237	0.076441	-0.037394
C51	C	0.702235	0.146694	-0.037378
C52	C	0.702228	0.202693	-0.037370
C53	C	0.491611	0.675537	-0.026200
C54	C	0.420129	0.675823	-0.022406
C55	C	0.388726	0.671741	-0.076606
C56	C	0.321564	0.672005	-0.073038
C57	C	0.285801	0.676357	-0.015274
C58	C	0.317210	0.680437	0.038931
C59	C	0.384374	0.680167	0.035366
C60	C	0.082902	0.677379	-0.001706
C61	C	0.015731	0.677651	0.001854
C62	C	0.020091	0.669217	-0.110115
C63	C	0.087254	0.668953	-0.113677
C64	C	0.118658	0.673028	-0.059470
C65	C	0.217149	0.676630	-0.011627
C66	C	0.187313	0.672749	-0.063115
C67	C	0.912847	0.673855	-0.048552
C68	C	0.984329	0.673569	-0.052345
C69	C	0.710124	0.659420	-0.240091
C70	C	0.712804	0.654235	-0.308891
C71	C	0.702231	0.877900	-0.037410
C72	C	0.702232	0.946866	-0.037421
C73	C	0.674479	0.728338	-0.378628
C74	C	0.677007	0.723461	-0.443271
C75	C	0.717855	0.644481	-0.438174
C76	C	0.756184	0.570373	-0.368429
C77	C	0.753661	0.575250	-0.303788
C78	C	0.727460	0.625926	-0.631475
C79	C	0.729978	0.621054	-0.696123
C80	C	0.650802	0.774143	-0.770961
C81	C	0.648278	0.779013	-0.706315
C82	C	0.686611	0.704905	-0.636576
C83	C	0.720438	0.639495	-0.504248
C84	C	0.684032	0.709892	-0.570504
C85	C	0.694333	0.689972	0.165340
C86	C	0.691654	0.695157	0.234139
C87	C	0.912844	0.470650	-0.048518
C88	C	0.984325	0.401399	-0.052299
C89	C	0.694331	0.486768	0.165374
C90	C	0.691651	0.422987	0.234185
C91	C	0.904949	0.485927	0.154197
C92	C	0.973751	0.421860	0.219215
C93	C	0.499508	0.863465	-0.228949
C94	C	0.430707	0.927532	-0.293967
C95	C	0.491613	0.878741	-0.026234
C96	C	0.420132	0.947993	-0.022452
C97	C	0.710127	0.862624	-0.240125
C98	C	0.712807	0.926405	-0.308936
C99	C	0.978308	0.366059	-0.091484
C100	C	1.045467	0.300998	-0.095052
C101	C	1.118641	0.271274	-0.059431
C102	C	1.124656	0.306621	-0.020245
C103	C	1.057499	0.371685	-0.016682
C104	C	0.729977	0.395854	0.303908
C105	C	0.727455	0.335935	0.368570
C106	C	0.686611	0.303145	0.363507
C107	C	0.648280	0.330284	0.293776
C108	C	0.650797	0.390206	0.229116
C109	C	1.048737	0.388626	0.207982
C110	C	1.113390	0.328438	0.269067
C111	C	1.103055	0.301479	0.341385
C112	C	1.028061	0.334719	0.352617
C113	C	0.963410	0.394911	0.291533
C114	C	0.355721	0.960773	-0.282733
C115	C	0.291068	1.020982	-0.343818
C116	C	0.301403	1.047944	-0.416136
C117	C	0.376397	1.014700	-0.427369
C118	C	0.441048	0.954497	-0.366284
C119	C	0.426149	0.983339	0.016726
C120	C	0.358992	1.048417	0.020276
C121	C	0.285818	1.078142	-0.015348
C122	C	0.279802	1.042793	-0.054530
C123	C	0.346959	0.977721	-0.058085
C124	C	0.753658	0.959176	-0.303849
C125	C	0.756192	1.019097	-0.368499
C126	C	0.717869	1.046250	-0.438235
C127	C	0.677017	1.013472	-0.443321
C128	C	0.674488	0.953548	-0.378672
H129	H	0.803805	-0.141718	0.058570
H130	H	1.155705	0.252466	0.391117
H131	H	0.758673	0.313845	0.425340
H132	H	1.040553	0.272226	-0.126961
H133	H	0.502103	0.927431	-0.375440
H134	H	0.485725	0.959142	0.045740
H135	H	0.645816	1.035590	-0.500108
H136	H	1.019658	0.312761	0.411507
H137	H	0.417837	0.668202	-0.123646
H138	H	0.619590	0.412290	0.172347
H139	H	1.173318	0.218294	-0.062337
H140	H	0.216435	0.669201	-0.110145
H141	H	0.902355	0.421962	0.300690
H142	H	0.347291	0.938824	-0.223853
H143	H	0.803811	-0.024184	0.058588
H144	H	0.719934	1.095045	-0.490871
H145	H	1.184244	0.282411	0.008756
H146	H	1.057166	0.410567	0.149102
H147	H	1.062409	0.400451	0.015231
H148	H	0.295997	0.668680	-0.117171
H149	H	0.384802	1.036660	-0.486257
H150	H	0.645801	0.783804	-0.500052
H151	H	0.230011	1.048040	-0.334658
H152	H	0.342048	0.948943	-0.089985
H153	H	0.248753	1.096966	-0.465868
H154	H	0.363905	1.077188	0.052185
H155	H	0.641219	0.926873	-0.382824
H156	H	0.803803	0.184363	0.058621
H157	H	0.758673	0.565581	-0.574700
H158	H	0.231140	1.131129	-0.012448
H159	H	0.116370	0.665409	-0.160714
H160	H	0.600645	0.491106	-0.133307
H161	H	0.108465	0.680699	0.042431
H162	H	1.174447	0.301379	0.259908
H163	H	0.789457	1.045778	-0.364344
H164	H	0.803805	0.301904	0.058650
H165	H	0.220214	1.067006	-0.083534
H166	H	0.784868	0.514908	-0.247005
H167	H	0.763237	0.422545	0.308045
H168	H	0.784866	0.937078	-0.247073
H169	H	0.615017	0.843328	-0.710473
H170	H	0.288091	0.683975	0.085968
H171	H	0.600658	0.047481	-0.133399
H172	H	0.789448	0.506065	-0.364284
H173	H	-0.005485	0.665898	-0.154247
H174	H	0.615025	0.303577	0.289665
H175	H	-0.013384	0.681196	0.048896
H176	H	0.684567	0.254352	0.416163
H177	H	0.600657	0.373570	-0.133339
H178	H	0.409942	0.683489	0.079501
H179	H	0.600656	0.165025	-0.133375
H180	H	0.188025	0.680176	0.035405
H181	H	0.619594	0.834478	-0.827747
H182	H	0.763241	0.556735	-0.691965
H183	H	0.650777	0.774198	-0.574651
H184	H	0.641211	0.792652	-0.382787
H185	H	0.918733	0.390258	-0.120501
H186	H	0.753696	0.575189	-0.500106
