data_functionalizedCrystal
_audit_creation_method	'MofGen! by Chris Wilmer'
_symmetry_space_group_name_H-M	'P1'
_symmetry_Int_Tables_number	1
_symmetry_cell_setting	triclinic
loop_
_symmetry_equiv_pos_as_xyz
  x,y,z
_cell_length_a	12.645331
_cell_length_b	12.645330
_cell_length_c	10.686551
_cell_angle_alpha	94.406611
_cell_angle_beta	94.397346
_cell_angle_gamma	90.011625
loop_
_atom_site_label
_atom_site_type_symbol
_atom_site_fract_x
_atom_site_fract_y
_atom_site_fract_z
Zn1	Zn	1.666774	-0.376003	0.713519
Zn2	Zn	1.653066	-0.566911	0.502513
Zn3	Zn	1.475884	-0.389658	0.502526
Zn4	Zn	1.489482	-0.553225	0.713458
O5	O	1.571301	-0.471449	0.608004
O6	O	1.813304	-0.401340	0.685548
O7	O	1.618135	-0.554840	0.325933
O8	O	1.501252	-0.239497	0.530546
O9	O	1.803233	-0.541599	0.530524
O10	O	1.641498	-0.229465	0.685561
O11	O	1.487961	-0.424613	0.325943
O12	O	1.329339	-0.411343	0.530487
O13	O	1.524427	-0.518274	0.890048
O14	O	1.339330	-0.531515	0.685457
O15	O	1.654683	-0.388069	0.890093
O16	O	1.631320	-0.713445	0.530465
O17	O	1.511136	-0.703390	0.685445
C18	C	1.295869	-0.471426	0.607968
C19	C	1.178040	-0.471440	0.607982
C20	C	1.571246	-0.746881	0.607974
C21	C	1.571323	-0.864709	0.608004
C22	C	1.004191	-0.395428	0.511028
C23	C	1.126723	-0.395669	0.510601
C24	C	1.131188	-0.585459	0.571654
C25	C	1.008546	-0.585052	0.570993
C26	C	1.019506	-0.434472	0.741638
C27	C	1.142064	-0.432025	0.740896
C28	C	1.646787	-1.038567	0.510308
C29	C	1.647068	-0.915991	0.510547
C30	C	1.610199	-0.900506	0.741017
C31	C	1.610814	-1.023137	0.740498
C32	C	1.457035	-1.034229	0.573997
C33	C	1.457380	-0.911818	0.571014
C34	C	1.847809	-0.471473	0.608041
C35	C	1.965640	-0.471483	0.608057
C36	C	1.592601	-0.450122	0.937136
C37	C	1.601677	-0.441033	1.077393
C38	C	1.571387	-0.194940	0.608062
C39	C	1.571424	-0.077108	0.608086
C40	C	1.550146	-0.492617	0.280153
C41	C	1.541275	-0.501407	0.139897
H42	H	1.158285	-0.311388	0.533371
C43	C	1.411513	-1.084417	0.445246
H44	H	1.461852	-1.131994	0.411074
H45	H	1.348078	-1.121982	0.455482
H46	H	1.396552	-1.030229	0.389737
C47	C	0.961335	-0.626092	0.439078
H48	H	0.886115	-0.626214	0.437514
H49	H	0.983346	-0.581206	0.378526
H50	H	0.985408	-0.696193	0.419821
H51	H	0.976172	-0.310915	0.533554
H52	H	1.482621	-0.560051	1.086109
C53	C	1.724112	-1.059146	0.779488
H54	H	1.769331	-0.998839	0.795489
H55	H	1.723504	-1.096166	0.853487
H56	H	1.749408	-1.104635	0.713522
C57	C	0.953957	-0.429072	0.378087
H58	H	0.909594	-0.489268	0.381459
H59	H	0.912942	-0.372356	0.347229
H60	H	1.008354	-0.446372	0.323561
H61	H	1.164776	-0.644012	0.640108
C62	C	1.680929	-0.361810	1.150047
H63	H	1.717611	-0.325159	1.092027
H64	H	1.643685	-0.312323	1.201471
H65	H	1.730401	-0.399083	1.201453
C66	C	1.157669	-0.429655	0.376883
H67	H	1.232749	-0.429909	0.376162
H68	H	1.130643	-0.498808	0.352012
H69	H	1.128718	-0.381199	0.319978
C70	C	0.974395	-0.664722	0.662409
H71	H	1.035465	-0.697210	0.699766
H72	H	0.936836	-0.628531	0.726257
H73	H	0.929831	-0.717566	0.617622
C74	C	1.164172	-0.626965	0.441144
H75	H	1.206472	-0.574978	0.408619
H76	H	1.203813	-0.690282	0.448528
H77	H	1.102570	-0.641218	0.385755
H78	H	1.428222	-0.889139	0.473128
H79	H	1.621751	-0.892354	0.411920
H80	H	1.172927	-0.348077	0.768289
C81	C	0.980643	-0.323503	0.786270
H82	H	0.931197	-0.298704	0.723845
H83	H	0.947416	-0.327312	0.862575
H84	H	1.039343	-0.276022	0.799892
H85	H	0.995194	-0.489762	0.813933
C86	C	1.190097	-0.500481	0.843784
H87	H	1.232908	-0.554240	0.806861
H88	H	1.232349	-0.457114	0.904758
H89	H	1.134655	-0.532350	0.883191
H90	H	1.397504	-0.876942	0.637009
C91	C	1.761282	-0.874285	0.541018
H92	H	1.761846	-0.799143	0.541259
H93	H	1.787228	-0.894435	0.621480
H94	H	1.805234	-0.903539	0.479097
C95	C	1.612996	-1.087255	0.376711
H96	H	1.552618	-1.131515	0.379359
H97	H	1.595979	-1.032181	0.323072
H98	H	1.669573	-1.128167	0.345295
C99	C	1.760386	-1.078122	0.540429
H100	H	1.762086	-1.118020	0.612337
H101	H	1.781964	-1.121664	0.470616
H102	H	1.807190	-1.019075	0.556944
H103	H	1.558797	-1.047939	0.815861
C104	C	1.538794	-0.854644	0.842074
H105	H	1.563704	-0.877285	0.921751
H106	H	1.540565	-0.779382	0.845196
H107	H	1.468048	-0.879000	0.821625
C108	C	1.722292	-0.856372	0.780674
H109	H	1.745558	-0.816131	0.716360
H110	H	1.720809	-0.812266	0.856589
H111	H	1.769672	-0.913503	0.793513
H112	H	1.400778	-1.058639	0.645213
