data_functionalizedCrystal
_audit_creation_method	'MofGen! by Chris Wilmer'
_symmetry_space_group_name_H-M	'P1'
_symmetry_Int_Tables_number	1
_symmetry_cell_setting	triclinic
loop_
_symmetry_equiv_pos_as_xyz
  x,y,z
_cell_length_a	12.759401
_cell_length_b	12.759400
_cell_length_c	12.759393
_cell_angle_alpha	89.976116
_cell_angle_beta	90.020566
_cell_angle_gamma	89.998346
loop_
_atom_site_label
_atom_site_type_symbol
_atom_site_fract_x
_atom_site_fract_y
_atom_site_fract_z
Zn1	Zn	-1.606349	-0.418266	-0.594058
Zn2	Zn	-1.606274	-0.593981	-0.418398
Zn3	Zn	-1.430647	-0.418311	-0.418394
Zn4	Zn	-1.430674	-0.593898	-0.594037
O5	O	-1.518486	-0.506114	-0.506222
O6	O	-1.753360	-0.441591	-0.570767
O7	O	-1.582935	-0.570732	-0.271377
O8	O	-1.453974	-0.271284	-0.441704
O9	O	-1.753305	-0.570688	-0.441711
O10	O	-1.583061	-0.271251	-0.570763
O11	O	-1.453902	-0.441668	-0.271374
O12	O	-1.283630	-0.441587	-0.441683
O13	O	-1.454019	-0.570546	-0.741061
O14	O	-1.283649	-0.570590	-0.570727
O15	O	-1.583087	-0.441509	-0.741076
O16	O	-1.582960	-0.740991	-0.441690
O17	O	-1.453947	-0.740930	-0.570731
C18	C	-1.245519	-0.506085	-0.506203
C19	C	-1.128742	-0.506098	-0.506219
C20	C	-1.073909	-0.438997	-0.573522
C21	C	-0.964185	-0.439003	-0.573527
C22	C	-0.964136	-0.573222	-0.438925
C23	C	-1.073858	-0.573209	-0.438915
C24	C	-1.518477	-0.779081	-0.506231
C25	C	-1.518569	-0.895858	-0.506271
C26	C	-1.518564	-0.506013	-0.780255
C27	C	-1.518598	-0.505970	-0.897032
C28	C	-0.792519	-0.506134	-0.506238
C29	C	-0.909296	-0.506117	-0.506234
C30	C	-1.518523	-0.232081	-0.506235
C31	C	-1.518539	-0.115304	-0.506241
C32	C	-1.451342	-0.060458	-0.439052
C33	C	-1.451354	0.049266	-0.439069
C34	C	-1.585770	0.049288	-0.573467
C35	C	-1.585752	-0.060434	-0.573454
C36	C	-1.585808	-0.438770	-0.951904
C37	C	-1.585826	-0.438725	-1.061628
C38	C	-1.451420	-0.573088	-1.061599
C39	C	-1.451398	-0.573128	-0.951877
C40	C	-1.518468	-0.506139	-0.233254
C41	C	-1.518638	-0.505886	-0.116478
H42	H	-1.118504	-0.627853	-0.384104
H43	H	-1.396610	-0.105130	-0.384325
H44	H	-1.640554	-0.384002	-1.106300
O45	O	-1.133110	-0.366602	-0.646096
H46	H	-1.076543	-0.319934	-0.692886
O47	O	-0.905040	-0.366632	-0.646119
H48	H	-0.961641	-0.319971	-0.692919
O49	O	-1.378900	-0.645600	-0.892673
H50	H	-1.325453	-0.598564	-0.842692
H51	H	-1.640524	-0.384083	-0.907252
O52	O	-0.904942	-0.645610	-0.366338
H53	H	-0.819433	-0.634353	-0.377657
H54	H	-1.396710	-0.627768	-1.106267
H55	H	-1.396634	0.093919	-0.384359
H56	H	-1.640495	0.093975	-0.628189
H57	H	-1.640472	-0.105091	-0.628174
