data_functionalizedCrystal
_audit_creation_method	'MofGen! by Chris Wilmer'
_symmetry_space_group_name_H-M	'P1'
_symmetry_Int_Tables_number	1
_symmetry_cell_setting	triclinic
loop_
_symmetry_equiv_pos_as_xyz
  x,y,z
_cell_length_a	12.645331
_cell_length_b	12.645330
_cell_length_c	17.077396
_cell_angle_alpha	89.973796
_cell_angle_beta	89.984878
_cell_angle_gamma	90.013057
loop_
_atom_site_label
_atom_site_type_symbol
_atom_site_fract_x
_atom_site_fract_y
_atom_site_fract_z
Zn1	Zn	1.620738	-0.422028	-0.443763
Zn2	Zn	1.954071	-0.088694	-0.110430
Zn3	Zn	2.287405	0.244639	0.222903
Zn4	Zn	1.620644	-0.599313	-0.312503
Zn5	Zn	1.953978	-0.265980	0.020831
Zn6	Zn	2.287311	0.067353	0.354164
Zn7	Zn	1.443462	-0.422066	-0.312521
Zn8	Zn	1.776795	-0.088732	0.020812
Zn9	Zn	2.110128	0.244601	0.354145
Zn10	Zn	1.443450	-0.599251	-0.443736
Zn11	Zn	1.776783	-0.265918	-0.110403
Zn12	Zn	2.110117	0.067416	0.222930
O13	O	1.532074	-0.510664	-0.378131
O14	O	1.865407	-0.177331	-0.044798
O15	O	2.198740	0.156002	0.288536
O16	O	1.769073	-0.445555	-0.426355
O17	O	2.102406	-0.112222	-0.093022
O18	O	2.435740	0.221111	0.240312
O19	O	1.597106	-0.575843	-0.202658
O20	O	1.930440	-0.242510	0.130675
O21	O	2.263773	0.090824	0.464008
O22	O	1.467022	-0.273713	-0.329950
O23	O	1.800355	0.059620	0.003383
O24	O	2.133689	0.392953	0.336716
O25	O	1.769004	-0.575806	-0.329918
O26	O	2.102337	-0.242473	0.003415
O27	O	2.435671	0.090860	0.336748
O28	O	1.597266	-0.273686	-0.426373
O29	O	1.930599	0.059648	-0.093040
O30	O	2.263933	0.392981	0.240294
O31	O	1.466931	-0.445620	-0.202672
O32	O	1.800264	-0.112286	0.130661
O33	O	2.133598	0.221047	0.463995
O34	O	1.295113	-0.445559	-0.329924
O35	O	1.628446	-0.112226	0.003410
O36	O	1.961780	0.221107	0.336743
O37	O	1.467002	-0.575700	-0.553587
O38	O	1.800335	-0.242367	-0.220254
O39	O	2.133669	0.090967	0.113080
O40	O	1.295104	-0.575737	-0.426327
O41	O	1.628438	-0.242403	-0.092993
O42	O	1.961771	0.090930	0.240340
O43	O	1.597255	-0.445495	-0.553607
O44	O	1.930588	-0.112162	-0.220273
O45	O	2.263922	0.221172	0.113060
O46	O	1.597095	-0.747652	-0.329892
O47	O	1.930428	-0.414319	0.003441
O48	O	2.263762	-0.080986	0.336775
O49	O	1.466911	-0.747606	-0.426309
O50	O	1.800245	-0.414273	-0.092975
O51	O	2.133578	-0.080940	0.240358
C52	C	1.256644	-0.510646	-0.378125
C53	C	1.589977	-0.177313	-0.044792
C54	C	1.923311	0.156021	0.288542
C55	C	1.138814	-0.510664	-0.378141
C56	C	1.472147	-0.177330	-0.044808
C57	C	1.805480	0.156003	0.288526
C58	C	1.532020	-0.786094	-0.378112
C59	C	1.865354	-0.452761	-0.044779
C60	C	2.198687	-0.119427	0.288554
C61	C	1.532095	-0.903924	-0.378131
C62	C	1.865428	-0.570591	-0.044797
C63	C	2.198761	-0.237257	0.288536
C64	C	1.093962	-0.592698	-0.438699
C65	C	1.427295	-0.259365	-0.105366
C66	C	1.760629	0.073969	0.227967
C67	C	0.971402	-0.593035	-0.438519
C68	C	1.304735	-0.259702	-0.105186
C69	C	1.638069	0.073632	0.228147
C70	C	0.970868	-0.540501	-0.295313
C71	C	1.304202	-0.207167	0.038020
C72	C	1.637535	0.126166	0.371353
C73	C	1.093467	-0.541080	-0.295664
C74	C	1.426800	-0.207747	0.037669
C75	C	1.760133	0.125587	0.371003
C76	C	1.093656	-0.398619	-0.399686
C77	C	1.426990	-0.065285	-0.066353
C78	C	1.760323	0.268048	0.266981
C79	C	0.971051	-0.399238	-0.401510
C80	C	1.304384	-0.065904	-0.068177
C81	C	1.637718	0.267429	0.265157
C82	C	1.613862	-1.071473	-0.317352
C83	C	1.947195	-0.738139	0.015982
C84	C	2.280529	-0.404806	0.349315
C85	C	1.614128	-0.948912	-0.317501
C86	C	1.947462	-0.615579	0.015833
C87	C	2.280795	-0.282246	0.349166
C88	C	1.562389	-0.948308	-0.460873
C89	C	1.895723	-0.614974	-0.127539
C90	C	2.229056	-0.281641	0.205794
C91	C	1.563038	-1.070906	-0.460550
C92	C	1.896371	-0.737572	-0.127217
C93	C	2.229705	-0.404239	0.206116
C94	C	1.420001	-1.071252	-0.356983
C95	C	1.753334	-0.737919	-0.023650
C96	C	2.086668	-0.404585	0.309684
C97	C	1.420538	-0.948647	-0.355127
C98	C	1.753872	-0.615314	-0.021794
C99	C	2.087205	-0.281981	0.311539
C100	C	1.808579	-0.510684	-0.378138
C101	C	2.141912	-0.177350	-0.044804
C102	C	2.475245	0.155983	0.288529
C103	C	1.926409	-0.510692	-0.378140
C104	C	2.259742	-0.177358	-0.044807
C105	C	2.593075	0.155975	0.288526
C106	C	1.532138	-0.510586	-0.582875
C107	C	1.865471	-0.177253	-0.249542
C108	C	2.198804	0.156080	0.083791
C109	C	1.532165	-0.510553	-0.670125
C110	C	1.865498	-0.177220	-0.336792
C111	C	2.198832	0.156114	-0.003458
C112	C	1.532156	-0.234159	-0.378167
C113	C	1.865489	0.099174	-0.044833
C114	C	2.198822	0.432508	0.288500
C115	C	1.532191	-0.116329	-0.378182
C116	C	1.865524	0.217004	-0.044849
C117	C	2.198857	0.550338	0.288485
C118	C	1.599990	-0.442750	-0.711127
C119	C	1.933323	-0.109416	-0.377794
C120	C	2.266657	0.223917	-0.044460
C121	C	1.600003	-0.442714	-0.793107
C122	C	1.933336	-0.109381	-0.459774
C123	C	2.266670	0.223952	-0.126441
C124	C	1.532195	-0.510489	-0.834085
C125	C	1.865528	-0.177155	-0.500751
C126	C	2.198862	0.156178	-0.167418
C127	C	1.464363	-0.578295	-0.793077
C128	C	1.797696	-0.244962	-0.459744
C129	C	2.131029	0.088372	-0.126410
C130	C	1.464345	-0.578324	-0.711098
C131	C	1.797679	-0.244991	-0.377765
C132	C	2.131012	0.088343	-0.044431
C133	C	1.464405	-0.578231	-0.963947
C134	C	1.797739	-0.244898	-0.630614
C135	C	2.131072	0.088435	-0.297281
C136	C	1.464424	-0.578204	-1.045932
C137	C	1.797757	-0.244870	-0.712599
C138	C	2.131090	0.088463	-0.379265
C139	C	1.600063	-0.442621	-1.045957
C140	C	1.933396	-0.109288	-0.712623
C141	C	2.266730	0.224045	-0.379290
C142	C	1.600046	-0.442651	-0.963978
C143	C	1.933379	-0.109317	-0.630644
C144	C	2.266712	0.224016	-0.297311
C145	C	1.532214	-0.510459	-0.922976
C146	C	1.865547	-0.177125	-0.589642
C147	C	2.198881	0.156208	-0.256309
C148	C	1.532071	-0.510666	-0.174183
C149	C	1.865404	-0.177332	0.159150
C150	C	2.198737	0.156001	0.492484
C151	C	1.532249	-0.510400	-0.086934
C152	C	1.865582	-0.177067	0.246400
C153	C	2.198915	0.156266	0.579733
H154	H	0.941344	-0.574440	-0.499924
H155	H	1.274677	-0.241107	-0.166591
H156	H	1.608010	0.092227	0.166743
H157	H	1.409206	-0.633389	-1.079293
H158	H	1.742540	-0.300056	-0.745960
H159	H	2.075873	0.033277	-0.412627
H160	H	1.655267	-0.387469	-0.930616
H161	H	1.988600	-0.054135	-0.597283
H162	H	2.321933	0.279198	-0.263950
H163	H	0.941724	-0.482585	-0.248953
H164	H	1.275057	-0.149252	0.084380
H165	H	1.608390	0.184082	0.417713
H166	H	1.506158	-1.100574	-0.507435
H167	H	1.839491	-0.767241	-0.174101
H168	H	2.172825	-0.433908	0.159232
H169	H	1.409104	-0.633526	-0.677715
H170	H	1.742438	-0.300193	-0.344382
H171	H	2.075771	0.033141	-0.011049
H172	H	1.397696	-0.919650	-0.294236
H173	H	1.731029	-0.586317	0.039097
H174	H	2.064363	-0.252983	0.372431
H175	H	1.655210	-0.387563	-0.677769
H176	H	1.988544	-0.054230	-0.344436
H177	H	2.321877	0.279104	-0.011103
H178	H	1.697223	-0.919504	-0.331522
H179	H	2.030557	-0.586171	0.001812
H180	H	2.363890	-0.252837	0.335145
H181	H	0.940424	-0.334893	-0.360653
H182	H	1.273757	-0.001560	-0.027319
H183	H	1.607091	0.331773	0.306014
H184	H	1.122039	-0.622969	-0.277454
H185	H	1.455373	-0.289635	0.055879
H186	H	1.788706	0.043698	0.389212
H187	H	0.942052	-0.676069	-0.424225
H188	H	1.275385	-0.342735	-0.090892
H189	H	1.608719	-0.009402	0.242441
H190	H	1.123136	-0.483883	-0.248995
H191	H	1.456469	-0.150550	0.084338
H192	H	1.789802	0.182784	0.417671
H193	H	1.645043	-1.099418	-0.478508
H194	H	1.978376	-0.766085	-0.145174
H195	H	2.311710	-0.432751	0.188159
H196	H	1.359149	-1.100261	-0.401288
H197	H	1.692483	-0.766928	-0.067955
H198	H	2.025816	-0.433594	0.265379
H199	H	1.595174	-0.918908	-0.256148
H200	H	1.928508	-0.585575	0.077185
H201	H	2.261841	-0.252242	0.410518
H202	H	1.123475	-0.574317	-0.500295
H203	H	1.456808	-0.240984	-0.166962
H204	H	1.790141	0.092350	0.166372
H205	H	1.696511	-1.102203	-0.331216
H206	H	2.029845	-0.768869	0.002117
H207	H	2.363178	-0.435536	0.335451
H208	H	1.504714	-0.919163	-0.507410
H209	H	1.838048	-0.585830	-0.174077
H210	H	2.171381	-0.252496	0.159257
H211	H	1.124748	-0.675252	-0.424578
H212	H	1.458081	-0.341919	-0.091245
H213	H	1.791415	-0.008586	0.242089
H214	H	0.940147	-0.621499	-0.276794
H215	H	1.273481	-0.288166	0.056540
H216	H	1.606814	0.045167	0.389873
H217	H	1.655292	-0.387408	-1.079344
H218	H	1.988625	-0.054074	-0.746011
H219	H	2.321959	0.279259	-0.412678
H220	H	1.409153	-0.633431	-0.930566
H221	H	1.742486	-0.300098	-0.597233
H222	H	2.075820	0.033235	-0.263899
H223	H	1.124605	-0.371381	-0.459066
H224	H	1.457939	-0.038048	-0.125732
H225	H	1.791272	0.295286	0.207601
H226	H	0.941996	-0.376750	-0.462466
H227	H	1.275330	-0.043417	-0.129133
H228	H	1.608663	0.289916	0.204201
H229	H	1.643468	-0.917519	-0.479130
H230	H	1.976802	-0.584186	-0.145796
H231	H	2.310135	-0.250853	0.187537
H232	H	1.392451	-1.102260	-0.297699
H233	H	1.725785	-0.768927	0.035635
H234	H	2.059118	-0.435593	0.368968
H235	H	1.409148	-0.633474	-0.826447
H236	H	1.742482	-0.300141	-0.493114
H237	H	2.075815	0.033193	-0.159781
H238	H	1.122662	-0.337504	-0.355583
H239	H	1.455995	-0.004171	-0.022250
H240	H	1.789329	0.329162	0.311084
H241	H	1.595145	-1.101025	-0.255820
H242	H	1.928479	-0.767691	0.077513
H243	H	2.261812	-0.434358	0.410847
H244	H	1.356405	-0.918034	-0.396185
H245	H	1.689738	-0.584701	-0.062852
H246	H	2.023071	-0.251368	0.270482
H247	H	1.655235	-0.387504	-0.826488
H248	H	1.988569	-0.054171	-0.493154
H249	H	2.321902	0.279162	-0.159821
