data_functionalizedCrystal
_audit_creation_method	'MofGen! by Chris Wilmer'
_symmetry_space_group_name_H-M	'P1'
_symmetry_Int_Tables_number	1
_symmetry_cell_setting	triclinic
loop_
_symmetry_equiv_pos_as_xyz
  x,y,z
_cell_length_a	18.101395
_cell_length_b	12.759401
_cell_length_c	12.759393
_cell_angle_alpha	90.019246
_cell_angle_beta	89.966350
_cell_angle_gamma	89.971428
loop_
_atom_site_label
_atom_site_type_symbol
_atom_site_fract_x
_atom_site_fract_y
_atom_site_fract_z
Zn1	Zn	-0.294834	-1.606124	-0.594020
Zn2	Zn	-0.418696	-1.605972	-0.418334
Zn3	Zn	-0.294868	-1.430429	-0.418354
Zn4	Zn	-0.418633	-1.430364	-0.593970
O5	O	-0.356758	-1.518222	-0.506169
O6	O	-0.311278	-1.753125	-0.570728
O7	O	-0.402311	-1.582649	-0.271316
O8	O	-0.191231	-1.453827	-0.441685
O9	O	-0.402278	-1.753013	-0.441652
O10	O	-0.191206	-1.582909	-0.570746
O11	O	-0.311334	-1.453679	-0.271330
O12	O	-0.311273	-1.283400	-0.441637
O13	O	-0.402171	-1.453716	-0.740998
O14	O	-0.402203	-1.283352	-0.570661
O15	O	-0.311216	-1.582846	-0.741034
O16	O	-0.522321	-1.582586	-0.441604
O17	O	-0.522275	-1.453568	-0.570642
C18	C	-0.356735	-1.245255	-0.506146
C19	C	-0.356743	-1.128478	-0.506161
C20	C	-0.309449	-0.963945	-0.573480
C21	C	-0.309442	-1.073669	-0.573473
C22	C	-0.404060	-1.073558	-0.438860
C23	C	-0.404070	-0.963836	-0.438873
C24	C	-0.262140	-0.909141	-0.640789
C25	C	-0.214824	-0.964054	-0.708092
C26	C	-0.214817	-1.073778	-0.708085
C27	C	-0.262126	-1.128589	-0.640775
C28	C	-0.549169	-1.518082	-0.506138
C29	C	-0.631483	-1.518118	-0.506160
C30	C	-0.930574	-1.518348	-0.506217
C31	C	-0.899250	-1.437362	-0.587606
C32	C	-0.813632	-1.436977	-0.587352
C33	C	-0.782191	-1.518234	-0.506190
C34	C	-0.813350	-1.488255	-0.395464
C35	C	-0.898995	-1.487733	-0.395951
C36	C	-0.898919	-1.629490	-0.534579
C37	C	-0.813267	-1.628837	-0.537007
C38	C	-0.698332	-1.518171	-0.506168
C39	C	-1.014433	-1.518409	-0.506232
C40	C	-0.163596	-1.518392	-0.506223
C41	C	-0.081282	-1.518464	-0.506246
C42	C	-0.356683	-1.518291	-0.780203
C43	C	-0.356650	-1.518320	-0.896980
C44	C	-0.356774	-0.792256	-0.506188
C45	C	-0.356760	-0.909032	-0.506181
C46	C	-0.309270	-1.451193	-0.951855
C47	C	-0.309248	-1.451225	-1.061579
C48	C	-0.403989	-1.585519	-1.061543
C49	C	-0.404014	-1.585481	-0.951821
C50	C	-0.261907	-1.384033	-0.897014
C51	C	-0.214522	-1.316902	-0.951890
C52	C	-0.214500	-1.316933	-1.061614
C53	C	-0.261863	-1.384096	-1.116462
C54	C	-0.356780	-1.518215	-0.233202
C55	C	-0.356603	-1.518389	-0.116426
H56	H	-0.262111	-1.217934	-0.640767
O57	O	-0.262083	-0.802557	-0.640630
C58	C	-0.243010	-0.765868	-0.539978
H59	H	-0.210686	-0.829098	-0.496616
H60	H	-0.207512	-0.692485	-0.547588
H61	H	-0.295408	-0.746354	-0.494341
O62	O	-0.168543	-1.251759	-0.898453
C63	C	-0.178734	-1.266104	-0.789841
H64	H	-0.202999	-1.347157	-0.774847
H65	H	-0.123270	-1.259015	-0.748165
H66	H	-0.218171	-1.203741	-0.758685
H67	H	-0.176311	-0.919419	-0.762899
H68	H	-0.176296	-1.118485	-0.762894
H69	H	-0.920835	-1.355482	-0.569056
H70	H	-0.920461	-1.656821	-0.613944
H71	H	-0.442576	-1.118194	-0.384059
H72	H	-0.442596	-0.919125	-0.384074
H73	H	-0.175923	-1.262266	-1.106291
H74	H	-0.261843	-1.384114	-1.205807
H75	H	-0.792986	-1.545386	-0.333169
O76	O	-0.923784	-1.459316	-0.685902
C77	C	-0.964147	-1.373162	-0.724752
H78	H	-0.946553	-1.298944	-0.681738
H79	H	-0.952844	-1.363778	-0.812150
H80	H	-1.025682	-1.387097	-0.711784
O81	O	-0.788582	-1.459485	-0.685313
C82	C	-0.814349	-1.559198	-0.715787
H83	H	-0.866049	-1.579555	-0.668986
H84	H	-0.828114	-1.558403	-0.802958
H85	H	-0.769720	-1.620267	-0.700061
O86	O	-0.789350	-1.338628	-0.565056
C87	C	-0.815592	-1.268283	-0.641684
H88	H	-0.867006	-1.302317	-0.680402
H89	H	-0.829982	-1.190284	-0.603126
H90	H	-0.771010	-1.255363	-0.703484
H91	H	-0.791965	-1.407872	-0.371007
H92	H	-0.792899	-1.651443	-0.618496
H93	H	-0.791861	-1.692368	-0.482048
H94	H	-0.442547	-1.640202	-1.106209
H95	H	-0.442585	-1.640155	-0.907140
H96	H	-0.919175	-1.689828	-0.475300
O97	O	-0.922999	-1.390810	-0.367445
C98	C	-0.965683	-1.347550	-0.449096
H99	H	-0.988456	-1.413298	-0.500224
H100	H	-1.013444	-1.300736	-0.414353
H101	H	-0.929664	-1.293636	-0.498734
H102	H	-0.919719	-1.544161	-0.333242
O103	O	-0.262066	-1.383992	-0.790429
C104	C	-0.333040	-1.356901	-0.753742
H105	H	-0.375687	-1.374827	-0.816955
H106	H	-0.346227	-1.404253	-0.680332
H107	H	-0.334600	-1.269719	-0.734272
