data_functionalizedCrystal
_audit_creation_method	'MofGen! by Chris Wilmer'
_symmetry_space_group_name_H-M	'P1'
_symmetry_Int_Tables_number	1
_symmetry_cell_setting	triclinic
loop_
_symmetry_equiv_pos_as_xyz
  x,y,z
_cell_length_a	26.374263
_cell_length_b	26.373608
_cell_length_c	26.370205
_cell_angle_alpha	60.005297
_cell_angle_beta	60.010839
_cell_angle_gamma	59.993700
loop_
_atom_site_label
_atom_site_type_symbol
_atom_site_fract_x
_atom_site_fract_y
_atom_site_fract_z
O1	O	0.070152	-0.740800	0.619517
O2	O	0.026377	-0.576764	0.499159
O3	O	0.130245	-0.680560	0.499088
O4	O	-0.033715	-0.637003	0.619589
O5	O	0.164701	-0.646107	0.533470
O6	O	0.060833	-0.542310	0.533541
O7	O	0.104608	-0.706346	0.653899
Cu8	Cu	0.085867	-0.621182	0.596859
Cu9	Cu	0.045119	-0.661927	0.556199
O10	O	0.000741	-0.602549	0.653971
N11	N	0.114528	-0.592529	0.625461
N12	N	0.016463	-0.690587	0.527598
C13	C	0.181428	-0.355400	0.692330
C14	C	0.181530	-0.525690	0.862573
C15	C	0.181440	-0.525667	0.692313
C16	C	0.351736	-0.525673	0.692271
C17	C	0.200174	-0.411588	0.711047
C18	C	0.200232	-0.506954	0.806384
C19	C	0.295546	-0.506943	0.711016
C20	C	0.200182	-0.506940	0.711037
C21	C	0.157567	-0.283881	0.668507
C22	C	0.157587	-0.549500	0.668479
C23	C	0.224035	-0.483107	0.734871
C24	C	0.455739	-0.507754	0.637520
C25	C	0.520749	-0.529425	0.615835
C26	C	0.520768	-0.634611	0.655947
C27	C	0.455759	-0.612939	0.677633
C28	C	0.173240	-0.251367	0.604595
C29	C	0.151546	-0.186351	0.582941
C30	C	0.098512	-0.186369	0.689113
C31	C	0.120206	-0.251385	0.710768
C32	C	0.093669	-0.533798	0.684205
C33	C	0.071992	-0.555464	0.662532
C34	C	0.178144	-0.608536	0.609422
C35	C	0.199825	-0.586869	0.631088
C36	C	0.093821	-0.533842	0.966616
C37	C	0.072187	-0.555526	1.031630
C38	C	0.178370	-0.608608	1.031591
C39	C	0.200004	-0.586926	0.966576
C40	C	0.157728	-0.549541	0.934090
C41	C	0.423247	-0.549509	0.668416
C42	C	-0.097522	-0.709158	0.508557
C43	C	-0.002050	-0.709295	0.413344
C44	C	-0.002241	-0.804604	0.508735
C45	C	-0.002225	-0.709288	0.508793
C46	C	-0.026009	-0.733087	0.484858
N47	N	0.552340	-0.592538	0.625346
O48	O	0.750867	-0.598274	0.477076
O49	O	0.751048	-0.718989	0.640960
O50	O	0.750981	-0.718715	0.537020
O51	O	0.750934	-0.598547	0.581017
O52	O	0.647701	-0.684348	0.571512
O53	O	0.647768	-0.684622	0.675452
O54	O	0.647587	-0.563907	0.511569
Cu55	Cu	0.638247	-0.621127	0.596660
Cu56	Cu	0.760388	-0.661769	0.555869
O57	O	0.647654	-0.564181	0.615509
N58	N	0.846295	-0.690358	0.527176
N59	N	0.114503	-0.154778	0.625499
O60	O	-0.033701	0.043855	0.619632
O61	O	0.130190	0.043858	0.498933
O62	O	0.026233	0.043841	0.499224
O63	O	0.070257	0.043872	0.619341
O64	O	0.060690	-0.059448	0.533654
O65	O	0.164647	-0.059431	0.533363
O66	O	0.000756	-0.059434	0.654062
Cu67	Cu	0.085848	-0.068863	0.596857
Cu68	Cu	0.045099	0.053287	0.556138
O69	O	0.104714	-0.059417	0.653771
N70	N	0.016435	0.139202	0.527497
N71	N	0.114760	-0.592585	1.063190
O72	O	0.108896	-0.740779	1.261808
O73	O	-0.011787	-0.576838	1.261822
O74	O	-0.011509	-0.680779	1.261780
O75	O	0.108618	-0.636838	1.261850
O76	O	0.022916	-0.646341	1.158496
O77	O	0.022638	-0.542399	1.158538
O78	O	0.143321	-0.706341	1.158524
Cu79	Cu	0.086123	-0.621225	1.149100
Cu80	Cu	0.045411	-0.661953	1.271246
O81	O	0.143044	-0.602399	1.158566
N82	N	0.016774	-0.690600	1.357156
C83	C	0.039504	-0.538867	0.499769
C84	C	0.168130	-0.667407	0.499680
C85	C	0.091482	-0.744243	0.653289
C86	C	-0.037145	-0.615703	0.653378
C87	C	0.699429	-0.718429	0.678853
C88	C	0.699348	-0.718091	0.550135
C89	C	0.699202	-0.564465	0.473677
C90	C	0.699287	-0.564805	0.602393
C91	C	0.168023	-0.007659	0.499484
C92	C	0.039327	-0.007807	0.499887
C93	C	-0.037119	-0.007789	0.653468
C94	C	0.091620	-0.007770	0.653109
C95	C	-0.011194	-0.538964	1.210181
C96	C	-0.010843	-0.667676	1.210109
C97	C	0.142729	-0.744214	1.210165
C98	C	0.142386	-0.615494	1.210214
H99	H	0.059391	-0.503396	0.940172
O100	O	0.424086	-0.446162	0.628679
C101	C	0.350730	-0.367489	0.676584
C102	C	0.386522	-0.437259	0.686687
H103	H	0.320361	-0.360267	0.723476
H104	H	0.320234	-0.349160	0.648040
H105	H	0.385136	-0.341380	0.650751
H106	H	0.352161	-0.463418	0.712537
H107	H	0.417027	-0.455540	0.715206
O108	O	0.699243	-0.519827	0.613733
C109	C	0.699317	-0.491432	0.687498
C110	C	0.699353	-0.542419	0.674745
H111	H	0.699419	-0.509682	0.736821
H112	H	0.656055	-0.449058	0.682018
H113	H	0.742500	-0.477819	0.653073
H114	H	0.656200	-0.556084	0.709158
H115	H	0.742644	-0.584759	0.680203
H116	H	0.215222	-0.676694	0.461838
O117	O	0.102528	-0.800460	0.698409
C118	C	0.072563	-0.891768	0.766214
C119	C	0.059977	-0.828109	0.715129
H120	H	0.038176	-0.914147	0.779738
H121	H	0.066959	-0.885341	0.808610
H122	H	0.121908	-0.922965	0.748080
H123	H	0.010634	-0.796879	0.733205
H124	H	0.065622	-0.834584	0.672743
O125	O	0.187353	-0.604172	1.210203
C126	C	0.215742	-0.530413	1.210271
C127	C	0.164767	-0.543148	1.210270
H128	H	0.197497	-0.481080	1.210339
H129	H	0.258127	-0.535929	1.167039
H130	H	0.229329	-0.564826	1.253487
H131	H	0.151128	-0.508746	1.167084
H132	H	0.122416	-0.537653	1.253532
O133	O	0.028198	-0.007904	0.454841
C134	C	0.058044	-0.061458	0.387137
C135	C	0.070717	-0.061415	0.438140
H136	H	0.092403	-0.104724	0.373628
H137	H	0.063620	-0.018266	0.344714
H138	H	0.008688	-0.061433	0.405344
H139	H	0.120069	-0.061462	0.419991
H140	H	0.065099	-0.104604	0.480553
O141	O	0.699573	-0.763719	0.734950
C142	C	0.753198	-0.867268	0.790364
C143	C	0.753103	-0.816036	0.726794
H144	H	0.796479	-0.909574	0.783793
H145	H	0.710028	-0.880893	0.812690
H146	H	0.753176	-0.849243	0.821679
H147	H	0.753147	-0.834018	0.695431
H148	H	0.796270	-0.802419	0.704517
O149	O	-0.055927	-0.678772	1.210059
C150	C	-0.160517	-0.638079	1.209913
C151	C	-0.109521	-0.625434	1.209983
H152	H	-0.203856	-0.594960	1.209839
H153	H	-0.172186	-0.678705	1.253124
H154	H	-0.143243	-0.649923	1.166676
H155	H	-0.126753	-0.613563	1.253192
H156	H	-0.097859	-0.584826	1.166744
O157	O	-0.056339	-0.482769	1.210211
C158	C	-0.085195	-0.380450	1.210200
C159	C	-0.034019	-0.444067	1.210181
H160	H	-0.067164	-0.349138	1.210162
H161	H	-0.127551	-0.386930	1.253426
H162	H	-0.098745	-0.358172	1.166977
H163	H	-0.020417	-0.466380	1.253374
H164	H	0.008303	-0.437547	1.166926
H165	H	-0.084239	-0.606419	0.691217
H166	H	0.699366	-0.755841	0.540718
H167	H	0.020147	-0.542732	1.058106
O168	O	0.699159	-0.519325	0.417487
C169	C	0.699025	-0.490433	0.315213
C170	C	0.699090	-0.541615	0.378813
H171	H	0.698956	-0.508432	0.283932
H172	H	0.742234	-0.476860	0.292848
H173	H	0.655788	-0.448096	0.321794
H174	H	0.742297	-0.583986	0.372287
H175	H	0.655853	-0.555135	0.401157
H176	H	0.180620	-0.791296	1.210154
H177	H	0.212798	-0.639038	1.058038
O178	O	0.224112	-0.007398	0.454240
C179	C	0.334674	-0.060418	0.423865
C180	C	0.271194	-0.060781	0.475158
H181	H	0.372755	-0.103580	0.440754
H182	H	0.343572	-0.017123	0.412274
H183	H	0.334681	-0.060300	0.380571
H184	H	0.271140	-0.060921	0.518485
H185	H	0.262321	-0.104073	0.486696
O186	O	0.262107	-0.602212	0.935077
C187	C	0.365142	-0.657176	0.941904
C188	C	0.294829	-0.639901	0.977651
H189	H	0.391618	-0.687661	0.976309
H190	H	0.377955	-0.613076	0.911488
H191	H	0.377904	-0.683614	0.911444
H192	H	0.282016	-0.613478	1.008144
H193	H	0.282053	-0.684023	1.008028
H194	H	-0.084187	-0.007791	0.691362
O195	O	0.028466	-0.482681	0.454609
C196	C	0.069195	-0.418850	0.349922
C197	C	0.081783	-0.482502	0.401014
H198	H	0.112288	-0.418689	0.306574
H199	H	0.057425	-0.380944	0.367026
H200	H	0.028530	-0.409806	0.338330
H201	H	0.122456	-0.491605	0.412630
H202	H	0.093517	-0.520373	0.383883
O203	O	0.102924	-0.007879	0.698151
C204	C	0.165997	-0.061374	0.763415
C205	C	0.153254	-0.061331	0.712411
H206	H	0.206697	-0.104578	0.774950
H207	H	0.122963	-0.061417	0.806823
H208	H	0.177790	-0.018128	0.746199
H209	H	0.141477	-0.104569	0.729568
H210	H	0.196299	-0.061255	0.669014
O211	O	0.052614	-0.497405	0.720428
C212	C	-0.031531	-0.401731	0.728772
C213	C	0.014941	-0.442879	0.687678
H214	H	-0.062011	-0.357644	0.702314
H215	H	-0.005092	-0.388889	0.741550
H216	H	-0.061924	-0.428226	0.772898
H217	H	0.045346	-0.416423	0.643525
H218	H	-0.011536	-0.455724	0.674950
O219	O	0.009897	-0.540293	0.677912
C220	C	-0.087441	-0.545249	0.760362
C221	C	-0.017127	-0.562480	0.743030
H222	H	-0.109313	-0.563168	0.813010
H223	H	-0.095712	-0.567171	0.738494
H224	H	-0.109361	-0.492604	0.742408
H225	H	0.004839	-0.615116	0.760980
H226	H	-0.008901	-0.540513	0.764889
H227	H	0.251872	-0.599651	0.618278
O228	O	0.219262	-0.644812	0.573087
C229	C	0.326842	-0.695201	0.522730
C230	C	0.280349	-0.654105	0.563872
H231	H	0.376241	-0.702738	0.515277
H232	H	0.319373	-0.671381	0.475947
H233	H	0.319327	-0.741951	0.546546
H234	H	0.287836	-0.607349	0.540110
H235	H	0.287829	-0.677973	0.610653
H236	H	0.429307	-0.646943	0.702793
H237	H	0.547237	-0.686258	0.663446
H238	H	0.547206	-0.495421	0.590679
H239	H	0.203661	-0.277820	0.570179
H240	H	0.164306	-0.159876	0.530897
H241	H	0.068098	-0.159910	0.723527
H242	H	0.107441	-0.277854	0.762810
