data_functionalizedCrystal
_audit_creation_method	'MofGen! by Chris Wilmer'
_symmetry_space_group_name_H-M	'P1'
_symmetry_Int_Tables_number	1
_symmetry_cell_setting	triclinic
loop_
_symmetry_equiv_pos_as_xyz
  x,y,z
_cell_length_a	10.654558
_cell_length_b	11.792254
_cell_length_c	9.730223
_cell_angle_alpha	89.998472
_cell_angle_beta	90.000400
_cell_angle_gamma	84.343457
loop_
_atom_site_label
_atom_site_type_symbol
_atom_site_fract_x
_atom_site_fract_y
_atom_site_fract_z
O1	O	1.667385	0.159459	-0.114271
O2	O	1.301866	0.174638	-0.114278
O3	O	1.493487	0.001899	-0.114265
O4	O	1.475763	0.332197	-0.114285
O5	O	1.493485	0.001904	0.114315
O6	O	1.301863	0.174642	0.114301
O7	O	1.667383	0.159463	0.114308
Zn8	Zn	1.484623	0.167053	0.150597
Zn9	Zn	1.484626	0.167048	-0.150567
O10	O	1.475761	0.332202	0.114295
C11	C	1.255070	0.173523	0.000011
C12	C	1.115636	0.170183	0.000008
C13	C	0.919112	0.165485	-0.124591
C14	C	1.050126	0.168614	-0.124592
C15	C	1.050127	0.168612	0.124618
C16	C	0.919117	0.165476	0.124618
C17	C	0.853607	0.163927	-0.249199
C18	C	0.919107	0.165496	-0.373810
C19	C	1.050121	0.168624	-0.373811
C20	C	1.115635	0.170184	-0.249202
C21	C	1.492369	-0.040392	0.000024
C22	C	1.489028	-0.166413	0.000023
C23	C	1.486313	-0.268755	0.000018
C24	C	1.482917	-0.397150	0.000005
C25	C	1.714178	0.160578	0.000016
C26	C	1.853612	0.163918	0.000010
C27	C	1.476879	0.374493	0.000003
C28	C	1.480220	0.500513	-0.000005
N29	N	1.484630	0.167057	0.356133
N30	N	1.484628	0.167035	-0.356103
C31	C	1.569502	0.090594	0.428065
C32	C	1.569498	0.090580	0.571948
C33	C	1.399747	0.243501	0.571955
C34	C	1.399746	0.243509	0.428074
C35	C	1.654386	0.014142	0.356124
C36	C	1.739266	-0.062325	0.428057
C37	C	1.739262	-0.062339	0.571939
C38	C	1.654379	0.014115	0.643890
H39	H	1.103479	0.169885	0.226069
O40	O	0.726320	0.161044	-0.249370
C41	C	0.669012	0.258147	-0.317680
H42	H	0.739995	0.292664	-0.390441
H43	H	0.584401	0.233996	-0.378930
H44	H	0.636298	0.326302	-0.238908
H45	H	0.865783	0.164221	0.226079
O46	O	1.113549	0.170189	-0.494973
C47	C	1.027638	0.168110	-0.604947
H48	H	0.929299	0.201747	-0.568415
H49	H	1.057897	0.224025	-0.692094
H50	H	1.026248	0.076881	-0.643260
H51	H	1.654399	0.014149	0.238968
O52	O	1.821623	-0.136522	0.357957
C53	C	1.803385	-0.120157	0.215539
H54	H	1.757122	-0.030293	0.195876
H55	H	1.898389	-0.132048	0.160834
H56	H	1.739901	-0.184896	0.174743
H57	H	1.654375	0.014089	0.761050
O58	O	1.242926	0.173053	-0.249367
C59	C	1.300226	0.075947	-0.317672
H60	H	1.229240	0.041439	-0.390435
H61	H	1.384841	0.100092	-0.378919
H62	H	1.332931	0.007788	-0.238897
H63	H	1.808366	-0.124609	0.630505
H64	H	0.865758	0.164218	-0.475262
H65	H	1.330640	0.305748	0.630546
O66	O	1.317261	0.317896	0.358404
C67	C	1.242328	0.385362	0.452750
H68	H	1.293820	0.387078	0.555315
H69	H	1.223784	0.475846	0.411176
H70	H	1.148787	0.347718	0.468048
