data_functionalizedCrystal
_audit_creation_method	'MofGen! by Chris Wilmer'
_symmetry_space_group_name_H-M	'P1'
_symmetry_Int_Tables_number	1
_symmetry_cell_setting	triclinic
loop_
_symmetry_equiv_pos_as_xyz
  x,y,z
_cell_length_a	11.169417
_cell_length_b	16.625539
_cell_length_c	11.169416
_cell_angle_alpha	89.976662
_cell_angle_beta	90.011398
_cell_angle_gamma	89.983071
loop_
_atom_site_label
_atom_site_type_symbol
_atom_site_fract_x
_atom_site_fract_y
_atom_site_fract_z
Zn1	Zn	1.834933	-0.455859	-0.477765
Zn2	Zn	1.834832	-0.321038	-0.678477
Zn3	Zn	1.634228	-0.321048	-0.477811
Zn4	Zn	1.634227	-0.455836	-0.678409
O5	O	1.734555	-0.388445	-0.578116
O6	O	2.002870	-0.437980	-0.504399
O7	O	1.808180	-0.208207	-0.651907
O8	O	1.660895	-0.338945	-0.309856
O9	O	2.002795	-0.338927	-0.651862
O10	O	1.808352	-0.437990	-0.309821
O11	O	1.660797	-0.208214	-0.504478
O12	O	1.466278	-0.338923	-0.504412
O13	O	1.660893	-0.568672	-0.651745
O14	O	1.466278	-0.437951	-0.651790
O15	O	1.808351	-0.568688	-0.504333
O16	O	1.808179	-0.338905	-0.846418
O17	O	1.660795	-0.437941	-0.846368
C18	C	1.422731	-0.388436	-0.578100
C19	C	1.289331	-0.388451	-0.578122
C20	C	1.734633	-0.598754	-0.578026
C21	C	1.734667	-0.688375	-0.577988
C22	C	1.734722	-1.016551	-0.577854
C23	C	1.734703	-0.925243	-0.577895
C24	C	1.734695	-0.852466	-0.577922
C25	C	1.734675	-0.761152	-0.577961
C26	C	2.047598	-0.388455	-0.578133
C27	C	2.180998	-0.388459	-0.578140
C28	C	1.734509	-0.388437	-0.889940
C29	C	1.734599	-0.388461	-1.023340
C30	C	1.734547	-0.178954	-0.578118
C31	C	1.734746	-0.089334	-0.577818
C32	C	1.734635	-0.388471	-0.265073
C33	C	1.734669	-0.388482	-0.131673
