data_functionalizedCrystal
_audit_creation_method	'MofGen! by Chris Wilmer'
_symmetry_space_group_name_H-M	'P1'
_symmetry_Int_Tables_number	1
_symmetry_cell_setting	triclinic
loop_
_symmetry_equiv_pos_as_xyz
  x,y,z
_cell_length_a	13.262390
_cell_length_b	13.339070
_cell_length_c	16.776229
_cell_angle_alpha	89.996888
_cell_angle_beta	74.075576
_cell_angle_gamma	99.429367
loop_
_atom_site_label
_atom_site_type_symbol
_atom_site_fract_x
_atom_site_fract_y
_atom_site_fract_z
O1	O	1.432459	0.136443	-0.376853
O2	O	1.932459	0.636443	0.123147
O3	O	1.131184	0.151274	-0.311535
O4	O	1.631184	0.651274	0.188465
O5	O	1.247245	-0.003551	-0.336695
O6	O	1.747245	0.496449	0.163305
O7	O	1.316398	0.291268	-0.351693
O8	O	1.816398	0.791268	0.148307
O9	O	1.247221	-0.003560	-0.204114
O10	O	1.747221	0.496440	0.295886
O11	O	1.131160	0.151264	-0.178954
O12	O	1.631160	0.651264	0.321046
O13	O	1.432435	0.136434	-0.244271
O14	O	1.932435	0.636434	0.255729
Zn15	Zn	1.281794	0.143847	-0.190562
Zn16	Zn	1.781794	0.643847	0.309438
Zn17	Zn	1.281826	0.143860	-0.365244
Zn18	Zn	1.781826	0.643860	0.134756
O19	O	1.316374	0.291258	-0.219111
O20	O	1.816374	0.791258	0.280889
C21	C	1.091825	0.150437	-0.236714
C22	C	1.591825	0.650437	0.263286
C23	C	0.974578	0.147947	-0.211295
C24	C	1.474578	0.647947	0.288705
C25	C	0.644136	0.140934	-0.428734
C26	C	1.144136	0.640934	0.071266
C27	C	0.754294	0.143269	-0.452618
C28	C	1.254294	0.643269	0.047382
C29	C	0.809370	0.144439	-0.392289
C30	C	1.309370	0.644439	0.107711
C31	C	0.754277	0.143273	-0.308072
C32	C	1.254277	0.643273	0.191928
C33	C	0.644107	0.140930	-0.284186
C34	C	1.144107	0.640930	0.215814
C35	C	0.809342	0.144435	-0.247741
C36	C	1.309342	0.644435	0.252259
C37	C	0.754249	0.143269	-0.163524
C38	C	1.254249	0.643269	0.336476
C39	C	0.644089	0.140926	-0.139642
C40	C	1.144089	0.640926	0.360358
C41	C	0.589013	0.139756	-0.199971
C42	C	1.089013	0.639756	0.300029
C43	C	0.919512	0.146778	-0.271628
C44	C	1.419512	0.646778	0.228372
C45	C	0.919484	0.146774	-0.127079
C46	C	1.419484	0.646774	0.372921
C47	C	0.809325	0.144439	-0.103195
C48	C	1.309325	0.644439	0.396805
C49	C	1.235552	-0.041294	-0.267873
C50	C	1.735552	0.458706	0.232127
C51	C	1.200732	-0.153743	-0.260327
C52	C	1.700732	0.346257	0.239673
C53	C	1.471469	-0.517393	-0.319023
C54	C	1.971469	-0.017393	0.180977
C55	C	1.504186	-0.411742	-0.326109
C56	C	2.004186	0.088258	0.173891
C57	C	1.428326	-0.347238	-0.309665
C58	C	1.928326	0.152762	0.190335
C59	C	1.319742	-0.388393	-0.286132
C60	C	1.819742	0.111607	0.213868
C61	C	1.287021	-0.494055	-0.279040
C62	C	1.787021	0.005945	0.220960
C63	C	1.243878	-0.323899	-0.269681
C64	C	1.743878	0.176101	0.230319
C65	C	1.135294	-0.365055	-0.246149
C66	C	1.635294	0.134945	0.253851
C67	C	1.102578	-0.470706	-0.239058
C68	C	1.602578	0.029294	0.260942
C69	C	1.178439	-0.535211	-0.255502
C70	C	1.678439	-0.035211	0.244498
C71	C	1.276599	-0.218238	-0.276774
C72	C	1.776599	0.281762	0.223226
C73	C	1.092151	-0.194899	-0.236790
C74	C	1.592151	0.305101	0.263210
C75	C	1.059433	-0.300550	-0.229704
C76	C	1.559433	0.199450	0.270296
C77	C	1.471795	0.137270	-0.319094
C78	C	1.971795	0.637270	0.180906
C79	C	1.589041	0.139761	-0.344519
C80	C	2.089041	0.639761	0.155481
C81	C	1.328068	0.329002	-0.287935
C82	C	1.828068	0.829002	0.212065
C83	C	1.362887	0.441451	-0.295486
C84	C	1.862887	0.941451	0.204514
N85	N	1.281779	0.143838	-0.071348
N86	N	1.781779	0.643838	0.428652
N87	N	1.281846	0.143861	-0.484460
N88	N	1.781846	0.643861	0.015540
C89	C	1.333201	0.075310	-0.040778
C90	C	1.833201	0.575310	0.459222
C91	C	1.333207	0.075309	0.042673
C92	C	1.833207	0.575309	0.542673
C93	C	1.281796	0.143842	0.095551
C94	C	1.781796	0.643842	0.595551
C95	C	1.230368	0.212374	0.064977
C96	C	1.730368	0.712374	0.564977
C97	C	1.230357	0.212369	-0.018471
C98	C	1.730357	0.712369	0.481529
C99	C	1.230412	0.212394	0.401515
C100	C	1.730412	0.712394	0.901515
C101	C	1.230430	0.212395	0.484968
C102	C	1.730430	0.712395	0.984968
C103	C	1.333262	0.075334	0.462659
C104	C	1.833262	0.575334	0.962659
C105	C	1.333250	0.075329	0.379211
C106	C	1.833250	0.575329	0.879211
C107	C	1.281818	0.143857	0.348645
C108	C	1.781818	0.643857	0.848645
C109	C	1.281811	0.143855	0.258158
C110	C	1.781811	0.643855	0.758158
C111	C	1.281809	0.143849	0.186035
C112	C	1.781809	0.643849	0.686035
H113	H	0.799142	0.144213	-0.521187
H114	H	1.299142	0.644213	-0.021187
H115	H	1.592595	-0.378241	-0.345268
H116	H	2.092595	0.121759	0.154732
H117	H	1.375118	0.019527	0.336158
H118	H	1.875118	0.519527	0.836158
H119	H	0.599281	0.139971	-0.477844
H120	H	1.099281	0.639971	0.022156
H121	H	1.365008	-0.184739	-0.295933
H122	H	1.865008	0.315261	0.204067
H123	H	1.454971	-0.261212	-0.315435
H124	H	1.954971	0.238788	0.184565
H125	H	0.899067	0.146341	-0.411741
H126	H	1.399067	0.646341	0.088259
H127	H	1.188536	0.268193	0.376635
H128	H	1.688536	0.768193	0.876635
F129	F	1.011408	-0.126253	-0.219283
F130	F	1.511408	0.373747	0.280717
F131	F	0.471769	0.137278	-0.174555
F132	F	0.971769	0.637278	0.325445
H133	H	1.533222	-0.569922	-0.332403
H134	H	2.033222	-0.069922	0.167597
H135	H	0.964326	0.147725	-0.077954
H136	H	1.464326	0.647725	0.422046
F137	F	0.585457	0.139680	-0.050010
F138	F	1.085457	0.639680	0.449990
H139	H	0.764453	0.143489	-0.034625
H140	H	1.264453	0.643489	0.465375
H141	H	1.188482	0.268170	-0.043359
H142	H	1.688482	0.768170	0.456641
F143	F	1.143622	-0.647659	-0.248037
F144	F	1.643622	-0.147659	0.251963
H145	H	1.014162	-0.504211	-0.219891
H146	H	1.514162	-0.004211	0.280109
F147	F	1.175708	0.285340	0.541245
F148	F	1.675708	0.785340	1.041245
F149	F	1.175646	0.285308	0.121257
F150	F	1.675646	0.785308	0.621257
H151	H	0.971022	-0.334074	-0.210544
H152	H	1.471022	0.165926	0.289456
F153	F	1.387927	0.002371	-0.097050
F154	F	1.887927	0.502371	0.402950
F155	F	1.387934	0.002373	0.075208
F156	F	1.887934	0.502373	0.575208
H157	H	0.964359	0.147729	-0.340197
H158	H	1.464359	0.647729	0.159803
H159	H	1.375137	0.019532	0.487555
H160	H	1.875137	0.519532	0.987555
