data_functionalizedCrystal
_audit_creation_method	'MofGen! by Chris Wilmer'
_symmetry_space_group_name_H-M	'P1'
_symmetry_Int_Tables_number	1
_symmetry_cell_setting	triclinic
loop_
_symmetry_equiv_pos_as_xyz
  x,y,z
_cell_length_a	14.044220
_cell_length_b	10.540539
_cell_length_c	12.503572
_cell_angle_alpha	93.560877
_cell_angle_beta	86.164750
_cell_angle_gamma	88.857185
loop_
_atom_site_label
_atom_site_type_symbol
_atom_site_fract_x
_atom_site_fract_y
_atom_site_fract_z
O1	O	1.265193	0.299541	-0.089197
O2	O	1.765193	0.799541	0.410803
O3	O	0.989150	0.288487	-0.089224
O4	O	1.489150	0.788487	0.410776
O5	O	1.133469	0.109945	-0.089208
O6	O	1.633469	0.609945	0.410792
O7	O	1.120874	0.478084	-0.089212
O8	O	1.620874	0.978084	0.410788
O9	O	1.122616	0.123396	0.089432
O10	O	1.622616	0.623396	0.589432
O11	O	0.978297	0.301939	0.089417
O12	O	1.478297	0.801939	0.589417
O13	O	1.254339	0.312993	0.089444
O14	O	1.754339	0.812993	0.589444
Cu15	Cu	1.115327	0.308694	0.105742
Cu16	Cu	1.615327	0.808694	0.605742
Cu17	Cu	1.128163	0.292786	-0.105522
Cu18	Cu	1.628163	0.792786	0.394478
O19	O	1.110020	0.491536	0.089428
O20	O	1.610020	0.991536	0.589428
C21	C	0.948377	0.290375	0.000093
C22	C	1.448377	0.790375	0.500093
C23	C	0.843054	0.275945	0.000082
C24	C	1.343054	0.775945	0.500082
C25	C	0.650213	0.249566	0.000104
C26	C	1.150213	0.749566	0.500104
C27	C	0.593272	0.351908	0.000107
C28	C	1.093272	0.851908	0.500107
C29	C	0.485969	0.337231	0.000119
C30	C	0.985969	0.837231	0.500119
C31	C	0.757526	0.264241	0.000092
C32	C	1.257526	0.764241	0.500092
C33	C	1.127098	0.069272	0.000110
C34	C	1.627098	0.569272	0.500110
C35	C	1.124272	-0.071962	0.000104
C36	C	1.624272	0.428038	0.500104
C37	C	1.016008	-0.266368	-0.000308
C38	C	1.516008	0.233632	0.499692
C39	C	1.018848	-0.119430	0.000095
C40	C	1.518848	0.380570	0.500095
C41	C	1.168809	-0.120809	0.102122
C42	C	1.668809	0.379191	0.602122
C43	C	1.165206	-0.267711	0.102207
C44	C	1.665206	0.232289	0.602207
C45	C	1.179693	-0.283309	-0.100941
C46	C	1.679693	0.216691	0.399059
C47	C	1.180746	-0.136331	-0.102289
C48	C	1.680746	0.363669	0.397711
C49	C	1.295113	0.311105	0.000125
C50	C	1.795113	0.811105	0.500125
C51	C	1.400436	0.325535	0.000129
C52	C	1.900436	0.825535	0.500129
C53	C	1.116392	0.532208	0.000108
C54	C	1.616392	1.032208	0.500108
C55	C	1.119218	0.673442	0.000107
C56	C	1.619218	1.173442	0.500107
N57	N	1.106306	0.319883	0.254333
N58	N	1.606306	0.819883	0.754333
N59	N	1.137191	0.281588	-0.254113
N60	N	1.637191	0.781588	0.245887
C61	C	1.093036	0.336354	0.473447
C62	C	1.593036	0.836354	0.973447
C63	C	1.150458	0.265121	0.526780
C64	C	1.650458	0.765121	1.026780
C65	C	1.143074	0.274286	0.648703
C66	C	1.643074	0.774286	1.148703
C67	C	1.100419	0.327191	0.351513
C68	C	1.600419	0.827191	0.851513
H69	H	0.625111	0.450550	0.000101
H70	H	1.125111	0.950550	0.500101
H71	H	1.205164	0.197256	0.480873
H72	H	1.705164	0.697256	0.980873
H73	H	1.123078	-0.293959	0.178460
H74	H	1.623078	0.206041	0.678460
H75	H	0.978808	-0.304687	-0.073467
H76	H	1.478808	0.195313	0.426533
O77	O	0.608051	0.118906	0.000104
O78	O	1.108051	0.618906	0.500104
H79	H	0.529165	0.127737	0.000103
H80	H	1.029165	0.627737	0.500103
O81	O	0.971836	-0.075618	-0.096758
O82	O	1.471836	0.424382	0.403242
H83	H	0.946860	-0.159433	-0.144305
H84	H	1.446860	0.340567	0.355695
H85	H	0.970113	-0.295291	0.072433
H86	H	1.470113	0.204709	0.572433
O87	O	1.116025	-0.061530	0.202680
O88	O	1.616025	0.438470	0.702680
H89	H	1.039841	-0.087783	0.203683
H90	H	1.539841	0.412217	0.703683
H91	H	1.038335	0.404216	0.519348
H92	H	1.538335	0.904216	1.019348
H93	H	0.974198	-0.076223	0.073339
H94	H	1.474198	0.423777	0.573339
H95	H	1.240744	-0.307665	0.106843
H96	H	1.740744	0.192335	0.606843
O97	O	1.140755	-0.337375	-0.203387
O98	O	1.640755	0.162625	0.296613
H99	H	1.065772	-0.303498	-0.207023
H100	H	1.565772	0.196502	0.292977
H101	H	1.245999	-0.090342	0.105922
H102	H	1.745999	0.409658	0.605922
H103	H	1.148208	-0.104908	-0.177759
H104	H	1.648208	0.395092	0.322241
H105	H	1.255882	-0.322888	-0.101619
H106	H	1.755882	0.177112	0.398381
O107	O	1.283059	-0.094585	-0.110447
O108	O	1.783059	0.405415	0.389553
H109	H	1.295313	-0.027012	-0.041337
H110	H	1.795313	0.472988	0.458663
