data_functionalizedCrystal
_audit_creation_method	'MofGen! by Chris Wilmer'
_symmetry_space_group_name_H-M	'P1'
_symmetry_Int_Tables_number	1
_symmetry_cell_setting	triclinic
loop_
_symmetry_equiv_pos_as_xyz
  x,y,z
_cell_length_a	14.044220
_cell_length_b	14.044220
_cell_length_c	13.101039
_cell_angle_alpha	93.667477
_cell_angle_beta	86.340132
_cell_angle_gamma	93.188878
loop_
_atom_site_label
_atom_site_type_symbol
_atom_site_fract_x
_atom_site_fract_y
_atom_site_fract_z
O1	O	1.281968	0.225348	-0.085109
O2	O	1.005298	0.217041	-0.085135
O3	O	1.139480	0.082860	-0.085112
O4	O	1.147787	0.359530	-0.085132
O5	O	1.129854	0.092504	0.085316
O6	O	0.995673	0.226686	0.085293
O7	O	1.272343	0.234993	0.085319
Zn8	Zn	1.132479	0.232371	0.112365
Zn9	Zn	1.145162	0.219663	-0.112181
O10	O	1.138161	0.369175	0.085296
C11	C	0.964864	0.218228	0.000076
C12	C	0.858722	0.207383	0.000066
C13	C	0.664383	0.187558	0.000088
C14	C	0.613253	0.264472	0.000087
C15	C	0.505116	0.253441	0.000099
C16	C	0.772529	0.198587	0.000076
C17	C	1.131031	0.052060	0.000102
C18	C	1.120187	-0.054083	0.000102
C19	C	1.100362	-0.248421	0.000086
C20	C	1.177276	-0.299551	0.000090
C21	C	1.166245	-0.407688	0.000080
C22	C	1.111391	-0.140275	0.000095
C23	C	1.312777	0.233806	0.000106
C24	C	1.418920	0.244651	0.000109
C25	C	1.146610	0.399974	0.000080
C26	C	1.157455	0.506116	0.000073
N27	N	1.123831	0.241043	0.265612
N28	N	1.153817	0.210984	-0.265428
C29	C	1.112065	0.252851	0.474653
C30	C	1.165580	0.199179	0.525538
C31	C	1.159034	0.205749	0.641855
C32	C	1.118610	0.246282	0.358325
H33	H	0.626945	0.113431	0.000099
H34	H	0.650693	0.338605	0.000077
C35	C	1.276042	-0.249457	0.000163
C36	C	1.267491	-0.150603	0.000198
C37	C	1.358448	-0.104421	0.000283
H38	H	1.313188	-0.270642	-0.059247
H39	H	1.306391	-0.263991	0.059625
H40	H	1.237155	-0.136076	-0.059258
H41	H	1.230362	-0.129391	0.059604
H42	H	1.388798	-0.118955	0.059744
H43	H	1.395587	-0.125614	-0.059129
H44	H	1.352659	-0.037344	0.000316
H45	H	1.061336	0.303733	0.518442
C46	C	1.001596	-0.298508	0.000134
C47	C	1.010152	-0.397358	0.000157
C48	C	0.919190	-0.443539	0.000220
H49	H	0.971159	-0.284036	-0.059280
H50	H	0.964528	-0.277262	0.059592
H51	H	1.047205	-0.418596	-0.059295
H52	H	1.040572	-0.411857	0.059566
H53	H	0.882122	-0.422293	0.059678
H54	H	0.888761	-0.429060	-0.059195
H55	H	0.924983	-0.510613	0.000245
C56	C	1.232986	0.131202	0.466968
C57	C	1.226044	0.137994	0.361570
C58	C	1.288030	0.075301	0.307580
H59	H	1.216010	0.067628	0.484494
H60	H	1.296729	0.147655	0.484303
H61	H	1.162315	0.121535	0.344242
H62	H	1.243028	0.201554	0.344014
H63	H	1.351773	0.091754	0.324915
H64	H	1.271048	0.011732	0.325114
H65	H	1.283335	0.079908	0.236062
