data_functionalizedCrystal
_audit_creation_method	'MofGen! by Chris Wilmer'
_symmetry_space_group_name_H-M	'P1'
_symmetry_Int_Tables_number	1
_symmetry_cell_setting	triclinic
loop_
_symmetry_equiv_pos_as_xyz
  x,y,z
_cell_length_a	19.188940
_cell_length_b	17.699083
_cell_length_c	16.776229
_cell_angle_alpha	90.001114
_cell_angle_beta	89.992904
_cell_angle_gamma	96.784135
loop_
_atom_site_label
_atom_site_type_symbol
_atom_site_fract_x
_atom_site_fract_y
_atom_site_fract_z
O1	O	0.088294	-1.003966	-0.066177
O2	O	0.421627	-0.670632	0.267156
O3	O	0.754961	-0.337299	0.600489
O4	O	0.099781	-0.783572	-0.066203
O5	O	0.433114	-0.450239	0.267130
O6	O	0.766448	-0.116906	0.600463
O7	O	-0.007611	-0.900125	-0.066183
O8	O	0.325723	-0.566792	0.267150
O9	O	0.659056	-0.233459	0.600483
O10	O	0.195686	-0.887413	-0.066197
O11	O	0.529019	-0.554079	0.267136
O12	O	0.862352	-0.220746	0.600469
O13	O	-0.007617	-0.900110	0.066393
O14	O	0.325716	-0.566777	0.399726
O15	O	0.659050	-0.233443	0.733060
O16	O	0.099775	-0.783557	0.066373
O17	O	0.433108	-0.450224	0.399706
O18	O	0.766441	-0.116890	0.733040
O19	O	0.088287	-1.003950	0.066399
O20	O	0.421621	-0.670617	0.399733
O21	O	0.754954	-0.337283	0.733066
Zn22	Zn	0.094030	-0.893751	0.087436
Zn23	Zn	0.427363	-0.560418	0.420769
Zn24	Zn	0.760697	-0.227084	0.754102
Zn25	Zn	0.094039	-0.893771	-0.087240
Zn26	Zn	0.427372	-0.560438	0.246094
Zn27	Zn	0.760705	-0.227105	0.579427
O28	O	0.195679	-0.887397	0.066379
O29	O	0.529012	-0.554064	0.399713
O30	O	0.862346	-0.220731	0.733046
C31	C	0.099366	-0.755368	0.000081
C32	C	0.432700	-0.422035	0.333415
C33	C	0.766033	-0.088702	0.666748
C34	C	0.098131	-0.671352	0.000072
C35	C	0.431465	-0.338018	0.333405
C36	C	0.764798	-0.004685	0.666738
C37	C	-0.033625	-0.899705	0.000105
C38	C	0.299708	-0.566371	0.333438
C39	C	0.633042	-0.233038	0.666771
C40	C	-0.111131	-0.898465	0.000104
C41	C	0.222203	-0.565132	0.333437
C42	C	0.555536	-0.231799	0.666771
C43	C	0.088702	-1.032154	0.000113
C44	C	0.422036	-0.698821	0.333446
C45	C	0.755369	-0.365488	0.666779
C46	C	0.089937	-1.116171	0.000117
C47	C	0.423270	-0.782837	0.333450
C48	C	0.756604	-0.449504	0.666784
C49	C	-0.664403	-0.889639	0.072352
C50	C	-0.331070	-0.556305	0.405685
C51	C	0.002263	-0.222972	0.739018
C52	C	-0.591578	-0.890795	0.072356
C53	C	-0.258244	-0.557462	0.405690
C54	C	0.075089	-0.224128	0.739023
C55	C	-0.555154	-0.891385	0.000090
C56	C	-0.221821	-0.558052	0.333423
C57	C	0.111513	-0.224719	0.666756
C58	C	-0.591559	-0.890799	-0.072187
C59	C	-0.258226	-0.557466	0.261147
C60	C	0.075107	-0.224133	0.594480
C61	C	-0.664383	-0.889636	-0.072189
C62	C	-0.331050	-0.556302	0.261144
C63	C	0.002284	-0.222969	0.594477
N64	N	-0.446077	-0.936287	-0.053694
N65	N	-0.112744	-0.602954	0.279639
N66	N	0.220590	-0.269621	0.612972
N67	N	-0.376898	-0.937395	-0.053687
N68	N	-0.043565	-0.604061	0.279646
N69	N	0.289769	-0.270728	0.612979
C70	C	-0.335741	-0.894891	0.000093
C71	C	-0.002407	-0.561557	0.333426
C72	C	0.330926	-0.228224	0.666760
N73	N	-0.366377	-0.851247	0.053878
N74	N	-0.033044	-0.517913	0.387211
N75	N	0.300289	-0.184580	0.720544
N76	N	-0.435563	-0.850143	0.053873
N77	N	-0.102230	-0.516809	0.387206
N78	N	0.231104	-0.183476	0.720539
C79	C	-0.476189	-0.892647	0.000084
C80	C	-0.142856	-0.559314	0.333418
C81	C	0.190478	-0.225980	0.666751
C82	C	-0.220377	-0.896725	0.072370
C83	C	0.112956	-0.563391	0.405703
C84	C	0.446289	-0.230058	0.739036
C85	C	-0.147550	-0.897876	0.072371
C86	C	0.185784	-0.564543	0.405705
C87	C	0.519117	-0.231210	0.739038
C88	C	-0.147534	-0.897888	-0.072174
C89	C	0.185800	-0.564555	0.261160
C90	C	0.519133	-0.231222	0.594493
C91	C	-0.220359	-0.896729	-0.072173
C92	C	0.112974	-0.563396	0.261160
C93	C	0.446308	-0.230062	0.594493
C94	C	-0.256777	-0.896151	0.000101
C95	C	0.076556	-0.562818	0.333434
C96	C	0.409890	-0.229484	0.666767
C97	C	0.221694	-0.887818	0.000089
C98	C	0.555027	-0.554485	0.333423
C99	C	0.888360	-0.221151	0.666756
C100	C	0.299199	-0.889057	0.000085
C101	C	0.632533	-0.555724	0.333418
C102	C	0.965866	-0.222391	0.666751
N103	N	0.094024	-0.893743	0.206647
N104	N	0.427357	-0.560409	0.539980
N105	N	0.760690	-0.227076	0.873313
C106	C	0.161168	-0.622650	0.000068
C107	C	0.494501	-0.289317	0.333401
C108	C	0.827835	0.044017	0.666734
C109	C	0.160004	-0.543708	0.000078
C110	C	0.493337	-0.210375	0.333411
C111	C	0.826670	0.122958	0.666745
C112	C	0.095802	-0.513470	0.000087
C113	C	0.429135	-0.180136	0.333420
C114	C	0.762469	0.153197	0.666753
C115	C	0.032760	-0.562178	0.000093
C116	C	0.366094	-0.228844	0.333426
C117	C	0.699427	0.104489	0.666760
C118	C	0.033926	-0.641118	0.000088
C119	C	0.367259	-0.307784	0.333422
C120	C	0.700592	0.025549	0.666755
C121	C	0.028060	-0.243820	0.000113
C122	C	0.361393	0.089513	0.333446
C123	C	0.694727	0.422846	0.666780
C124	C	0.026900	-0.164874	0.000115
C125	C	0.360233	0.168459	0.333449
C126	C	0.693566	0.501793	0.666782
C127	C	0.154138	-0.146411	0.000103
C128	C	0.487472	0.186922	0.333436
C129	C	0.820805	0.520256	0.666769
C130	C	0.155303	-0.225351	0.000098
C131	C	0.488637	0.107982	0.333431
C132	C	0.821970	0.441315	0.666765
C133	C	0.092262	-0.274052	0.000109
C134	C	0.425596	0.059281	0.333442
C135	C	0.758929	0.392614	0.666775
C136	C	0.093526	-0.359650	0.000099
C137	C	0.426859	-0.026316	0.333432
C138	C	0.760192	0.307017	0.666766
C139	C	0.094538	-0.427874	0.000091
C140	C	0.427871	-0.094540	0.333424
C141	C	0.761204	0.238793	0.666757
N142	N	0.094039	-0.893786	-0.206451
N143	N	0.427373	-0.560452	0.126882
N144	N	0.760706	-0.227119	0.460216
C145	C	0.046490	-0.945368	0.248373
C146	C	0.379823	-0.612035	0.581706
C147	C	0.713157	-0.278701	0.915039
C148	C	0.046489	-0.945372	0.331825
C149	C	0.379823	-0.612039	0.665158
C150	C	0.713156	-0.278706	0.998492
C151	C	0.094026	-0.893754	0.373550
C152	C	0.427360	-0.560421	0.706883
C153	C	0.760693	-0.227088	1.040216
C154	C	0.141562	-0.842124	0.331818
C155	C	0.474895	-0.508790	0.665151
C156	C	0.808229	-0.175457	0.998485
C157	C	0.141559	-0.842116	0.248367
C158	C	0.474892	-0.508783	0.581701
C159	C	0.808225	-0.175450	0.915034
C160	C	0.141576	-0.842151	0.668365
C161	C	0.474909	-0.508818	1.001698
C162	C	0.808242	-0.175484	1.335032
C163	C	0.141577	-0.842164	0.751822
C164	C	0.474910	-0.508830	1.085155
C165	C	0.808244	-0.175497	1.418488
C166	C	0.046506	-0.945407	0.751823
C167	C	0.379840	-0.612073	1.085156
C168	C	0.713173	-0.278740	1.418489
C169	C	0.046503	-0.945400	0.668372
C170	C	0.379836	-0.612066	1.001705
C171	C	0.713170	-0.278733	1.335039
C172	C	0.094036	-0.893767	0.626648
C173	C	0.427369	-0.560433	0.959981
C174	C	0.760703	-0.227100	1.293314
C175	C	0.094035	-0.893762	0.536159
C176	C	0.427369	-0.560428	0.869493
C177	C	0.760702	-0.227095	1.202826
C178	C	0.094031	-0.893762	0.464036
C179	C	0.427364	-0.560429	0.797370
C180	C	0.760698	-0.227095	1.130703
H181	H	-0.694050	-0.889167	0.131203
H182	H	-0.360717	-0.555834	0.464536
H183	H	-0.027384	-0.222500	0.797869
C184	C	0.225930	-0.258609	0.000093
C185	C	0.559263	0.074725	0.333427
C186	C	0.892597	0.408058	0.666760
N187	N	0.279128	-0.283657	0.000095
N188	N	0.612461	0.049676	0.333429
N189	N	0.945794	0.383010	0.666762
H190	H	0.007797	-0.987434	0.634402
H191	H	0.341130	-0.654101	0.967736
H192	H	0.674463	-0.320767	1.301069
C193	C	0.193855	-0.785331	0.202469
C194	C	0.527188	-0.451997	0.535802
C195	C	0.860522	-0.118664	0.869136
N196	N	0.233247	-0.742558	0.167900
N197	N	0.566580	-0.409225	0.501233
N198	N	0.899913	-0.075891	0.834566
H199	H	-0.561935	-0.891254	0.131206
H200	H	-0.228602	-0.557921	0.464540
H201	H	0.104731	-0.224588	0.797873
C202	C	0.193869	-0.785372	0.797717
C203	C	0.527202	-0.452039	1.131050
C204	C	0.860536	-0.118705	1.464384
N205	N	0.233253	-0.742598	0.832286
N206	N	0.566586	-0.409265	1.165619
N207	N	0.899920	-0.075932	1.498952
H208	H	0.180280	-0.800111	0.634400
H209	H	0.513613	-0.466778	0.967733
H210	H	0.846947	-0.133444	1.301066
H211	H	0.180265	-0.800091	0.365795
H212	H	0.513599	-0.466758	0.699128
H213	H	0.846932	-0.133425	1.032462
H214	H	0.205469	-0.106749	0.000098
H215	H	0.538803	0.226585	0.333432
H216	H	0.872136	0.559918	0.666765
H217	H	-0.561898	-0.891277	-0.131027
H218	H	-0.228565	-0.557944	0.202307
H219	H	0.104768	-0.224610	0.535640
H220	H	0.007800	-0.987447	0.785804
H221	H	0.341133	-0.654114	1.119137
H222	H	0.674467	-0.320780	1.452470
H223	H	0.211335	-0.504058	0.000074
H224	H	0.544668	-0.170725	0.333407
H225	H	0.878001	0.162609	0.666741
H226	H	-0.025384	-0.140257	0.000124
H227	H	0.307949	0.193076	0.333457
H228	H	0.641283	0.526409	0.666790
C229	C	-0.704425	-0.889024	-0.151692
C230	C	-0.371091	-0.555691	0.181641
C231	C	-0.037758	-0.222357	0.514975
N232	N	-0.734586	-0.888574	-0.211575
N233	N	-0.401253	-0.555241	0.121759
N234	N	-0.067920	-0.221907	0.455092
C235	C	-0.041287	-0.297381	0.000120
C236	C	0.292046	0.035952	0.333453
C237	C	0.625379	0.369285	0.666786
N238	N	-0.093523	-0.337727	0.000123
N239	N	0.239810	-0.004393	0.333457
N240	N	0.573143	0.328940	0.666790
C241	C	-0.035420	-0.694690	0.000090
C242	C	0.297914	-0.361356	0.333424
C243	C	0.631247	-0.028023	0.666757
N244	N	-0.087653	-0.735040	0.000094
N245	N	0.245680	-0.401706	0.333427
N246	N	0.579014	-0.068373	0.666761
C247	C	-0.107471	-0.898535	-0.151668
C248	C	0.225862	-0.565202	0.181665
C249	C	0.559195	-0.231869	0.514999
N250	N	-0.077293	-0.899021	-0.211545
N251	N	0.256040	-0.565687	0.121788
N252	N	0.589374	-0.232354	0.455121
H253	H	-0.250030	-0.896247	0.131219
H254	H	0.083304	-0.562914	0.464553
H255	H	0.416637	-0.229581	0.797886
C256	C	-0.037862	-0.528912	0.000104
C257	C	0.295471	-0.195579	0.333438
C258	C	0.628804	0.137754	0.666771
N259	N	-0.091057	-0.503858	0.000109
N260	N	0.242276	-0.170524	0.333443
N261	N	0.575610	0.162809	0.666776
C262	C	-0.005818	-1.002146	0.377720
C263	C	0.327515	-0.668813	0.711053
C264	C	0.660849	-0.335479	1.044386
N265	N	-0.045225	-1.044904	0.412287
N266	N	0.288108	-0.711570	0.745620
N267	N	0.621442	-0.378237	1.078954
C268	C	-0.260403	-0.896136	-0.151674
C269	C	0.072930	-0.562803	0.181660
C270	C	0.406263	-0.229469	0.514993
N271	N	-0.290566	-0.895702	-0.211557
N272	N	0.042767	-0.562369	0.121776
N273	N	0.376101	-0.229035	0.455110
C274	C	-0.107512	-0.898512	0.151875
C275	C	0.225821	-0.565179	0.485208
C276	C	0.559154	-0.231846	0.818542
N277	N	-0.077356	-0.898992	0.211759
N278	N	0.255978	-0.565659	0.545092
N279	N	0.589311	-0.232325	0.878425
H280	H	0.213449	-0.647264	0.000060
H281	H	0.546782	-0.313930	0.333393
H282	H	0.880115	0.019403	0.666727
H283	H	0.007783	-0.987404	0.214406
H284	H	0.341116	-0.654071	0.547739
H285	H	0.674450	-0.320738	0.881073
