data_functionalizedCrystal
_audit_creation_method	'MofGen! by Chris Wilmer'
_symmetry_space_group_name_H-M	'P1'
_symmetry_Int_Tables_number	1
_symmetry_cell_setting	triclinic
loop_
_symmetry_equiv_pos_as_xyz
  x,y,z
_cell_length_a	29.839134
_cell_length_b	29.839131
_cell_length_c	21.395355
_cell_angle_alpha	89.979828
_cell_angle_beta	89.975517
_cell_angle_gamma	90.021992
loop_
_atom_site_label
_atom_site_type_symbol
_atom_site_fract_x
_atom_site_fract_y
_atom_site_fract_z
Zn1	Zn	0.686774	-0.179138	-0.354253
Zn2	Zn	1.186774	0.320862	0.145747
Zn3	Zn	0.686690	-0.254254	-0.249472
Zn4	Zn	1.186690	0.245746	0.250528
Zn5	Zn	0.611641	-0.179113	-0.249490
Zn6	Zn	1.111641	0.320887	0.250510
Zn7	Zn	0.611605	-0.254216	-0.354213
Zn8	Zn	1.111605	0.245784	0.145787
O9	O	0.649177	-0.216680	-0.301857
O10	O	1.149177	0.283320	0.198143
O11	O	0.749630	-0.189129	-0.340363
O12	O	1.249630	0.310871	0.159637
O13	O	0.676715	-0.244291	-0.161797
O14	O	1.176715	0.255709	0.338203
O15	O	0.621658	-0.116249	-0.263411
O16	O	1.121658	0.383751	0.236589
O17	O	0.749568	-0.244315	-0.263381
O18	O	1.249568	0.255685	0.236619
O19	O	0.676858	-0.116268	-0.340380
O20	O	1.176858	0.383732	0.159620
O21	O	0.621576	-0.189085	-0.161810
O22	O	1.121576	0.310915	0.338190
O23	O	0.548769	-0.189049	-0.263372
O24	O	1.048769	0.310951	0.236628
O25	O	0.621596	-0.244252	-0.441896
O26	O	1.121596	0.255748	0.058104
O27	O	0.548742	-0.244228	-0.340311
O28	O	1.048742	0.255772	0.159689
O29	O	0.676823	-0.189093	-0.441925
O30	O	1.176823	0.310907	0.058075
O31	O	0.676680	-0.317116	-0.263342
O32	O	1.176680	0.182884	0.236658
O33	O	0.621515	-0.317088	-0.340295
O34	O	1.121515	0.182912	0.159705
C35	C	0.532455	-0.216632	-0.301840
C36	C	1.032455	0.283368	0.198160
C37	C	0.482520	-0.216622	-0.301847
C38	C	0.982520	0.283378	0.198153
C39	C	0.125961	-0.188004	-0.342020
C40	C	0.625961	0.311996	0.157980
C41	C	0.313634	-0.187968	-0.342006
C42	C	0.813634	0.312032	0.157994
O43	O	0.337923	-0.163579	-0.376160
O44	O	0.837923	0.336421	0.123840
N45	N	0.337075	-0.216652	-0.301862
N46	N	0.837075	0.283348	0.198138
C47	C	0.313595	-0.245348	-0.261721
C48	C	0.813595	0.254652	0.238279
O49	O	0.337839	-0.269748	-0.227581
O50	O	0.837839	0.230252	0.272419
C51	C	0.125923	-0.245386	-0.261739
C52	C	0.625923	0.254614	0.238261
C53	C	0.102484	-0.216698	-0.301882
C54	C	0.602484	0.283302	0.198118
C55	C	0.102523	-0.159318	-0.382160
C56	C	0.602523	0.340682	0.117840
C57	C	0.055607	-0.159326	-0.382160
C58	C	0.555607	0.340674	0.117840
C59	C	0.032130	-0.188020	-0.342022
C60	C	0.532130	0.311980	0.157978
C61	C	0.055569	-0.216705	-0.301882
C62	C	0.555569	0.283295	0.198118
C63	C	0.102443	-0.274085	-0.221603
C64	C	0.602443	0.225915	0.278397
C65	C	0.055522	-0.274093	-0.221612
C66	C	0.555522	0.225907	0.278388
C67	C	0.032084	-0.245404	-0.261754
C68	C	0.532084	0.254596	0.238246
C69	C	-0.014824	-0.245407	-0.261745
C70	C	0.485176	0.254593	0.238255
N71	N	-0.038265	-0.216723	-0.301889
N72	N	0.461735	0.283277	0.198111
C73	C	-0.014788	-0.188030	-0.342027
C74	C	0.485212	0.311970	0.157973
C75	C	0.412126	-0.245326	-0.261714
C76	C	0.912126	0.254674	0.238286
C77	C	0.459043	-0.245316	-0.261708
C78	C	0.959043	0.254684	0.238292
C79	C	0.459079	-0.187936	-0.341994
C80	C	0.959079	0.312064	0.158006
C81	C	0.412161	-0.187944	-0.341996
C82	C	0.912161	0.312056	0.158004
C83	C	0.388685	-0.216642	-0.301858
C84	C	0.888685	0.283358	0.198142
C85	C	-0.113313	-0.188047	-0.342026
C86	C	0.386687	0.311953	0.157974
C87	C	-0.160233	-0.188056	-0.342021
C88	C	0.339767	0.311944	0.157979
C89	C	-0.160265	-0.245437	-0.261738
C90	C	0.339735	0.254563	0.238262
C91	C	-0.113349	-0.245427	-0.261740
C92	C	0.386651	0.254573	0.238260
C93	C	-0.089875	-0.216731	-0.301889
C94	C	0.410125	0.283269	0.198111
O95	O	-0.039141	-0.269787	-0.227614
O96	O	0.460859	0.230213	0.272386
O97	O	-0.039040	-0.163641	-0.376173
O98	O	0.460960	0.336359	0.123827
C99	C	0.172877	-0.187997	-0.342019
C100	C	0.672877	0.312003	0.157981
C101	C	0.196315	-0.216683	-0.301880
C102	C	0.696315	0.283317	0.198120
C103	C	0.172838	-0.245376	-0.261741
C104	C	0.672838	0.254624	0.238259
C105	C	0.243233	-0.216673	-0.301875
C106	C	0.743233	0.283327	0.198125
C107	C	0.266710	-0.187979	-0.342013
C108	C	0.766710	0.312021	0.157987
C109	C	0.243269	-0.159296	-0.382157
C110	C	0.743269	0.340704	0.117843
C111	C	0.196353	-0.159303	-0.382158
C112	C	0.696353	0.340697	0.117842
C113	C	0.196279	-0.274060	-0.221597
C114	C	0.696279	0.225940	0.278403
C115	C	0.243195	-0.274049	-0.221599
C116	C	0.743195	0.225951	0.278401
C117	C	0.266672	-0.245356	-0.261738
C118	C	0.766672	0.254644	0.238262
C119	C	0.649096	-0.333403	-0.301826
C120	C	1.149096	0.166597	0.198174
C121	C	0.649103	-0.383337	-0.301834
C122	C	1.149103	0.116663	0.198166
C123	C	0.677954	-0.692982	-0.261846
C124	C	1.177954	-0.192982	0.238154
C125	C	0.678009	-0.880655	-0.261871
C126	C	1.178009	-0.380655	0.238129
O127	O	0.702476	-0.904921	-0.227848
O128	O	1.202476	-0.404921	0.272152
N129	N	0.649270	-0.904122	-0.301904
N130	N	1.149270	-0.404122	0.198096
C131	C	0.620518	-0.880668	-0.341937
C132	C	1.120518	-0.380668	0.158063
O133	O	0.596078	-0.904935	-0.375993
O134	O	1.096078	-0.404935	0.124007
C135	C	0.620465	-0.692996	-0.341916
C136	C	1.120465	-0.192996	0.158084
C137	C	0.649202	-0.669531	-0.301875
C138	C	1.149202	-0.169531	0.198125
C139	C	0.706690	-0.669517	-0.221810
C140	C	1.206690	-0.169517	0.278190
C141	C	0.706674	-0.622602	-0.221802
C142	C	1.206674	-0.122602	0.278198
C143	C	0.677922	-0.599151	-0.261830
C144	C	1.177922	-0.099151	0.238170
C145	C	0.649187	-0.622616	-0.301867
C146	C	1.149187	-0.122616	0.198133
C147	C	0.591715	-0.669543	-0.381951
C148	C	1.091715	-0.169543	0.118049
C149	C	0.591705	-0.622622	-0.381944
C150	C	1.091705	-0.122622	0.118056
C151	C	0.620442	-0.599157	-0.341903
C152	C	1.120442	-0.099157	0.158097
C153	C	0.620419	-0.552250	-0.341888
C154	C	1.120419	-0.052250	0.158112
N155	N	0.649158	-0.528783	-0.301854
N156	N	1.149158	-0.028783	0.198146
C157	C	0.677910	-0.552233	-0.261826
C158	C	1.177910	-0.052233	0.238174
C159	C	0.620547	-0.979199	-0.341945
C160	C	1.120547	-0.479199	0.158055
C161	C	0.620559	-1.026117	-0.341950
C162	C	1.120559	-0.526117	0.158050
C163	C	0.678052	-1.026100	-0.261884
C164	C	1.178052	-0.526100	0.238116
C165	C	0.678037	-0.979182	-0.261876
C166	C	1.178037	-0.479182	0.238124
C167	C	0.649286	-0.955732	-0.301912
C168	C	1.149286	-0.455732	0.198088
C169	C	0.677874	-0.453708	-0.261811
C170	C	1.177874	0.046292	0.238189
C171	C	0.677854	-0.406788	-0.261805
C172	C	1.177854	0.093212	0.238195
C173	C	0.620364	-0.406808	-0.341873
C174	C	1.120364	0.093192	0.158127
C175	C	0.620381	-0.453724	-0.341877
C176	C	1.120381	0.046276	0.158123
C177	C	0.649140	-0.477172	-0.301844
C178	C	1.149140	0.022828	0.198156
O179	O	0.595969	-0.527955	-0.375897
O180	O	1.095969	-0.027955	0.124103
O181	O	0.702353	-0.527959	-0.227784
O182	O	1.202353	-0.027959	0.272216
C183	C	0.677970	-0.739898	-0.261855
C184	C	1.177970	-0.239898	0.238145
C185	C	0.649234	-0.763362	-0.301891
C186	C	1.149234	-0.263362	0.198109
C187	C	0.620483	-0.739912	-0.341920
C188	C	1.120483	-0.239912	0.158080
C189	C	0.649247	-0.810280	-0.301896
C190	C	1.149247	-0.310280	0.198104
C191	C	0.677998	-0.833731	-0.261867
C192	C	1.177998	-0.333731	0.238133
C193	C	0.706737	-0.810264	-0.221834
C194	C	1.206737	-0.310264	0.278166
C195	C	0.706721	-0.763348	-0.221826
C196	C	1.206721	-0.263348	0.278174
C197	C	0.591744	-0.763379	-0.381953
C198	C	1.091744	-0.263379	0.118047
C199	C	0.591762	-0.810294	-0.381958
C200	C	1.091762	-0.310294	0.118042
C201	C	0.620513	-0.833745	-0.341929
C202	C	1.120513	-0.333745	0.158071
C203	C	0.766356	-0.216729	-0.301875
C204	C	1.266356	0.283271	0.198125
C205	C	0.816290	-0.216750	-0.301882
C206	C	1.316290	0.283250	0.198118
C207	C	0.649215	-0.216671	-0.465280
C208	C	1.149215	0.283329	0.034720
C209	C	0.649230	-0.216667	-0.534922
C210	C	1.149230	0.283333	-0.034922
C211	C	0.649271	-0.099502	-0.301902
C212	C	1.149271	0.400498	0.198098
C213	C	0.649311	-0.049567	-0.301921
C214	C	1.149311	0.450433	0.198079
C215	C	0.677986	-0.187944	-0.567651
C216	C	1.177986	0.312056	-0.067651
C217	C	0.677985	-0.187925	-0.633087
C218	C	1.177985	0.312075	-0.133087
C219	C	0.649234	-0.216637	-0.665790
C220	C	1.149234	0.283363	-0.165790
C221	C	0.620473	-0.245362	-0.633053
C222	C	1.120473	0.254638	-0.133053
C223	C	0.620471	-0.245377	-0.567618
C224	C	1.120471	0.254623	-0.067618
C225	C	0.645659	-0.257087	-0.769454
C226	C	1.145659	0.242913	-0.269454
C227	C	0.645663	-0.257072	-0.834887
C228	C	1.145663	0.242928	-0.334887
C229	C	0.649237	-0.216589	-0.867611
C230	C	1.149237	0.283411	-0.367611
C231	C	0.652815	-0.176120	-0.834894
C232	C	1.152815	0.323880	-0.334894
C233	C	0.652813	-0.176135	-0.769460
C234	C	1.152813	0.323865	-0.269460
C235	C	0.649232	-0.216623	-0.736742
C236	C	1.149232	0.283377	-0.236742
C237	C	0.677993	-0.187843	-0.971293
C238	C	1.177993	0.312157	-0.471293
C239	C	0.677989	-0.187823	-1.036730
C240	C	1.177989	0.312177	-0.536730
C241	C	0.620480	-0.245263	-1.036694
C242	C	1.120480	0.254737	-0.536694
C243	C	0.620481	-0.245279	-0.971259
C244	C	1.120481	0.254721	-0.471259
C245	C	0.649240	-0.216570	-0.938562
C246	C	1.149240	0.283430	-0.438562
C247	C	0.649166	-0.216657	-0.139069
C248	C	1.149166	0.283343	0.360931
C249	C	0.649237	-0.216534	-0.069428
C250	C	1.149237	0.283466	0.430572
H251	H	0.478123	-0.268672	-0.229014
H252	H	0.978123	0.231328	0.270986
N253	N	-0.184174	-0.158759	-0.383039
N254	N	0.315826	0.341241	0.116961
N255	N	-0.210344	-0.174612	-0.422927
N256	N	0.289656	0.325388	0.077073
H257	H	-0.227251	-0.153922	-0.451897
H258	H	0.272749	0.346078	0.048103
H259	H	0.701400	-0.164533	-0.659740
H260	H	1.201400	0.335467	-0.159740
N261	N	0.707369	-0.158514	-0.937899
N262	N	1.207369	0.341486	-0.437899
N263	N	0.733038	-0.132865	-0.967133
N264	N	1.233038	0.367135	-0.467133
H265	H	0.753785	-0.112151	-0.943551
H266	H	1.253785	0.387849	-0.443551
N267	N	0.172311	-0.303369	-0.180582
N268	N	0.672311	0.196631	0.319418
N269	N	0.177541	-0.300324	-0.122777
N270	N	0.677541	0.199676	0.377223
H271	H	0.160616	-0.321025	-0.093804
H272	H	0.660616	0.178975	0.406196
N273	N	0.591104	-0.274684	-0.666465
N274	N	1.091104	0.225316	-0.166465
N275	N	0.591110	-0.274667	-0.724887
N276	N	1.091110	0.225333	-0.224887
H277	H	0.570365	-0.295375	-0.748485
H278	H	1.070365	0.204625	-0.248485
H279	H	0.393080	-0.164583	-0.374682
H280	H	0.893080	0.335417	0.125318
N281	N	0.591104	-0.274719	-0.534173
N282	N	1.091104	0.225281	-0.034173
N283	N	0.591109	-0.274730	-0.475750
N284	N	1.091109	0.225270	0.024250
H285	H	0.570368	-0.295454	-0.452127
H286	H	1.070368	0.204546	0.047873
N287	N	0.267140	-0.303356	-0.180599
N288	N	0.767140	0.196644	0.319401
N289	N	0.309031	-0.303352	-0.180601
N290	N	0.809031	0.196648	0.319399
H291	H	0.325942	-0.324052	-0.151650
H292	H	0.825942	0.175948	0.348350
N293	N	-0.089407	-0.274736	-0.220742
N294	N	0.410593	0.225264	0.279258
N295	N	-0.063231	-0.303386	-0.242717
N296	N	0.436769	0.196614	0.257283
H297	H	-0.046324	-0.324089	-0.213765
H298	H	0.453676	0.175911	0.286235
H299	H	0.701293	-0.472794	-0.229214
H300	H	1.201293	0.027206	0.270786
H301	H	0.655725	-0.143183	-0.742824
H302	H	1.155725	0.356817	-0.242824
N303	N	-0.184244	-0.274752	-0.220741
N304	N	0.315756	0.225248	0.279259
N305	N	-0.163315	-0.300367	-0.184904
N306	N	0.336685	0.199633	0.315096
H307	H	-0.180251	-0.321074	-0.155951
H308	H	0.319749	0.178926	0.344049
N309	N	0.707387	-0.955209	-0.220977
N310	N	1.207387	-0.455209	0.279023
N311	N	0.691588	-0.929052	-0.181027
N312	N	1.191588	-0.429052	0.318973
H313	H	0.712317	-0.912122	-0.152140
H314	H	1.212317	-0.412122	0.347860
H315	H	0.121519	-0.297446	-0.188915
H316	H	0.621519	0.202554	0.311085
N317	N	0.591003	-0.382841	-0.382759
N318	N	1.091003	0.117159	0.117241
N319	N	0.606794	-0.356635	-0.422694
N320	N	1.106794	0.143365	0.077306
H321	H	0.586060	-0.339705	-0.451573
H322	H	1.086060	0.160295	0.048427
N323	N	0.172422	-0.129994	-0.423165
N324	N	0.672422	0.370006	0.076835
N325	N	0.193397	-0.104379	-0.458997
N326	N	0.693397	0.395621	0.041003
H327	H	0.176499	-0.083678	-0.487961
H328	H	0.676499	0.416322	0.012039
N329	N	0.562410	-0.834260	-0.422869
N330	N	1.062410	-0.334260	0.077131
N331	N	0.578214	-0.860411	-0.462823
N332	N	1.078214	-0.360411	0.037177
H333	H	0.557488	-0.877336	-0.491720
H334	H	1.057488	-0.377336	0.008280
H335	H	0.393016	-0.268696	-0.229026
H336	H	0.893016	0.231304	0.270974
H337	H	0.568331	-0.744289	-0.414550
H338	H	1.068331	-0.244289	0.085450
H339	H	0.701405	-0.164431	-1.063377
H340	H	1.201405	0.335569	-0.563377
N341	N	-0.089346	-0.158733	-0.383040
N342	N	0.410654	0.341267	0.116960
N343	N	-0.110287	-0.133124	-0.418872
N344	N	0.389713	0.366876	0.081128
H345	H	-0.093360	-0.112418	-0.447836
H346	H	0.406640	0.387582	0.052164
N347	N	0.031662	-0.130032	-0.423172
N348	N	0.531662	0.369968	0.076828
N349	N	-0.010228	-0.130041	-0.423182
N350	N	0.489772	0.369959	0.076818
H351	H	-0.027138	-0.109352	-0.452151
H352	H	0.472862	0.390648	0.047849
N353	N	0.707351	-0.158608	-0.534256
N354	N	1.207351	0.341392	-0.034256
N355	N	0.691565	-0.129979	-0.497741
N356	N	1.191565	0.370021	0.002259
H357	H	0.712303	-0.109258	-0.474155
H358	H	1.212303	0.390742	0.025845
H359	H	0.478202	-0.164572	-0.374675
H360	H	0.978202	0.335428	0.125325
N361	N	0.591026	-0.477704	-0.382764
N362	N	1.091026	0.022296	0.117236
N363	N	0.562417	-0.503916	-0.360690
N364	N	1.062417	-0.003916	0.139310
H365	H	0.541687	-0.520851	-0.389570
H366	H	1.041687	-0.020851	0.110430
N367	N	0.031550	-0.303413	-0.180609
N368	N	0.531550	0.196587	0.319391
N369	N	0.052487	-0.329024	-0.144776
N370	N	0.552487	0.170976	0.355224
H371	H	0.035557	-0.349731	-0.115817
H372	H	0.535557	0.150269	0.384183
H373	H	0.655725	-0.143155	-0.861536
H374	H	1.155725	0.356845	-0.361536
H375	H	0.121632	-0.135952	-0.414849
H376	H	0.621632	0.364048	0.085151
N377	N	0.591115	-0.274622	-0.937813
N378	N	1.091115	0.225378	-0.437813
N379	N	0.591117	-0.274631	-0.879390
N380	N	1.091117	0.225369	-0.379390
H381	H	0.570375	-0.295354	-0.855768
H382	H	1.070375	0.204646	-0.355768
H383	H	0.597065	-0.268636	-1.063321
H384	H	1.097065	0.231364	-0.563321
N385	N	0.707211	-0.382827	-0.220895
N386	N	1.207211	0.117173	0.279105
N387	N	0.732879	-0.403774	-0.185159
N388	N	1.232879	0.096226	0.314841
H389	H	0.753612	-0.386854	-0.156267
H390	H	1.253612	0.113146	0.343733
H391	H	0.642753	-0.290025	-0.861520
H392	H	1.142753	0.209975	-0.361520
N393	N	0.736032	-0.598644	-0.180898
N394	N	1.236032	-0.098644	0.319102
N395	N	0.761700	-0.619596	-0.145165
N396	N	1.261700	-0.119596	0.354835
H397	H	0.782437	-0.602678	-0.116275
H398	H	1.282437	-0.102678	0.383725
H399	H	0.262392	-0.135931	-0.414837
H400	H	0.762392	0.364069	0.085163
N401	N	0.642004	-0.298446	-0.736040
N402	N	1.142004	0.201554	-0.236040
N403	N	0.638813	-0.334574	-0.765257
N404	N	1.138813	0.165426	-0.265257
H405	H	0.636231	-0.363783	-0.741660
H406	H	1.136231	0.136217	-0.241660
N407	N	0.736066	-0.693460	-0.180917
N408	N	1.236066	-0.193460	0.319083
N409	N	0.761719	-0.672495	-0.145178
N410	N	1.261719	-0.172495	0.354822
H411	H	0.782467	-0.689401	-0.116292
H412	H	1.282467	-0.189401	0.383708
N413	N	0.707417	-1.050059	-0.220988
N414	N	1.207417	-0.550059	0.279012
N415	N	0.691633	-1.076263	-0.181045
N416	N	1.191633	-0.576263	0.318955
H417	H	0.712372	-1.093186	-0.152165
H418	H	1.212372	-0.593186	0.347835
N419	N	0.591194	-1.050075	-0.382844
N420	N	1.091194	-0.550075	0.117156
N421	N	0.565527	-1.029126	-0.418579
N422	N	1.065527	-0.529126	0.081421
H423	H	0.544788	-1.046045	-0.447464
H424	H	1.044788	-0.546045	0.052536
N425	N	0.591180	-0.955251	-0.382850
N426	N	1.091180	-0.455251	0.117150
N427	N	0.594142	-0.960478	-0.440668
N428	N	1.094142	-0.460478	0.059332
H429	H	0.573401	-0.943567	-0.469558
H430	H	1.073401	-0.443567	0.030442
N431	N	0.562356	-0.693497	-0.422856
N432	N	1.062356	-0.193497	0.077144
N433	N	0.536693	-0.672544	-0.458593
N434	N	1.036693	-0.172544	0.041407
H435	H	0.515957	-0.689460	-0.487486
H436	H	1.015957	-0.189460	0.012514
N437	N	0.562335	-0.598676	-0.422848
N438	N	1.062335	-0.098676	0.077152
N439	N	0.536683	-0.619636	-0.458593
N440	N	1.036683	-0.119636	0.041407
H441	H	0.515940	-0.602726	-0.487481
H442	H	1.015940	-0.102726	0.012519
N443	N	0.736078	-0.739390	-0.180919
N444	N	1.236078	-0.239390	0.319081
N445	N	0.761744	-0.760342	-0.145185
N446	N	1.261744	-0.260342	0.354815
H447	H	0.782479	-0.743425	-0.116293
H448	H	1.282479	-0.243425	0.383707
N449	N	0.736101	-0.834230	-0.180945
N450	N	1.236101	-0.334230	0.319055
N451	N	0.736105	-0.876121	-0.180963
N452	N	1.236105	-0.376121	0.319037
H453	H	0.756843	-0.893049	-0.152088
H454	H	1.256843	-0.393049	0.347912
