data_functionalizedCrystal
_audit_creation_method	'MofGen! by Chris Wilmer'
_symmetry_space_group_name_H-M	'P1'
_symmetry_Int_Tables_number	1
_symmetry_cell_setting	triclinic
loop_
_symmetry_equiv_pos_as_xyz
  x,y,z
_cell_length_a	21.395362
_cell_length_b	12.759400
_cell_length_c	21.395355
_cell_angle_alpha	89.986153
_cell_angle_beta	89.956060
_cell_angle_gamma	90.030564
loop_
_atom_site_label
_atom_site_type_symbol
_atom_site_fract_x
_atom_site_fract_y
_atom_site_fract_z
Zn1	Zn	0.957929	-0.417943	-0.354606
Zn2	Zn	1.457929	0.082057	0.145394
Zn3	Zn	0.957861	-0.593607	-0.249837
Zn4	Zn	1.457861	-0.093607	0.250163
Zn5	Zn	0.853144	-0.417992	-0.249807
Zn6	Zn	1.353144	0.082008	0.250193
Zn7	Zn	0.853143	-0.593629	-0.354542
Zn8	Zn	1.353143	-0.093629	0.145458
O9	O	0.905519	-0.505793	-0.302198
O10	O	1.405519	-0.005793	0.197802
O11	O	1.045598	-0.441215	-0.340747
O12	O	1.545598	0.058785	0.159253
O13	O	0.943942	-0.570323	-0.162155
O14	O	1.443942	-0.070323	0.337845
O15	O	0.867073	-0.270964	-0.263723
O16	O	1.367073	0.229036	0.236277
O17	O	1.045548	-0.570275	-0.263774
O18	O	1.545548	-0.070275	0.236226
O19	O	0.944058	-0.270928	-0.340719
O20	O	1.444058	0.229072	0.159281
O21	O	0.867007	-0.441299	-0.162133
O22	O	1.367007	0.058701	0.337867
O23	O	0.765466	-0.441320	-0.263661
O24	O	1.265466	0.058680	0.236339
O25	O	0.867071	-0.570312	-0.442228
O26	O	1.367071	-0.070312	0.057772
O27	O	0.765465	-0.570360	-0.340609
O28	O	1.265465	-0.070360	0.159391
O29	O	0.944057	-0.441236	-0.442275
O30	O	1.444057	0.058764	0.057725
O31	O	0.943941	-0.740631	-0.263712
O32	O	1.443941	-0.240631	0.236288
O33	O	0.867005	-0.740647	-0.340638
O34	O	1.367005	-0.240647	0.159362
C35	C	0.742732	-0.505848	-0.302125
C36	C	1.242732	-0.005848	0.197875
C37	C	0.673090	-0.505897	-0.302109
C38	C	1.173090	-0.005897	0.197891
C39	C	0.640393	-0.573177	-0.342116
C40	C	1.140393	-0.073177	0.157884
C41	C	0.574958	-0.573152	-0.342144
C42	C	1.074958	-0.073152	0.157856
C43	C	0.542222	-0.505857	-0.302154
C44	C	1.042222	-0.005857	0.197846
C45	C	0.574927	-0.438564	-0.262144
C46	C	1.074927	0.061436	0.237856
C47	C	0.640361	-0.438584	-0.262122
C48	C	1.140361	0.061416	0.237878
C49	C	0.438496	-0.497393	-0.245748
C50	C	0.938496	0.002607	0.254252
C51	C	0.373063	-0.497380	-0.245769
C52	C	0.873063	0.002620	0.254231
C53	C	0.340401	-0.505788	-0.302223
C54	C	0.840401	-0.005788	0.197777
C55	C	0.373181	-0.514231	-0.358657
C56	C	0.873181	-0.014231	0.141343
C57	C	0.438615	-0.514251	-0.358635
C58	C	0.938615	-0.014251	0.141365
C59	C	0.471270	-0.505827	-0.302174
C60	C	0.971270	-0.005827	0.197826
C61	C	0.236752	-0.573044	-0.342263
C62	C	0.736752	-0.073044	0.157737
C63	C	0.171315	-0.573011	-0.342292
C64	C	0.671315	-0.073011	0.157708
C65	C	0.171286	-0.438428	-0.262287
C66	C	0.671286	0.061572	0.237713
C67	C	0.236721	-0.438456	-0.262264
C68	C	0.736721	0.061544	0.237736
C69	C	0.269450	-0.505769	-0.302251
C70	C	0.769450	-0.005769	0.197749
C71	C	0.905482	-0.778760	-0.302185
C72	C	1.405482	-0.278760	0.197815
C73	C	0.905523	-0.895537	-0.302200
C74	C	1.405523	-0.395537	0.197800
C75	C	0.945629	-0.950355	-0.262189
C76	C	1.445629	-0.450355	0.237811
C77	C	0.945667	-1.060079	-0.262209
C78	C	1.445667	-0.560079	0.237791
C79	C	0.865490	-1.060156	-0.342252
C80	C	1.365490	-0.560156	0.157748
C81	C	0.865455	-0.950434	-0.342235
C82	C	1.365455	-0.450434	0.157765
C83	C	0.985697	-0.895458	-0.222154
C84	C	1.485697	-0.395458	0.277846
C85	C	1.025805	-0.950277	-0.182139
C86	C	1.525805	-0.450277	0.317861
C87	C	1.025843	-1.060001	-0.182159
C88	C	1.525843	-0.560001	0.317841
C89	C	0.985774	-1.114906	-0.222193
C90	C	1.485774	-0.614906	0.277807
C91	C	1.068943	-0.505738	-0.302271
C92	C	1.568943	-0.005738	0.197729
C93	C	1.138584	-0.505714	-0.302303
C94	C	1.638584	-0.005714	0.197697
C95	C	0.905571	-0.505771	-0.465621
C96	C	1.405571	-0.005771	0.034379
C97	C	0.905593	-0.505762	-0.535263
C98	C	1.405593	-0.005762	-0.035263
C99	C	0.905574	-0.231759	-0.302225
C100	C	1.405574	0.268241	0.197775
C101	C	0.905597	-0.114983	-0.302236
C102	C	1.405597	0.385017	0.197764
C103	C	0.945678	-0.438550	-0.568001
C104	C	1.445678	0.061450	-0.068001
C105	C	0.945678	-0.438504	-0.633437
C106	C	1.445678	0.061496	-0.133437
C107	C	0.905598	-0.505691	-0.666131
C108	C	1.405598	-0.005691	-0.166131
C109	C	0.865505	-0.572908	-0.633384
C110	C	1.365505	-0.072908	-0.133384
C111	C	0.865503	-0.572944	-0.567950
C112	C	1.365503	-0.072944	-0.067950
C113	C	0.900638	-0.600292	-0.769799
C114	C	1.400638	-0.100292	-0.269799
C115	C	0.900645	-0.600258	-0.835232
C116	C	1.400645	-0.100258	-0.335232
C117	C	0.905602	-0.505580	-0.867952
C118	C	1.405602	-0.005580	-0.367952
C119	C	0.910566	-0.410932	-0.835230
C120	C	1.410566	0.089068	-0.335230
C121	C	0.910563	-0.410968	-0.769796
C122	C	1.410563	0.089032	-0.269796
C123	C	0.905596	-0.505659	-0.737083
C124	C	1.405596	-0.005659	-0.237083
C125	C	0.945688	-0.438312	-0.971643
C126	C	1.445688	0.061688	-0.471643
C127	C	0.945683	-0.438265	-1.037080
C128	C	1.445683	0.061735	-0.537080
C129	C	0.865514	-0.572678	-1.037026
C130	C	1.365514	-0.072678	-0.537026
C131	C	0.865516	-0.572716	-0.971591
C132	C	1.365516	-0.072716	-0.471591
C133	C	0.905607	-0.505534	-0.938903
C134	C	1.405607	-0.005534	-0.438903
C135	C	0.905503	-0.505738	-0.139410
C136	C	1.405503	-0.005738	0.360590
C137	C	0.905603	-0.505451	-0.069770
C138	C	1.405603	-0.005451	0.430230
H139	H	0.346589	-0.521076	-0.404627
H140	H	0.846589	-0.021076	0.095373
C141	C	0.981271	-0.378508	-1.137407
C142	C	1.481271	0.121492	-0.637407
C143	C	0.989741	-0.364367	-1.073070
C144	C	1.489741	0.135633	-0.573070
H145	H	1.008467	-0.332878	-1.159625
H146	H	1.508467	0.167122	-0.659625
H147	H	0.990430	-0.449079	-1.148143
H148	H	1.490430	0.050921	-0.648143
H149	H	0.939174	-0.363141	-1.148087
H150	H	1.439174	0.136859	-0.648087
H151	H	1.031837	-0.379742	-1.062389
H152	H	1.531837	0.120258	-0.562389
H153	H	0.980586	-0.293781	-1.062330
H154	H	1.480586	0.206219	-0.562330
C155	C	0.834882	-0.916612	-0.448286
C156	C	1.334882	-0.416612	0.051714
C157	C	0.821375	-0.890165	-0.386217
C158	C	1.321375	-0.390165	0.113783
H159	H	0.807668	-0.879406	-0.475440
H160	H	1.307668	-0.379406	0.024560
H161	H	0.876966	-0.898551	-0.457495
H162	H	1.376966	-0.398551	0.042505
H163	H	0.829161	-0.989816	-0.454019
H164	H	1.329161	-0.489816	0.045981
H165	H	0.827100	-0.816962	-0.380484
H166	H	1.327100	-0.316962	0.119516
H167	H	0.779280	-0.908219	-0.377005
H168	H	1.279280	-0.408219	0.122995
C169	C	0.070971	-0.378690	-0.226768
C170	C	0.570971	0.121310	0.273232
C171	C	0.135310	-0.364488	-0.218309
C172	C	0.635310	0.135512	0.281691
H173	H	0.048760	-0.333052	-0.199609
H174	H	0.548760	0.166948	0.300391
H175	H	0.060295	-0.363381	-0.268873
H176	H	0.560295	0.136619	0.231127
H177	H	0.060222	-0.449268	-0.217547
H178	H	0.560222	0.050732	0.282453
H179	H	0.146060	-0.293911	-0.227534
H180	H	0.646060	0.206089	0.272466
H181	H	0.145991	-0.379789	-0.176194
H182	H	0.645991	0.120211	0.323806
H183	H	0.832871	-0.627608	-0.660008
H184	H	1.332871	-0.127608	-0.160008
H185	H	0.914603	-0.333903	-0.743157
H186	H	1.414603	0.166097	-0.243157
C187	C	0.759393	-1.094100	-0.372649
C188	C	1.259393	-0.594100	0.127351
C189	C	0.821444	-1.120502	-0.386253
C190	C	1.321444	-0.620502	0.113747
H191	H	0.732200	-1.131350	-0.399816
H192	H	1.232200	-0.631350	0.100184
H193	H	0.750253	-1.112138	-0.330548
H194	H	1.250253	-0.612138	0.169452
H195	H	0.753641	-1.020906	-0.378367
H196	H	1.253641	-0.520906	0.121633
H197	H	0.827197	-1.193695	-0.380530
H198	H	1.327197	-0.693695	0.119470
H199	H	0.830586	-1.102471	-0.428364
H200	H	1.330586	-0.602471	0.071636
C201	C	1.024920	-0.305684	-0.574632
C202	C	1.524920	0.194316	-0.074632
C203	C	0.989738	-0.364693	-0.532072
C204	C	1.489738	0.135307	-0.032072
H205	H	1.052117	-0.260083	-0.552448
H206	H	1.552117	0.239917	-0.052448
H207	H	1.048878	-0.351439	-0.600170
H208	H	1.548878	0.148561	-0.100170
H209	H	0.997624	-0.265498	-0.600135
H210	H	1.497624	0.234502	-0.100135
H211	H	1.017035	-0.404886	-0.506572
H212	H	1.517035	0.095114	-0.006572
H213	H	0.965779	-0.318932	-0.506523
H214	H	1.465779	0.181068	-0.006523
H215	H	0.914603	-0.333836	-0.861869
H216	H	1.414603	0.166164	-0.361869
C217	C	0.781234	-0.587381	-0.897945
C218	C	1.281234	-0.087381	-0.397945
C219	C	0.821458	-0.646607	-0.935599
C220	C	1.321458	-0.146607	-0.435599
H221	H	0.754030	-0.633000	-0.875728
H222	H	1.254030	-0.133000	-0.375728
H223	H	0.805106	-0.547384	-0.869114
H224	H	1.305106	-0.047384	-0.369114
H225	H	0.757279	-0.541605	-0.923458
H226	H	1.257279	-0.041605	-0.423458
H227	H	0.845417	-0.692378	-0.910085
H228	H	1.345417	-0.192378	-0.410085
H229	H	0.797584	-0.686622	-0.964433
H230	H	1.297584	-0.186622	-0.464433
C231	C	0.230210	-0.706056	-0.421355
C232	C	0.730210	-0.206056	0.078645
C233	C	0.272732	-0.647018	-0.386225
C234	C	0.772732	-0.147018	0.113775
H235	H	0.252424	-0.751717	-0.448498
H236	H	0.752424	-0.251717	0.051502
H237	H	0.204642	-0.746171	-0.394027
H238	H	0.704642	-0.246171	0.105973
H239	H	0.204734	-0.660317	-0.445373
H240	H	0.704734	-0.160317	0.054627
H241	H	0.298205	-0.692757	-0.362203
H242	H	0.798205	-0.192757	0.137797
H243	H	0.298311	-0.606900	-0.413556
H244	H	0.798311	-0.106900	0.086444
H245	H	1.058432	-0.905568	-0.149548
H246	H	1.558432	-0.405568	0.350452
C247	C	0.097825	-0.587805	-0.426589
C248	C	0.597825	-0.087805	0.073411
C249	C	0.135373	-0.646971	-0.386274
C250	C	0.635373	-0.146971	0.113726
H251	H	0.075640	-0.633468	-0.453743
H252	H	0.575640	-0.133468	0.046257
H253	H	0.068967	-0.547728	-0.402780
H254	H	0.568967	-0.047728	0.097220
H255	H	0.123407	-0.542106	-0.450592
H256	H	0.623407	-0.042106	0.049408
H257	H	0.109791	-0.692665	-0.362267
H258	H	0.609791	-0.192665	0.137733
H259	H	0.164234	-0.687065	-0.410085
H260	H	0.664234	-0.187065	0.089915
H261	H	0.263344	-0.383674	-0.229683
H262	H	0.763344	0.116326	0.270317
C263	C	0.786265	-0.705807	-0.574471
C264	C	1.286265	-0.205807	-0.074471
C265	C	0.821445	-0.646841	-0.531960
C266	C	1.321445	-0.146841	-0.031960
H267	H	0.759070	-0.751434	-0.552250
H268	H	1.259070	-0.251434	-0.052250
H269	H	0.762305	-0.660026	-0.599968
H270	H	1.262305	-0.160026	-0.099968
H271	H	0.813562	-0.745963	-0.600020
H272	H	1.313562	-0.245963	-0.100020
H273	H	0.794148	-0.606678	-0.506414
H274	H	1.294148	-0.106678	-0.006414
H275	H	0.845407	-0.692627	-0.506453
H276	H	1.345407	-0.192627	-0.006453
C277	C	0.379519	-0.480699	-0.134184
C278	C	0.879519	0.019301	0.365816
C279	C	0.337035	-0.488097	-0.183739
C280	C	0.837035	0.011903	0.316261
H281	H	0.357277	-0.474961	-0.095890
H282	H	0.857277	0.025039	0.404110
H283	H	0.405013	-0.541601	-0.133296
H284	H	0.905013	-0.041601	0.366704
H285	H	0.405074	-0.420507	-0.139756
H286	H	0.905074	0.079493	0.360244
H287	H	0.311484	-0.548293	-0.178170
H288	H	0.811484	-0.048293	0.321830
H289	H	0.311531	-0.427189	-0.184627
H290	H	0.811531	0.072811	0.315373
H291	H	0.978318	-0.383766	-0.660098
H292	H	1.478318	0.116234	-0.160098
H293	H	0.978329	-0.383603	-0.945027
H294	H	1.478329	0.116397	-0.445027
H295	H	0.465084	-0.490542	-0.199774
H296	H	0.965084	0.009458	0.300226
H297	H	0.666983	-0.383793	-0.229543
H298	H	1.166983	0.116207	0.270457
C299	C	1.105087	-1.048899	-0.103035
C300	C	1.605087	-0.548899	0.396965
C301	C	1.069929	-1.120260	-0.138177
C302	C	1.569929	-0.620260	0.361823
H303	H	1.132299	-1.086101	-0.075878
H304	H	1.632299	-0.586101	0.424122
H305	H	1.129027	-1.006039	-0.130355
H306	H	1.629027	-0.506039	0.369645
H307	H	1.077776	-1.006172	-0.079032
H308	H	1.577776	-0.506172	0.420968
H309	H	1.097239	-1.162982	-0.162184
H310	H	1.597239	-0.662982	0.337816
H311	H	1.045987	-1.163138	-0.110854
H312	H	1.545987	-0.663138	0.389146
H313	H	0.985813	-1.204251	-0.222210
H314	H	1.485813	-0.704251	0.277790
H315	H	0.548270	-0.383770	-0.229585
H316	H	1.048270	0.116230	0.270415
H317	H	0.548330	-0.627939	-0.374725
H318	H	1.048330	-0.127939	0.125275
C319	C	0.512314	-0.434777	-0.428838
C320	C	1.012314	0.065223	0.071162
C321	C	0.474646	-0.523511	-0.420664
C322	C	0.974646	-0.023511	0.079336
H323	H	0.534560	-0.440493	-0.467132
H324	H	1.034560	0.059507	0.032868
H325	H	0.486811	-0.373887	-0.429721
H326	H	0.986811	0.126113	0.070279
H327	H	0.541124	-0.429784	-0.395209
H328	H	1.041124	0.070216	0.104791
H329	H	0.445832	-0.528500	-0.454292
H330	H	0.945832	-0.028500	0.045708
H331	H	0.500151	-0.584418	-0.419786
H332	H	1.000151	-0.084418	0.080214
H333	H	0.832875	-0.627372	-1.063645
H334	H	1.332875	-0.127372	-0.563645
C335	C	0.945419	-0.769421	-0.855402
C336	C	1.445419	-0.269421	-0.355402
C337	C	0.895193	-0.704298	-0.871189
C338	C	1.395193	-0.204298	-0.371189
H339	H	0.942050	-0.833656	-0.877595
H340	H	1.442050	-0.333656	-0.377595
H341	H	0.983563	-0.735814	-0.866157
H342	H	1.483563	-0.235814	-0.366157
H343	H	0.944698	-0.782970	-0.811748
H344	H	1.444698	-0.282970	-0.311748
H345	H	0.895916	-0.690742	-0.914844
H346	H	1.395916	-0.190742	-0.414844
H347	H	0.857038	-0.737912	-0.860439
H348	H	1.357038	-0.237912	-0.360439
C349	C	0.838882	-0.753786	-0.749597
C350	C	1.338882	-0.253786	-0.249597
C351	C	0.895136	-0.704338	-0.733811
C352	C	1.395136	-0.204338	-0.233811
H353	H	0.835472	-0.818009	-0.727374
H354	H	1.335472	-0.318009	-0.227374
H355	H	0.804833	-0.709545	-0.738879
H356	H	1.304833	-0.209545	-0.238879
H357	H	0.838195	-0.767352	-0.793246
H358	H	1.338195	-0.267352	-0.293246
H359	H	0.895821	-0.690764	-0.690163
H360	H	1.395821	-0.190764	-0.190163
H361	H	0.929194	-0.748588	-0.744525
H362	H	1.429194	-0.248588	-0.244525
C363	C	1.029296	-0.738237	-0.178548
C364	C	1.529296	-0.238237	0.321452
C365	C	0.985658	-0.774849	-0.222134
C366	C	1.485658	-0.274849	0.277866
H367	H	1.029272	-0.663778	-0.178539
H368	H	1.529272	-0.163778	0.321461
H369	H	1.018483	-0.763110	-0.138113
H370	H	1.518483	-0.263110	0.361887
H371	H	1.069730	-0.762980	-0.189439
H372	H	1.569730	-0.262980	0.310561
H373	H	0.945223	-0.750112	-0.211241
H374	H	1.445223	-0.250112	0.288759
H375	H	0.996467	-0.749964	-0.262578
H376	H	1.496467	-0.249964	0.237422
H377	H	0.667037	-0.627988	-0.374678
H378	H	1.167037	-0.127988	0.125322
