data_functionalizedCrystal
_audit_creation_method	'MofGen! by Chris Wilmer'
_symmetry_space_group_name_H-M	'P1'
_symmetry_Int_Tables_number	1
_symmetry_cell_setting	triclinic
loop_
_symmetry_equiv_pos_as_xyz
  x,y,z
_cell_length_a	16.109301
_cell_length_b	10.654550
_cell_length_c	9.730223
_cell_angle_alpha	89.999807
_cell_angle_beta	90.002516
_cell_angle_gamma	83.973192
loop_
_atom_site_label
_atom_site_type_symbol
_atom_site_fract_x
_atom_site_fract_y
_atom_site_fract_z
O1	O	1.104087	0.161415	-0.114199
O2	O	0.862144	0.181503	-0.114221
O3	O	0.988678	-0.011355	-0.114205
O4	O	0.977553	0.354274	-0.114216
O5	O	0.988677	-0.011351	0.114375
O6	O	0.862143	0.181508	0.114359
O7	O	1.104085	0.161420	0.114381
Zn8	Zn	0.983114	0.171465	0.150662
Zn9	Zn	0.983116	0.171458	-0.150502
O10	O	0.977551	0.354279	0.114364
C11	C	0.987861	-0.058140	0.000084
C12	C	0.985417	-0.197550	0.000079
C13	C	0.831164	0.180692	0.000066
C14	C	0.738854	0.178253	0.000058
C15	C	1.059918	-0.278046	0.000089
C16	C	1.057616	-0.409036	0.000080
C17	C	0.906306	-0.379020	0.000054
C18	C	0.908608	-0.248033	0.000054
C19	C	1.147276	-0.295377	0.000110
C20	C	1.144974	-0.426367	0.000100
C21	C	0.517228	0.287019	0.000071
C22	C	0.430494	0.284717	0.000080
C23	C	0.449008	0.055896	0.000081
C24	C	0.535741	0.058199	0.000082
C25	C	0.569848	0.173764	0.000070
C26	C	0.396382	0.169159	0.000078
C27	C	0.302341	0.166662	0.000087
C28	C	0.663895	0.176262	0.000063
C29	C	1.135066	0.162231	0.000090
C30	C	1.227376	0.164671	0.000089
C31	C	0.978369	0.401063	0.000073
C32	C	0.980813	0.540473	0.000069
N33	N	0.983119	0.171468	0.356198
N34	N	0.983118	0.171445	-0.356038
C35	C	1.039162	0.086099	0.428131
C36	C	1.039160	0.086084	0.572014
C37	C	0.927068	0.256818	0.572018
C38	C	0.927067	0.256826	0.428138
C39	C	1.103881	-0.012469	0.428130
C40	C	1.103878	-0.012485	0.572013
H41	H	0.843771	-0.420139	0.000033
C42	C	1.193429	-0.256330	-0.129107
C43	C	1.228306	-0.357194	-0.233285
C44	C	1.274456	-0.318146	-0.362500
C45	C	1.285729	-0.178233	-0.387536
C46	C	1.250851	-0.077359	-0.283355
C47	C	1.204701	-0.116408	-0.154141
H48	H	1.219962	-0.460775	-0.214754
H49	H	1.300275	-0.392820	-0.439621
H50	H	1.319892	-0.149327	-0.483188
H51	H	1.259195	0.026221	-0.301886
H52	H	1.178882	-0.041733	-0.077019
H53	H	0.544995	0.381119	0.000071
H54	H	0.881424	0.326330	0.369571
C55	C	0.372613	0.409300	0.000077
C56	C	0.376897	0.503999	-0.118623
C57	C	0.319016	0.628588	-0.118623
C58	C	0.256852	0.658478	0.000078
C59	C	0.252566	0.563777	0.118787
C60	C	0.310446	0.439187	0.118786
H61	H	0.422916	0.481874	-0.206501
H62	H	0.322189	0.698692	-0.206500
H63	H	0.214005	0.750706	0.000078
H64	H	0.206546	0.585901	0.206664
H65	H	0.307273	0.369083	0.206663
C66	C	0.411485	-0.071219	0.000079
C67	C	0.354403	-0.104269	0.118767
C68	C	0.316882	-0.231387	0.118760
C69	C	0.336443	-0.325454	0.000064
C70	C	0.393528	-0.292406	-0.118633
C71	C	0.431049	-0.165288	-0.118626
H72	H	0.339920	-0.034633	0.206641
H73	H	0.274623	-0.255851	0.206628
H74	H	0.308667	-0.419554	0.000059
H75	H	0.408011	-0.362042	-0.206507
H76	H	0.473308	-0.140824	-0.206494
C77	C	0.865416	0.350714	0.651154
C78	C	0.865556	0.350927	0.809417
C79	C	0.803904	0.444826	0.888549
C80	C	0.742111	0.538514	0.809418
C81	C	0.741969	0.538305	0.651147
C82	C	0.803622	0.444405	0.572015
H83	H	0.911301	0.281570	0.868002
H84	H	0.804009	0.444980	1.005712
H85	H	0.696473	0.608024	0.867997
H86	H	0.696225	0.607661	0.592562
H87	H	0.803516	0.444251	0.454852
H88	H	0.578586	-0.034032	0.000085
H89	H	1.089686	-0.108809	0.389078
C90	C	1.185422	0.027751	0.367834
C91	C	1.255294	0.062207	0.464406
C92	C	1.336832	0.102436	0.404108
C93	C	1.348499	0.108209	0.247238
C94	C	1.278624	0.073752	0.150656
C95	C	1.197086	0.033523	0.210955
H96	H	1.246660	0.057935	0.580539
H97	H	1.388558	0.127944	0.475604
H98	H	1.408858	0.137989	0.202601
H99	H	1.287258	0.078024	0.034523
H100	H	1.145360	0.008015	0.139458
C101	C	1.180645	-0.488523	-0.133217
C102	C	1.256586	-0.589014	-0.127146
C103	C	1.292256	-0.651170	-0.260461
C104	C	1.251985	-0.612836	-0.399847
C105	C	1.176040	-0.512340	-0.405924
C106	C	1.140370	-0.450184	-0.272609
H107	H	1.286401	-0.617396	-0.023960
H108	H	1.348476	-0.725564	-0.255963
H109	H	1.278390	-0.658847	-0.498535
H110	H	1.146225	-0.483958	-0.509110
H111	H	1.084150	-0.375790	-0.277108
H112	H	1.083679	-0.103433	0.616630
H113	H	0.847942	-0.182496	0.000026
H114	H	1.175093	-0.260126	0.098809
H115	H	1.177889	-0.468571	0.095762
H116	H	1.167768	0.008167	0.611069
