data_functionalizedCrystal
_audit_creation_method	'MofGen! by Chris Wilmer'
_symmetry_space_group_name_H-M	'P1'
_symmetry_Int_Tables_number	1
_symmetry_cell_setting	triclinic
loop_
_symmetry_equiv_pos_as_xyz
  x,y,z
_cell_length_a	11.026607
_cell_length_b	10.967926
_cell_length_c	14.586319
_cell_angle_alpha	102.125735
_cell_angle_beta	90.000914
_cell_angle_gamma	83.619432
loop_
_atom_site_label
_atom_site_type_symbol
_atom_site_fract_x
_atom_site_fract_y
_atom_site_fract_z
O1	O	-0.170509	1.693960	0.191400
O2	O	-0.186834	1.334337	0.134580
O3	O	-0.001770	1.484343	0.158282
O4	O	-0.355573	1.543953	0.167698
O5	O	-0.001768	1.484329	0.310761
O6	O	-0.186831	1.334323	0.287059
O7	O	-0.170507	1.693946	0.343878
Cu8	Cu	-0.178668	1.514133	0.329391
Cu9	Cu	-0.178672	1.514150	0.149067
O10	O	-0.355570	1.543939	0.320176
C11	C	-0.185645	1.287575	0.203432
C12	C	-0.182092	1.148256	0.181420
C13	C	-0.180506	1.086136	0.250595
C14	C	-0.176834	0.942143	0.227846
C15	C	-0.400873	1.554943	0.245674
C16	C	-0.535860	1.587726	0.250853
C17	C	-0.608913	1.497208	0.236550
C18	C	-0.748429	1.531088	0.241902
C19	C	0.043533	1.473339	0.232782
C20	C	0.178520	1.440556	0.227598
C21	C	-0.171696	1.740708	0.275024
C22	C	-0.175249	1.880026	0.297030
N23	N	-0.178665	1.514130	0.456222
N24	N	-0.178665	1.514160	0.022237
C25	C	-0.096747	1.580587	0.701729
C26	C	-0.096744	1.580590	0.797711
C27	C	-0.260587	1.447695	0.776722
C28	C	-0.260583	1.447685	0.680741
C29	C	-0.178665	1.514139	0.643248
C30	C	-0.178666	1.514151	0.835211
C31	C	-0.178663	1.514154	0.939279
C32	C	-0.178665	1.514135	0.539174
H33	H	-0.181860	1.139555	0.326659
C34	C	-0.175271	0.870889	0.126434
C35	C	-0.277784	0.805171	0.111257
C36	C	-0.276394	0.739531	0.017848
H37	H	-0.103274	0.813341	0.113845
H38	H	-0.176808	0.928501	0.085952
H39	H	-0.276236	0.747565	0.151727
H40	H	-0.349797	0.862690	0.123825
H41	H	-0.277931	0.797143	-0.022634
H42	H	-0.204394	0.681990	0.005268
H43	H	-0.345953	0.694943	0.007536
C44	C	-0.766940	1.303841	0.206040
C45	C	-0.639404	1.297412	0.205046
C46	C	-0.589120	1.171494	0.185202
H47	H	-0.793104	1.263273	0.146471
H48	H	-0.793164	1.263358	0.252839
H49	H	-0.613190	1.337878	0.158251
H50	H	-0.613205	1.337953	0.264607
H51	H	-0.615345	1.131011	0.232000
H52	H	-0.615294	1.130937	0.125634
H53	H	-0.502583	1.167115	0.184533
C54	C	-0.177125	0.951464	0.398405
C55	C	-0.180432	1.080085	0.400819
C56	C	-0.182176	1.145933	0.494186
H57	H	-0.105827	0.923835	0.428279
H58	H	-0.247383	0.936528	0.430226
H59	H	-0.110181	1.095013	0.369011
H60	H	-0.251726	1.107752	0.370964
H61	H	-0.252434	1.130997	0.526007
H62	H	-0.110877	1.118293	0.524052
H63	H	-0.184431	1.233209	0.495836
H64	H	-0.030043	1.634696	0.671205
H65	H	-0.568168	1.394629	0.220339
C66	C	-0.180528	1.076998	0.080014
C67	C	-0.283042	1.011280	0.064837
C68	C	-0.281652	0.945639	-0.028573
H69	H	-0.108532	1.019449	0.067425
H70	H	-0.182065	1.134609	0.039531
H71	H	-0.281494	0.953674	0.105306
H72	H	-0.355054	1.068798	0.077405
H73	H	-0.283189	1.003251	-0.069055
H74	H	-0.209651	0.888098	-0.041153
H75	H	-0.351211	0.901051	-0.038885
H76	H	-0.789168	1.633673	0.258077
C77	C	-0.590409	1.724434	0.272497
C78	C	-0.717944	1.730859	0.273532
C79	C	-0.768232	1.856775	0.293480
H80	H	-0.564248	1.765015	0.225750
H81	H	-0.564183	1.764906	0.332087
H82	H	-0.744159	1.690404	0.213950
H83	H	-0.744139	1.690305	0.320279
H84	H	-0.742006	1.897248	0.353070
H85	H	-0.742062	1.897346	0.246731
H86	H	-0.854769	1.861152	0.294194
H87	H	-0.030038	1.634697	0.845324
H88	H	-0.327285	1.393592	0.807259
H89	H	-0.327291	1.393569	0.633121
