data_functionalizedCrystal
_audit_creation_method	'MofGen! by Chris Wilmer'
_symmetry_space_group_name_H-M	'P1'
_symmetry_Int_Tables_number	1
_symmetry_cell_setting	triclinic
loop_
_symmetry_equiv_pos_as_xyz
  x,y,z
_cell_length_a	11.026607
_cell_length_b	15.944493
_cell_length_c	10.065875
_cell_angle_alpha	98.793649
_cell_angle_beta	79.302338
_cell_angle_gamma	96.030530
loop_
_atom_site_label
_atom_site_type_symbol
_atom_site_fract_x
_atom_site_fract_y
_atom_site_fract_z
O1	O	1.627836	0.342076	-0.113445
O2	O	1.274540	0.302023	-0.113453
O3	O	1.460874	0.201235	-0.113460
O4	O	1.441502	0.442865	-0.113438
O5	O	1.425343	0.220552	0.113530
O6	O	1.239008	0.321341	0.113537
O7	O	1.592305	0.361394	0.113545
Zn8	Zn	1.410015	0.344435	0.149581
Zn9	Zn	1.456829	0.318983	-0.149489
O10	O	1.405970	0.462183	0.113552
C11	C	1.211565	0.304293	0.000041
C12	C	1.076856	0.282267	0.000037
C13	C	1.003037	0.343086	0.000042
C14	C	0.863808	0.320322	0.000038
C15	C	1.442318	0.179479	0.000029
C16	C	1.439947	0.085870	0.000012
C17	C	1.549622	-0.133307	0.000040
C18	C	1.507995	-0.202341	-0.111879
C19	C	1.435547	-0.085515	0.000028
C20	C	1.472937	-0.183276	0.111916
C21	C	1.431304	-0.251063	0.000050
C22	C	1.393965	-0.153324	-0.111983
C23	C	1.358908	-0.134244	0.111912
C24	C	1.317201	-0.203260	-0.000033
C25	C	1.437994	0.009854	0.000014
C26	C	1.428849	-0.346431	0.000054
C27	C	1.655280	0.359124	0.000048
C28	C	1.789990	0.381150	0.000043
C29	C	1.424527	0.483938	0.000060
C30	C	1.426899	0.577547	0.000069
N31	N	1.378074	0.361806	0.353688
N32	N	1.488779	0.301606	-0.353595
C33	C	1.445709	0.325020	0.421464
C34	C	1.421136	0.338397	0.578632
H35	H	1.036987	0.213341	-0.000004
H36	H	0.823944	0.251392	-0.000003
H37	H	1.647903	-0.102834	-0.000071
H38	H	0.829856	0.450078	0.000058
H39	H	1.042911	0.412009	0.000056
O40	O	1.583314	-0.237739	-0.224654
C41	C	1.705694	-0.201816	-0.224277
H42	H	1.717611	-0.175091	-0.115366
H43	H	1.773008	-0.252915	-0.266548
H44	H	1.725426	-0.148395	-0.290610
O45	O	1.354316	-0.137100	-0.224958
C46	C	1.357100	-0.048369	-0.223620
H47	H	1.425789	-0.014785	-0.157279
H48	H	1.386823	-0.032424	-0.332133
H49	H	1.260941	-0.026148	-0.180370
H50	H	1.521801	0.283619	0.363136
H51	H	1.345030	0.379793	0.636956
H52	H	1.218871	-0.233597	-0.000097
H53	H	1.506328	-0.196868	0.206528
H54	H	1.564876	0.260203	0.588081
O55	O	1.283805	-0.098893	0.224895
C56	C	1.229655	-0.162853	0.304794
H57	H	1.289573	-0.219151	0.280379
H58	H	1.222357	-0.136396	0.417557
H59	H	1.133250	-0.184732	0.281057
H60	H	1.301974	0.403199	0.412017
