data_functionalizedCrystal
_audit_creation_method	'MofGen! by Chris Wilmer'
_symmetry_space_group_name_H-M	'P1'
_symmetry_Int_Tables_number	1
_symmetry_cell_setting	triclinic
loop_
_symmetry_equiv_pos_as_xyz
  x,y,z
_cell_length_a	21.295418
_cell_length_b	21.295418
_cell_length_c	21.295411
_cell_angle_alpha	90.027030
_cell_angle_beta	90.035622
_cell_angle_gamma	90.043213
loop_
_atom_site_label
_atom_site_type_symbol
_atom_site_fract_x
_atom_site_fract_y
_atom_site_fract_z
Zn1	Zn	0.962319	-0.250371	0.356241
Zn2	Zn	1.295652	0.082962	0.689574
Zn3	Zn	1.628986	0.416295	1.022908
Zn4	Zn	0.962242	-0.355636	0.250969
Zn5	Zn	1.295575	-0.022303	0.584303
Zn6	Zn	1.628909	0.311031	0.917636
Zn7	Zn	0.857057	-0.250414	0.250951
Zn8	Zn	1.190390	0.082920	0.584284
Zn9	Zn	1.523724	0.416253	0.917617
Zn10	Zn	0.857017	-0.355636	0.356166
Zn11	Zn	1.190351	-0.022302	0.689499
Zn12	Zn	1.523684	0.311031	1.022833
O13	O	0.909659	-0.303014	0.303582
O14	O	1.242992	0.030319	0.636915
O15	O	1.576325	0.363652	0.970248
O16	O	1.050398	-0.264317	0.342316
O17	O	1.383731	0.069016	0.675649
O18	O	1.717065	0.402349	1.008982
O19	O	0.948273	-0.341696	0.162878
O20	O	1.281607	-0.008363	0.496211
O21	O	1.614940	0.324971	0.829544
O22	O	0.871069	-0.162319	0.264941
O23	O	1.204402	0.171015	0.598275
O24	O	1.537736	0.504348	0.931608
O25	O	1.050342	-0.341655	0.264973
O26	O	1.383675	-0.008322	0.598307
O27	O	1.717008	0.325012	0.931640
O28	O	0.948405	-0.162287	0.342298
O29	O	1.281738	0.171046	0.675631
O30	O	1.615071	0.504379	1.008964
O31	O	0.870994	-0.264390	0.162864
O32	O	1.204328	0.068944	0.496197
O33	O	1.537661	0.402277	0.829531
O34	O	0.768962	-0.264389	0.264869
O35	O	1.102296	0.068944	0.598202
O36	O	1.435629	0.402277	0.931535
O37	O	0.871001	-0.341654	0.444265
O38	O	1.204335	-0.008321	0.777599
O39	O	1.537668	0.325013	1.110932
O40	O	0.768933	-0.341695	0.342170
O41	O	1.102266	-0.008362	0.675503
O42	O	1.435600	0.324971	1.008836
O43	O	0.948366	-0.264317	0.444320
O44	O	1.281699	0.069017	0.777654
O45	O	1.615033	0.402350	1.110987
O46	O	0.948235	-0.443725	0.264900
O47	O	1.281568	-0.110392	0.598234
O48	O	1.614901	0.222941	0.931567
O49	O	0.870927	-0.443725	0.342188
O50	O	1.204260	-0.110392	0.675521
O51	O	1.537593	0.222942	1.008854
C52	C	0.746107	-0.303047	0.303509
C53	C	1.079440	0.030286	0.636843
C54	C	1.412774	0.363619	0.970176
C55	C	0.676139	-0.303077	0.303493
C56	C	1.009472	0.030257	0.636827
C57	C	1.342806	0.363590	0.970160
C58	C	0.909585	-0.466566	0.303552
C59	C	1.242918	-0.133233	0.636885
C60	C	1.576252	0.200101	0.970218
C61	C	0.909611	-0.536534	0.303560
C62	C	1.242945	-0.203201	0.636893
C63	C	1.576278	0.130133	0.970227
C64	C	0.950064	-1.035971	0.263440
C65	C	1.283398	-0.702638	0.596773
C66	C	1.616731	-0.369304	0.930106
C67	C	0.950040	-0.970229	0.263425
C68	C	1.283374	-0.636895	0.596758
C69	C	1.616707	-0.303562	0.930092
C70	C	0.909747	-0.937373	0.303626
C71	C	1.243081	-0.604040	0.636959
C72	C	1.576414	-0.270707	0.970293
C73	C	0.869464	-0.970266	0.343833
C74	C	1.202797	-0.636933	0.677167
C75	C	1.536131	-0.303599	1.010500
C76	C	0.869485	-1.036007	0.343843
C77	C	1.202818	-0.702674	0.677176
C78	C	1.536151	-0.369341	1.010509
N79	N	0.904851	-0.834125	0.358707
N80	N	1.238184	-0.500792	0.692041
N81	N	1.571517	-0.167458	1.025374
N82	N	0.904835	-0.771673	0.358697
N83	N	1.238168	-0.438340	0.692030
N84	N	1.571501	-0.105007	1.025363
C85	C	0.909682	-0.739299	0.303599
C86	C	1.243015	-0.405965	0.636933
C87	C	1.576349	-0.072632	0.970266
N88	N	0.914558	-0.771734	0.248512
N89	N	1.247891	-0.438401	0.581845
N90	N	1.581225	-0.105068	0.915179
N91	N	0.914577	-0.834192	0.248523
N92	N	1.247910	-0.500858	0.581857
N93	N	1.581244	-0.167525	0.915190
C94	C	0.909720	-0.866088	0.303620
C95	C	1.243054	-0.532755	0.636953
C96	C	1.576387	-0.199421	0.970287
C97	C	0.949934	-0.635128	0.263375
C98	C	1.283267	-0.301795	0.596709
C99	C	1.616600	0.031538	0.930042
C100	C	0.949905	-0.569385	0.263359
C101	C	1.283239	-0.236051	0.596693
C102	C	1.616572	0.097282	0.930026
C103	C	0.869332	-0.569423	0.343773
C104	C	1.202666	-0.236090	0.677107
C105	C	1.535999	0.097243	1.010440
C106	C	0.869357	-0.635166	0.343784
C107	C	1.202691	-0.301832	0.677117
C108	C	1.536024	0.031501	1.010450
C109	C	0.909661	-0.668014	0.303586
C110	C	1.242995	-0.334681	0.636919
C111	C	1.576328	-0.001348	0.970252
C112	C	0.643274	-0.343383	0.343684
C113	C	0.976607	-0.010050	0.677017
C114	C	1.309940	0.323283	1.010350
C115	C	0.577531	-0.343368	0.343712
C116	C	0.910864	-0.010034	0.677045
C117	C	1.244198	0.323299	1.010379
C118	C	0.544657	-0.303052	0.303539
C119	C	0.877990	0.030281	0.636872
C120	C	1.211323	0.363614	0.970205
C121	C	0.577530	-0.262738	0.263345
C122	C	0.910863	0.070595	0.596679
C123	C	1.244197	0.403929	0.930012
C124	C	0.643271	-0.262750	0.263323
C125	C	0.976604	0.070583	0.596656
C126	C	1.309938	0.403917	0.929989
N127	N	0.441388	-0.298132	0.248481
N128	N	0.774721	0.035201	0.581814
N129	N	1.108055	0.368535	0.915147
N130	N	0.378937	-0.298124	0.248504
N131	N	0.712270	0.035209	0.581837
N132	N	1.045603	0.368543	0.915171
C133	C	0.346582	-0.303012	0.303605
C134	C	0.679915	0.030321	0.636939
C135	C	1.013249	0.363655	0.970272
N136	N	0.379038	-0.307921	0.358684
N137	N	0.712371	0.025413	0.692017
N138	N	1.045704	0.358746	1.025350
N139	N	0.441495	-0.307932	0.358660
N140	N	0.774828	0.025402	0.691993
N141	N	1.108162	0.358735	1.025326
C142	C	0.473371	-0.303034	0.303559
C143	C	0.806705	0.030299	0.636892
C144	C	1.140038	0.363632	0.970226
C145	C	0.242431	-0.343304	0.343830
C146	C	0.575764	-0.009971	0.677163
C147	C	0.909098	0.323363	1.010497
C148	C	0.176687	-0.343284	0.343859
C149	C	0.510021	-0.009951	0.677193
C150	C	0.843354	0.323383	1.010526
C151	C	0.176687	-0.262657	0.263487
C152	C	0.510021	0.070676	0.596820
C153	C	0.843354	0.404009	0.930153
C154	C	0.242430	-0.262674	0.263463
C155	C	0.575763	0.070659	0.596796
C156	C	0.909096	0.403993	0.930130
C157	C	0.275298	-0.303001	0.303634
C158	C	0.608631	0.030333	0.636967
C159	C	0.941964	0.363666	0.970300
C160	C	1.073849	-0.302981	0.303655
C161	C	1.407182	0.030352	0.636988
C162	C	1.740516	0.363685	0.970322
C163	C	1.143817	-0.302967	0.303686
C164	C	1.477151	0.030366	0.637019
C165	C	1.810484	0.363699	0.970353
C166	C	0.909688	-0.302981	0.467772
C167	C	1.243021	0.030353	0.801105
C168	C	1.576354	0.363686	1.134439
C169	C	0.909700	-0.302966	0.537740
C170	C	1.243033	0.030367	0.871074
C171	C	1.576367	0.363700	1.204407
C172	C	0.909750	-0.138824	0.303626
C173	C	1.243083	0.194509	0.636959
C174	C	1.576417	0.527843	0.970292
C175	C	0.909789	-0.068856	0.303644
C176	C	1.243122	0.264478	0.636978
C177	C	1.576455	0.597811	0.970311
C178	C	0.909666	-0.303002	0.140030
C179	C	1.242999	0.030331	0.473364
C180	C	1.576333	0.363664	0.806697
C181	C	0.909776	-0.302839	0.070063
C182	C	1.243109	0.030494	0.403396
C183	C	1.576442	0.363828	0.736729
C184	C	0.950010	-0.343089	1.037206
C185	C	1.283343	-0.009756	1.370540
C186	C	1.616676	0.323577	1.703873
C187	C	0.949998	-0.343109	0.971464
C188	C	1.283331	-0.009776	1.304797
C189	C	1.616665	0.323557	1.638130
C190	C	0.909760	-0.302868	0.938580
C191	C	1.243093	0.030465	1.271913
C192	C	1.576426	0.363798	1.605247
C193	C	0.869518	-0.262615	0.971444
C194	C	1.202851	0.070718	1.304778
C195	C	1.536185	0.404051	1.638111
C196	C	0.869526	-0.262601	1.037186
C197	C	1.202859	0.070733	1.370519
C198	C	1.536193	0.404066	1.703852
N199	N	0.904948	-0.247790	0.835371
N200	N	1.238282	0.085543	1.168705
N201	N	1.571615	0.418877	1.502038
N202	N	0.904944	-0.247806	0.772920
N203	N	1.238278	0.085528	1.106253
N204	N	1.571611	0.418861	1.439587
C205	C	0.909732	-0.302911	0.740505
C206	C	1.243065	0.030423	1.073838
C207	C	1.576399	0.363756	1.407172
N208	N	0.914536	-0.358001	0.772901
N209	N	1.247869	-0.024667	1.106234
N210	N	1.581203	0.308666	1.439568
N211	N	0.914543	-0.357984	0.835358
N212	N	1.247877	-0.024651	1.168692
N213	N	1.581210	0.308682	1.502025
C214	C	0.909746	-0.302880	0.867295
C215	C	1.243079	0.030454	1.200628
C216	C	1.576413	0.363787	1.533961
C217	C	0.949956	-0.343186	0.636363
C218	C	1.283289	-0.009853	0.969697
C219	C	1.616622	0.323481	1.303030
C220	C	0.949940	-0.343207	0.570619
C221	C	1.283273	-0.009874	0.903953
C222	C	1.616606	0.323460	1.237286
C223	C	0.869463	-0.262707	0.570601
C224	C	1.202796	0.070626	0.903935
C225	C	1.536130	0.403959	1.237268
C226	C	0.869475	-0.262692	0.636344
C227	C	1.202809	0.070641	0.969677
C228	C	1.536142	0.403975	1.303010
C229	C	0.909725	-0.302930	0.669221
C230	C	1.243058	0.030403	1.002554
C231	C	1.576392	0.363736	1.335887
H232	H	0.982881	-1.062712	0.230705
H233	H	1.316214	-0.729379	0.564038
H234	H	1.649547	-0.396046	0.897372
H235	H	0.670030	-0.229926	0.230594
H236	H	1.003363	0.103408	0.563928
H237	H	1.336696	0.436741	0.897261
N238	N	0.991184	-0.936638	0.222349
N239	N	1.324518	-0.603305	0.555682
N240	N	1.657851	-0.269971	0.889015
N241	N	1.027163	-0.965975	0.186460
N242	N	1.360496	-0.632641	0.519793
N243	N	1.693830	-0.299308	0.853126
H244	H	1.056222	-0.942253	0.157449
H245	H	1.389555	-0.608920	0.490783
H246	H	1.722888	-0.275587	0.824116
N247	N	0.991056	-0.384312	0.537059
N248	N	1.324389	-0.050978	0.870393
N249	N	1.657723	0.282355	1.203726
N250	N	1.031175	-0.362153	0.500405
N251	N	1.364508	-0.028819	0.833739
N252	N	1.697841	0.304514	1.167072
H253	H	1.060217	-0.391181	0.476704
H254	H	1.393551	-0.057848	0.810037
H255	H	1.726884	0.275486	1.143371
H256	H	0.836562	-0.661941	0.376525
H257	H	1.169896	-0.328607	0.709858
H258	H	1.503229	0.004726	1.043191
H259	H	0.836523	-0.542673	0.376503
H260	H	1.169856	-0.209340	0.709837
H261	H	1.503189	0.123994	1.043170
H262	H	0.836762	-0.229823	1.063937
H263	H	1.170096	0.103510	1.397270
H264	H	1.503429	0.436844	1.730603
N265	N	0.276019	-0.384478	0.384869
N266	N	0.609352	-0.051145	0.718202
N267	N	0.942686	0.282189	1.051536
N268	N	0.334716	-0.384484	0.384844
N269	N	0.668049	-0.051150	0.718177
N270	N	1.001383	0.282183	1.051511
H271	H	0.358438	-0.413562	0.413830
H272	H	0.691771	-0.080228	0.747163
H273	H	1.025104	0.253105	1.080496
H274	H	0.836698	-0.229944	0.543828
H275	H	1.170032	0.103389	0.877161
H276	H	1.503365	0.436723	1.210495
N277	N	0.676849	-0.384563	0.384725
N278	N	1.010182	-0.051229	0.718058
N279	N	1.343516	0.282104	1.051392
N280	N	0.713592	-0.362478	0.424867
N281	N	1.046926	-0.029145	0.758201
N282	N	1.380259	0.304189	1.091534
H283	H	0.737308	-0.391561	0.453853
H284	H	1.070641	-0.058227	0.787186
H285	H	1.403975	0.275106	1.120519
N286	N	0.276014	-0.221516	0.222402
N287	N	0.609348	0.111818	0.555736
N288	N	0.942681	0.445151	0.889069
N289	N	0.334711	-0.221533	0.222386
N290	N	0.668045	0.111800	0.555719
N291	N	1.001378	0.445133	0.889052
H292	H	0.358432	-0.192463	0.193386
H293	H	0.691765	0.140871	0.526719
H294	H	1.025098	0.474204	0.860052
H295	H	0.550767	-0.376190	0.376442
H296	H	0.884100	-0.042856	0.709776
H297	H	1.217434	0.290477	1.043109
H298	H	0.982771	-0.375879	0.944707
H299	H	1.316104	-0.042545	1.278040
H300	H	1.649437	0.290788	1.611373
N301	N	0.143124	-0.384457	0.384925
N302	N	0.476457	-0.051123	0.718259
N303	N	0.809790	0.282210	1.051592
N304	N	0.172481	-0.420455	0.420787
N305	N	0.505814	-0.087122	0.754121
N306	N	0.839148	0.246212	1.087454
H307	H	0.148777	-0.449534	0.449792
H308	H	0.482110	-0.116201	0.783125
H309	H	0.815443	0.217133	1.116459
N310	N	0.828374	-0.221572	0.669900
N311	N	1.161707	0.111761	1.003233
N312	N	1.495040	0.445094	1.336566
N313	N	0.792446	-0.185647	0.640535
N314	N	1.125779	0.147686	0.973868
N315	N	1.459113	0.481020	1.307201
H316	H	0.763414	-0.156606	0.664233
H317	H	1.096747	0.176728	0.997566
H318	H	1.430081	0.510061	1.330900
H319	H	0.982728	-0.375952	0.663133
H320	H	1.316061	-0.042619	0.996466
H321	H	1.649394	0.290715	1.329800
H322	H	0.149921	-0.229829	0.230780
H323	H	0.483255	0.103504	0.564113
H324	H	0.816588	0.436838	0.897446
H325	H	0.550759	-0.229912	0.230637
H326	H	0.884092	0.103422	0.563970
H327	H	1.217426	0.436755	0.897304
N328	N	0.828420	-0.221497	0.937867
N329	N	1.161754	0.111836	1.271201
N330	N	1.495087	0.445170	1.604534
N331	N	0.792503	-0.185556	0.967215
N332	N	1.125836	0.147777	1.300548
N333	N	1.459169	0.481110	1.633881
H334	H	0.763475	-0.156515	0.943502
H335	H	1.096809	0.176819	1.276836
H336	H	1.430142	0.510152	1.610169
N337	N	0.828306	-0.936699	0.384891
N338	N	1.161640	-0.603365	0.718224
N339	N	1.494973	-0.270032	1.051557
N340	N	0.828294	-0.878002	0.384878
N341	N	1.161627	-0.544668	0.718211
N342	N	1.494960	-0.211335	1.051545
H343	H	0.799223	-0.854294	0.413874
H344	H	1.132556	-0.520961	0.747207
H345	H	1.465890	-0.187628	1.080541
H346	H	0.982782	-0.375856	1.063971
H347	H	1.316116	-0.042523	1.397304
H348	H	1.649449	0.290810	1.730637
N349	N	0.828336	-1.069592	0.384915
N350	N	1.161669	-0.736258	0.718248
N351	N	1.495003	-0.402925	1.051581
N352	N	0.792358	-1.040253	0.420802
N353	N	1.125691	-0.706920	0.754136
N354	N	1.459024	-0.373587	1.087469
H355	H	0.763296	-1.063973	0.449811
H356	H	1.096629	-0.730639	0.783144
H357	H	1.429962	-0.397306	1.116478
H358	H	0.982751	-0.661875	0.230643
H359	H	1.316084	-0.328542	0.563976
H360	H	1.649417	0.004792	0.897309
H361	H	0.982700	-0.542609	0.230616
H362	H	1.316034	-0.209276	0.563950
H363	H	1.649367	0.124057	0.897283
