data_functionalizedCrystal
_audit_creation_method	'MofGen! by Chris Wilmer'
_symmetry_space_group_name_H-M	'P1'
_symmetry_Int_Tables_number	1
_symmetry_cell_setting	triclinic
loop_
_symmetry_equiv_pos_as_xyz
  x,y,z
_cell_length_a	18.426585
_cell_length_b	27.440280
_cell_length_c	27.440280
_cell_angle_alpha	59.997919
_cell_angle_beta	90.004605
_cell_angle_gamma	60.007464
loop_
_atom_site_label
_atom_site_type_symbol
_atom_site_fract_x
_atom_site_fract_y
_atom_site_fract_z
Zr1	Zr	0.699200	0.533416	-0.063962
O2	O	0.583328	0.635082	-0.141777
O3	O	0.734708	0.431753	-0.040109
O4	O	0.734707	0.533425	-0.141781
O5	O	0.583345	0.533402	0.040097
O6	O	0.854133	0.533428	-0.141783
O7	O	0.583329	0.533410	-0.040105
O8	O	0.854134	0.351556	0.040091
O9	O	0.583343	0.715275	-0.141776
O10	O	0.838994	0.473570	-0.029936
O11	O	0.749880	0.473561	0.029920
O12	O	0.749879	0.593267	-0.089787
O13	O	0.660765	0.593258	-0.029931
Zr14	Zr	0.889696	0.533409	0.063948
Zr15	Zr	0.889671	0.533421	-0.063965
Zr16	Zr	0.699226	0.533403	0.063951
Zr17	Zr	0.699225	0.661314	-0.063961
Zr18	Zr	0.889672	0.405511	0.063946
O19	O	0.854189	0.635072	0.040094
O20	O	0.854152	0.635090	-0.141782
O21	O	0.583364	0.635064	0.040099
O22	O	1.005569	0.431742	0.141763
O23	O	1.005532	0.431761	-0.040113
O24	O	0.734744	0.431735	0.141767
O25	O	1.005552	0.533422	-0.040112
O26	O	0.854190	0.533400	0.141767
O27	O	0.734764	0.533396	0.141769
O28	O	1.005568	0.533414	0.040090
O29	O	0.734742	0.715279	-0.141779
O30	O	0.854155	0.351546	0.141764
O31	O	1.005554	0.351550	0.141762
O32	O	1.005533	0.351560	0.040088
O33	O	0.583364	0.715264	-0.040103
O34	O	0.734762	0.715269	-0.040105
O35	O	0.839018	0.473558	0.089772
O36	O	0.928132	0.473566	0.029917
O37	O	0.839017	0.593263	-0.029934
O38	O	0.749903	0.593255	0.029921
C39	C	0.794418	0.373432	-0.000009
C40	C	0.794407	0.319136	-0.000010
C41	C	0.556199	0.533406	-0.000003
C42	C	0.475339	0.533403	-0.000002
C43	C	0.179224	0.533424	-0.000012
C44	C	0.261610	0.533421	-0.000011
C45	C	0.327279	0.533414	-0.000008
C46	C	0.409670	0.533411	-0.000005
C47	C	0.840990	-0.017602	-0.031246
C48	C	0.840998	-0.068625	-0.031244
O49	O	0.880586	-0.095028	-0.057798
N50	N	0.794480	-0.094146	-0.000002
C51	C	0.747959	-0.068645	0.031246
O52	O	0.708394	-0.095038	0.057821
C53	C	0.747957	-0.017626	0.031248
C54	C	0.794470	0.007897	-0.000002
C55	C	0.887500	0.007921	-0.062493
C56	C	0.887490	0.058942	-0.062495
C57	C	0.840971	0.084441	-0.031251
C58	C	0.794460	0.058919	-0.000004
C59	C	0.701441	0.007871	0.062499
C60	C	0.701444	0.058893	0.062498
C61	C	0.747957	0.084416	0.031249
C62	C	0.747931	0.135439	0.031238
N63	N	0.794448	0.160959	-0.000005
C64	C	0.840968	0.135460	-0.031249
C65	C	0.747969	-0.175790	0.031242
C66	C	0.747966	-0.226805	0.031237
C67	C	0.841006	-0.226783	-0.031253
C68	C	0.841003	-0.175764	-0.031251
C69	C	0.794486	-0.150270	-0.000001
C70	C	0.840944	0.242609	-0.031252
C71	C	0.840927	0.293637	-0.031254
C72	C	0.747891	0.293608	0.031238
C73	C	0.747904	0.242587	0.031238
C74	C	0.794437	0.217087	-0.000009
O75	O	0.708366	0.161871	0.057780
O76	O	0.880536	0.161853	-0.057813
C77	C	1.032698	0.533419	-0.000011
C78	C	1.113558	0.533421	-0.000013
C79	C	0.794416	0.533428	-0.160007
C80	C	0.794405	0.533434	-0.214310
C81	C	0.794479	0.693393	-0.000005
C82	C	0.794490	0.747689	-0.000005
C83	C	0.860265	0.533399	-0.551008
C84	C	0.860273	0.533394	-0.602026
O85	O	0.916247	0.533369	-0.628402
N86	N	0.794480	0.533393	-0.627543
C87	C	0.728679	0.533390	-0.602035
O88	O	0.672718	0.533389	-0.628423
C89	C	0.728676	0.533390	-0.551016
C90	C	0.794468	0.533398	-0.525505
C91	C	0.926053	0.533406	-0.525497
C92	C	0.926044	0.533412	-0.474483
C93	C	0.860247	0.533411	-0.448981
C94	C	0.794459	0.533404	-0.474492
C95	C	0.662880	0.533383	-0.525507
C96	C	0.662882	0.533382	-0.474484
C97	C	0.728675	0.533390	-0.448973
C98	C	0.728653	0.533410	-0.397975
N99	N	0.794447	0.533411	-0.372458
C100	C	0.860244	0.533411	-0.397961
C101	C	0.728692	0.533389	-0.709179
C102	C	0.728691	0.533394	-0.760200
C103	C	0.860287	0.533396	-0.760186
C104	C	0.860283	0.533396	-0.709167
C105	C	0.794486	0.533390	-0.683662
C106	C	0.860219	0.533425	-0.290829
C107	C	0.860202	0.533434	-0.239812
C108	C	0.728610	0.533429	-0.239828
C109	C	0.728624	0.533423	-0.290843
C110	C	0.794436	0.533419	-0.316340
O111	O	0.672710	0.533432	-0.371565
O112	O	0.916202	0.533404	-0.371562
C113	C	0.794481	0.533396	0.159993
C114	C	0.794491	0.533391	0.214295
C115	C	1.032667	0.373439	-0.000013
C116	C	1.113517	0.319145	-0.000015
C117	C	0.794450	0.373416	0.159991
C118	C	0.794450	0.319114	0.214292
C119	C	1.032699	0.373422	0.159987
C120	C	1.113560	0.319123	0.214287
C121	C	0.556197	0.693402	-0.160001
C122	C	0.475337	0.747701	-0.214302
C123	C	0.556230	0.693386	-0.000001
C124	C	0.475380	0.747680	0.000001
C125	C	0.794447	0.693409	-0.160005
C126	C	0.794446	0.747710	-0.214307
C127	C	1.104955	0.293650	-0.031264
C128	C	1.180914	0.242642	-0.031278
C129	C	1.265434	0.217127	-0.000039
C130	C	1.273994	0.242627	0.031210
C131	C	1.198036	0.293637	0.031220
C132	C	0.840980	0.293612	0.271041
C133	C	0.840977	0.242597	0.322068
C134	C	0.794449	0.217082	0.316346
C135	C	0.747914	0.242590	0.259591
C136	C	0.747912	0.293607	0.208565
C137	C	1.198057	0.293628	0.208543
C138	C	1.274041	0.242616	0.259559
C139	C	1.265526	0.217096	0.316319
C140	C	1.181019	0.242596	0.322061
C141	C	1.105037	0.293611	0.271046
C142	C	0.390840	0.773202	-0.208558
C143	C	0.314856	0.824231	-0.259574
C144	C	0.323371	0.849754	-0.316333
C145	C	0.407877	0.824251	-0.322076
C146	C	0.483860	0.773226	-0.271060
C147	C	0.483942	0.773180	0.031244
C148	C	0.407983	0.824202	0.031244
C149	C	0.323463	0.849719	0.000003
C150	C	0.314903	0.824216	-0.031244
C151	C	0.390861	0.773199	-0.031247
C152	C	0.840983	0.773209	-0.208565
C153	C	0.841000	0.824224	-0.259583
C154	C	0.794475	0.849743	-0.316341
C155	C	0.747936	0.824239	-0.322082
C156	C	0.747925	0.773222	-0.271065
H157	H	0.878803	0.314418	-0.056703
C158	C	1.011990	0.321711	-0.065635
N159	N	0.941970	0.342846	-0.091529
C160	C	0.892181	0.214542	0.384492
N161	N	0.930751	0.193411	0.431509
H162	H	0.246077	0.845000	-0.056679
H163	H	0.383878	0.752438	-0.056687
H164	H	1.342820	0.221846	0.056644
C165	C	0.381451	0.745141	-0.146127
N166	N	0.374372	0.724012	-0.099105
H167	H	1.173927	0.221886	-0.056725
C168	C	0.239914	0.905836	0.000016
N169	N	0.176989	0.948102	0.000029
C170	C	0.417230	0.852327	-0.384517
N171	N	0.424271	0.873471	-0.431550
C172	C	0.696817	-0.254888	0.065627
N173	N	0.658304	-0.276047	0.091541
C174	C	0.239779	0.905877	-0.372447
N175	N	0.176814	0.948145	-0.414709
H176	H	0.414970	0.844957	0.056691
H177	H	0.794458	0.175541	0.357899
H178	H	0.609306	0.533376	-0.546270
C179	C	1.207446	0.321695	0.146112
N180	N	1.214525	0.342835	0.099091
H181	H	0.878868	0.314381	0.275712
H182	H	0.979637	0.533404	-0.546256
H183	H	0.710013	0.314380	0.056675
C184	C	0.892174	0.745144	-0.146136
N185	N	0.930740	0.724005	-0.099115
C186	C	0.892193	0.852272	-0.253255
N187	N	0.930750	0.873397	-0.248487
C188	C	0.696734	0.321646	0.146143
N189	N	0.658185	0.342762	0.099127
C190	C	0.656271	0.533429	-0.681151
N191	N	0.601713	0.533472	-0.660050
H192	H	0.878879	-0.154986	-0.056697
C193	C	0.794494	0.905866	-0.372456
N194	N	0.794510	0.948138	-0.414720
H195	H	1.205019	0.314389	0.056670
C196	C	1.171667	0.214510	0.384503
N197	N	1.164626	0.193351	0.431535
C198	C	0.696798	0.852293	-0.384522
N199	N	0.658291	0.873418	-0.431554
C200	C	0.650340	-0.020239	0.096923
N201	N	0.611873	-0.041427	0.122870
C202	C	0.696714	0.745188	-0.277391
N203	N	0.658136	0.724077	-0.282160
C204	C	0.696742	0.214512	0.253306
N205	N	0.658204	0.193358	0.248575
C206	C	0.590490	0.533386	-0.446437
N207	N	0.535961	0.533394	-0.425316
C208	C	0.932664	0.533398	-0.681107
N209	N	0.987187	0.533396	-0.659973
H210	H	0.925386	-0.012838	-0.087935
H211	H	0.878836	0.221852	-0.056695
H212	H	1.342843	0.221859	0.254873
C213	C	1.348983	0.161010	-0.000051
N214	N	1.411908	0.118739	-0.000060
C215	C	0.656309	0.533393	-0.788259
N216	N	0.601792	0.533387	-0.809389
C217	C	0.938669	0.087004	-0.096866
N218	N	0.977224	0.108134	-0.122753
H219	H	0.663561	0.079649	0.087946
H220	H	0.710017	0.221813	0.056676
C221	C	1.349118	0.160972	0.372432
N222	N	1.412082	0.118697	0.414695
H223	H	0.913810	0.533421	-0.311583
C224	C	0.656245	0.533421	-0.318908
N225	N	0.601732	0.533412	-0.340040
C226	C	0.696792	-0.147751	0.065621
N227	N	0.658248	-0.126636	0.091518
C228	C	1.012091	0.321648	0.277374
N229	N	0.942086	0.342764	0.282145
C230	C	0.932585	0.533439	-0.211752
N231	N	0.987104	0.533440	-0.190617
H232	H	0.552755	0.752408	0.056688
H233	H	0.246054	0.844987	-0.254886
H234	H	0.878886	-0.247555	-0.056693
H235	H	0.675037	0.533431	-0.219058
H236	H	0.979620	0.533415	-0.453714
H237	H	0.913863	0.533395	-0.780959
H238	H	0.552659	0.752464	-0.275744
