data_functionalizedCrystal
_audit_creation_method	'MofGen! by Chris Wilmer'
_symmetry_space_group_name_H-M	'P1'
_symmetry_Int_Tables_number	1
_symmetry_cell_setting	triclinic
loop_
_symmetry_equiv_pos_as_xyz
  x,y,z
_cell_length_a	19.077236
_cell_length_b	12.645330
_cell_length_c	19.076919
_cell_angle_alpha	92.276250
_cell_angle_beta	89.887323
_cell_angle_gamma	92.310660
loop_
_atom_site_label
_atom_site_type_symbol
_atom_site_fract_x
_atom_site_fract_y
_atom_site_fract_z
Zn1	Zn	1.058321	-0.384817	-0.440563
Zn2	Zn	1.062974	-0.554705	-0.323065
Zn3	Zn	0.945536	-0.384261	-0.318343
Zn4	Zn	0.940794	-0.568848	-0.435804
O5	O	1.001906	-0.473158	-0.379444
O6	O	1.157271	-0.401667	-0.428944
O7	O	1.051327	-0.525944	-0.224108
O8	O	0.960535	-0.235987	-0.334570
O9	O	1.160690	-0.526483	-0.342619
O10	O	1.043397	-0.236395	-0.424365
O11	O	0.965046	-0.400720	-0.220638
O12	O	0.846574	-0.414433	-0.329956
O13	O	0.952452	-0.550587	-0.534766
O14	O	0.843090	-0.550048	-0.416255
O15	O	1.038799	-0.415381	-0.538263
O16	O	1.046729	-0.704930	-0.338005
O17	O	0.956964	-0.715320	-0.420834
C18	C	0.819335	-0.483716	-0.372077
C19	C	0.741230	-0.488259	-0.368942
C20	C	0.702754	-0.425521	-0.412483
C21	C	0.629366	-0.429784	-0.409531
C22	C	0.594455	-0.496793	-0.363042
C23	C	0.632936	-0.559534	-0.319497
C24	C	0.706323	-0.555264	-0.322445
C25	C	0.375163	-0.516514	-0.349394
C26	C	0.301771	-0.520781	-0.346450
C27	C	0.298205	-0.391030	-0.436484
C28	C	0.371594	-0.386771	-0.439432
C29	C	0.410069	-0.449508	-0.395884
N30	N	0.519440	-0.501155	-0.360026
N31	N	0.485082	-0.445139	-0.398897
C32	C	1.001855	-0.748590	-0.379432
C33	C	1.001897	-0.866419	-0.379453
C34	C	0.945643	-1.040561	-0.431737
C35	C	0.945373	-0.918007	-0.431551
C36	C	0.984830	-0.907508	-0.304593
C37	C	0.984487	-1.030146	-0.304910
C38	C	1.075572	-1.030391	-0.401442
C39	C	1.075051	-0.907913	-0.403042
C40	C	1.185190	-0.462559	-0.386839
C41	C	1.263295	-0.458043	-0.389991
C42	C	0.994577	-0.484624	-0.562724
C43	C	0.991454	-0.489510	-0.640826
C44	C	1.001976	-0.196650	-0.379472
C45	C	1.002005	-0.078819	-0.379484
C46	C	1.034941	-0.421414	-0.679341
C47	C	1.031998	-0.426001	-0.752726
C48	C	0.985571	-0.498690	-0.787597
C49	C	0.942080	-0.566789	-0.749077
C50	C	0.945020	-0.562196	-0.675693
C51	C	0.971955	-0.519971	-1.006877
C52	C	0.969020	-0.524562	-1.080267
C53	C	1.058937	-0.383771	-1.083911
C54	C	1.061875	-0.379189	-1.010525
C55	C	1.018382	-0.447284	-0.972012
N56	N	0.982564	-0.503383	-0.862609
N57	N	1.021386	-0.442585	-0.897001
C58	C	1.009247	-0.461658	-0.196878
C59	C	1.012506	-0.456465	-0.118781
H60	H	0.400013	-0.332210	-0.477290
C61	C	0.871598	-0.881755	-0.411630
N62	N	0.816022	-0.854453	-0.396643
H63	H	0.930798	-1.060973	-0.286656
C64	C	0.587045	-0.360770	-0.457432
N65	N	0.555170	-0.308786	-0.493513
C66	C	0.872336	-1.085523	-0.411996
N67	N	0.817121	-1.119385	-0.397123
C68	C	0.959329	-0.880961	-0.506414
N69	N	0.969838	-0.853063	-0.562805
H70	H	0.273349	-0.575353	-0.308593
H71	H	0.904276	-0.625971	-0.777474
H72	H	0.936549	-0.575434	-0.975529
H73	H	0.955853	-1.072725	-0.487327
C74	C	0.913076	-0.868982	-0.279573
N75	N	0.859028	-0.839968	-0.260732
H76	H	1.094346	-0.328331	-1.115276
C77	C	0.255878	-0.322006	-0.484372
N78	N	0.223996	-0.270006	-0.520438
C79	C	1.037750	-1.063689	-0.250297
N80	N	1.077863	-1.088949	-0.209158
C81	C	1.092530	-0.871942	-0.477477
N82	N	1.105699	-0.844828	-0.533536
H83	H	0.406481	-0.567600	-0.313935
H84	H	0.604506	-0.614088	-0.281641
C85	C	0.917943	-0.604526	-1.118623
N86	N	0.879474	-0.664752	-1.147512
H87	H	0.909602	-0.617637	-0.644335
H88	H	0.737649	-0.606351	-0.286989
C89	C	0.741149	-0.351805	-0.463624
N90	N	0.770066	-0.296276	-0.502143
C91	C	1.038704	-0.861571	-0.250379
N92	N	1.079282	-0.826967	-0.209545
C93	C	1.134448	-0.860054	-0.355691
N94	N	1.179184	-0.824009	-0.320018
H95	H	1.091723	-1.063521	-0.455259
C96	C	1.086013	-0.341448	-0.640990
N97	N	1.124480	-0.281212	-0.612107
H98	H	1.117527	-1.054542	-0.363420
H99	H	1.067411	-0.370552	-0.784082
C100	C	1.112941	-0.299215	-0.972173
N101	N	1.151403	-0.238975	-0.943287
