data_functionalizedCrystal
_audit_creation_method	'MofGen! by Chris Wilmer'
_symmetry_space_group_name_H-M	'P1'
_symmetry_Int_Tables_number	1
_symmetry_cell_setting	triclinic
loop_
_symmetry_equiv_pos_as_xyz
  x,y,z
_cell_length_a	29.839131
_cell_length_b	16.959455
_cell_length_c	16.959447
_cell_angle_alpha	89.985678
_cell_angle_beta	90.033915
_cell_angle_gamma	89.961633
loop_
_atom_site_label
_atom_site_type_symbol
_atom_site_fract_x
_atom_site_fract_y
_atom_site_fract_z
Zn1	Zn	-0.178881	-1.208267	0.446889
Zn2	Zn	0.321119	-0.708267	0.946889
Zn3	Zn	-0.254014	-1.208140	0.314702
Zn4	Zn	0.245986	-0.708140	0.814702
Zn5	Zn	-0.178895	-1.076095	0.314726
Zn6	Zn	0.321105	-0.576095	0.814726
Zn7	Zn	-0.253981	-1.076010	0.446841
Zn8	Zn	0.246019	-0.576010	0.946841
O9	O	-0.216443	-1.142128	0.380790
O10	O	0.283557	-0.642128	0.880790
O11	O	-0.188856	-1.318861	0.429364
O12	O	0.311144	-0.818861	0.929364
O13	O	-0.244070	-1.190606	0.204094
O14	O	0.255930	-0.690606	0.704094
O15	O	-0.116026	-1.093716	0.332288
O16	O	0.383974	-0.593716	0.832288
O17	O	-0.244056	-1.318767	0.332247
O18	O	0.255944	-0.818767	0.832247
O19	O	-0.116016	-1.190822	0.429388
O20	O	0.383984	-0.690822	0.929388
O21	O	-0.188880	-1.093593	0.204112
O22	O	0.311120	-0.593593	0.704112
O23	O	-0.188847	-0.965473	0.332242
O24	O	0.311153	-0.465473	0.832242
O25	O	-0.243999	-1.093572	0.557458
O26	O	0.256001	-0.593572	1.057458
O27	O	-0.244012	-0.965411	0.429305
O28	O	0.255988	-0.465411	0.929305
O29	O	-0.188823	-1.190740	0.557493
O30	O	0.311177	-0.690740	1.057493
O31	O	-0.316877	-1.190524	0.332200
O32	O	0.183123	-0.690524	0.832200
O33	O	-0.316852	-1.093449	0.429282
O34	O	0.183148	-0.593449	0.929282
C35	C	-0.216428	-0.936762	0.380771
C36	C	0.283572	-0.436762	0.880771
C37	C	-0.216433	-0.848905	0.380782
C38	C	0.283567	-0.348905	0.880782
C39	C	-0.333165	-1.141985	0.380750
C40	C	0.166835	-0.641985	0.880750
C41	C	-0.383100	-1.141996	0.380760
C42	C	0.116900	-0.641996	0.880760
C43	C	-0.216406	-1.142161	0.586958
C44	C	0.283594	-0.642161	1.086958
C45	C	-0.216390	-1.142175	0.674814
C46	C	0.283610	-0.642175	1.174814
C47	C	-0.692743	-1.192767	0.330313
C48	C	-0.192743	-0.692767	0.830313
C49	C	-0.880416	-1.192864	0.330344
C50	C	-0.380416	-0.692864	0.830344
O51	O	-0.904681	-1.235918	0.287422
O52	O	-0.404681	-0.735918	0.787422
N53	N	-0.903885	-1.142292	0.380849
N54	N	-0.403885	-0.642292	0.880849
C55	C	-0.880432	-1.091695	0.431354
C56	C	-0.380432	-0.591695	0.931354
O57	O	-0.904700	-1.048688	0.474319
O58	O	-0.404700	-0.548688	0.974319
C59	C	-0.692760	-1.091602	0.431327
C60	C	-0.192760	-0.591602	0.931327
C61	C	-0.669294	-1.142172	0.380812
C62	C	-0.169294	-0.642172	0.880812
C63	C	-0.669277	-1.243333	0.279803
C64	C	-0.169277	-0.743333	0.779803
C65	C	-0.622362	-1.243305	0.279793
C66	C	-0.122362	-0.743305	0.779793
C67	C	-0.598913	-1.192711	0.330293
C68	C	-0.098913	-0.692711	0.830293
C69	C	-0.622379	-1.142144	0.380802
C70	C	-0.122379	-0.642144	0.880802
C71	C	-0.669308	-1.041010	0.481835
C72	C	-0.169308	-0.541010	0.981835
C73	C	-0.622387	-1.040992	0.481826
C74	C	-0.122387	-0.540992	0.981826
C75	C	-0.598921	-1.091563	0.431311
C76	C	-0.098921	-0.591563	0.931311
C77	C	-0.552014	-1.091522	0.431292
C78	C	-0.052014	-0.591522	0.931292
N79	N	-0.528545	-1.142094	0.380786
N80	N	-0.028545	-0.642094	0.880786
C81	C	-0.551995	-1.192689	0.330287
C82	C	-0.051995	-0.692689	0.830287
C83	C	-0.978963	-1.091746	0.431364
C84	C	-0.478963	-0.591746	0.931364
C85	C	-1.025881	-1.091768	0.431370
C86	C	-0.525881	-0.591768	0.931370
C87	C	-1.025862	-1.192939	0.330360
C88	C	-0.525862	-0.692939	0.830360
C89	C	-0.978943	-1.192912	0.330351
C90	C	-0.478943	-0.692912	0.830351
C91	C	-0.955494	-1.142319	0.380858
C92	C	-0.455494	-0.642319	0.880858
C93	C	-0.453469	-1.192626	0.330268
C94	C	0.046531	-0.692626	0.830268
C95	C	-0.406549	-1.192591	0.330260
C96	C	0.093451	-0.692591	0.830260
C97	C	-0.406572	-1.091424	0.431273
C98	C	0.093428	-0.591424	0.931273
C99	C	-0.453488	-1.091455	0.431278
C100	C	0.046512	-0.591455	0.931278
C101	C	-0.476935	-1.142063	0.380773
C102	C	0.023065	-0.642063	0.880773
O103	O	-0.527720	-1.048497	0.474197
O104	O	-0.027720	-0.548497	0.974197
O105	O	-0.527719	-1.235702	0.287341
O106	O	-0.027719	-0.735702	0.787341
C107	C	-0.739659	-1.192795	0.330323
C108	C	-0.239659	-0.692795	0.830323
C109	C	-0.763125	-1.142228	0.380833
C110	C	-0.263125	-0.642228	0.880833
C111	C	-0.739675	-1.091633	0.431332
C112	C	-0.239675	-0.591633	0.931332
C113	C	-0.810043	-1.142250	0.380839
C114	C	-0.310043	-0.642250	0.880839
C115	C	-0.833492	-1.192845	0.330339
C116	C	-0.333492	-0.692845	0.830339
C117	C	-0.810024	-1.243417	0.279834
C118	C	-0.310024	-0.743417	0.779834
C119	C	-0.763108	-1.243389	0.279824
C120	C	-0.263108	-0.743389	0.779824
C121	C	-0.763144	-1.041061	0.481838
C122	C	-0.263144	-0.541061	0.981838
C123	C	-0.810059	-1.041092	0.481843
C124	C	-0.310059	-0.541092	0.981843
C125	C	-0.833509	-1.091687	0.431344
C126	C	-0.333509	-0.591687	0.931344
C127	C	-0.099264	-1.142293	0.380846
C128	C	0.400736	-0.642293	0.880846
C129	C	-0.049330	-1.142363	0.380870
C130	C	0.450670	-0.642363	0.880870
C131	C	-0.216458	-1.348296	0.380808
C132	C	0.283542	-0.848296	0.880808
C133	C	-0.216465	-1.436153	0.380816
C134	C	0.283535	-0.936153	0.880816
C135	C	-0.187695	-0.477437	0.330354
C136	C	0.312305	0.022563	0.830354
C137	C	-0.245228	-0.477421	0.431270
C138	C	0.254772	0.022579	0.931270
C139	C	-0.245221	-0.559967	0.431265
C140	C	0.254779	-0.059967	0.931265
C141	C	-0.216452	-0.601252	0.380803
C142	C	0.283548	-0.101252	0.880803
C143	C	-0.187688	-0.559991	0.330346
C144	C	0.312312	-0.059991	0.830346
C145	C	-0.273987	-0.601235	0.481716
C146	C	0.226013	-0.101235	0.981716
C147	C	-0.273982	-0.683786	0.481713
C148	C	0.226018	-0.183786	0.981713
C149	C	-0.245210	-0.725072	0.431254
C150	C	0.254790	-0.225072	0.931254
C151	C	-0.216445	-0.683806	0.380795
C152	C	0.283555	-0.183806	0.880795
C153	C	-0.187676	-0.725090	0.330333
C154	C	0.312324	-0.225090	0.830333
C155	C	-0.158908	-0.683826	0.279878
C156	C	0.341092	-0.183826	0.779878
C157	C	-0.158916	-0.601277	0.279887
C158	C	0.341084	-0.101277	0.779887
C159	C	-0.245202	-0.807620	0.431245
C160	C	0.254798	-0.307620	0.931245
C161	C	-0.187669	-0.807644	0.330325
C162	C	0.312331	-0.307644	0.830325
C163	C	-0.216447	-1.142141	0.175423
C164	C	0.283553	-0.642141	0.675423
C165	C	-0.216337	-1.142280	0.087567
C166	C	0.283663	-0.642280	0.587567
C167	C	-0.245070	-1.091678	1.046274
C168	C	0.254930	-0.591678	1.546274
C169	C	-0.187615	-1.192860	1.046306
C170	C	0.312385	-0.692860	1.546306
C171	C	-0.187625	-1.192839	0.963760
C172	C	0.312375	-0.692839	1.463760
C173	C	-0.216358	-1.142238	0.922468
C174	C	0.283642	-0.642238	1.422468
C175	C	-0.245081	-1.091657	0.963721
C176	C	0.254919	-0.591657	1.463721
C177	C	-0.158905	-1.243424	0.922501
C178	C	0.341095	-0.743424	1.422501
C179	C	-0.158914	-1.243406	0.839950
C180	C	0.341086	-0.743406	1.339950
C181	C	-0.187645	-1.192800	0.798656
C182	C	0.312355	-0.692800	1.298656
C183	C	-0.216369	-1.142217	0.839914
C184	C	0.283631	-0.642217	1.339914
C185	C	-0.245102	-1.091615	0.798621
C186	C	0.254898	-0.591615	1.298621
C187	C	-0.273824	-1.041028	0.839878
C188	C	0.226176	-0.541028	1.339878
C189	C	-0.273812	-1.041051	0.922426
C190	C	0.226188	-0.541051	1.422426
C191	C	-0.187657	-1.192776	0.716107
C192	C	0.312343	-0.692776	1.216107
C193	C	-0.245113	-1.091594	0.716068
C194	C	0.254887	-0.591594	1.216068
H195	H	-0.387445	-1.233771	0.289123
H196	H	0.112555	-0.733771	0.789123
C197	C	-0.596555	-1.298943	0.224236
C198	C	-0.096555	-0.798943	0.724236
H199	H	-0.617246	-1.329081	0.194173
H200	H	-0.117246	-0.829081	0.694173
H201	H	-0.578280	-1.268730	0.189760
H202	H	-0.078280	-0.768730	0.689760
H203	H	-0.578225	-1.333358	0.254508
H204	H	-0.078225	-0.833358	0.754508
H205	H	-0.297221	-0.999832	0.806247
H206	H	0.202779	-0.499832	1.306247
C207	C	-0.695111	-0.985387	0.537408
C208	C	-0.195111	-0.485387	1.037408
H209	H	-0.674419	-0.955265	0.567485
H210	H	-0.174419	-0.455265	1.067485
H211	H	-0.713446	-0.950969	0.507157
H212	H	-0.213446	-0.450969	1.007157
H213	H	-0.713380	-1.015619	0.571883
H214	H	-0.213380	-0.515619	1.071883
H215	H	-0.135526	-1.284597	0.806366
H216	H	0.364474	-0.784597	1.306366
C217	C	-0.276839	-0.432015	0.486834
C218	C	0.223161	0.067985	0.986834
H219	H	-0.293960	-0.468413	0.516898
H220	H	0.206040	0.031587	1.016898
H221	H	-0.259648	-0.399868	0.521309
H222	H	0.240352	0.100132	1.021309
H223	H	-0.296409	-0.399756	0.456589
H224	H	0.203591	0.100244	0.956589
C225	C	-0.276663	-1.036039	1.091651
C226	C	0.223337	-0.536039	1.591651
H227	H	-0.272545	-1.043298	1.146729
H228	H	0.227455	-0.543298	1.646729
H229	H	-0.270088	-0.982937	1.078124
H230	H	0.229912	-0.482937	1.578124
H231	H	-0.306852	-1.047569	1.078104
H232	H	0.193148	-0.547569	1.578104
H233	H	-0.603298	-0.999794	0.522958
H234	H	-0.103298	-0.499794	1.022958
H235	H	-0.164238	-0.841252	0.289237
H236	H	0.335762	-0.341252	0.789237
H237	H	-0.472554	-1.233837	0.289144
H238	H	0.027446	-0.733837	0.789144
H239	H	-0.297198	-0.999868	0.956025
H240	H	0.202802	-0.499868	1.456025
H241	H	-0.135486	-0.717450	0.238788
H242	H	0.364514	-0.217450	0.738788
C243	C	-0.156064	-1.248411	0.670728
C244	C	0.343936	-0.748411	1.170728
H245	H	-0.138949	-1.278547	0.707144
H246	H	0.361051	-0.778547	1.207144
H247	H	-0.173254	-1.282816	0.638510
H248	H	0.326746	-0.782816	1.138510
H249	H	-0.136489	-1.218186	0.638544
H250	H	0.363511	-0.718186	1.138544
H251	H	-0.135515	-1.284626	0.956128
H252	H	0.364485	-0.784626	1.456128
H253	H	-0.688365	-1.284538	0.238680
H254	H	-0.188365	-0.784538	0.738680
C255	C	-1.051662	-1.248589	0.274810
C256	C	-0.551662	-0.748589	0.774810
H257	H	-1.082964	-1.241358	0.282055
H258	H	-0.582964	-0.741358	0.782055
H259	H	-1.044001	-1.237058	0.221688
H260	H	-0.544001	-0.737058	0.721688
H261	H	-1.043943	-1.301691	0.286431
H262	H	-0.543943	-0.801691	0.786431
C263	C	-0.953134	-1.248545	0.274792
C264	C	-0.453134	-0.748545	0.774792
H265	H	-0.973824	-1.278681	0.244723
H266	H	-0.473824	-0.778681	0.744723
H267	H	-0.934859	-1.218328	0.240320
H268	H	-0.434859	-0.718328	0.740320
H269	H	-0.934805	-1.282963	0.305062
H270	H	-0.434805	-0.782963	0.805062
H271	H	-0.164225	-1.234062	1.079932
H272	H	0.335775	-0.734062	1.579932
H273	H	-0.164272	-0.443836	0.289277
H274	H	0.335728	0.056164	0.789277
C275	C	-1.051688	-1.036137	0.486931
C276	C	-0.551688	-0.536137	0.986931
H277	H	-1.030999	-1.006010	0.517008
H278	H	-0.530999	-0.506010	1.017008
H279	H	-1.070022	-1.001722	0.456672
H280	H	-0.570022	-0.501722	0.956672
H281	H	-1.069959	-1.066365	0.521406
H282	H	-0.569959	-0.566365	1.021406
C283	C	-0.835867	-0.985463	0.537415
C284	C	-0.335867	-0.485463	1.037415
H285	H	-0.815178	-0.955335	0.567492
H286	H	-0.315178	-0.455335	1.067492
H287	H	-0.854204	-0.951049	0.507162
H288	H	-0.354204	-0.451049	1.007162
H289	H	-0.854135	-1.015697	0.571890
H290	H	-0.354135	-0.515697	1.071890
H291	H	-0.959874	-1.050545	0.472494
H292	H	-0.459874	-0.550545	0.972494
C293	C	-0.276842	-0.853012	0.486735
C294	C	0.223158	-0.353012	0.986735
H295	H	-0.272719	-0.908088	0.479501
H296	H	0.227281	-0.408088	0.979501
H297	H	-0.270309	-0.839506	0.539867
H298	H	0.229691	-0.339506	1.039867
H299	H	-0.307021	-0.839452	0.475060
H300	H	0.192979	-0.339452	0.975060
C301	C	-0.380774	-1.035781	0.486827
C302	C	0.119226	-0.535781	0.986827
H303	H	-0.401467	-1.005663	0.516913
H304	H	0.098533	-0.505663	1.016913
H305	H	-0.362443	-1.065997	0.521283
H306	H	0.137557	-0.565997	1.021283
H307	H	-0.362501	-1.001346	0.456558
H308	H	0.137499	-0.501346	0.956558
H309	H	-0.472595	-1.050279	0.472414
H310	H	0.027405	-0.550279	0.972414
H311	H	-0.744006	-1.284568	0.238690
H312	H	-0.244006	-0.784568	0.738690
H313	H	-0.829124	-1.284611	0.238713
H314	H	-0.329124	-0.784611	0.738713
H315	H	-0.297406	-0.717376	0.522797
H316	H	0.202594	-0.217376	1.022797
H317	H	-0.744055	-0.999862	0.522962
H318	H	-0.244055	-0.499862	1.022962
H319	H	-0.135496	-0.567672	0.238808
H320	H	0.364504	-0.067672	0.738808
H321	H	-0.297413	-0.567615	0.522794
H322	H	0.202587	-0.067615	1.022794
C323	C	-0.276727	-1.035943	0.670652
C324	C	0.223273	-0.535943	1.170652
H325	H	-0.293833	-1.005828	0.707047
H326	H	0.206167	-0.505828	1.207047
H327	H	-0.259550	-1.001518	0.638450
H328	H	0.240450	-0.501518	1.138450
H329	H	-0.296309	-1.066159	0.638447
H330	H	0.203691	-0.566159	1.138447
