data_functionalizedCrystal
_audit_creation_method	'MofGen! by Chris Wilmer'
_symmetry_space_group_name_H-M	'P1'
_symmetry_Int_Tables_number	1
_symmetry_cell_setting	triclinic
loop_
_symmetry_equiv_pos_as_xyz
  x,y,z
_cell_length_a	19.121308
_cell_length_b	18.215404
_cell_length_c	18.215399
_cell_angle_alpha	90.027515
_cell_angle_beta	87.580143
_cell_angle_gamma	87.587527
loop_
_atom_site_label
_atom_site_type_symbol
_atom_site_fract_x
_atom_site_fract_y
_atom_site_fract_z
Zn1	Zn	-1.073686	0.340925	-0.368118
Zn2	Zn	-0.740352	0.674258	-0.034785
Zn3	Zn	-0.407019	1.007592	0.298549
Zn4	Zn	-1.073601	0.463993	-0.245056
Zn5	Zn	-0.740267	0.797326	0.088277
Zn6	Zn	-0.406934	1.130659	0.421610
Zn7	Zn	-0.956240	0.335705	-0.250316
Zn8	Zn	-0.622907	0.669038	0.083017
Zn9	Zn	-0.289573	1.002372	0.416351
Zn10	Zn	-0.956209	0.458710	-0.373329
Zn11	Zn	-0.622876	0.792043	-0.039996
Zn12	Zn	-0.289543	1.125377	0.293337
O13	O	-1.014934	0.399833	-0.309205
O14	O	-0.681601	0.733167	0.024128
O15	O	-0.348267	1.066500	0.357462
O16	O	-1.171955	0.361646	-0.347412
O17	O	-0.838621	0.694979	-0.014078
O18	O	-0.505288	1.028312	0.319255
O19	O	-1.058009	0.447001	-0.142771
O20	O	-0.724676	0.780335	0.190562
O21	O	-0.391343	1.113668	0.523896
O22	O	-0.971868	0.233415	-0.265963
O23	O	-0.638534	0.566749	0.067371
O24	O	-0.305201	0.900082	0.400704
O25	O	-1.171892	0.452063	-0.256999
O26	O	-0.838559	0.785396	0.076335
O27	O	-0.505225	1.118730	0.409668
O28	O	-1.058155	0.237251	-0.352511
O29	O	-0.724821	0.570584	-0.019178
O30	O	-0.391488	0.903917	0.314155
O31	O	-0.971785	0.352749	-0.146635
O32	O	-0.638452	0.686082	0.186698
O33	O	-0.305118	1.019416	0.520032
O34	O	-0.857956	0.347626	-0.271016
O35	O	-0.524622	0.680960	0.062317
O36	O	-0.191289	1.014293	0.395651
O37	O	-0.971816	0.443059	-0.475621
O38	O	-0.638483	0.776393	-0.142288
O39	O	-0.305149	1.109726	0.191045
O40	O	-0.857933	0.437998	-0.361394
O41	O	-0.524600	0.771331	-0.028060
O42	O	-0.191267	1.104664	0.305273
O43	O	-1.058125	0.356523	-0.471793
O44	O	-0.724792	0.689857	-0.138459
O45	O	-0.391459	1.023190	0.194874
O46	O	-1.057980	0.566274	-0.262052
O47	O	-0.724647	0.899607	0.071281
O48	O	-0.391313	1.232941	0.404615
O49	O	-0.971733	0.562393	-0.356294
O50	O	-0.638400	0.895726	-0.022960
O51	O	-0.305067	1.229059	0.310373
C52	C	-0.832462	0.391673	-0.317341
C53	C	-0.499128	0.725006	0.015992
C54	C	-0.165795	1.058340	0.349325
C55	C	-0.754399	0.388200	-0.320840
C56	C	-0.421066	0.721533	0.012494
C57	C	-0.087732	1.054866	0.345827
C58	C	-0.312895	0.366139	-0.343025
C59	C	0.020438	0.699473	-0.009691
C60	C	0.353771	1.032806	0.323642
C61	C	-0.386243	0.369417	-0.339734
C62	C	-0.052910	0.702750	-0.006400
C63	C	0.280423	1.036083	0.326933
C64	C	-0.422876	0.418053	-0.290939
C65	C	-0.089542	0.751386	0.042395
C66	C	0.243791	1.084720	0.375728
C67	C	-0.386156	0.463421	-0.245437
C68	C	-0.052823	0.796754	0.087896
C69	C	0.280510	1.130087	0.421229
C70	C	-0.312810	0.460147	-0.248733
C71	C	0.020524	0.793480	0.084601
C72	C	0.353857	1.126813	0.417934
C73	C	-0.644333	0.430293	-0.278634
C74	C	-0.311000	0.763626	0.054700
C75	C	0.022334	1.096960	0.388033
C76	C	-0.717685	0.433562	-0.275340
C77	C	-0.384352	0.766895	0.057993
C78	C	-0.051018	1.100229	0.391327
C79	C	-0.717767	0.339559	-0.369638
C80	C	-0.384434	0.672892	-0.036305
C81	C	-0.051100	1.006225	0.297029
C82	C	-0.644419	0.336286	-0.372926
C83	C	-0.311086	0.669619	-0.039592
C84	C	0.022248	1.002953	0.293741
C85	C	-0.607706	0.381656	-0.327427
C86	C	-0.274373	0.714989	0.005906
C87	C	0.058961	1.048323	0.339240
C88	C	-0.497849	0.421402	-0.287572
C89	C	-0.164516	0.754736	0.045762
C90	C	0.168818	1.088069	0.379095
C91	C	-0.532734	0.378310	-0.330798
C92	C	-0.199400	0.711643	0.002535
C93	C	0.133933	1.044977	0.335869
C94	C	-0.198119	0.408022	-0.301029
C95	C	0.135215	0.741355	0.032304
C96	C	0.468548	1.074689	0.365637
C97	C	-0.276181	0.411502	-0.297525
C98	C	0.057152	0.744835	0.035808
C99	C	0.390485	1.078169	0.369142
C100	C	-1.014863	0.591036	-0.309183
C101	C	-0.681530	0.924370	0.024150
C102	C	-0.348196	1.257703	0.357484
C103	C	-1.014897	0.672837	-0.309195
C104	C	-0.681564	1.006170	0.024138
C105	C	-0.348230	1.339503	0.357472
C106	C	-1.014977	0.399784	-0.501156
C107	C	-0.681643	0.733118	-0.167823
C108	C	-0.348310	1.066451	0.165511
C109	C	-1.014995	0.399764	-0.582954
C110	C	-0.681662	0.733097	-0.249621
C111	C	-0.348328	1.066430	0.083713
C112	C	-1.059915	0.863032	-0.260215
C113	C	-0.726581	1.196365	0.073118
C114	C	-0.393248	1.529699	0.406451
C115	C	-1.059947	0.939892	-0.260236
C116	C	-0.726614	1.273225	0.073098
C117	C	-0.393281	1.606559	0.406431
C118	C	-0.970061	0.935887	-0.358296
C119	C	-0.636727	1.269220	-0.024962
C120	C	-0.303394	1.602554	0.308371
C121	C	-0.970032	0.859029	-0.358278
C122	C	-0.636699	1.192362	-0.024945
C123	C	-0.303365	1.525695	0.308388
C124	C	-1.014958	0.822603	-0.309234
C125	C	-0.681625	1.155936	0.024099
C126	C	-0.348291	1.489270	0.357433
C127	C	-1.015019	0.976322	-0.309272
C128	C	-0.681686	1.309655	0.024062
C129	C	-0.348353	1.642988	0.357395
C130	C	-1.015055	1.059657	-0.309294
C131	C	-0.681721	1.392990	0.024039
C132	C	-0.348388	1.726324	0.357372
C133	C	-1.014924	0.739262	-0.309212
C134	C	-0.681591	1.072596	0.024121
C135	C	-0.348257	1.405929	0.357455
C136	C	-1.015029	1.207884	-0.309256
C137	C	-0.681695	1.541218	0.024078
C138	C	-0.348362	1.874551	0.357411
C139	C	-1.015080	1.126088	-0.309311
C140	C	-0.681747	1.459421	0.024023
C141	C	-0.348414	1.792755	0.357356
C142	C	-1.059952	0.354661	-0.769155
C143	C	-0.726619	0.687994	-0.435822
C144	C	-0.393286	1.021328	-0.102488
C145	C	-1.059961	0.354640	-0.846013
C146	C	-0.726627	0.687973	-0.512680
C147	C	-0.393294	1.021307	-0.179347
C148	C	-0.970087	0.444755	-0.849989
C149	C	-0.636754	0.778088	-0.516656
C150	C	-0.303421	1.111421	-0.183322
C151	C	-0.970076	0.444771	-0.773132
C152	C	-0.636742	0.778105	-0.439799
C153	C	-0.303409	1.111438	-0.106466
C154	C	-1.015012	0.399726	-0.732717
C155	C	-0.681679	0.733059	-0.399384
C156	C	-0.348346	1.066392	-0.066050
C157	C	-1.015032	0.399688	-0.886432
C158	C	-0.681699	0.733021	-0.553099
C159	C	-0.348365	1.066355	-0.219766
C160	C	-1.015041	0.399665	-0.969766
C161	C	-0.681708	0.732999	-0.636432
C162	C	-0.348374	1.066332	-0.303099
C163	C	-1.015003	0.399747	-0.649378
C164	C	-0.681670	0.733080	-0.316045
C165	C	-0.348336	1.066414	0.017288
C166	C	-1.014932	0.399831	-0.117999
C167	C	-0.681598	0.733164	0.215335
C168	C	-0.348265	1.066497	0.548668
C169	C	-1.015050	0.399650	-0.036195
C170	C	-0.681716	0.732983	0.297138
C171	C	-0.348383	1.066317	0.630472
H172	H	-0.416133	0.332480	-0.376787
H173	H	-0.082800	0.665813	-0.043453
H174	H	0.250534	0.999147	0.289880
H175	H	-0.933423	0.826109	-0.398199
H176	H	-0.600090	1.159442	-0.064865
H177	H	-0.266756	1.492776	0.268468
F178	F	-0.922268	0.492695	-0.893008
F179	F	-0.588934	0.826029	-0.559675
F180	F	-0.255601	1.159362	-0.226341
F181	F	-1.107776	0.306718	-0.726145
F182	F	-0.774443	0.640051	-0.392811
F183	F	-0.441109	0.973384	-0.059478
H184	H	-0.933483	0.965554	-0.398225
H185	H	-0.600149	1.298888	-0.064891
H186	H	-0.266816	1.632221	0.268442
F187	F	-1.107797	0.306681	-0.884790
F188	F	-0.774463	0.640014	-0.551456
F189	F	-0.441130	0.973347	-0.218123
F190	F	-1.107798	0.982917	-0.208065
F191	F	-0.774465	1.316250	0.125268
F192	F	-0.441131	1.649583	0.458602
F193	F	-0.605437	0.284522	-0.424862
F194	F	-0.272104	0.617856	-0.091529
F195	F	0.061229	0.951189	0.241804
F196	F	-0.756845	0.291278	-0.418060
F197	F	-0.423511	0.624612	-0.084726
F198	F	-0.090178	0.957945	0.248607
F199	F	-0.922239	0.492734	-0.734350
F200	F	-0.588905	0.826068	-0.401017
F201	F	-0.255572	1.159401	-0.067683
H202	H	-0.614450	0.467235	-0.241583
H203	H	-0.281117	0.800568	0.091750
H204	H	0.052216	1.133901	0.425083
H205	H	-0.747509	0.473171	-0.235604
H206	H	-0.414176	0.806504	0.097729
H207	H	-0.080842	1.139837	0.431063
F208	F	-0.273915	0.314369	-0.394955
F209	F	0.059418	0.647703	-0.061622
F210	F	0.392752	0.981036	0.271711
H211	H	-0.415988	0.503024	-0.205710
H212	H	-0.082655	0.836358	0.127623
H213	H	0.250678	1.169691	0.460956
H214	H	-1.096497	0.833376	-0.220281
H215	H	-0.763164	1.166709	0.113052
H216	H	-0.429830	1.500043	0.446385
F217	F	-0.273736	0.508433	-0.200310
F218	F	0.059597	0.841766	0.133023
F219	F	0.392931	1.175099	0.466356
F220	F	-0.536842	0.473162	-0.235640
F221	F	-0.203509	0.806495	0.097693
F222	F	0.129824	1.139829	0.431026
F223	F	-0.493746	0.326552	-0.382731
F224	F	-0.160412	0.659886	-0.049398
F225	F	0.172921	0.993219	0.283936
