data_functionalizedCrystal
_audit_creation_method	'MofGen! by Chris Wilmer'
_symmetry_space_group_name_H-M	'P1'
_symmetry_Int_Tables_number	1
_symmetry_cell_setting	triclinic
loop_
_symmetry_equiv_pos_as_xyz
  x,y,z
_cell_length_a	14.853567
_cell_length_b	11.792241
_cell_length_c	13.330367
_cell_angle_alpha	89.995231
_cell_angle_beta	89.995418
_cell_angle_gamma	83.914173
loop_
_atom_site_label
_atom_site_type_symbol
_atom_site_fract_x
_atom_site_fract_y
_atom_site_fract_z
O1	O	1.196946	0.148181	-0.083355
O2	O	0.934555	0.165833	-0.083372
O3	O	1.072118	-0.008203	-0.083356
O4	O	1.059383	0.322217	-0.083371
O5	O	1.072098	-0.008206	0.083491
O6	O	0.934535	0.165829	0.083475
O7	O	1.196926	0.148177	0.083492
Cu8	Cu	1.065728	0.157003	0.098718
Cu9	Cu	1.065752	0.157008	-0.098598
O10	O	1.059363	0.322213	0.083476
C11	C	0.900953	0.165032	0.000049
C12	C	0.800860	0.162635	0.000043
C13	C	1.071308	-0.050491	0.000067
C14	C	1.068913	-0.176489	0.000066
C15	C	0.387884	0.049122	0.000071
C16	C	0.367408	0.255880	0.000060
C17	C	0.461451	0.258134	0.000057
C18	C	0.518715	0.155880	0.000059
C19	C	0.481936	0.051372	0.000064
C20	C	0.498237	0.362640	0.000042
C21	C	0.592285	0.364898	0.000037
C22	C	0.649550	0.262642	0.000046
C23	C	0.612766	0.158131	0.000053
C24	C	0.670030	0.055877	0.000055
C25	C	0.633248	-0.048637	0.000068
C26	C	0.539201	-0.050883	0.000073
C27	C	0.743596	0.264889	0.000041
C28	C	0.764081	0.058127	0.000048
C29	C	1.064511	-0.407174	0.000049
C30	C	1.066957	-0.278804	0.000058
C31	C	1.230527	0.148979	0.000069
C32	C	1.330621	0.151376	0.000069
C33	C	1.060173	0.364501	0.000051
C34	C	1.062567	0.490500	0.000046
N35	N	1.065718	0.156999	0.237500
N36	N	1.065769	0.157003	-0.237379
C37	C	1.004837	0.234040	0.710116
C38	C	1.126692	0.079966	0.710098
C39	C	1.126682	0.079962	0.605079
C40	C	1.065749	0.157000	0.552574
C41	C	1.004826	0.234042	0.605087
C42	C	1.187610	0.002930	0.552558
C43	C	1.187602	0.002925	0.447534
C44	C	1.126665	0.079958	0.395027
C45	C	1.065739	0.157001	0.447546
C46	C	1.004806	0.234039	0.395041
C47	C	0.943875	0.311078	0.447559
C48	C	0.943888	0.311075	0.552580
C49	C	1.126651	0.079961	0.290005
C50	C	1.004796	0.234040	0.290013
H51	H	0.679884	-0.131891	0.000063
C52	C	0.320999	0.431418	0.085817
C53	C	0.304471	0.368278	0.000053
H54	H	0.282145	0.500814	0.085808
H55	H	0.309783	0.388573	0.143992
H56	H	0.382277	0.447704	0.085806
H57	H	0.243195	0.351984	0.000068
H58	H	0.315680	0.411131	-0.058137
H59	H	0.810700	-0.025142	0.000054
C60	C	0.788130	0.377374	0.415233
C61	C	0.876899	0.395761	0.389841
H62	H	0.746786	0.429658	0.379602
H63	H	0.777980	0.301610	0.398023
H64	H	0.779420	0.388401	0.485297
H65	H	0.885612	0.384725	0.319778
H66	H	0.887053	0.471543	0.407045
C67	C	1.178661	-0.116397	0.742441
C68	C	1.193659	-0.004717	0.767813
H69	H	1.220006	-0.168679	0.778073
H70	H	1.118440	-0.128840	0.759665
H71	H	1.187381	-0.127413	0.672377
H72	H	1.184932	0.006302	0.837876
H73	H	1.253894	0.007731	0.750595
C74	C	0.376395	-0.127807	-0.085686
C75	C	0.347460	-0.065757	0.000082
H76	H	0.351442	-0.198731	-0.085674
H77	H	0.356767	-0.085699	-0.143858
H78	H	0.440602	-0.141087	-0.085681
H79	H	0.283253	-0.052469	0.000074
H80	H	0.367083	-0.107873	0.058269
C81	C	0.889812	0.379497	0.713578
C82	C	0.876927	0.395761	0.610310
H83	H	0.848478	0.431786	0.749218
H84	H	0.879651	0.303736	0.730794
H85	H	0.950045	0.391959	0.730758
H86	H	0.816695	0.383290	0.593128
H87	H	0.887081	0.471540	0.593086
H88	H	0.622224	0.449998	0.000026
C89	C	1.239575	-0.193433	0.584899
C90	C	1.254570	-0.081755	0.610280
H91	H	1.280914	-0.245718	0.620537
H92	H	1.179352	-0.205876	0.602111
H93	H	1.248306	-0.204447	0.514837
H94	H	1.245833	-0.070738	0.680341
H95	H	1.314808	-0.069307	0.593074
H96	H	0.773540	0.349982	0.000032
C97	C	0.451834	0.538185	0.085791
C98	C	0.435299	0.475037	0.000033
H99	H	0.412980	0.607581	0.085780
H100	H	0.440623	0.495345	0.143970
H101	H	0.513112	0.554471	0.085772
H102	H	0.374023	0.458743	0.000056
H103	H	0.446503	0.517886	-0.058161
H104	H	0.509244	-0.135972	0.000108
H105	H	0.955225	0.296762	0.752878
C106	C	0.952804	0.430408	0.257679
C107	C	0.937817	0.318727	0.232302
H108	H	0.911458	0.482688	0.222045
H109	H	0.944086	0.441420	0.327734
H110	H	1.013031	0.442861	0.240452
H111	H	0.877592	0.306271	0.249536
H112	H	0.946528	0.307710	0.162231
H113	H	1.237214	-0.059805	0.404780
C114	C	1.247106	-0.072326	0.300542
C115	C	1.193618	-0.004712	0.232278
H116	H	1.288445	-0.124608	0.264902
H117	H	1.279763	-0.025002	0.341488
H118	H	1.209380	-0.113239	0.341520
H119	H	1.231344	0.036207	0.191304
H120	H	1.160958	-0.052043	0.191314
