data_functionalizedCrystal
_audit_creation_method	'MofGen! by Chris Wilmer'
_symmetry_space_group_name_H-M	'P1'
_symmetry_Int_Tables_number	1
_symmetry_cell_setting	triclinic
loop_
_symmetry_equiv_pos_as_xyz
  x,y,z
_cell_length_a	15.944493
_cell_length_b	11.792254
_cell_length_c	10.868271
_cell_angle_alpha	89.999303
_cell_angle_beta	89.996248
_cell_angle_gamma	83.836821
loop_
_atom_site_label
_atom_site_type_symbol
_atom_site_fract_x
_atom_site_fract_y
_atom_site_fract_z
O1	O	1.115218	0.146066	-0.102294
O2	O	1.615218	0.646066	0.397706
O3	O	0.870744	0.164182	-0.102298
O4	O	1.370744	0.664182	0.397702
O5	O	0.998908	-0.010096	-0.102302
O6	O	1.498908	0.489904	0.397698
O7	O	0.987054	0.320344	-0.102290
O8	O	1.487054	0.820344	0.397710
O9	O	0.998898	-0.010103	0.102343
O10	O	1.498898	0.489897	0.602343
O11	O	0.870734	0.164175	0.102346
O12	O	1.370734	0.664175	0.602346
O13	O	1.115208	0.146059	0.102351
O14	O	1.615208	0.646059	0.602351
Zn15	Zn	0.992969	0.155116	0.134840
Zn16	Zn	1.492969	0.655116	0.634840
Zn17	Zn	0.992983	0.155125	-0.134788
Zn18	Zn	1.492983	0.655125	0.365212
O19	O	0.987044	0.320337	0.102354
O20	O	1.487044	0.820337	0.602354
C21	C	0.839441	0.163438	0.000023
C22	C	1.339441	0.663438	0.500023
C23	C	0.746182	0.161218	0.000021
C24	C	1.246182	0.661218	0.500021
C25	C	0.510889	0.263802	0.000024
C26	C	1.010889	0.763802	0.500024
C27	C	0.460074	0.208479	0.100928
C28	C	0.960074	0.708479	0.600928
C29	C	0.575442	0.157105	0.000023
C30	C	1.075442	0.657105	0.500023
C31	C	0.460088	0.208461	-0.100836
C32	C	0.960088	0.708461	0.399164
C33	C	0.410515	0.153140	0.000020
C34	C	0.910515	0.653140	0.500020
C35	C	0.525856	0.101811	0.101010
C36	C	1.025856	0.601811	0.601010
C37	C	0.525874	0.101808	-0.100844
C38	C	1.025874	0.601808	0.399156
C39	C	0.475091	0.046407	0.000085
C40	C	0.975091	0.546407	0.500085
C41	C	0.670453	0.159392	0.000026
C42	C	1.170453	0.659392	0.500026
C43	C	0.315507	0.150844	0.000026
C44	C	0.815507	0.650844	0.500026
C45	C	0.998156	-0.052384	0.000017
C46	C	1.498156	0.447616	0.500017
C47	C	0.995921	-0.178378	0.000004
C48	C	1.495921	0.321622	0.500004
C49	C	1.146511	0.146803	0.000027
C50	C	1.646511	0.646803	0.500027
C51	C	1.239770	0.149023	0.000021
C52	C	1.739770	0.649023	0.500021
N53	N	0.992966	0.155109	0.318855
N54	N	1.492966	0.655109	0.818855
C55	C	0.987796	0.362625	0.000033
C56	C	1.487796	0.862625	0.500033
C57	C	0.990031	0.488619	0.000037
C58	C	1.490031	0.988619	0.500037
C59	C	0.991847	0.590940	0.000031
C60	C	1.491847	1.090940	0.500031
C61	C	0.994118	0.719307	0.000016
C62	C	1.494118	1.219307	0.500016
N63	N	0.992993	0.155123	-0.318802
N64	N	1.492993	0.655123	0.181198
C65	C	0.992979	0.155123	0.569861
C66	C	1.492979	0.655123	1.069861
C67	C	0.992969	0.155118	0.430183
C68	C	1.492969	0.655118	0.930183
H69	H	0.431336	0.253536	0.186236
H70	H	0.931336	0.753536	0.686236
H71	H	0.431359	0.253545	-0.186130
H72	H	0.931359	0.753545	0.313870
H73	H	0.526930	0.355710	0.000121
H74	H	1.026930	0.855710	0.500121
H75	H	0.554474	0.056775	0.186402
H76	H	1.054474	0.556775	0.686402
H77	H	0.459208	-0.045571	0.000140
H78	H	0.959208	0.454429	0.500140
Cl79	Cl	0.570271	0.032308	-0.232561
Cl80	Cl	1.070271	0.532308	0.267439
