data_functionalizedCrystal
_audit_creation_method	'MofGen! by Chris Wilmer'
_symmetry_space_group_name_H-M	'P1'
_symmetry_Int_Tables_number	1
_symmetry_cell_setting	triclinic
loop_
_symmetry_equiv_pos_as_xyz
  x,y,z
_cell_length_a	20.919309
_cell_length_b	14.560438
_cell_length_c	14.560438
_cell_angle_alpha	90.000844
_cell_angle_beta	62.592479
_cell_angle_gamma	57.443049
loop_
_atom_site_label
_atom_site_type_symbol
_atom_site_fract_x
_atom_site_fract_y
_atom_site_fract_z
Zr1	Zr	0.700773	-0.159702	0.923937
O2	O	0.834332	-0.313813	0.784759
O3	O	0.567212	-0.107282	0.961424
O4	O	0.700772	-0.306349	0.968891
O5	O	0.700774	0.036392	0.777292
O6	O	0.700774	-0.306350	1.120030
O7	O	0.700772	-0.114746	0.777291
O8	O	0.461859	0.049744	1.106672
O9	O	0.939689	-0.319702	0.790650
O10	O	0.622150	-0.091181	1.096462
O11	O	0.622150	0.021613	0.983669
O12	O	0.779400	-0.212763	0.992461
O13	O	0.779400	-0.099969	0.879669
Zr14	Zr	0.700779	0.081344	1.164987
Zr15	Zr	0.700776	-0.159704	1.164986
Zr16	Zr	0.700776	0.081346	0.923939
Zr17	Zr	0.868805	-0.169095	0.933333
Zr18	Zr	0.532748	0.090736	1.155591
O19	O	0.834340	0.028923	1.127500
O20	O	0.834336	-0.313816	1.127498
O21	O	0.834336	0.028926	0.784761
O22	O	0.567220	0.235454	1.304166
O23	O	0.567216	-0.107285	1.304164
O24	O	0.567216	0.235457	0.961426
O25	O	0.700778	-0.114751	1.311632
O26	O	0.700780	0.227990	1.120033
O27	O	0.700778	0.227991	0.968895
O28	O	0.700780	0.036388	1.311633
O29	O	0.939691	-0.319704	0.982251
O30	O	0.461861	0.241345	1.106673
O31	O	0.461864	0.241344	1.298274
O32	O	0.461861	0.049743	1.298273
O33	O	0.939691	-0.128101	0.790651
O34	O	0.939693	-0.128103	0.982252
O35	O	0.622153	0.134404	1.096463
O36	O	0.622153	0.021611	1.209255
O37	O	0.779402	-0.099971	1.105255
O38	O	0.779402	0.012822	0.992463
C39	C	0.490595	-0.027431	1.032709
C40	C	0.419261	-0.023443	1.028721
C41	C	0.700773	-0.039177	0.742948
C42	C	0.700771	-0.039176	0.640616
C43	C	0.700780	0.262335	1.044464
C44	C	0.700781	0.364666	1.044465
C45	C	0.385748	-0.080447	1.085720
C46	C	0.318718	-0.076690	1.081975
C47	C	0.285206	-0.015934	1.021223
C48	C	0.318722	0.041077	0.964222
C49	C	0.385746	0.037325	0.967974
C50	C	0.082831	-0.001656	1.006955
C51	C	0.015804	0.002088	1.003204
C52	C	0.015804	-0.115677	1.120959
C53	C	0.082833	-0.119428	1.124700
C54	C	0.116340	-0.062412	1.067704
C55	C	0.216692	-0.012095	1.017391
C56	C	0.184848	-0.066245	1.071543
C57	C	0.910958	-0.050928	1.056215
C58	C	0.982291	-0.054915	1.060204
C59	C	0.700773	-0.340694	1.044460
C60	C	0.700771	-0.443025	1.044460
C61	C	0.782862	0.349280	0.990179
C62	C	0.782858	0.445435	0.990173
C63	C	0.618684	0.572360	1.098747
C64	C	0.618689	0.476205	1.098746
C65	C	0.618690	0.024284	0.646825
C66	C	0.618694	0.024285	0.550670
C67	C	0.782869	-0.102645	0.442102
C68	C	0.782863	-0.102638	0.538255
C69	C	0.700780	-0.039182	1.345977
C70	C	0.700781	-0.039183	1.448308
C71	C	0.490598	-0.027433	1.334224
C72	C	0.419266	-0.023446	1.432567
C73	C	0.490598	0.274084	1.032711
C74	C	0.419266	0.380402	1.028723
C75	C	0.490602	0.274081	1.334226
C76	C	0.419271	0.380399	1.432569
C77	C	0.910951	-0.352440	0.754699
C78	C	0.982282	-0.458758	0.656355
C79	C	0.910954	-0.050926	0.754700
C80	C	0.982287	-0.054912	0.656358
C81	C	0.910954	-0.352442	1.056213
C82	C	0.982287	-0.458761	1.060201
C83	C	0.385766	-0.080461	1.419872
C84	C	0.318751	-0.076738	1.512267
C85	C	0.285232	-0.015993	1.617354
C86	C	0.318739	0.041022	1.630047
C87	C	0.385757	0.037292	1.537654
C88	C	0.385769	0.489217	1.085727
C89	C	0.318754	0.589123	1.081976
C90	C	0.285232	0.580212	1.021227
C91	C	0.318736	0.471386	0.964216
C92	C	0.385754	0.371482	0.967961
C93	C	0.385773	0.371450	1.537638
C94	C	0.318759	0.471337	1.630052
C95	C	0.285239	0.580172	1.617393
C96	C	0.318744	0.589119	1.512313
C97	C	0.385761	0.489233	1.419902
C98	C	1.015788	-0.449809	0.551286
C99	C	1.082823	-0.549697	0.458874
C100	C	1.116346	-0.658533	0.471533
C101	C	1.082837	-0.667479	0.576613
C102	C	1.015808	-0.567592	0.669023
C103	C	1.015793	0.002091	0.669053
C104	C	1.082827	-0.001659	0.576659
C105	C	1.116348	-0.062407	0.471572
C106	C	1.082838	-0.119418	0.458879
C107	C	1.015811	-0.115673	0.551272
C108	C	1.015787	-0.449813	1.120961
C109	C	1.082802	-0.549701	1.124730
C110	C	1.116321	-0.658536	1.067732
C111	C	1.082814	-0.667481	1.006970
C112	C	1.015795	-0.567594	1.003208
H113	H	0.413033	-0.129926	1.135185
Cl114	Cl	0.973662	-0.313004	1.192628
H115	H	0.988497	-0.361198	0.540958
H116	H	0.413033	0.083741	0.921556
Cl117	Cl	1.200578	-0.784099	1.072468
H118	H	0.849705	-0.154315	0.358750
Cl119	Cl	0.973688	-0.578862	0.801106
H120	H	0.291486	0.464032	1.715605
Cl121	Cl	0.515501	0.104072	0.558483
Cl122	Cl	1.124916	-0.538429	1.201114
Cl123	Cl	0.515492	0.495550	1.166989
Cl124	Cl	-0.026322	0.078469	0.926822
H125	H	0.988531	-0.162090	0.540920
H126	H	0.849707	0.258463	0.945977
H127	H	0.849697	0.432897	0.945966
Cl128	Cl	1.124971	-0.804312	0.935309
H129	H	0.413054	0.282840	1.547966
Cl130	Cl	0.427859	0.500504	1.287818
H131	H	1.110094	-0.542390	0.373322
H132	H	0.413056	-0.129939	1.334313
H133	H	0.413024	0.083727	1.548005
H134	H	0.212131	-0.115707	1.121012
H135	H	-0.011484	-0.162095	1.167364
Cl136	Cl	0.276645	0.725918	1.153658
Cl137	Cl	0.973698	-0.578863	0.926805
H138	H	0.849708	-0.154313	0.533192
H139	H	0.291478	-0.123167	1.501911
H140	H	0.291432	-0.123106	1.128389
H141	H	0.110118	-0.168900	1.174169
H142	H	0.230669	0.661497	1.692649
H143	H	1.170925	-0.739858	0.396277
H144	H	0.291433	0.464148	0.914754
H145	H	0.551847	0.663184	1.142943
H146	H	0.551846	0.075971	0.730168
H147	H	1.110140	-0.756105	0.586907
Cl148	Cl	0.200977	-0.011312	1.733496
Cl149	Cl	0.276587	0.117388	1.762165
H150	H	0.413054	0.496494	1.135196
H151	H	0.291442	0.677746	1.502022
H152	H	0.189400	0.037372	0.967927
Cl153	Cl	0.124941	0.070027	0.935306
Cl154	Cl	0.200978	0.705819	1.016532
H155	H	0.413019	0.282885	0.921544
Cl156	Cl	0.973671	0.078462	0.801152
H157	H	1.110099	0.044771	0.587015
H158	H	1.170926	-0.065446	0.396349
Cl159	Cl	1.124985	-0.195776	0.326760
H160	H	0.291427	0.090552	0.914763
