data_functionalizedCrystal
_audit_creation_method	'MofGen! by Chris Wilmer'
_symmetry_space_group_name_H-M	'P1'
_symmetry_Int_Tables_number	1
_symmetry_cell_setting	triclinic
loop_
_symmetry_equiv_pos_as_xyz
  x,y,z
_cell_length_a	19.077236
_cell_length_b	21.295417
_cell_length_c	19.076919
_cell_angle_alpha	87.733380
_cell_angle_beta	90.112677
_cell_angle_gamma	92.323097
loop_
_atom_site_label
_atom_site_type_symbol
_atom_site_fract_x
_atom_site_fract_y
_atom_site_fract_z
Zn1	Zn	1.058265	-0.228507	0.440520
Zn2	Zn	1.062894	-0.329387	0.323003
Zn3	Zn	0.945481	-0.228177	0.318300
Zn4	Zn	0.940712	-0.337786	0.435741
O5	O	1.001838	-0.280964	0.379391
O6	O	1.157213	-0.238513	0.428899
O7	O	1.051251	-0.312309	0.224049
O8	O	0.960501	-0.140130	0.334544
O9	O	1.160614	-0.312629	0.342561
O10	O	1.043363	-0.140373	0.424339
O11	O	0.964989	-0.237950	0.220593
O12	O	0.846514	-0.246093	0.329910
O13	O	0.952373	-0.326942	0.534705
O14	O	0.843011	-0.326622	0.416193
O15	O	1.038739	-0.246656	0.538216
O16	O	1.046627	-0.418592	0.337926
O17	O	0.956861	-0.424762	0.420754
C18	C	0.819265	-0.287234	0.372023
C19	C	0.741159	-0.289932	0.368888
C20	C	0.702692	-0.252677	0.412435
C21	C	0.629304	-0.255209	0.409483
C22	C	0.594383	-0.294999	0.362987
C23	C	0.632856	-0.332255	0.319435
C24	C	0.706243	-0.329719	0.322383
C25	C	0.375089	-0.306709	0.349336
C26	C	0.301696	-0.309243	0.346392
C27	C	0.298149	-0.232196	0.436441
C28	C	0.371538	-0.229667	0.439388
C29	C	0.410004	-0.266921	0.395833
N30	N	0.519368	-0.297589	0.359970
N31	N	0.485018	-0.264327	0.398847
C32	C	1.001747	-0.444518	0.379348
C33	C	1.001772	-0.514485	0.379356
C34	C	1.048551	-0.544118	0.336275
C35	C	1.048584	-0.609860	0.336292
C36	C	1.001824	-0.645967	0.379382
C37	C	0.955041	-0.616326	0.422472
C38	C	0.955015	-0.550585	0.422459
N39	N	0.940137	-0.751548	0.382259
N40	N	0.940164	-0.813998	0.382267
C41	C	1.001901	-0.844040	0.379426
N42	N	1.063613	-0.809271	0.376562
N43	N	1.063585	-0.746815	0.376550
C44	C	1.001848	-0.717252	0.379402
C45	C	1.048720	-0.944958	0.336362
C46	C	1.048753	-1.010701	0.336384
C47	C	0.955205	-1.017166	0.422559
C48	C	0.955178	-0.951424	0.422541
C49	C	1.001934	-0.915324	0.379438
C50	C	1.185123	-0.274671	0.386788
C51	C	1.263229	-0.271989	0.389940
C52	C	0.994508	-0.287773	0.562669
C53	C	0.991384	-0.290674	0.640772
C54	C	1.001947	-0.116772	0.379450
C55	C	1.001994	-0.046803	0.379475
C56	C	1.009180	-0.274135	0.196827
C57	C	1.012440	-0.271052	0.118730
C58	C	1.034880	-0.250238	0.679294
C59	C	1.031936	-0.252962	0.752679
C60	C	0.985500	-0.296126	0.787541
C61	C	0.941999	-0.336563	0.749014
C62	C	0.944939	-0.333836	0.675630
C63	C	0.971880	-0.308762	1.006819
C64	C	0.968944	-0.311488	1.080209
C65	C	1.058881	-0.227886	1.083868
C66	C	1.061821	-0.225165	1.010483
C67	C	1.018317	-0.265600	0.971962
N68	N	0.982491	-0.298912	0.862553
N69	N	1.021323	-0.262810	0.896952
H70	H	0.266822	-0.201866	0.471900
H71	H	0.737562	-0.360055	0.286922
H72	H	0.917135	-1.046563	0.457647
H73	H	1.086625	-0.514728	0.301181
O74	O	0.267884	-0.347912	0.301161
C75	C	0.279141	-0.424093	0.212187
C76	C	0.317522	-0.380319	0.263360
H77	H	0.319255	-0.450316	0.181622
H78	H	0.246272	-0.394994	0.174082
H79	H	0.243471	-0.459411	0.243014
H80	H	0.353227	-0.344994	0.232591
H81	H	0.350347	-0.409459	0.301465
H82	H	0.406399	-0.337044	0.313871
H83	H	0.597987	-0.224873	0.444946
O84	O	0.929554	-0.347950	0.969365
C85	C	0.838028	-0.356584	0.882639
C86	C	0.885909	-0.312133	0.925030
H87	H	0.802738	-0.327644	0.846773
H88	H	0.804281	-0.387896	0.920121
H89	H	0.871658	-0.387125	0.849602
H90	H	0.852333	-0.281552	0.958070
H91	H	0.919659	-0.280864	0.887510
O92	O	0.598825	-0.370892	0.274328
C93	C	0.487343	-0.408919	0.229849
C94	C	0.525791	-0.365143	0.280974
H95	H	0.428289	-0.404277	0.235194
H96	H	0.501213	-0.459667	0.242661
H97	H	0.504073	-0.395189	0.173801
H98	H	0.509082	-0.378817	0.337040
H99	H	0.511921	-0.314406	0.268102
H100	H	1.086680	-0.633993	0.301211
H101	H	0.904186	-0.371706	0.777404
H102	H	0.399965	-0.197268	0.477253
O103	O	1.094044	-0.909858	0.294422
C104	C	1.107337	-0.831787	0.199957
C105	C	1.055930	-0.871509	0.247395
H106	H	1.076543	-0.800762	0.161934
H107	H	1.140774	-0.864231	0.169120
H108	H	1.142759	-0.800927	0.233740
H109	H	1.020463	-0.902373	0.213665
H110	H	1.022542	-0.839029	0.278237
O111	O	0.909715	-0.651464	0.464367
C112	C	0.896422	-0.729481	0.558885
C113	C	0.947830	-0.689738	0.511471
H114	H	0.927218	-0.760426	0.596990
H115	H	0.861017	-0.760408	0.525158
H116	H	0.862967	-0.696994	0.589643
H117	H	0.981332	-0.722178	0.480704
H118	H	0.983187	-0.658804	0.545236
H119	H	0.917082	-0.927295	0.457618
O120	O	0.909502	-0.521897	0.464327
C121	C	0.816752	-0.535246	0.549836
C122	C	0.868248	-0.567817	0.502444
H123	H	0.783394	-0.572358	0.580677
H124	H	0.781264	-0.504596	0.516088
H125	H	0.847515	-0.504662	0.587866
H126	H	0.837542	-0.598432	0.464406
H127	H	0.903736	-0.598428	0.536235
O128	O	0.923769	-0.353437	1.113963
C129	C	0.834901	-0.436095	1.102595
C130	C	0.886011	-0.388610	1.064278
H131	H	0.804371	-0.464554	1.062442
H132	H	0.796760	-0.409762	1.135460
H133	H	0.865778	-0.469154	1.138260
H134	H	0.855193	-0.355539	1.028577
H135	H	0.924153	-0.414984	1.031458
O136	O	1.094223	-1.039389	0.294468
C137	C	1.187025	-1.026036	0.209015
C138	C	1.135557	-0.993467	0.256439
H139	H	1.220467	-0.988924	0.178267
H140	H	1.156310	-1.056582	0.170911
H141	H	1.222437	-1.056724	0.242803
H142	H	1.100133	-0.962748	0.222708
H143	H	1.166316	-0.962960	0.294547
H144	H	1.072696	-0.215092	0.650914
O145	O	1.074262	-0.213659	0.789993
C146	C	1.163754	-0.130429	0.785878
C147	C	1.115869	-0.174916	0.743535
H148	H	1.197395	-0.099085	0.748334
H149	H	1.199146	-0.159315	0.821693
H150	H	1.130128	-0.099922	0.818960
H151	H	1.149439	-0.205432	0.710413
H152	H	1.080473	-0.145992	0.707764
H153	H	1.099636	-0.190018	0.982103
O154	O	1.101062	-0.188632	1.121394
C155	C	1.136421	-0.155801	1.236069
C156	C	1.088601	-0.200287	1.193658
H157	H	1.126373	-0.165218	1.294502
H158	H	1.124687	-0.104918	1.221211
H159	H	1.193648	-0.164364	1.223884
H160	H	1.031358	-0.191781	1.205820
H161	H	1.100395	-0.251155	1.208522
O162	O	0.902615	-0.373031	0.638177
C163	C	0.811081	-0.381686	0.551461
C164	C	0.858963	-0.337225	0.593839
H165	H	0.775787	-0.352754	0.515593
H166	H	0.777340	-0.412993	0.588953
H167	H	0.844710	-0.412231	0.518429
H168	H	0.825389	-0.306639	0.626874
H169	H	0.892708	-0.305960	0.556309
O170	O	0.736501	-0.213972	0.457623
C171	C	0.725228	-0.137848	0.546657
C172	C	0.686854	-0.181645	0.495503
H173	H	0.685105	-0.111710	0.577307
H174	H	0.760863	-0.102464	0.515881
H175	H	0.758132	-0.166985	0.584690
H176	H	0.653913	-0.152559	0.457458
H177	H	0.651262	-0.217031	0.526324
