data_functionalizedCrystal
_audit_creation_method	'MofGen! by Chris Wilmer'
_symmetry_space_group_name_H-M	'P1'
_symmetry_Int_Tables_number	1
_symmetry_cell_setting	triclinic
loop_
_symmetry_equiv_pos_as_xyz
  x,y,z
_cell_length_a	10.723024
_cell_length_b	10.654550
_cell_length_c	9.730223
_cell_angle_alpha	90.003749
_cell_angle_beta	89.999810
_cell_angle_gamma	95.523614
loop_
_atom_site_label
_atom_site_type_symbol
_atom_site_fract_x
_atom_site_fract_y
_atom_site_fract_z
O1	O	0.175269	-1.667808	-0.114399
O2	O	0.191968	-1.302327	-0.114377
O3	O	0.002044	-1.493497	-0.114383
O4	O	0.365194	-1.476637	-0.114393
O5	O	0.002049	-1.493495	0.114197
O6	O	0.191973	-1.302324	0.114203
O7	O	0.175274	-1.667805	0.114181
Zn8	Zn	0.183624	-1.485065	0.150484
Zn9	Zn	0.183618	-1.485067	-0.150680
O10	O	0.365199	-1.476635	0.114187
C11	C	0.190745	-1.255528	-0.000084
C12	C	0.187076	-1.116085	-0.000075
C13	C	-0.044454	-1.492269	-0.000095
C14	C	-0.183008	-1.488598	-0.000100
N15	N	0.183628	-1.485072	0.356020
C16	C	-0.257975	-1.595568	-0.000108
C17	C	-0.401179	-1.591776	-0.000113
C18	C	0.411696	-1.477863	-0.000104
C19	C	0.550251	-1.481534	-0.000108
C20	C	0.176498	-1.714604	-0.000115
C21	C	0.180166	-1.854047	-0.000133
C22	C	0.298901	-1.036583	-0.000098
C23	C	0.295446	-0.905562	-0.000122
C24	C	0.068333	-0.933560	-0.000106
C25	C	0.071789	-1.064578	-0.000072
C26	C	0.430023	-1.020417	-0.000114
C27	C	0.426568	-0.889397	-0.000137
N28	N	0.183605	-1.485070	-0.356216
C29	C	0.099558	-1.569744	0.427943
C30	C	0.099543	-1.569741	0.571826
C31	C	0.267678	-1.400389	0.571850
C32	C	0.267687	-1.400387	0.427970
C33	C	0.002490	-1.667522	0.427931
C34	C	0.002475	-1.667519	0.571814
H35	H	-0.216139	-1.689955	-0.000105
H36	H	-0.224844	-1.394211	-0.000103
H37	H	-0.093427	-1.646094	0.388881
C38	C	0.493137	-0.833022	-0.129475
H39	H	0.522863	-0.898746	-0.182647
H40	H	0.561755	-0.774966	-0.103074
H41	H	0.435796	-0.790598	-0.182539
H42	H	-0.385338	-1.389955	-0.000092
H43	H	0.471772	-1.056067	-0.098802
C44	C	-0.051217	-1.152026	-0.000032
H45	H	-0.120369	-1.102582	-0.000046
H46	H	-0.054580	-1.203696	0.079693
H47	H	-0.054601	-1.203740	-0.079739
C48	C	-0.058472	-0.876896	-0.000116
H49	H	-0.044517	-0.787480	-0.000147
H50	H	-0.104565	-0.904100	0.079599
H51	H	-0.104561	-0.904140	-0.079833
H52	H	0.336132	-1.331429	0.369412
H53	H	0.336116	-1.331440	0.630447
H54	H	0.481306	-1.049740	0.095551
C55	C	0.043535	-1.790696	0.367625
H56	H	0.061801	-1.845552	0.440333
H57	H	0.116201	-1.772174	0.312677
H58	H	-0.022095	-1.830367	0.312674
C59	C	0.480102	-0.827679	0.133166
H60	H	0.506340	-0.890857	0.192543
H61	H	0.417321	-0.785207	0.177460
H62	H	0.549692	-0.768909	0.111728
H63	H	-0.088167	-1.637019	0.616433
C64	C	0.031362	-1.797884	0.624570
H65	H	0.043265	-1.851496	0.548628
H66	H	-0.036682	-1.833633	0.678797
H67	H	0.105346	-1.788943	0.678816
C68	C	-0.488189	-1.715493	-0.000121
H69	H	-0.439139	-1.785149	-0.000114
H70	H	-0.539550	-1.718836	-0.079831
H71	H	-0.539547	-1.718831	0.079601
