data_functionalizedCrystal
_audit_creation_method	'MofGen! by Chris Wilmer'
_symmetry_space_group_name_H-M	'P1'
_symmetry_Int_Tables_number	1
_symmetry_cell_setting	triclinic
loop_
_symmetry_equiv_pos_as_xyz
  x,y,z
_cell_length_a	12.811438
_cell_length_b	10.654550
_cell_length_c	9.130313
_cell_angle_alpha	90.004369
_cell_angle_beta	95.429152
_cell_angle_gamma	95.735527
loop_
_atom_site_label
_atom_site_type_symbol
_atom_site_fract_x
_atom_site_fract_y
_atom_site_fract_z
O1	O	1.393891	-0.169178	0.063375
O2	O	1.893891	0.330822	0.563375
O3	O	1.088444	-0.187566	0.022795
O4	O	1.588444	0.312434	0.522795
O5	O	1.248190	0.004403	0.044027
O6	O	1.748190	0.504403	0.544027
O7	O	1.234144	-0.361148	0.042143
O8	O	1.734144	0.138852	0.542143
O9	O	1.248179	0.004409	0.287624
O10	O	1.748179	0.504409	0.787624
O11	O	1.088433	-0.187561	0.266392
O12	O	1.588433	0.312439	0.766392
O13	O	1.393880	-0.169172	0.306973
O14	O	1.893880	0.330828	0.806973
Cu15	Cu	1.241155	-0.178366	0.308925
Cu16	Cu	1.741155	0.321634	0.808925
Cu17	Cu	1.241168	-0.178373	0.020842
Cu18	Cu	1.741168	0.321627	0.520842
O19	O	1.234133	-0.361142	0.285740
O20	O	1.734133	0.138858	0.785740
C21	C	1.049327	-0.186532	0.139397
C22	C	1.549327	0.313468	0.639397
C23	C	0.932788	-0.183444	0.123914
C24	C	1.432788	0.316556	0.623914
C25	C	0.768534	-0.179094	-0.030676
C26	C	1.268534	0.320906	0.469324
C27	C	0.878033	-0.181995	-0.016141
C28	C	1.378033	0.318005	0.483859
C29	C	0.878036	-0.181988	0.249444
C30	C	1.378036	0.318012	0.749444
C31	C	0.768537	-0.179087	0.234909
C32	C	1.268537	0.320913	0.734909
C33	C	0.713790	-0.177642	0.094844
C34	C	1.213790	0.322358	0.594844
C35	C	0.604288	-0.174750	0.080310
C36	C	1.104288	0.325250	0.580310
C37	C	0.604293	-0.174735	0.345894
C38	C	1.104293	0.325265	0.845894
C39	C	0.713792	-0.177636	0.360429
C40	C	1.213792	0.322364	0.860429
C41	C	1.247153	0.051199	0.165688
C42	C	1.747153	0.551199	0.665688
C43	C	1.244068	0.190626	0.165276
C44	C	1.744068	0.690626	0.665276
C45	C	1.432997	-0.170207	0.190367
C46	C	1.932997	0.329793	0.690367
C47	C	1.549536	-0.173295	0.205840
C48	C	2.049536	0.326705	0.705840
C49	C	1.235170	-0.407938	0.164076
C50	C	1.735170	0.092062	0.664076
C51	C	1.238256	-0.547365	0.164478
C52	C	1.738256	-0.047365	0.664478
N53	N	1.241154	-0.178361	0.511547
N54	N	1.741154	0.321639	1.011547
C55	C	1.338124	0.270599	0.177771
C56	C	1.838124	0.770599	0.677771
C57	C	1.335218	0.401605	0.177367
C58	C	1.835218	0.901605	0.677367
C59	C	1.144192	0.372652	0.151978
C60	C	1.644192	0.872652	0.651978
C61	C	1.147099	0.241649	0.152371
C62	C	1.647099	0.741649	0.652371
N63	N	1.241178	-0.178368	-0.181779
N64	N	1.741178	0.321632	0.318221
C65	C	1.311914	-0.093392	0.597604
C66	C	1.811914	0.406608	1.097604
C67	C	1.311924	-0.093392	0.750942
C68	C	1.811924	0.406608	1.250942
C69	C	1.170411	-0.263341	0.732153
C70	C	1.670411	0.236659	1.232153
C71	C	1.170396	-0.263333	0.578817
C72	C	1.670396	0.236667	1.078817
H73	H	0.723956	-0.177931	-0.144723
H74	H	1.223956	0.322069	0.355277
H75	H	1.369541	-0.024202	0.821006
H76	H	1.869541	0.475798	1.321006
H77	H	1.411809	0.466714	0.187539
H78	H	1.911809	0.966714	0.687539
H79	H	1.065243	0.414211	0.141474
H80	H	1.565243	0.914211	0.641474
Br81	Br	1.019442	0.133104	0.135392
Br82	Br	1.519442	0.633104	0.635392
H83	H	1.112770	-0.332525	0.508743
H84	H	1.612770	0.167475	1.008743
H85	H	1.369527	-0.024201	0.542837
H86	H	1.869527	0.475799	1.042837
H87	H	1.112803	-0.332525	0.786939
H88	H	1.612803	0.167475	1.286939
H89	H	1.417082	0.229061	0.188276
H90	H	1.917082	0.729061	0.688276
Br91	Br	0.529987	-0.172798	-0.109774
Br92	Br	1.029987	0.327202	0.390226
H93	H	0.758383	-0.178808	0.474466
H94	H	1.258383	0.321192	0.974466
Br95	Br	0.952328	-0.183956	-0.186497
Br96	Br	1.452328	0.316044	0.313503
H97	H	0.922632	-0.183150	0.363478
H98	H	1.422632	0.316850	0.863478
H99	H	0.559708	-0.173559	0.448102
H100	H	1.059708	0.326441	0.948102
