data_functionalizedCrystal
_audit_creation_method	'MofGen! by Chris Wilmer'
_symmetry_space_group_name_H-M	'P1'
_symmetry_Int_Tables_number	1
_symmetry_cell_setting	triclinic
loop_
_symmetry_equiv_pos_as_xyz
  x,y,z
_cell_length_a	12.759400
_cell_length_b	19.077236
_cell_length_c	19.076919
_cell_angle_alpha	89.887323
_cell_angle_beta	92.274856
_cell_angle_gamma	92.307594
loop_
_atom_site_label
_atom_site_type_symbol
_atom_site_fract_x
_atom_site_fract_y
_atom_site_fract_z
Zn1	Zn	-0.381376	1.058334	-0.440556
Zn2	Zn	-0.549744	1.062993	-0.323056
Zn3	Zn	-0.380825	0.945550	-0.318336
Zn4	Zn	-0.563761	0.940814	-0.435795
O5	O	-0.468926	1.001923	-0.379436
O6	O	-0.398075	1.157285	-0.428938
O7	O	-0.521240	1.051346	-0.224099
O8	O	-0.233876	0.960543	-0.334567
O9	O	-0.521774	1.160708	-0.342611
O10	O	-0.234281	1.043405	-0.424361
O11	O	-0.397136	0.965061	-0.220631
O12	O	-0.410727	0.846589	-0.329950
O13	O	-0.545663	0.952472	-0.534758
O14	O	-0.545129	0.843109	-0.416246
O15	O	-0.411666	1.038813	-0.538256
O16	O	-0.698625	1.046754	-0.337994
O17	O	-0.708923	0.956989	-0.420822
C18	C	-0.479390	0.819352	-0.372069
C19	C	-0.483893	0.741247	-0.368934
C20	C	-0.421715	0.702769	-0.412476
C21	C	-0.425941	0.629381	-0.409524
C22	C	-0.492350	0.594472	-0.363034
C23	C	-0.554530	0.632956	-0.319488
C24	C	-0.550298	0.706343	-0.322436
C25	C	-0.511895	0.375181	-0.349386
C26	C	-0.516124	0.301789	-0.346442
C27	C	-0.387533	0.298219	-0.436478
C28	C	-0.383312	0.371607	-0.439425
C29	C	-0.445488	0.410085	-0.395876
N30	N	-0.496673	0.519458	-0.360018
N31	N	-0.441158	0.485098	-0.398890
C32	C	-0.741895	1.001882	-0.379420
C33	C	-0.858670	1.001928	-0.379439
C34	C	-0.908136	1.048716	-0.336362
C35	C	-1.017858	1.048758	-0.336385
C36	C	-1.028642	0.955218	-0.422564
C37	C	-0.918921	0.955179	-0.422544
C38	C	-0.847885	1.095464	-0.293256
C39	C	-0.897350	1.142255	-0.250175
C40	C	-1.007073	1.142298	-0.250198
C41	C	-1.067331	1.095548	-0.293303
C42	C	-0.194891	1.001983	-0.379469
C43	C	-0.078114	1.002008	-0.379482
C44	C	-0.480290	0.994595	-0.562716
C45	C	-0.485132	0.991472	-0.640819
C46	C	-0.458423	1.185207	-0.386832
C47	C	-0.453947	1.263311	-0.389984
C48	C	-0.417645	1.034956	-0.679334
C49	C	-0.422191	1.032013	-0.752720
C50	C	-0.494230	0.985589	-0.787589
C51	C	-0.561720	0.942100	-0.749068
C52	C	-0.557168	0.945040	-0.675684
C53	C	-0.515321	0.971973	-1.006869
C54	C	-0.519870	0.969038	-1.080259
C55	C	-0.380339	1.058950	-1.083905
C56	C	-0.375798	1.061889	-1.010519
C57	C	-0.443284	1.018398	-0.972005
N58	N	-0.498881	0.982582	-0.862601
N59	N	-0.438627	1.021402	-0.896994
C60	C	-0.457529	1.009263	-0.196871
C61	C	-0.452383	1.012522	-0.118774
H62	H	-0.600929	0.737671	-0.286980
H63	H	-0.570288	0.936570	-0.975520
Cl64	Cl	-0.299830	0.415487	-0.497877
H65	H	-0.578536	0.931232	-1.108647
H66	H	-0.848283	1.180321	-0.215084
Cl67	Cl	-0.709949	1.095602	-0.293428
H68	H	-0.562524	0.406501	-0.313926
Cl69	Cl	-0.347774	0.581011	-0.464267
Cl70	Cl	-0.856730	0.896360	-0.476701
H71	H	-0.336912	0.266883	-0.471932
Cl72	Cl	-0.599641	0.257905	-0.288009
Cl73	Cl	-0.638010	0.589071	-0.261039
Cl74	Cl	-1.069255	1.201126	-0.196047
H75	H	-0.317138	1.099694	-0.982134
Cl76	Cl	-1.205267	1.095325	-0.293028
Cl77	Cl	-0.295501	1.113619	-1.132327
Cl78	Cl	-1.104395	0.896450	-0.476747
Cl79	Cl	-0.327081	1.093324	-0.635506
H80	H	-0.367238	1.067424	-0.784076
Cl81	Cl	-0.642010	0.890370	-0.627264
Cl82	Cl	-0.338230	0.746646	-0.470927
Cl83	Cl	-0.652281	0.883736	-0.792903
