data_functionalizedCrystal
_audit_creation_method	'MofGen! by Chris Wilmer'
_symmetry_space_group_name_H-M	'P1'
_symmetry_Int_Tables_number	1
_symmetry_cell_setting	triclinic
loop_
_symmetry_equiv_pos_as_xyz
  x,y,z
_cell_length_a	12.759401
_cell_length_b	15.297327
_cell_length_c	12.759393
_cell_angle_alpha	99.641342
_cell_angle_beta	89.982620
_cell_angle_gamma	99.706546
loop_
_atom_site_label
_atom_site_type_symbol
_atom_site_fract_x
_atom_site_fract_y
_atom_site_fract_z
Zn1	Zn	1.533786	-0.359100	-0.666296
Zn2	Zn	1.503239	-0.509988	-0.521002
Zn3	Zn	1.358082	-0.359148	-0.490645
Zn4	Zn	1.327646	-0.509918	-0.696629
O5	O	1.430688	-0.434539	-0.593643
O6	O	1.676753	-0.379125	-0.647032
O7	O	1.483937	-0.490028	-0.369964
O8	O	1.406912	-0.232897	-0.488547
O9	O	1.654310	-0.489982	-0.540285
O10	O	1.536001	-0.232862	-0.617597
O11	O	1.377291	-0.379207	-0.347661
O12	O	1.207026	-0.379139	-0.517960
O13	O	1.355037	-0.489863	-0.839617
O14	O	1.184664	-0.489909	-0.669295
O15	O	1.506488	-0.379057	-0.817331
O16	O	1.454424	-0.636224	-0.569698
O17	O	1.325417	-0.636172	-0.698730
C18	C	1.157724	-0.434522	-0.593625
C19	C	1.040945	-0.434537	-0.593647
C20	C	1.383331	-0.668932	-0.640823
C21	C	1.363168	-0.769206	-0.661041
C22	C	0.974448	-0.492307	-0.672355
C23	C	0.864722	-0.492319	-0.672369
C24	C	0.887999	-0.376787	-0.514957
C25	C	0.997724	-0.376771	-0.514949
C26	C	0.961007	-0.559011	-0.763233
C27	C	0.851281	-0.559023	-0.763247
C28	C	1.575233	-1.051845	-0.449495
C29	C	1.594176	-0.957632	-0.430493
C30	C	1.536426	-0.910521	-0.488128
C31	C	1.459728	-0.957632	-0.564769
C32	C	1.440776	-1.051854	-0.583767
C33	C	1.401970	-0.910530	-0.622401
C34	C	1.325272	-0.957641	-0.699041
C35	C	1.306324	-1.051854	-0.718036
C36	C	1.364075	-1.098965	-0.660401
C37	C	1.420922	-0.816308	-0.603403
C38	C	1.286466	-0.816317	-0.737675
C39	C	1.267522	-0.910530	-0.756677
C40	C	1.704718	-0.434556	-0.593661
C41	C	1.821493	-0.434563	-0.593669
C42	C	1.430775	-0.434447	-0.867658
C43	C	1.430812	-0.434408	-0.984427
C44	C	1.478259	-0.199230	-0.546302
C45	C	1.498531	-0.098956	-0.526128
C46	C	1.375312	-0.376692	-1.027680
C47	C	1.375349	-0.376665	-1.137398
C48	C	1.486395	-0.492072	-1.160602
C49	C	1.486351	-0.492103	-1.050886
C50	C	1.311204	-0.310060	-1.014283
C51	C	1.311242	-0.310034	-1.124002
C52	C	1.430675	-0.434565	-0.320681
C53	C	1.430893	-0.434350	-0.203862
H54	H	1.051864	-0.329723	-0.450863
H55	H	1.205073	-0.948901	-0.819078
N56	N	0.988334	-0.646882	-0.742148
H57	H	1.027295	-0.674724	-0.804552
H58	H	1.035145	-0.635381	-0.675767
N59	N	1.005484	-0.534327	-0.866086
H60	H	1.039207	-0.585178	-0.904995
H61	H	0.946138	-0.523302	-0.911909
H62	H	1.483370	-0.777959	-0.541001
N63	N	0.812949	-0.525969	-0.859057
H64	H	0.758533	-0.574813	-0.901190
H65	H	0.779561	-0.470923	-0.834781
N66	N	1.224171	-0.765511	-0.799838
H67	H	1.274715	-0.726359	-0.840668
H68	H	1.172703	-0.809706	-0.851206
N69	N	1.676906	-0.906824	-0.347849
H70	H	1.642092	-0.867795	-0.291251
H71	H	1.710591	-0.951022	-0.314308
N72	N	1.202174	-0.343161	-1.175754
H73	H	1.206188	-0.341936	-1.254564
H74	H	1.176000	-0.406778	-1.164042
N75	N	1.556861	-0.808906	-0.467650
H76	H	1.489352	-0.786272	-0.443720
H77	H	1.614245	-0.786280	-0.410380
H78	H	1.531526	-0.539113	-1.015678
N79	N	1.358836	-0.217479	-1.144847
H80	H	1.380055	-0.176197	-1.075011
H81	H	1.423645	-0.221561	-1.189673
H82	H	1.622238	-1.090211	-0.402570
N83	N	1.546306	-0.554287	-1.232285
H84	H	1.581460	-0.590853	-1.188233
H85	H	1.495117	-0.596022	-1.286202
H86	H	1.226040	-0.328770	-0.988274
N87	N	1.367577	-0.222165	-0.951525
H88	H	1.331005	-0.171519	-0.965764
H89	H	1.365484	-0.225474	-0.873141
H90	H	1.348657	-1.175681	-0.675870
H91	H	0.807391	-0.628876	-0.755381
N92	N	0.841376	-0.314500	-0.430067
H93	H	0.804292	-0.272741	-0.464433
H94	H	0.788491	-0.351195	-0.388719
N95	N	1.223585	-1.102669	-0.800679
H96	H	1.189874	-1.058532	-0.834308
H97	H	1.258468	-1.141702	-0.857207
