data_functionalizedCrystal
_audit_creation_method	'MofGen! by Chris Wilmer'
_symmetry_space_group_name_H-M	'P1'
_symmetry_Int_Tables_number	1
_symmetry_cell_setting	triclinic
loop_
_symmetry_equiv_pos_as_xyz
  x,y,z
_cell_length_a	10.540510
_cell_length_b	10.540510
_cell_length_c	9.482900
_cell_angle_alpha	99.430215
_cell_angle_beta	80.616527
_cell_angle_gamma	84.513311
loop_
_atom_site_label
_atom_site_type_symbol
_atom_site_fract_x
_atom_site_fract_y
_atom_site_fract_z
O1	O	1.705498	0.159023	-0.120897
O2	O	1.336079	0.175918	-0.120897
O3	O	1.529236	-0.017239	-0.120896
O4	O	1.512341	0.352180	-0.120897
O5	O	1.490003	0.022154	0.120896
O6	O	1.296846	0.215312	0.120896
O7	O	1.666265	0.198416	0.120896
Cu8	Cu	1.477973	0.210461	0.142973
Cu9	Cu	1.524371	0.163874	-0.142974
O10	O	1.473108	0.391574	0.120895
C11	C	1.269159	0.194356	-0.000001
C12	C	1.128209	0.190589	-0.000001
C13	C	0.910830	0.324684	-0.000557
C14	C	1.057335	0.328793	-0.000003
C15	C	1.061053	0.142337	0.138071
C16	C	0.914275	0.139315	0.138178
C17	C	0.959085	0.091639	-0.136785
C18	C	1.105720	0.097899	-0.138601
C19	C	1.508361	-0.044846	-0.000003
C20	C	1.504596	-0.185797	-0.000012
C21	C	1.638692	-0.403177	0.000542
C22	C	1.642799	-0.256672	-0.000010
C23	C	1.456252	-0.253043	-0.138084
C24	C	1.453231	-0.399822	-0.138192
C25	C	1.405737	-0.354832	0.136771
C26	C	1.411997	-0.208196	0.138588
C27	C	1.733186	0.179978	-0.000003
C28	C	1.874137	0.183744	-0.000013
C29	C	1.493983	0.419181	-0.000001
C30	C	1.497750	0.560130	-0.000002
N31	N	1.445349	0.243227	0.344093
N32	N	1.557005	0.131097	-0.344094
C33	C	1.514739	0.173532	0.416293
C34	C	1.487604	0.200804	0.583710
H35	H	1.069646	0.400628	0.099139
H36	H	1.365847	0.323083	0.406223
Cl37	Cl	1.753592	-0.237755	-0.153089
Cl38	Cl	0.826315	0.239929	0.297522
H39	H	1.594232	0.093667	0.354165
Cl40	Cl	1.703434	-0.186467	0.152820
Cl41	Cl	1.127433	0.389357	-0.152813
Cl42	Cl	0.870853	0.382915	-0.153436
Cl43	Cl	1.175544	0.151634	-0.296312
H44	H	1.636503	0.051228	0.593782
H45	H	1.350877	-0.423825	-0.144448
H46	H	1.676468	-0.429005	0.099561
H47	H	1.309745	-0.157760	0.146926
H48	H	0.851341	0.394258	0.097901
Cl49	Cl	1.364852	0.324103	0.679618
H50	H	1.708200	-0.462729	-0.097916
H51	H	1.518326	-0.456858	-0.241403
Cl52	Cl	0.877197	-0.018676	0.147948
Cl53	Cl	0.919624	0.132620	-0.298362
Cl54	Cl	1.132934	-0.013461	0.146000
H55	H	1.156152	-0.004359	-0.146939
Cl56	Cl	1.082933	0.244039	0.296719
H57	H	1.355342	-0.206480	-0.143218
Cl58	Cl	0.925140	-0.068798	-0.138223
H59	H	1.522057	-0.238933	-0.240837
Cl60	Cl	1.446872	-0.394136	0.298348
H61	H	1.446901	-0.162947	0.240733
H62	H	1.301821	-0.376820	0.137701
