data_functionalizedCrystal
_audit_creation_method	'MofGen! by Chris Wilmer'
_symmetry_space_group_name_H-M	'P1'
_symmetry_Int_Tables_number	1
_symmetry_cell_setting	triclinic
loop_
_symmetry_equiv_pos_as_xyz
  x,y,z
_cell_length_a	15.995350
_cell_length_b	14.044220
_cell_length_c	13.101039
_cell_angle_alpha	93.667477
_cell_angle_beta	86.645958
_cell_angle_gamma	88.340626
loop_
_atom_site_label
_atom_site_type_symbol
_atom_site_fract_x
_atom_site_fract_y
_atom_site_fract_z
O1	O	1.124322	0.116953	-0.085130
O2	O	1.457656	0.450287	0.248204
O3	O	1.790989	0.783620	0.581537
O4	O	0.881675	0.132040	-0.085151
O5	O	1.215008	0.465373	0.248182
O6	O	1.548342	0.798706	0.581516
O7	O	0.999356	-0.013487	-0.085130
O8	O	1.332689	0.319846	0.248203
O9	O	1.666023	0.653179	0.581536
O10	O	1.006641	0.262481	-0.085150
O11	O	1.339974	0.595814	0.248183
O12	O	1.673308	0.929147	0.581517
O13	O	0.990914	-0.003029	0.085298
O14	O	1.324247	0.330305	0.418631
O15	O	1.657580	0.663638	0.751965
O16	O	0.873233	0.142498	0.085277
O17	O	1.206566	0.475832	0.418611
O18	O	1.539899	0.809165	0.751944
O19	O	1.115880	0.127412	0.085299
O20	O	1.449213	0.460745	0.418632
O21	O	1.782547	0.794079	0.751966
Zn22	Zn	0.993216	0.136616	0.112347
Zn23	Zn	1.326549	0.469949	0.445681
Zn24	Zn	1.659883	0.803282	0.779014
Zn25	Zn	1.004339	0.122836	-0.112199
Zn26	Zn	1.337672	0.456169	0.221134
Zn27	Zn	1.671006	0.789503	0.554467
O28	O	0.998199	0.272939	0.085278
O29	O	1.331532	0.606273	0.418612
O30	O	1.664866	0.939606	0.751945
C31	C	0.991946	-0.043573	0.000084
C32	C	1.325280	0.289761	0.333417
C33	C	1.658613	0.623094	0.666751
C34	C	0.982435	-0.148798	0.000084
C35	C	1.315769	0.184535	0.333418
C36	C	1.649102	0.517868	0.666751
C37	C	0.846213	0.136645	0.000061
C38	C	1.179546	0.469978	0.333394
C39	C	1.512879	0.803312	0.666727
C40	C	0.753123	0.134775	0.000053
C41	C	1.086456	0.468108	0.333386
C42	C	1.419790	0.801441	0.666719
C43	C	0.965048	-0.341461	0.000068
C44	C	1.298381	-0.008127	0.333401
C45	C	1.631715	0.325206	0.666735
C46	C	1.032504	-0.399094	0.000071
C47	C	1.365837	-0.065760	0.333404
C48	C	1.699170	0.267573	0.666738
C49	C	1.022829	-0.506298	0.000062
C50	C	1.356162	-0.172964	0.333395
C51	C	1.689496	0.160369	0.666729
C52	C	0.974721	-0.234247	0.000077
C53	C	1.308054	0.099087	0.333410
C54	C	1.641388	0.432420	0.666744
C55	C	0.414873	0.128060	0.000075
C56	C	0.748206	0.461394	0.333408
C57	C	1.081539	0.794727	0.666741
C58	C	0.454547	0.024441	0.000462
C59	C	0.787880	0.357775	0.333795
C60	C	1.121213	0.691108	0.667129
C61	C	0.551396	0.026288	0.000071
C62	C	0.884729	0.359621	0.333404
C63	C	1.218063	0.692955	0.666737
C64	C	0.582683	0.131391	0.000064
C65	C	0.916016	0.464724	0.333398
C66	C	1.249349	0.798058	0.666731
C67	C	0.550234	0.176539	-0.097258
C68	C	0.883568	0.509872	0.236075
C69	C	1.216901	0.843205	0.569409
C70	C	0.453408	0.173930	-0.097332
C71	C	0.786741	0.507264	0.236001
C72	C	1.120075	0.840597	0.569334
C73	C	0.443629	0.187965	0.096477
C74	C	0.776962	0.521299	0.429810
C75	C	1.110295	0.854632	0.763143
C76	C	0.540509	0.188019	0.097756
C77	C	0.873842	0.521352	0.431089
C78	C	1.207176	0.854686	0.764422
C79	C	0.677522	0.133278	0.000055
C80	C	1.010855	0.466612	0.333388
C81	C	1.344188	0.799945	0.666722
C82	C	0.320034	0.126176	0.000077
C83	C	0.653367	0.459509	0.333410
C84	C	0.986701	0.792842	0.666744
C85	C	1.151342	0.122807	0.000085
C86	C	1.484676	0.456140	0.333418
C87	C	1.818009	0.789473	0.666752
C88	C	1.244432	0.124677	0.000086
C89	C	1.577766	0.458010	0.333420
C90	C	1.911099	0.791343	0.666753
C91	C	1.005609	0.303024	0.000062
C92	C	1.338942	0.636358	0.333395
C93	C	1.672275	0.969691	0.666728
C94	C	1.015120	0.408250	0.000055
C95	C	1.348453	0.741583	0.333388
C96	C	1.681787	1.074916	0.666721
N97	N	0.985631	0.146020	0.265595
N98	N	1.318964	0.479353	0.598928
N99	N	1.652298	0.812686	0.932261
N100	N	1.011930	0.113425	-0.265447
N101	N	1.345263	0.446758	0.067887
N102	N	1.678597	0.780091	0.401220
C103	C	0.975312	0.158822	0.474635
C104	C	1.308645	0.492156	0.807969
C105	C	1.641978	0.825489	1.141302
C106	C	1.022247	0.100625	0.525519
C107	C	1.355580	0.433958	0.858853
C108	C	1.688913	0.767292	1.192186
C109	C	1.016505	0.107749	0.641837
C110	C	1.349838	0.441082	0.975170
C111	C	1.683172	0.774415	1.308503
C112	C	0.981052	0.151700	0.358307
C113	C	1.314386	0.485033	0.691641
C114	C	1.647719	0.818367	1.024974
H115	H	1.097524	-0.367926	0.000008
H116	H	1.430857	-0.034593	0.333341
H117	H	1.764191	0.298740	0.666675
H118	H	1.066742	0.045452	0.481725
H119	H	1.400075	0.378785	0.815058
H120	H	1.733408	0.712118	1.148391
C121	C	0.407534	0.148311	0.196131
C122	C	0.740868	0.481644	0.529465
C123	C	1.074201	0.814978	0.862798
H124	H	0.374588	0.094842	0.179874
H125	H	0.707922	0.428175	0.513207
H126	H	1.041255	0.761509	0.846541
H127	H	0.373597	0.196381	0.234125
H128	H	0.706931	0.529714	0.567458
H129	H	1.040264	0.863048	0.900791
H130	H	0.452155	0.129222	0.235866
H131	H	0.785489	0.462556	0.569199
H132	H	1.118822	0.795889	0.902532
H133	H	0.900036	-0.372630	0.000060
H134	H	1.233370	-0.039297	0.333393
H135	H	1.566703	0.294036	0.666727
H136	H	0.930821	0.213994	0.518425
H137	H	1.264154	0.547327	0.851758
H138	H	1.597488	0.880660	1.185091
H139	H	0.573368	-0.009614	0.069836
H140	H	0.906701	0.323719	0.403169
H141	H	1.240034	0.657053	0.736503
H142	H	0.417542	0.264420	0.097130
H143	H	0.750875	0.597754	0.430463
H144	H	1.084209	0.931087	0.763797
C145	C	0.420670	-0.025742	0.094744
C146	C	0.754004	0.307592	0.428078
C147	C	1.087337	0.640925	0.761411
H148	H	0.382022	0.016044	0.134715
H149	H	0.715356	0.349378	0.468048
H150	H	1.048689	0.682711	0.801382
H151	H	0.465845	-0.042340	0.134816
H152	H	0.799178	0.290993	0.468149
H153	H	1.132512	0.624326	0.801483
H154	H	0.393224	-0.081886	0.072864
H155	H	0.726557	0.251447	0.406197
H156	H	1.059890	0.584780	0.739531
C157	C	0.428564	-0.037031	-0.093288
C158	C	0.761897	0.296303	0.240045
C159	C	1.095231	0.629636	0.573379
H160	H	0.452798	-0.099519	-0.092463
H161	H	0.786132	0.233814	0.240870
H162	H	1.119465	0.567148	0.574203
H163	H	0.447602	-0.009125	-0.154235
H164	H	0.780935	0.324208	0.179099
H165	H	1.114269	0.657542	0.512432
H166	H	0.369256	-0.040383	-0.090993
H167	H	0.702589	0.292950	0.242341
H168	H	1.035922	0.626284	0.575674
C169	C	0.589630	-0.034144	-0.094337
C170	C	0.922963	0.299189	0.238996
C171	C	1.256297	0.632522	0.572330
H172	H	0.545964	-0.059912	-0.132605
H173	H	0.879297	0.273421	0.200728
H174	H	1.212630	0.606755	0.534062
H175	H	0.623654	-0.084685	-0.072637
H176	H	0.956987	0.248648	0.260696
H177	H	1.290320	0.581981	0.594029
H178	H	0.622852	0.004893	-0.136028
H179	H	0.956185	0.338226	0.197305
H180	H	1.289518	0.671559	0.530638
C181	C	0.429777	0.117533	-0.195598
C182	C	0.763110	0.450867	0.137735
C183	C	1.096443	0.784200	0.471068
H184	H	0.479326	0.096425	-0.235095
H185	H	0.812659	0.429758	0.098239
H186	H	1.145993	0.763091	0.431572
H187	H	0.396893	0.157493	-0.234510
H188	H	0.730226	0.490826	0.098823
H189	H	1.063559	0.824160	0.432157
H190	H	0.398545	0.063871	-0.177810
H191	H	0.731878	0.397204	0.155523
H192	H	1.065212	0.730538	0.488857
H193	H	0.427062	0.249752	-0.101754
H194	H	0.760395	0.583085	0.231580
H195	H	1.093728	0.916418	0.564913
H196	H	0.561472	0.155120	0.169754
H197	H	0.894805	0.488453	0.503088
H198	H	1.228138	0.821787	0.836421
H199	H	0.570306	0.253533	-0.100882
H200	H	0.903639	0.586866	0.232452
H201	H	1.236973	0.920200	0.565785
H202	H	0.579544	0.136588	-0.169683
H203	H	0.912878	0.469922	0.163650
H204	H	1.246211	0.803255	0.496984
C205	C	0.568601	0.292048	0.105695
C206	C	0.901934	0.625381	0.439028
C207	C	1.235268	0.958714	0.772361
H208	H	0.606582	0.302354	0.049278
H209	H	0.939915	0.635688	0.382611
H210	H	1.273249	0.969021	0.715945
H211	H	0.595475	0.303881	0.167809
H212	H	0.928808	0.637214	0.501142
H213	H	1.262142	0.970548	0.834475
H214	H	0.521072	0.334091	0.104871
H215	H	0.854406	0.667424	0.438205
H216	H	1.187739	1.000758	0.771538
