data_functionalizedCrystal
_audit_creation_method	'MofGen! by Chris Wilmer'
_symmetry_space_group_name_H-M	'P1'
_symmetry_Int_Tables_number	1
_symmetry_cell_setting	triclinic
loop_
_symmetry_equiv_pos_as_xyz
  x,y,z
_cell_length_a	31.640172
_cell_length_b	14.560438
_cell_length_c	14.560438
_cell_angle_alpha	60.000905
_cell_angle_beta	90.004997
_cell_angle_gamma	59.997940
loop_
_atom_site_label
_atom_site_type_symbol
_atom_site_fract_x
_atom_site_fract_y
_atom_site_fract_z
Zr1	Zr	0.407181	1.005165	-0.120389
O2	O	0.339690	1.196787	-0.267054
O3	O	0.427871	0.813558	-0.075431
O4	O	0.427869	1.005162	-0.267032
O5	O	0.339694	1.005180	0.075688
O6	O	0.497426	1.005143	-0.267012
O7	O	0.339692	1.005183	-0.075453
O8	O	0.497430	0.662399	0.075727
O9	O	0.339690	1.347925	-0.267051
O10	O	0.488605	0.892349	-0.056239
O11	O	0.436696	0.892362	0.056541
O12	O	0.436694	1.117951	-0.169045
O13	O	0.384786	1.117963	-0.056265
Zr14	Zr	0.518120	1.005131	0.120695
Zr15	Zr	0.518117	1.005135	-0.120357
Zr16	Zr	0.407184	1.005161	0.120663
Zr17	Zr	0.407182	1.246213	-0.120385
Zr18	Zr	0.518120	0.764083	0.120690
O19	O	0.497430	1.196738	0.075737
O20	O	0.497426	1.196744	-0.267008
O21	O	0.339694	1.196781	0.075691
O22	O	0.585611	0.813509	0.267360
O23	O	0.585607	0.813515	-0.075386
O24	O	0.427875	0.813552	0.267314
O25	O	0.585607	1.005116	-0.075382
O26	O	0.497432	1.005134	0.267338
O27	O	0.427875	1.005153	0.267317
O28	O	0.585609	1.005113	0.075759
O29	O	0.427869	1.347901	-0.267025
O30	O	0.497432	0.662395	0.267331
O31	O	0.585611	0.662371	0.267357
O32	O	0.585609	0.662374	0.075752
O33	O	0.339693	1.347922	-0.075447
O34	O	0.427872	1.347898	-0.075421
O35	O	0.488607	0.892346	0.169350
O36	O	0.540516	0.892333	0.056571
O37	O	0.488605	1.117934	-0.056235
O38	O	0.436697	1.117947	0.056545
C39	C	0.462650	0.703634	0.000147
C40	C	0.462650	0.601303	0.000145
C41	C	0.489745	0.553221	-0.058725
C42	C	0.489747	0.457061	-0.058714
C43	C	0.435556	0.457079	0.059038
C44	C	0.435557	0.553230	0.059033
C45	C	0.323887	1.005186	0.000113
C46	C	0.276792	1.005199	0.000099
C47	C	0.011883	0.887374	0.059059
C48	C	-0.165102	0.887352	0.059081
O49	O	-0.164943	0.787199	0.109200
N50	N	-0.214329	1.005112	0.000196
C51	C	-0.219308	1.122887	-0.058692
O52	O	-0.265239	1.223049	-0.108767
C53	C	-0.042324	1.122908	-0.058707
C54	C	0.006903	1.005140	0.000172
C55	C	0.061107	0.769616	0.117934
C56	C	0.105350	0.769622	0.117923
C57	C	0.100370	0.887388	0.059037
C58	C	0.051146	1.005147	0.000161
C59	C	-0.047304	1.240682	-0.117588
C60	C	-0.003052	1.240676	-0.117585
C61	C	0.046174	1.122908	-0.058705
C62	C	0.090409	1.122919	-0.058737
N63	N	0.139635	1.005158	0.000148
C64	C	0.144616	0.887393	0.059035
C65	C	-0.312226	1.122868	-0.058682
C66	C	-0.356472	1.122863	-0.058680
C67	C	-0.302262	0.887327	0.059095
C68	C	-0.258016	0.887333	0.059086
C69	C	-0.262999	1.005107	0.000203
C70	C	0.237528	0.887416	0.059006
C71	C	0.281773	0.887433	0.058986
C72	C	0.227560	1.122968	-0.058784
C73	C	0.183319	1.122952	-0.058769
C74	C	0.188306	1.005165	0.000134
O75	O	0.090289	1.223019	-0.108819
O76	O	0.190551	0.787246	0.109123
C77	C	-0.032360	0.887367	0.059070
C78	C	-0.081584	1.005126	0.000194
C79	C	-0.086565	1.122892	-0.058692
C80	C	-0.125830	1.005121	0.000196
C81	C	-0.120850	0.887356	0.059083
C82	C	-0.071623	0.769595	0.117968
C83	C	-0.027380	0.769602	0.117957
C84	C	-0.135791	1.240652	-0.117577
C85	C	-0.180032	1.240636	-0.117562
C86	C	-0.175052	1.122870	-0.058675
C87	C	0.601414	1.005110	0.000193
C88	C	0.648509	1.005097	0.000207
C89	C	0.462647	1.005153	-0.301367
C90	C	0.462646	1.005155	-0.403700
C91	C	0.462651	1.306662	0.000158
C92	C	0.462651	1.408993	0.000160
C93	C	0.435550	1.122914	-0.510659
C94	C	0.435556	1.122908	-0.606808
C95	C	0.489755	0.887373	-0.489024
C96	C	0.489752	0.887380	-0.392878
C97	C	0.462654	1.005143	0.301672
C98	C	0.462655	1.005141	0.404005
C99	C	0.601414	0.703596	0.000187
C100	C	0.648509	0.601252	0.000199
C101	C	0.462654	0.703629	0.301667
C102	C	0.462655	0.601296	0.403998
C103	C	0.601417	0.703591	0.301707
C104	C	0.648513	0.601246	0.404051
C105	C	0.323884	1.306705	-0.301401
C106	C	0.276788	1.409051	-0.403746
C107	C	0.323888	1.306700	0.000118
C108	C	0.276793	1.409044	0.000107
C109	C	0.462647	1.306667	-0.301361
C110	C	0.462646	1.409000	-0.403692
C111	C	0.643528	0.553199	-0.058691
C112	C	0.687774	0.457049	-0.058703
C113	C	0.737001	0.408948	0.000183
C114	C	0.741981	0.457011	0.059075
C115	C	0.697735	0.553166	0.059079
C116	C	0.697730	0.553177	0.393244
C117	C	0.741986	0.457025	0.489398
C118	C	0.737024	0.408938	0.596359
C119	C	0.687802	0.457017	0.607165
C120	C	0.643547	0.553173	0.511011
C121	C	0.227571	1.457131	-0.392938
C122	C	0.183315	1.553312	-0.489093
C123	C	0.188277	1.601404	-0.596054
C124	C	0.237499	1.553320	-0.606859
C125	C	0.281754	1.457147	-0.510706
C126	C	0.281773	1.457107	0.058987
C127	C	0.237527	1.553283	0.058972
C128	C	0.188300	1.601388	0.000082
C129	C	0.183321	1.553321	-0.058805
C130	C	0.227566	1.457153	-0.058796
C131	C	0.489752	0.553210	0.510959
C132	C	0.489747	0.457066	0.607106
C133	C	0.435547	0.457101	0.489317
C134	C	0.435550	0.553249	0.393173
H135	H	0.511810	0.417914	-0.106650
C136	C	0.405739	1.252462	-0.522560
C137	C	0.375937	1.381995	-0.640218
C138	C	0.346128	1.511547	-0.652124
C139	C	0.346121	1.511566	-0.546373
C140	C	0.375924	1.382028	-0.428706
C141	C	0.405734	1.252477	-0.416800
H142	H	0.375941	1.381985	-0.718510
H143	H	0.324066	1.607439	-0.739229
H144	H	0.324054	1.607468	-0.555186
H145	H	0.375920	1.382038	-0.350415
H146	H	0.427796	1.156584	-0.329695
C147	C	0.335923	0.757881	0.123761
C148	C	0.341397	0.628344	0.188541
C149	C	0.395544	0.498796	0.253316
C150	C	0.444216	0.498785	0.253312
C151	C	0.438744	0.628327	0.188530
C152	C	0.384597	0.757875	0.123755
H153	H	0.305365	0.628347	0.188546
H154	H	0.399595	0.402901	0.301272
H155	H	0.484299	0.402886	0.301263
H156	H	0.474776	0.628323	0.188525
H157	H	0.380546	0.853770	0.075799
C158	C	-0.008535	1.370233	-0.182362
C159	C	0.014420	1.402639	-0.277887
C160	C	0.008937	1.532193	-0.342665
C161	C	-0.019502	1.629341	-0.311918
C162	C	-0.042459	1.596937	-0.216387
C163	C	-0.036976	1.467383	-0.151609
H164	H	0.035474	1.330723	-0.300653
H165	H	0.025931	1.556180	-0.413383
H166	H	-0.023561	1.725244	-0.359870
H167	H	-0.063513	1.668853	-0.193622
H168	H	-0.053970	1.443396	-0.080891
H169	H	0.152238	1.679714	-0.674339
C170	C	0.796132	0.404076	0.123862
C171	C	0.844797	0.298294	0.123864
C172	C	0.898950	0.245345	0.188661
C173	C	0.904438	0.298178	0.253457
C174	C	0.855772	0.403966	0.253458
C175	C	0.801619	0.456915	0.188661
H176	H	0.840735	0.259178	0.075896
H177	H	0.934975	0.167033	0.188660
H178	H	0.944525	0.258982	0.301424
H179	H	0.859834	0.443082	0.301426
H180	H	0.765594	0.535227	0.188662
C181	C	0.519558	0.757836	-0.275210
C182	C	0.549368	0.628288	-0.263302
C183	C	0.579174	0.498751	-0.145637
C184	C	0.579171	0.498762	-0.039881
C185	C	0.549361	0.628315	-0.051786
C186	C	0.519554	0.757852	-0.169451
H187	H	0.549371	0.628276	-0.341592
H188	H	0.601242	0.402848	-0.136825
H189	H	0.601236	0.402871	0.047221
H190	H	0.549357	0.628327	0.026504
H191	H	0.497487	0.853755	-0.178263
H192	H	0.773025	0.330652	0.000172
H193	H	0.413481	0.592405	0.306074
C194	C	0.796126	0.404146	0.477493
C195	C	0.812387	0.338042	0.415702
C196	C	0.866525	0.285167	0.403792
C197	C	0.904401	0.298396	0.453674
C198	C	0.888140	0.364503	0.515470
C199	C	0.834003	0.417378	0.527379
H200	H	0.784348	0.328246	0.378773
H201	H	0.878562	0.236230	0.358047
H202	H	0.944477	0.259254	0.444858
H203	H	0.916179	0.374298	0.552399
H204	H	0.821966	0.466315	0.573124
H205	H	0.511821	0.592332	0.519779
C206	C	0.129169	1.606236	-0.123572
C207	C	0.123680	1.553376	-0.188342
C208	C	0.069527	1.606288	-0.253102
C209	C	0.020863	1.712058	-0.253091
C210	C	0.026350	1.764923	-0.188319
C211	C	0.080503	1.712012	-0.123560
H212	H	0.159706	1.475073	-0.188352
H213	H	0.065466	1.567153	-0.301050
H214	H	-0.019224	1.751226	-0.301030
H215	H	-0.009676	1.843226	-0.188309
H216	H	0.084565	1.751147	-0.075611
H217	H	-0.220114	1.336545	-0.165520
H218	H	0.145429	0.673723	0.165864
H219	H	0.511807	0.592357	-0.106673
C220	C	-0.101443	1.370239	-0.182335
C221	C	-0.117727	1.467435	-0.310230
C222	C	-0.171866	1.597006	-0.374971
C223	C	-0.209722	1.629380	-0.311816
C224	C	-0.193438	1.532181	-0.183914
C225	C	-0.139299	1.402611	-0.119173
H226	H	-0.089704	1.443472	-0.356987
H227	H	-0.183920	1.668958	-0.469653
H228	H	-0.249799	1.725296	-0.359741
H229	H	-0.221462	1.556145	-0.137157
H230	H	-0.127245	1.330659	-0.024491
C231	C	0.129175	1.606180	-0.477188
C232	C	0.112915	1.672240	-0.415360
C233	C	0.058777	1.725102	-0.403452
C234	C	0.020900	1.711903	-0.453373
C235	C	0.037159	1.645840	-0.515205
C236	C	0.091297	1.592978	-0.527113
H237	H	0.140955	1.682013	-0.378402
H238	H	0.046741	1.774006	-0.357680
H239	H	-0.019176	1.751034	-0.444558
H240	H	0.009119	1.636067	-0.552163
H241	H	0.103333	1.544074	-0.572885
C242	C	0.066596	0.640057	0.182719
C243	C	0.095042	0.542912	0.151971
C244	C	0.100538	0.413342	0.216756
C245	C	0.077588	0.380917	0.312289
C246	C	0.049140	0.478063	0.343042
C247	C	0.043644	0.607633	0.278257
H248	H	0.112033	0.566913	0.081248
H249	H	0.121597	0.341428	0.193990
H250	H	0.081657	0.285001	0.360246
H251	H	0.032149	0.454062	0.413765
H252	H	0.022585	0.679548	0.301023
H253	H	0.413497	0.417928	0.106981
H254	H	0.683769	0.417850	0.694265
H255	H	0.773064	0.330642	0.674644
H256	H	0.413493	0.592378	0.106977
H257	H	0.321828	1.418000	-0.519519
H258	H	0.223504	1.418022	-0.106740
C259	C	-0.410618	1.252410	-0.123453
C260	C	-0.416089	1.381943	-0.188214
C261	C	-0.470234	1.511495	-0.252980
C262	C	-0.518909	1.511514	-0.252985
C263	C	-0.513439	1.381976	-0.188221
C264	C	-0.459294	1.252424	-0.123455
H265	H	-0.380056	1.381933	-0.188212
H266	H	-0.474283	1.607387	-0.300922
H267	H	-0.558990	1.607416	-0.300929
H268	H	-0.549473	1.381986	-0.188223
H269	H	-0.455246	1.156532	-0.075513
H270	H	0.241597	0.791503	0.106972
H271	H	-0.217936	0.791436	0.107041
H272	H	0.241533	1.592489	-0.693958
H273	H	-0.298214	0.791437	0.107036
H274	H	0.511811	0.417920	0.694195
C275	C	-0.066150	0.640051	0.182746
C276	C	-0.089125	0.607670	0.119625
C277	C	-0.083656	0.478135	0.184405
C278	C	-0.055212	0.380980	0.312306
C279	C	-0.032235	0.413359	0.375434
C280	C	-0.037704	0.542894	0.310655
H281	H	-0.110183	0.679592	0.024938
H282	H	-0.100666	0.454167	0.137672
H283	H	-0.051164	0.285090	0.360260
H284	H	-0.011177	0.341437	0.470121
H285	H	-0.020694	0.566862	0.357387
H286	H	0.413480	0.417967	0.480517
H287	H	-0.316292	1.218779	-0.106639
H288	H	0.603449	0.592362	-0.106657
H289	H	0.143236	1.218848	-0.106728
H290	H	0.321852	1.417948	0.106949
H291	H	0.223513	1.218850	-0.106732
H292	H	0.413492	1.218800	-0.693896
H293	H	0.511823	0.791485	-0.480226
H294	H	0.012699	0.673703	0.165905
H295	H	0.241592	1.592404	0.106929
H296	H	-0.139855	1.336554	-0.165533
H297	H	0.683710	0.417928	-0.106659
H298	H	0.701797	0.592278	0.107041
H299	H	0.701781	0.592315	0.306159
H300	H	0.152277	1.679694	0.000084
H301	H	0.603474	0.592298	0.519827
H302	H	0.223521	1.417980	-0.305854
