data_functionalizedCrystal
_audit_creation_method	'MofGen! by Chris Wilmer'
_symmetry_space_group_name_H-M	'P1'
_symmetry_Int_Tables_number	1
_symmetry_cell_setting	triclinic
loop_
_symmetry_equiv_pos_as_xyz
  x,y,z
_cell_length_a	10.489741
_cell_length_b	23.532407
_cell_length_c	8.965430
_cell_angle_alpha	89.995773
_cell_angle_beta	89.998843
_cell_angle_gamma	83.693926
loop_
_atom_site_label
_atom_site_type_symbol
_atom_site_fract_x
_atom_site_fract_y
_atom_site_fract_z
O1	O	1.691383	0.080340	-0.123964
O2	O	1.319936	0.087881	-0.123989
O3	O	1.516860	0.001253	-0.123949
O4	O	1.494458	0.166968	-0.124005
O5	O	1.516844	0.001259	0.124130
O6	O	1.319920	0.087887	0.124090
O7	O	1.691366	0.080346	0.124115
Cu8	Cu	1.505641	0.084117	0.146754
Cu9	Cu	1.505661	0.084110	-0.146628
O10	O	1.494442	0.166974	0.124074
C11	C	1.272415	0.087315	0.000048
C12	C	1.130842	0.085611	0.000039
C13	C	1.064535	0.030491	0.000072
C14	C	0.971550	0.056526	-0.122250
C15	C	0.971568	0.056545	0.122337
C16	C	1.039723	0.111668	-0.122383
C17	C	1.039750	0.111679	0.122313
C18	C	0.946792	0.137754	-0.000039
C19	C	1.516282	-0.019964	0.000095
C20	C	1.514566	-0.083192	0.000106
C21	C	1.620344	-0.481594	0.000031
C22	C	1.618751	-0.541005	0.000020
O23	O	1.716808	-0.577100	-0.000029
N24	N	1.501680	-0.564407	0.000013
C25	C	1.386194	-0.528395	0.000003
O26	O	1.286470	-0.553755	-0.000006
C27	C	1.387789	-0.468985	0.000003
C28	C	1.504868	-0.445587	0.000025
C29	C	1.737414	-0.458195	0.000051
C30	C	1.739007	-0.398788	0.000066
C31	C	1.623530	-0.362781	0.000060
C32	C	1.506460	-0.386180	0.000039
C33	C	1.272305	-0.432974	-0.000018
C34	C	1.273909	-0.373561	-0.000018
C35	C	1.390988	-0.350162	0.000004
C36	C	1.392576	-0.290766	0.000048
N37	N	1.509648	-0.267364	0.000054
C38	C	1.625125	-0.303371	0.000060
C39	C	1.382854	-0.653160	-0.000002
C40	C	1.381258	-0.712568	0.000008
C41	C	1.613816	-0.725174	0.000023
C42	C	1.615410	-0.665765	0.000023
C43	C	1.499926	-0.629758	0.000005
C44	C	1.628461	-0.178612	0.000092
C45	C	1.630043	-0.119200	0.000112
C46	C	1.397486	-0.106599	0.000090
C47	C	1.395903	-0.166006	0.000077
C48	C	1.511401	-0.202012	0.000073
O49	O	1.294571	-0.254636	0.000090
O50	O	1.724833	-0.278003	0.000049
C51	C	1.738887	0.080912	0.000075
C52	C	1.880460	0.082616	0.000073
C53	C	1.495021	0.188191	0.000028
C54	C	1.496736	0.251419	0.000006
N55	N	1.505637	0.084121	0.353103
N56	N	1.505676	0.084101	-0.352977
C57	C	1.414538	0.124171	0.450390
C58	C	1.529652	0.135693	0.549807
C59	C	1.390572	0.072603	0.549813
C60	C	1.620808	0.095670	0.450331
C61	C	1.481652	0.032557	0.450328
C62	C	1.596850	0.044059	0.549701
H63	H	1.725387	-0.100152	0.000134
H64	H	1.718153	0.105455	0.406816
H65	H	1.831454	-0.487507	0.000051
H66	H	1.707843	-0.754503	0.000022
F67	F	1.697673	-0.000223	0.606346
H68	H	0.941358	0.033215	0.225751
F69	F	1.256647	-0.737464	0.000012
H70	H	1.337569	0.158070	0.406786
F71	F	1.455056	-0.024411	0.393166
F72	F	1.263363	0.059880	0.606934
H73	H	1.722510	-0.207922	0.000082
H74	H	1.070014	0.134985	0.225718
H75	H	1.115731	-0.014820	-0.000066
F76	F	1.740020	-0.640868	0.000046
F77	F	0.932036	0.026041	-0.257405
H78	H	1.069783	0.134970	-0.225914
H79	H	0.895860	0.183113	-0.000121
H80	H	1.549965	0.179291	0.593502
H81	H	1.300568	-0.185058	0.000101
F82	F	1.863619	-0.373894	0.000057
F83	F	1.259931	-0.614842	-0.000007
F84	F	1.147691	-0.457863	-0.000047
F85	F	1.150991	-0.335243	-0.000041
F86	F	1.274594	-0.068267	0.000084
