data_functionalizedCrystal
_audit_creation_method	'MofGen! by Chris Wilmer'
_symmetry_space_group_name_H-M	'P1'
_symmetry_Int_Tables_number	1
_symmetry_cell_setting	triclinic
loop_
_symmetry_equiv_pos_as_xyz
  x,y,z
_cell_length_a	18.050591
_cell_length_b	18.050590
_cell_length_c	18.101389
_cell_angle_alpha	89.980851
_cell_angle_beta	89.985365
_cell_angle_gamma	90.017393
loop_
_atom_site_label
_atom_site_type_symbol
_atom_site_fract_x
_atom_site_fract_y
_atom_site_fract_z
Zn1	Zn	1.135372	-0.295760	-0.418643
Zn2	Zn	1.635372	0.204240	0.081357
Zn3	Zn	1.135295	-0.419935	-0.294800
Zn4	Zn	1.635295	0.080065	0.205200
Zn5	Zn	1.011183	-0.295760	-0.294826
Zn6	Zn	1.511183	0.204240	0.205174
Zn7	Zn	1.011160	-0.419910	-0.418610
Zn8	Zn	1.511160	0.080090	0.081390
O9	O	1.073253	-0.357841	-0.356720
O10	O	1.573253	0.142159	0.143280
O11	O	1.239287	-0.312242	-0.402219
O12	O	1.739287	0.187758	0.097781
O13	O	1.118808	-0.403473	-0.191171
O14	O	1.618808	0.096527	0.308829
O15	O	1.027698	-0.191836	-0.311275
O16	O	1.527698	0.308164	0.188725
O17	O	1.239230	-0.403473	-0.311232
O18	O	1.739230	0.096527	0.188768
O19	O	1.118940	-0.191836	-0.402243
O20	O	1.618940	0.308164	0.097757
O21	O	1.027623	-0.312242	-0.191189
O22	O	1.527623	0.187758	0.308811
O23	O	0.907255	-0.312219	-0.311242
O24	O	1.407255	0.187781	0.188758
O25	O	1.027660	-0.403432	-0.522247
O26	O	1.527660	0.096568	-0.022247
O27	O	0.907239	-0.403432	-0.402186
O28	O	1.407239	0.096568	0.097814
O29	O	1.118918	-0.312219	-0.522272
O30	O	1.618918	0.187781	-0.022272
O31	O	1.118787	-0.523856	-0.311199
O32	O	1.618787	-0.023856	0.188801
O33	O	1.027586	-0.523838	-0.402162
O34	O	1.527586	-0.023838	0.097838
C35	C	0.880301	-0.357823	-0.356714
C36	C	1.380301	0.142177	0.143286
C37	C	0.797755	-0.357833	-0.356729
C38	C	1.297755	0.142167	0.143271
C39	C	0.548942	-0.407537	-0.406117
C40	C	1.048942	0.092463	0.093883
C41	C	0.598310	-0.425603	-0.338521
C42	C	1.098310	0.074397	0.161479
C43	C	0.500634	-0.357857	-0.356727
C44	C	1.000634	0.142143	0.143273
C45	C	0.598348	-0.339814	-0.424320
C46	C	1.098348	0.160186	0.075680
C47	C	0.646619	-0.357847	-0.356732
C48	C	1.146619	0.142153	0.143268
C49	C	0.548915	-0.375958	-0.289096
C50	C	1.048915	0.124042	0.210904
C51	C	0.548949	-0.290137	-0.374941
C52	C	1.048949	0.209863	0.125059
C53	C	0.598295	-0.308177	-0.307298
C54	C	1.098295	0.191823	0.192702
C55	C	0.416536	-0.357864	-0.356726
C56	C	0.916536	0.142136	0.143274
C57	C	0.730716	-0.357840	-0.356725
C58	C	1.230716	0.142160	0.143275
C59	C	1.073196	-0.550794	-0.356690
C60	C	1.573196	-0.050794	0.143310
C61	C	1.073239	-0.633339	-0.356702
C62	C	1.573239	-0.133339	0.143298
C63	C	1.122937	-0.832773	-0.307306
C64	C	1.622937	-0.332773	0.192694
C65	C	1.141078	-0.882116	-0.374895
C66	C	1.641078	-0.382116	0.125105
C67	C	1.073281	-0.784470	-0.356732
C68	C	1.573281	-0.284470	0.143268
C69	C	1.055217	-0.882207	-0.289174
C70	C	1.555217	-0.382207	0.210826
C71	C	1.073323	-0.930455	-0.356755
C72	C	1.573323	-0.430455	0.143245
C73	C	1.091456	-0.832726	-0.424356
C74	C	1.591456	-0.332726	0.075644
C75	C	1.005564	-0.832813	-0.338590
C76	C	1.505564	-0.332813	0.161410
C77	C	1.023678	-0.882134	-0.406225
C78	C	1.523678	-0.382134	0.093775
C79	C	1.073259	-0.700371	-0.356718
C80	C	1.573259	-0.200371	0.143282
C81	C	1.073346	-1.014551	-0.356776
C82	C	1.573346	-0.514551	0.143224
C83	C	1.266958	-0.357860	-0.356726
C84	C	1.766958	0.142140	0.143274
C85	C	1.349504	-0.357868	-0.356729
C86	C	1.849504	0.142132	0.143271
C87	C	1.073296	-0.357823	-0.549882
C88	C	1.573296	0.142177	-0.049882
C89	C	1.073314	-0.357815	-0.632196
C90	C	1.573314	0.142185	-0.132196
C91	C	1.073330	-0.164136	-0.356766
C92	C	1.573330	0.335864	0.143234
C93	C	1.073363	-0.081590	-0.356785
C94	C	1.573363	0.418410	0.143215
C95	C	1.073357	-0.357675	-0.931287
C96	C	1.573357	0.142325	-0.431287
C97	C	1.015742	-0.414881	-0.899946
C98	C	1.515742	0.085119	-0.399946
C99	C	1.015898	-0.415147	-0.814328
C100	C	1.515898	0.084853	-0.314328
C101	C	1.073335	-0.357745	-0.782904
C102	C	1.573335	0.142255	-0.282904
C103	C	1.151585	-0.378990	-0.813997
C104	C	1.651585	0.121010	-0.313997
C105	C	1.151264	-0.379365	-0.899642
C106	C	1.651264	0.120635	-0.399642
C107	C	1.053402	-0.279097	-0.899716
C108	C	1.553402	0.220903	-0.399716
C109	C	1.051662	-0.279551	-0.814065
C110	C	1.551662	0.220449	-0.314065
C111	C	1.073327	-0.357782	-0.699045
C112	C	1.573327	0.142218	-0.199045
C113	C	1.073370	-0.357639	-1.015147
C114	C	1.573370	0.142361	-0.515147
C115	C	1.073253	-0.357807	-0.164309
C116	C	1.573253	0.142193	0.335691
C117	C	1.073378	-0.357605	-0.081996
C118	C	1.573378	0.142395	0.418004
H119	H	0.527293	-0.391284	-0.231920
H120	H	1.027293	0.108716	0.268080
H121	H	0.619992	-0.482868	-0.323112
H122	H	1.119992	0.017132	0.176888
F123	F	1.209244	-0.327236	-0.926744
F124	F	1.709244	0.172764	-0.426744
F125	F	0.520584	-0.215309	-0.395106
F126	F	1.020584	0.284691	0.104894
H127	H	1.198363	-0.903775	-0.390254
H128	H	1.698363	-0.403775	0.109746
F129	F	1.033154	-0.491269	-0.787549
F130	F	1.533154	0.008731	-0.287549
H131	H	1.195666	-0.338633	-0.793644
H132	H	1.695666	0.161367	-0.293644
H133	H	0.948295	-0.811138	-0.323210
H134	H	1.448295	-0.311138	0.176790
H135	H	0.620061	-0.324558	-0.481480
H136	H	1.120061	0.175442	0.018520
F137	F	1.032757	-0.490539	-0.928121
F138	F	1.532757	0.009461	-0.428121
H139	H	0.957873	-0.401852	-0.793305
H140	H	1.457873	0.098148	-0.293305
F141	F	0.968814	-0.910288	-0.460931
F142	F	1.468814	-0.410288	0.039069
F143	F	1.177841	-0.804441	-0.252729
F144	F	1.677841	-0.304441	0.247271
H145	H	0.997334	-0.259741	-0.921311
H146	H	1.497334	0.240259	-0.421311
F147	F	1.111545	-0.804441	-0.499065
F148	F	1.611545	-0.304441	0.000935
F149	F	1.035222	-0.910617	-0.214486
F150	F	1.535222	-0.410617	0.285514
H151	H	0.619828	-0.266160	-0.265485
H152	H	1.119828	0.233840	0.234515
H153	H	0.957543	-0.401723	-0.920542
H154	H	1.457543	0.098277	-0.420542
H155	H	1.095366	-0.236476	-0.919985
H156	H	1.595366	0.263524	-0.419985
F157	F	1.173371	-0.454446	-0.925759
F158	F	1.673371	0.045554	-0.425759
F159	F	0.976390	-0.258612	-0.787511
F160	F	1.476390	0.241388	-0.287511
F161	F	1.174077	-0.453273	-0.785967
F162	F	1.674077	0.046727	-0.285967
H163	H	0.527272	-0.449587	-0.447829
H164	H	1.027272	0.050413	0.052171
H165	H	1.090562	-0.234667	-0.792675
H166	H	1.590562	0.265333	-0.292675
