data_functionalizedCrystal
_audit_creation_method	'MofGen! by Chris Wilmer'
_symmetry_space_group_name_H-M	'P1'
_symmetry_Int_Tables_number	1
_symmetry_cell_setting	triclinic
loop_
_symmetry_equiv_pos_as_xyz
  x,y,z
_cell_length_a	21.295417
_cell_length_b	18.215407
_cell_length_c	18.215399
_cell_angle_alpha	90.017777
_cell_angle_beta	89.967848
_cell_angle_gamma	89.973873
loop_
_atom_site_label
_atom_site_type_symbol
_atom_site_fract_x
_atom_site_fract_y
_atom_site_fract_z
Zn1	Zn	-0.250689	-1.125043	-0.416054
Zn2	Zn	-0.355960	-1.124939	-0.292979
Zn3	Zn	-0.250701	-1.001976	-0.293006
Zn4	Zn	-0.355916	-1.001930	-0.416008
O5	O	-0.303317	-1.063472	-0.354512
O6	O	-0.264667	-1.228014	-0.399736
O7	O	-0.342021	-1.108604	-0.189998
O8	O	-0.162610	-1.018364	-0.309359
O9	O	-0.342009	-1.227937	-0.309313
O10	O	-0.162601	-1.108781	-0.399762
O11	O	-0.264687	-1.018263	-0.190018
O12	O	-0.264645	-0.898985	-0.309314
O13	O	-0.341935	-1.018285	-0.518998
O14	O	-0.341946	-0.898951	-0.399684
O15	O	-0.264625	-1.108736	-0.519032
O16	O	-0.444044	-1.108559	-0.309268
O17	O	-0.444012	-1.018184	-0.399657
C18	C	-0.303292	-0.872266	-0.354497
C19	C	-0.303297	-0.790467	-0.354509
C20	C	-0.263103	-0.602312	-0.401665
C21	C	-0.263106	-0.525453	-0.401667
C22	C	-0.343521	-0.525384	-0.307364
C23	C	-0.343515	-0.602242	-0.307359
C24	C	-0.303306	-0.640703	-0.354514
C25	C	-0.303316	-0.486987	-0.354521
C26	C	-0.303320	-0.403654	-0.354522
C27	C	-0.303301	-0.724042	-0.354511
C28	C	-0.466868	-1.063375	-0.354471
C29	C	-0.536836	-1.063402	-0.354478
C30	C	-0.569699	-1.110502	-0.307461
C31	C	-0.635442	-1.110536	-0.307477
C32	C	-0.668319	-1.063457	-0.354503
C33	C	-0.635449	-1.016354	-0.401530
C34	C	-0.569707	-1.016326	-0.401517
N35	N	-0.771581	-0.999079	-0.360109
N36	N	-0.834032	-0.999107	-0.360117
C37	C	-0.866394	-1.063540	-0.354546
N38	N	-0.833945	-1.127944	-0.348952
N39	N	-0.771488	-1.127915	-0.348940
C40	C	-0.739604	-1.063483	-0.354523
C41	C	-0.970542	-1.110681	-0.307544
C42	C	-1.036285	-1.110717	-0.307565
C43	C	-1.036291	-1.016528	-0.401614
C44	C	-0.970549	-1.016499	-0.401596
C45	C	-0.937678	-1.063575	-0.354557
C46	C	-0.139126	-1.063589	-0.354569
C47	C	-0.069158	-1.063639	-0.354593
C48	C	-0.303273	-1.063517	-0.546465
C49	C	-0.303255	-1.063536	-0.628264
C50	C	-0.303335	-0.255425	-0.354525
C51	C	-0.303325	-0.337224	-0.354525
C52	C	-0.262962	-1.110651	-0.816476
C53	C	-0.262944	-1.110659	-0.893335
C54	C	-0.343450	-1.016473	-0.893289
C55	C	-0.343465	-1.016461	-0.816431
C56	C	-0.303222	-1.063554	-0.778027
C57	C	-0.303189	-1.063575	-0.931743
C58	C	-0.303169	-1.063584	-1.015077
C59	C	-0.303240	-1.063544	-0.694688
C60	C	-0.303315	-1.063470	-0.163305
C61	C	-0.303156	-1.063593	-0.081507
H62	H	-0.376258	-0.494060	-0.268973
C63	C	-0.387744	-0.644475	-0.255486
N64	N	-0.421054	-0.676286	-0.216415
H65	H	-0.542938	-1.148835	-0.269160
H66	H	-0.230159	-1.149009	-0.924637
H67	H	-0.943777	-1.149015	-0.269244
H68	H	-0.662203	-1.148893	-0.269190
C69	C	-1.072453	-0.964742	-0.453345
N70	N	-1.099693	-0.925737	-0.492312
C71	C	-0.934398	-0.964700	-0.453335
N72	N	-0.907170	-0.925690	-0.492315
C73	C	-0.218688	-1.162448	-0.774234
N74	N	-0.185337	-1.201460	-0.742420
C75	C	-0.387715	-0.964672	-0.935540
N76	N	-0.421055	-0.925655	-0.967364
H77	H	-0.230360	-0.633625	-0.440059
C78	C	-0.218881	-0.483225	-0.453539
N79	N	-0.185568	-0.451420	-0.492612
H80	H	-0.662222	-0.978024	-0.439820
H81	H	-0.542950	-0.977971	-0.439805
H82	H	-1.063041	-1.149076	-0.269280
C83	C	-0.387755	-0.964646	-0.774135
N84	N	-0.421110	-0.925619	-0.742277
