data_functionalizedCrystal
_audit_creation_method	'MofGen! by Chris Wilmer'
_symmetry_space_group_name_H-M	'P1'
_symmetry_Int_Tables_number	1
_symmetry_cell_setting	triclinic
loop_
_symmetry_equiv_pos_as_xyz
  x,y,z
_cell_length_a	15.995350
_cell_length_b	16.109301
_cell_length_c	15.186229
_cell_angle_alpha	89.999362
_cell_angle_beta	89.999624
_cell_angle_gamma	96.523072
loop_
_atom_site_label
_atom_site_type_symbol
_atom_site_fract_x
_atom_site_fract_y
_atom_site_fract_z
O1	O	-0.107624	1.103160	-0.073165
O2	O	0.392376	1.603160	0.426835
O3	O	-0.121018	0.861101	-0.073178
O4	O	0.378982	1.361101	0.426822
O5	O	0.007569	0.988747	-0.073174
O6	O	0.507569	1.488747	0.426826
O7	O	-0.236210	0.975514	-0.073168
O8	O	0.263790	1.475514	0.426832
O9	O	0.007570	0.988739	0.073283
O10	O	0.507570	1.488739	0.573283
O11	O	-0.121016	0.861093	0.073280
O12	O	0.378984	1.361093	0.573280
O13	O	-0.107622	1.103151	0.073293
O14	O	0.392378	1.603151	0.573293
Zn15	Zn	-0.114319	0.982121	0.096539
Zn16	Zn	0.385681	1.482121	0.596539
Zn17	Zn	-0.114321	0.982132	-0.096424
Zn18	Zn	0.385679	1.482132	0.403576
O19	O	-0.236208	0.975505	0.073289
O20	O	0.263792	1.475505	0.573289
C21	C	-0.120474	0.830122	0.000049
C22	C	0.379526	1.330122	0.500049
C23	C	-0.118848	0.737826	0.000044
C24	C	0.381152	1.237826	0.500044
C25	C	-0.191366	0.515573	0.000056
C26	C	0.308634	1.015573	0.500056
C27	C	-0.189831	0.428853	0.000061
C28	C	0.310169	0.928853	0.500061
C29	C	-0.037268	0.448686	0.000054
C30	C	0.462732	0.948686	0.500054
C31	C	-0.038804	0.535405	0.000055
C32	C	0.461196	1.035405	0.500055
C33	C	-0.115855	0.568846	0.000051
C34	C	0.384145	1.068846	0.500051
C35	C	-0.112785	0.395406	0.000056
C36	C	0.387215	0.895406	0.500056
C37	C	-0.111120	0.301380	0.000062
C38	C	0.388880	0.801380	0.500062
C39	C	-0.117520	0.662879	0.000047
C40	C	0.382480	1.162879	0.500047
C41	C	-0.267404	0.976056	0.000061
C42	C	0.232596	1.476056	0.500061
C43	C	-0.360354	0.977697	0.000064
C44	C	0.139646	1.477697	0.500064
C45	C	-0.698100	0.983587	0.000050
C46	C	-0.198100	1.483587	0.500050
C47	C	-0.650641	1.074494	-0.000272
C48	C	-0.150641	1.574494	0.499728
C49	C	-0.553951	1.072854	0.000063
C50	C	-0.053951	1.572854	0.500063
C51	C	-0.530540	0.980665	0.000057
C52	C	-0.030540	1.480665	0.500057
C53	C	-0.571634	0.935822	0.083685
C54	C	-0.071634	1.435822	0.583685
C55	C	-0.668269	0.938106	0.083751
C56	C	-0.168269	1.438106	0.583751
C57	C	-0.668619	0.936237	-0.082799
C58	C	-0.168619	1.436237	0.417201
C59	C	-0.571674	0.936259	-0.083899
C60	C	-0.071674	1.436259	0.416101
C61	C	-0.435843	0.979009	0.000063
C62	C	0.064157	1.479009	0.500063
C63	C	-0.792797	0.985240	0.000050
C64	C	-0.292797	1.485240	0.500050
C65	C	0.038764	0.988196	0.000052
C66	C	0.538764	1.488196	0.500052
C67	C	0.131714	0.986556	0.000043
C68	C	0.631714	1.486556	0.500043
C69	C	-0.108166	1.134130	0.000064
C70	C	0.391834	1.634130	0.500064
C71	C	-0.109792	1.226426	0.000063
C72	C	0.390208	1.726426	0.500063
N73	N	-0.114317	0.982119	0.228232
N74	N	0.385683	1.482119	0.728232
N75	N	-0.114317	0.982140	-0.228117
N76	N	0.385683	1.482140	0.271883
C77	C	-0.057398	1.038660	0.453956
C78	C	0.442602	1.538660	0.953956
C79	C	-0.057396	1.038662	0.546146
C80	C	0.442604	1.538662	1.046146
C81	C	-0.171238	0.925593	0.546152
C82	C	0.328762	1.425593	1.046152
C83	C	-0.171236	0.925587	0.453964
C84	C	0.328764	1.425587	0.953964
C85	C	-0.114316	0.982125	0.407869
C86	C	0.385684	1.482125	0.907869
C87	C	-0.114317	0.982134	0.592246
C88	C	0.385683	1.482134	1.092246
C89	C	-0.114315	0.982136	0.692202
C90	C	0.385685	1.482136	1.192202
C91	C	-0.114317	0.982122	0.307906
C92	C	0.385683	1.482122	0.807906
H93	H	-0.525516	1.108108	-0.059882
H94	H	-0.025516	1.608108	0.440118
H95	H	-0.217586	0.879546	0.416437
H96	H	0.282414	1.379546	0.916437
H97	H	-0.251320	0.385481	0.000067
H98	H	0.248680	0.885481	0.500067
H99	H	0.022690	0.578782	0.000053
H100	H	0.522690	1.078782	0.500053
H101	H	-0.254106	0.542798	0.000060
H102	H	0.245894	1.042798	0.500060
O103	O	-0.002075	1.093662	0.590779
O104	O	0.497925	1.593662	1.090779
C105	C	0.110872	1.205779	0.581038
C106	C	0.610872	1.705779	1.081038
C107	C	0.048250	1.143549	0.530383
C108	C	0.548250	1.643549	1.030383
H109	H	0.151589	1.246117	0.532230
H110	H	0.651589	1.746117	1.032230
H111	H	0.074753	1.247369	0.624172
H112	H	0.574753	1.747369	1.124172
H113	H	0.152676	1.169874	0.624223
H114	H	0.652676	1.669874	1.124223
H115	H	0.006431	1.179386	0.487149
H116	H	0.506431	1.679386	0.987149
H117	H	0.084422	1.101960	0.487304
H118	H	0.584422	1.601960	0.987304
H119	H	-0.217582	0.879562	0.583692
H120	H	0.282418	1.379562	1.083692
H121	H	0.025465	0.421447	0.000062
H122	H	0.525465	0.921447	0.500062
H123	H	-0.011050	1.084695	0.416428
H124	H	0.488950	1.584695	0.916428
H125	H	-0.669149	1.110828	-0.060253
H126	H	-0.169149	1.610828	0.439747
H127	H	-0.670305	1.110697	0.059312
H128	H	-0.170305	1.610697	0.559312
H129	H	-0.526080	1.108331	0.060122
H130	H	-0.026080	1.608331	0.560122
O131	O	-0.689952	0.977174	0.158351
O132	O	-0.189952	1.477174	0.658351
C133	C	-0.641875	1.045621	0.293172
C134	C	-0.141875	1.545621	0.793172
C135	C	-0.617209	1.001401	0.208717
C136	C	-0.117209	1.501401	0.708717
H137	H	-0.583079	1.065205	0.333925
H138	H	-0.083079	1.565205	0.833925
H139	H	-0.673337	1.103290	0.274879
H140	H	-0.173337	1.603290	0.774879
H141	H	-0.687491	1.001047	0.333265
H142	H	-0.187491	1.501047	0.833265
H143	H	-0.571569	1.045909	0.168584
H144	H	-0.071569	1.545909	0.668584
H145	H	-0.585794	0.943720	0.227071
H146	H	-0.085794	1.443720	0.727071
H147	H	-0.700536	0.871363	0.087548
H148	H	-0.200536	1.371363	0.587548
H149	H	-0.557527	0.868093	0.086790
H150	H	-0.057527	1.368093	0.586790
H151	H	-0.543255	0.966968	0.145927
H152	H	-0.043255	1.466968	0.645927
O153	O	-0.693246	0.971699	-0.158363
O154	O	-0.193246	1.471699	0.341637
C155	C	-0.809496	1.008276	-0.245543
C156	C	-0.309496	1.508276	0.254457
C157	C	-0.781722	0.968100	-0.159929
C158	C	-0.281722	1.468100	0.340071
H159	H	-0.881031	1.005364	-0.246846
H160	H	-0.381031	1.505364	0.253154
H161	H	-0.780663	1.076264	-0.248639
H162	H	-0.280663	1.576264	0.251361
H163	H	-0.787351	0.972887	-0.304561
H164	H	-0.287351	1.472887	0.195439
H165	H	-0.803860	1.003422	-0.100864
H166	H	-0.303860	1.503422	0.399136
H167	H	-0.810547	0.900107	-0.156911
H168	H	-0.310547	1.400107	0.343089
H169	H	-0.544363	0.969003	-0.145767
H170	H	-0.044363	1.469003	0.354233
H171	H	-0.556326	0.869033	-0.088957
H172	H	-0.056326	1.369033	0.411043
O173	O	-0.706431	0.856241	-0.083599
O174	O	-0.206431	1.356241	0.416401
C175	C	-0.722542	0.723762	-0.158980
C176	C	-0.222542	1.223762	0.341020
C177	C	-0.679643	0.814325	-0.158179
C178	C	-0.179643	1.314325	0.341821
H179	H	-0.700914	0.689851	-0.219281
H180	H	-0.200914	1.189851	0.280719
H181	H	-0.704800	0.690245	-0.096759
H182	H	-0.204800	1.190245	0.403241
H183	H	-0.793726	0.724164	-0.161518
H184	H	-0.293726	1.224164	0.338482
H185	H	-0.608452	0.813999	-0.155672
H186	H	-0.108452	1.313999	0.344328
H187	H	-0.697453	0.847804	-0.220397
H188	H	-0.197453	1.347804	0.279603
