data_functionalizedCrystal
_audit_creation_method	'MofGen! by Chris Wilmer'
_symmetry_space_group_name_H-M	'P1'
_symmetry_Int_Tables_number	1
_symmetry_cell_setting	triclinic
loop_
_symmetry_equiv_pos_as_xyz
  x,y,z
_cell_length_a	15.995292
_cell_length_b	14.519709
_cell_length_c	12.996460
_cell_angle_alpha	90.007090
_cell_angle_beta	90.006758
_cell_angle_gamma	83.574380
loop_
_atom_site_label
_atom_site_type_symbol
_atom_site_fract_x
_atom_site_fract_y
_atom_site_fract_z
O1	O	-1.111195	-0.118619	-0.085597
O2	O	-0.611195	0.381381	0.414403
O3	O	-0.867435	-0.133355	-0.085593
O4	O	-0.367435	0.366645	0.414407
O5	O	-0.995778	0.008265	-0.085586
O6	O	-0.495778	0.508265	0.414414
O7	O	-0.982852	-0.260239	-0.085604
O8	O	-0.482852	0.239761	0.414396
O9	O	-0.995764	0.008272	0.085548
O10	O	-0.495764	0.508272	0.585548
O11	O	-0.867421	-0.133347	0.085541
O12	O	-0.367421	0.366653	0.585541
O13	O	-1.111181	-0.118612	0.085537
O14	O	-0.611181	0.381388	0.585537
Cu15	Cu	-0.989300	-0.125979	0.101165
Cu16	Cu	-0.489300	0.374021	0.601165
Cu17	Cu	-0.989316	-0.125988	-0.101221
Cu18	Cu	-0.489316	0.374012	0.398779
O19	O	-0.982838	-0.260231	0.085530
O20	O	-0.482838	0.239769	0.585530
C21	C	-0.836232	-0.132751	-0.000026
C22	C	-0.336232	0.367249	0.499974
C23	C	-0.743276	-0.130953	-0.000024
C24	C	-0.243276	0.369047	0.499976
C25	C	-1.142384	-0.119215	-0.000033
C26	C	-0.642384	0.380785	0.499967
C27	C	-1.235340	-0.121013	-0.000041
C28	C	-0.735340	0.378987	0.499959
C29	C	-0.405528	-0.124343	-0.000035
C30	C	0.094472	0.375657	0.499965
C31	C	-0.428993	-0.226560	-0.000424
C32	C	0.071007	0.273440	0.499576
C33	C	-0.525671	-0.228503	-0.000034
C34	C	-0.025671	0.271497	0.499966
C35	C	-0.573088	-0.127623	-0.000030
C36	C	-0.073088	0.372377	0.499970
C37	C	-0.543902	-0.076515	0.097696
C38	C	-0.043902	0.423485	0.597696
C39	C	-0.447110	-0.075284	0.097773
C40	C	0.052890	0.424716	0.597773
C41	C	-0.447267	-0.073206	-0.096838
C42	C	0.052733	0.426794	0.403162
C43	C	-0.543765	-0.076994	-0.098125
C44	C	-0.043765	0.423006	0.401875
C45	C	-0.667787	-0.129471	-0.000024
C46	C	-0.167787	0.370529	0.499976
C47	C	-0.310829	-0.122492	-0.000034
C48	C	0.189171	0.377508	0.499966
C49	C	-0.995168	0.042627	-0.000019
C50	C	-0.495168	0.542627	0.499981
C51	C	-0.993363	0.145005	-0.000018
C52	C	-0.493363	0.645005	0.499982
C53	C	-0.983447	-0.294593	-0.000040
C54	C	-0.483447	0.205407	0.499960
C55	C	-0.985253	-0.396971	-0.000047
C56	C	-0.485253	0.103029	0.499953
N57	N	-0.989295	-0.125971	0.243512
N58	N	-0.489295	0.374029	0.743512
C59	C	-0.986718	0.519887	-0.000045
C60	C	-0.486718	1.019887	0.499955
C61	C	-0.988563	0.415583	-0.000037
C62	C	-0.488563	0.915583	0.499963
C63	C	-0.990040	0.332449	-0.000031
C64	C	-0.490040	0.832449	0.499969
C65	C	-0.991886	0.228138	-0.000025
C66	C	-0.491886	0.728138	0.499975
N67	N	-0.989328	-0.125988	-0.243568
N68	N	-0.489328	0.374012	0.256432
C69	C	-0.989315	-0.125989	0.663326
C70	C	-0.489315	0.374011	1.163326
C71	C	-0.989307	-0.125987	0.546521
C72	C	-0.489307	0.374013	1.046521
C73	C	-0.989305	-0.125981	0.453423
C74	C	-0.489305	0.374019	0.953423
C75	C	-0.989297	-0.125978	0.336610
C76	C	-0.489297	0.374022	0.836610
H77	H	-0.401061	-0.265963	-0.070508
H78	H	0.098939	0.234037	0.429492
N79	N	-0.583765	0.016600	0.102282
N80	N	-0.083765	0.516600	0.602282
N81	N	-0.629111	0.042568	0.177487
N82	N	-0.129111	0.542568	0.677487
H83	H	-0.657271	0.108328	0.180725
H84	H	-0.157271	0.608328	0.680725
N85	N	-0.569115	-0.121012	0.188944
N86	N	-0.069115	0.378988	0.688944
N87	N	-0.616885	-0.076750	0.252182
N88	N	-0.116885	0.423250	0.752182
H89	H	-0.634689	-0.108179	0.316626
H90	H	-0.134689	0.391821	0.816626
H91	H	-0.420340	-0.110673	0.170822
H92	H	0.079660	0.389327	0.670822
H93	H	-0.418993	-0.105159	-0.170908
H94	H	0.081007	0.394841	0.329092
N95	N	-0.567121	-0.123659	-0.188840
N96	N	-0.067121	0.376341	0.311160
N97	N	-0.511804	-0.156749	-0.250577
N98	N	-0.011804	0.343251	0.249423
H99	H	-0.528302	-0.189705	-0.314646
H100	H	-0.028302	0.310295	0.185354
N101	N	-0.548881	-0.279012	0.087963
N102	N	-0.048881	0.220988	0.587963
N103	N	-0.585340	-0.350099	0.076466
N104	N	-0.085340	0.149901	0.576466
H105	H	-0.601744	-0.385777	0.138610
H106	H	-0.101744	0.114223	0.638610
H107	H	-0.544763	-0.268523	-0.070091
H108	H	-0.044763	0.231477	0.429909
H109	H	-0.432447	-0.000338	0.102216
H110	H	0.067553	0.499662	0.602216
N111	N	-0.392655	-0.275701	0.086998
N112	N	0.107345	0.224299	0.586998
N113	N	-0.349552	-0.235768	0.149588
N114	N	0.150448	0.264232	0.649588
H115	H	-0.323888	-0.270470	0.211333
H116	H	0.176112	0.229530	0.711333
H117	H	-0.576625	-0.003362	-0.104025
H118	H	-0.076625	0.496638	0.395975
N119	N	-0.429592	0.021186	-0.097635
N120	N	0.070408	0.521186	0.402365
N121	N	-0.386456	0.050776	-0.027295
N122	N	0.113544	0.550776	0.472705
H123	H	-0.373976	0.117440	-0.027844
H124	H	0.126024	0.617440	0.472156
