data_functionalizedCrystal
_audit_creation_method	'MofGen! by Chris Wilmer'
_symmetry_space_group_name_H-M	'P1'
_symmetry_Int_Tables_number	1
_symmetry_cell_setting	triclinic
loop_
_symmetry_equiv_pos_as_xyz
  x,y,z
_cell_length_a	18.215407
_cell_length_b	19.076808
_cell_length_c	18.215399
_cell_angle_alpha	87.671678
_cell_angle_beta	89.982632
_cell_angle_gamma	92.320961
loop_
_atom_site_label
_atom_site_type_symbol
_atom_site_fract_x
_atom_site_fract_y
_atom_site_fract_z
Zn1	Zn	1.113296	-0.280271	-0.404282
Zn2	Zn	1.363296	-0.030271	-0.154282
Zn3	Zn	1.613296	0.219729	0.095718
Zn4	Zn	1.863296	0.469729	0.345718
Zn5	Zn	1.108258	-0.397979	-0.276266
Zn6	Zn	1.358258	-0.147979	-0.026266
Zn7	Zn	1.608258	0.102021	0.223734
Zn8	Zn	1.858258	0.352021	0.473734
Zn9	Zn	0.990227	-0.280288	-0.281234
Zn10	Zn	1.240227	-0.030288	-0.031234
Zn11	Zn	1.490227	0.219712	0.218766
Zn12	Zn	1.740227	0.469712	0.468766
Zn13	Zn	0.985250	-0.397934	-0.399298
Zn14	Zn	1.235250	-0.147934	-0.149298
Zn15	Zn	1.485250	0.102066	0.100702
Zn16	Zn	1.735250	0.352066	0.350702
O17	O	1.049258	-0.339118	-0.340270
O18	O	1.299258	-0.089118	-0.090270
O19	O	1.549258	0.160882	0.159730
O20	O	1.799258	0.410882	0.409730
O21	O	1.215611	-0.295898	-0.387307
O22	O	1.465611	-0.045898	-0.137307
O23	O	1.715611	0.204102	0.112693
O24	O	1.965611	0.454102	0.362693
O25	O	1.092576	-0.382393	-0.173940
O26	O	1.342576	-0.132393	0.076060
O27	O	1.592576	0.117607	0.326060
O28	O	1.842576	0.367607	0.576060
O29	O	1.010744	-0.181790	-0.301721
O30	O	1.260744	0.068210	-0.051721
O31	O	1.510744	0.318210	0.198279
O32	O	1.760744	0.568210	0.448279
O33	O	1.211910	-0.382377	-0.293255
O34	O	1.461910	-0.132377	-0.043255
O35	O	1.711910	0.117623	0.206745
O36	O	1.961910	0.367623	0.456745
O37	O	1.101161	-0.181777	-0.392124
O38	O	1.351161	0.068223	-0.142124
O39	O	1.601161	0.318223	0.107876
O40	O	1.851161	0.568223	0.357876
O41	O	1.005859	-0.295926	-0.177590
O42	O	1.255859	-0.045926	0.072410
O43	O	1.505859	0.204074	0.322410
O44	O	1.755859	0.454074	0.572410
O45	O	0.886583	-0.295882	-0.296889
O46	O	1.136583	-0.045882	-0.046889
O47	O	1.386583	0.204118	0.203111
O48	O	1.636583	0.454118	0.453111
O49	O	1.002261	-0.382300	-0.502945
O50	O	1.252261	-0.132300	-0.252945
O51	O	1.502261	0.117700	-0.002945
O52	O	1.752261	0.367700	0.247055
O53	O	0.882927	-0.382316	-0.383630
O54	O	1.132927	-0.132316	-0.133630
O55	O	1.382927	0.117684	0.116370
O56	O	1.632927	0.367684	0.366370
O57	O	1.096335	-0.295854	-0.506606
O58	O	1.346335	-0.045854	-0.256606
O59	O	1.596335	0.204146	-0.006606
O60	O	1.846335	0.454146	0.243394
O61	O	1.087750	-0.496470	-0.288422
O62	O	1.337750	-0.246470	-0.038422
O63	O	1.587750	0.003530	0.211578
O64	O	1.837750	0.253530	0.461578
O65	O	0.997376	-0.496436	-0.378813
O66	O	1.247376	-0.246436	-0.128813
O67	O	1.497376	0.003564	0.121187
O68	O	1.747376	0.253564	0.371187
C69	C	0.858052	-0.339097	-0.340258
C70	C	1.108052	-0.089097	-0.090258
C71	C	1.358052	0.160903	0.159742
C72	C	1.608052	0.410903	0.409742
C73	C	0.776253	-0.339104	-0.340270
C74	C	1.026253	-0.089104	-0.090270
C75	C	1.276253	0.160896	0.159730
C76	C	1.526253	0.410896	0.409730
C77	C	0.589981	-0.294167	-0.389314
C78	C	0.839981	-0.044167	-0.139314
C79	C	1.089981	0.205833	0.110686
C80	C	1.339981	0.455833	0.360686
C81	C	0.513122	-0.294173	-0.389316
C82	C	0.763122	-0.044173	-0.139316
C83	C	1.013122	0.205827	0.110684
C84	C	1.263122	0.455827	0.360684
C85	C	0.509285	-0.384089	-0.291239
C86	C	0.759285	-0.134089	-0.041239
C87	C	1.009285	0.115911	0.208761
C88	C	1.259285	0.365911	0.458761
C89	C	0.586143	-0.384079	-0.291234
C90	C	0.836143	-0.134079	-0.041234
C91	C	1.086143	0.115921	0.208766
C92	C	1.336143	0.365921	0.458766
C93	C	0.626489	-0.339119	-0.340275
C94	C	0.876489	-0.089119	-0.090275
C95	C	1.126489	0.160881	0.159725
C96	C	1.376489	0.410881	0.409725
C97	C	0.472772	-0.339135	-0.340283
C98	C	0.722772	-0.089135	-0.090283
C99	C	0.972772	0.160865	0.159717
C100	C	1.222772	0.410865	0.409717
C101	C	0.389438	-0.339142	-0.340285
C102	C	0.639438	-0.089142	-0.090285
C103	C	0.889438	0.160858	0.159715
C104	C	1.139438	0.410858	0.409715
C105	C	0.709828	-0.339111	-0.340272
C106	C	0.959828	-0.089111	-0.090272
C107	C	1.209828	0.160889	0.159728
C108	C	1.459828	0.410889	0.409728
C109	C	1.041496	-0.521992	-0.332554
C110	C	1.291496	-0.271992	-0.082554
C111	C	1.541496	-0.021992	0.167446
C112	C	1.791496	0.228008	0.417446
C113	C	1.038243	-0.600226	-0.329277
C114	C	1.288243	-0.350226	-0.079277
C115	C	1.538243	-0.100226	0.170723
C116	C	1.788243	0.149774	0.420723
C117	C	1.083755	-0.636914	-0.374844
C118	C	1.333755	-0.386914	-0.124844
C119	C	1.583755	-0.136914	0.125156
C120	C	1.833755	0.113086	0.375156
C121	C	1.080695	-0.710423	-0.371767
C122	C	1.330695	-0.460423	-0.121767
C123	C	1.580695	-0.210423	0.128233
C124	C	1.830695	0.039577	0.378233
C125	C	1.032127	-0.747243	-0.323118
C126	C	1.282127	-0.497243	-0.073118
C127	C	1.532127	-0.247243	0.176882
C128	C	1.782127	0.002757	0.426882
C129	C	0.986610	-0.710551	-0.277550
C130	C	1.236610	-0.460551	-0.027550
C131	C	1.486610	-0.210551	0.222450
C132	C	1.736610	0.039449	0.472450
C133	C	0.989666	-0.637043	-0.280631
C134	C	1.239666	-0.387043	-0.030631
C135	C	1.489666	-0.137043	0.219369
C136	C	1.739666	0.112957	0.469369
C137	C	1.017938	-0.967096	-0.308854
C138	C	1.267938	-0.717096	-0.058854
C139	C	1.517938	-0.467096	0.191146
C140	C	1.767938	-0.217096	0.441146
C141	C	1.014887	-1.040609	-0.305774
C142	C	1.264887	-0.790609	-0.055774
C143	C	1.514887	-0.540609	0.194226
C144	C	1.764887	-0.290609	0.444226
C145	C	1.108972	-1.040476	-0.399992
C146	C	1.358972	-0.790476	-0.149992
C147	C	1.608972	-0.540476	0.100008
C148	C	1.858972	-0.290476	0.350008
C149	C	1.112027	-0.966967	-0.403067
C150	C	1.362027	-0.716967	-0.153067
C151	C	1.612027	-0.466967	0.096933
C152	C	1.862027	-0.216967	0.346933
C153	C	1.066507	-0.930280	-0.357501
C154	C	1.316507	-0.680280	-0.107501
C155	C	1.566507	-0.430280	0.142499
C156	C	1.816507	-0.180280	0.392499
N157	N	1.029000	-0.822382	-0.319970
N158	N	1.279000	-0.572382	-0.069970
N159	N	1.529000	-0.322382	0.180030
N160	N	1.779000	-0.072382	0.430030
N161	N	1.069631	-0.855143	-0.360653
N162	N	1.319631	-0.605143	-0.110653
N163	N	1.569631	-0.355143	0.139347
N164	N	1.819631	-0.105143	0.389347
C165	C	1.241210	-0.339141	-0.340283
C166	C	1.491210	-0.089141	-0.090283
C167	C	1.741210	0.160859	0.159717
C168	C	1.991210	0.410859	0.409717
C169	C	1.323008	-0.339150	-0.340288
C170	C	1.573008	-0.089150	-0.090288
C171	C	1.823008	0.160850	0.159712
C172	C	2.073008	0.410850	0.409712
C173	C	1.049305	-0.339070	-0.532225
C174	C	1.299305	-0.089070	-0.282225
C175	C	1.549305	0.160930	-0.032225
C176	C	1.799305	0.410930	0.217775
C177	C	1.049325	-0.339049	-0.614025
C178	C	1.299325	-0.089049	-0.364025
C179	C	1.549325	0.160951	-0.114025
C180	C	1.799325	0.410951	0.135975
C181	C	1.057070	-0.155531	-0.348033
C182	C	1.307070	0.094469	-0.098033
C183	C	1.557070	0.344469	0.151967
C184	C	1.807070	0.594469	0.401967
C185	C	1.060399	-0.077296	-0.351341
C186	C	1.310399	0.172704	-0.101341
C187	C	1.560399	0.422704	0.148659
C188	C	1.810399	0.672704	0.398659
C189	C	1.098328	-0.293994	-0.804129
C190	C	1.348328	-0.043994	-0.554129
C191	C	1.598328	0.206006	-0.304129
C192	C	1.848328	0.456006	-0.054129
C193	C	1.098338	-0.293974	-0.880988
C194	C	1.348338	-0.043974	-0.630988
C195	C	1.598338	0.206026	-0.380988
C196	C	1.848338	0.456026	-0.130988
C197	C	1.000378	-0.383995	-0.877164
C198	C	1.250378	-0.133995	-0.627164
C199	C	1.500378	0.116005	-0.377164
C200	C	1.750378	0.366005	-0.127164
C201	C	1.000365	-0.384011	-0.800306
C202	C	1.250365	-0.134011	-0.550306
C203	C	1.500365	0.115989	-0.300306
C204	C	1.750365	0.365989	-0.050306
C205	C	1.049344	-0.339012	-0.763790
C206	C	1.299344	-0.089012	-0.513790
C207	C	1.549344	0.160988	-0.263790
C208	C	1.799344	0.410988	-0.013790
C209	C	1.049367	-0.338975	-0.917508
C210	C	1.299367	-0.088975	-0.667508
C211	C	1.549367	0.161025	-0.417508
C212	C	1.799367	0.411025	-0.167508
C213	C	1.049377	-0.338953	-1.000843
C214	C	1.299377	-0.088953	-0.750843
C215	C	1.549377	0.161047	-0.500843
C216	C	1.799377	0.411047	-0.250843
C217	C	1.049334	-0.339033	-0.680450
C218	C	1.299334	-0.089033	-0.430450
C219	C	1.549334	0.160967	-0.180450
C220	C	1.799334	0.410967	0.069550
C221	C	1.049256	-0.339116	-0.149064
C222	C	1.299256	-0.089116	0.100936
C223	C	1.549256	0.160884	0.350936
C224	C	1.799256	0.410884	0.600936
C225	C	1.049387	-0.338938	-0.067273
C226	C	1.299387	-0.088938	0.182727
C227	C	1.549387	0.161062	0.432727
C228	C	1.799387	0.411062	0.682727
H229	H	0.483402	-0.257568	-0.429247
H230	H	0.733402	-0.007568	-0.179247
H231	H	0.983402	0.242432	0.070753
H232	H	1.233402	0.492432	0.320753
Br233	Br	0.933912	-0.445065	-0.926726
Br234	Br	1.183912	-0.195065	-0.676726
Br235	Br	1.433912	0.054935	-0.426726
Br236	Br	1.683912	0.304935	-0.176726
Br237	Br	0.454525	-0.445104	-0.224687
Br238	Br	0.704525	-0.195104	0.025313
Br239	Br	0.954525	0.054896	0.275313
Br240	Br	1.204525	0.304896	0.525313
Br241	Br	1.170743	-1.090268	-0.461830
Br242	Br	1.420743	-0.840268	-0.211830
Br243	Br	1.670743	-0.590268	0.038170
Br244	Br	1.920743	-0.340268	0.288170
H245	H	0.615868	-0.420685	-0.251297
H246	H	0.865868	-0.170685	-0.001297
H247	H	1.115868	0.079315	0.248703
H248	H	1.365868	0.329315	0.498703
Br249	Br	0.933877	-0.445105	-0.745556
Br250	Br	1.183877	-0.195105	-0.495556
Br251	Br	1.433877	0.054895	-0.245556
Br252	Br	1.683877	0.304895	0.004444
H253	H	0.975333	-1.070586	-0.266158
H254	H	1.225333	-0.820586	-0.016158
H255	H	1.475333	-0.570586	0.233842
H256	H	1.725333	-0.320586	0.483842
Br257	Br	1.164823	-0.232881	-0.935731
Br258	Br	1.414823	0.017119	-0.685731
Br259	Br	1.664823	0.267119	-0.435731
Br260	Br	1.914823	0.517119	-0.185731
H261	H	0.622829	-0.257556	-0.429244
H262	H	0.872829	-0.007556	-0.179244
H263	H	1.122829	0.242444	0.070756
H264	H	1.372829	0.492444	0.320756
H265	H	1.123308	-0.606939	-0.414455
H266	H	1.373308	-0.356939	-0.164455
H267	H	1.623308	-0.106939	0.085545
H268	H	1.873308	0.143061	0.335545
H269	H	1.117762	-0.740291	-0.408866
H270	H	1.367762	-0.490291	-0.158866
H271	H	1.617762	-0.240291	0.091134
H272	H	1.867762	0.009709	0.341134
H273	H	1.151575	-0.936989	-0.442680
H274	H	1.401575	-0.686989	-0.192680
H275	H	1.651575	-0.436989	0.057320
H276	H	1.901575	-0.186989	0.307320
H277	H	0.980876	-0.937231	-0.271751
H278	H	1.230876	-0.687231	-0.021751
H279	H	1.480876	-0.437231	0.228249
H280	H	1.730876	-0.187231	0.478249
Br281	Br	0.920685	-0.760520	-0.211536
Br282	Br	1.170685	-0.510520	0.038464
Br283	Br	1.420685	-0.260520	0.288464
Br284	Br	1.670685	-0.010520	0.538464
H285	H	0.952605	-0.607172	-0.243527
H286	H	1.202605	-0.357172	0.006473
H287	H	1.452605	-0.107172	0.256473
H288	H	1.702605	0.142828	0.506473
Br289	Br	1.164798	-0.232923	-0.754574
Br290	Br	1.414798	0.017077	-0.504574
Br291	Br	1.664798	0.267077	-0.254574
Br292	Br	1.914798	0.517077	-0.004574
