data_functionalizedCrystal
_audit_creation_method	'MofGen! by Chris Wilmer'
_symmetry_space_group_name_H-M	'P1'
_symmetry_Int_Tables_number	1
_symmetry_cell_setting	triclinic
loop_
_symmetry_equiv_pos_as_xyz
  x,y,z
_cell_length_a	19.288864
_cell_length_b	17.699083
_cell_length_c	18.366186
_cell_angle_alpha	89.986732
_cell_angle_beta	90.022894
_cell_angle_gamma	96.790371
loop_
_atom_site_label
_atom_site_type_symbol
_atom_site_fract_x
_atom_site_fract_y
_atom_site_fract_z
O1	O	0.921465	-0.094417	0.060794
O2	O	0.719219	-0.107154	0.060746
O3	O	0.826056	0.009412	0.060754
O4	O	0.814628	-0.210983	0.060787
O5	O	0.826038	0.009417	-0.060346
O6	O	0.719201	-0.107148	-0.060353
O7	O	0.921446	-0.094412	-0.060305
Zn8	Zn	0.820321	-0.100779	-0.079556
Zn9	Zn	0.820345	-0.100786	0.079997
O10	O	0.814610	-0.210977	-0.060313
C11	C	0.693333	-0.106741	0.000190
C12	C	0.616228	-0.105511	0.000171
C13	C	0.825637	0.037611	0.000201
C14	C	0.824409	0.121627	0.000192
C15	C	0.571613	-0.173906	0.000192
C16	C	0.499164	-0.172751	0.000200
C17	C	0.471334	-0.103196	0.000201
C18	C	0.515959	-0.034791	0.000175
C19	C	0.588406	-0.035949	0.000160
C20	C	0.363014	-0.048520	0.042644
C21	C	0.290568	-0.047365	0.042663
C22	C	0.247884	-0.099622	0.000245
C23	C	0.277654	-0.153047	-0.042185
C24	C	0.350101	-0.154205	-0.042200
C25	C	0.392779	-0.101932	0.000217
C26	C	0.124712	-0.166769	0.000274
C27	C	0.052262	-0.165610	0.000277
C28	C	0.069059	-0.027649	0.000260
C29	C	0.141507	-0.028809	0.000249
C30	C	0.169329	-0.098371	0.000259
C31	C	0.887120	0.170336	0.000201
C32	C	0.885961	0.249278	0.000199
C33	C	0.822091	0.279509	0.000183
C34	C	0.759375	0.230794	0.000175
C35	C	0.760535	0.151854	0.000183
C36	C	0.754699	0.549150	0.000147
C37	C	0.753545	0.628097	0.000138
C38	C	0.880126	0.646575	0.000164
C39	C	0.881285	0.567635	0.000171
C40	C	0.818570	0.518926	0.000168
C41	C	0.819827	0.433329	0.000171
C42	C	0.820834	0.365105	0.000174
C43	C	0.947332	-0.094824	0.000253
C44	C	1.024437	-0.096054	0.000277
N45	N	0.820310	-0.100773	-0.188447
C46	C	0.815028	0.760824	0.000216
C47	C	0.816257	0.676807	0.000152
C48	C	0.867632	-0.049183	-0.226544
C49	C	0.867637	-0.049180	-0.302772
C50	C	0.820325	-0.100780	-0.340900
C51	C	0.772993	-0.152374	-0.302794
C52	C	0.772986	-0.152370	-0.226568
C53	C	0.811108	-0.169742	-0.461652
C54	C	0.811121	-0.169746	-0.537877
C55	C	0.820345	-0.100789	-0.576008
C56	C	0.829571	-0.031825	-0.537905
C57	C	0.829563	-0.031822	-0.461678
C58	C	0.820328	-0.100788	-0.423555
C59	C	0.867675	-0.049191	-0.696760
C60	C	0.867674	-0.049187	-0.772989
C61	C	0.773034	-0.152387	-0.773009
C62	C	0.773031	-0.152385	-0.696781
C63	C	0.820355	-0.100788	-0.658661
N64	N	0.820361	-0.100786	0.188888
H65	H	0.594260	-0.230549	0.000202
Cl66	Cl	0.644497	0.050041	0.000134
Cl67	Cl	0.841153	0.054871	-0.413779
Cl68	Cl	0.673245	0.666100	0.000119
H69	H	0.046401	0.028984	0.000305
H70	H	0.709469	0.112195	0.000175
H71	H	0.933295	0.543025	0.000181
Cl72	Cl	0.927134	0.015681	-0.350674
Cl73	Cl	0.679081	0.268799	0.000164
Cl74	Cl	0.967418	0.132340	0.000214
H75	H	0.931192	0.686243	0.000170
Cl76	Cl	0.964802	0.310510	0.000209
Cl77	Cl	0.224003	-0.218747	-0.095515
Cl78	Cl	0.387524	-0.221361	-0.095540
Cl79	Cl	0.841172	0.054869	-0.585832
H80	H	0.906165	-0.007168	-0.195509
Cl81	Cl	0.799528	-0.256442	-0.585770
Cl82	Cl	0.675857	0.487927	0.000145
H83	H	0.906207	-0.007175	-0.665721
Cl84	Cl	0.927167	0.015679	-0.820885
Cl85	Cl	0.713551	-0.217249	-0.820936
H86	H	0.734500	-0.194397	-0.665761
H87	H	0.803585	-0.225898	-0.430612
H88	H	0.734470	-0.194386	-0.333842
H89	H	0.462831	-0.228448	0.000216
Cl90	Cl	0.159691	-0.254216	0.000280
Cl91	Cl	0.713490	-0.217232	-0.178671
H92	H	0.177834	0.026886	0.000235
Cl93	Cl	-0.003827	-0.251601	0.000301
H94	H	0.493296	0.021841	0.000186
H95	H	0.266335	-0.003866	0.077215
Cl96	Cl	0.416666	0.017182	0.095976
