data_functionalizedCrystal
_audit_creation_method	'MofGen! by Chris Wilmer'
_symmetry_space_group_name_H-M	'P1'
_symmetry_Int_Tables_number	1
_symmetry_cell_setting	triclinic
loop_
_symmetry_equiv_pos_as_xyz
  x,y,z
_cell_length_a	35.277628
_cell_length_b	35.288095
_cell_length_c	35.277682
_cell_angle_alpha	59.997929
_cell_angle_beta	89.998958
_cell_angle_gamma	60.000166
loop_
_atom_site_label
_atom_site_type_symbol
_atom_site_fract_x
_atom_site_fract_y
_atom_site_fract_z
O1	O	-0.323087	-0.271234	0.011271
O2	O	-0.267964	-0.193634	-0.011228
O3	O	-0.267962	-0.271233	0.066395
O4	O	-0.323089	-0.193635	-0.066351
O5	O	-0.204915	-0.334261	0.066394
O6	O	-0.204918	-0.256661	-0.011228
O7	O	-0.260040	-0.334261	0.011271
Cu8	Cu	-0.226722	-0.301216	0.000022
Cu9	Cu	-0.301282	-0.226679	0.000022
O10	O	-0.260043	-0.256662	-0.066351
C11	C	-0.163481	-0.071298	-0.023519
C12	C	-0.186872	-0.024531	-0.020298
C13	C	-0.117860	-0.093995	-0.023838
C14	C	-0.163483	-0.139918	-0.023524
C15	C	-0.186875	-0.166518	-0.020308
C16	C	-0.117862	-0.162510	-0.023843
C17	C	-0.094838	-0.139921	-0.023519
C18	C	-0.044836	-0.166525	-0.020298
C19	C	-0.186401	-0.093991	-0.023843
C20	C	-0.004439	-0.188019	-0.017694
C21	C	-0.205769	0.013252	-0.017695
C22	C	-0.205774	-0.188010	-0.017709
C23	C	0.046241	-0.214983	-0.014429
C24	C	-0.229477	0.060653	-0.014430
C25	C	-0.229483	-0.214971	-0.014450
C26	C	-0.500364	-0.466062	0.034181
C27	C	-0.477341	-0.511990	0.034503
C28	C	-0.431722	-0.466060	0.034178
C29	C	-0.408804	-0.511988	0.034500
C30	C	-0.431721	-0.534685	0.034181
C31	C	-0.477342	-0.443470	0.034500
C32	C	-0.665895	-0.342485	0.021756
C33	C	-0.712772	-0.317221	0.018243
C34	C	-0.736287	-0.338907	0.016481
C35	C	-0.787116	-0.311512	0.012664
C36	C	-0.712921	-0.385861	0.018236
C37	C	-0.666047	-0.411125	0.021755
C38	C	-0.642533	-0.389434	0.023515
C39	C	-0.389805	-0.687746	0.021758
C40	C	-0.368199	-0.731097	0.018245
C41	C	-0.322995	-0.752841	0.016478
C42	C	-0.299567	-0.799839	0.012662
C43	C	-0.299393	-0.731235	0.018230
C44	C	-0.320995	-0.687892	0.021751
C45	C	-0.366205	-0.666148	0.023512
C46	C	-0.389808	-0.342477	0.021744
C47	C	-0.368205	-0.317208	0.018222
C48	C	-0.322998	-0.338892	0.016457
C49	C	-0.299573	-0.311495	0.012637
C50	C	-0.299398	-0.385842	0.018210
C51	C	-0.321003	-0.411107	0.021730
C52	C	-0.366208	-0.389423	0.023501
C53	C	-0.591706	-0.416830	0.027326
C54	C	-0.551191	-0.438667	0.030366
C55	C	-0.408299	-0.438663	0.030360
C56	C	-0.389629	-0.416824	0.027317
C57	C	-0.408298	-0.581682	0.030365
C58	C	-0.389627	-0.619146	0.027325
C59	C	-0.432024	-0.061845	-0.438511
C60	C	-0.477645	-0.015917	-0.461431
C61	C	-0.432025	-0.061844	-0.369869
C62	C	-0.477645	-0.015916	-0.392892
C63	C	-0.500668	0.006779	-0.438513
C64	C	-0.409106	-0.084435	-0.392891
C65	C	-0.320834	-0.185425	-0.480424
C66	C	-0.299076	-0.210690	-0.502029
C67	C	-0.322531	-0.189005	-0.547237
C68	C	-0.298945	-0.216401	-0.570661
C69	C	-0.367745	-0.142051	-0.570839
C70	C	-0.389497	-0.116787	-0.549237
C71	C	-0.366040	-0.138476	-0.504027
C72	C	-0.666200	0.159838	-0.549704
C73	C	-0.713077	0.203188	-0.571462
C74	C	-0.736595	0.224934	-0.548009
C75	C	-0.787423	0.271931	-0.571594
C76	C	-0.713230	0.203329	-0.502796
C77	C	-0.666353	0.159987	-0.481041
C78	C	-0.642841	0.138241	-0.504500
C79	C	-0.320836	-0.185423	-0.204335
C80	C	-0.299080	-0.210691	-0.157455
C81	C	-0.322536	-0.189006	-0.133940
C82	C	-0.298950	-0.216402	-0.083110
C83	C	-0.367748	-0.142056	-0.157305
C84	C	-0.389502	-0.116792	-0.204182
C85	C	-0.366040	-0.138478	-0.227695
C86	C	-0.389632	-0.111079	-0.480604
C87	C	-0.408436	-0.089241	-0.461934
C88	C	-0.408437	-0.089240	-0.319041
C89	C	-0.389634	-0.111078	-0.278525
C90	C	-0.551496	0.053776	-0.462102
C91	C	-0.592011	0.091239	-0.480906
O92	O	0.196122	-0.334274	0.011291
O93	O	0.063378	-0.256674	-0.011208
O94	O	0.140994	-0.334276	0.066414
O95	O	0.118506	-0.256671	-0.066331
O96	O	0.140996	-0.271251	0.066419
O97	O	0.063380	-0.193649	-0.011203
O98	O	0.196124	-0.271249	0.011296
Cu99	Cu	0.129752	-0.226694	0.000047
Cu100	Cu	0.129750	-0.301228	0.000041
O101	O	0.118508	-0.193647	-0.066327
O102	O	-0.260036	0.184774	0.011294
O103	O	-0.204910	0.074561	-0.011204
O104	O	-0.204913	0.074554	0.066418
O105	O	-0.260033	0.184781	-0.066328
O106	O	-0.267961	0.074557	0.066413
O107	O	-0.267958	0.074564	-0.011209
O108	O	-0.323083	0.184777	0.011289
Cu109	Cu	-0.301278	0.129670	0.000040
Cu110	Cu	-0.226716	0.129668	0.000045
O111	O	-0.323081	0.184784	-0.066333
O112	O	-0.936929	0.397535	-0.602582
O113	O	-0.804185	0.287317	-0.547454
O114	O	-0.881802	0.287315	-0.547452
O115	O	-0.859312	0.397537	-0.602584
O116	O	-0.881801	0.287314	-0.610498
O117	O	-0.804183	0.287316	-0.610500
O118	O	-0.936927	0.397533	-0.665628
Cu119	Cu	-0.870555	0.342425	-0.643820
Cu120	Cu	-0.870557	0.342426	-0.569261
O121	O	-0.859310	0.397536	-0.665629
O122	O	-0.267961	-0.271234	-0.665316
O123	O	-0.323086	-0.193638	-0.610192
O124	O	-0.323085	-0.271236	-0.610189
O125	O	-0.267962	-0.193636	-0.665319
O126	O	-0.260038	-0.334264	-0.547142
O127	O	-0.260039	-0.256666	-0.547145
O128	O	-0.204914	-0.334262	-0.602269
Cu129	Cu	-0.226720	-0.301219	-0.568950
Cu130	Cu	-0.301280	-0.226681	-0.643511
O131	O	-0.204915	-0.256664	-0.602272
C132	C	-0.094840	-0.456607	0.293255
C133	C	-0.044837	-0.503376	0.316647
C134	C	-0.117862	-0.433912	0.316174
C135	C	-0.163483	-0.387984	0.224612
C136	C	-0.186875	-0.361381	0.174609
C137	C	-0.186401	-0.365393	0.247634
C138	C	-0.163483	-0.387984	0.293255
C139	C	-0.186874	-0.361382	0.316646
C140	C	-0.117862	-0.433912	0.247635
C141	C	-0.205772	-0.339889	0.335543
C142	C	-0.004440	-0.541160	0.335545
C143	C	-0.205773	-0.339888	0.134212
C144	C	-0.229480	-0.312925	0.359250
C145	C	0.046239	-0.588562	0.359254
C146	C	-0.229481	-0.312924	0.083532
C147	C	0.153295	-0.388013	0.293279
C148	C	0.150076	-0.361413	0.316673
C149	C	0.153614	-0.433940	0.316196
C150	C	0.153297	-0.388008	0.224634
C151	C	0.150079	-0.361403	0.174632
C152	C	0.153616	-0.433935	0.247655
C153	C	0.153293	-0.456633	0.293275
C154	C	0.150072	-0.503401	0.316665
C155	C	0.153617	-0.365420	0.247659
C156	C	0.147469	-0.541185	0.335561
C157	C	0.147474	-0.339922	0.335572
C158	C	0.147479	-0.339908	0.134234
C159	C	0.144204	-0.588587	0.359267
C160	C	0.144211	-0.312962	0.359282
C161	C	0.144218	-0.312942	0.083555
C162	C	-0.163482	-0.139963	0.293267
C163	C	-0.186875	-0.166567	0.316654
C164	C	-0.117861	-0.162559	0.316187
C165	C	-0.163482	-0.071333	0.224628
C166	C	-0.186873	-0.024557	0.174627
C167	C	-0.117860	-0.094033	0.247653
C168	C	-0.094838	-0.139967	0.293272
C169	C	-0.044835	-0.166574	0.316665
C170	C	-0.186401	-0.094030	0.247648
C171	C	-0.004438	-0.188070	0.335563
C172	C	-0.205773	-0.188061	0.335549
C173	C	-0.205771	0.013233	0.134231
C174	C	0.046242	-0.215038	0.359273
C175	C	-0.229482	-0.215026	0.359253
C176	C	-0.229479	0.060643	0.083553
C177	C	0.095627	0.006487	-0.438489
C178	C	0.095306	-0.016206	-0.461409
C179	C	0.095623	-0.062137	-0.369847
C180	C	0.095303	-0.084726	-0.392871
C181	C	0.095625	-0.062133	-0.438492
C182	C	0.095305	-0.016210	-0.392868
C183	C	0.108059	0.159543	-0.480399
C184	C	0.111575	0.202893	-0.502003
C185	C	0.113340	0.224640	-0.547210
C186	C	0.117161	0.271637	-0.570634
C187	C	0.111587	0.203038	-0.570814
C188	C	0.108065	0.159695	-0.549212
C189	C	0.106302	0.137948	-0.504002
C190	C	0.108054	-0.116452	-0.549685
C191	C	0.111568	-0.141562	-0.571444
C192	C	0.113332	-0.188519	-0.547992
C193	C	0.117148	-0.215753	-0.571578
C194	C	0.111577	-0.210363	-0.502779
C195	C	0.108055	-0.185249	-0.481023
C196	C	0.106297	-0.138292	-0.504481
C197	C	0.108046	-0.116473	-0.204312
C198	C	0.111564	-0.141591	-0.157432
C199	C	0.113326	-0.188548	-0.133918
C200	C	0.117142	-0.215786	-0.083088
C201	C	0.111574	-0.210388	-0.157283
C202	C	0.108058	-0.185270	-0.204161
C203	C	0.106290	-0.138308	-0.227673
C204	C	0.102487	0.090947	-0.480580
C205	C	0.099445	0.053484	-0.461911
C206	C	0.099438	-0.089371	-0.319019
C207	C	0.102477	-0.111078	-0.278503
C208	C	0.099442	-0.089362	-0.462081
C209	C	0.102482	-0.111066	-0.480886
O210	O	0.118477	-0.256700	0.452885
O211	O	0.140984	-0.334299	0.397762
O212	O	0.063360	-0.256699	0.397752
O213	O	0.196101	-0.334300	0.452895
O214	O	0.063367	-0.193672	0.334708
O215	O	0.140992	-0.271271	0.334718
O216	O	0.118484	-0.193673	0.389842
Cu217	Cu	0.129739	-0.226717	0.356523
Cu218	Cu	0.129730	-0.301254	0.431080
O219	O	0.196108	-0.271272	0.389852
C220	C	-0.500364	0.533998	-0.438484
C221	C	-0.477341	0.556591	-0.461399
C222	C	-0.431721	0.465364	-0.369840
C223	C	-0.408802	0.488061	-0.392859
C224	C	-0.431720	0.533995	-0.438478
C225	C	-0.477342	0.488064	-0.392865
C226	C	-0.665898	0.588334	-0.480407
C227	C	-0.712776	0.613450	-0.502014
C228	C	-0.736291	0.660414	-0.547220
C229	C	-0.787122	0.687654	-0.570647
C230	C	-0.712926	0.682257	-0.570819
C231	C	-0.666050	0.657138	-0.549214
C232	C	-0.642536	0.610174	-0.504006
C233	C	-0.389802	0.657585	-0.549654
C234	C	-0.368196	0.682850	-0.571408
C235	C	-0.322990	0.661164	-0.547952
C236	C	-0.299561	0.688558	-0.571532
C237	C	-0.299388	0.614205	-0.502740
C238	C	-0.320990	0.588935	-0.480990
C239	C	-0.366202	0.610633	-0.504452
C240	C	-0.389804	0.312282	-0.204314
C241	C	-0.368201	0.268929	-0.157436
C242	C	-0.322993	0.247179	-0.133918
C243	C	-0.299567	0.200174	-0.083089
C244	C	-0.299392	0.268786	-0.157278
C245	C	-0.320998	0.312139	-0.204154
C246	C	-0.366204	0.333881	-0.227670
C247	C	-0.591708	0.582942	-0.480581
C248	C	-0.551193	0.561234	-0.461909
C249	C	-0.408297	0.418359	-0.319013
C250	C	-0.389626	0.380890	-0.278499
C251	C	-0.408296	0.561393	-0.462062
C252	C	-0.389624	0.583232	-0.480862
H253	H	-0.099379	-0.074998	-0.024355
C254	C	0.106068	0.136287	-0.574846
C255	C	0.064424	0.140531	-0.579026
C256	C	0.062568	0.118976	-0.602642
H257	H	0.131519	0.099633	-0.558005
H258	H	0.107599	0.155448	-0.604877
H259	H	0.062897	0.121369	-0.549001
H260	H	0.038965	0.177179	-0.595871
H261	H	0.064099	0.138138	-0.632672
H262	H	0.088021	0.082324	-0.585798
H263	H	0.034311	0.121858	-0.605485
H264	H	-0.262268	-0.248920	-0.138435
H265	H	0.154122	-0.452930	0.353678
H266	H	-0.223884	-0.075035	0.229163
H267	H	-0.647026	-0.449354	0.023185
C268	C	0.154327	-0.316156	0.223098
C269	C	0.154540	-0.301142	0.253042
C270	C	0.155198	-0.255769	0.230435
H271	H	0.127555	-0.287567	0.196128
H272	H	0.181408	-0.324156	0.214427
H273	H	0.127462	-0.293140	0.261707
H274	H	0.181310	-0.329718	0.280012
H275	H	0.182279	-0.263768	0.221764
H276	H	0.128426	-0.227184	0.203466
H277	H	0.155347	-0.245579	0.250750
H278	H	0.106619	-0.078217	-0.568789
C279	C	-0.250341	0.590738	-0.477259
C280	C	-0.250491	0.628278	-0.473161
C281	C	-0.205320	0.606679	-0.449684
H282	H	-0.230571	0.582195	-0.494160
H283	H	-0.239371	0.559167	-0.447207
H284	H	-0.261455	0.659840	-0.503208
H285	H	-0.270252	0.636825	-0.456256
H286	H	-0.194350	0.575108	-0.419631
H287	H	-0.185553	0.598136	-0.466587
H288	H	-0.205416	0.632144	-0.446896
C289	C	-0.236390	-0.068567	-0.024563
C290	C	-0.251626	-0.023402	-0.024780
C291	C	-0.297675	0.000036	-0.025452
H292	H	-0.238224	-0.093700	0.002205
H293	H	-0.255462	-0.058163	-0.051648
H294	H	-0.232560	-0.033807	0.002303
H295	H	-0.249804	0.001743	-0.051546
H296	H	-0.316746	0.010440	-0.052537
H297	H	-0.299504	-0.025101	0.001316
H298	H	-0.308020	0.030686	-0.025603
C299	C	-0.250313	0.245265	-0.131823
C300	C	-0.234276	0.273475	-0.162311
C301	C	-0.189071	0.251828	-0.138878
H302	H	-0.230534	0.208622	-0.120649
H303	H	-0.250310	0.248098	-0.106421
H304	H	-0.234276	0.270637	-0.187705
H305	H	-0.254043	0.310117	-0.173487
H306	H	-0.189068	0.254661	-0.113477
H307	H	-0.169295	0.215186	-0.127706
H308	H	-0.178185	0.270968	-0.159560
C309	C	-0.358813	-0.537260	0.035221
C310	C	-0.343577	-0.507544	0.035440
C311	C	-0.297527	-0.530815	0.036116
H312	H	-0.356978	-0.537465	0.008454
H313	H	-0.339744	-0.573000	0.062307
H314	H	-0.362641	-0.471813	0.008358
H315	H	-0.345400	-0.507337	0.062206
H316	H	-0.278457	-0.566555	0.063202
H317	H	-0.295696	-0.531019	0.009348
H318	H	-0.287181	-0.510659	0.036269
H319	H	-0.099372	-0.452898	0.229148
C320	C	-0.093132	-0.459300	0.366146
C321	C	-0.048161	-0.504450	0.381375
C322	C	-0.025365	-0.527845	0.427403
H323	H	-0.109774	-0.469718	0.385256
H324	H	-0.091524	-0.434123	0.367926
H325	H	-0.049770	-0.529622	0.379599
H326	H	-0.031507	-0.494047	0.362277
H327	H	-0.023758	-0.502668	0.429182
H328	H	-0.042011	-0.538259	0.446509
H329	H	0.005151	-0.558479	0.437740
C330	C	-0.093300	-0.068609	0.222943
C331	C	-0.123244	-0.023436	0.177982
C332	C	-0.100638	0.000001	0.155211
H333	H	-0.066330	-0.093740	0.221312
H334	H	-0.084631	-0.058213	0.239626
H335	H	-0.131907	-0.033834	0.161304
H336	H	-0.150214	0.001706	0.179600
H337	H	-0.091968	0.010397	0.171894
H338	H	-0.073669	-0.025134	0.153583
H339	H	-0.120953	0.030656	0.124704
H340	H	-0.495827	-0.530983	0.035020
H341	H	0.094785	-0.121682	-0.374387
C342	C	-0.093141	-0.211828	0.366172
C343	C	-0.048182	-0.226834	0.381406
C344	C	-0.025399	-0.272212	0.427450
H345	H	-0.091507	-0.240418	0.367994
H346	H	-0.109817	-0.203836	0.385253
H347	H	-0.031511	-0.234828	0.362331
H348	H	-0.049804	-0.198257	0.379596
H349	H	-0.042074	-0.264220	0.446530
H350	H	-0.023768	-0.300798	0.429267
H351	H	0.005106	-0.282396	0.437793
H352	H	0.112999	-0.123775	-0.608256
H353	H	0.113006	-0.248593	-0.483685
H354	H	-0.647028	0.674924	-0.568431
C355	C	0.094701	0.008998	-0.511363
C356	C	0.134210	-0.028263	-0.513820
C357	C	0.133669	-0.005078	-0.559827
H358	H	0.094588	0.039646	-0.521836
H359	H	0.067648	0.019343	-0.530431
H360	H	0.161256	-0.038601	-0.494758
H361	H	0.134332	-0.058913	-0.503356
H362	H	0.106616	0.005268	-0.578895
H363	H	0.133555	0.025570	-0.570297
H364	H	0.160473	-0.030357	-0.561501
C365	C	0.094517	0.009198	-0.368273
C366	C	0.054581	0.061865	-0.392971
C367	C	0.053835	0.085283	-0.370324
H368	H	0.121267	0.009439	-0.366673
H369	H	0.094342	-0.010880	-0.337756
H370	H	0.054760	0.081938	-0.423480
H371	H	0.027824	0.061640	-0.394572
H372	H	0.053660	0.065205	-0.339807
H373	H	0.080587	0.085520	-0.368726
H374	H	0.026737	0.121018	-0.387076
H375	H	-0.495829	-0.406511	0.035012
H376	H	0.113001	-0.123813	-0.138408
H377	H	-0.732075	0.720493	-0.607626
H378	H	0.154138	-0.452930	0.229170
C379	C	-0.295367	-0.664475	0.023742
C380	C	-0.291188	-0.668714	0.065384
C381	C	-0.267580	-0.647149	0.067232
H382	H	-0.312211	-0.627822	-0.001713
H383	H	-0.265336	-0.683632	0.022211
H384	H	-0.321213	-0.649556	0.066911
H385	H	-0.274339	-0.705361	0.090846
H386	H	-0.237549	-0.666306	0.065701
H387	H	-0.284427	-0.610497	0.041776
H388	H	-0.264737	-0.650027	0.095487
C389	C	0.106159	-0.065508	-0.229752
C390	C	0.108462	-0.051767	-0.199255
C391	C	0.106732	-0.004827	-0.222674
H392	H	0.077937	-0.037248	-0.255157
H393	H	0.131654	-0.071252	-0.240916
H394	H	0.082969	-0.046020	-0.188098
H395	H	0.136682	-0.080014	-0.173850
H396	H	0.132227	-0.010571	-0.233837
H397	H	0.078510	0.023429	-0.248077
H398	H	0.108299	0.004499	-0.201984
H399	H	0.106623	0.141841	-0.443588
C400	C	0.113501	0.226249	-0.476290
C401	C	0.111216	0.197917	-0.432071
C402	C	0.112997	0.219412	-0.408369
H403	H	0.088027	0.262889	-0.493101
H404	H	0.141741	0.223399	-0.473389
H405	H	0.082980	0.200772	-0.434975
H406	H	0.136689	0.161278	-0.415248
H407	H	0.141237	0.216562	-0.405467
H408	H	0.087522	0.256051	-0.425184
H409	H	0.111451	0.200189	-0.378362
H410	H	0.113022	0.220750	-0.607622
C411	C	-0.295431	0.335686	-0.229516
C412	C	-0.320378	0.389678	-0.245910
C413	C	-0.296836	0.411385	-0.269270
H414	H	-0.292552	0.332920	-0.254945
H415	H	-0.265417	0.316556	-0.208805
H416	H	-0.350383	0.408804	-0.266620
H417	H	-0.323257	0.392460	-0.220490
H418	H	-0.266823	0.392255	-0.248559
H419	H	-0.293959	0.408615	-0.294697
H420	H	-0.313757	0.448020	-0.280393
H421	H	0.106623	-0.203035	-0.444212
C422	C	-0.640446	-0.318835	0.023609
C423	C	-0.662304	-0.266923	-0.016853
C424	C	-0.638878	-0.245121	-0.015155
H425	H	-0.609180	-0.340536	0.025934
H426	H	-0.641002	-0.317550	0.049881
H427	H	-0.661744	-0.268211	-0.043119
H428	H	-0.693569	-0.245209	-0.019187
H429	H	-0.639434	-0.243836	0.011118
H430	H	-0.607613	-0.266826	-0.012828
H431	H	-0.653708	-0.209895	-0.042606
H432	H	-0.732070	-0.403516	0.016804
C433	C	0.106142	-0.209051	-0.229452
C434	C	0.108427	-0.255542	-0.198830
C435	C	0.106661	-0.277462	-0.222112
H436	H	0.131621	-0.217712	-0.240620
H437	H	0.077906	-0.183722	-0.254846
H438	H	0.136660	-0.280866	-0.173444
H439	H	0.082950	-0.246895	-0.187660
H440	H	0.078425	-0.252134	-0.247507
H441	H	0.132141	-0.286120	-0.233280
H442	H	0.108207	-0.309006	-0.201340
H443	H	0.113009	-0.248624	-0.138135
C444	C	-0.358852	0.462820	-0.368207
C445	C	-0.356375	0.500049	-0.365929
C446	C	-0.310372	0.476817	-0.343221
H447	H	-0.339753	0.452458	-0.384879
H448	H	-0.348428	0.432171	-0.337669
H449	H	-0.366794	0.530688	-0.396462
H450	H	-0.375464	0.510415	-0.349254
H451	H	-0.299948	0.446168	-0.312683
H452	H	-0.291277	0.466455	-0.359895
H453	H	-0.308686	0.502071	-0.341669
H454	H	-0.731797	0.595663	-0.482796
C455	C	-0.393897	-0.266252	0.016347
C456	C	-0.438104	-0.252679	0.018661
C457	C	-0.461782	-0.205747	0.016942
H458	H	-0.396822	-0.237938	-0.011876
H459	H	-0.377047	-0.271943	0.041842
H460	H	-0.454950	-0.246985	-0.006832
H461	H	-0.435193	-0.280980	0.046882
H462	H	-0.444933	-0.211437	0.042437
H463	H	-0.464704	-0.177437	-0.011282
H464	H	-0.491778	-0.196534	0.018516
H465	H	-0.099380	-0.199466	-0.024359
H466	H	-0.426617	-0.324814	0.023182
C467	C	-0.502079	0.605906	-0.511362
C468	C	-0.547054	0.620947	-0.526590
C469	C	-0.569860	0.666383	-0.572605
H470	H	-0.485448	0.597981	-0.530488
H471	H	-0.503680	0.634455	-0.513119
H472	H	-0.545451	0.592405	-0.524836
H473	H	-0.563697	0.628883	-0.507476
H474	H	-0.571461	0.694932	-0.574363
H475	H	-0.553225	0.658453	-0.591727
H476	H	-0.600379	0.676597	-0.582942
C477	C	-0.502059	0.462800	-0.368306
C478	C	-0.547023	0.492526	-0.398249
C479	C	-0.569802	0.469267	-0.375643
H480	H	-0.503684	0.462598	-0.341334
H481	H	-0.485386	0.427060	-0.359637
H482	H	-0.563691	0.528257	-0.406911
H483	H	-0.545411	0.492730	-0.425221
H484	H	-0.553130	0.433526	-0.366974
H485	H	-0.571424	0.469066	-0.348672
H486	H	-0.600311	0.489429	-0.395957
C487	C	-0.393893	0.245530	-0.132161
C488	C	-0.438101	0.273844	-0.162792
C489	C	-0.461780	0.252299	-0.139528
H490	H	-0.396816	0.248347	-0.106760
H491	H	-0.377045	0.208890	-0.121008
H492	H	-0.454946	0.310475	-0.173938
H493	H	-0.435192	0.271029	-0.188193
H494	H	-0.444932	0.215658	-0.128375
H495	H	-0.464700	0.255117	-0.114128
H496	H	-0.491776	0.271503	-0.160309
H497	H	-0.426614	0.329984	-0.223458
C498	C	-0.640444	0.537333	-0.431334
C499	C	-0.670934	0.523571	-0.415299
C500	C	-0.647499	0.476589	-0.370098
H501	H	-0.629265	0.543019	-0.411548
H502	H	-0.615047	0.509106	-0.431339
H503	H	-0.696322	0.551790	-0.415291
H504	H	-0.682115	0.517873	-0.435073
H505	H	-0.622102	0.448362	-0.370103
H506	H	-0.636320	0.482280	-0.350316
H507	H	-0.668181	0.467242	-0.359214
C508	C	-0.438877	0.681203	-0.575213
C509	C	-0.454915	0.727722	-0.619465
C510	C	-0.500117	0.749487	-0.643023
H511	H	-0.458659	0.689800	-0.558339
H512	H	-0.438876	0.655814	-0.578057
H513	H	-0.454919	0.753105	-0.616619
H514	H	-0.435146	0.719139	-0.636351
H515	H	-0.500116	0.724098	-0.645867
H516	H	-0.519895	0.758080	-0.626145
H517	H	-0.511003	0.781049	-0.673052
H518	H	-0.301729	-0.203089	-0.443614
C519	C	-0.738215	-0.266194	0.016255
C520	C	-0.775625	-0.224642	-0.025383
C521	C	-0.799077	-0.177629	-0.027229
H522	H	-0.717556	-0.256821	0.017778
H523	H	-0.749415	-0.271863	0.041723
H524	H	-0.764425	-0.218973	-0.050844
H525	H	-0.796294	-0.233998	-0.026915
H526	H	-0.810277	-0.183297	-0.001762
H527	H	-0.778415	-0.168260	-0.025705
H528	H	-0.824465	-0.149431	-0.055478
C529	C	-0.393791	0.733884	-0.620460
C530	C	-0.397941	0.775428	-0.620375
C531	C	-0.421511	0.822448	-0.665554
H532	H	-0.423827	0.743263	-0.631364
H533	H	-0.376921	0.728221	-0.640259
H534	H	-0.414811	0.781091	-0.600583
H535	H	-0.367912	0.766066	-0.609479
H536	H	-0.404641	0.816784	-0.685353
H537	H	-0.451546	0.831821	-0.676455
H538	H	-0.424326	0.850639	-0.665503
H539	H	-0.301770	0.550701	-0.444180
C540	C	-0.438879	-0.664235	0.023694
C541	C	-0.454917	-0.692443	0.021423
C542	C	-0.500119	-0.670804	0.023211
H543	H	-0.458662	-0.627591	-0.001783
H544	H	-0.438877	-0.667076	0.051933
H545	H	-0.454922	-0.689598	-0.006813
H546	H	-0.435147	-0.729088	0.046898
H547	H	-0.500117	-0.673644	0.051450
H548	H	-0.519897	-0.634159	-0.002267
H549	H	-0.511005	-0.689942	0.021674
H550	H	-0.387419	-0.748683	0.016816
H551	H	-0.301784	-0.449335	0.023157
C552	C	-0.250323	-0.754900	0.016287
C553	C	-0.236457	-0.797475	0.012819
C554	C	-0.191260	-0.819282	0.011019
H555	H	-0.229806	-0.767607	0.043706
H556	H	-0.249588	-0.728104	-0.010009
H557	H	-0.237189	-0.824266	0.039112
H558	H	-0.256962	-0.784782	-0.014600
H559	H	-0.190525	-0.792487	-0.015277
H560	H	-0.170747	-0.831986	0.038439
H561	H	-0.181848	-0.848169	0.008662
H562	H	-0.262587	-0.403497	0.016771
H563	H	-0.496124	0.003081	-0.498917
C564	C	-0.502206	0.009349	-0.368179
C565	C	-0.472264	-0.020369	-0.323216
C566	C	-0.494871	0.002894	-0.300440
H567	H	-0.529176	0.009548	-0.366550
H568	H	-0.510877	0.045091	-0.384856
H569	H	-0.463599	-0.056101	-0.306542
H570	H	-0.445294	-0.020569	-0.324831
H571	H	-0.503542	0.038636	-0.317118
H572	H	-0.521840	0.003092	-0.298815
H573	H	-0.474557	-0.017263	-0.269932
H574	H	-0.371622	-0.121391	-0.374409
C575	C	-0.295293	-0.209059	-0.229779
C576	C	-0.251048	-0.255589	-0.199284
C577	C	-0.227508	-0.277375	-0.222708
H578	H	-0.292433	-0.183700	-0.255180
H579	H	-0.312197	-0.217643	-0.240948
H580	H	-0.234148	-0.247003	-0.188122
H581	H	-0.253894	-0.280959	-0.173882
H582	H	-0.244411	-0.285959	-0.233876
H583	H	-0.224651	-0.252012	-0.248108
H584	H	-0.197486	-0.308950	-0.202019
H585	H	-0.386837	-0.124397	-0.607648
C586	C	-0.249995	-0.261669	-0.476322
C587	C	-0.234112	-0.275258	-0.432106
C588	C	-0.188901	-0.322217	-0.408411
H589	H	-0.230164	-0.256020	-0.493141
H590	H	-0.249932	-0.289959	-0.473418
H591	H	-0.234171	-0.246974	-0.435012
H592	H	-0.253929	-0.280917	-0.415275
H593	H	-0.188838	-0.350507	-0.405506
H594	H	-0.169074	-0.316563	-0.425233
H595	H	-0.178120	-0.331446	-0.378406
H596	H	-0.426308	-0.078556	-0.568458
H597	H	-0.647059	0.142138	-0.568809
C598	C	-0.738448	0.226545	-0.620509
C599	C	-0.737504	0.186840	-0.621355
C600	C	-0.760877	0.208337	-0.666527
H601	H	-0.723652	0.239145	-0.640971
H602	H	-0.769744	0.255459	-0.630113
H603	H	-0.706214	0.157936	-0.611758
H604	H	-0.752303	0.174237	-0.600903
H605	H	-0.792174	0.237250	-0.676131
H606	H	-0.746079	0.220936	-0.686985
H607	H	-0.760244	0.181402	-0.667106
C608	C	-0.738845	0.226997	-0.477400
C609	C	-0.784901	0.269572	-0.506122
C610	C	-0.808513	0.291382	-0.482740
H611	H	-0.724135	0.239704	-0.469596
H612	H	-0.738337	0.200202	-0.449860
H613	H	-0.785407	0.296361	-0.533654
H614	H	-0.799623	0.256878	-0.513927
H615	H	-0.808005	0.264588	-0.455200
H616	H	-0.793800	0.304086	-0.474937
H617	H	-0.839766	0.320268	-0.502223
C618	C	-0.641073	0.136592	-0.431947
C619	C	-0.671700	0.164903	-0.416057
C620	C	-0.648431	0.143363	-0.370832
H621	H	-0.615676	0.139416	-0.431851
H622	H	-0.629916	0.099950	-0.412141
H623	H	-0.682851	0.201536	-0.435859
H624	H	-0.697098	0.162082	-0.416142
H625	H	-0.637274	0.106721	-0.351025
H626	H	-0.623034	0.146188	-0.370740
H627	H	-0.669209	0.162566	-0.360043
H628	H	-0.426314	-0.078564	-0.223203
H629	H	-0.386847	-0.124399	-0.138156
H630	H	-0.223883	-0.328432	0.229146
