data_functionalizedCrystal
_audit_creation_method	'MofGen! by Chris Wilmer'
_symmetry_space_group_name_H-M	'P1'
_symmetry_Int_Tables_number	1
_symmetry_cell_setting	triclinic
loop_
_symmetry_equiv_pos_as_xyz
  x,y,z
_cell_length_a	12.645331
_cell_length_b	18.101395
_cell_length_c	18.101389
_cell_angle_alpha	89.983159
_cell_angle_beta	89.980806
_cell_angle_gamma	90.030083
loop_
_atom_site_label
_atom_site_type_symbol
_atom_site_fract_x
_atom_site_fract_y
_atom_site_fract_z
Zn1	Zn	1.620596	-0.294927	-0.418745
Zn2	Zn	1.620447	-0.418753	-0.294907
Zn3	Zn	1.443321	-0.294928	-0.294918
Zn4	Zn	1.443251	-0.418729	-0.418707
O5	O	1.531904	-0.356834	-0.356819
O6	O	1.768923	-0.311363	-0.402330
O7	O	1.596918	-0.402337	-0.191276
O8	O	1.466929	-0.191295	-0.311364
O9	O	1.768814	-0.402337	-0.311346
O10	O	1.597172	-0.191295	-0.402340
O11	O	1.466785	-0.311364	-0.191283
O12	O	1.294965	-0.311341	-0.311327
O13	O	1.466809	-0.402297	-0.522345
O14	O	1.294913	-0.402297	-0.402274
O15	O	1.597104	-0.311340	-0.522373
O16	O	1.596850	-0.522383	-0.311309
O17	O	1.466664	-0.522366	-0.402264
C18	C	1.256474	-0.356817	-0.356798
C19	C	1.138644	-0.356827	-0.356806
C20	C	1.531762	-0.549245	-0.356798
C21	C	1.531798	-0.631559	-0.356813
C22	C	0.971077	-0.299343	-0.299907
C23	C	1.093637	-0.299492	-0.299656
C24	C	1.094099	-0.434837	-0.335485
C25	C	0.971501	-0.434522	-0.335096
C26	C	0.971494	-0.337044	-0.435247
C27	C	1.094101	-0.335301	-0.434812
C28	C	1.532031	-0.930650	-0.356853
C29	C	1.450312	-0.899345	-0.414221
C30	C	1.449923	-0.813727	-0.414042
C31	C	1.531915	-0.782268	-0.356834
C32	C	1.501670	-0.813404	-0.278784
C33	C	1.501143	-0.899049	-0.279127
C34	C	1.644175	-0.898999	-0.376847
C35	C	1.643515	-0.813348	-0.378559
C36	C	1.531852	-0.698408	-0.356818
C37	C	1.532092	-1.014509	-0.356863
C38	C	1.808409	-0.356853	-0.356841
C39	C	1.926239	-0.356860	-0.356851
C40	C	1.531965	-0.356816	-0.549981
C41	C	1.531991	-0.356808	-0.632295
C42	C	1.532075	-0.163673	-0.356857
C43	C	1.532148	-0.081358	-0.356874
C44	C	1.532053	-0.356669	-0.931387
C45	C	1.449793	-0.413714	-0.900044
C46	C	1.450015	-0.413979	-0.814425
C47	C	1.532021	-0.356738	-0.783004
C48	C	1.643712	-0.377923	-0.814103
C49	C	1.643254	-0.378298	-0.899748
C50	C	1.503593	-0.278311	-0.899810
C51	C	1.501108	-0.278764	-0.814160
C52	C	1.532010	-0.356775	-0.699144
C53	C	1.532071	-0.356633	-1.015246
C54	C	1.531904	-0.356800	-0.164409
C55	C	1.532083	-0.356599	-0.082095
H56	H	1.123756	-0.241644	-0.313021
H57	H	1.367694	-0.920928	-0.401144
Br58	Br	1.750371	-0.777643	-0.313998
H59	H	0.941631	-0.241322	-0.313128
H60	H	0.942498	-0.378937	-0.477675
Br61	Br	1.366482	-0.777760	-0.250046
Br62	Br	1.681536	-0.779430	-0.474298
Br63	Br	1.481461	-0.778632	-0.510501
H64	H	1.671750	-0.920557	-0.432791
H65	H	1.124754	-0.451932	-0.278788
H66	H	1.366800	-0.793300	-0.400798
H67	H	1.705058	-0.919242	-0.335063
H68	H	1.366720	-0.400593	-0.920634
H69	H	1.367192	-0.400722	-0.793398
H70	H	1.556651	-0.234005	-0.792771
H71	H	0.940230	-0.312294	-0.242154
Br72	Br	1.481531	-0.933611	-0.510997
Br73	Br	1.364511	-0.932453	-0.250897
H74	H	1.468395	-0.471441	-0.921570
H75	H	1.558082	-0.919759	-0.234926
Br76	Br	1.597751	-0.779445	-0.205594
H77	H	1.468804	-0.472060	-0.793943
H78	H	1.706621	-0.338552	-0.920484
Br79	Br	1.142447	-0.321313	-0.202825
Br80	Br	0.923749	-0.462533	-0.239573
H81	H	1.123223	-0.277895	-0.450889
H82	H	1.667380	-0.435578	-0.919732
H83	H	1.706648	-0.337679	-0.793752
H84	H	0.941838	-0.478827	-0.374763
Br85	Br	1.603455	-0.207472	-0.933593
H86	H	1.668256	-0.434595	-0.792661
Br87	Br	0.920031	-0.243888	-0.467565
Br88	Br	1.370204	-0.246141	-0.935793
H89	H	1.418914	-0.262787	-0.793833
H90	H	1.123251	-0.478836	-0.375658
Br91	Br	1.145162	-0.400036	-0.509313
