data_functionalizedCrystal
_audit_creation_method	'MofGen! by Chris Wilmer'
_symmetry_space_group_name_H-M	'P1'
_symmetry_Int_Tables_number	1
_symmetry_cell_setting	triclinic
loop_
_symmetry_equiv_pos_as_xyz
  x,y,z
_cell_length_a	21.395362
_cell_length_b	12.645330
_cell_length_c	21.395355
_cell_angle_alpha	89.987670
_cell_angle_beta	89.956060
_cell_angle_gamma	90.033572
loop_
_atom_site_label
_atom_site_type_symbol
_atom_site_fract_x
_atom_site_fract_y
_atom_site_fract_z
Zn1	Zn	0.957916	-0.421713	-0.354613
Zn2	Zn	1.457916	0.078287	0.145387
Zn3	Zn	0.957842	-0.598962	-0.249846
Zn4	Zn	1.457842	-0.098962	0.250154
Zn5	Zn	0.853131	-0.421762	-0.249814
Zn6	Zn	1.353131	0.078238	0.250186
Zn7	Zn	0.853124	-0.598984	-0.354551
Zn8	Zn	1.353124	-0.098984	0.145449
O9	O	0.905503	-0.510355	-0.302206
O10	O	1.405503	-0.010355	0.197794
O11	O	1.045584	-0.445196	-0.340754
O12	O	1.545584	0.054804	0.159246
O13	O	0.943924	-0.575468	-0.162164
O14	O	1.443924	-0.075468	0.337836
O15	O	0.867065	-0.273408	-0.263728
O16	O	1.367065	0.226592	0.236272
O17	O	1.045530	-0.575420	-0.263783
O18	O	1.545530	-0.075420	0.236217
O19	O	0.944050	-0.273372	-0.340723
O20	O	1.444050	0.226628	0.159277
O21	O	0.866993	-0.445280	-0.162140
O22	O	1.366993	0.054720	0.337860
O23	O	0.765452	-0.445301	-0.263668
O24	O	1.265452	0.054699	0.236332
O25	O	0.867053	-0.575457	-0.442237
O26	O	1.367053	-0.075457	0.057763
O27	O	0.765447	-0.575505	-0.340618
O28	O	1.265447	-0.075505	0.159382
O29	O	0.944043	-0.445217	-0.442282
O30	O	1.444043	0.054783	0.057718
O31	O	0.943918	-0.747312	-0.263724
O32	O	1.443918	-0.247312	0.236276
O33	O	0.866981	-0.747328	-0.340650
O34	O	1.366981	-0.247328	0.159350
C35	C	0.742716	-0.510411	-0.302133
C36	C	1.242716	-0.010411	0.197867
C37	C	0.673074	-0.510461	-0.302117
C38	C	1.173074	-0.010461	0.197883
C39	C	0.640375	-0.578348	-0.342125
C40	C	1.140375	-0.078348	0.157875
C41	C	0.574940	-0.578322	-0.342153
C42	C	1.074940	-0.078322	0.157847
C43	C	0.542206	-0.510420	-0.302162
C44	C	1.042206	-0.010420	0.197838
C45	C	0.574913	-0.442520	-0.262151
C46	C	1.074913	0.057480	0.237849
C47	C	0.640348	-0.442540	-0.262129
C48	C	1.140348	0.057460	0.237871
C49	C	0.438480	-0.501880	-0.245756
C50	C	0.938480	-0.001880	0.254244
C51	C	0.373047	-0.501867	-0.245777
C52	C	0.873047	-0.001867	0.254223
C53	C	0.340386	-0.510351	-0.302231
C54	C	0.840386	-0.010351	0.197769
C55	C	0.373165	-0.518870	-0.358665
C56	C	0.873165	-0.018870	0.141335
C57	C	0.438599	-0.518890	-0.358643
C58	C	0.938599	-0.018890	0.141357
C59	C	0.471254	-0.510390	-0.302182
C60	C	0.971254	-0.010390	0.197818
C61	C	0.236734	-0.578213	-0.342272
C62	C	0.736734	-0.078213	0.157728
C63	C	0.171297	-0.578180	-0.342301
C64	C	0.671297	-0.078180	0.157699
C65	C	0.171272	-0.442383	-0.262294
C66	C	0.671272	0.057617	0.237706
C67	C	0.236707	-0.442411	-0.262271
C68	C	0.736707	0.057589	0.237729
C69	C	0.269434	-0.510332	-0.302259
C70	C	0.769434	-0.010332	0.197741
C71	C	0.905458	-0.785785	-0.302197
C72	C	1.405458	-0.285785	0.197803
C73	C	0.905495	-0.903615	-0.302214
C74	C	1.405495	-0.403615	0.197786
C75	C	0.857295	-1.071233	-0.350758
C76	C	1.357295	-0.571233	0.149242
C77	C	0.857048	-0.948674	-0.350602
C78	C	1.357048	-0.448674	0.149398
C79	C	0.887617	-0.948193	-0.236177
C80	C	1.387617	-0.448193	0.263823
C81	C	0.887323	-1.070792	-0.236472
C82	C	1.387323	-0.570792	0.263528
C83	C	0.971870	-1.070679	-0.319173
C84	C	1.471870	-0.570679	0.180827
C85	C	0.971463	-0.948073	-0.320616
C86	C	1.471463	-0.448073	0.179384
C87	C	1.068927	-0.510300	-0.302279
C88	C	1.568927	-0.010300	0.197721
C89	C	1.138568	-0.510276	-0.302311
C90	C	1.638568	-0.010276	0.197689
C91	C	0.905555	-0.510334	-0.465629
C92	C	1.405555	-0.010334	0.034371
C93	C	0.905578	-0.510325	-0.535271
C94	C	1.405578	-0.010325	-0.035271
C95	C	0.905566	-0.233850	-0.302228
C96	C	1.405566	0.266150	0.197772
C97	C	0.905593	-0.116020	-0.302238
C98	C	1.405593	0.383980	0.197762
C99	C	0.945665	-0.442506	-0.568008
C100	C	1.445665	0.057494	-0.068008
C101	C	0.945664	-0.442460	-0.633444
C102	C	1.445664	0.057540	-0.133444
C103	C	0.905582	-0.510252	-0.666139
C104	C	1.405582	-0.010252	-0.166139
C105	C	0.865488	-0.578076	-0.633393
C106	C	1.365488	-0.078076	-0.133393
C107	C	0.865485	-0.578112	-0.567959
C108	C	1.365485	-0.078112	-0.067959
C109	C	0.900619	-0.605707	-0.769809
C110	C	1.400619	-0.105707	-0.269809
C111	C	0.900626	-0.605673	-0.835242
C112	C	1.400626	-0.105673	-0.335242
C113	C	0.905586	-0.510140	-0.867960
C114	C	1.405586	-0.010140	-0.367960
C115	C	0.910553	-0.414639	-0.835237
C116	C	1.410553	0.085361	-0.335237
C117	C	0.910550	-0.414676	-0.769803
C118	C	1.410550	0.085324	-0.269803
C119	C	0.905580	-0.510220	-0.737091
C120	C	1.405580	-0.010220	-0.237091
C121	C	0.945675	-0.442266	-0.971650
C122	C	1.445675	0.057734	-0.471650
C123	C	0.945669	-0.442219	-1.037087
C124	C	1.445669	0.057781	-0.537087
C125	C	0.865496	-0.577844	-1.037035
C126	C	1.365496	-0.077844	-0.537035
C127	C	0.865498	-0.577882	-0.971600
C128	C	1.365498	-0.077882	-0.471600
C129	C	0.905591	-0.510095	-0.938911
C130	C	1.405591	-0.010095	-0.438911
C131	C	0.905488	-0.510300	-0.139418
C132	C	1.405488	-0.010300	0.360582
C133	C	0.905587	-0.510011	-0.069778
C134	C	1.405587	-0.010011	0.430222
H135	H	0.346573	-0.525777	-0.404635
H136	H	0.846573	-0.025777	0.095365
H137	H	0.978317	-0.387064	-0.945034
H138	H	1.478317	0.112936	-0.445034
Cl139	Cl	0.996050	-0.357174	-0.674608
Cl140	Cl	1.496050	0.142826	-0.174608
Cl141	Cl	0.815103	-0.663150	-0.930442
Cl142	Cl	1.315103	-0.163150	-0.430442
Cl143	Cl	0.277879	-0.663591	-0.392546
Cl144	Cl	0.777879	-0.163591	0.107454
Cl145	Cl	0.479805	-0.529593	-0.429585
Cl146	Cl	0.979805	-0.029593	0.070415
H147	H	0.914593	-0.336848	-0.861874
H148	H	1.414593	0.163152	-0.361874
H149	H	0.978312	-0.386986	-1.063741
H150	H	1.478312	0.113014	-0.563741
Cl151	Cl	0.815102	-0.663060	-1.078132
Cl152	Cl	1.315102	-0.163060	-0.578132
H153	H	0.144674	-0.633460	-0.374884
H154	H	0.644674	-0.133460	0.125116
H155	H	0.978310	-0.387306	-0.541397
H156	H	1.478310	0.112694	-0.041397
Cl157	Cl	0.331846	-0.491156	-0.174833
Cl158	Cl	0.831846	0.008844	0.325167
Cl159	Cl	0.894389	-0.725730	-0.876373
Cl160	Cl	1.394389	-0.225730	-0.376373
H161	H	0.838874	-1.099500	-0.222129
H162	H	1.338874	-0.599500	0.277871
Cl163	Cl	0.815086	-0.663378	-0.526801
Cl164	Cl	1.315086	-0.163378	-0.026801
H165	H	0.667017	-0.633653	-0.374688
H166	H	1.167017	-0.133653	0.125312
Cl167	Cl	1.029951	-0.900699	-0.270035
Cl168	Cl	1.529951	-0.400699	0.229965
Cl169	Cl	0.130128	-0.357013	-0.212022
Cl170	Cl	0.630128	0.142987	0.287978
Cl171	Cl	0.813594	-0.900968	-0.213632
Cl172	Cl	1.313594	-0.400968	0.286368
H173	H	0.984945	-0.918934	-0.369216
H174	H	1.484945	-0.418934	0.130784
H175	H	0.263332	-0.387135	-0.229689
H176	H	0.763332	0.112865	0.270311
H177	H	0.896413	-0.683481	-0.743176
H178	H	1.396413	-0.183481	-0.243176
Cl179	Cl	0.815097	-0.663297	-0.674495
Cl180	Cl	1.315097	-0.163297	-0.174495
Cl181	Cl	0.479534	-0.491218	-0.174778
Cl182	Cl	0.979534	0.008782	0.325222
Cl183	Cl	0.939270	-1.116540	-0.178748
Cl184	Cl	1.439270	-0.616540	0.321252
Cl185	Cl	0.681458	-0.357189	-0.211829
Cl186	Cl	1.181458	0.142811	0.288171
Cl187	Cl	0.533823	-0.663673	-0.392452
Cl188	Cl	1.033823	-0.163673	0.107548
Cl189	Cl	0.533764	-0.357152	-0.211879
Cl190	Cl	1.033764	0.142848	0.288121
H191	H	1.007853	-1.099637	-0.283834
H192	H	1.507853	-0.599637	0.216166
H193	H	0.914593	-0.336915	-0.743162
H194	H	1.414593	0.163085	-0.243162
H195	H	0.868234	-0.918533	-0.399567
H196	H	1.368234	-0.418533	0.100433
H197	H	0.921680	-0.919005	-0.199037
H198	H	1.421680	-0.419005	0.300963
Cl199	Cl	0.874402	-1.116667	-0.426607
Cl200	Cl	1.374402	-0.616667	0.073393
Cl201	Cl	0.781188	-0.903559	-0.333280
Cl202	Cl	1.281188	-0.403559	0.166720
Cl203	Cl	0.997048	-1.118312	-0.392258
Cl204	Cl	1.497048	-0.618312	0.107742
Cl205	Cl	0.781911	-1.118992	-0.333669
Cl206	Cl	1.281911	-0.618992	0.166331
