data_functionalizedCrystal
_audit_creation_method	'MofGen! by Chris Wilmer'
_symmetry_space_group_name_H-M	'P1'
_symmetry_Int_Tables_number	1
_symmetry_cell_setting	triclinic
loop_
_symmetry_equiv_pos_as_xyz
  x,y,z
_cell_length_a	13.032831
_cell_length_b	18.050589
_cell_length_c	13.032268
_cell_angle_alpha	97.149417
_cell_angle_beta	90.886977
_cell_angle_gamma	82.833186
loop_
_atom_site_label
_atom_site_type_symbol
_atom_site_fract_x
_atom_site_fract_y
_atom_site_fract_z
Zn1	Zn	1.498351	-0.501530	-0.780835
Zn2	Zn	1.520065	-0.612177	-0.608855
Zn3	Zn	1.348217	-0.470507	-0.587076
Zn4	Zn	1.326314	-0.608161	-0.758980
O5	O	1.423237	-0.548094	-0.683937
O6	O	1.645148	-0.530872	-0.776283
O7	O	1.515523	-0.582081	-0.462049
O8	O	1.368212	-0.370708	-0.612810
O9	O	1.661101	-0.612163	-0.649930
O10	O	1.478515	-0.393501	-0.755164
O11	O	1.389267	-0.477997	-0.446048
O12	O	1.201395	-0.474104	-0.591619
O13	O	1.330881	-0.605320	-0.905796
O14	O	1.185303	-0.575238	-0.717916
O15	O	1.457276	-0.526978	-0.921853
O16	O	1.494284	-0.715559	-0.628738
O17	O	1.351936	-0.712609	-0.739034
C18	C	1.156033	-0.520869	-0.650033
C19	C	1.041718	-0.509242	-0.635553
C20	C	0.982831	-0.554162	-0.691494
C21	C	0.864681	-0.542146	-0.676530
C22	C	1.423115	-0.741032	-0.683904
C23	C	1.423152	-0.823584	-0.683936
C24	C	1.345814	-1.021463	-0.743900
C25	C	1.332669	-1.060964	-0.646879
C26	C	1.423252	-0.974726	-0.683962
C27	C	1.436446	-1.082312	-0.781001
C28	C	1.423345	-1.120722	-0.683996
C29	C	1.410063	-1.013131	-0.586886
C30	C	1.513876	-1.034484	-0.721076
C31	C	1.500775	-1.073962	-0.623995
C32	C	1.423195	-0.890621	-0.683944
C33	C	1.423402	-1.204825	-0.684003
C34	C	1.691484	-0.575426	-0.717973
C35	C	1.805795	-0.587073	-0.732478
C36	C	1.389213	-0.569162	-0.952184
C37	C	1.374714	-0.578139	-1.066495
C38	C	1.423384	-0.354407	-0.683996
C39	C	1.423447	-0.271869	-0.684021
C40	C	1.430788	-0.543380	-1.125403
C41	C	1.415804	-0.552658	-1.243549
C42	C	1.457187	-0.527061	-0.416741
C43	C	1.471885	-0.517894	-0.302456
H44	H	0.842843	-0.634426	-0.791459
O45	O	0.820329	-0.485711	-0.606173
C46	C	0.662122	-0.422244	-0.527174
C47	C	0.712218	-0.486189	-0.606875
H48	H	0.574705	-0.422599	-0.527730
H49	H	0.693613	-0.430805	-0.446834
H50	H	0.680966	-0.365948	-0.548007
H51	H	0.693394	-0.542513	-0.586138
H52	H	0.680724	-0.477562	-0.687192
H53	H	1.489884	-0.506750	-1.088368
H54	H	1.356694	-0.589283	-1.280578
H55	H	1.004664	-0.461885	-0.576587
H56	H	1.398850	-0.983153	-0.504801
H57	H	1.280253	-0.998449	-0.794494
O58	O	1.605280	-1.020087	-0.758361
C59	C	1.758070	-0.958375	-0.724249
C60	C	1.654595	-0.974635	-0.681872
H61	H	1.797961	-0.921612	-0.662436
H62	H	1.809859	-1.013638	-0.746259
H63	H	1.742954	-0.927793	-0.795466
H64	H	1.669615	-1.005194	-0.610629
H65	H	1.602839	-0.919347	-0.659934
H66	H	1.256073	-1.072993	-0.615515
O67	O	1.578858	-1.101185	-0.563314
C68	C	1.653218	-1.096305	-0.392528
C69	C	1.564723	-1.065421	-0.461129
H70	H	1.641832	-1.067392	-0.309902
H71	H	1.653114	-1.159531	-0.393430
H72	H	1.730273	-1.084819	-0.423492
H73	H	1.487624	-1.076852	-0.430214
H74	H	1.564920	-1.002204	-0.460223
H75	H	1.447571	-1.112369	-0.863052
H76	H	1.315608	-0.614761	-1.103528
O77	O	1.027197	-0.610642	-0.761771
C78	C	1.185396	-0.674067	-0.840836
C79	C	1.135293	-0.610085	-0.761194
H80	H	1.272796	-0.673628	-0.840412
H81	H	1.166689	-0.730395	-0.819990
H82	H	1.153775	-0.665512	-0.921130
H83	H	1.166885	-0.618568	-0.680872
H84	H	1.153994	-0.553780	-0.782129
O85	O	1.542367	-0.474233	-1.258126
C86	C	1.621463	-0.425094	-1.099938
C87	C	1.541638	-0.474585	-1.150010
H88	H	1.620885	-0.425350	-1.012518
H89	H	1.701772	-0.448206	-1.131430
H90	H	1.600774	-0.365038	-1.118802
H91	H	1.562230	-0.534651	-1.131166
H92	H	1.461352	-0.451411	-1.118515
