data_functionalizedCrystal
_audit_creation_method	'MofGen! by Chris Wilmer'
_symmetry_space_group_name_H-M	'P1'
_symmetry_Int_Tables_number	1
_symmetry_cell_setting	triclinic
loop_
_symmetry_equiv_pos_as_xyz
  x,y,z
_cell_length_a	16.109302
_cell_length_b	9.016244
_cell_length_c	16.109301
_cell_angle_alpha	89.996338
_cell_angle_beta	96.538369
_cell_angle_gamma	90.009280
loop_
_atom_site_label
_atom_site_type_symbol
_atom_site_fract_x
_atom_site_fract_y
_atom_site_fract_z
O1	O	1.103135	0.123412	-0.106867
O2	O	1.603135	0.623412	0.393133
O3	O	0.861073	0.123401	-0.120165
O4	O	1.361073	0.623401	0.379835
O5	O	0.988754	0.123391	0.007515
O6	O	1.488754	0.623391	0.507515
O7	O	0.975455	0.123421	-0.234547
O8	O	1.475455	0.623421	0.265453
O9	O	0.988735	-0.123289	0.007512
O10	O	1.488735	0.376711	0.507512
O11	O	0.861055	-0.123280	-0.120168
O12	O	1.361055	0.376720	0.379832
O13	O	1.103117	-0.123269	-0.106870
O14	O	1.603117	0.376731	0.393130
Cu15	Cu	0.982084	-0.145799	-0.113519
Cu16	Cu	1.482084	0.354201	0.386481
Cu17	Cu	0.982106	0.145930	-0.113516
Cu18	Cu	1.482106	0.645930	0.386484
O19	O	0.975436	-0.123260	-0.234550
O20	O	1.475436	0.376740	0.265450
C21	C	0.830089	0.000059	-0.119628
C22	C	1.330089	0.500059	0.380372
C23	C	0.737794	0.000054	-0.118013
C24	C	1.237794	0.500054	0.381987
C25	C	0.525443	-0.134398	-0.114279
C26	C	1.025443	0.365602	0.385721
C27	C	0.438723	-0.134393	-0.112752
C28	C	0.938723	0.365607	0.387248
C29	C	0.438754	0.134552	-0.112753
C30	C	0.938754	0.634552	0.387247
C31	C	0.525473	0.134546	-0.114274
C32	C	1.025473	0.634546	0.385726
C33	C	0.568815	0.000066	-0.115041
C34	C	1.068815	0.500066	0.384959
C35	C	0.395375	0.000078	-0.111994
C36	C	0.895375	0.500078	0.388006
C37	C	0.301350	0.000084	-0.110338
C38	C	0.801350	0.500084	0.389662
C39	C	0.662847	0.000059	-0.116695
C40	C	1.162847	0.500059	0.383305
N41	N	0.982075	-0.350985	-0.113521
N42	N	1.482075	0.149015	0.386479
C43	C	0.913568	-0.586012	-0.181597
C44	C	1.413568	-0.086012	0.318403
C45	C	0.913716	-0.414121	-0.181848
C46	C	1.413716	0.085879	0.318152
C47	C	1.068821	-0.413316	-0.132447
C48	C	1.568821	0.086684	0.367553
C49	C	1.068446	-0.585261	-0.132928
C50	C	1.568446	-0.085261	0.367072
C51	C	0.964699	-0.585540	-0.026291
C52	C	1.464699	-0.085540	0.473709
C53	C	0.962699	-0.413586	-0.026876
C54	C	1.462699	0.086414	0.473124
C55	C	1.134101	0.000076	-0.107407
C56	C	1.634101	0.500076	0.392593
C57	C	1.226396	0.000091	-0.109022
C58	C	1.726396	0.500091	0.390978
C59	C	0.988206	0.000050	0.038488
C60	C	1.488206	0.500050	0.538488
C61	C	0.986591	0.000048	0.130784
C62	C	1.486591	0.500048	0.630784
N63	N	0.982122	0.351116	-0.113507
N64	N	1.482122	0.851116	0.386493
C65	C	0.975984	0.000085	-0.265523
C66	C	1.475984	0.500085	0.234477
C67	C	0.977599	0.000096	-0.357819
C68	C	1.477599	0.500096	0.142181
C69	C	1.058599	0.000075	0.353056
C70	C	1.558599	0.500075	0.853056
C71	C	1.057074	0.000087	0.439776
C72	C	1.557074	0.500087	0.939776
C73	C	0.905586	0.000074	0.419902
C74	C	1.405586	0.500074	0.919902
C75	C	0.907111	0.000073	0.333184
C76	C	1.407111	0.500073	0.833184
C77	C	0.983620	0.000065	0.299763
C78	C	1.483620	0.500065	0.799763
C79	C	0.980571	0.000079	0.473202
C80	C	1.480571	0.500079	0.973202
C81	C	0.978918	0.000092	0.567228
C82	C	1.478918	0.500092	1.067228
C83	C	0.985273	0.000055	0.205731
C84	C	1.485273	0.500055	0.705731
H85	H	0.849235	-0.371982	-0.170575
H86	H	1.349235	0.128018	0.329425
H87	H	0.560729	-0.243899	-0.114904
H88	H	1.060729	0.256101	0.385096
H89	H	0.403454	0.244041	-0.112130
H90	H	0.903454	0.744041	0.387870
H91	H	0.843295	0.000077	0.447124
H92	H	1.343295	0.500077	0.947124
H93	H	0.846050	0.000069	0.289790
H94	H	1.346050	0.500069	0.789790
H95	H	0.924835	-0.372966	-0.246571
H96	H	1.424835	0.127034	0.253429
H97	H	0.403413	-0.243887	-0.112132
H98	H	0.903413	0.256113	0.387868
H99	H	0.848883	-0.627411	-0.170508
H100	H	1.348883	-0.127411	0.329492
H101	H	1.121047	-0.372415	-0.084174
H102	H	1.621047	0.127585	0.415826
H103	H	1.121051	-0.626847	-0.085289
H104	H	1.621051	-0.126847	0.414711
H105	H	0.560787	0.244049	-0.114892
H106	H	1.060787	0.744049	0.385108
H107	H	1.084541	-0.370230	-0.195328
H108	H	1.584541	0.129770	0.304672
H109	H	0.924538	-0.629197	-0.245954
H110	H	1.424538	-0.129197	0.254046
H111	H	1.083803	-0.625341	-0.196533
H112	H	1.583803	-0.125341	0.303467
H113	H	0.902823	-0.628993	-0.008086
H114	H	1.402823	-0.128993	0.491914
H115	H	1.120897	0.000072	0.325848
H116	H	1.620897	0.500072	0.825848
H117	H	0.898888	-0.372849	-0.012513
H118	H	1.398888	0.127151	0.487487
H119	H	1.009384	-0.370614	0.026164
H120	H	1.509384	0.129386	0.526164
H121	H	1.014692	-0.626196	0.024378
H122	H	1.514692	-0.126196	0.524378
H123	H	1.118130	0.000098	0.483165
H124	H	1.618130	0.500098	0.983165
