data_functionalizedCrystal
_audit_creation_method	'MofGen! by Chris Wilmer'
_symmetry_space_group_name_H-M	'P1'
_symmetry_Int_Tables_number	1
_symmetry_cell_setting	triclinic
loop_
_symmetry_equiv_pos_as_xyz
  x,y,z
_cell_length_a	14.971475
_cell_length_b	14.971506
_cell_length_c	8.140239
_cell_angle_alpha	90.001941
_cell_angle_beta	89.998156
_cell_angle_gamma	96.383967
loop_
_atom_site_label
_atom_site_type_symbol
_atom_site_fract_x
_atom_site_fract_y
_atom_site_fract_z
O1	O	-1.186957	0.116514	0.136574
O2	O	-0.926557	0.130483	0.136584
O3	O	-1.063727	-0.006701	0.136574
O4	O	-1.049787	0.253697	0.136584
O5	O	-1.063719	-0.006702	-0.136653
O6	O	-0.926549	0.130481	-0.136643
O7	O	-1.186949	0.116512	-0.136653
Zn8	Zn	-1.056748	0.123496	-0.180029
Zn9	Zn	-1.056758	0.123499	0.179960
O10	O	-1.049779	0.253696	-0.136644
C11	C	-0.893228	0.129859	-0.000028
C12	C	-0.793930	0.127992	-0.000024
C13	C	-0.747281	0.127112	-0.148962
C14	C	-0.653982	0.125344	-0.148963
C15	C	-0.607333	0.124462	-0.000024
C16	C	-0.653989	0.125339	0.148925
C17	C	-0.747287	0.127101	0.148924
C18	C	-0.459526	0.121669	0.148916
C19	C	-0.366221	0.119909	0.148917
C20	C	-0.366221	0.119911	-0.148970
C21	C	-0.459519	0.121673	-0.148971
C22	C	-0.506169	0.122552	-0.000022
C23	C	-1.063096	-0.040026	-0.000037
C24	C	-1.061218	-0.139322	-0.000029
C25	C	-1.134637	-0.577607	-0.000033
C26	C	-1.136394	-0.484307	-0.000044
C27	C	-1.055802	-0.427084	-0.000035
C28	C	-0.973446	-0.463166	-0.000032
C29	C	-0.971689	-0.556464	-0.000033
C30	C	-0.977113	-0.268703	-0.000026
C31	C	-0.978869	-0.175398	-0.000022
C32	C	-1.141818	-0.196546	-0.000036
C33	C	-1.140061	-0.289844	-0.000037
C34	C	-1.057705	-0.325919	-0.000032
C35	C	-0.220277	0.117142	-0.000035
C36	C	-0.319573	0.119029	-0.000020
C37	C	-1.050410	0.287021	-0.000029
C38	C	-1.052288	0.386317	-0.000025
N39	N	-1.056748	0.123495	-0.425711
N40	N	-1.056765	0.123493	0.425642
H41	H	-0.328242	0.119191	0.270196
Br42	Br	-0.810599	0.128288	0.351061
H43	H	-0.328235	0.119196	-0.270251
Br44	Br	-0.859925	-0.605425	-0.000040
H45	H	-0.497505	0.122385	0.270207
Br46	Br	-0.869492	-0.097737	-0.000026
Br47	Br	-0.590674	0.124164	-0.351101
Br48	Br	-1.253587	-0.147589	-0.000036
H49	H	-0.910050	-0.298071	-0.000044
H50	H	-1.205687	-0.336434	-0.000034
Br51	Br	-0.590686	0.124103	0.351058
Br52	Br	-0.864068	-0.385507	-0.000033
H53	H	-1.203451	-0.454940	-0.000052
Br54	Br	-0.810580	0.128318	-0.351104
Br55	Br	-1.244019	-0.655259	-0.000026
Br56	Br	-0.522827	0.122884	-0.351104
