data_functionalizedCrystal
_audit_creation_method	'MofGen! by Chris Wilmer'
_symmetry_space_group_name_H-M	'P1'
_symmetry_Int_Tables_number	1
_symmetry_cell_setting	triclinic
loop_
_symmetry_equiv_pos_as_xyz
  x,y,z
_cell_length_a	6.817900
_cell_length_b	16.255699
_cell_length_c	17.110486
_cell_angle_alpha	96.302418
_cell_angle_beta	99.060439
_cell_angle_gamma	103.489404
loop_
_atom_site_label
_atom_site_type_symbol
_atom_site_fract_x
_atom_site_fract_y
_atom_site_fract_z
V1	V	-3.976888	-0.116837	-0.246982
O2	O	-3.965374	0.005874	-0.242010
O3	O	-3.928724	-0.231918	-0.245553
O4	O	-3.906746	-0.114926	-0.354581
O5	O	-3.987504	-0.111928	-0.132227
V6	V	-4.463303	-0.102173	-0.233225
O7	O	-4.231804	-0.149004	-0.277159
O8	O	-4.658585	-0.070006	-0.203048
O9	O	-4.288260	0.012908	-0.234654
O10	O	-4.592214	-0.224884	-0.238197
O11	O	-4.570084	-0.107082	-0.347980
O12	O	-4.310238	-0.104084	-0.125626
C13	C	-3.774486	-0.259976	-0.241723
C14	C	-3.816248	-0.354055	-0.241272
C15	C	-3.727872	-0.576887	-0.236099
C16	C	-3.824390	-0.624571	-0.172334
C17	C	-3.892807	-0.526310	-0.240484
C18	C	-3.870725	-0.646259	-0.303452
C19	C	-3.966747	-0.692700	-0.239725
C20	C	-3.988757	-0.572745	-0.176671
C21	C	-4.035083	-0.594439	-0.307847
C22	C	-4.131723	-0.642098	-0.244069
C23	C	-3.850207	-0.430456	-0.240920
C24	C	-4.009360	-0.788551	-0.239284
C25	C	-3.746450	-0.110740	-0.380799
C26	C	-3.770386	-0.109939	-0.468763
C27	C	-3.962927	-0.113786	-0.514130
C28	C	-3.985406	-0.113033	-0.596781
C29	C	-3.815344	-0.108439	-0.634066
C30	C	-3.622786	-0.104589	-0.588693
C31	C	-3.600307	-0.105336	-0.506042
C32	C	-3.874143	-0.105966	-0.883415
C33	C	-3.896639	-0.105222	-0.966072
C34	C	-4.259257	-0.113665	-0.974155
C35	C	-4.236763	-0.114417	-0.891503
C36	C	-4.044207	-0.110562	-0.846137
C37	C	-3.838317	-0.107672	-0.718549
C38	C	-4.021232	-0.111324	-0.761654
C39	C	-4.105841	0.040961	-0.238481
C40	C	-4.043316	0.135039	-0.238938
C41	C	-4.133878	-0.108273	-0.099404
C42	C	-4.089180	-0.109070	-0.011439
H43	H	-3.556741	-0.548387	-0.232652
H44	H	-3.821193	-0.678271	-0.357015
H45	H	-3.735760	-0.638235	-0.115035
O46	O	-3.713198	-0.100266	-1.006285
H47	H	-3.761194	-0.100407	-1.071380
O48	O	-4.358438	-0.679627	-0.248505
H49	H	-4.446055	-0.666856	-0.304262
H50	H	-3.484318	-0.100843	-0.619055
H51	H	-4.159693	-0.115062	-0.731293
O52	O	-3.654882	-0.102743	-0.758752
H53	H	-3.628067	-0.044268	-0.787647
O54	O	-4.146356	-0.118732	-0.473920
H55	H	-4.265966	-0.178546	-0.500304
O56	O	-4.054252	-0.530485	-0.105617
H57	H	-4.022401	-0.460474	-0.106477
O58	O	-4.152377	-0.576293	-0.383740
H59	H	-4.102618	-0.605919	-0.436266
H60	H	-4.142187	-0.116161	-0.633715
O61	O	-4.420180	-0.119372	-0.851285
H62	H	-4.390252	-0.061978	-0.805240
H63	H	-4.416030	-0.116802	-1.011101
O64	O	-3.666475	-0.101821	-0.834490
H65	H	-3.552011	-0.098512	-0.874306
H66	H	-3.443512	-0.102182	-0.469102
