data_functionalizedCrystal
_audit_creation_method	'MofGen! by Chris Wilmer'
_symmetry_space_group_name_H-M	'P1'
_symmetry_Int_Tables_number	1
_symmetry_cell_setting	triclinic
loop_
_symmetry_equiv_pos_as_xyz
  x,y,z
_cell_length_a	29.839134
_cell_length_b	29.839131
_cell_length_c	21.395355
_cell_angle_alpha	89.972174
_cell_angle_beta	89.963393
_cell_angle_gamma	90.027971
loop_
_atom_site_label
_atom_site_type_symbol
_atom_site_fract_x
_atom_site_fract_y
_atom_site_fract_z
Zn1	Zn	0.686793	-0.178992	-0.354422
Zn2	Zn	0.686718	-0.254108	-0.249628
Zn3	Zn	0.611660	-0.178983	-0.249637
Zn4	Zn	0.611632	-0.254086	-0.354346
O5	O	0.649201	-0.216542	-0.302008
O6	O	0.749651	-0.188969	-0.340549
O7	O	0.676741	-0.244147	-0.161951
O8	O	0.621670	-0.116117	-0.263573
O9	O	0.749595	-0.244156	-0.263557
O10	O	0.676870	-0.116124	-0.340558
O11	O	0.621597	-0.188953	-0.161958
O12	O	0.548789	-0.188933	-0.263499
O13	O	0.621622	-0.244120	-0.442034
O14	O	0.548769	-0.244111	-0.340428
O15	O	0.676843	-0.188949	-0.442090
O16	O	0.676714	-0.316972	-0.263483
O17	O	0.621549	-0.316956	-0.340419
C18	C	0.532478	-0.216519	-0.301956
C19	C	0.482544	-0.216520	-0.301949
C20	C	0.125955	-0.187768	-0.262033
C21	C	0.313628	-0.187756	-0.261995
O22	O	0.337891	-0.163272	-0.227999
N23	N	0.337099	-0.216527	-0.301981
C24	C	0.313648	-0.245301	-0.341982
O25	O	0.337918	-0.269770	-0.375995
C26	C	0.125976	-0.245311	-0.342022
C27	C	0.102508	-0.216542	-0.302030
C28	C	0.102487	-0.159001	-0.222044
C29	C	0.055571	-0.159006	-0.222052
C30	C	0.032124	-0.187779	-0.262048
C31	C	0.055592	-0.216547	-0.302037
C32	C	0.102527	-0.274083	-0.382026
C33	C	0.055606	-0.274082	-0.382034
C34	C	0.032137	-0.245313	-0.342041
C35	C	-0.014770	-0.245325	-0.342041
N36	N	-0.038241	-0.216554	-0.302055
C37	C	-0.014794	-0.187781	-0.262059
C38	C	0.412179	-0.245295	-0.341956
C39	C	0.459097	-0.245293	-0.341946
C40	C	0.459073	-0.187747	-0.261960
C41	C	0.412154	-0.187751	-0.261968
C42	C	0.388708	-0.216523	-0.301971
C43	C	-0.113320	-0.187794	-0.262077
C44	C	-0.160239	-0.187803	-0.262086
C45	C	-0.160212	-0.245348	-0.342074
C46	C	-0.113296	-0.245340	-0.342063
C47	C	-0.089851	-0.216560	-0.302062
O48	O	-0.039062	-0.269792	-0.376025
O49	O	-0.039071	-0.163309	-0.228060
C50	C	0.172870	-0.187763	-0.262026
C51	C	0.196339	-0.216531	-0.302015
C52	C	0.172892	-0.245304	-0.342011
C53	C	0.243257	-0.216529	-0.302004
C54	C	0.266704	-0.187756	-0.262007
C55	C	0.243233	-0.158985	-0.222022
C56	C	0.196317	-0.158990	-0.222029
C57	C	0.196362	-0.274076	-0.381997
C58	C	0.243278	-0.274068	-0.381985
C59	C	0.266725	-0.245295	-0.341989
C60	C	0.649132	-0.333265	-0.301955
C61	C	0.649144	-0.383199	-0.301954
C62	C	0.677937	-0.692811	-0.342152
C63	C	0.677986	-0.880484	-0.342189
O64	O	0.702400	-0.904723	-0.376328
N65	N	0.649277	-0.903984	-0.302078
C66	C	0.620552	-0.880563	-0.261957
O67	O	0.596131	-0.904858	-0.227845
C68	C	0.620501	-0.692891	-0.261923
C69	C	0.649215	-0.669393	-0.302033
C70	C	0.706649	-0.669314	-0.382258
C71	C	0.706638	-0.622398	-0.382246
C72	C	0.677916	-0.598980	-0.342127
C73	C	0.649204	-0.622478	-0.302020
C74	C	0.591774	-0.669471	-0.221806
C75	C	0.591763	-0.622550	-0.221802
C76	C	0.620477	-0.599052	-0.261912
C77	C	0.620472	-0.552145	-0.261889
N78	N	0.649181	-0.528645	-0.302000
C79	C	0.677903	-0.552063	-0.342120
C80	C	0.620581	-0.979094	-0.261977
C81	C	0.620594	-1.026012	-0.261984
C82	C	0.678028	-1.025930	-0.342218
C83	C	0.678017	-0.979011	-0.342206
C84	C	0.649290	-0.955594	-0.302088
C85	C	0.677878	-0.453537	-0.342090
C86	C	0.677866	-0.406617	-0.342073
C87	C	0.620431	-0.406703	-0.261842
C88	C	0.620444	-0.453619	-0.261857
C89	C	0.649170	-0.477034	-0.301986
O90	O	0.596067	-0.527877	-0.227773
O91	O	0.702313	-0.527760	-0.376236
C92	C	0.677948	-0.739727	-0.342164
C93	C	0.649237	-0.763224	-0.302057
C94	C	0.620515	-0.739806	-0.261938
C95	C	0.649250	-0.810142	-0.302065
C96	C	0.677972	-0.833560	-0.342184
C97	C	0.706681	-0.810060	-0.382295
C98	C	0.706670	-0.763145	-0.382283
C99	C	0.591806	-0.763306	-0.221826
C100	C	0.591819	-0.810222	-0.221841
C101	C	0.620541	-0.833640	-0.261961
C102	C	0.766379	-0.216566	-0.302061
C103	C	0.816314	-0.216576	-0.302083
C104	C	0.649238	-0.216533	-0.465432
C105	C	0.649254	-0.216529	-0.535073
C106	C	0.649282	-0.099364	-0.302075
C107	C	0.649316	-0.049429	-0.302103
C108	C	0.678006	-0.187800	-0.567816
C109	C	0.678006	-0.187781	-0.633252
C110	C	0.649258	-0.216499	-0.665941
C111	C	0.620500	-0.245230	-0.633190
C112	C	0.620498	-0.245245	-0.567756
C113	C	0.645686	-0.256949	-0.769597
C114	C	0.645691	-0.256935	-0.835030
C115	C	0.649260	-0.216451	-0.867762
C116	C	0.652834	-0.175981	-0.835054
C117	C	0.652832	-0.175996	-0.769619
C118	C	0.649256	-0.216485	-0.736894
C119	C	0.678013	-0.187699	-0.971458
C120	C	0.678010	-0.187679	-1.036895
C121	C	0.620506	-0.245131	-1.036832
C122	C	0.620508	-0.245148	-0.971396
C123	C	0.649264	-0.216432	-0.938714
C124	C	0.649190	-0.216519	-0.139221
C125	C	0.649261	-0.216396	-0.069580
H126	H	0.177276	-0.297506	-0.414568
H127	H	0.597217	-1.045139	-0.229316
N128	N	0.562460	-0.739386	-0.180854
N129	N	0.533814	-0.713220	-0.202847
H130	H	0.513086	-0.696329	-0.173909
H131	H	0.393093	-0.268726	-0.374533
H132	H	0.701250	-0.387487	-0.374735
N133	N	-0.184161	-0.274742	-0.382929
N134	N	-0.178944	-0.316193	-0.378668
H135	H	-0.195859	-0.336952	-0.407524
H136	H	0.597188	-0.960031	-0.229306
N137	N	0.562413	-0.598630	-0.180829
N138	N	0.520958	-0.603900	-0.184926
H139	H	0.500230	-0.587008	-0.155989
H140	H	0.597067	-0.472751	-0.229192
H141	H	0.568392	-0.688594	-0.189144
N142	N	0.031604	-0.129605	-0.181215
N143	N	0.005454	-0.100998	-0.203345
H144	H	-0.011470	-0.080230	-0.174505
H145	H	0.730018	-0.603269	-0.414909
N146	N	0.736021	-0.833993	-0.423268
N147	N	0.736023	-0.875883	-0.423265
H148	H	0.756742	-0.892789	-0.452201
N149	N	0.562487	-0.834214	-0.180858
N150	N	0.536846	-0.813294	-0.145043
H151	H	0.516128	-0.830236	-0.116102
H152	H	0.701418	-0.164384	-0.659917
H153	H	0.701421	-0.164417	-0.541210
H154	H	0.597094	-0.268509	-1.063447
N155	N	-0.184210	-0.158405	-0.221244
N156	N	-0.210365	-0.129801	-0.243371
H157	H	-0.227293	-0.109038	-0.214529
N158	N	0.591135	-0.274600	-0.534305
N159	N	0.606922	-0.303240	-0.497802
H160	H	0.586184	-0.323973	-0.474176
H161	H	0.177214	-0.135562	-0.189463
N162	N	0.483029	-0.158346	-0.221116
N163	N	0.477812	-0.116897	-0.225395
H164	H	0.494733	-0.096131	-0.196555
H165	H	0.597047	-0.387629	-0.229176
H166	H	0.642660	-0.289908	-0.742951
N167	N	0.126484	-0.303475	-0.422881
N168	N	0.105534	-0.329158	-0.458589
H169	H	0.122453	-0.349917	-0.487447
N170	N	0.735998	-0.739141	-0.423253
N171	N	0.720180	-0.712950	-0.463150
H172	H	0.740895	-0.695998	-0.492084
N173	N	0.267195	-0.129599	-0.181166
N174	N	0.309086	-0.129604	-0.181170
H175	H	0.326012	-0.108851	-0.152319
N176	N	0.707372	-1.049847	-0.383202
N177	N	0.748827	-1.044580	-0.379120
H178	H	0.769549	-1.061473	-0.408066
N179	N	0.656467	-0.134659	-0.736209
N180	N	0.625961	-0.122895	-0.699676
H181	H	0.628526	-0.093700	-0.676080
H182	H	0.597097	-0.268544	-0.944737
H183	H	0.655741	-0.143015	-0.861703
N184	N	0.707386	-0.158364	-0.938078
N185	N	0.733053	-0.132710	-0.967325
H186	H	0.753798	-0.111990	-0.943753
N187	N	0.388177	-0.158367	-0.221121
N188	N	0.361965	-0.174130	-0.181158
H189	H	0.345032	-0.153376	-0.152309
N190	N	0.483072	-0.274686	-0.382783
N191	N	0.509226	-0.303291	-0.360657
H192	H	0.526159	-0.324050	-0.389500
H193	H	0.701422	-0.164282	-1.063553
N194	N	0.642012	-0.298273	-0.868428
N195	N	0.638797	-0.334414	-0.839197
H196	H	0.636186	-0.363610	-0.862783
H197	H	0.597091	-0.268610	-0.659810
H198	H	0.036518	-0.297511	-0.414612
H199	H	0.121572	-0.135568	-0.189474
N200	N	-0.089383	-0.158390	-0.221218
N201	N	-0.110350	-0.132708	-0.185521
H202	H	-0.093445	-0.111942	-0.156663
H203	H	-0.094187	-0.268771	-0.374624
N204	N	0.267240	-0.303465	-0.422839
N205	N	0.246294	-0.329151	-0.458545
H206	H	0.263215	-0.349911	-0.487401
H207	H	0.730037	-0.688376	-0.414932
N208	N	0.707228	-0.477444	-0.383077
N209	N	0.748682	-0.472168	-0.378979
H210	H	0.769413	-0.489051	-0.407922
N211	N	0.707351	-0.955018	-0.383180
N212	N	0.732994	-0.975938	-0.418992
H213	H	0.753713	-0.958995	-0.447932
