data_functionalizedCrystal
_audit_creation_method	'MofGen! by Chris Wilmer'
_symmetry_space_group_name_H-M	'P1'
_symmetry_Int_Tables_number	1
_symmetry_cell_setting	triclinic
loop_
_symmetry_equiv_pos_as_xyz
  x,y,z
_cell_length_a	17.699083
_cell_length_b	17.699083
_cell_length_c	16.176319
_cell_angle_alpha	89.992304
_cell_angle_beta	89.998611
_cell_angle_gamma	83.283015
loop_
_atom_site_label
_atom_site_type_symbol
_atom_site_fract_x
_atom_site_fract_y
_atom_site_fract_z
O1	O	1.004079	0.095713	-0.068632
O2	O	0.783700	0.108166	-0.068660
O3	O	0.900116	-0.008250	-0.068638
O4	O	0.887663	0.212129	-0.068654
O5	O	0.900100	-0.008257	0.068855
O6	O	0.783684	0.108158	0.068834
O7	O	1.004063	0.095706	0.068861
Cu8	Cu	0.893872	0.101931	0.081401
Cu9	Cu	0.893891	0.101940	-0.081200
O10	O	0.887647	0.212121	0.068839
C11	C	0.755495	0.107716	0.000084
C12	C	0.671477	0.106377	0.000073
C13	C	0.622856	0.174710	0.000069
C14	C	0.543913	0.173448	0.000079
C15	C	0.513592	0.103852	0.000089
C16	C	0.562219	0.035513	0.000096
C17	C	0.641161	0.036776	0.000091
C18	C	0.243856	0.030418	0.000117
C19	C	0.164908	0.029160	0.000120
C20	C	0.146608	0.167090	0.000105
C21	C	0.225550	0.168353	0.000100
C22	C	0.274170	0.100015	0.000112
C23	C	0.359769	0.101384	0.000102
C24	C	0.427995	0.102481	0.000093
C25	C	0.899662	-0.036451	0.000109
C26	C	0.898323	-0.120469	0.000109
C27	C	0.966656	-0.169090	0.000119
C28	C	0.965394	-0.248033	0.000111
C29	C	0.895798	-0.278354	0.000100
C30	C	0.827459	-0.229727	0.000088
C31	C	0.828722	-0.150785	0.000089
C32	C	0.822364	-0.548090	0.000080
C33	C	0.821106	-0.627038	0.000081
C34	C	0.959036	-0.645338	0.000102
C35	C	0.960299	-0.566396	0.000104
C36	C	0.891961	-0.517776	0.000087
C37	C	0.893330	-0.432177	0.000094
C38	C	0.894427	-0.363951	0.000099
C39	C	1.032268	0.096156	0.000116
C40	C	1.116286	0.097494	0.000121
C41	C	0.888102	0.240322	0.000091
C42	C	0.889440	0.324340	0.000085
N43	N	0.893864	0.101925	0.195767
N44	N	0.893905	0.101941	-0.195565
C45	C	0.945429	0.050397	0.239040
C46	C	0.945432	0.050396	0.325588
C47	C	0.893875	0.101927	0.368859
C48	C	0.842305	0.153457	0.325579
C49	C	0.842299	0.153454	0.239034
C50	C	0.842331	0.153472	0.674608
C51	C	0.842344	0.153473	0.761159
C52	C	0.945465	0.050414	0.761161
C53	C	0.945458	0.050410	0.674616
C54	C	0.893886	0.101937	0.631344
C55	C	0.893882	0.101937	0.537499
C56	C	0.893883	0.101932	0.462702
H57	H	0.250232	0.225025	0.000089
H58	H	0.800323	0.195413	0.360816
H59	H	1.016971	-0.541714	0.000117
O60	O	0.291113	-0.035941	0.000264
C61	C	0.337340	-0.039339	0.071460
H62	H	0.308359	-0.000589	0.121232
H63	H	0.346332	-0.100324	0.095362
H64	H	0.394709	-0.019852	0.055356
O65	O	0.995569	0.000279	0.632711
C66	C	1.041095	-0.045190	0.689465
H67	H	1.010075	-0.046004	0.751163
H68	H	1.052751	-0.105650	0.664469
H69	H	1.097272	-0.020686	0.698655
O70	O	0.792180	0.203557	0.803067
C71	C	0.746669	0.249047	0.746316
H72	H	0.745868	0.218016	0.684629
H73	H	0.686210	0.260661	0.771333
H74	H	0.771127	0.305246	0.737098
H75	H	0.987456	0.008455	0.796403
O76	O	0.792348	0.203566	0.632494
C77	C	0.832790	0.250220	0.582438
H78	H	0.892063	0.219994	0.569460
H79	H	0.801169	0.262245	0.521585
H80	H	0.837840	0.306147	0.615789
O81	O	0.995555	0.000451	0.367719
C82	C	1.042177	0.040935	0.417752
H83	H	1.011917	0.100198	0.430706
H84	H	1.054214	0.009334	0.478618
H85	H	1.098100	0.046011	0.384394
H86	H	0.537526	-0.021154	0.000116
O87	O	0.099485	0.233546	0.000066
C88	C	0.143176	0.295242	0.000072
H89	H	0.202130	0.275921	-0.025960
H90	H	0.113967	0.343113	-0.039851
H91	H	0.148762	0.316582	0.066031
H92	H	0.987416	0.008438	0.203814
H93	H	0.766718	-0.508512	0.000067
H94	H	0.140225	-0.027517	0.000128
H95	H	0.773078	-0.111198	0.000081
H96	H	0.680748	-0.018868	0.000095
H97	H	1.023330	-0.144409	0.000133
O98	O	1.031825	-0.295183	0.000014
C99	C	1.074093	-0.281460	-0.071194
H100	H	1.055399	-0.221538	-0.094936
H101	H	1.137225	-0.287128	-0.055165
H102	H	1.063836	-0.324615	-0.121062
O103	O	0.652181	0.242384	0.000095
C104	C	0.592334	0.302425	0.000074
H105	H	0.538747	0.281304	0.026109
H106	H	0.608742	0.351023	0.039986
H107	H	0.581121	0.323500	-0.065890
O108	O	0.496609	0.239779	-0.000043
C109	C	0.450410	0.243183	-0.071261
H110	H	0.446524	0.183114	-0.094986
H111	H	0.391026	0.271491	-0.055249
H112	H	0.476320	0.277697	-0.121134
H113	H	1.014680	-0.684934	0.000111
H114	H	0.800309	0.195412	0.203801
O115	O	0.753430	-0.656366	0.000027
C116	C	0.693382	-0.596526	0.000031
H117	H	0.714502	-0.542932	-0.025995
H118	H	0.644794	-0.612934	-0.039900
H119	H	0.672295	-0.585323	0.065987
O120	O	0.759918	-0.259304	0.000113
C121	C	0.773455	-0.339406	0.000096
H122	H	0.832550	-0.358057	0.026134
H123	H	0.728924	-0.363566	0.040009
H124	H	0.769835	-0.361368	-0.065866
