data_functionalizedCrystal
_audit_creation_method	'MofGen! by Chris Wilmer'
_symmetry_space_group_name_H-M	'P1'
_symmetry_Int_Tables_number	1
_symmetry_cell_setting	triclinic
loop_
_symmetry_equiv_pos_as_xyz
  x,y,z
_cell_length_a	10.654562
_cell_length_b	10.967829
_cell_length_c	9.730223
_cell_angle_alpha	77.870761
_cell_angle_beta	89.996961
_cell_angle_gamma	84.601947
loop_
_atom_site_label
_atom_site_type_symbol
_atom_site_fract_x
_atom_site_fract_y
_atom_site_fract_z
O1	O	1.667798	0.175346	-0.155905
O2	O	1.302319	0.192028	-0.159839
O3	O	1.493489	0.002112	-0.114863
O4	O	1.476628	0.365262	-0.200881
O5	O	1.493487	0.002116	0.113716
O6	O	1.302317	0.192033	0.068740
O7	O	1.667796	0.175350	0.072674
Zn8	Zn	1.485056	0.183692	0.106999
Zn9	Zn	1.485059	0.183686	-0.194164
O10	O	1.476626	0.365267	0.027698
C11	C	1.255521	0.190802	-0.045256
C12	C	1.116079	0.187128	-0.044379
C13	C	1.050547	0.185416	0.080614
C14	C	0.919525	0.181973	0.081407
C15	C	0.919578	0.181959	-0.167800
C16	C	1.050598	0.185393	-0.168589
C17	C	1.050515	0.185430	0.224491
C18	C	0.919493	0.181987	0.225283
C19	C	1.492261	-0.044386	0.010438
C20	C	1.488590	-0.182942	0.043248
C21	C	1.486955	-0.244710	-0.060536
C22	C	1.483161	-0.387915	-0.026627
C23	C	1.714595	0.176576	-0.041912
C24	C	1.854037	0.180251	-0.042798
C25	C	1.477854	0.411764	-0.097606
C26	C	1.481525	0.550320	-0.130426
N27	N	1.485063	0.183696	0.312534
N28	N	1.485062	0.183673	-0.399697
C29	C	1.569735	0.099630	0.404369
C30	C	1.569732	0.099614	0.548255
C31	C	1.400381	0.267743	0.508457
C32	C	1.400379	0.267751	0.364575
C33	C	1.667513	0.002566	0.427346
C34	C	1.667509	0.002550	0.571232
H35	H	1.096787	0.099190	0.300171
H36	H	1.646084	-0.093353	0.411013
O37	O	1.309045	0.358408	0.265519
H38	H	1.325871	0.455845	0.270050
H39	H	1.481744	-0.441045	0.087337
H40	H	1.331432	0.336177	0.550846
O41	O	1.486721	-0.253307	0.194205
H42	H	1.572827	-0.238758	0.250542
O43	O	1.788293	0.042802	0.358675
H44	H	1.852330	0.064125	0.438629
O45	O	0.880314	0.061441	0.312984
H46	H	0.827690	0.012790	0.245624
H47	H	1.488358	-0.191574	-0.174493
O48	O	1.627126	-0.117529	0.658760
H49	H	1.541655	-0.096040	0.717853
H50	H	1.764017	0.023936	0.605213
H51	H	1.080075	0.276443	0.247576
O52	O	0.858145	0.296231	0.271364
H53	H	0.932017	0.354898	0.293282
H54	H	1.482919	-0.396549	-0.244391
H55	H	1.103952	0.186767	-0.270366
H56	H	0.866248	0.180546	-0.268927
