data_functionalizedCrystal
_audit_creation_method	'MofGen! by Chris Wilmer'
_symmetry_space_group_name_H-M	'P1'
_symmetry_Int_Tables_number	1
_symmetry_cell_setting	triclinic
loop_
_symmetry_equiv_pos_as_xyz
  x,y,z
_cell_length_a	10.654550
_cell_length_b	9.730223
_cell_length_c	10.654550
_cell_angle_alpha	90.004253
_cell_angle_beta	84.484931
_cell_angle_gamma	90.000043
loop_
_atom_site_label
_atom_site_type_symbol
_atom_site_fract_x
_atom_site_fract_y
_atom_site_fract_z
O1	O	1.667839	0.114187	0.176399
O2	O	1.302361	0.114212	0.193205
O3	O	1.493503	0.114190	0.002062
O4	O	1.476697	0.114209	0.367541
O5	O	1.493490	-0.114390	0.002057
O6	O	1.302348	-0.114368	0.193199
O7	O	1.667827	-0.114393	0.176393
Zn8	Zn	1.485085	-0.150672	0.184796
Zn9	Zn	1.485102	0.150492	0.184802
O10	O	1.476684	-0.114371	0.367536
C11	C	1.255556	-0.000075	0.191968
C12	C	1.116113	-0.000065	0.188276
N13	N	1.485083	-0.356209	0.184790
C14	C	1.036628	-0.000064	0.300818
C15	C	0.905607	-0.000088	0.297341
C16	C	0.933570	-0.000109	0.068772
C17	C	1.064588	-0.000095	0.072250
C18	C	1.569750	-0.428144	0.100188
C19	C	1.569763	-0.572027	0.100189
C20	C	1.400438	-0.572026	0.269404
C21	C	1.400420	-0.428146	0.269396
C22	C	1.714631	-0.000103	0.177630
C23	C	1.854074	-0.000104	0.181322
C24	C	1.492263	-0.000099	-0.044738
C25	C	1.488571	-0.000096	-0.184181
N26	N	1.485114	0.356028	0.184798
C27	C	1.601112	-0.000104	-0.263667
C28	C	1.597636	-0.000087	-0.394688
C29	C	1.369066	-0.000061	-0.366725
C30	C	1.372544	-0.000068	-0.235706
C31	C	1.477925	-0.000079	0.414336
C32	C	1.481617	-0.000072	0.553779
H33	H	1.078574	-0.000049	0.395294
H34	H	1.638687	-0.369576	0.031295
N35	N	1.309138	-0.649610	0.360671
H36	H	1.219877	-0.624589	0.345375
H37	H	1.322104	-0.751650	0.347802
N38	N	0.819874	-0.000162	0.418725
H39	H	0.872401	-0.000166	0.492749
H40	H	0.764861	0.084543	0.422304
N41	N	1.726251	-0.000123	-0.208095
H42	H	1.711382	-0.000134	-0.113034
H43	H	1.775536	-0.084866	-0.237117
N44	N	1.719019	-0.000094	-0.480420
H45	H	1.793044	-0.000113	-0.427894
H46	H	1.722544	-0.084827	-0.535400
N47	N	1.661095	-0.649612	0.008950
H48	H	1.648262	-0.751676	0.021786
H49	H	1.645823	-0.624474	-0.080285
N50	N	0.877979	-0.000125	-0.056358
H51	H	0.906886	0.084607	-0.105716
H52	H	0.906909	-0.084918	-0.105617
N53	N	1.150331	-0.000113	-0.049140
H54	H	1.097812	-0.000127	-0.123170
H55	H	1.205299	0.084625	-0.052679
N56	N	1.309086	-0.350546	0.360639
H57	H	1.255459	-0.417948	0.414242
H58	H	1.357631	-0.290826	0.416608
H59	H	1.274601	-0.000041	-0.408693
N60	N	1.251155	-0.000051	-0.149963
H61	H	1.177125	-0.000041	-0.202483
H62	H	1.247613	-0.084788	-0.094999
