data_functionalizedCrystal
_audit_creation_method	'MofGen! by Chris Wilmer'
_symmetry_space_group_name_H-M	'P1'
_symmetry_Int_Tables_number	1
_symmetry_cell_setting	triclinic
loop_
_symmetry_equiv_pos_as_xyz
  x,y,z
_cell_length_a	19.188928
_cell_length_b	9.065218
_cell_length_c	7.540329
_cell_angle_alpha	90.001757
_cell_angle_beta	90.019655
_cell_angle_gamma	84.079849
loop_
_atom_site_label
_atom_site_type_symbol
_atom_site_fract_x
_atom_site_fract_y
_atom_site_fract_z
O1	O	-0.927575	-0.184158	-0.148163
O2	O	-0.427575	0.315842	0.351837
O3	O	-0.724456	-0.208954	-0.148015
O4	O	-0.224456	0.291046	0.351985
O5	O	-0.830214	0.018232	-0.148088
O6	O	-0.330214	0.518232	0.351912
O7	O	-0.821817	-0.411344	-0.148089
O8	O	-0.321817	0.088656	0.351911
O9	O	-0.830208	0.018235	0.146877
O10	O	-0.330208	0.518235	0.646877
O11	O	-0.724450	-0.208952	0.146950
O12	O	-0.224450	0.291048	0.646950
O13	O	-0.927569	-0.184155	0.146802
O14	O	-0.427569	0.315845	0.646802
Cu15	Cu	-0.826009	-0.196553	0.173809
Cu16	Cu	-0.326009	0.303447	0.673809
Cu17	Cu	-0.826016	-0.196556	-0.175021
Cu18	Cu	-0.326016	0.303444	0.324979
O19	O	-0.821811	-0.411341	0.146876
O20	O	-0.321811	0.088659	0.646876
C21	C	-0.698436	-0.208151	-0.000513
C22	C	-0.198436	0.291849	0.499487
C23	C	-0.620913	-0.205742	-0.000457
C24	C	-0.120913	0.294258	0.499543
C25	C	-0.577024	-0.339047	-0.000480
C26	C	-0.077024	0.160953	0.499520
C27	C	-0.504183	-0.336784	-0.000491
C28	C	-0.004183	0.163216	0.499509
C29	C	-0.475233	-0.201208	-0.000514
C30	C	0.024767	0.298792	0.499486
C31	C	-0.519131	-0.067885	-0.000480
C32	C	-0.019131	0.432115	0.499520
C33	C	-0.591971	-0.070152	-0.000452
C34	C	-0.091971	0.429848	0.499548
N35	N	-0.366450	-0.097580	-0.100960
N36	N	0.133550	0.402420	0.399040
N37	N	-0.297254	-0.095436	-0.100991
N38	N	0.202746	0.404564	0.399009
C39	C	-0.255771	-0.194370	-0.000594
C40	C	0.244229	0.305630	0.499406
N41	N	-0.286095	-0.295553	0.099811
N42	N	0.213905	0.204447	0.599811
N43	N	-0.355297	-0.297702	0.099834
N44	N	0.144703	0.202298	0.599834
C45	C	-0.396251	-0.198735	-0.000543
C46	C	0.103749	0.301265	0.499457
C47	C	-0.132899	-0.325231	-0.000626
C48	C	0.367101	0.174769	0.499374
C49	C	-0.060056	-0.322963	-0.000626
C50	C	0.439944	0.177037	0.499374
C51	C	-0.075006	-0.054060	-0.000633
C52	C	0.424994	0.445940	0.499367
C53	C	-0.147847	-0.056332	-0.000616
C54	C	0.352153	0.443668	0.499384
C55	C	-0.176789	-0.191922	-0.000621
C56	C	0.323211	0.308078	0.499379
C57	C	-0.829404	0.073192	-0.000608
C58	C	-0.329404	0.573192	0.499392
C59	C	-0.826991	0.236951	-0.000615
C60	C	-0.326991	0.736951	0.499385
C61	C	0.046411	-0.184963	-0.000671
C62	C	0.546411	0.315037	0.499329
C63	C	-0.031112	-0.187385	-0.000646
C64	C	0.468888	0.312615	0.499354
C65	C	-0.822621	-0.466301	-0.000608
C66	C	-0.322621	0.033699	0.499392
C67	C	-0.825034	-0.630061	-0.000613
C68	C	-0.325034	-0.130061	0.499387
N69	N	-0.826009	-0.196550	0.419157
N70	N	-0.326009	0.303450	0.919157
N71	N	-0.826022	-0.196548	-0.420370
N72	N	-0.326022	0.303452	0.079630
H73	H	-0.468442	-0.445341	-0.000504
H74	H	0.031558	0.054659	0.499496
C75	C	-0.640253	0.076486	-0.000440
C76	C	-0.140253	0.576486	0.499560
H77	H	-0.687779	0.055717	-0.000415
H78	H	-0.187779	0.555717	0.499585
H79	H	-0.631405	0.132101	-0.103303
H80	H	-0.131405	0.632101	0.396697
H81	H	-0.631369	0.132096	0.102432
H82	H	-0.131369	0.632096	0.602432
H83	H	-0.156464	-0.435636	-0.000604
H84	H	0.343536	0.064364	0.499396
H85	H	-0.051436	0.056329	-0.000762
H86	H	0.448564	0.556329	0.499238
C87	C	-0.487289	0.081244	-0.000516
C88	C	0.012711	0.581244	0.499484
H89	H	-0.437622	0.063503	-0.000556
H90	H	0.062378	0.563503	0.499444
H91	H	-0.502275	0.136120	0.102347
H92	H	-0.002275	0.636120	0.602347
H93	H	-0.502319	0.136107	-0.103388
H94	H	-0.002319	0.636107	0.396612
H95	H	-0.024323	-0.431520	-0.000634
H96	H	0.475677	0.068480	0.499366
H97	H	-0.600584	-0.449455	-0.000488
H98	H	-0.100584	0.050545	0.499512
C99	C	-0.196126	0.090305	-0.000618
C100	C	0.303874	0.590305	0.499382
H101	H	-0.168455	0.171376	-0.000648
H102	H	0.331545	0.671376	0.499352
H103	H	-0.224834	0.095016	0.102250
H104	H	0.275166	0.595016	0.602250
H105	H	-0.224869	0.095003	-0.103485
H106	H	0.275131	0.595003	0.396515
