data_functionalizedCrystal
_audit_creation_method	'MofGen! by Chris Wilmer'
_symmetry_space_group_name_H-M	'P1'
_symmetry_Int_Tables_number	1
_symmetry_cell_setting	triclinic
loop_
_symmetry_equiv_pos_as_xyz
  x,y,z
_cell_length_a	14.853566
_cell_length_b	14.519731
_cell_length_c	13.330367
_cell_angle_alpha	89.994378
_cell_angle_beta	89.995295
_cell_angle_gamma	83.661634
loop_
_atom_site_label
_atom_site_type_symbol
_atom_site_fract_x
_atom_site_fract_y
_atom_site_fract_z
O1	O	1.196425	0.120398	-0.083359
O2	O	0.933972	0.134742	-0.083376
O3	O	1.072147	-0.006670	-0.083358
O4	O	1.058250	0.261810	-0.083377
O5	O	1.072127	-0.006673	0.083489
O6	O	0.933952	0.134739	0.083471
O7	O	1.196405	0.120395	0.083488
Cu8	Cu	1.065177	0.127567	0.098714
Cu9	Cu	1.065201	0.127570	-0.098602
O10	O	1.058230	0.261807	0.083470
C11	C	0.900373	0.134091	0.000045
C12	C	0.800289	0.132144	0.000039
C13	C	0.377111	0.123910	-0.090891
C14	C	0.377110	0.123907	0.091012
C15	C	0.471145	0.125736	0.091009
C16	C	0.518167	0.126653	0.000054
C17	C	0.471154	0.125742	-0.090897
C18	C	0.518164	0.126657	0.181959
C19	C	0.612205	0.128486	0.181959
C20	C	0.659229	0.129397	0.091003
C21	C	0.612210	0.128484	0.000048
C22	C	0.659232	0.129401	-0.090906
C23	C	0.612216	0.128482	-0.181863
C24	C	0.518178	0.126652	-0.181853
C25	C	0.753267	0.131227	0.090994
C26	C	0.753276	0.131233	-0.090912
C27	C	1.071486	-0.041031	0.000065
C28	C	1.069535	-0.143410	0.000066
C29	C	1.067949	-0.226554	0.000063
C30	C	1.065968	-0.330862	0.000056
C31	C	1.064396	-0.414000	0.000049
C32	C	1.062415	-0.518315	0.000043
C33	C	1.230004	0.121046	0.000064
C34	C	1.330089	0.122993	0.000063
C35	C	1.058891	0.296168	0.000044
C36	C	1.060843	0.398547	0.000037
N37	N	1.065167	0.127563	0.237495
N38	N	1.065218	0.127566	-0.237384
C39	C	1.004014	0.190163	0.710110
C40	C	1.126411	0.064971	0.710094
C41	C	1.126401	0.064968	0.605076
C42	C	1.065197	0.127564	0.552570
C43	C	1.004004	0.190164	0.605082
C44	C	1.187600	0.002376	0.552556
C45	C	1.187593	0.002371	0.447531
C46	C	1.126384	0.064964	0.395023
C47	C	1.065187	0.127565	0.447542
C48	C	1.003983	0.190162	0.395036
C49	C	0.942781	0.252760	0.447553
C50	C	0.942795	0.252757	0.552574
C51	C	1.126371	0.064967	0.290001
C52	C	1.003973	0.190163	0.290008
H53	H	0.338827	0.123158	-0.164945
C54	C	0.479230	0.205316	-0.336897
C55	C	0.466494	0.125657	-0.281824
H56	H	0.447322	0.204702	-0.398616
H57	H	0.457038	0.258740	-0.299523
H58	H	0.541967	0.206522	-0.349917
H59	H	0.403757	0.124455	-0.268798
H60	H	0.488681	0.072220	-0.319207
H61	H	0.954130	0.241134	0.247263
H62	H	0.791542	0.131984	0.165049
H63	H	1.237435	-0.048585	0.595309
C64	C	1.308576	-0.121386	0.458076
C65	C	1.254856	-0.066443	0.389809
H66	H	1.350094	-0.163873	0.422437
H67	H	1.341072	-0.082936	0.499019
H68	H	1.270990	-0.154622	0.499057
H69	H	1.292441	-0.033201	0.348832
H70	H	1.222357	-0.104897	0.348849
H71	H	0.338819	0.123167	0.165063
H72	H	0.892952	0.303731	0.404790
H73	H	0.479871	0.125916	0.256009
H74	H	0.650477	0.129232	0.256021
C75	C	0.888478	0.308353	0.713571
C76	C	0.875535	0.321568	0.610302
H77	H	0.846960	0.350840	0.749210
H78	H	0.878583	0.246794	0.730788
H79	H	0.948667	0.318479	0.730750
H80	H	0.815348	0.311436	0.593121
H81	H	0.885423	0.383142	0.593078
H82	H	0.791554	0.131976	-0.164980
H83	H	0.650513	0.129235	-0.255918
H84	H	0.954182	0.241127	0.752872
C85	C	1.179071	-0.094583	0.742440
C86	C	1.193676	-0.003838	0.767810
H87	H	1.220600	-0.137065	0.778072
H88	H	1.118894	-0.104693	0.759664
H89	H	1.187830	-0.103534	0.672376
H90	H	1.184911	0.005115	0.837873
H91	H	1.253867	0.006276	0.750592
H92	H	1.176204	0.014005	0.247247
