data_functionalizedCrystal
_audit_creation_method	'MofGen! by Chris Wilmer'
_symmetry_space_group_name_H-M	'P1'
_symmetry_Int_Tables_number	1
_symmetry_cell_setting	triclinic
loop_
_symmetry_equiv_pos_as_xyz
  x,y,z
_cell_length_a	12.837943
_cell_length_b	12.837942
_cell_length_c	17.766277
_cell_angle_alpha	90.000662
_cell_angle_beta	90.005744
_cell_angle_gamma	94.828940
loop_
_atom_site_label
_atom_site_type_symbol
_atom_site_fract_x
_atom_site_fract_y
_atom_site_fract_z
O1	O	1.402339	0.272135	0.062580
O2	O	1.099206	0.258692	0.062585
O3	O	1.244051	0.113847	0.062578
O4	O	1.257494	0.416981	0.062587
O5	O	1.244030	0.113851	-0.062611
O6	O	1.099185	0.258696	-0.062604
O7	O	1.402318	0.272139	-0.062608
Cu8	Cu	1.250749	0.265418	-0.074037
Cu9	Cu	1.250774	0.265413	0.074013
O10	O	1.257473	0.416984	-0.062602
C11	C	1.060126	0.254153	-0.000009
C12	C	0.943711	0.240608	-0.000008
C13	C	0.718837	0.403437	-0.000013
C14	C	0.609454	0.390716	-0.000013
C15	C	0.615562	0.202445	-0.000010
C16	C	0.724944	0.215166	-0.000011
C17	C	0.776578	0.315666	-0.000012
C18	C	0.885962	0.328386	-0.000007
C19	C	0.892067	0.140116	-0.000010
C20	C	0.782685	0.127395	-0.000009
C21	C	1.239499	0.074780	-0.000016
C22	C	1.225954	-0.041635	-0.000015
C23	C	1.388784	-0.266510	-0.000001
C24	C	1.376062	-0.375892	0.000000
C25	C	1.187791	-0.369785	-0.000005
C26	C	1.200513	-0.260402	-0.000006
C27	C	1.301012	-0.208769	-0.000006
C28	C	1.313732	-0.099384	-0.000012
C29	C	1.125462	-0.093279	-0.000012
C30	C	1.112741	-0.202661	-0.000011
C31	C	1.441398	0.276679	-0.000013
C32	C	1.557813	0.290223	-0.000010
C33	C	1.262025	0.456052	-0.000006
C34	C	1.275569	0.572467	-0.000003
N35	N	1.250740	0.265421	-0.178167
C36	C	1.320553	0.335193	-0.782454
C37	C	1.320544	0.335202	-0.703652
C38	C	1.250783	0.265403	-0.664256
C39	C	1.181008	0.195608	-0.703668
C40	C	1.181013	0.195608	-0.782468
C41	C	1.238562	0.170725	-0.539415
C42	C	1.238565	0.170723	-0.460616
C43	C	1.250764	0.265403	-0.421210
C44	C	1.262982	0.360088	-0.460612
C45	C	1.262986	0.360088	-0.539412
C46	C	1.250770	0.265396	-0.578810
C47	C	1.320519	0.335209	-0.296361
C48	C	1.320502	0.335219	-0.217558
C49	C	1.180972	0.195616	-0.217575
C50	C	1.180984	0.195614	-0.296377
C51	C	1.250762	0.265410	-0.335765
N52	N	1.250792	0.265403	0.178143
H53	H	0.740630	0.045571	-0.000017
C54	C	0.545943	0.487265	-0.000008
H55	H	0.592363	0.548936	-0.000002
H56	H	0.503135	0.486217	-0.043662
H57	H	0.503157	0.486214	0.043656
C58	C	1.225143	0.066573	-0.582757
H59	H	1.226886	0.080132	-0.635331
H60	H	1.280253	0.024951	-0.569838
H61	H	1.159995	0.030390	-0.569850
C62	C	1.077254	-0.426594	-0.000005
H63	H	1.082254	-0.500007	-0.000007
H64	H	1.040660	-0.407411	0.043648
H65	H	1.040659	-0.407422	-0.043670
H66	H	1.124207	0.138779	-0.671586
H67	H	1.377351	0.392038	-0.671565
C68	C	1.104275	0.118832	-0.825813
H69	H	1.062727	0.077259	-0.791067
H70	H	1.060340	0.156945	-0.856560
H71	H	1.142425	0.074908	-0.856546
C72	C	1.002199	-0.259459	-0.000008
H73	H	0.951747	-0.209402	-0.000006
H74	H	0.993315	-0.302010	-0.043661
H75	H	0.993330	-0.301993	0.043657
C76	C	0.942758	0.438929	-0.000010
H77	H	0.892700	0.489379	-0.000018
H78	H	0.985309	0.447813	0.043645
H79	H	0.985293	0.447799	-0.043672
H80	H	0.760878	0.485268	-0.000013
C81	C	0.558752	0.091908	-0.000017
H82	H	0.485339	0.096907	-0.000016
H83	H	0.577930	0.055315	-0.043673
H84	H	0.577930	0.055312	0.043644
C85	C	1.104231	0.118839	-0.174252
H86	H	1.062680	0.077276	-0.209009
H87	H	1.142365	0.074921	-0.143506
H88	H	1.060284	0.156963	-0.143521
C89	C	1.028909	-0.029762	-0.000011
H90	H	1.050876	0.042778	-0.000006
H91	H	0.988137	-0.046437	-0.043665
H92	H	0.988157	-0.046431	0.043653
C93	C	0.955580	0.043560	-0.000008
H94	H	0.909159	-0.018112	-0.000001
H95	H	0.998375	0.044603	-0.043661
H96	H	0.998377	0.044614	0.043656
H97	H	1.395564	-0.057346	-0.000015
H98	H	1.272932	0.437184	-0.571491
H99	H	1.272916	0.437186	-0.428529
C100	C	1.499325	-0.209709	-0.000006
H101	H	1.549778	-0.259765	-0.000002
H102	H	1.508190	-0.167167	-0.043663
H103	H	1.508208	-0.167165	0.043655
H104	H	1.447536	-0.422901	0.000006
H105	H	1.377371	0.392027	-0.814519
C106	C	1.397257	0.411992	-0.339692
H107	H	1.438792	0.453572	-0.304936
H108	H	1.441204	0.373884	-0.370428
H109	H	1.359107	0.455909	-0.370434
H110	H	1.377309	0.392057	-0.185478
H111	H	1.124181	0.138779	-0.328459
C112	C	1.224847	0.066592	-0.417277
H113	H	1.226519	0.080154	-0.364703
H114	H	1.159642	0.030600	-0.430272
H115	H	1.279852	0.024787	-0.430112
