data_functionalizedCrystal
_audit_creation_method	'MofGen! by Chris Wilmer'
_symmetry_space_group_name_H-M	'P1'
_symmetry_Int_Tables_number	1
_symmetry_cell_setting	triclinic
loop_
_symmetry_equiv_pos_as_xyz
  x,y,z
_cell_length_a	16.120530
_cell_length_b	16.120507
_cell_length_c	19.805399
_cell_angle_alpha	87.131122
_cell_angle_beta	87.084478
_cell_angle_gamma	89.824460
loop_
_atom_site_label
_atom_site_type_symbol
_atom_site_fract_x
_atom_site_fract_y
_atom_site_fract_z
Zn1	Zn	1.254404	0.395625	-0.450545
Zn2	Zn	1.247230	0.534679	-0.342780
Zn3	Zn	1.115347	0.388587	-0.331365
Zn4	Zn	1.108237	0.527577	-0.449921
O5	O	1.181304	0.461617	-0.393653
O6	O	1.369816	0.419988	-0.441288
O7	O	1.229709	0.515327	-0.246549
O8	O	1.139772	0.273157	-0.342659
O9	O	1.364546	0.522151	-0.362113
O10	O	1.241936	0.278328	-0.430220
O11	O	1.132815	0.407993	-0.238163
O12	O	0.998040	0.401106	-0.342054
O13	O	1.127652	0.510047	-0.544721
O14	O	0.992815	0.503222	-0.429156
O15	O	1.235041	0.413102	-0.545179
O16	O	1.222814	0.650100	-0.361508
O17	O	1.120696	0.644882	-0.440225
C18	C	0.965255	0.450631	-0.384299
C19	C	0.872828	0.445951	-0.380314
C20	C	1.170227	0.677664	-0.402053
C21	C	1.165564	0.770094	-0.405672
C22	C	1.205568	0.983065	-0.374984
C23	C	1.157067	0.939320	-0.412288
C24	C	1.161796	0.845154	-0.408606
C25	C	1.200840	1.077239	-0.378666
C26	C	0.703602	0.437387	-0.373044
C27	C	0.659844	0.485909	-0.414313
C28	C	0.565681	0.481144	-0.410268
C29	C	0.797774	0.442151	-0.377088
C30	C	1.398197	0.472647	-0.403044
C31	C	1.490623	0.477347	-0.407045
C32	C	1.181354	0.461567	-0.570196
C33	C	1.181375	0.461546	-0.645428
C34	C	1.192415	1.244726	-0.385224
C35	C	1.197068	1.152296	-0.381602
C36	C	1.237293	0.411064	-0.681012
C37	C	1.237303	0.411040	-0.751700
C38	C	1.181397	0.461503	-0.786803
C39	C	1.125473	0.511987	-0.751213
C40	C	1.125460	0.512006	-0.680526
C41	C	1.125524	0.511912	-1.036286
C42	C	1.125543	0.511891	-1.106978
C43	C	1.237367	0.410946	-1.107459
C44	C	1.237354	0.410965	-1.036772
C45	C	1.181427	0.461445	-1.001189
C46	C	1.181416	0.461469	-0.924541
C47	C	1.181412	0.461484	-0.863449
C48	C	1.181306	0.461609	-0.217797
C49	C	1.181458	0.461405	-0.142563
H50	H	1.111991	0.972589	-0.446991
H51	H	1.250641	0.949799	-0.340284
C52	C	1.297914	0.356248	-0.790452
C53	C	1.285940	0.367004	-0.859868
C54	C	1.341749	0.316526	-0.895586
H55	H	1.353198	0.371203	-0.781849
H56	H	1.288597	0.299746	-0.776203
H57	H	1.295264	0.423493	-0.874112
H58	H	1.230667	0.352043	-0.868491
H59	H	1.332432	0.260025	-0.881337
H60	H	1.397030	0.331486	-0.886978
H61	H	1.333628	0.323811	-0.942688
C62	C	1.064934	0.566656	-1.145216
C63	C	1.076937	0.555852	-1.214738
C64	C	1.021133	0.606295	-1.249985
H65	H	1.009648	0.551698	-1.130825
H66	H	1.074235	0.623167	-1.136365
H67	H	1.067629	0.499353	-1.223584
H68	H	1.132212	0.570816	-1.229149
H69	H	1.030434	0.662806	-1.241134
H70	H	0.965850	0.591332	-1.235588
H71	H	1.029275	0.598977	-1.297159
C72	C	0.659214	0.377368	-0.321801
C73	C	0.606928	0.421918	-0.278079
C74	C	0.566022	0.366661	-0.230859
H75	H	0.627130	0.339479	-0.344824
H76	H	0.699021	0.347562	-0.296395
H77	H	0.567126	0.451710	-0.303481
H78	H	0.638991	0.459804	-0.255040
H79	H	0.605829	0.336855	-0.205453
H80	H	0.533943	0.328775	-0.253888
H81	H	0.530548	0.396881	-0.201184
C82	C	0.704331	0.546051	-0.465406
C83	C	0.790236	0.538903	-0.459295
C84	C	0.831247	0.594300	-0.506340
H85	H	0.690893	0.533315	-0.509868
H86	H	0.687325	0.601222	-0.456992
H87	H	0.807236	0.483745	-0.467713
H88	H	0.803698	0.551647	-0.414843
H89	H	0.814240	0.649470	-0.497927
H90	H	0.817802	0.581558	-0.550799
H91	H	0.889537	0.589462	-0.502196
H92	H	1.282820	0.369973	-0.652436
H93	H	1.282902	0.369840	-1.136439
C94	C	1.298087	0.356085	-0.998781
C95	C	1.347046	0.311852	-1.045073
C96	C	1.402993	0.261277	-1.010100
H97	H	1.332757	0.389654	-0.974007
H98	H	1.268151	0.318201	-0.968435
H99	H	1.376979	0.349731	-1.075406
H100	H	1.312398	0.278267	-1.069849
H101	H	1.373057	0.223393	-0.979755
H102	H	1.437658	0.294851	-0.985327
H103	H	1.436213	0.231252	-1.041503
H104	H	1.079996	0.553029	-1.007324
H105	H	1.079951	0.553072	-0.779800
C106	C	1.064723	0.566918	-0.642015
C107	C	1.015786	0.611130	-0.687886
C108	C	0.959834	0.661735	-0.652436
H109	H	1.030039	0.533372	-0.611629
H110	H	1.094655	0.604815	-0.617244
H111	H	0.985856	0.573238	-0.712645
H112	H	1.050447	0.644693	-0.718273
H113	H	0.989766	0.699632	-0.627665
H114	H	0.925155	0.628182	-0.622051
H115	H	0.926628	0.691744	-0.683554
