data_functionalizedCrystal
_audit_creation_method	'MofGen! by Chris Wilmer'
_symmetry_space_group_name_H-M	'P1'
_symmetry_Int_Tables_number	1
_symmetry_cell_setting	triclinic
loop_
_symmetry_equiv_pos_as_xyz
  x,y,z
_cell_length_a	10.489746
_cell_length_b	23.532357
_cell_length_c	8.965430
_cell_angle_alpha	89.994894
_cell_angle_beta	89.999075
_cell_angle_gamma	83.684797
loop_
_atom_site_label
_atom_site_type_symbol
_atom_site_fract_x
_atom_site_fract_y
_atom_site_fract_z
O1	O	1.691346	0.080356	-0.123960
O2	O	1.319897	0.087894	-0.123986
O3	O	1.516856	0.001266	-0.123942
O4	O	1.494388	0.166984	-0.124004
O5	O	1.516839	0.001272	0.124137
O6	O	1.319881	0.087900	0.124092
O7	O	1.691329	0.080361	0.124119
Cu8	Cu	1.505604	0.084131	0.146757
Cu9	Cu	1.505623	0.084124	-0.146625
O10	O	1.494371	0.166990	0.124074
C11	C	1.272377	0.087327	0.000050
C12	C	1.130805	0.085622	0.000041
C13	C	0.979836	0.029493	0.000083
C14	C	1.056277	0.057558	0.122384
C15	C	1.056249	0.057565	-0.122202
C16	C	0.954998	0.110677	0.122481
C17	C	0.954965	0.110676	-0.122215
C18	C	1.031356	0.138780	0.000115
C19	C	1.516286	-0.019952	0.000103
C20	C	1.514596	-0.083181	0.000116
C21	C	1.503997	-0.475266	-0.135193
C22	C	1.502391	-0.534676	-0.135201
O23	O	1.501525	-0.565401	-0.250207
N24	N	1.501586	-0.564390	0.000025
C25	C	1.502373	-0.534689	0.135268
O26	O	1.501539	-0.565418	0.250287
C27	C	1.503970	-0.475280	0.135275
C28	C	1.504789	-0.445570	0.000040
C29	C	1.504814	-0.445557	-0.270416
C30	C	1.506423	-0.386151	-0.270407
C31	C	1.507214	-0.356455	-0.135174
C32	C	1.506397	-0.386164	0.000049
C33	C	1.504749	-0.445580	0.270517
C34	C	1.506345	-0.386166	0.270512
C35	C	1.507163	-0.356457	0.135277
C36	C	1.508797	-0.297062	0.135292
N37	N	1.509603	-0.267349	0.000066
C38	C	1.508811	-0.297045	-0.135167
C39	C	1.499017	-0.659453	0.135243
C40	C	1.497429	-0.718862	0.135237
C41	C	1.497445	-0.718845	-0.135232
C42	C	1.499042	-0.659435	-0.135225
C43	C	1.499823	-0.629740	0.000017
C44	C	1.512191	-0.172288	-0.135138
C45	C	1.513805	-0.112878	-0.135116
C46	C	1.513782	-0.112899	0.135352
C47	C	1.512175	-0.172305	0.135332
C48	C	1.511375	-0.201998	0.000075
O49	O	1.509659	-0.266299	0.250239
O50	O	1.509629	-0.266308	-0.250167
C51	C	1.738850	0.080929	0.000080
C52	C	1.880422	0.082634	0.000079
C53	C	1.494941	0.188207	0.000027
C54	C	1.496631	0.251437	0.000003
N55	N	1.505599	0.084136	0.353107
N56	N	1.505638	0.084115	-0.352974
C57	C	1.414485	0.124185	0.450392
C58	C	1.529593	0.135709	0.549809
C59	C	1.390539	0.072617	0.549817
C60	C	1.620765	0.095686	0.450335
C61	C	1.481636	0.032570	0.450334
C62	C	1.596828	0.044073	0.549706
H63	H	0.910717	0.133087	-0.225637
H64	H	1.293219	0.062883	0.593519
H65	H	1.504165	-0.469729	-0.380545
H66	H	0.956670	-0.016715	0.000224
N67	N	1.454705	-0.025163	0.392411
H68	H	1.374750	-0.020597	0.328831
H69	H	1.529735	-0.042263	0.330480
N70	N	1.114812	0.027838	-0.259165
H71	H	1.096529	-0.013413	-0.259031
H72	H	1.076509	0.047523	-0.351481
N73	N	1.514628	-0.080857	0.281196
H74	H	1.435266	-0.086901	0.340303
H75	H	1.593466	-0.095503	0.340221
H76	H	1.499657	-0.635279	0.245380
H77	H	1.100502	0.035127	0.225802
H78	H	1.054276	0.185023	0.000165
N79	N	0.896677	0.140376	0.259603
H80	H	0.800775	0.139029	0.258795
H81	H	0.934560	0.120451	0.351805
N82	N	1.514693	-0.080834	-0.280982
H83	H	1.513944	-0.108665	-0.366649
H84	H	1.436286	-0.051887	-0.286881
H85	H	1.511533	-0.196457	-0.245277
N86	N	1.507299	-0.354111	-0.416268
H87	H	1.506549	-0.381945	-0.501927
H88	H	1.428885	-0.325167	-0.422167
N89	N	1.499925	-0.627394	-0.281083
H90	H	1.499184	-0.655226	-0.366746
H91	H	1.421510	-0.598451	-0.286988
N92	N	1.312501	0.169083	0.392633
H93	H	1.330789	0.208013	0.428825
H94	H	1.312700	0.168482	0.279994
N95	N	1.496590	-0.750880	-0.281097
H96	H	1.495450	-0.793023	-0.260570
H97	H	1.417797	-0.736200	-0.340156
N98	N	1.496574	-0.750904	0.281096
H99	H	1.497322	-0.723072	0.366759
H100	H	1.416832	-0.771257	0.286989
H101	H	1.504084	-0.469759	0.380640
N102	N	1.511314	-0.204355	0.281187
H103	H	1.512066	-0.176526	0.366856
H104	H	1.431566	-0.224705	0.287070
N105	N	1.556470	0.193457	0.607713
H106	H	1.637359	0.189016	0.669686
H107	H	1.567764	0.219773	0.520854
H108	H	1.506962	-0.361990	0.380645
H109	H	1.718106	0.105472	0.406820
N110	N	1.699013	-0.000804	0.607121
H111	H	1.785853	0.007964	0.570736
H112	H	1.697864	-0.000771	0.719763
