data_functionalizedCrystal
_audit_creation_method	'MofGen! by Chris Wilmer'
_symmetry_space_group_name_H-M	'P1'
_symmetry_Int_Tables_number	1
_symmetry_cell_setting	triclinic
loop_
_symmetry_equiv_pos_as_xyz
  x,y,z
_cell_length_a	21.295418
_cell_length_b	21.295418
_cell_length_c	12.827885
_cell_angle_alpha	90.036412
_cell_angle_beta	90.040448
_cell_angle_gamma	90.043213
loop_
_atom_site_label
_atom_site_type_symbol
_atom_site_fract_x
_atom_site_fract_y
_atom_site_fract_z
Zn1	Zn	0.962349	-0.250313	0.591391
Zn2	Zn	0.962263	-0.355595	0.416631
Zn3	Zn	0.857078	-0.250373	0.416600
Zn4	Zn	0.857047	-0.355577	0.591267
O5	O	0.909684	-0.302964	0.503972
O6	O	1.050427	-0.264261	0.568274
O7	O	0.948287	-0.341669	0.270391
O8	O	0.871091	-0.162275	0.439826
O9	O	1.050364	-0.341611	0.439879
O10	O	0.948433	-0.162231	0.568244
O11	O	0.871008	-0.264363	0.270368
O12	O	0.768985	-0.264346	0.439705
O13	O	0.871039	-0.341581	0.737519
O14	O	0.768962	-0.341639	0.568032
O15	O	0.948403	-0.264244	0.737611
O16	O	0.948257	-0.443682	0.439758
O17	O	0.870956	-0.443669	0.568062
C18	C	0.746133	-0.302998	0.503852
C19	C	0.676165	-0.303027	0.503825
C20	C	0.643303	-0.343327	0.570545
C21	C	0.577560	-0.343311	0.570592
C22	C	0.544682	-0.303002	0.503901
C23	C	0.577552	-0.262695	0.437176
C24	C	0.643293	-0.262707	0.437139
N25	N	0.441409	-0.298091	0.412500
N26	N	0.378958	-0.298083	0.412539
C27	C	0.346607	-0.302962	0.504011
N28	N	0.379068	-0.307862	0.595446
N29	N	0.441525	-0.307873	0.595406
C30	C	0.473397	-0.302984	0.503934
C31	C	0.242460	-0.343248	0.570788
C32	C	0.176716	-0.343228	0.570836
C33	C	0.176709	-0.262614	0.437411
C34	C	0.242452	-0.262631	0.437372
C35	C	0.275323	-0.302951	0.504059
C36	C	0.909611	-0.466516	0.503922
C37	C	0.909637	-0.536484	0.503936
C38	C	0.950086	-1.035928	0.437333
C39	C	0.950063	-0.970185	0.437308
C40	C	0.909773	-0.937324	0.504046
C41	C	0.869493	-0.970210	0.570794
C42	C	0.869514	-1.035951	0.570809
N43	N	0.904881	-0.834066	0.595485
N44	N	0.904865	-0.771615	0.595468
C45	C	0.909707	-0.739249	0.504002
N46	N	0.914579	-0.771694	0.412552
N47	N	0.914598	-0.834151	0.412571
C48	C	0.909746	-0.866038	0.504036
C49	C	0.949956	-0.635085	0.437226
C50	C	0.949927	-0.569341	0.437199
C51	C	0.869361	-0.569367	0.570694
C52	C	0.869386	-0.635109	0.570711
C53	C	0.909687	-0.667965	0.503979
C54	C	1.073875	-0.302932	0.504094
C55	C	1.143843	-0.302918	0.504145
C56	C	0.909727	-0.302904	0.776543
C57	C	0.909746	-0.302878	0.892696
C58	C	0.909775	-0.138774	0.504045
C59	C	0.909814	-0.068806	0.504076
C60	C	0.909678	-0.302979	0.232462
C61	C	0.909782	-0.302828	0.116310
C62	C	0.948032	-0.264602	0.944526
C63	C	0.948052	-0.264574	1.064576
H64	H	0.149941	-0.229791	0.383114
H65	H	0.980794	-0.231850	0.900023
C66	C	0.278605	-0.218306	0.363974
H67	H	0.322466	-0.224083	0.373508
H68	H	0.267778	-0.227464	0.293738
H69	H	0.267880	-0.176018	0.379410
C70	C	0.994409	-1.072065	0.363920
H71	H	1.018386	-1.043064	0.324159
H72	H	1.021830	-1.097665	0.403955
H73	H	0.970348	-1.097754	0.318335
H74	H	0.877004	-0.335602	1.071744
H75	H	0.982720	-0.542572	0.382843
H76	H	0.550779	-0.229874	0.382877
C77	C	0.992337	-0.220306	1.124782
H78	H	0.986539	-0.226093	1.197571
H79	H	1.034633	-0.229505	1.106969
H80	H	0.983152	-0.178004	1.106960
H81	H	0.876977	-0.335624	0.937199
C82	C	0.278624	-0.387588	0.644150
H83	H	0.322484	-0.381829	0.634563
H84	H	0.267904	-0.378420	0.714396
H85	H	0.267799	-0.429873	0.628733
C86	C	0.679460	-0.387688	0.643875
H87	H	0.723321	-0.381933	0.634286
H88	H	0.668747	-0.378542	0.714132
H89	H	0.668628	-0.429966	0.628423
C90	C	0.541404	-0.387606	0.644047
H91	H	0.570397	-0.411611	0.683773
H92	H	0.515828	-0.363521	0.689646
H93	H	0.515690	-0.415013	0.604050
H94	H	0.836688	-0.943450	0.625130
C95	C	0.679443	-0.218379	0.363738
H96	H	0.650449	-0.194370	0.324021
H97	H	0.705143	-0.190986	0.403779
H98	H	0.705034	-0.242437	0.318112
H99	H	0.982858	-0.943411	0.382956
C100	C	0.825040	-0.533230	0.644102
H101	H	0.801055	-0.562230	0.683852
H102	H	0.849092	-0.507534	0.689680
H103	H	0.797616	-0.507636	0.604051
H104	H	0.836719	-1.062720	0.625163
C105	C	0.140565	-0.387557	0.644233
H106	H	0.096703	-0.381771	0.634715
H107	H	0.151287	-0.429843	0.628801
H108	H	0.151395	-0.378396	0.714472
C109	C	0.994276	-0.671229	0.363812
H110	H	1.018251	-0.642229	0.324045
H111	H	1.021699	-0.696826	0.403849
H112	H	0.970214	-0.696921	0.318234
H113	H	0.836594	-0.661879	0.625064
