data_functionalizedCrystal
_audit_creation_method	'MofGen! by Chris Wilmer'
_symmetry_space_group_name_H-M	'P1'
_symmetry_Int_Tables_number	1
_symmetry_cell_setting	triclinic
loop_
_symmetry_equiv_pos_as_xyz
  x,y,z
_cell_length_a	10.723024
_cell_length_b	13.930277
_cell_length_c	10.723023
_cell_angle_alpha	90.003517
_cell_angle_beta	84.467709
_cell_angle_gamma	90.006913
loop_
_atom_site_label
_atom_site_type_symbol
_atom_site_fract_x
_atom_site_fract_y
_atom_site_fract_z
O1	O	1.657193	0.079822	0.175026
O2	O	1.294041	0.079825	0.191780
O3	O	1.483994	0.079820	0.001827
O4	O	1.467240	0.079828	0.364979
O5	O	1.483967	-0.079842	0.001823
O6	O	1.294014	-0.079836	0.191775
O7	O	1.657166	-0.079839	0.175022
Zn8	Zn	1.475586	-0.105188	0.183398
Zn9	Zn	1.475621	0.105174	0.183404
O10	O	1.467213	-0.079834	0.364975
C11	C	1.247528	-0.000005	0.190558
C12	C	1.108973	-0.000004	0.186911
N13	N	1.475571	-0.248754	0.183394
C14	C	1.033991	-0.000001	0.293198
C15	C	0.890787	0.000000	0.289431
C16	C	1.391506	-0.701021	0.267482
C17	C	1.559770	-0.700995	0.099317
C18	C	1.559755	-0.600499	0.099312
C19	C	1.475616	-0.550260	0.183395
C20	C	1.391491	-0.600516	0.267483
C21	C	1.643887	-0.550236	0.015235
C22	C	1.643876	-0.449734	0.015229
C23	C	1.559730	-0.399492	0.099307
C24	C	1.475601	-0.449754	0.183397
C25	C	1.391461	-0.399515	0.267480
C26	C	1.307325	-0.449775	0.351564
C27	C	1.307345	-0.550274	0.351561
C28	C	1.559711	-0.298993	0.099310
C29	C	1.391446	-0.299010	0.267481
C30	C	1.703679	-0.000007	0.176243
C31	C	1.842234	-0.000002	0.179891
C32	C	1.482762	-0.000010	-0.044675
C33	C	1.479114	-0.000007	-0.183229
N34	N	1.475646	0.248740	0.183399
C35	C	1.477502	0.082704	-0.244993
C36	C	1.473733	0.082709	-0.388196
C37	C	1.468445	-0.000002	0.411477
C38	C	1.472093	0.000001	0.550031
H39	H	0.826354	0.000007	0.380421
H40	H	1.075812	-0.000004	0.386984
H41	H	0.906659	0.000002	0.088896
O42	O	1.479358	0.176503	-0.174615
H43	H	1.563609	0.218270	-0.209923
O44	O	1.053597	-0.000013	0.062669
H45	H	0.994950	0.065065	0.055744
O46	O	1.734633	-0.604425	-0.075443
H47	H	1.793142	-0.552595	-0.133901
H48	H	1.473485	-0.070814	-0.396863
H49	H	1.322925	-0.258111	0.335947
H50	H	1.238824	-0.408859	0.420031
H51	H	1.238845	-0.591202	0.420020
O52	O	1.300767	-0.755219	0.358178
H53	H	1.314912	-0.833544	0.344063
H54	H	1.477696	-0.070815	-0.236368
H55	H	1.712383	-0.408818	-0.053238
O56	O	1.650520	-0.755174	0.008630
H57	H	1.636394	-0.833501	0.022753
H58	H	1.628219	-0.258076	0.030856
O59	O	1.471889	0.176516	-0.458535
H60	H	1.469206	0.161800	-0.559972
