data_functionalizedCrystal
_audit_creation_method	'MofGen! by Chris Wilmer'
_symmetry_space_group_name_H-M	'P1'
_symmetry_Int_Tables_number	1
_symmetry_cell_setting	triclinic
loop_
_symmetry_equiv_pos_as_xyz
  x,y,z
_cell_length_a	12.827893
_cell_length_b	12.827892
_cell_length_c	12.827885
_cell_angle_alpha	90.031912
_cell_angle_beta	89.980919
_cell_angle_gamma	89.974911
loop_
_atom_site_label
_atom_site_type_symbol
_atom_site_fract_x
_atom_site_fract_y
_atom_site_fract_z
Zn1	Zn	1.597599	0.415983	-0.590828
Zn2	Zn	2.097599	0.915983	-0.090828
Zn3	Zn	1.597463	0.590761	-0.416082
Zn4	Zn	2.097463	1.090761	0.083918
Zn5	Zn	1.422840	0.416034	-0.416102
Zn6	Zn	1.922840	0.916034	0.083898
Zn7	Zn	1.422796	0.590683	-0.590782
Zn8	Zn	1.922796	1.090683	-0.090782
O9	O	1.510175	0.503365	-0.503448
O10	O	2.010175	1.003365	-0.003448
O11	O	1.743817	0.439179	-0.567658
O12	O	2.243817	0.939179	-0.067658
O13	O	1.574261	0.567637	-0.269848
O14	O	2.074261	1.067637	0.230152
O15	O	1.446098	0.269791	-0.439308
O16	O	1.946098	0.769791	0.060692
O17	O	1.743717	0.567587	-0.439273
O18	O	2.243717	1.067587	0.060727
O19	O	1.574492	0.269754	-0.567678
O20	O	2.074492	0.769754	-0.067678
O21	O	1.445966	0.439266	-0.269863
O22	O	1.945966	0.939266	0.230137
O23	O	1.276598	0.439190	-0.439263
O24	O	1.776598	0.939190	0.060737
O25	O	1.446022	0.567455	-0.737024
O26	O	1.946022	1.067455	-0.237024
O27	O	1.276566	0.567504	-0.567600
O28	O	1.776566	1.067504	-0.067600
O29	O	1.574449	0.439104	-0.737058
O30	O	2.074449	0.939104	-0.237058
O31	O	1.574218	0.736986	-0.439228
O32	O	2.074218	1.236986	0.060772
O33	O	1.445891	0.736929	-0.567580
O34	O	1.945891	1.236929	-0.067580
C35	C	1.238665	0.503345	-0.503430
C36	C	1.738665	1.003345	-0.003430
C37	C	1.122512	0.503362	-0.503446
C38	C	1.622512	1.003362	-0.003446
C39	C	1.510063	0.774875	-0.503420
C40	C	2.010063	1.274875	-0.003420
C41	C	1.510111	0.891028	-0.503443
C42	C	2.010111	1.391028	-0.003443
C43	C	1.070678	0.566804	-0.439833
C44	C	1.570678	1.066804	0.060167
C45	C	0.950628	0.566823	-0.439848
C46	C	1.450628	1.066823	0.060152
C47	C	1.573608	0.942711	-0.567020
C48	C	2.073608	1.442711	-0.067020
C49	C	1.573659	1.062761	-0.567045
C50	C	2.073659	1.562761	-0.067045
C51	C	1.782745	0.503386	-0.503468
C52	C	2.282745	1.003386	-0.003468
C53	C	1.898898	0.503395	-0.503477
C54	C	2.398898	1.003395	-0.003477
C55	C	1.510246	0.503265	-0.776019
C56	C	2.010246	1.003265	-0.276019
C57	C	1.510276	0.503222	-0.892172
C58	C	2.010276	1.003222	-0.392172
C59	C	1.510272	1.230795	-0.503492
C60	C	2.010272	1.730795	-0.003492
C61	C	1.510205	1.114642	-0.503488
C62	C	2.010205	1.614642	-0.003488
C63	C	1.573833	0.439698	-0.943973
C64	C	2.073833	0.939698	-0.443973
C65	C	1.573866	0.439652	-1.064024
C66	C	2.073866	0.939652	-0.564024
C67	C	1.510164	0.503390	-0.231939
C68	C	2.010164	1.003390	0.268061
C69	C	1.510336	0.503138	-0.115786
C70	C	2.010336	1.003138	0.384214
H71	H	1.115178	0.621110	-0.385363
H72	H	1.615178	1.121110	0.114637
F73	F	1.064353	0.432388	-0.574655
F74	F	1.564353	0.932388	-0.074655
F75	F	1.439178	0.574262	-0.950368
F76	F	1.939178	1.074262	-0.450368
F77	F	1.644606	0.884383	-0.638153
F78	F	2.144606	1.384383	-0.138153
H79	H	1.628024	1.107208	-0.621471
H80	H	2.128024	1.607208	-0.121471
H81	H	1.455844	1.070203	-0.449050
H82	H	1.955844	1.570203	0.050950
H83	H	1.455782	0.935657	-0.449036
H84	H	1.955782	1.435657	0.050964
F85	F	0.892368	0.637815	-0.368655
F86	F	1.392368	1.137815	0.131345
H87	H	0.943467	0.449072	-0.557937
H88	H	1.443467	0.949072	-0.057937
F89	F	1.644904	0.368632	-0.885778
F90	F	2.144904	0.868632	-0.385778
F91	F	1.644996	0.368568	-1.122247
F92	F	2.144996	0.868568	-0.622247
F93	F	1.439214	0.574235	-1.057569
F94	F	1.939214	1.074235	-0.557569
