data_functionalizedCrystal
_audit_creation_method	'MofGen! by Chris Wilmer'
_symmetry_space_group_name_H-M	'P1'
_symmetry_Int_Tables_number	1
_symmetry_cell_setting	triclinic
loop_
_symmetry_equiv_pos_as_xyz
  x,y,z
_cell_length_a	12.645330
_cell_length_b	18.215407
_cell_length_c	18.215399
_cell_angle_alpha	89.980167
_cell_angle_beta	90.023030
_cell_angle_gamma	89.981860
loop_
_atom_site_label
_atom_site_type_symbol
_atom_site_fract_x
_atom_site_fract_y
_atom_site_fract_z
Zn1	Zn	-0.422038	-1.125109	0.416141
Zn2	Zn	-0.599320	-1.125033	0.293085
Zn3	Zn	-0.422072	-1.002041	0.293088
Zn4	Zn	-0.599261	-1.002023	0.416110
O5	O	-0.510673	-1.063551	0.354606
O6	O	-0.445565	-1.228083	0.399829
O7	O	-0.575847	-1.108693	0.190101
O8	O	-0.273720	-1.018406	0.309426
O9	O	-0.575813	-1.228027	0.309421
O10	O	-0.273695	-1.108823	0.399832
O11	O	-0.445624	-1.018332	0.190104
O12	O	-0.445566	-0.899055	0.309396
O13	O	-0.575713	-1.018374	0.519099
O14	O	-0.575746	-0.899041	0.399780
O15	O	-0.445507	-1.108805	0.519121
O16	O	-0.747659	-1.108675	0.309391
O17	O	-0.747616	-1.018300	0.399777
C18	C	-0.510654	-0.872345	0.354585
C19	C	-0.510672	-0.790546	0.354594
C20	C	-0.786102	-1.063498	0.354596
C21	C	-0.903932	-1.063542	0.354616
C22	C	-0.510600	-1.063596	0.546559
C23	C	-0.510568	-1.063615	0.628358
C24	C	-1.071513	-1.006922	0.411653
C25	C	-0.948954	-1.006632	0.411470
C26	C	-0.948523	-1.042549	0.277058
C27	C	-1.071122	-1.042203	0.277404
C28	C	-1.071022	-1.141502	0.374509
C29	C	-0.948415	-1.141024	0.376205
C30	C	-0.234167	-1.063625	0.354633
C31	C	-0.116337	-1.063657	0.354644
C32	C	-0.510692	-1.255504	0.354628
C33	C	-0.510700	-1.337303	0.354637
C34	C	-0.578563	-0.602364	0.401597
C35	C	-0.578567	-0.525506	0.401606
C36	C	-0.442801	-0.525490	0.307631
C37	C	-0.442793	-0.602348	0.307626
C38	C	-0.510680	-0.640783	0.354608
C39	C	-0.510692	-0.487067	0.354622
C40	C	-0.510695	-0.403733	0.354632
C41	C	-0.510676	-0.724122	0.354600
C42	C	-0.510669	-1.063549	0.163400
C43	C	-0.510401	-1.063672	0.081602
C44	C	-0.442707	-1.110720	0.816565
C45	C	-0.442676	-1.110728	0.893424
C46	C	-0.578266	-1.016563	0.893389
C47	C	-0.578290	-1.016551	0.816532
C48	C	-0.510513	-1.063634	0.778122
C49	C	-0.510457	-1.063654	0.931838
C50	C	-0.510424	-1.063663	1.015172
C51	C	-0.510544	-1.063624	0.694783
H52	H	-0.918802	-1.019766	0.468979
H53	H	-0.387531	-0.494187	0.269379
H54	H	-0.387508	-0.633629	0.269362
H55	H	-0.919362	-1.082562	0.233421
H56	H	-1.101868	-1.160652	0.430103
H57	H	-1.099813	-0.985298	0.260576
H58	H	-0.387515	-1.149055	0.785294
H59	H	-0.387460	-1.149069	0.924721
H60	H	-0.633839	-0.633656	0.439855
H61	H	-0.633505	-0.978203	0.785230
H62	H	-0.633842	-0.494229	0.439871
H63	H	-1.100776	-1.081734	0.233479
H64	H	-1.102414	-0.949572	0.398661
H65	H	-1.100928	-1.019935	0.469351
H66	H	-0.919719	-0.948921	0.398309
H67	H	-0.633450	-0.978232	0.924672
H68	H	-0.919267	-1.156855	0.433284
H69	H	-0.917762	-1.185520	0.337706
H70	H	-1.100007	-1.183771	0.332986
H71	H	-0.917912	-0.986237	0.259925
