data_functionalizedCrystal
_audit_creation_method	'MofGen! by Chris Wilmer'
_symmetry_space_group_name_H-M	'P1'
_symmetry_Int_Tables_number	1
_symmetry_cell_setting	triclinic
loop_
_symmetry_equiv_pos_as_xyz
  x,y,z
_cell_length_a	14.446369
_cell_length_b	21.606444
_cell_length_c	21.606444
_cell_angle_alpha	60.000398
_cell_angle_beta	89.999503
_cell_angle_gamma	59.997435
loop_
_atom_site_label
_atom_site_type_symbol
_atom_site_fract_x
_atom_site_fract_y
_atom_site_fract_z
Zr1	Zr	0.891761	0.677417	-0.081178
O2	O	0.743950	0.806543	-0.180003
O3	O	0.937074	0.548296	-0.050886
O4	O	0.937073	0.677417	-0.180003
O5	O	0.743950	0.677419	0.050967
O6	O	1.089410	0.677412	-0.179999
O7	O	0.743951	0.677421	-0.050886
O8	O	1.089412	0.446437	0.050968
O9	O	0.743949	0.908394	-0.180000
O10	O	1.070085	0.601399	-0.037960
O11	O	0.956397	0.601401	0.038049
O12	O	0.956396	0.753425	-0.113970
O13	O	0.842708	0.753428	-0.037961
Zr14	Zr	1.134719	0.677404	0.081272
Zr15	Zr	1.134721	0.677408	-0.081172
Zr16	Zr	0.891759	0.677413	0.081266
Zr17	Zr	0.891758	0.839857	-0.081173
Zr18	Zr	1.134722	0.514964	0.081267
O19	O	1.089406	0.806525	0.050980
O20	O	1.089408	0.806530	-0.179995
O21	O	0.743948	0.806537	0.050971
O22	O	1.282530	0.548278	0.180097
O23	O	1.282532	0.548283	-0.050877
O24	O	0.937072	0.548291	0.180089
O25	O	1.282530	0.677402	-0.050873
O26	O	1.089407	0.677403	0.180097
O27	O	0.937070	0.677409	0.180093
O28	O	1.282529	0.677399	0.050980
O29	O	0.937070	0.908387	-0.179995
O30	O	1.089411	0.446434	0.180089
O31	O	1.282532	0.446427	0.180094
O32	O	1.282533	0.446430	0.050973
O33	O	0.743948	0.908391	-0.050879
O34	O	0.937068	0.908384	-0.050874
O35	O	1.070084	0.601395	0.114064
O36	O	1.183772	0.601393	0.038055
O37	O	1.070083	0.753419	-0.037955
O38	O	0.956395	0.753422	0.038054
C39	C	1.013243	0.474222	0.000040
C40	C	1.013244	0.405262	0.000038
C41	C	1.072586	0.372863	-0.039639
C42	C	1.072590	0.308063	-0.039634
C43	C	1.013245	0.275668	0.000044
C44	C	0.953902	0.308069	0.039726
C45	C	0.953905	0.372864	0.039725
C46	C	0.953889	0.046760	0.039733
C47	C	0.953887	-0.018037	0.039729
C48	C	1.072573	-0.018040	-0.039626
C49	C	1.072577	0.046754	-0.039628
C50	C	1.013239	0.079147	0.000057
C51	C	1.013237	0.149409	0.000053
C52	C	1.013240	0.205411	0.000045
C53	C	0.709334	0.677422	0.000039
C54	C	0.606191	0.677425	0.000037
C55	C	0.387821	0.773298	-0.047661
C56	C	0.495053	0.773363	-0.047929
C57	C	0.602869	0.629801	-0.034933
C58	C	0.495100	0.630410	-0.035283
C59	C	0.496462	0.628432	0.082766
C60	C	0.602431	0.630239	0.082635
C61	C	1.317146	0.677399	0.000054
C62	C	1.420289	0.677395	0.000057
C63	C	1.013242	0.677415	-0.203146
C64	C	1.013243	0.677417	-0.272107
C65	C	1.013237	0.880598	0.000053
C66	C	1.013236	0.949559	0.000056
C67	C	1.097166	0.677415	-0.304504
C68	C	1.097170	0.677409	-0.369297
C69	C	1.013244	0.677411	-0.401695
C70	C	0.929316	0.677410	-0.369293
C71	C	0.929318	0.677410	-0.304498
C72	C	0.929306	0.677409	-0.630604
C73	C	0.929308	0.677412	-0.695404
C74	C	1.097158	0.677409	-0.695402
C75	C	1.097160	0.677409	-0.630607
C76	C	1.013236	0.677403	-0.598208
C77	C	1.013234	0.677408	-0.527951
C78	C	1.013240	0.677412	-0.471954
C79	C	1.013238	0.677406	0.203240
C80	C	1.013238	0.677404	0.272201
C81	C	1.317149	0.474211	0.000048
C82	C	1.420293	0.405247	0.000048
C83	C	1.013241	0.474218	0.203233
C84	C	1.013242	0.405256	0.272192
C85	C	1.317148	0.474206	0.203240
C86	C	1.420291	0.405241	0.272202
C87	C	0.709333	0.880614	-0.203147
C88	C	0.606189	0.949580	-0.272109
C89	C	0.709331	0.880610	0.000046
C90	C	0.606187	0.949573	0.000046
C91	C	1.013239	0.880603	-0.203139
C92	C	1.013238	0.949565	-0.272099
C93	C	1.409388	0.372864	-0.039637
C94	C	1.506293	0.308074	-0.039652
C95	C	1.614103	0.275664	0.000023
C96	C	1.625007	0.308054	0.039710
C97	C	1.528102	0.372847	0.039720
C98	C	1.072585	0.372867	0.344262
C99	C	1.072582	0.308080	0.409063
C100	C	1.013240	0.275677	0.401793
C101	C	0.953889	0.308071	0.329715
C102	C	0.953887	0.372863	0.264916
C103	C	1.528082	0.372853	0.264912
C104	C	1.625006	0.308061	0.329703
C105	C	1.614135	0.275655	0.401784
C106	C	1.506333	0.308049	0.409073
C107	C	1.409412	0.372844	0.344283
C108	C	0.498398	0.981976	-0.264818
C109	C	0.401474	1.046788	-0.329609
C110	C	0.412345	1.079198	-0.401690
C111	C	0.520148	1.046799	-0.408979
C112	C	0.617069	0.981993	-0.344189
C113	C	0.617093	0.981963	0.039724
C114	C	0.520187	1.046771	0.039721
C115	C	0.412377	1.079184	0.000044
C116	C	0.401473	1.046791	-0.039640
C117	C	0.498378	0.981989	-0.039641
C118	C	1.072591	0.981947	-0.264804
C119	C	1.072613	1.046736	-0.329592
C120	C	1.013274	1.079145	-0.401675
C121	C	0.953920	1.046756	-0.408968
C122	C	0.953905	0.981965	-0.344181
H123	H	1.120911	0.281684	-0.071941
F124	F	1.539677	0.407334	0.188204
H125	H	0.905559	-0.044412	0.072042
F126	F	0.890728	0.407322	0.188216
F127	F	0.839997	0.677407	-0.270019
F128	F	0.890748	0.407343	0.081957
H129	H	1.120909	0.399243	0.350197
F130	F	0.890720	0.947514	-0.351956
F131	F	1.739756	0.273549	0.081935
H132	H	1.165504	0.677420	-0.278132
F133	F	1.717298	0.206693	0.470734
H134	H	0.333480	1.131950	0.000051
F135	F	1.135753	0.947466	-0.188094
F136	F	1.013298	1.148104	-0.470622
F137	F	0.839980	0.677412	-0.729884
F138	F	1.135733	0.081232	-0.081862
H139	H	0.333416	1.131966	-0.454440
H140	H	1.120916	0.281711	0.467745
H141	H	0.905608	1.073154	-0.467667
F142	F	0.286724	1.081294	-0.081863
F143	F	0.486753	0.947519	-0.081870
H144	H	1.321612	0.399252	-0.071955
H145	H	0.313706	1.073156	-0.323659
F146	F	1.135744	0.407340	-0.081875
H147	H	0.601912	0.664964	0.108760
H148	H	0.704868	0.955578	0.072040
H149	H	1.120894	-0.044424	-0.071937
F150	F	1.739727	0.273593	0.321929
H151	H	0.905576	0.073123	0.072050
F152	F	0.890758	0.273579	0.081965
H153	H	0.332836	0.810755	-0.108304
F154	F	1.186491	0.677406	-0.403775
F155	F	0.492943	0.822200	-0.017270
F156	F	0.531815	1.081231	0.081963
F157	F	0.839987	0.677406	-0.596129
F158	F	0.317291	0.822497	-0.017159
H159	H	0.444756	0.664256	-0.096146
F160	F	1.186482	0.677411	-0.729886
F161	F	0.491851	0.822516	-0.127676
F162	F	0.529934	0.538444	0.007199
H163	H	0.528985	1.073195	-0.467675
F164	F	0.431074	0.668532	0.120953
F165	F	1.494781	0.273551	0.485793
H166	H	0.681138	0.559261	-0.001852
H167	H	0.605004	0.662882	-0.095218
F168	F	1.135784	1.081198	-0.321815
H169	H	0.681591	0.560247	0.121180
F170	F	1.186481	0.677411	-0.596131
H171	H	0.523902	0.557786	0.118487
F172	F	1.013253	0.206719	0.470766
F173	F	0.839999	0.677405	-0.403772
H174	H	1.497393	0.281711	-0.071970
F175	F	1.717229	0.206704	0.000007
F176	F	1.539727	0.407300	0.081966
H177	H	1.321646	0.399206	0.350229
F178	F	0.890739	0.273576	0.321989
H179	H	0.489525	0.955591	-0.206132
F180	F	0.731786	0.947516	-0.351960
