data_functionalizedCrystal
_audit_creation_method	'MofGen! by Chris Wilmer'
_symmetry_space_group_name_H-M	'P1'
_symmetry_Int_Tables_number	1
_symmetry_cell_setting	triclinic
loop_
_symmetry_equiv_pos_as_xyz
  x,y,z
_cell_length_a	14.519709
_cell_length_b	11.026607
_cell_length_c	10.065875
_cell_angle_alpha	100.697662
_cell_angle_beta	98.804604
_cell_angle_gamma	83.866919
loop_
_atom_site_label
_atom_site_type_symbol
_atom_site_fract_x
_atom_site_fract_y
_atom_site_fract_z
O1	O	0.375708	-1.628737	-0.113512
O2	O	0.875708	-1.128737	0.386488
O3	O	0.331718	-1.275335	-0.113511
O4	O	0.831718	-0.775335	0.386489
O5	O	0.221020	-1.461404	-0.113499
O6	O	0.721020	-0.961404	0.386501
O7	O	0.486407	-1.442668	-0.113524
O8	O	0.986407	-0.942668	0.386476
O9	O	0.242237	-1.425923	0.113487
O10	O	0.742237	-0.925923	0.613487
O11	O	0.352935	-1.239855	0.113475
O12	O	0.852935	-0.739855	0.613475
O13	O	0.396926	-1.593256	0.113475
O14	O	0.896926	-1.093256	0.613475
Zn15	Zn	0.378299	-1.410922	0.149514
Zn16	Zn	0.878299	-0.910922	0.649514
Zn17	Zn	0.350345	-1.457669	-0.149550
Zn18	Zn	0.850345	-0.957669	0.350450
O19	O	0.507624	-1.407187	0.113463
O20	O	1.007624	-0.907187	0.613463
C21	C	0.334211	-1.212366	-0.000018
C22	C	0.834211	-0.712366	0.499982
C23	C	0.310019	-1.077600	-0.000017
C24	C	0.810019	-0.577600	0.499983
C25	C	0.394432	-1.656225	-0.000022
C26	C	0.894432	-1.156225	0.499978
C27	C	0.418624	-1.790993	-0.000031
C28	C	0.918624	-1.290993	0.499969
C29	C	0.197125	-1.442790	-0.000006
C30	C	0.697125	-0.942790	0.499994
C31	C	0.094312	-1.440173	-0.000005
C32	C	0.594312	-0.940173	0.499995
C33	C	-0.282174	-1.430544	-0.000040
C34	C	0.217826	-0.930544	0.499960
C35	C	-0.177425	-1.433218	-0.000030
C36	C	0.322575	-0.933218	0.499970
C37	C	-0.093934	-1.435358	-0.000021
C38	C	0.406066	-0.935358	0.499979
C39	C	0.010822	-1.438033	-0.000014
C40	C	0.510822	-0.938033	0.499986
C41	C	0.531519	-1.425802	-0.000034
C42	C	1.031519	-0.925802	0.499966
C43	C	0.634330	-1.428420	-0.000043
C44	C	1.134330	-0.928420	0.499957
N45	N	0.397378	-1.379027	0.353617
N46	N	0.897378	-0.879027	0.853617
C47	C	0.376818	-1.003940	-0.000024
C48	C	0.876818	-0.503940	0.499976
C49	C	0.351815	-0.864652	-0.000024
C50	C	0.851815	-0.364652	0.499976
N51	N	0.331260	-1.489574	-0.353654
N52	N	0.831260	-0.989574	0.146346
C53	C	0.356976	-1.446564	0.421401
C54	C	0.856976	-0.946564	0.921401
C55	C	0.371668	-1.422027	0.578566
C56	C	0.871668	-0.922027	1.078566
H57	H	0.452517	-1.043996	-0.000024
H58	H	0.952517	-0.543996	0.499976
H59	H	0.276108	-0.824606	-0.000052
H60	H	0.776108	-0.324606	0.499948
H61	H	0.494329	-0.831041	-0.000029
H62	H	0.994329	-0.331041	0.499971
H63	H	0.234317	-1.037548	-0.000045
H64	H	0.734317	-0.537548	0.499955
H65	H	0.311504	-1.522548	0.363081
H66	H	0.811504	-1.022548	0.863081
Cl67	Cl	0.261296	-1.607161	0.556321
Cl68	Cl	0.761296	-1.107161	1.056321
H69	H	0.417134	-1.346030	0.636882
H70	H	0.917134	-0.846030	1.136882
Cl71	Cl	0.467572	-1.261699	0.443651
Cl72	Cl	0.967572	-0.761699	0.943651
