data_functionalizedCrystal
_audit_creation_method	'MofGen! by Chris Wilmer'
_symmetry_space_group_name_H-M	'P1'
_symmetry_Int_Tables_number	1
_symmetry_cell_setting	triclinic
loop_
_symmetry_equiv_pos_as_xyz
  x,y,z
_cell_length_a	21.295417
_cell_length_b	19.121246
_cell_length_c	19.120904
_cell_angle_alpha	89.874251
_cell_angle_beta	87.591662
_cell_angle_gamma	87.536295
loop_
_atom_site_label
_atom_site_type_symbol
_atom_site_fract_x
_atom_site_fract_y
_atom_site_fract_z
Zn1	Zn	-0.227297	-1.054844	0.442197
Zn2	Zn	-0.327896	-1.059754	0.324951
Zn3	Zn	-0.226922	-0.942611	0.319964
Zn4	Zn	-0.336812	-0.937562	0.437134
O5	O	-0.279732	-0.998693	0.381061
O6	O	-0.237068	-1.153603	0.430850
O7	O	-0.310613	-1.048382	0.226185
O8	O	-0.138881	-0.957557	0.336210
O9	O	-0.310977	-1.157210	0.344710
O10	O	-0.139157	-1.040015	0.426014
O11	O	-0.236428	-0.962318	0.222522
O12	O	-0.245074	-0.843833	0.331301
O13	O	-0.326173	-0.948952	0.535910
O14	O	-0.325810	-0.840124	0.417385
O15	O	-0.245713	-1.035119	0.539629
O16	O	-0.417169	-1.043486	0.339801
O17	O	-0.423720	-0.953712	0.422221
C18	C	-0.286369	-0.816540	0.373253
C19	C	-0.289224	-0.738614	0.369929
C20	C	-0.252151	-0.700124	0.413285
C21	C	-0.254831	-0.626904	0.410156
C22	C	-0.294587	-0.592176	0.363674
C23	C	-0.331661	-0.630671	0.320314
C24	C	-0.328978	-0.703890	0.323440
C25	C	-0.304607	-0.371197	0.351985
C26	C	-0.307289	-0.297973	0.348864
C27	C	-0.230457	-0.294211	0.438705
C28	C	-0.227780	-0.367431	0.441830
C29	C	-0.264852	-0.405920	0.398467
C30	C	-0.297328	-0.517333	0.360476
C31	C	-0.262107	-0.480761	0.401662
C32	C	-0.443285	-0.998602	0.381019
C33	C	-0.513253	-0.998627	0.381027
C34	C	-0.542688	-1.045410	0.338158
C35	C	-0.608430	-1.045442	0.338175
C36	C	-0.644734	-0.998679	0.381053
C37	C	-0.615292	-0.951892	0.423930
C38	C	-0.549551	-0.951866	0.423917
N39	N	-0.750452	-0.937121	0.383768
N40	N	-0.812903	-0.937147	0.383777
C41	C	-0.842808	-0.998756	0.381097
N42	N	-0.807902	-1.060338	0.378394
N43	N	-0.745446	-1.060311	0.378381
C44	C	-0.716020	-0.998703	0.381072
C45	C	-0.943528	-1.045578	0.338244
C46	C	-1.009271	-1.045611	0.338266
C47	C	-1.016131	-0.952055	0.424018
C48	C	-0.950389	-0.952028	0.424000
C49	C	-0.914091	-0.998789	0.381109
C50	C	-0.115540	-0.998802	0.381121
C51	C	-0.045571	-0.998848	0.381146
C52	C	-0.286980	-0.990924	0.563918
C53	C	-0.290068	-0.987614	0.641840
C54	C	-0.273066	-0.181557	0.388895
C55	C	-0.270216	-0.259483	0.392219
C56	C	-0.272465	-1.006471	0.198918
C57	C	-0.269195	-1.009917	0.121002
C58	C	-0.249630	-1.030919	0.680386
C59	C	-0.252530	-1.027800	0.753602
C60	C	-0.295872	-0.981379	0.788271
C61	C	-0.336312	-0.938069	0.749720
C62	C	-0.333408	-0.941185	0.676505
C63	C	-0.306731	-0.969723	1.009236
C64	C	-0.309633	-0.966612	1.082456
C65	C	-0.225850	-1.056342	1.086333
C66	C	-0.222953	-1.059457	1.013117
C67	C	-0.263391	-1.016145	0.974572
C68	C	-0.298838	-0.978191	0.863110
C69	C	-0.260421	-1.019329	0.899734
H70	H	-0.339666	-0.269699	0.311013
H71	H	-0.195409	-0.395702	0.479683
H72	H	-0.359166	-0.735228	0.288135
H73	H	-0.200275	-0.262865	0.474007
C74	C	-0.201950	-1.081986	0.642257
N75	N	-0.166033	-1.120448	0.613540
C76	C	-0.208045	-1.075441	0.795999
N77	N	-0.174537	-1.111326	0.827933
C78	C	-0.375392	-0.592467	0.269183
N79	N	-0.408333	-0.563693	0.230671
H80	H	-0.334794	-0.402526	0.316677
C81	C	-0.208416	-0.738318	0.464418
N82	N	-0.175470	-0.767084	0.502931
H83	H	-0.229735	-0.509041	0.439504
C84	C	-0.918010	-0.900576	0.471174
N85	N	-0.893622	-0.861827	0.506717
H86	H	-0.329697	-0.489049	0.322631
C87	C	-0.517172	-0.900407	0.471087
N88	N	-0.492783	-0.861650	0.506620
H89	H	-1.033235	-1.083712	0.303359
C90	C	-0.346509	-0.927125	0.901253
N91	N	-0.382412	-0.888658	0.929985
H92	H	-0.513136	-1.083487	0.303236
H93	H	-0.632401	-1.083541	0.303266
H94	H	-0.644855	-0.913819	0.458843
H95	H	-0.224643	-0.595568	0.445462
C96	C	-0.175267	-1.110517	0.974986
N97	N	-0.139349	-1.148975	0.946266
C98	C	-0.383983	-0.886999	0.787859
N99	N	-0.419889	-0.848531	0.816584
C100	C	-0.903597	-1.097025	0.291075
N101	N	-0.873524	-1.135778	0.255549
C102	C	-1.056063	-0.900616	0.471186
N103	N	-1.086142	-0.861872	0.506715
C104	C	-0.181364	-1.103974	1.128738
N105	N	-0.147852	-1.139848	1.160677
H106	H	-0.344929	-0.928809	1.110681
C107	C	-0.377895	-0.893547	0.634105
N108	N	-0.411403	-0.857664	0.602170
H109	H	-0.339668	-0.934466	0.977862
H110	H	-0.225129	-1.057122	0.871504
