data_functionalizedCrystal
_audit_creation_method	'MofGen! by Chris Wilmer'
_symmetry_space_group_name_H-M	'P1'
_symmetry_Int_Tables_number	1
_symmetry_cell_setting	triclinic
loop_
_symmetry_equiv_pos_as_xyz
  x,y,z
_cell_length_a	11.169417
_cell_length_b	17.077402
_cell_length_c	17.077396
_cell_angle_alpha	90.030530
_cell_angle_beta	89.983750
_cell_angle_gamma	89.966592
loop_
_atom_site_label
_atom_site_type_symbol
_atom_site_fract_x
_atom_site_fract_y
_atom_site_fract_z
Zn1	Zn	1.834735	0.312490	-0.443763
Zn2	Zn	1.834559	0.443765	-0.312493
Zn3	Zn	1.634033	0.312519	-0.312519
Zn4	Zn	1.633951	0.443720	-0.443724
O5	O	1.734319	0.378123	-0.378125
O6	O	2.002661	0.329910	-0.426356
O7	O	1.807920	0.426386	-0.202649
O8	O	1.660765	0.202668	-0.329956
O9	O	2.002532	0.426357	-0.329912
O10	O	1.808220	0.202647	-0.426381
O11	O	1.660595	0.329960	-0.202668
O12	O	1.466073	0.329916	-0.329918
O13	O	1.660624	0.426281	-0.553576
O14	O	1.466012	0.426309	-0.426313
O15	O	1.808139	0.329867	-0.553605
O16	O	1.807840	0.553606	-0.329873
O17	O	1.660454	0.553573	-0.426288
C18	C	1.422495	0.378111	-0.378115
C19	C	1.289095	0.378125	-0.378129
C20	C	1.734151	0.582071	-0.378091
C21	C	1.734189	0.669321	-0.378102
C22	C	1.734392	0.378065	-0.582869
C23	C	1.734423	0.378041	-0.670119
C24	C	2.047362	0.378136	-0.378135
C25	C	2.180762	0.378141	-0.378140
C26	C	1.811101	1.045061	-0.428407
C27	C	1.811063	0.963080	-0.428391
C28	C	1.734329	0.922170	-0.378142
C29	C	1.657637	0.963244	-0.327901
C30	C	1.657682	1.045223	-0.327914
C31	C	1.657547	0.792374	-0.327879
C32	C	1.657500	0.710390	-0.327867
C33	C	1.810928	0.710231	-0.428356
C34	C	1.810973	0.792210	-0.428369
C35	C	1.734279	0.833279	-0.378128
C36	C	1.734472	1.173379	-0.378169
C37	C	1.734412	1.086129	-0.378172
C38	C	1.811237	0.327834	-0.711126
C39	C	1.811252	0.327808	-0.793106
C40	C	1.734457	0.377993	-0.834078
C41	C	1.657635	0.428202	-0.793066
C42	C	1.657615	0.428224	-0.711087
C43	C	1.657683	0.428155	-0.963936
C44	C	1.657704	0.428135	-1.045921
C45	C	1.811319	0.327739	-1.045955
C46	C	1.811300	0.327760	-0.963976
C47	C	1.734479	0.377971	-0.922969
C48	C	1.734316	0.378124	-0.174177
C49	C	1.734518	0.377928	-0.086927
H50	H	1.873574	1.078364	-0.469333
H51	H	1.595168	0.468998	-1.079278
H52	H	1.873804	0.286926	-0.826490
C53	C	1.895776	0.272557	-0.918906
C54	C	1.886073	0.183317	-0.930197
C55	C	1.970548	0.128111	-0.885128
C56	C	2.064725	0.162146	-0.828768
C57	C	2.074431	0.251391	-0.817475
C58	C	1.989957	0.306597	-0.862544
H59	H	1.816354	0.158118	-0.971920
H60	H	1.963362	0.062045	-0.893488
H61	H	2.127258	0.121279	-0.795405
H62	H	2.144150	0.276590	-0.775752
H63	H	1.997143	0.372662	-0.854184
H64	H	1.595017	0.677084	-0.286948
C65	C	1.573186	0.837553	-0.272615
C66	C	1.583043	0.826338	-0.183381
C67	C	1.498682	0.871519	-0.128122
C68	C	1.404464	0.927915	-0.162096
C69	C	1.394604	0.939133	-0.251334
C70	C	1.478965	0.893952	-0.306594
H71	H	1.652792	0.784588	-0.158227
H72	H	1.505982	0.863215	-0.062062
H73	H	1.342015	0.961360	-0.121189
H74	H	1.324855	0.980883	-0.276488
H75	H	1.471665	0.902256	-0.372654
C76	C	1.573324	1.090403	-0.272655
C77	C	1.583188	1.079184	-0.183422
C78	C	1.498832	1.124364	-0.128158
C79	C	1.404612	1.180761	-0.162127
C80	C	1.394744	1.191982	-0.251364
C81	C	1.479100	1.146803	-0.306628
H82	H	1.652938	1.037433	-0.158272
H83	H	1.506138	1.116057	-0.062098
H84	H	1.342167	1.214206	-0.121217
H85	H	1.324993	1.233734	-0.276514
H86	H	1.471794	1.155110	-0.372688
H87	H	1.595164	0.929930	-0.286984
C88	C	1.895290	0.665056	-0.483621
C89	C	1.885410	0.676269	-0.572854
C90	C	1.969760	0.631089	-0.628121
C91	C	2.063990	0.574696	-0.594155
C92	C	2.073874	0.563482	-0.504918
C93	C	1.989524	0.608662	-0.449650
H94	H	1.815652	0.718016	-0.598001
H95	H	1.962443	0.639391	-0.694181
H96	H	2.126432	0.541251	-0.635067
H97	H	2.143632	0.521735	-0.479770
H98	H	1.996841	0.600360	-0.383591
C99	C	1.895815	0.272500	-1.091058
C100	C	1.980291	0.217299	-1.045992
C101	C	2.064786	0.162064	-1.091099
C102	C	2.064805	0.162029	-1.181272
C103	C	1.980325	0.217231	-1.226344
C104	C	1.895830	0.272466	-1.181237
H105	H	1.980281	0.217324	-0.979235
H106	H	2.127323	0.121200	-1.057733
H107	H	2.127353	0.121140	-1.214663
H108	H	1.980336	0.217207	-1.293101
H109	H	1.833293	0.313331	-1.214603
H110	H	1.595108	0.469029	-0.930551
H111	H	1.873776	0.286969	-0.677772
C112	C	1.573167	0.483408	-0.838140
C113	C	1.625142	0.545021	-0.894482
C114	C	1.540680	0.600230	-0.939557
C115	C	1.404242	0.593827	-0.928289
C116	C	1.352260	0.532211	-0.871943
C117	C	1.436723	0.477002	-0.826869
H118	H	1.726148	0.549763	-0.902826
H119	H	1.579161	0.645842	-0.981267
H120	H	1.341718	0.634696	-0.961655
H121	H	1.251255	0.527469	-0.863600
H122	H	1.398241	0.431390	-0.785159
H123	H	1.595053	0.469099	-0.677701
H124	H	1.873509	0.929642	-0.469296
C125	C	1.895380	0.837211	-0.483643
C126	C	2.031817	0.825863	-0.477307
C127	C	2.116229	0.870863	-0.532581
C128	C	2.064203	0.927211	-0.594190
C129	C	1.927758	0.938562	-0.600528
C130	C	1.843347	0.893562	-0.545254
H131	H	2.070336	0.784148	-0.431699
H132	H	2.217234	0.862460	-0.527888
H133	H	2.126689	0.960523	-0.635106
H134	H	1.889239	0.980277	-0.646137
H135	H	1.742341	0.901965	-0.549947
