data_functionalizedCrystal
_audit_creation_method	'MofGen! by Chris Wilmer'
_symmetry_space_group_name_H-M	'P1'
_symmetry_Int_Tables_number	1
_symmetry_cell_setting	triclinic
loop_
_symmetry_equiv_pos_as_xyz
  x,y,z
_cell_length_a	23.532407
_cell_length_b	23.532407
_cell_length_c	15.455446
_cell_angle_alpha	92.661642
_cell_angle_beta	87.349441
_cell_angle_gamma	82.848712
loop_
_atom_site_label
_atom_site_type_symbol
_atom_site_fract_x
_atom_site_fract_y
_atom_site_fract_z
O1	O	0.752757	0.071638	0.072084
O2	O	1.252757	0.571638	0.572084
O3	O	0.586893	0.081641	0.072099
O4	O	1.086893	0.581641	0.572099
O5	O	0.674827	-0.006293	0.072075
O6	O	1.174827	0.493707	0.572075
O7	O	0.664823	0.159572	0.072108
O8	O	1.164823	0.659572	0.572108
O9	O	0.679828	-0.011303	-0.072185
O10	O	1.179828	0.488697	0.427815
O11	O	0.591894	0.076631	-0.072161
O12	O	1.091894	0.576631	0.427839
O13	O	0.757757	0.066627	-0.072176
O14	O	1.257757	0.566627	0.427824
Cu15	Cu	0.675282	0.071171	-0.085341
Cu16	Cu	1.175282	0.571171	0.414659
Cu17	Cu	0.669369	0.077097	0.085264
Cu18	Cu	1.169369	0.577097	0.585264
O19	O	0.669823	0.154561	-0.072152
O20	O	1.169823	0.654561	0.427848
C21	C	0.568177	0.078881	-0.000029
C22	C	1.068177	0.578881	0.499971
C23	C	0.504960	0.078116	-0.000024
C24	C	1.004960	0.578116	0.499976
C25	C	0.238794	0.022919	-0.000059
C26	C	0.738794	0.522919	0.499941
C27	C	0.298194	0.023630	-0.000058
C28	C	0.798194	0.523630	0.499942
O29	O	0.334940	-0.020157	-0.000097
O30	O	0.834940	0.479843	0.499903
N31	N	0.320820	0.075907	-0.000042
N32	N	0.820820	0.575907	0.499958
C33	C	0.284042	0.127476	-0.000035
C34	C	0.784042	0.627476	0.499965
O35	O	0.308741	0.172007	-0.000022
O36	O	0.808741	0.672007	0.499978
C37	C	0.224643	0.126763	-0.000042
C38	C	0.724643	0.626763	0.499958
C39	C	0.202021	0.074484	-0.000049
C40	C	0.702021	0.574484	0.499951
C41	C	0.216171	-0.029357	-0.000067
C42	C	0.716171	0.470643	0.499933
C43	C	0.156775	-0.030068	-0.000066
C44	C	0.656775	0.469932	0.499934
C45	C	0.120001	0.021497	-0.000056
C46	C	0.620001	0.521497	0.499944
C47	C	0.142624	0.073772	-0.000048
C48	C	0.642624	0.573772	0.499952
C49	C	0.187867	0.178331	-0.000041
C50	C	0.687867	0.678331	0.499959
C51	C	0.128464	0.177614	-0.000048
C52	C	0.628464	0.677614	0.499952
C53	C	0.105842	0.125334	-0.000056
C54	C	0.605842	0.625334	0.499944
C55	C	0.046455	0.124626	-0.000037
C56	C	0.546455	0.624626	0.499963
N57	N	0.023829	0.072349	-0.000053
N58	N	0.523829	0.572349	0.499947
C59	C	0.060603	0.020784	-0.000063
C60	C	0.560603	0.520784	0.499937
C61	C	0.408784	0.128968	-0.000023
C62	C	0.908784	0.628968	0.499977
C63	C	0.468181	0.129681	-0.000010
C64	C	0.968181	0.629681	0.499990
C65	C	0.482330	0.025835	-0.000035
C66	C	0.982330	0.525835	0.499965
C67	C	0.422931	0.025123	-0.000042
C68	C	0.922931	0.525123	0.499958
C69	C	0.386158	0.076691	-0.000039
C70	C	0.886158	0.576691	0.499961
C71	C	-0.064134	0.019295	-0.000060
C72	C	0.435866	0.519295	0.499940
C73	C	-0.123536	0.018588	-0.000055
C74	C	0.376464	0.518588	0.499945
C75	C	-0.137679	0.122434	-0.000034
C76	C	0.362321	0.622434	0.499966
C77	C	-0.078282	0.123141	-0.000035
C78	C	0.421718	0.623141	0.499965
C79	C	-0.041511	0.071566	-0.000050
C80	C	0.458489	0.571566	0.499950
O81	O	0.009675	0.168390	-0.000002
O82	O	0.509675	0.668390	0.499998
O83	O	0.035895	-0.023740	-0.000087
O84	O	0.535895	0.476260	0.499913
C85	C	0.677073	-0.030014	-0.000057
C86	C	1.177073	0.469986	0.499943
C87	C	0.676307	-0.093232	-0.000064
C88	C	1.176307	0.406768	0.499936
C89	C	0.723539	-0.492333	-0.000020
C90	C	1.223539	0.007667	0.499980
C91	C	0.722827	-0.551733	-0.000014
C92	C	1.222827	-0.051733	0.499986
O93	O	0.766612	-0.588477	0.000014
O94	O	1.266612	-0.088477	0.500014
N95	N	0.670551	-0.574359	-0.000010
N96	N	1.170551	-0.074359	0.499990
C97	C	0.618983	-0.537581	-0.000003
C98	C	1.118983	-0.037581	0.499997
O99	O	0.574452	-0.562281	0.000001
O100	O	1.074452	-0.062281	0.500001
C101	C	0.619695	-0.478182	-0.000004
C102	C	1.119695	0.021818	0.499996
C103	C	0.671975	-0.455560	-0.000017
C104	C	1.171975	0.044440	0.499983
C105	C	0.775815	-0.469710	-0.000032
C106	C	1.275815	0.030290	0.499968
C107	C	0.776527	-0.410314	-0.000041
C108	C	1.276527	0.089686	0.499959
C109	C	0.724962	-0.373541	-0.000037
C110	C	1.224962	0.126459	0.499963
C111	C	0.672686	-0.396164	-0.000025
C112	C	1.172686	0.103836	0.499975
C113	C	0.568127	-0.441405	0.000009
C114	C	1.068127	0.058595	0.500009
C115	C	0.568843	-0.382003	0.000009
C116	C	1.068843	0.117997	0.500009
C117	C	0.621123	-0.359381	-0.000004
C118	C	1.121123	0.140619	0.499996
C119	C	0.621833	-0.299995	-0.000030
C120	C	1.121833	0.200005	0.499970
N121	N	0.674110	-0.277369	-0.000034
N122	N	1.174110	0.222631	0.499966
C123	C	0.725674	-0.314142	-0.000037
C124	C	1.225674	0.185858	0.499963
C125	C	0.617491	-0.662324	-0.000001
C126	C	1.117491	-0.162324	0.499999
C127	C	0.616779	-0.721722	-0.000007
C128	C	1.116779	-0.221722	0.499993
C129	C	0.720624	-0.735870	-0.000015
C130	C	1.220624	-0.235870	0.499985
C131	C	0.721336	-0.676470	-0.000016
C132	C	1.221336	-0.176470	0.499984
C133	C	0.669768	-0.639698	-0.000005
C134	C	1.169768	-0.139698	0.499995
C135	C	0.727165	-0.189406	-0.000055
C136	C	1.227165	0.310594	0.499945
C137	C	0.727872	-0.130005	-0.000067
C138	C	1.227872	0.369995	0.499933
C139	C	0.624027	-0.115862	-0.000054
C140	C	1.124027	0.384138	0.499946
C141	C	0.623319	-0.175259	-0.000047
C142	C	1.123319	0.324741	0.499953
C143	C	0.674893	-0.212030	-0.000045
C144	C	1.174893	0.287970	0.499955
O145	O	0.578071	-0.263217	-0.000054
O146	O	1.078071	0.236783	0.499946
O147	O	0.770197	-0.289434	-0.000031
O148	O	1.270197	0.210566	0.499969
C149	C	0.776473	0.069387	-0.000046
C150	C	1.276473	0.569387	0.499954
C151	C	0.839690	0.070153	-0.000045
C152	C	1.339690	0.570153	0.499955
C153	C	0.667578	0.178283	-0.000018
C154	C	1.167578	0.678283	0.499982
C155	C	0.668343	0.241500	-0.000006
C156	C	1.168343	0.741500	0.499994
N157	N	0.679445	0.067003	-0.205335
N158	N	1.179445	0.567003	0.294665
C159	C	0.702574	0.043917	-0.749335
C160	C	1.202574	0.543917	-0.249335
C161	C	0.699412	0.047076	-0.658529
C162	C	1.199412	0.547076	-0.158529
C163	C	0.658883	0.087576	-0.613130
C164	C	1.158883	0.587576	-0.113130
C165	C	0.621517	0.124923	-0.658543
C166	C	1.121517	0.624923	-0.158543
C167	C	0.624682	0.121766	-0.749348
C168	C	1.124682	0.621766	-0.249348
C169	C	0.645244	0.101194	-0.341553
C170	C	1.145244	0.601194	0.158447
C171	C	0.642081	0.104346	-0.250742
C172	C	1.142081	0.604346	0.249258
C173	C	0.719977	0.026500	-0.250733
C174	C	1.219977	0.526500	0.249267
C175	C	0.723136	0.023345	-0.341540
C176	C	1.223136	0.523345	0.158460
C177	C	0.685772	0.060693	-0.386945
C178	C	1.185772	0.560693	0.113055
N179	N	0.655649	0.090805	-0.520311
N180	N	1.155649	0.590805	-0.020311
N181	N	0.689009	0.057467	-0.479763
N182	N	1.189009	0.557467	0.020237
N183	N	0.665210	0.081260	0.205258
N184	N	1.165210	0.581260	0.705258
H185	H	0.404516	-0.017448	-0.000048
H186	H	0.904516	0.482552	0.499952
O187	O	0.770769	-0.771517	-0.000049
O188	O	1.270769	-0.271517	0.499951
C189	C	0.873842	-0.779296	0.000003
C190	C	1.373842	-0.279296	0.500003
C191	C	0.817101	-0.738860	0.000022
C192	C	1.317101	-0.238860	0.500022
H193	H	0.911316	-0.752908	0.000079
H194	H	1.411316	-0.252908	0.500079
H195	H	0.878237	-0.809554	-0.060380
H196	H	1.378237	-0.309554	0.439620
H197	H	0.873974	-0.805365	0.060365
H198	H	1.373974	-0.305365	0.560365
H199	H	0.816930	-0.712753	-0.060299
H200	H	1.316930	-0.212753	0.439701
H201	H	0.812729	-0.708639	0.060445
H202	H	1.312729	-0.208639	0.560445
O203	O	0.565943	-0.743598	0.000035
O204	O	1.065943	-0.243598	0.500035
C205	C	0.463021	-0.723281	-0.000008
C206	C	0.963021	-0.223281	0.499992
C207	C	0.520553	-0.698434	-0.000042
C208	C	1.020553	-0.198434	0.499958
H209	H	0.426309	-0.686779	-0.000088
H210	H	0.926309	-0.186779	0.499912
H211	H	0.457955	-0.748609	0.060383
H212	H	0.957955	-0.248609	0.560383
H213	H	0.462211	-0.752861	-0.060363
H214	H	0.962211	-0.252861	0.439637
H215	H	0.521403	-0.668831	0.060272
H216	H	1.021403	-0.168831	0.560272
H217	H	0.525595	-0.673140	-0.060472
H218	H	1.025595	-0.173140	0.439528
H219	H	0.770446	-0.111589	-0.000080
H220	H	1.270446	0.388411	0.499920
O221	O	0.573888	-0.080217	-0.000082
O222	O	1.073888	0.419783	0.499918
C223	C	0.470810	-0.072434	0.000009
C224	C	0.970810	0.427566	0.500009
C225	C	0.527550	-0.112869	0.000010
C226	C	1.027550	0.387131	0.500010
H227	H	0.433330	-0.098816	0.000102
H228	H	0.933330	0.401184	0.500102
H229	H	0.470597	-0.046382	-0.060376
H230	H	0.970597	0.453618	0.439624
H231	H	0.466498	-0.042160	0.060370
H232	H	0.966498	0.457840	0.560370
H233	H	0.531899	-0.143177	-0.060310
H234	H	1.031899	0.356823	0.439690
H235	H	0.527738	-0.138880	0.060435
H236	H	1.027738	0.361120	0.560435
H237	H	0.819098	-0.391901	-0.000048
H238	H	1.319098	0.108099	0.499952
O239	O	0.756350	-0.009755	-0.206715
O240	O	1.256350	0.490245	0.293285
C241	C	0.854591	-0.042634	-0.178843
C242	C	1.354591	0.457366	0.321157
C243	C	0.813463	-0.001555	-0.228767
C244	C	1.313463	0.498445	0.271233
H245	H	0.900775	-0.036011	-0.196641
H246	H	1.400775	0.463989	0.303359
H247	H	0.848104	-0.088848	-0.196722
H248	H	1.348104	0.411152	0.303278
H249	H	0.845334	-0.033426	-0.106151
H250	H	1.345334	0.466574	0.393849
H251	H	0.822694	-0.010711	-0.301471
H252	H	1.322694	0.489289	0.198529
H253	H	0.819958	0.044645	-0.210817
H254	H	1.319958	0.544645	0.289183
O255	O	0.582222	0.164291	-0.614349
O256	O	1.082222	0.664291	-0.114349
C257	C	0.566076	0.245717	-0.511855
C258	C	1.066076	0.745717	-0.011855
C259	C	0.610640	0.201160	-0.561832
C260	C	1.110640	0.701160	-0.061832
H261	H	0.589035	0.275545	-0.469397
H262	H	1.089035	0.775545	0.030603
H263	H	0.536293	0.222779	-0.469300
H264	H	1.036293	0.722779	0.030700
H265	H	0.539904	0.271840	-0.559924
H266	H	1.039904	0.771840	-0.059924
H267	H	0.636852	0.175024	-0.513825
H268	H	1.136852	0.675024	-0.013825
H269	H	0.640384	0.224133	-0.604400
H270	H	1.140384	0.724133	-0.104400
O271	O	0.777316	-0.225041	-0.000095
O272	O	1.277316	0.274959	0.499905
C273	C	0.880388	-0.232787	-0.000064
C274	C	1.380388	0.267213	0.499936
C275	C	0.823636	-0.192367	-0.000032
C276	C	1.323636	0.307633	0.499968
H277	H	0.917853	-0.206386	0.000005
H278	H	1.417853	0.293614	0.500005
H279	H	0.884787	-0.263044	-0.060449
H280	H	1.384787	0.236956	0.439551
H281	H	0.880535	-0.258858	0.060297
H282	H	1.380535	0.241142	0.560297
H283	H	0.823450	-0.166259	-0.060352
H284	H	1.323450	0.333741	0.439648
H285	H	0.819260	-0.162148	0.060392
H286	H	1.319260	0.337852	0.560392
O287	O	0.567404	-0.626576	0.000151
O288	O	1.067404	-0.126576	0.500151
C289	C	0.505353	-0.548682	0.074859
C290	C	1.005353	-0.048682	0.574859
C291	C	0.562086	-0.589133	0.074803
C292	C	1.062086	-0.089133	0.574803
H293	H	0.501041	-0.518391	0.135200
H294	H	1.001041	-0.018391	0.635200
H295	H	0.467848	-0.575031	0.074916
H296	H	0.967848	-0.075031	0.574916
H297	H	0.505189	-0.522649	0.014457
H298	H	1.005189	-0.022649	0.514457
H299	H	0.562306	-0.615174	0.135195
H300	H	1.062306	-0.115174	0.635195
H301	H	0.599566	-0.562751	0.074701
H302	H	1.099566	-0.062751	0.574701
H303	H	0.594257	0.152176	-0.786318
H304	H	1.094257	0.652176	-0.286318
O305	O	0.373083	0.179086	0.000147
O306	O	0.873083	0.679086	0.500147
C307	C	0.340258	0.270233	0.074887
C308	C	0.840258	0.770233	0.574887
C309	C	0.380703	0.213495	0.074813
C310	C	0.880703	0.713495	0.574813
H311	H	0.346414	0.298074	0.135239
H312	H	0.846414	0.798074	0.635239
H313	H	0.293902	0.260789	0.074937
H314	H	0.793902	0.760789	0.574937
H315	H	0.350545	0.293857	0.014496
H316	H	0.850545	0.793857	0.514496
H317	H	0.370468	0.189842	0.135194
H318	H	0.870468	0.689842	0.635194
H319	H	0.427048	0.222978	0.074718
H320	H	0.927048	0.722978	0.574718
O321	O	0.602695	0.143744	-0.206774
O322	O	1.102695	0.643744	0.293226
C323	C	0.525750	0.220607	-0.216360
C324	C	1.025750	0.720607	0.283640
C325	C	0.570333	0.176030	-0.266260
C326	C	1.070333	0.676030	0.233740
H327	H	0.499565	0.246714	-0.264432
H328	H	0.999565	0.746714	0.235568
H329	H	0.548665	0.250447	-0.173855
H330	H	1.048665	0.750447	0.326145
H331	H	0.495984	0.197628	-0.173839
H332	H	0.995984	0.697628	0.326161
H333	H	0.600111	0.198961	-0.308828
H334	H	1.100111	0.698961	0.191172
H335	H	0.547380	0.146192	-0.308710
H336	H	1.047380	0.646192	0.191290
H337	H	0.512282	-0.016152	-0.000043
H338	H	1.012282	0.483848	0.499957
H339	H	0.098527	0.219608	-0.000050
H340	H	0.598527	0.719608	0.499950
O341	O	0.209739	0.229165	-0.000079
O342	O	0.709739	0.729165	0.499921
C343	C	0.189410	0.332090	-0.000030
C344	C	0.689410	0.832090	0.499970
C345	C	0.164566	0.274556	-0.000004
C346	C	0.664566	0.774556	0.499996
H347	H	0.152900	0.368804	0.000050
H348	H	0.652900	0.868804	0.500050
H349	H	0.218938	0.332961	-0.060418
H350	H	0.718938	0.832961	0.439582
H351	H	0.214790	0.337096	0.060328
H352	H	0.714790	0.837096	0.560328
H353	H	0.139159	0.269513	-0.060320
H354	H	0.639159	0.769513	0.439680
H355	H	0.135070	0.273711	0.060424
H356	H	0.635070	0.773711	0.560424
H357	H	0.817807	-0.499646	-0.000032
H358	H	1.317807	0.000354	0.499968
H359	H	0.486595	0.172253	0.000008
H360	H	0.986595	0.672253	0.500008
O361	O	0.517289	-0.463275	0.000064
O362	O	1.017289	0.036725	0.500064
C363	C	0.414367	-0.442948	0.000041
C364	C	0.914367	0.057052	0.500041
C365	C	0.471903	-0.418107	-0.000003
C366	C	0.971903	0.081893	0.499997
H367	H	0.377658	-0.406443	-0.000032
H368	H	0.877658	0.093557	0.499968
H369	H	0.409304	-0.468277	0.060432
H370	H	0.909304	0.031723	0.560432
H371	H	0.413550	-0.472526	-0.060314
H372	H	0.913550	0.027474	0.439686
H373	H	0.472760	-0.388505	0.060311
H374	H	0.972760	0.111495	0.560311
H375	H	0.476943	-0.392813	-0.060434
H376	H	0.976943	0.107187	0.439566
H377	H	0.526849	-0.352065	0.000019
H378	H	1.026849	0.147935	0.500019
H379	H	0.614820	0.131604	-0.378515
H380	H	1.114820	0.631604	0.121485
H381	H	-0.141952	-0.023986	-0.000058
H382	H	0.358048	0.476014	0.499942
O383	O	0.572569	-0.197303	0.000074
O384	O	1.072569	0.302697	0.500074
C385	C	0.508893	-0.253514	0.074863
C386	C	1.008893	0.246486	0.574863
C387	C	0.566390	-0.228600	0.074814
C388	C	1.066390	0.271400	0.574814
H389	H	0.503874	-0.278813	0.135293
H390	H	1.003874	0.221187	0.635293
H391	H	0.508046	-0.283114	0.014539
H392	H	1.008046	0.216886	0.514539
H393	H	0.472171	-0.217020	0.074818
H394	H	0.972171	0.282980	0.574818
H395	H	0.603144	-0.265057	0.074889
H396	H	1.103144	0.234943	0.574889
H397	H	0.567188	-0.198985	0.135132
H398	H	1.067188	0.301015	0.635132
O399	O	-0.056278	0.173913	0.000126
O400	O	0.443722	0.673913	0.500126
C401	C	0.000021	0.237566	0.074818
C402	C	0.500021	0.737566	0.574818
C403	C	-0.024872	0.180057	0.074771
C404	C	0.475128	0.680057	0.574771
H405	H	0.025428	0.242546	0.135153
H406	H	0.525428	0.742546	0.635153
H407	H	-0.036445	0.274325	0.074882
H408	H	0.463555	0.774325	0.574882
H409	H	0.029542	0.238382	0.014411
H410	H	0.529542	0.738382	0.514411
H411	H	-0.054386	0.179185	0.135168
H412	H	0.445614	0.679185	0.635168
H413	H	0.011621	0.143323	0.074662
H414	H	0.511621	0.643323	0.574662
H415	H	-0.167631	0.164416	-0.000022
H416	H	0.332369	0.664416	0.499978
H417	H	0.138362	-0.072640	-0.000076
H418	H	0.638362	0.427360	0.499924
O419	O	-0.028502	-0.030854	-0.000029
O420	O	0.471498	0.469146	0.499971
C421	C	-0.020753	-0.133930	-0.000086
C422	C	0.479247	0.366070	0.499914
C423	C	-0.061171	-0.077179	-0.000110
C424	C	0.438829	0.422821	0.499890
H425	H	-0.047149	-0.171399	-0.000170
H426	H	0.452851	0.328601	0.499830
H427	H	0.005302	-0.134136	0.060302
H428	H	0.505302	0.365864	0.560302
H429	H	0.009518	-0.138267	-0.060443
H430	H	0.509518	0.361733	0.439557
H431	H	-0.091477	-0.072806	0.060206
H432	H	0.408523	0.427194	0.560206
H433	H	-0.087186	-0.076998	-0.060538
H434	H	0.412814	0.423002	0.439462
H435	H	0.246107	-0.071349	-0.000078
H436	H	0.746107	0.428651	0.499922
H437	H	0.763907	-0.658056	-0.000026
H438	H	1.263907	-0.158056	0.499974
H439	H	0.735574	0.010936	-0.786293
H440	H	1.235574	0.510936	-0.286293
H441	H	0.729837	0.016669	-0.621559
H442	H	1.229837	0.516669	-0.121559
H443	H	0.756138	-0.009634	-0.378502
H444	H	1.256138	0.490366	0.121498
