data_functionalizedCrystal
_audit_creation_method	'MofGen! by Chris Wilmer'
_symmetry_space_group_name_H-M	'P1'
_symmetry_Int_Tables_number	1
_symmetry_cell_setting	triclinic
loop_
_symmetry_equiv_pos_as_xyz
  x,y,z
_cell_length_a	18.050591
_cell_length_b	25.639239
_cell_length_c	18.050583
_cell_angle_alpha	89.965476
_cell_angle_beta	89.975765
_cell_angle_gamma	90.034692
loop_
_atom_site_label
_atom_site_type_symbol
_atom_site_fract_x
_atom_site_fract_y
_atom_site_fract_z
Zn1	Zn	1.135263	-0.208189	-0.420021
Zn2	Zn	1.635263	0.291811	0.079979
Zn3	Zn	1.135144	-0.295632	-0.295826
Zn4	Zn	1.635144	0.204368	0.204174
Zn5	Zn	1.011075	-0.208206	-0.295832
Zn6	Zn	1.511075	0.291794	0.204168
Zn7	Zn	1.011007	-0.295589	-0.419962
Zn8	Zn	1.511007	0.204411	0.080038
O9	O	1.073122	-0.251904	-0.357910
O10	O	1.573122	0.248096	0.142090
O11	O	1.239172	-0.219799	-0.403568
O12	O	1.739172	0.280201	0.096432
O13	O	1.118664	-0.284059	-0.191902
O14	O	1.618664	0.215941	0.308098
O15	O	1.027627	-0.135038	-0.312333
O16	O	1.527627	0.364962	0.187667
O17	O	1.239084	-0.284043	-0.312323
O18	O	1.739084	0.215957	0.187677
O19	O	1.118867	-0.135026	-0.403574
O20	O	1.618867	0.364974	0.096426
O21	O	1.027511	-0.219828	-0.191906
O22	O	1.527511	0.280172	0.308094
O23	O	0.907141	-0.219787	-0.312276
O24	O	1.407141	0.280213	0.187724
O25	O	1.027512	-0.283970	-0.523894
O26	O	1.527512	0.216030	-0.023894
O27	O	0.907092	-0.283987	-0.403473
O28	O	1.407092	0.216013	0.096527
O29	O	1.118802	-0.219757	-0.523938
O30	O	1.618802	0.280243	-0.023938
O31	O	1.118599	-0.368791	-0.312266
O32	O	1.618599	0.131209	0.187734
O33	O	1.027396	-0.368760	-0.403468
O34	O	1.527396	0.131240	0.096532
C35	C	0.880170	-0.251884	-0.357869
C36	C	1.380170	0.248116	0.142131
C37	C	0.797624	-0.251889	-0.357869
C38	C	1.297624	0.248111	0.142131
C39	C	0.598179	-0.216936	-0.308390
C40	C	1.098179	0.283064	0.191610
C41	C	0.548746	-0.264626	-0.290112
C42	C	1.048746	0.235374	0.209888
C43	C	0.646494	-0.251904	-0.357903
C44	C	1.146494	0.248096	0.142097
C45	C	0.548845	-0.204231	-0.376179
C46	C	1.048845	0.295769	0.123821
C47	C	0.500509	-0.251915	-0.357934
C48	C	1.000509	0.248085	0.142066
C49	C	0.598148	-0.299619	-0.339589
C50	C	1.098148	0.200381	0.160411
C51	C	0.598252	-0.239192	-0.425688
C52	C	1.098252	0.260808	0.074312
C53	C	0.548841	-0.286915	-0.407435
C54	C	1.048841	0.213085	0.092565
C55	C	0.730592	-0.251897	-0.357883
C56	C	1.230592	0.248103	0.142117
C57	C	0.416412	-0.251928	-0.357954
C58	C	0.916412	0.248072	0.142046
C59	C	1.072997	-0.387746	-0.357876
C60	C	1.572997	0.112254	0.142124
C61	C	1.073012	-0.445860	-0.357886
C62	C	1.573012	0.054140	0.142114
C63	C	1.120735	-0.806227	-0.310502
C64	C	1.620735	-0.306227	0.189498
C65	C	1.120764	-0.860831	-0.310512
C66	C	1.620764	-0.360831	0.189488
O67	O	1.161211	-0.889071	-0.270187
O68	O	1.661211	-0.389071	0.229813
N69	N	1.073253	-0.888143	-0.357959
N70	N	1.573253	-0.388143	0.142041
C71	C	1.025715	-0.860847	-0.405405
C72	C	1.525715	-0.360847	0.094595
O73	O	0.985306	-0.889091	-0.445764
O74	O	1.485306	-0.389091	0.054236
C75	C	1.025690	-0.806244	-0.405398
C76	C	1.525690	-0.306244	0.094602
C77	C	1.073199	-0.778935	-0.357943
C78	C	1.573199	-0.278935	0.142057
C79	C	1.168241	-0.778919	-0.263051
C80	C	1.668241	-0.278919	0.236949
C81	C	1.168211	-0.724318	-0.263040
C82	C	1.668211	-0.224318	0.236960
C83	C	1.120675	-0.697026	-0.310481
C84	C	1.620675	-0.197026	0.189519
C85	C	1.073169	-0.724335	-0.357932
C86	C	1.573169	-0.224335	0.142068
C87	C	0.978157	-0.778949	-0.452847
C88	C	1.478157	-0.278949	0.047153
C89	C	0.978137	-0.724342	-0.452837
C90	C	1.478137	-0.224342	0.047163
C91	C	1.025646	-0.697033	-0.405381
C92	C	1.525646	-0.197033	0.094619
C93	C	1.025604	-0.642442	-0.405362
C94	C	1.525604	-0.142442	0.094638
N95	N	1.073115	-0.615131	-0.357914
N96	N	1.573115	-0.115131	0.142086
C97	C	1.120651	-0.642423	-0.310474
C98	C	1.620651	-0.142423	0.189526
C99	C	1.025771	-0.975518	-0.405416
C100	C	1.525771	-0.475518	0.094584
C101	C	1.025791	-1.030120	-0.405420
C102	C	1.525791	-0.530120	0.094580
C103	C	1.120841	-1.030101	-0.310528
C104	C	1.620841	-0.530101	0.189472
C105	C	1.120817	-0.975497	-0.310521
C106	C	1.620817	-0.475497	0.189479
C107	C	1.073282	-0.948206	-0.357969
C108	C	1.573282	-0.448206	0.142031
C109	C	1.120584	-0.527758	-0.310455
C110	C	1.620584	-0.027758	0.189545
C111	C	1.120547	-0.473152	-0.310446
C112	C	1.620547	0.026848	0.189554
C113	C	1.025500	-0.473176	-0.405340
C114	C	1.525500	0.026824	0.094660
C115	C	1.025534	-0.527777	-0.405347
C116	C	1.525534	-0.027777	0.094653
C117	C	1.073081	-0.555066	-0.357901
C118	C	1.573081	-0.055066	0.142099
O119	O	0.985180	-0.614167	-0.445668
O120	O	1.485180	-0.114167	0.054332
O121	O	1.161060	-0.614172	-0.270129
O122	O	1.661060	-0.114172	0.229871
C123	C	1.266828	-0.251924	-0.357952
C124	C	1.766828	0.248076	0.142048
C125	C	1.349373	-0.251932	-0.357970
C126	C	1.849373	0.248068	0.142030
C127	C	1.073162	-0.251857	-0.551616
C128	C	1.573162	0.248143	-0.051616
C129	C	1.073180	-0.251837	-0.634162
C130	C	1.573180	0.248163	-0.134162
C131	C	1.073268	-0.115531	-0.357961
C132	C	1.573268	0.384469	0.142039
C133	C	1.073330	-0.057417	-0.357982
C134	C	1.573330	0.442583	0.142018
C135	C	1.122869	-0.216883	-0.883011
C136	C	1.622869	0.283117	-0.383011
C137	C	1.140979	-0.264591	-0.833596
C138	C	1.640979	0.235409	-0.333596
C139	C	1.073228	-0.251804	-0.931282
C140	C	1.573228	0.248196	-0.431282
C141	C	1.055129	-0.204115	-0.833615
C142	C	1.555129	0.295885	-0.333615
C143	C	1.073206	-0.251818	-0.785297
C144	C	1.573206	0.248182	-0.285297
C145	C	1.091372	-0.299537	-0.882955
C146	C	1.591372	0.200463	-0.382955
C147	C	1.005491	-0.239029	-0.882978
C148	C	1.505491	0.260971	-0.382978
C149	C	1.023575	-0.286770	-0.833586
C150	C	1.523575	0.213230	-0.333586
C151	C	1.073242	-0.251795	-1.015381
C152	C	1.573242	0.248205	-0.515381
C153	C	1.073191	-0.251832	-0.701200
C154	C	1.573191	0.248168	-0.201200
C155	C	1.073125	-0.251913	-0.164958
C156	C	1.573125	0.248087	0.335042
C157	C	1.073252	-0.251785	-0.082413
C158	C	1.573252	0.248215	0.417587
H159	H	0.527314	-0.316525	-0.449320
H160	H	1.027314	0.183475	0.050680
H161	H	1.164891	-0.187383	-0.904711
H162	H	1.664891	0.312617	-0.404711
C163	C	1.034620	-0.150381	-0.804615
C164	C	1.534620	0.349619	-0.304615
C165	C	0.970028	-0.154006	-0.761942
C166	C	1.470028	0.345994	-0.261942
C167	C	0.951125	-0.104517	-0.735210
C168	C	1.451125	0.395483	-0.235210
H169	H	1.026367	-0.127453	-0.845130
H170	H	1.526367	0.372547	-0.345130
H171	H	1.073866	-0.137282	-0.774898
H172	H	1.573866	0.362718	-0.274898
H173	H	0.930791	-0.167097	-0.791657
H174	H	1.430791	0.332903	-0.291657
H175	H	0.978264	-0.176925	-0.721416
H176	H	1.478264	0.323075	-0.221416
H177	H	0.990371	-0.091419	-0.705493
H178	H	1.490371	0.408581	-0.205493
H179	H	0.942876	-0.081593	-0.775730
H180	H	1.442876	0.418407	-0.275730
H181	H	0.907302	-0.106971	-0.706248
H182	H	1.407302	0.393029	-0.206248
C183	C	0.519641	-0.278862	-0.213694
C184	C	1.019641	0.221138	0.286306
C185	C	0.475916	-0.238012	-0.186602
C186	C	0.975916	0.261988	0.313398
C187	C	0.449087	-0.251094	-0.116207
C188	C	0.949087	0.248906	0.383793
H189	H	0.560113	-0.284607	-0.181081
H190	H	1.060113	0.215393	0.318919
H191	H	0.490618	-0.309700	-0.216936
H192	H	0.990618	0.190300	0.283064
H193	H	0.504938	-0.207183	-0.183355
H194	H	1.004938	0.292817	0.316645
H195	H	0.435433	-0.232262	-0.219194
H196	H	0.935433	0.267738	0.280806
H197	H	0.420064	-0.281932	-0.119449
H198	H	0.920064	0.218068	0.380551
H199	H	0.489563	-0.256839	-0.083601
H200	H	0.989563	0.243161	0.416399
H201	H	0.419411	-0.223382	-0.097819
H202	H	0.919411	0.276618	0.402181
C203	C	0.627043	-0.353357	-0.318880
C204	C	1.127043	0.146643	0.181120
C205	C	0.704605	-0.352714	-0.319057
C206	C	1.204605	0.147286	0.180943
C207	C	0.731250	-0.402204	-0.299973
C208	C	1.231250	0.097796	0.200027
H209	H	0.609834	-0.378263	-0.353812
H210	H	1.109834	0.121737	0.146188
H211	H	0.609722	-0.362453	-0.270869
H212	H	1.109722	0.137547	0.229131
H213	H	0.721919	-0.343624	-0.367061
H214	H	1.221919	0.156376	0.132939
H215	H	0.721834	-0.327818	-0.284124
H216	H	1.221834	0.172182	0.215876
H217	H	0.713929	-0.411300	-0.251962
H218	H	1.213929	0.088700	0.248038
H219	H	0.714036	-0.427106	-0.334908
H220	H	1.214036	0.072894	0.165092
H221	H	0.783878	-0.401773	-0.300084
H222	H	1.283878	0.098227	0.199916
C223	C	1.217398	-0.278911	-0.804707
C224	C	1.717398	0.221089	-0.304707
C225	C	1.269160	-0.242214	-0.829729
C226	C	1.769160	0.257786	-0.329729
C227	C	1.339564	-0.255380	-0.803126
C228	C	1.839564	0.244620	-0.303126
H229	H	1.230690	-0.312536	-0.822309
H230	H	1.730690	0.187464	-0.322309
H231	H	1.216752	-0.279101	-0.752078
H232	H	1.716752	0.220899	-0.252078
H233	H	1.269808	-0.242029	-0.882347
H234	H	1.769808	0.257971	-0.382347
H235	H	1.255892	-0.208586	-0.812129
H236	H	1.755892	0.291414	-0.312129
H237	H	1.338918	-0.255570	-0.750497
H238	H	1.838918	0.244430	-0.250497
H239	H	1.352848	-0.289006	-0.820730
H240	H	1.852848	0.210994	-0.320730
H241	H	1.374692	-0.230481	-0.820094
H242	H	1.874692	0.269519	-0.320094
H243	H	0.939429	-0.702124	-0.491477
H244	H	1.439429	-0.202124	0.008523
C245	C	0.626970	-0.177472	-0.252560
C246	C	1.126970	0.322528	0.247440
C247	C	0.600902	-0.127737	-0.271142
C248	C	1.100902	0.372263	0.228858
C249	C	0.627402	-0.091373	-0.219723
C250	C	1.127402	0.408627	0.280277
H251	H	0.679590	-0.177452	-0.253208
H252	H	1.179590	0.322548	0.246792
H253	H	0.609995	-0.186559	-0.204422
H254	H	1.109995	0.313441	0.295578
H255	H	0.617881	-0.118652	-0.319267
H256	H	1.117881	0.381348	0.180733
H257	H	0.548285	-0.127740	-0.270489
H258	H	1.048285	0.372260	0.229511
H259	H	0.610427	-0.100461	-0.171586
H260	H	1.110427	0.399539	0.328414
H261	H	0.680021	-0.091358	-0.220375
H262	H	1.180021	0.408642	0.279625
H263	H	0.609713	-0.057625	-0.232320
H264	H	1.109713	0.442375	0.267680
H265	H	1.159303	-0.549970	-0.271822
H266	H	1.659303	-0.049970	0.228178
H267	H	0.620013	-0.228417	-0.482982
H268	H	1.120013	0.271583	0.017018
C269	C	0.519820	-0.150498	-0.396731
C270	C	1.019820	0.349502	0.103269
C271	C	0.442263	-0.151335	-0.397107
C272	C	0.942263	0.348665	0.102893
C273	C	0.415501	-0.101844	-0.416018
C274	C	0.915501	0.398156	0.083982
H275	H	0.537418	-0.141173	-0.444542
H276	H	1.037418	0.358827	0.055458
H277	H	0.536671	-0.125683	-0.361480
H278	H	1.036671	0.374317	0.138520
H279	H	0.425419	-0.176142	-0.432356
H280	H	0.925419	0.323858	0.067644
H281	H	0.424646	-0.160651	-0.349303
H282	H	0.924646	0.339349	0.150697
H283	H	0.432352	-0.077028	-0.380767
H284	H	0.932352	0.422972	0.119233
H285	H	0.433104	-0.092523	-0.463828
H286	H	0.933104	0.407477	0.036172
H287	H	0.362877	-0.102403	-0.416269
H288	H	0.862877	0.397597	0.083731
H289	H	1.159235	-0.450919	-0.271799
H290	H	1.659235	0.049081	0.228201
H291	H	1.206899	-0.702087	-0.224400
H292	H	1.706899	-0.202087	0.275600
C293	C	1.219882	-0.808450	-0.211455
C294	C	1.719882	-0.308450	0.288545
C295	C	1.261460	-0.772836	-0.169892
C296	C	1.761460	-0.272836	0.330108
C297	C	1.309031	-0.800017	-0.122339
C298	C	1.809031	-0.300017	0.377661
H299	H	1.252305	-0.829719	-0.239807
H300	H	1.752305	-0.329719	0.260193
H301	H	1.191519	-0.829771	-0.179027
H302	H	1.691519	-0.329771	0.320973
H303	H	1.289821	-0.751524	-0.202316
H304	H	1.789821	-0.251524	0.297684
H305	H	1.229057	-0.751566	-0.141525
H306	H	1.729057	-0.251566	0.358475
H307	H	1.280668	-0.821338	-0.089911
H308	H	1.780668	-0.321338	0.410089
H309	H	1.341449	-0.821285	-0.150697
H310	H	1.841449	-0.321285	0.349303
H311	H	1.337243	-0.775857	-0.094128
H312	H	1.837243	-0.275857	0.405872
C313	C	1.172482	-0.945945	-0.258973
C314	C	1.672482	-0.445945	0.241027
C315	C	1.214124	-0.981540	-0.217442
C316	C	1.714124	-0.481540	0.282558
C317	C	1.261736	-0.954339	-0.169954
C318	C	1.761736	-0.454339	0.330046
H319	H	1.144169	-0.924676	-0.226516
H320	H	1.644169	-0.424676	0.273484
H321	H	1.204858	-0.924622	-0.287393
H322	H	1.704858	-0.424622	0.212607
H323	H	1.181753	-1.002854	-0.189024
H324	H	1.681753	-0.502854	0.310976
H325	H	1.242453	-1.002810	-0.249880
H326	H	1.742453	-0.502810	0.250120
H327	H	1.294111	-0.933015	-0.198375
H328	H	1.794111	-0.433015	0.301625
H329	H	1.233416	-0.933070	-0.137502
H330	H	1.733416	-0.433070	0.362498
H331	H	1.290000	-0.978486	-0.141775
H332	H	1.790000	-0.478486	0.358225
C333	C	0.926490	-0.808618	-0.504254
C334	C	1.426490	-0.308618	-0.004254
C335	C	0.878907	-0.840012	-0.462178
C336	C	1.378907	-0.340012	0.037822
C337	C	0.831295	-0.867345	-0.509513
C338	C	1.331295	-0.367345	-0.009513
H339	H	0.954808	-0.829923	-0.536659
H340	H	1.454808	-0.329923	-0.036659
H341	H	0.898140	-0.784554	-0.532495
H342	H	1.398140	-0.284554	-0.032495
H343	H	0.907253	-0.864073	-0.433950
H344	H	1.407253	-0.364073	0.066050
H345	H	0.850572	-0.818719	-0.429775
H346	H	1.350572	-0.318719	0.070225
H347	H	0.802945	-0.843281	-0.537753
H348	H	1.302945	-0.343281	-0.037753
H349	H	0.859619	-0.888647	-0.541916
H350	H	1.359619	-0.388647	-0.041916
H351	H	0.798999	-0.888645	-0.480971
H352	H	1.298999	-0.388645	0.019029
C353	C	1.172489	-1.059833	-0.259164
C354	C	1.672489	-0.559833	0.240836
C355	C	1.162379	-1.113496	-0.269375
C356	C	1.662379	-0.613496	0.230625
C357	C	1.209973	-1.140902	-0.222108
C358	C	1.709973	-0.640902	0.277892
H359	H	1.161755	-1.051005	-0.209200
H360	H	1.661755	-0.551005	0.290800
H361	H	1.222372	-1.050855	-0.270150
H362	H	1.722372	-0.550855	0.229850
H363	H	1.112507	-1.122470	-0.258384
H364	H	1.612507	-0.622470	0.241616
H365	H	1.173118	-1.122338	-0.319329
H366	H	1.673118	-0.622338	0.180671
H367	H	1.259856	-1.131924	-0.233094
H368	H	1.759856	-0.631924	0.266906
H369	H	1.199236	-1.132070	-0.172148
H370	H	1.699236	-0.632070	0.327852
H371	H	1.203125	-1.177315	-0.229035
H372	H	1.703125	-0.677315	0.270965
H373	H	0.987097	-1.052350	-0.444056
H374	H	1.487097	-0.552350	0.055944
C375	C	0.974069	-0.945984	-0.456956
C376	C	1.474069	-0.445984	0.043044
C377	C	0.932457	-0.981594	-0.498491
C378	C	1.432457	-0.481594	0.001509
C379	C	0.884817	-0.954410	-0.545970
C380	C	1.384817	-0.454410	-0.045970
H381	H	1.002360	-0.924647	-0.489411
H382	H	1.502360	-0.424647	0.010589
H383	H	0.941676	-0.924730	-0.428529
H384	H	1.441676	-0.424730	0.071471
H385	H	0.964846	-1.002839	-0.526916
H386	H	1.464846	-0.502839	-0.026916
H387	H	0.904150	-1.002933	-0.466056
H388	H	1.404150	-0.502933	0.033944
H389	H	0.852423	-0.933157	-0.517543
H390	H	1.352423	-0.433157	-0.017543
H391	H	0.913114	-0.933074	-0.578420
H392	H	1.413114	-0.433074	-0.078420
H393	H	0.856573	-0.978568	-0.574152
H394	H	1.356573	-0.478568	-0.074152
H395	H	0.986795	-0.450947	-0.443964
H396	H	1.486795	0.049053	0.056036
C397	C	0.973923	-0.557335	-0.456948
C398	C	1.473923	-0.057335	0.043052
C399	C	0.932299	-0.521744	-0.498503
C400	C	1.432299	-0.021744	0.001497
C401	C	0.884761	-0.548949	-0.546060
C402	C	1.384761	-0.048949	-0.046060
H403	H	0.941528	-0.578679	-0.428600
H404	H	1.441528	-0.078679	0.071400
H405	H	1.002312	-0.578584	-0.489381
H406	H	1.502312	-0.078584	0.010619
H407	H	0.903912	-0.500504	-0.466074
H408	H	1.403912	-0.000504	0.033926
H409	H	0.964675	-0.500399	-0.526867
H410	H	1.464675	-0.000399	-0.026867
H411	H	0.913151	-0.570198	-0.578493
H412	H	1.413151	-0.070198	-0.078493
H413	H	0.852371	-0.570292	-0.517706
H414	H	1.352371	-0.070292	-0.017706
H415	H	0.856519	-0.524805	-0.574266
H416	H	1.356519	-0.024805	-0.074266
H417	H	1.106753	-0.339880	-0.904538
H418	H	1.606753	0.160120	-0.404538
H419	H	0.981585	-0.316341	-0.812022
H420	H	1.481585	0.183659	-0.312022
C421	C	0.929214	-0.224518	-0.912036
C422	C	1.429214	0.275482	-0.412036
C423	C	0.934707	-0.179589	-0.955827
C424	C	1.434707	0.320411	-0.455827
C425	C	0.864459	-0.166203	-0.982617
C426	C	1.364459	0.333797	-0.482617
H427	H	0.896878	-0.218042	-0.871547
H428	H	1.396878	0.281958	-0.371547
H429	H	0.910175	-0.252392	-0.941006
H430	H	1.410175	0.247608	-0.441006
H431	H	0.953736	-0.151721	-0.926858
H432	H	1.453736	0.348279	-0.426858
H433	H	0.967029	-0.186054	-0.996326
H434	H	1.467029	0.313946	-0.496326
H435	H	0.845420	-0.194077	-1.011587
H436	H	1.345420	0.305923	-0.511587
H437	H	0.832128	-0.159729	-0.942124
H438	H	1.332128	0.340271	-0.442124
H439	H	0.868177	-0.135720	-1.012337
H440	H	1.368177	0.364280	-0.512337
