data_functionalizedCrystal
_audit_creation_method	'MofGen! by Chris Wilmer'
_symmetry_space_group_name_H-M	'P1'
_symmetry_Int_Tables_number	1
_symmetry_cell_setting	triclinic
loop_
_symmetry_equiv_pos_as_xyz
  x,y,z
_cell_length_a	14.519731
_cell_length_b	14.519709
_cell_length_c	12.996460
_cell_angle_alpha	90.008707
_cell_angle_beta	89.993690
_cell_angle_gamma	96.315501
loop_
_atom_site_label
_atom_site_type_symbol
_atom_site_fract_x
_atom_site_fract_y
_atom_site_fract_z
O1	O	1.223858	-0.120978	-0.085589
O2	O	1.723858	0.379022	0.414411
O3	O	0.955384	-0.135195	-0.085593
O4	O	1.455384	0.364805	0.414407
O5	O	1.096739	0.006151	-0.085562
O6	O	1.596739	0.506151	0.414438
O7	O	1.082503	-0.262324	-0.085620
O8	O	1.582503	0.237676	0.414380
O9	O	1.096721	0.006143	0.085572
O10	O	1.596721	0.506143	0.585572
O11	O	0.955366	-0.135203	0.085541
O12	O	1.455366	0.364797	0.585541
O13	O	1.223840	-0.120987	0.085545
O14	O	1.723840	0.379013	0.585545
Cu15	Cu	1.089601	-0.128095	0.101169
Cu16	Cu	1.589601	0.371905	0.601169
Cu17	Cu	1.089623	-0.128086	-0.101217
Cu18	Cu	1.589623	0.371914	0.398783
O19	O	1.082485	-0.262333	0.085514
O20	O	1.582485	0.237667	0.585514
C21	C	0.921016	-0.134532	-0.000026
C22	C	1.421016	0.365468	0.499974
C23	C	0.818635	-0.132536	-0.000026
C24	C	1.318635	0.367464	0.499974
C25	C	1.096067	0.040507	0.000010
C26	C	1.596067	0.540507	0.500010
C27	C	1.094079	0.142889	0.000026
C28	C	1.594079	0.642889	0.500026
C29	C	0.735491	-0.130915	-0.000030
C30	C	1.235491	0.369085	0.499970
C31	C	0.631182	-0.128888	-0.000030
C32	C	1.131182	0.371112	0.499970
C33	C	0.548043	-0.127280	-0.000029
C34	C	1.048043	0.372720	0.499971
C35	C	0.443728	-0.125253	-0.000031
C36	C	0.943728	0.374747	0.499969
C37	C	1.086759	0.517785	0.000053
C38	C	1.586759	1.017785	0.500053
C39	C	1.088792	0.413477	0.000046
C40	C	1.588792	0.913477	0.500046
C41	C	1.090419	0.330340	0.000040
C42	C	1.590419	0.830340	0.500040
C43	C	1.092452	0.226025	0.000031
C44	C	1.592452	0.726025	0.500031
C45	C	1.258209	-0.121649	-0.000024
C46	C	1.758209	0.378351	0.499976
C47	C	1.360589	-0.123645	-0.000031
C48	C	1.860589	0.376355	0.499969
N49	N	1.089593	-0.128102	0.243516
N50	N	1.589593	0.371898	0.743516
C51	C	1.083157	0.703312	-0.000024
C52	C	1.583157	1.203312	0.499976
C53	C	1.085146	0.600930	0.000063
C54	C	1.585146	1.100930	0.500063
N55	N	1.089639	-0.128072	-0.243564
N56	N	1.589639	0.371928	0.256436
C57	C	1.089597	-0.128104	0.336622
C58	C	1.589597	0.371896	0.836622
C59	C	1.089606	-0.128098	0.453427
C60	C	1.589606	0.371902	0.953427
C61	C	1.089617	-0.128088	0.546525
C62	C	1.589617	0.371912	1.046525
C63	C	1.089627	-0.128082	0.663338
C64	C	1.589627	0.371918	1.163338
