data_functionalizedCrystal
_audit_creation_method	'MofGen! by Chris Wilmer'
_symmetry_space_group_name_H-M	'P1'
_symmetry_Int_Tables_number	1
_symmetry_cell_setting	triclinic
loop_
_symmetry_equiv_pos_as_xyz
  x,y,z
_cell_length_a	12.594517
_cell_length_b	12.594516
_cell_length_c	12.594509
_cell_angle_alpha	89.973801
_cell_angle_beta	90.021327
_cell_angle_gamma	89.984147
loop_
_atom_site_label
_atom_site_type_symbol
_atom_site_fract_x
_atom_site_fract_y
_atom_site_fract_z
Zn1	Zn	1.627267	0.423716	0.601875
Zn2	Zn	1.627158	0.601726	0.423903
Zn3	Zn	1.449271	0.423761	0.423904
Zn4	Zn	1.449253	0.601652	0.601833
O5	O	1.538237	0.512714	0.512879
O6	O	1.776198	0.447341	0.578284
O7	O	1.603522	0.578169	0.274957
O8	O	1.472936	0.274809	0.447530
O9	O	1.776118	0.578124	0.447528
O10	O	1.603709	0.274776	0.578285
O11	O	1.472830	0.447419	0.274958
O12	O	1.300323	0.447347	0.447489
O13	O	1.472905	0.577998	0.750784
O14	O	1.300310	0.578042	0.578213
O15	O	1.603691	0.447269	0.750815
O16	O	1.603505	0.750662	0.447488
O17	O	1.472799	0.750608	0.578212
C18	C	1.261696	0.512692	0.512847
C19	C	1.143391	0.512709	0.512859
C20	C	1.538167	0.789255	0.512868
C21	C	1.538235	0.907560	0.512899
C22	C	1.074114	0.441526	0.441894
C23	C	1.003303	0.538615	0.415718
C24	C	1.003403	0.415668	0.539054
C25	C	1.074138	0.609849	0.486632
C26	C	1.074244	0.486836	0.610013
C27	C	1.003465	0.583991	0.583874
C28	C	1.538308	0.512620	0.790500
C29	C	1.538339	0.512581	0.908805
C30	C	1.815858	0.512736	0.512911
C31	C	1.934163	0.512745	0.512924
C32	C	1.538336	0.235093	0.512912
C33	C	1.538378	0.116787	0.512927
C34	C	1.467137	0.976822	0.583950
C35	C	1.441204	1.047688	0.486827
C36	C	1.564265	1.047494	0.610039
C37	C	1.512250	0.976867	0.415725
C38	C	1.635357	0.976667	0.539002
C39	C	1.609460	1.047500	0.441812
C40	C	1.538227	0.512730	0.236338
C41	C	1.538403	0.512470	0.118033
C42	C	1.467227	0.583644	0.978042
C43	C	1.564347	0.609650	1.048833
C44	C	1.441294	0.486510	1.048813
C45	C	1.635510	0.538638	0.978038
C46	C	1.512391	0.415453	0.978012
C47	C	1.609579	0.441422	1.048772
H48	H	1.105135	0.381389	0.381807
C49	C	0.996879	0.493528	0.230619
C50	C	0.961227	0.568189	0.304846
H51	H	0.970899	0.511779	0.162172
H52	H	1.072286	0.493100	0.229633
H53	H	0.971613	0.425072	0.249703
H54	H	0.986500	0.636645	0.285766
H55	H	0.885804	0.568628	0.305828
H56	H	1.669647	1.078338	0.381669
H57	H	1.586224	1.078518	0.692178
C58	C	1.302529	1.052616	0.356041
C59	C	1.330414	1.089807	0.457026
H60	H	1.234128	1.078613	0.337653
H61	H	1.353013	1.076812	0.305525
H62	H	1.301516	0.977199	0.356465
H63	H	1.331434	1.165224	0.456599
H64	H	1.279916	1.065616	0.507555
H65	H	1.407136	0.643833	0.946986
C66	C	0.850287	0.306307	0.569576
C67	C	0.961455	0.304863	0.568930
H68	H	0.824395	0.237898	0.588007
H69	H	0.826108	0.356794	0.620087
H70	H	0.824969	0.325194	0.501063
H71	H	0.986774	0.285984	0.637446
H72	H	0.985644	0.254360	0.518417
H73	H	1.669813	0.381279	1.079632
H74	H	1.586329	0.691742	1.079941
C75	C	1.482616	0.823995	0.305814
C76	C	1.482469	0.935169	0.304809
H77	H	1.464220	0.798254	0.237343
H78	H	1.551335	0.799094	0.324451
H79	H	1.432375	0.799242	0.356319
H80	H	1.532715	0.959922	0.254310
H81	H	1.413739	0.960081	0.286159
H82	H	1.105080	0.691955	0.464413
C83	C	1.483928	0.305701	0.824804
C84	C	1.482685	0.304666	0.935971
H85	H	1.465586	0.237304	0.798850
H86	H	1.434093	0.356391	0.799543
H87	H	1.552954	0.324094	0.800629
H88	H	1.413656	0.286281	0.960146
H89	H	1.532521	0.253960	0.961242
C90	C	1.412034	0.972112	0.766381
C91	C	1.385831	0.934919	0.664947
H92	H	1.361833	0.946246	0.816377
H93	H	1.480942	0.947784	0.785077
H94	H	1.411077	1.047531	0.766481
H95	H	1.386795	0.859500	0.664844
H96	H	1.316905	0.959241	0.646246
H97	H	1.717406	0.945451	0.561104
H98	H	1.359198	0.464506	1.079902
C99	C	0.997738	0.766887	0.637274
C100	C	0.961836	0.665363	0.664924
H101	H	0.972029	0.817123	0.687305
H102	H	1.073148	0.767715	0.637281
H103	H	0.972367	0.784681	0.568489
H104	H	0.987214	0.647566	0.733706
H105	H	0.886410	0.664533	0.664928
C106	C	1.080712	0.355499	0.748096
C107	C	1.116354	0.457225	0.720855
H108	H	1.106718	0.337210	0.816522
H109	H	1.005305	0.354662	0.748773
H110	H	1.105960	0.305635	0.697475
H111	H	1.091100	0.507090	0.771472
H112	H	1.191777	0.458070	0.720187
H113	H	1.717631	0.560736	0.947080
