data_functionalizedCrystal
_audit_creation_method	'MofGen! by Chris Wilmer'
_symmetry_space_group_name_H-M	'P1'
_symmetry_Int_Tables_number	1
_symmetry_cell_setting	triclinic
loop_
_symmetry_equiv_pos_as_xyz
  x,y,z
_cell_length_a	27.780845
_cell_length_b	27.780853
_cell_length_c	27.780884
_cell_angle_alpha	90.003519
_cell_angle_beta	120.005221
_cell_angle_gamma	60.000453
loop_
_atom_site_label
_atom_site_type_symbol
_atom_site_fract_x
_atom_site_fract_y
_atom_site_fract_z
O1	O	0.424598	-0.410272	0.754814
O2	O	0.326026	-0.340274	0.586243
O3	O	0.424597	-0.340273	0.684815
O4	O	0.326027	-0.410272	0.656242
O5	O	0.344536	-0.260213	0.684813
O6	O	0.245965	-0.260214	0.586241
O7	O	0.344537	-0.330212	0.754812
Zn8	Zn	0.282539	-0.282502	0.670526
Zn9	Zn	0.388023	-0.387984	0.670529
O10	O	0.245966	-0.330213	0.656240
C11	C	0.177735	-0.207596	0.298166
C12	C	0.211528	-0.237299	0.268464
C13	C	0.119397	-0.149664	0.269062
C14	C	0.177731	-0.207597	0.385330
C15	C	0.211521	-0.237303	0.448825
C16	C	0.119394	-0.149666	0.356094
C17	C	0.090568	-0.120429	0.298164
C18	C	0.031162	-0.056934	0.268460
C19	C	0.206429	-0.236700	0.356096
C20	C	-0.016832	-0.005635	0.244463
C21	C	0.238831	-0.261296	0.244469
C22	C	0.238820	-0.261301	0.500124
C23	C	-0.077042	0.058720	0.214357
C24	C	0.273082	-0.291401	0.214365
C25	C	0.273068	-0.291408	0.564479
C26	C	0.492829	-0.207595	0.700431
C27	C	0.459040	-0.237301	0.696347
C28	C	0.464132	-0.149664	0.700837
C29	C	0.579991	-0.207592	0.700425
C30	C	0.639396	-0.237294	0.696334
C31	C	0.551162	-0.149661	0.700831
C32	C	0.492825	-0.120427	0.700426
C33	C	0.459032	-0.056932	0.696337
C34	C	0.551165	-0.236697	0.700836
C35	C	0.431730	-0.005634	0.693032
C36	C	0.431741	-0.261300	0.693046
C37	C	0.687388	-0.261290	0.693028
C38	C	0.397479	0.058722	0.688886
C39	C	0.397494	-0.291408	0.688906
C40	C	0.747597	-0.291394	0.688882
C41	C	0.090545	-0.462875	0.640596
C42	C	0.031137	-0.433170	0.644682
C43	C	0.119372	-0.520806	0.640188
C44	C	0.177716	-0.462878	0.640602
C45	C	0.211511	-0.433176	0.644693
C46	C	0.206410	-0.520809	0.640194
C47	C	0.177712	-0.550043	0.640598
C48	C	0.211502	-0.613537	0.644685
C49	C	0.119376	-0.433774	0.640192
C50	C	0.238801	-0.664835	0.647989
C51	C	-0.016859	-0.409172	0.647984
C52	C	0.238814	-0.409181	0.648000
C53	C	0.273049	-0.729190	0.652132
C54	C	-0.077072	-0.379065	0.652125
C55	C	0.273067	-0.379077	0.652147
O56	O	0.905259	-0.410260	0.656219
O57	O	0.765266	-0.340259	0.684790
O58	O	0.765252	-0.340263	0.586219
O59	O	0.905274	-0.410256	0.754791
O60	O	0.765250	-0.260202	0.586214
O61	O	0.765265	-0.260198	0.684786
O62	O	0.905258	-0.330199	0.656215
Zn63	Zn	0.835261	-0.282487	0.670500
Zn64	Zn	0.835263	-0.387971	0.670506
O65	O	0.905272	-0.330195	0.754786
O66	O	-0.234709	0.249047	0.175555
O67	O	-0.094712	0.080482	0.245552
O68	O	-0.094702	0.179041	0.245568
O69	O	-0.234720	0.150488	0.175539
O70	O	-0.094699	0.179043	0.165509
O71	O	-0.094710	0.080484	0.165494
O72	O	-0.234707	0.249049	0.095496
Zn73	Zn	-0.164708	0.164767	0.117784
Zn74	Zn	-0.164711	0.164764	0.223265
O75	O	-0.234717	0.150490	0.095481
O76	O	0.326004	0.249051	0.656222
O77	O	0.424578	0.080486	0.684790
O78	O	0.325999	0.179047	0.586220
O79	O	0.424583	0.150490	0.754792
O80	O	0.245944	0.179042	0.586226
O81	O	0.344523	0.080481	0.684796
O82	O	0.245949	0.249046	0.656228
Zn83	Zn	0.282526	0.164763	0.670513
Zn84	Zn	0.388001	0.164769	0.670505
O85	O	0.344529	0.150485	0.754798
O86	O	0.344554	-0.330207	0.095509
O87	O	0.245982	-0.260206	0.165501
O88	O	0.344558	-0.260211	0.165519
O89	O	0.245978	-0.330202	0.095491
O90	O	0.424615	-0.340273	0.245579
O91	O	0.326039	-0.340267	0.245561
O92	O	0.424611	-0.410269	0.175569
Zn93	Zn	0.388036	-0.387979	0.223276
Zn94	Zn	0.282557	-0.282495	0.117794
O95	O	0.326035	-0.410263	0.175551
C96	C	0.580017	-0.550046	1.042900
C97	C	0.639426	-0.613540	1.072605
C98	C	0.551190	-0.520810	1.072003
C99	C	0.492846	-0.462881	0.955730
C100	C	0.459052	-0.433178	0.892233
C101	C	0.464151	-0.433778	0.984966
C102	C	0.492850	-0.462880	1.042898
C103	C	0.459059	-0.433176	1.072602
C104	C	0.551186	-0.520811	0.984967
C105	C	0.431759	-0.409179	1.096599
C106	C	0.687421	-0.664838	1.096603
C107	C	0.431749	-0.409181	0.840934
C108	C	0.397510	-0.379073	1.126704
C109	C	0.747635	-0.729193	1.126711
C110	C	0.397496	-0.379076	0.776576
C111	C	0.492767	-0.120440	0.298127
C112	C	0.458971	-0.056946	0.268419
C113	C	0.464069	-0.149678	0.269026
C114	C	0.579945	-0.207602	0.385299
C115	C	0.639360	-0.237302	0.448796
C116	C	0.551115	-0.236707	0.356066
C117	C	0.492770	-0.207608	0.298133
C118	C	0.458977	-0.237314	0.268432
C119	C	0.551112	-0.149672	0.356059
C120	C	0.431674	-0.261313	0.244437
C121	C	0.431666	-0.005648	0.244418
C122	C	0.687360	-0.261296	0.500096
C123	C	0.397423	-0.291421	0.214334
C124	C	0.397411	0.058706	0.214308
C125	C	0.747579	-0.291399	0.564454
C126	C	1.177756	-0.462860	1.042874
C127	C	1.211551	-0.433156	1.072577
C128	C	1.206455	-0.520790	1.071979
C129	C	1.090579	-0.462862	0.955706
C130	C	1.031165	-0.433160	0.892209
C131	C	1.119410	-0.520792	0.984944
C132	C	1.177755	-0.550026	1.042877
C133	C	1.211550	-0.613520	1.072583
C134	C	1.119411	-0.433759	0.984941
C135	C	1.238853	-0.664818	1.096582
C136	C	1.238855	-0.409158	1.096574
C137	C	0.983164	-0.409164	0.840909
C138	C	1.273106	-0.729172	1.126690
C139	C	1.273108	-0.379052	1.126679
C140	C	0.922945	-0.379060	0.776552
C141	C	0.177778	0.194652	0.298225
C142	C	0.211573	0.190564	0.268526
C143	C	0.206475	0.195057	0.356160
C144	C	0.090602	0.194657	0.298211
C145	C	0.031188	0.190573	0.268497
C146	C	0.119432	0.195061	0.356146
C147	C	0.177776	0.194650	0.385390
C148	C	0.211569	0.190560	0.448889
C149	C	0.119434	0.195063	0.269113
C150	C	0.238871	0.187253	0.500190
C151	C	0.238877	0.187259	0.244533
C152	C	-0.016811	0.187273	0.244492
C153	C	0.273123	0.183106	0.564550
C154	C	0.273130	0.183115	0.214432
C155	C	-0.077029	0.183133	0.214377
O156	O	0.245862	0.249032	0.095439
O157	O	0.344448	0.080466	0.165442
O158	O	0.245886	0.179022	0.165450
O159	O	0.344425	0.150475	0.095431
O160	O	0.325954	0.179027	0.245510
O161	O	0.424516	0.080471	0.245502
O162	O	0.325930	0.249037	0.175498
Zn163	Zn	0.387936	0.164755	0.223211
Zn164	Zn	0.282443	0.164748	0.117729
O165	O	0.424493	0.150480	0.175491
C166	C	-0.507195	0.134880	-0.044339
C167	C	-0.540989	0.138971	-0.107839
C168	C	-0.535894	0.134474	-0.015109
C169	C	-0.420021	0.134873	0.042839
C170	C	-0.360607	0.138957	0.072552
C171	C	-0.448852	0.134467	0.071938
C172	C	-0.507196	0.134878	0.042826
C173	C	-0.540991	0.138967	0.072525
C174	C	-0.448851	0.134469	-0.015096
C175	C	-0.568294	0.142271	0.096519
C176	C	-0.568292	0.142277	-0.159140
C177	C	-0.312608	0.142258	0.096557
C178	C	-0.602547	0.146416	0.126620
C179	C	-0.602543	0.146424	-0.223499
C180	C	-0.252390	0.146397	0.126672
H181	H	0.095271	-0.126195	0.221462
Cl182	Cl	0.588407	-0.113419	0.701838
H183	H	0.095247	-0.386175	0.639535
H184	H	-0.424721	0.133809	0.119540
H185	H	-0.424755	0.133860	-0.038582
Cl186	Cl	0.391664	-0.113429	0.701859
Cl187	Cl	0.588363	-0.113431	0.392297
Cl188	Cl	0.082148	-0.113424	0.392333
Cl189	Cl	0.278905	-0.310187	0.392337
H190	H	0.575285	-0.284293	0.701483
H191	H	0.253429	0.195701	0.379639
H192	H	0.417204	-0.386181	0.961489
H193	H	0.253355	-0.544280	0.639542
Cl194	Cl	0.588447	-0.557043	1.145495
Cl195	Cl	1.278943	-0.557029	1.145467
Cl196	Cl	0.588363	-0.310191	0.392311
Cl197	Cl	0.082130	-0.557048	0.639189
H198	H	0.575312	-0.544287	0.961496
H199	H	0.417120	-0.126206	0.221426
Cl200	Cl	1.082156	-0.557031	0.948709
H201	H	1.095285	-0.386161	0.961469
H202	H	0.095294	0.195726	0.379608
H203	H	-0.582841	0.133820	-0.038589
H204	H	0.095309	0.195719	0.221511
