data_functionalizedCrystal
_audit_creation_method	'MofGen! by Chris Wilmer'
_symmetry_space_group_name_H-M	'P1'
_symmetry_Int_Tables_number	1
_symmetry_cell_setting	triclinic
loop_
_symmetry_equiv_pos_as_xyz
  x,y,z
_cell_length_a	25.639239
_cell_length_b	12.594517
_cell_length_c	12.594509
_cell_angle_alpha	90.021327
_cell_angle_beta	89.965872
_cell_angle_gamma	89.961514
loop_
_atom_site_label
_atom_site_type_symbol
_atom_site_fract_x
_atom_site_fract_y
_atom_site_fract_z
Zn1	Zn	-0.208138	-1.627100	-0.601816
Zn2	Zn	-0.295580	-1.626920	-0.423819
Zn3	Zn	-0.208160	-1.449103	-0.423845
Zn4	Zn	-0.295544	-1.449015	-0.601750
O5	O	-0.251855	-1.538035	-0.512808
O6	O	-0.219743	-1.776022	-0.578222
O7	O	-0.284008	-1.603294	-0.274877
O8	O	-0.134992	-1.472827	-0.447492
O9	O	-0.283987	-1.775890	-0.447448
O10	O	-0.134976	-1.603600	-0.578247
O11	O	-0.219781	-1.472653	-0.274896
O12	O	-0.219746	-1.300146	-0.447427
O13	O	-0.283925	-1.472677	-0.750704
O14	O	-0.283946	-1.300081	-0.578133
O15	O	-0.219708	-1.603515	-0.750753
O16	O	-0.368740	-1.603209	-0.447384
O17	O	-0.368714	-1.472503	-0.578108
C18	C	-0.251845	-1.261494	-0.512776
C19	C	-0.251853	-1.143188	-0.512788
C20	C	-0.387698	-1.537856	-0.512759
C21	C	-0.445812	-1.537876	-0.512774
C22	C	-0.251810	-1.538106	-0.790429
C23	C	-0.251790	-1.538136	-0.908734
C24	C	-0.806176	-1.606271	-0.444855
C25	C	-0.860781	-1.606312	-0.444870
O26	O	-0.889019	-1.664278	-0.387070
N27	N	-0.888094	-1.538222	-0.512878
C28	C	-0.860801	-1.470093	-0.580885
O29	O	-0.889048	-1.412182	-0.638733
C30	C	-0.806198	-1.470058	-0.580875
C31	C	-0.778887	-1.538145	-0.512854
C32	C	-0.778865	-1.674353	-0.376841
C33	C	-0.724265	-1.674310	-0.376826
C34	C	-0.696975	-1.606185	-0.444825
C35	C	-0.724286	-1.538102	-0.512839
C36	C	-0.778905	-1.401936	-0.648886
C37	C	-0.724298	-1.401907	-0.648871
C38	C	-0.696987	-1.469994	-0.580850
C39	C	-0.642396	-1.469934	-0.580822
N40	N	-0.615083	-1.538024	-0.512814
C41	C	-0.642372	-1.606150	-0.444815
C42	C	-0.975472	-1.470174	-0.580901
C43	C	-1.030074	-1.470202	-0.580906
C44	C	-1.030050	-1.606423	-0.444892
C45	C	-0.975447	-1.606388	-0.444883
C46	C	-0.948158	-1.538264	-0.512892
C47	C	-0.527707	-1.606054	-0.444787
C48	C	-0.473102	-1.606002	-0.444775
C49	C	-0.473131	-1.469786	-0.580792
C50	C	-0.527731	-1.469833	-0.580801
C51	C	-0.555018	-1.537976	-0.512795
O52	O	-0.614124	-1.412001	-0.638596
O53	O	-0.614119	-1.664062	-0.386986
C54	C	-0.115482	-1.538243	-0.512880
C55	C	-0.057368	-1.538332	-0.512911
C56	C	-0.251866	-1.815655	-0.512840
C57	C	-0.251871	-1.933961	-0.512853
C58	C	-0.216887	-1.073939	-0.441833
C59	C	-0.264579	-1.003090	-0.415643
C60	C	-0.204184	-1.003239	-0.538996
C61	C	-0.299570	-1.073897	-0.486547
C62	C	-0.239144	-1.074052	-0.609946
C63	C	-0.286869	-1.003234	-0.583793
C64	C	-0.286698	-1.466996	-0.977961
C65	C	-0.299473	-1.564106	-1.048748
C66	C	-0.238984	-1.441102	-1.048746
C67	C	-0.264590	-1.635297	-0.977964
C68	C	-0.204079	-1.512227	-0.977955
C69	C	-0.216836	-1.609405	-1.048711
C70	C	-0.251863	-1.538025	-0.236267
C71	C	-0.251736	-1.538201	-0.117962
H72	H	-0.450867	-1.661446	-0.389381
H73	H	-0.549918	-1.661544	-0.389413
H74	H	-0.339798	-1.586055	-1.079845
H75	H	-0.316264	-1.406882	-0.946897
H76	H	-0.275445	-1.717409	-0.947002
H77	H	-0.702031	-1.729756	-0.321441
H78	H	-0.339902	-1.104806	-0.464317
H79	H	-0.275340	-0.971923	-0.333507
H80	H	-0.316480	-0.972385	-0.643825
H81	H	-0.187292	-1.669663	-1.079579
H82	H	-0.953256	-1.414690	-0.636280
H83	H	-0.549969	-1.414395	-0.636192
H84	H	-1.052306	-1.414749	-0.636285
H85	H	-0.163765	-1.490250	-0.946835
H86	H	-0.228368	-1.105245	-0.692058
H87	H	-0.228175	-1.359014	-1.079838
H88	H	-0.801133	-1.346487	-0.704271
H89	H	-0.801079	-1.729835	-0.321468
H90	H	-0.163870	-0.972144	-0.561099
H91	H	-0.953213	-1.661831	-0.389495
H92	H	-0.702083	-1.346434	-0.704256
H93	H	-1.052279	-1.661898	-0.389527
H94	H	-0.450903	-1.414316	-0.636153
H95	H	-0.187346	-1.104984	-0.381755
