data_functionalizedCrystal
_audit_creation_method	'MofGen! by Chris Wilmer'
_symmetry_space_group_name_H-M	'P1'
_symmetry_Int_Tables_number	1
_symmetry_cell_setting	triclinic
loop_
_symmetry_equiv_pos_as_xyz
  x,y,z
_cell_length_a	17.038275
_cell_length_b	15.500227
_cell_length_c	10.654541
_cell_angle_alpha	87.144157
_cell_angle_beta	92.202144
_cell_angle_gamma	86.957127
loop_
_atom_site_label
_atom_site_type_symbol
_atom_site_fract_x
_atom_site_fract_y
_atom_site_fract_z
O1	O	-1.042490	0.071818	0.267433
O2	O	-0.814837	0.071847	0.263098
O3	O	-0.933899	0.071827	0.083013
O4	O	-0.923429	0.071839	0.447518
O5	O	-0.926673	-0.072061	0.093895
O6	O	-0.807612	-0.072040	0.273980
O7	O	-1.035265	-0.072069	0.278315
Cu8	Cu	-0.920779	-0.085193	0.277141
Cu9	Cu	-0.929323	0.084971	0.264272
O10	O	-0.916203	-0.072049	0.458401
C11	C	-0.782074	-0.000093	0.264598
C12	C	-0.695216	-0.000082	0.252839
N13	N	-0.914775	-0.204877	0.286193
C14	C	-0.645705	-0.000078	0.360783
C15	C	-0.564092	-0.000089	0.349729
C16	C	-0.531993	-0.000098	0.230730
C17	C	-0.581511	-0.000104	0.122778
C18	C	-0.663121	-0.000099	0.133834
C19	C	-0.286016	-0.000118	0.191673
C20	C	-0.204399	-0.000120	0.180625
C21	C	-0.186986	-0.000107	0.407577
C22	C	-0.268599	-0.000097	0.418622
C23	C	-0.318110	-0.000108	0.310671
C24	C	-0.448572	-0.000106	0.219428
C25	C	-0.401529	-0.000106	0.321974
C26	C	-0.965243	-0.250162	0.209916
C27	C	-0.960709	-0.340734	0.216774
C28	C	-0.905711	-0.386019	0.299916
C29	C	-0.855237	-0.340727	0.376195
C30	C	-0.859767	-0.250157	0.369330
C31	C	-0.889390	-0.659483	0.324625
C32	C	-0.884865	-0.750060	0.331488
C33	C	-0.990337	-0.750060	0.172064
C34	C	-0.994866	-0.659488	0.165212
C35	C	-0.944389	-0.614204	0.241486
C36	C	-0.901077	-0.478598	0.306930
C37	C	-0.949020	-0.521627	0.234465
C38	C	-0.068028	-0.000123	0.276814
C39	C	-0.154887	-0.000117	0.288569
C40	C	-0.929518	-0.000116	0.041584
C41	C	-0.927219	-0.000115	-0.098073
N42	N	-0.935334	0.204655	0.255211
C43	C	-1.069589	-0.000144	-0.112821
C44	C	-1.139691	-0.000160	-0.185805
C45	C	-1.137526	-0.000157	-0.317024
C46	C	-1.065252	-0.000135	-0.375262
C47	C	-0.995150	-0.000119	-0.302279
C48	C	-0.997322	-0.000125	-0.171057
C49	C	-0.852782	-0.000084	-0.287531
C50	C	-0.854945	-0.000093	-0.156311
C51	C	-0.780508	-0.000062	-0.345769
C52	C	-0.710404	-0.000052	-0.272785
C53	C	-0.712572	-0.000056	-0.141558
C54	C	-0.784843	-0.000077	-0.083328
C55	C	-0.920585	-0.000104	0.499829
C56	C	-0.922884	-0.000100	0.639485
H57	H	-0.671833	-0.000071	0.457685
H58	H	-0.326318	-0.000127	0.103770
H59	H	-0.993797	-0.484753	0.166766
H60	H	-0.778751	-0.000054	-0.452616
Cl61	Cl	-0.441883	-0.000098	0.471569
Cl62	Cl	-1.034392	-0.193242	0.105396
H63	H	-0.422426	-0.000137	0.122540
Cl64	Cl	-1.062536	-0.000073	-0.540229
Cl65	Cl	-1.024156	-0.397666	0.120881
Cl66	Cl	-0.624438	-0.000029	-0.049819
H67	H	-1.039650	-0.622619	0.097512
H68	H	-0.294728	-0.000080	0.515523
Cl69	Cl	-1.053787	-0.806992	0.076177
Cl70	Cl	-0.815718	-0.806984	0.436021
H71	H	-0.848292	-0.622620	0.386734
Cl72	Cl	-0.786091	-0.397655	0.480711
H73	H	-0.523782	-0.000085	0.437629
H74	H	-0.786614	-0.000085	0.023517
Cl75	Cl	-1.072315	-0.000167	0.052142
H76	H	-0.146666	-0.000100	0.495465
Cl77	Cl	-0.796315	-0.193228	0.465220
H78	H	-0.856297	-0.515477	0.374628
H79	H	-1.198535	-0.000185	-0.138372
Cl80	Cl	-0.164046	-0.000150	0.031016
H81	H	-1.194609	-0.000163	-0.376448
Cl82	Cl	-0.541157	-0.000120	-0.026822
H83	H	-0.703434	-0.000101	0.045934
Cl84	Cl	-0.619556	-0.000014	-0.346006
