data_functionalizedCrystal
_audit_creation_method	'MofGen! by Chris Wilmer'
_symmetry_space_group_name_H-M	'P1'
_symmetry_Int_Tables_number	1
_symmetry_cell_setting	triclinic
loop_
_symmetry_equiv_pos_as_xyz
  x,y,z
_cell_length_a	16.109302
_cell_length_b	15.944493
_cell_length_c	14.586319
_cell_angle_alpha	89.997917
_cell_angle_beta	90.005448
_cell_angle_gamma	83.468412
loop_
_atom_site_label
_atom_site_type_symbol
_atom_site_fract_x
_atom_site_fract_y
_atom_site_fract_z
O1	O	1.103143	0.107972	0.076269
O2	O	0.861083	0.121408	0.076261
O3	O	0.988748	-0.007590	0.076273
O4	O	0.975478	0.236970	0.076257
O5	O	0.988739	-0.007592	-0.076208
O6	O	0.861074	0.121406	-0.076220
O7	O	1.103134	0.107970	-0.076211
Cu8	Cu	0.982103	0.114688	-0.090138
Cu9	Cu	0.982114	0.114690	0.090188
O10	O	0.975469	0.236969	-0.076224
C11	C	0.830103	0.120863	0.000019
C12	C	0.737808	0.119231	0.000017
C13	C	0.525462	0.115456	-0.083091
C14	C	0.438742	0.113914	-0.083088
C15	C	0.438762	0.113920	0.083155
C16	C	0.525481	0.115456	0.083151
C17	C	0.568828	0.116229	0.000025
C18	C	0.395389	0.113150	0.000032
C19	C	0.301363	0.111477	0.000037
C20	C	0.662861	0.117900	0.000020
C21	C	0.988201	-0.038886	0.000036
C22	C	0.986575	-0.132134	0.000048
C23	C	1.061722	-0.367918	0.000033
C24	C	1.021203	-0.418472	0.075212
C25	C	0.983562	-0.302854	0.000037
C26	C	1.021176	-0.418450	-0.075122
C27	C	0.980658	-0.467763	0.000022
C28	C	0.943064	-0.352179	0.075278
C29	C	0.943048	-0.352154	-0.075124
C30	C	0.902472	-0.402675	0.000074
C31	C	0.985238	-0.207855	0.000046
C32	C	0.978976	-0.562759	0.000019
C33	C	1.134114	0.108516	0.000032
C34	C	1.226409	0.110148	0.000041
C35	C	0.976016	0.268264	0.000015
C36	C	0.977642	0.361512	0.000009
N37	N	0.982102	0.114686	-0.216970
C38	C	1.038651	0.057585	-0.451971
C39	C	1.038653	0.057583	-0.547952
C40	C	0.925567	0.171790	-0.547973
C41	C	0.925561	0.171787	-0.451993
C42	C	0.982108	0.114686	-0.403995
C43	C	0.982116	0.114686	-0.595956
C44	C	0.982118	0.114684	-0.700023
C45	C	0.982105	0.114686	-0.299921
N46	N	0.982122	0.114686	0.217019
H47	H	0.403458	0.113292	0.150833
H48	H	0.879513	0.218286	-0.412928
H49	H	0.879529	0.218282	-0.587063
H50	H	0.560753	0.116085	-0.150778
O51	O	0.903587	-0.317812	0.151124
C52	C	0.819915	-0.335865	0.151311
H53	H	0.799922	-0.349237	0.078279
H54	H	0.778022	-0.279412	0.179751
H55	H	0.814142	-0.393541	0.196054
O56	O	0.822129	-0.421213	0.000237
C57	C	0.808198	-0.469131	0.078848
H58	H	0.870309	-0.502041	0.104739
H59	H	0.764870	-0.518440	0.060776
H60	H	0.778150	-0.425663	0.134597
H61	H	0.560791	0.116083	0.150838
O62	O	0.396739	0.113205	-0.163909
C63	C	0.453601	0.114194	-0.237273
H64	H	0.511972	0.141869	-0.212909
H65	H	0.423252	0.154504	-0.295409
H66	H	0.471558	0.047009	-0.262826
H67	H	1.129047	-0.352312	0.000111
H68	H	0.910065	-0.323183	-0.138688
O69	O	1.060442	-0.452915	-0.151043
C70	C	1.019975	-0.417800	-0.230187
H71	H	0.952879	-0.392340	-0.212541
H72	H	1.019824	-0.468518	-0.285253
H73	H	1.054500	-0.364147	-0.256766
O74	O	1.060716	-0.453002	0.150972
C75	C	1.144605	-0.435647	0.150723
H76	H	1.164446	-0.422577	0.077563
H77	H	1.186193	-0.492338	0.179121
H78	H	1.151013	-0.377996	0.195283
O79	O	1.093604	0.002032	-0.405487
C80	C	1.143523	-0.048353	-0.468419
H81	H	1.109441	-0.049307	-0.536842
H82	H	1.156214	-0.115434	-0.440687
H83	H	1.205279	-0.021063	-0.478616
H84	H	1.084695	0.011085	-0.587012
