data_functionalizedCrystal
_audit_creation_method	'MofGen! by Chris Wilmer'
_symmetry_space_group_name_H-M	'P1'
_symmetry_Int_Tables_number	1
_symmetry_cell_setting	triclinic
loop_
_symmetry_equiv_pos_as_xyz
  x,y,z
_cell_length_a	18.050590
_cell_length_b	18.215407
_cell_length_c	18.215399
_cell_angle_alpha	90.020595
_cell_angle_beta	90.032491
_cell_angle_gamma	90.022413
loop_
_atom_site_label
_atom_site_type_symbol
_atom_site_fract_x
_atom_site_fract_y
_atom_site_fract_z
Zn1	Zn	0.295669	-1.125084	-0.416108
Zn2	Zn	0.629002	-0.791751	-0.082774
Zn3	Zn	0.962335	-0.458418	0.250559
Zn4	Zn	0.419864	-1.124998	-0.293032
Zn5	Zn	0.753197	-0.791664	0.040302
Zn6	Zn	1.086530	-0.458331	0.373635
Zn7	Zn	0.295692	-1.002017	-0.293053
Zn8	Zn	0.629025	-0.668683	0.040280
Zn9	Zn	0.962358	-0.335350	0.373613
Zn10	Zn	0.419821	-1.001988	-0.416055
Zn11	Zn	0.753154	-0.668654	-0.082722
Zn12	Zn	1.086488	-0.335321	0.250612
O13	O	0.357761	-1.063522	-0.354562
O14	O	0.691095	-0.730188	-0.021229
O15	O	1.024428	-0.396855	0.312105
O16	O	0.312151	-1.228057	-0.399794
O17	O	0.645485	-0.894724	-0.066461
O18	O	0.978818	-0.561390	0.266872
O19	O	0.403419	-1.108660	-0.190050
O20	O	0.736753	-0.775327	0.143283
O21	O	1.070086	-0.441993	0.476617
O22	O	0.191764	-1.018390	-0.309408
O23	O	0.525097	-0.685057	0.023925
O24	O	0.858431	-0.351724	0.357259
O25	O	0.403397	-1.227993	-0.309371
O26	O	0.736730	-0.894660	0.023962
O27	O	1.070064	-0.561327	0.357296
O28	O	0.191747	-1.108807	-0.399815
O29	O	0.525080	-0.775474	-0.066482
O30	O	0.858414	-0.442141	0.266851
O31	O	0.312191	-1.018306	-0.190066
O32	O	0.645524	-0.684973	0.143267
O33	O	0.978858	-0.351640	0.476601
O34	O	0.312150	-0.899029	-0.309357
O35	O	0.645483	-0.565695	0.023977
O36	O	0.978816	-0.232362	0.357310
O37	O	0.403325	-1.018341	-0.519046
O38	O	0.736658	-0.685007	-0.185713
O39	O	1.069991	-0.351674	0.147621
O40	O	0.403347	-0.899007	-0.399725
O41	O	0.736680	-0.565674	-0.066392
O42	O	1.070014	-0.232341	0.266941
O43	O	0.312110	-1.108779	-0.519085
O44	O	0.645444	-0.775446	-0.185752
O45	O	0.978777	-0.442113	0.147582
O46	O	0.523783	-1.108632	-0.309320
O47	O	0.857116	-0.775299	0.024014
O48	O	1.190449	-0.441965	0.357347
O49	O	0.523751	-1.018257	-0.399704
O50	O	0.857085	-0.684924	-0.066371
O51	O	1.190418	-0.351590	0.266962
C52	C	0.357747	-0.872315	-0.354538
C53	C	0.691080	-0.538982	-0.021205
C54	C	1.024413	-0.205649	0.312128
C55	C	0.357758	-0.790516	-0.354546
C56	C	0.691092	-0.457183	-0.021212
C57	C	1.024425	-0.123850	0.312121
C58	C	0.405318	-0.602331	-0.401539
C59	C	0.738651	-0.268997	-0.068206
C60	C	1.071985	0.064336	0.265128
C61	C	0.405319	-0.525472	-0.401547
C62	C	0.738653	-0.192139	-0.068214
C63	C	1.071986	0.141195	0.265120
C64	C	0.310209	-0.525465	-0.307588
C65	C	0.643542	-0.192131	0.025746
C66	C	0.976876	0.141202	0.359079
C67	C	0.310204	-0.602322	-0.307584
C68	C	0.643537	-0.268989	0.025750
C69	C	0.976871	0.064345	0.359083
C70	C	0.357763	-0.640753	-0.354558
C71	C	0.691096	-0.307420	-0.021225
C72	C	1.024429	0.025914	0.312108
C73	C	0.357769	-0.487037	-0.354570
C74	C	0.691103	-0.153704	-0.021237
C75	C	1.024436	0.179630	0.312096
C76	C	0.357771	-0.403703	-0.354579
C77	C	0.691104	-0.070370	-0.021245
C78	C	1.024437	0.262963	0.312088
C79	C	0.357761	-0.724092	-0.354551
C80	C	0.691094	-0.390759	-0.021218
C81	C	1.024427	-0.057425	0.312116
C82	C	0.550713	-1.063452	-0.354520
C83	C	0.884047	-0.730119	-0.021187
C84	C	1.217380	-0.396785	0.312147
C85	C	0.633259	-1.063489	-0.354527
C86	C	0.966593	-0.730156	-0.021193
C87	C	1.299926	-0.396823	0.312140
C88	C	0.832700	-1.112724	-0.305431
C89	C	1.166033	-0.779391	0.027902
C90	C	1.499366	-0.446057	0.361236
C91	C	0.882032	-1.130698	-0.372595
C92	C	1.215365	-0.797364	-0.039262
C93	C	1.548699	-0.464031	0.294072
C94	C	0.784390	-1.063521	-0.354546
C95	C	1.117723	-0.730188	-0.021213
C96	C	1.451056	-0.396854	0.312120
C97	C	0.882139	-1.045612	-0.287403
C98	C	1.215472	-0.712279	0.045930
C99	C	1.548806	-0.378945	0.379264
C100	C	0.930375	-1.063553	-0.354559
C101	C	1.263708	-0.730219	-0.021226
C102	C	1.597041	-0.396886	0.312108
C103	C	0.832635	-1.081529	-0.421746
C104	C	1.165968	-0.748196	-0.088412
C105	C	1.499301	-0.414862	0.244921
C106	C	0.832737	-0.996412	-0.336508
C107	C	1.166070	-0.663079	-0.003175
C108	C	1.499404	-0.329746	0.330159
C109	C	0.882047	-1.014360	-0.403718
C110	C	1.215380	-0.681027	-0.070385
C111	C	1.548714	-0.347694	0.262948
C112	C	0.700291	-1.063504	-0.354538
C113	C	1.033625	-0.730171	-0.021204
C114	C	1.366958	-0.396838	0.312129
C115	C	1.014471	-1.063569	-0.354575
C116	C	1.347804	-0.730236	-0.021242
C117	C	1.681138	-0.396902	0.312091
C118	C	1.164056	-1.063595	-0.354604
C119	C	1.497389	-0.730261	-0.021270
C120	C	1.830722	-0.396928	0.312063
C121	C	1.081510	-1.063582	-0.354580
C122	C	1.414843	-0.730249	-0.021246
C123	C	1.748177	-0.396915	0.312087
C124	C	0.357710	-1.063566	-0.546515
C125	C	0.691043	-0.730233	-0.213182
C126	C	1.024377	-0.396900	0.120152
C127	C	0.357688	-1.063586	-0.628314
C128	C	0.691022	-0.730252	-0.294980
C129	C	1.024355	-0.396919	0.038353
C130	C	0.357774	-0.255474	-0.354583
C131	C	0.691107	0.077859	-0.021249
C132	C	1.024441	0.411192	0.312084
C133	C	0.357774	-0.337273	-0.354583
C134	C	0.691107	-0.003940	-0.021250
C135	C	1.024440	0.329393	0.312084
C136	C	0.310149	-1.110694	-0.816529
C137	C	0.643482	-0.777360	-0.483196
C138	C	0.976815	-0.444027	-0.149863
C139	C	0.310127	-1.110703	-0.893388
C140	C	0.643460	-0.777369	-0.560055
C141	C	0.976794	-0.444036	-0.226721
C142	C	0.405113	-1.016529	-0.893336
C143	C	0.738446	-0.683196	-0.560003
C144	C	1.071780	-0.349863	-0.226670
C145	C	0.405130	-1.016517	-0.816479
C146	C	0.738464	-0.683184	-0.483146
C147	C	1.071797	-0.349851	-0.149812
C148	C	0.357649	-1.063604	-0.778077
C149	C	0.690983	-0.730270	-0.444744
C150	C	1.024316	-0.396937	-0.111411
C151	C	0.357610	-1.063625	-0.931794
C152	C	0.690944	-0.730291	-0.598460
C153	C	1.024277	-0.396958	-0.265127
C154	C	0.357587	-1.063634	-1.015127
C155	C	0.690921	-0.730300	-0.681794
C156	C	1.024254	-0.396967	-0.348461
C157	C	0.357671	-1.063594	-0.694738
C158	C	0.691005	-0.730261	-0.361405
C159	C	1.024338	-0.396927	-0.028072
C160	C	0.357759	-1.063519	-0.163356
C161	C	0.691092	-0.730186	0.169978
C162	C	1.024425	-0.396853	0.503311
C163	C	0.357571	-1.063643	-0.081557
C164	C	0.690905	-0.730309	0.251776
C165	C	1.024238	-0.396976	0.585110
H166	H	0.444041	-0.633619	-0.439791
H167	H	0.777375	-0.300286	-0.106457
H168	H	1.110708	0.033048	0.226876
H169	H	0.811032	-1.154352	-0.263943
H170	H	1.144365	-0.821018	0.069390
H171	H	1.477698	-0.487685	0.402724
Br172	Br	0.245709	-1.174595	-0.764415
Br173	Br	0.579042	-0.841261	-0.431081
Br174	Br	0.912375	-0.507928	-0.097748
Br175	Br	0.918105	-1.225313	-0.398058
Br176	Br	1.251439	-0.891980	-0.064725
Br177	Br	1.584772	-0.558647	0.268608
H178	H	0.811066	-0.939663	-0.321221
H179	H	1.144399	-0.606330	0.012112
H180	H	1.477733	-0.272996	0.345446
Br181	Br	0.918385	-1.020344	-0.192756
Br182	Br	1.251718	-0.687011	0.140578
Br183	Br	1.585052	-0.353677	0.473911
Br184	Br	0.469858	-0.473330	-0.465313
Br185	Br	0.803191	-0.139997	-0.131980
Br186	Br	1.136525	0.193337	0.201354
Br187	Br	0.469594	-0.952598	-0.764289
Br188	Br	0.802927	-0.619265	-0.430956
Br189	Br	1.136261	-0.285932	-0.097623
Br190	Br	0.245668	-0.473304	-0.243839
Br191	Br	0.579002	-0.139970	0.089494
Br192	Br	0.912335	0.193363	0.422827
Br193	Br	0.245664	-1.174619	-0.945570
Br194	Br	0.578997	-0.841285	-0.612237
Br195	Br	0.912331	-0.507952	-0.278903
Br196	Br	0.796552	-1.106918	-0.516421
Br197	Br	1.129885	-0.773584	-0.183088
Br198	Br	1.463218	-0.440251	0.150245
Br199	Br	0.245653	-0.654471	-0.243827
Br200	Br	0.578986	-0.321138	0.089507
Br201	Br	0.912320	0.012195	0.422840
Br202	Br	0.917937	-0.945030	-0.473031
Br203	Br	1.251271	-0.611696	-0.139698
Br204	Br	1.584604	-0.278363	0.193636
Br205	Br	0.469551	-0.952632	-0.945457
Br206	Br	0.802885	-0.619299	-0.612124
Br207	Br	1.136218	-0.285966	-0.278791
