data_functionalizedCrystal
_audit_creation_method	'MofGen! by Chris Wilmer'
_symmetry_space_group_name_H-M	'P1'
_symmetry_Int_Tables_number	1
_symmetry_cell_setting	triclinic
loop_
_symmetry_equiv_pos_as_xyz
  x,y,z
_cell_length_a	8.559649
_cell_length_b	7.681481
_cell_length_c	8.634740
_cell_angle_alpha	83.367078
_cell_angle_beta	85.174486
_cell_angle_gamma	94.912990
loop_
_atom_site_label
_atom_site_type_symbol
_atom_site_fract_x
_atom_site_fract_y
_atom_site_fract_z
O1	O	2.099590	-0.146412	-0.035283
O2	O	2.599590	0.353588	0.464717
O3	O	1.646426	-0.146417	0.042928
O4	O	2.146426	0.353583	0.542928
O5	O	1.851557	-0.146411	-0.218113
O6	O	2.351557	0.353589	0.281887
O7	O	1.894459	-0.146417	0.225759
O8	O	2.394459	0.353583	0.725759
O9	O	1.876795	0.146447	-0.250308
O10	O	2.376795	0.646447	0.249692
O11	O	1.671665	0.146442	0.010734
O12	O	2.171665	0.646442	0.510734
O13	O	2.124828	0.146446	-0.067477
O14	O	2.624828	0.646446	0.432523
Zn15	Zn	1.902254	0.192942	-0.033483
Zn16	Zn	2.402254	0.692942	0.466517
Zn17	Zn	1.869001	-0.192912	0.008934
Zn18	Zn	2.369001	0.307088	0.508934
O19	O	1.919697	0.146441	0.193564
O20	O	2.419697	0.646441	0.693564
C21	C	1.600428	0.000012	0.032758
C22	C	2.100428	0.500012	0.532758
C23	C	1.425764	0.000010	0.050401
C24	C	1.925764	0.500010	0.550401
C25	C	1.854457	0.000015	-0.290509
C26	C	2.354457	0.500015	0.209491
C27	C	1.825478	0.000005	-0.458260
C28	C	2.325478	0.500005	0.041740
C29	C	2.170826	0.000014	-0.057307
C30	C	2.670826	0.500014	0.442693
C31	C	2.345489	0.000004	-0.074948
C32	C	2.845489	0.500004	0.425052
N33	N	1.924959	0.456277	-0.062435
N34	N	2.424959	0.956277	0.437565
N35	N	1.846306	-0.456247	0.037872
N36	N	2.346306	0.043753	0.537872
C37	C	1.916797	0.000011	0.265961
C38	C	2.416797	0.500011	0.765961
C39	C	1.945775	0.000009	0.433713
C40	C	2.445775	0.500009	0.933713
H41	H	2.360866	-0.000005	0.171217
H42	H	2.860866	0.499995	0.671217
H43	H	2.410394	0.000001	-0.195771
H44	H	2.910394	0.500001	0.304229
F45	F	2.029928	0.554573	-0.196256
F46	F	2.529928	1.054573	0.303744
H47	H	1.766017	0.468555	0.140257
H48	H	2.266017	0.968555	0.640257
H49	H	1.700317	-0.000003	-0.494107
H50	H	2.200317	0.499997	0.005893
H51	H	2.070938	-0.000055	-0.530426
H52	H	2.570938	0.499945	-0.030426
