data_functionalizedCrystal
_audit_creation_method	'MofGen! by Chris Wilmer'
_symmetry_space_group_name_H-M	'P1'
_symmetry_Int_Tables_number	1
_symmetry_cell_setting	triclinic
loop_
_symmetry_equiv_pos_as_xyz
  x,y,z
_cell_length_a	10.654562
_cell_length_b	10.540510
_cell_length_c	9.130313
_cell_angle_alpha	90.001199
_cell_angle_beta	89.996930
_cell_angle_gamma	84.501707
loop_
_atom_site_label
_atom_site_type_symbol
_atom_site_fract_x
_atom_site_fract_y
_atom_site_fract_z
O1	O	1.667869	0.178374	-0.121887
O2	O	1.302396	0.195345	-0.121868
O3	O	1.493490	0.002148	-0.121877
O4	O	1.476775	0.371571	-0.121878
O5	O	1.493488	0.002153	0.121721
O6	O	1.302394	0.195350	0.121731
O7	O	1.667866	0.178379	0.121712
Cu8	Cu	1.485130	0.186865	0.143964
Cu9	Cu	1.485133	0.186859	-0.144120
O10	O	1.476773	0.371576	0.121721
C11	C	1.255597	0.194098	-0.000066
C12	C	1.116154	0.190360	-0.000059
C13	C	1.050621	0.188619	0.132715
C14	C	0.919598	0.185117	0.132691
C15	C	0.919651	0.185101	-0.132894
C16	C	1.050673	0.188595	-0.132868
C17	C	1.116102	0.190384	0.265524
C18	C	1.050570	0.188645	0.398309
C19	C	0.919547	0.185142	0.398285
C20	C	0.854056	0.183379	0.265475
C21	C	1.492243	-0.045153	-0.000081
C22	C	1.488517	-0.186101	-0.000090
C23	C	1.621269	-0.403599	0.000461
C24	C	1.625244	-0.257004	-0.000095
C25	C	1.418527	-0.230841	-0.139190
C26	C	1.415520	-0.377601	-0.139299
C27	C	1.412670	-0.377403	0.137719
C28	C	1.419155	-0.231064	0.139550
C29	C	1.714666	0.179626	-0.000093
C30	C	1.854109	0.183364	-0.000110
C31	C	1.478019	0.418877	-0.000079
C32	C	1.481746	0.559825	-0.000079
N33	N	1.485137	0.186869	0.346586
N34	N	1.485135	0.186845	-0.346743
C35	C	1.569775	0.101350	0.423234
C36	C	1.569772	0.101335	0.576571
C37	C	1.400488	0.272368	0.576599
C38	C	1.400487	0.272376	0.423265
C39	C	1.654426	0.015843	0.346556
C40	C	1.739072	-0.069681	0.423204
C41	C	1.739069	-0.069696	0.576541
C42	C	1.654419	0.015813	0.653230
H43	H	1.104030	0.190018	-0.240985
H44	H	1.680326	-0.228618	-0.099985
H45	H	0.866318	0.183669	-0.241021
C46	C	1.273994	-0.407279	0.138999
H47	H	1.258218	-0.457758	0.056014
H48	H	1.220433	-0.329906	0.135944
H49	H	1.257788	-0.452633	0.225817
C50	C	1.699237	-0.217378	0.134589
H51	H	1.727137	-0.290935	0.190135
H52	H	1.646168	-0.160550	0.193450
H53	H	1.770085	-0.176224	0.103264
C54	C	1.832183	-0.163727	0.338853
H55	H	1.820075	-0.151462	0.236555
H56	H	1.817811	-0.248589	0.363964
H57	H	1.916119	-0.149130	0.363990
C58	C	1.484186	-0.189197	-0.279049
H59	H	1.441133	-0.216710	-0.362642
H60	H	1.569050	-0.226219	-0.280301
H61	H	1.482863	-0.098959	-0.280493
H62	H	1.674535	-0.445568	0.100217
H63	H	1.674230	-0.447123	-0.098735
C64	C	1.307393	0.366450	0.338946
H65	H	1.256992	0.417387	0.406572
H66	H	1.254716	0.320292	0.279127
H67	H	1.353045	0.419728	0.279136
H68	H	1.807982	-0.139341	0.638946
H69	H	1.463353	-0.417834	-0.243283
C70	C	1.654407	0.015795	0.821897
H71	H	1.591870	0.078965	0.856587
H72	H	1.734824	0.033922	0.856590
H73	H	1.636494	-0.065515	0.856568
H74	H	0.747369	0.180525	0.265466
C75	C	1.277380	-0.408631	-0.147863
H76	H	1.223346	-0.331570	-0.151270
H77	H	1.257863	-0.456318	-0.063988
H78	H	1.265707	-0.457130	-0.233651
C79	C	1.282555	-0.166775	-0.146189
H80	H	1.267227	-0.112037	-0.064148
H81	H	1.225064	-0.230305	-0.144895
H82	H	1.271496	-0.118433	-0.233841
C83	C	1.471046	-0.434746	0.280152
H84	H	1.538102	-0.497512	0.256907
H85	H	1.408510	-0.472837	0.334472
H86	H	1.502575	-0.369261	0.336935
H87	H	1.470083	-0.202466	0.242455
H88	H	1.319334	-0.181966	0.147955
H89	H	1.331571	0.341987	0.639049
H90	H	1.222788	0.193240	0.265559
H91	H	1.103902	0.190071	0.506437
C92	C	0.847464	0.183227	0.544338
H93	H	0.905230	0.184788	0.623431
H94	H	0.805262	0.107967	0.549860
H95	H	0.787440	0.255772	0.549839
H96	H	1.654439	0.015850	0.221702
