data_functionalizedCrystal
_audit_creation_method	'MofGen! by Chris Wilmer'
_symmetry_space_group_name_H-M	'P1'
_symmetry_Int_Tables_number	1
_symmetry_cell_setting	triclinic
loop_
_symmetry_equiv_pos_as_xyz
  x,y,z
_cell_length_a	17.000371
_cell_length_b	17.019294
_cell_length_c	17.766277
_cell_angle_alpha	86.114664
_cell_angle_beta	89.990110
_cell_angle_gamma	79.505866
loop_
_atom_site_label
_atom_site_type_symbol
_atom_site_fract_x
_atom_site_fract_y
_atom_site_fract_z
O1	O	1.056076	0.028428	-0.064440
O2	O	1.556076	0.528428	0.435560
O3	O	0.824311	0.057060	-0.066296
O4	O	1.324311	0.557060	0.433704
O5	O	0.946658	-0.072537	-0.057892
O6	O	1.446658	0.427463	0.442108
O7	O	0.933729	0.158025	-0.072844
O8	O	1.433729	0.658025	0.427156
O9	O	0.946637	-0.072542	0.067297
O10	O	1.446637	0.427458	0.567297
O11	O	0.824289	0.057055	0.058893
O12	O	1.324289	0.557055	0.558893
O13	O	1.056054	0.028423	0.060749
O14	O	1.556054	0.528423	0.560749
Cu15	Cu	0.940170	0.042739	0.071252
Cu16	Cu	1.440170	0.542739	0.571252
Cu17	Cu	0.940195	0.042744	-0.076799
Cu18	Cu	1.440195	0.542744	0.423201
O19	O	0.933707	0.158021	0.052345
O20	O	1.433707	0.658021	0.552345
C21	C	0.794645	0.058596	-0.003801
C22	C	1.294645	0.558596	0.496199
C23	C	0.706281	0.063169	-0.004098
C24	C	1.206281	0.563169	0.495902
C25	C	0.674335	-0.007205	0.000467
C26	C	1.174335	0.492795	0.500467
C27	C	0.591307	-0.002903	0.000183
C28	C	1.091307	0.497097	0.500183
C29	C	0.540227	0.071773	-0.004661
C30	C	1.040227	0.571773	0.495339
C31	C	0.572178	0.142152	-0.009229
C32	C	1.072178	0.642152	0.490771
C33	C	0.655204	0.137849	-0.008950
C34	C	1.155204	0.637849	0.491050
C35	C	0.289062	0.088391	-0.005744
C36	C	0.789062	0.588391	0.494256
C37	C	0.206031	0.092688	-0.006020
C38	C	0.706031	0.592688	0.493980
C39	C	0.225165	-0.052367	0.003390
C40	C	0.725165	0.447633	0.503390
C41	C	0.308193	-0.056663	0.003673
C42	C	0.808193	0.443337	0.503673
C43	C	0.340137	0.013716	-0.000899
C44	C	0.840137	0.513716	0.499101
C45	C	0.455359	0.076171	-0.004950
C46	C	0.955359	0.576171	0.495050
C47	C	0.425003	0.009316	-0.000616
C48	C	0.925003	0.509316	0.499384
C49	C	0.946157	-0.101895	0.006604
C50	C	1.446157	0.398105	0.506604
C51	C	0.944685	-0.189363	0.012272
C52	C	1.444685	0.310637	0.512272
C53	C	0.944008	-0.230449	-0.053306
C54	C	1.444008	0.269551	0.446694
C55	C	0.942620	-0.312634	-0.047978
C56	C	1.442620	0.187366	0.452022
C57	C	0.941916	-0.353733	0.022927
C58	C	1.441916	0.146267	0.522927
C59	C	0.942591	-0.312641	0.088510
C60	C	1.442591	0.187359	0.588510
C61	C	0.943973	-0.230456	0.083181
C62	C	1.443973	0.269544	0.583181
C63	C	0.937737	-0.601877	0.042429
C64	C	1.437737	-0.101877	0.542429
C65	C	0.936358	-0.684067	0.047752
C66	C	1.436358	-0.184067	0.547752
C67	C	0.936385	-0.684055	-0.088736
C68	C	1.436385	-0.184055	0.411264
C69	C	0.937772	-0.601870	-0.094058
C70	C	1.437772	-0.101870	0.405942
C71	C	0.938443	-0.560784	-0.028476
C72	C	1.438443	-0.060784	0.471524
C73	C	0.940500	-0.437740	0.028375
C74	C	1.440500	0.062260	0.528375
C75	C	0.939853	-0.476778	-0.033924
C76	C	1.439853	0.023222	0.466076
C77	C	1.085721	0.026888	-0.001747
C78	C	1.585721	0.526888	0.498253
C79	C	1.174084	0.022315	-0.001456
C80	C	1.674084	0.522315	0.498544
C81	C	0.934209	0.187378	-0.012153
C82	C	1.434209	0.687378	0.487847
C83	C	0.935680	0.274847	-0.017825
C84	C	1.435680	0.774847	0.482175
N85	N	0.940158	0.042734	0.175382
N86	N	1.440158	0.542734	0.675382
N87	N	0.940214	0.042743	-0.180929
N88	N	1.440214	0.542743	0.319071
C89	C	0.994351	-0.014627	0.218489
C90	C	1.494351	0.485373	0.718489
C91	C	0.994355	-0.014631	0.297291
C92	C	1.494355	0.485369	0.797291
C93	C	0.940175	0.042739	0.332983
C94	C	1.440175	0.542739	0.832983
C95	C	0.885972	0.100105	0.289866
C96	C	1.385972	0.600105	0.789866
C97	C	0.885963	0.100102	0.211066
C98	C	1.385963	0.600102	0.711066
C99	C	0.929664	0.115311	0.453114
C100	C	1.429664	0.615311	0.953114
C101	C	0.929678	0.115314	0.531913
C102	C	1.429678	0.615314	1.031913
C103	C	0.940196	0.042747	0.576028
C104	C	1.440196	0.542747	1.076028
C105	C	0.950717	-0.029827	0.541336
C106	C	1.450717	0.470173	1.041336
C107	C	0.950709	-0.029830	0.462536
C108	C	1.450709	0.470170	0.962536
C109	C	0.940177	0.042748	0.418428
C110	C	1.440177	0.542748	0.918428
C111	C	0.994397	-0.014622	0.704582
C112	C	1.494397	0.485378	1.204582
C113	C	0.994396	-0.014627	0.783385
C114	C	1.494396	0.485373	1.283385
C115	C	0.886016	0.100115	0.775958
C116	C	1.386016	0.600115	1.275958
C117	C	0.886013	0.100113	0.697157
C118	C	1.386013	0.600113	1.197157
C119	C	0.940208	0.042745	0.661473
C120	C	1.440208	0.542745	1.161473
H121	H	0.565301	-0.060209	0.003899
H122	H	1.065301	0.439791	0.503899
Cl123	Cl	0.941696	-0.364306	0.177649
Cl124	Cl	1.441696	0.135694	0.677649
H125	H	0.841898	0.146824	0.805018
H126	H	1.341898	0.646824	1.305018
H127	H	1.038523	-0.061337	0.675527
H128	H	1.538523	0.438663	1.175527
H129	H	0.164442	0.153502	-0.009962
H130	H	0.664442	0.653502	0.490038
H131	H	0.349778	-0.117472	0.007621
H132	H	0.849778	0.382528	0.507621
H133	H	0.530582	0.202955	-0.013178
H134	H	1.030582	0.702955	0.486822
H135	H	0.942071	-0.346084	-0.101378
H136	H	1.442071	0.153916	0.398622
H137	H	0.199147	-0.109666	0.007103
H138	H	0.699147	0.390334	0.507103
Cl139	Cl	0.935540	-0.735710	-0.171177
Cl140	Cl	1.435540	-0.235710	0.328823
Cl141	Cl	0.940743	-0.425110	-0.123059
Cl142	Cl	1.440743	0.074890	0.376941
H143	H	1.038487	-0.061342	0.332395
H144	H	1.538487	0.438658	0.832395
H145	H	0.938300	-0.568437	0.095831
H146	H	1.438300	-0.068437	0.595831
Cl147	Cl	0.391137	0.170047	-0.011040
Cl148	Cl	0.891137	0.670047	0.488960
H149	H	0.921085	0.174409	0.417201
H150	H	1.421085	0.674409	0.917201
Cl151	Cl	0.939611	-0.489412	0.117510
Cl152	Cl	1.439611	0.010588	0.617510
H153	H	0.938346	-0.568413	-0.151797
H154	H	1.438346	-0.068413	0.348203
H155	H	0.959273	-0.088922	0.434292
H156	H	1.459273	0.411078	0.934292
Cl157	Cl	0.695365	0.226323	-0.014692
Cl158	Cl	1.195365	0.726323	0.485308
H159	H	0.959281	-0.088918	0.577253
H160	H	1.459281	0.411082	1.077253
H161	H	0.315060	0.145699	-0.009471
H162	H	0.815060	0.645699	0.490529
H163	H	0.466596	-0.051485	0.003324
H164	H	0.966596	0.448515	0.503324
H165	H	0.715920	-0.068015	0.004415
H166	H	1.215920	0.431985	0.504415
H167	H	0.944585	-0.196994	-0.111045
H168	H	1.444585	0.303006	0.388955
Cl169	Cl	0.935477	-0.735734	0.136898
Cl170	Cl	1.435477	-0.235734	0.636898
H171	H	0.944514	-0.197003	0.136582
H172	H	1.444514	0.302997	0.636582
Cl173	Cl	1.062475	-0.086748	0.173630
Cl174	Cl	1.562475	0.413252	0.673630
H175	H	1.038524	-0.061341	0.818484
H176	H	1.538524	0.438659	1.318484
H177	H	0.841887	0.146824	0.662057
H178	H	1.341887	0.646824	1.162057
Cl179	Cl	0.916457	0.206549	0.575519
Cl180	Cl	1.416457	0.706549	1.075519
H181	H	0.841856	0.146815	0.318930
H182	H	1.341856	0.646815	0.818930
Cl183	Cl	0.817830	0.172219	0.156871
Cl184	Cl	1.317830	0.672219	0.656871
