data_functionalizedCrystal
_audit_creation_method	'MofGen! by Chris Wilmer'
_symmetry_space_group_name_H-M	'P1'
_symmetry_Int_Tables_number	1
_symmetry_cell_setting	triclinic
loop_
_symmetry_equiv_pos_as_xyz
  x,y,z
_cell_length_a	13.032831
_cell_length_b	16.120484
_cell_length_c	13.032268
_cell_angle_alpha	80.357249
_cell_angle_beta	89.113023
_cell_angle_gamma	86.078521
loop_
_atom_site_label
_atom_site_type_symbol
_atom_site_fract_x
_atom_site_fract_y
_atom_site_fract_z
Zn1	Zn	1.458766	-0.562103	0.811459
Zn2	Zn	1.958766	-0.062103	1.311459
Zn3	Zn	1.471747	-0.686112	0.646236
Zn4	Zn	1.971747	-0.186112	1.146236
Zn5	Zn	1.311081	-0.527333	0.615806
Zn6	Zn	1.811081	-0.027333	1.115806
Zn7	Zn	1.278313	-0.681612	0.796116
Zn8	Zn	1.778313	-0.181612	1.296116
O9	O	1.379976	-0.614290	0.717404
O10	O	1.879976	-0.114290	1.217404
O11	O	1.603247	-0.594988	0.808698
O12	O	2.103247	-0.094988	1.308698
O13	O	1.469580	-0.652382	0.497592
O14	O	1.969580	-0.152382	0.997592
O15	O	1.338953	-0.415480	0.635446
O16	O	1.838953	0.084520	1.135446
O17	O	1.612784	-0.686097	0.687309
O18	O	2.112784	-0.186097	1.187309
O19	O	1.447456	-0.441026	0.779192
O20	O	1.947456	0.058974	1.279192
O21	O	1.351539	-0.535727	0.475236
O22	O	1.851539	-0.035727	0.975236
O23	O	1.163974	-0.531364	0.620568
O24	O	1.663974	-0.031364	1.120568
O25	O	1.283104	-0.678427	0.942758
O26	O	1.783104	-0.178427	1.442758
O27	O	1.139900	-0.644712	0.753041
O28	O	1.639900	-0.144712	1.253041
O29	O	1.415682	-0.590624	0.954031
O30	O	1.915682	-0.090624	1.454031
O31	O	1.437806	-0.801980	0.672431
O32	O	1.937806	-0.301980	1.172431
O33	O	1.295691	-0.798674	0.782547
O34	O	1.795691	-0.298674	1.282547
C35	C	1.114921	-0.583777	0.681838
C36	C	1.614921	-0.083777	1.181838
C37	C	1.001525	-0.570746	0.666648
C38	C	1.501525	-0.070746	1.166648
C39	C	1.364626	-0.830530	0.729153
C40	C	1.864626	-0.330530	1.229153
C41	C	1.358148	-0.923053	0.734226
C42	C	1.858148	-0.423053	1.234226
C43	C	0.939092	-0.621091	0.725332
C44	C	1.439092	-0.121091	1.225332
C45	C	0.821890	-0.607624	0.709634
C46	C	1.321890	-0.107624	1.209634
C47	C	1.346324	-1.092455	0.743510
C48	C	1.846324	-0.592455	1.243510
C49	C	1.413810	-1.135307	0.691340
C50	C	1.913810	-0.635307	1.191340
C51	C	1.407231	-1.229569	0.696506
C52	C	1.907231	-0.729569	1.196506
C53	C	1.352901	-0.998185	0.738345
C54	C	1.852901	-0.498185	1.238345
C55	C	1.646067	-0.644923	0.753110
C56	C	2.146067	-0.144923	1.253110
C57	C	1.759458	-0.657977	0.768325
C58	C	2.259458	-0.157977	1.268325
C59	C	1.344290	-0.637902	0.986938
C60	C	1.844290	-0.137902	1.486938
C61	C	1.329082	-0.647964	1.101797
C62	C	1.829082	-0.147964	1.601797
C63	C	1.395412	-0.397210	0.705636
C64	C	1.895412	0.102790	1.205636
C65	C	1.401989	-0.304704	0.700622
C66	C	1.901989	0.195296	1.200622
C67	C	1.415587	-0.590717	0.448924
C68	C	1.915587	-0.090717	0.948924
C69	C	1.431009	-0.580443	0.334079
C70	C	1.931009	-0.080443	0.834079
C71	C	1.387900	-0.609007	1.158582
C72	C	1.887900	-0.109007	1.658582
C73	C	1.372183	-0.619405	1.277296
C74	C	1.872183	-0.119405	1.777296
H75	H	0.788578	-0.554544	0.647771
H76	H	1.288578	-0.054544	1.147771
H77	H	0.792768	-0.711049	0.830198
H78	H	1.292768	-0.211049	1.330198
H79	H	1.492999	-0.539383	1.294813
H80	H	1.992999	-0.039383	1.794813
O81	O	1.290058	-0.673782	1.329301
O82	O	1.790058	-0.173782	1.829301
H83	H	1.249358	-0.700732	1.269646
H84	H	1.749358	-0.200732	1.769646
H85	H	0.968208	-0.517670	0.604790
H86	H	1.468208	-0.017670	1.104790
O87	O	1.470014	-0.554627	1.106571
O88	O	1.970014	-0.054627	1.606571
H89	H	1.510704	-0.527667	1.166225
H90	H	2.010704	-0.027667	1.666225
O91	O	1.496886	-1.090135	0.627036
O92	O	1.996886	-0.590135	1.127036
H93	H	1.545312	-1.136070	0.589619
H94	H	2.045312	-0.636070	1.089619
O95	O	1.246958	-0.702336	1.153803
O96	O	1.746958	-0.202336	1.653803
H97	H	1.262516	-0.767873	1.139032
H98	H	1.762516	-0.267873	1.639032
O99	O	0.983205	-0.691379	0.807305
O100	O	1.483205	-0.191379	1.307305
H101	H	1.068336	-0.690920	0.806779
H102	H	1.568336	-0.190920	1.306779
O103	O	1.263232	-1.137616	0.807788
O104	O	1.763232	-0.637616	1.307788
H105	H	1.271032	-1.205635	0.801789
H106	H	1.771032	-0.705635	1.301789
