data_functionalizedCrystal
_audit_creation_method	'MofGen! by Chris Wilmer'
_symmetry_space_group_name_H-M	'P1'
_symmetry_Int_Tables_number	1
_symmetry_cell_setting	triclinic
loop_
_symmetry_equiv_pos_as_xyz
  x,y,z
_cell_length_a	11.169417
_cell_length_b	21.295417
_cell_length_c	11.169409
_cell_angle_alpha	90.041341
_cell_angle_beta	90.020564
_cell_angle_gamma	90.031386
loop_
_atom_site_label
_atom_site_type_symbol
_atom_site_fract_x
_atom_site_fract_y
_atom_site_fract_z
Zn1	Zn	1.834803	-0.250544	0.678467
Zn2	Zn	2.334803	0.249456	1.178467
Zn3	Zn	1.834619	-0.355832	0.477752
Zn4	Zn	2.334619	0.144168	0.977752
Zn5	Zn	1.634086	-0.250582	0.477802
Zn6	Zn	2.134086	0.249418	0.977802
Zn7	Zn	1.634026	-0.355781	0.678397
Zn8	Zn	2.134026	0.144219	1.178397
O9	O	1.734383	-0.303185	0.578105
O10	O	2.234383	0.196815	1.078105
O11	O	2.002728	-0.264516	0.651851
O12	O	2.502728	0.235484	1.151851
O13	O	1.807966	-0.341908	0.309809
O14	O	2.307966	0.158092	0.809809
O15	O	1.660814	-0.162488	0.504470
O16	O	2.160814	0.337512	1.004470
O17	O	2.002593	-0.341871	0.504386
O18	O	2.502593	0.158129	1.004386
O19	O	1.808280	-0.162460	0.651898
O20	O	2.308280	0.337540	1.151898
O21	O	1.660636	-0.264581	0.309845
O22	O	2.160636	0.235419	0.809845
O23	O	1.466128	-0.264532	0.504402
O24	O	1.966128	0.235468	1.004402
O25	O	1.660711	-0.341783	0.846356
O26	O	2.160711	0.158217	1.346356
O27	O	1.466084	-0.341821	0.651779
O28	O	1.966084	0.158179	1.151779
O29	O	1.808221	-0.264466	0.846408
O30	O	2.308221	0.235534	1.346408
O31	O	1.807908	-0.443915	0.504318
O32	O	2.307908	0.056085	1.004318
O33	O	1.660533	-0.443877	0.651731
O34	O	2.160533	0.056123	1.151731
C35	C	1.422559	-0.303175	0.578089
C36	C	1.922559	0.196825	1.078089
C37	C	1.289159	-0.303186	0.578111
C38	C	1.789159	0.196814	1.078111
C39	C	1.734226	-0.466736	0.578038
C40	C	2.234226	0.033264	1.078038
C41	C	1.734269	-0.536704	0.578050
C42	C	2.234269	-0.036704	1.078050
C43	C	1.811075	-0.569570	0.501371
C44	C	2.311075	-0.069570	1.001371
C45	C	1.811131	-0.635312	0.501398
C46	C	2.311131	-0.135312	1.001398
C47	C	1.734360	-0.668187	0.578091
C48	C	2.234360	-0.168187	1.078091
C49	C	1.657548	-0.635314	0.654785
C50	C	2.157548	-0.135314	1.154785
C51	C	1.657502	-0.569572	0.654765
C52	C	2.157502	-0.069572	1.154765
N53	N	1.629370	-0.771453	0.587235
N54	N	2.129370	-0.271453	1.087235
N55	N	1.629416	-0.833904	0.587248
N56	N	2.129416	-0.333904	1.087248
C57	C	1.734494	-0.866262	0.578160
C58	C	2.234494	-0.366262	1.078160
N59	N	1.839526	-0.833808	0.569035
N60	N	2.339526	-0.333808	1.069035
N61	N	1.839478	-0.771351	0.569016
N62	N	2.339478	-0.271351	1.069016
C63	C	1.734401	-0.739472	0.578123
C64	C	2.234401	-0.239472	1.078123
C65	C	1.811368	-0.970412	0.501506
C66	C	2.311368	-0.470412	1.001506
C67	C	1.811426	-1.036156	0.501541
C68	C	2.311426	-0.536156	1.001541
C69	C	1.657832	-1.036156	0.654923
C70	C	2.157832	-0.536156	1.154923
C71	C	1.657785	-0.970414	0.654894
C72	C	2.157785	-0.470414	1.154894
C73	C	1.734551	-0.937546	0.578179
C74	C	2.234551	-0.437546	1.078179
C75	C	2.047426	-0.303195	0.578121
C76	C	2.547426	0.196805	1.078121
C77	C	2.180826	-0.303199	0.578128
C78	C	2.680826	0.196801	1.078128
C79	C	1.734480	-0.303115	0.891147
C80	C	2.234480	0.196885	1.391147
C81	C	1.734521	-0.303085	1.024547
C82	C	2.234521	0.196915	1.524547
C83	C	1.734574	-0.138994	0.578198
C84	C	2.234574	0.361006	1.078198
C85	C	1.734655	-0.069026	0.578237
C86	C	2.234655	0.430974	1.078237
C87	C	1.734357	-0.303209	0.266280
C88	C	2.234357	0.196791	0.766280
C89	C	1.734548	-0.303061	0.132880
C90	C	2.234548	0.196939	0.632880
H91	H	1.873585	-0.542810	0.438908
H92	H	2.373585	-0.042810	0.938908
H93	H	1.595042	-0.662084	0.717232
H94	H	2.095042	-0.162084	1.217232
H95	H	1.594956	-0.542813	0.717208
H96	H	2.094956	-0.042813	1.217208
H97	H	1.873880	-0.943650	0.439044
H98	H	2.373880	-0.443650	0.939044
Br99	Br	1.915686	-1.080761	0.397479
Br100	Br	2.415686	-0.580761	0.897479
H101	H	1.595329	-1.062922	0.717374
H102	H	2.095329	-0.562922	1.217374
Br103	Br	1.553539	-0.925808	0.758962
Br104	Br	2.053539	-0.425808	1.258962
H105	H	1.873681	-0.662076	0.438956
H106	H	2.373681	-0.162076	0.938956
