data_functionalizedCrystal
_audit_creation_method	'MofGen! by Chris Wilmer'
_symmetry_space_group_name_H-M	'P1'
_symmetry_Int_Tables_number	1
_symmetry_cell_setting	triclinic
loop_
_symmetry_equiv_pos_as_xyz
  x,y,z
_cell_length_a	15.944551
_cell_length_b	14.044220
_cell_length_c	13.101039
_cell_angle_alpha	86.332523
_cell_angle_beta	93.353409
_cell_angle_gamma	88.343808
loop_
_atom_site_label
_atom_site_type_symbol
_atom_site_fract_x
_atom_site_fract_y
_atom_site_fract_z
O1	O	-1.127901	-0.117026	-0.085109
O2	O	-0.884482	-0.132096	-0.085135
O3	O	-1.002537	0.013423	-0.085112
O4	O	-1.009846	-0.262545	-0.085132
O5	O	-0.994068	0.002965	0.085316
O6	O	-0.876013	-0.142555	0.085293
O7	O	-1.119432	-0.127484	0.085319
Zn8	Zn	-0.996378	-0.136680	0.112365
Zn9	Zn	-1.007536	-0.122901	-0.112181
O10	O	-1.001377	-0.273003	0.085296
C11	C	-0.848906	-0.136700	0.000076
C12	C	-0.755520	-0.134823	0.000066
C13	C	-0.995104	0.043509	0.000102
C14	C	-0.985563	0.148735	0.000102
C15	C	-1.155008	-0.122881	0.000106
C16	C	-1.248394	-0.124757	0.000109
C17	C	-0.533573	-0.040140	0.000093
C18	C	-0.480021	-0.078952	-0.083940
C19	C	-0.584540	-0.131430	0.000079
C20	C	-0.471695	-0.089285	0.084089
C21	C	-0.419380	-0.128147	0.000095
C22	C	-0.532221	-0.170263	-0.084024
C23	C	-0.523897	-0.180587	0.084080
C24	C	-0.470369	-0.219464	0.000027
C25	C	-0.679684	-0.133319	0.000068
C26	C	-0.324238	-0.126264	0.000098
C27	C	-1.008810	-0.303089	0.000080
C28	C	-1.018352	-0.408315	0.000073
C29	C	-0.968120	0.341399	0.000085
C30	C	-1.035791	0.399027	0.000090
C31	C	-1.026085	0.506232	0.000080
C32	C	-0.977824	0.234184	0.000095
N33	N	-0.988769	-0.146083	0.265612
N34	N	-1.015152	-0.113490	-0.265428
C35	C	-0.978417	-0.158885	0.474653
C36	C	-1.025501	-0.100691	0.525538
C37	C	-1.019741	-0.107814	0.641855
C38	C	-0.984176	-0.151763	0.358325
H39	H	-0.460550	-0.035980	-0.154979
H40	H	-0.902902	0.372573	0.000076
O41	O	-1.078548	-0.034662	0.473294
C42	C	-1.092139	0.102400	0.352401
C43	C	-1.032036	0.027565	0.411419
H44	H	-1.054555	0.152742	0.302377
H45	H	-1.139774	0.064876	0.301994
H46	H	-1.126584	0.145024	0.409206
H47	H	-0.997532	-0.015083	0.354688
H48	H	-0.984453	0.065146	0.461842
O49	O	-0.925244	-0.224680	0.527047
C50	C	-0.870901	-0.291794	0.692446
C51	C	-0.931162	-0.217252	0.633222
H52	H	-0.875652	-0.285800	0.778299
H53	H	-0.888675	-0.366445	0.671498
H54	H	-0.803710	-0.278278	0.671374
H55	H	-0.998372	-0.230679	0.654263
H56	H	-0.913315	-0.142626	0.654175
H57	H	-0.543387	-0.223527	0.155123
O58	O	-0.566527	0.050287	-0.000181
C59	C	-0.581715	0.205985	-0.089056
C60	C	-0.544357	0.103609	-0.088877
H61	H	-0.563790	0.249131	-0.160748
H62	H	-0.653097	0.203721	-0.088393
H63	H	-0.555864	0.240912	-0.018108
H64	H	-0.570142	0.068622	-0.159813
H65	H	-0.472976	0.105938	-0.089486
O66	O	-0.563864	-0.211020	-0.168844
C67	C	-0.687926	-0.258564	-0.263977
C68	C	-0.652203	-0.212372	-0.167889
H69	H	-0.759351	-0.259690	-0.263226
H70	H	-0.669575	-0.215521	-0.335534
H71	H	-0.661284	-0.334746	-0.264272
H72	H	-0.678826	-0.136194	-0.167495
H73	H	-0.670547	-0.255485	-0.096376
O74	O	-0.440037	-0.048266	0.168737
C75	C	-0.358984	0.078935	0.234610
C76	C	-0.394800	0.032583	0.138669
H77	H	-0.322387	0.144298	0.210335
H78	H	-0.412745	0.101463	0.282420
H79	H	-0.315252	0.025307	0.282111
H80	H	-0.438521	0.086160	0.091089
H81	H	-0.340997	0.010035	0.090937
O82	O	-0.437628	-0.309941	-0.000212
C83	C	-0.431616	-0.454817	-0.088994
C84	C	-0.468741	-0.352365	-0.088858
H85	H	-0.456769	-0.489154	-0.160647
H86	H	-0.360160	-0.452829	-0.088379
H87	H	-0.450478	-0.498341	-0.018006
H88	H	-0.449942	-0.308783	-0.159835
H89	H	-0.540190	-0.354425	-0.089420
O90	O	-1.113540	0.361682	0.000153
C91	C	-1.194230	0.219231	0.000124
C92	C	-1.106134	0.261401	0.000072
H93	H	-1.188273	0.138150	0.000037
H94	H	-1.226284	0.239741	0.071471
H95	H	-1.233361	0.248600	-0.071177
H96	H	-1.066935	0.232055	0.071324
H97	H	-1.074146	0.240899	-0.071322
