data_functionalizedCrystal
_audit_creation_method	'MofGen! by Chris Wilmer'
_symmetry_space_group_name_H-M	'P1'
_symmetry_Int_Tables_number	1
_symmetry_cell_setting	triclinic
loop_
_symmetry_equiv_pos_as_xyz
  x,y,z
_cell_length_a	13.032831
_cell_length_b	13.032721
_cell_length_c	18.215399
_cell_angle_alpha	97.154738
_cell_angle_beta	82.809197
_cell_angle_gamma	90.902885
loop_
_atom_site_label
_atom_site_type_symbol
_atom_site_fract_x
_atom_site_fract_y
_atom_site_fract_z
Zn1	Zn	1.520252	-0.609421	-0.606330
Zn2	Zn	1.853585	-0.276088	-0.272997
Zn3	Zn	2.186919	0.057245	0.060337
Zn4	Zn	1.498292	-0.781391	-0.496682
Zn5	Zn	1.831626	-0.448058	-0.163349
Zn6	Zn	2.164959	-0.114725	0.169985
Zn7	Zn	1.348268	-0.587579	-0.465971
Zn8	Zn	1.681601	-0.254245	-0.132637
Zn9	Zn	2.014935	0.079088	0.200696
Zn10	Zn	1.326400	-0.759468	-0.602401
Zn11	Zn	1.659733	-0.426135	-0.269068
Zn12	Zn	1.993067	-0.092801	0.064266
O13	O	1.423303	-0.684465	-0.542846
O14	O	1.756636	-0.351132	-0.209513
O15	O	2.089970	-0.017798	0.123821
O16	O	1.661252	-0.650550	-0.606282
O17	O	1.994586	-0.317217	-0.272949
O18	O	2.327919	0.016117	0.060385
O19	O	1.478353	-0.755716	-0.389623
O20	O	1.811686	-0.422382	-0.056290
O21	O	2.145019	-0.089049	0.277043
O22	O	1.389424	-0.446570	-0.473381
O23	O	1.722757	-0.113237	-0.140048
O24	O	2.056091	0.220097	0.193285
O25	O	1.645119	-0.776895	-0.525724
O26	O	1.978452	-0.443562	-0.192391
O27	O	2.311785	-0.110229	0.140943
O28	O	1.515780	-0.462618	-0.576503
O29	O	1.849113	-0.129284	-0.243169
O30	O	2.182447	0.204049	0.090164
O31	O	1.368130	-0.613322	-0.367060
O32	O	1.701464	-0.279989	-0.033727
O33	O	2.034797	0.053344	0.299607
O34	O	1.201454	-0.592064	-0.469571
O35	O	1.534787	-0.258731	-0.136238
O36	O	1.868120	0.074603	0.197095
O37	O	1.352153	-0.739530	-0.705907
O38	O	1.685487	-0.406197	-0.372574
O39	O	2.018820	-0.072864	-0.039240
O40	O	1.185387	-0.718350	-0.569806
O41	O	1.518721	-0.385017	-0.236473
O42	O	1.852054	-0.051684	0.096860
O43	O	1.494576	-0.629292	-0.708794
O44	O	1.827909	-0.295958	-0.375460
O45	O	2.161242	0.037375	-0.042127
O46	O	1.457148	-0.922390	-0.521914
O47	O	1.790482	-0.589056	-0.188581
O48	O	2.123815	-0.255723	0.144753
O49	O	1.330860	-0.906283	-0.599586
O50	O	1.664193	-0.572949	-0.266252
O51	O	1.997527	-0.239616	0.067081
C52	C	1.156105	-0.650459	-0.515930
C53	C	1.489439	-0.317125	-0.182597
C54	C	1.822772	0.016208	0.150736
C55	C	1.041794	-0.635936	-0.504435
C56	C	1.375127	-0.302602	-0.171102
C57	C	1.708460	0.030731	0.162231
C58	C	0.982896	-0.692045	-0.548845
C59	C	1.316229	-0.358712	-0.215512
C60	C	1.649562	-0.025378	0.117821
C61	C	0.864749	-0.677036	-0.536966
C62	C	1.198082	-0.343702	-0.203632
C63	C	1.531415	-0.010369	0.129701
C64	C	1.389276	-0.951653	-0.563675
C65	C	1.722610	-0.618320	-0.230342
C66	C	2.055943	-0.284986	0.102992
C67	C	1.374813	-1.065969	-0.572620
C68	C	1.708147	-0.732636	-0.239286
C69	C	2.041480	-0.399302	0.094047
C70	C	1.430906	-1.124877	-0.538216
C71	C	1.764239	-0.791543	-0.204883
C72	C	2.097573	-0.458210	0.128450
C73	C	1.415959	-1.243029	-0.547460
C74	C	1.749293	-0.909695	-0.214127
C75	C	2.082626	-0.576362	0.119206
C76	C	1.691544	-0.718605	-0.569867
C77	C	2.024877	-0.385271	-0.236534
C78	C	2.358211	-0.051938	0.096800
C79	C	1.805852	-0.733153	-0.581382
C80	C	2.139186	-0.399820	-0.248049
C81	C	2.472519	-0.066486	0.085285
C82	C	1.423375	-0.684402	-0.734800
C83	C	1.756708	-0.351069	-0.401466
C84	C	2.090041	-0.017735	-0.068133
C85	C	1.423405	-0.684375	-0.816599
C86	C	1.756739	-0.351042	-0.483266
C87	C	2.090072	-0.017709	-0.149932
C88	C	1.457491	-0.416237	-0.521955
C89	C	1.790824	-0.082904	-0.188621
C90	C	2.124157	0.250430	0.144712
C91	C	1.472060	-0.301934	-0.513052
C92	C	1.805393	0.031399	-0.179719
C93	C	2.138726	0.364732	0.153615
C94	C	1.497596	-0.626915	-1.006295
C95	C	1.830929	-0.293582	-0.672962
C96	C	2.164263	0.039751	-0.339628
C97	C	1.497612	-0.626887	-1.083153
C98	C	1.830945	-0.293554	-0.749819
C99	C	2.164279	0.039780	-0.416486
C100	C	1.349307	-0.741685	-1.080136
C101	C	1.682641	-0.408352	-0.746803
C102	C	2.015974	-0.075018	-0.413469
C103	C	1.349288	-0.741707	-1.003279
C104	C	1.682621	-0.408374	-0.669945
C105	C	2.015954	-0.075040	-0.336612
C106	C	1.423438	-0.684324	-0.966361
C107	C	1.756771	-0.350991	-0.633028
C108	C	2.090104	-0.017658	-0.299694
C109	C	1.423473	-0.684274	-1.120076
C110	C	1.756807	-0.350941	-0.786742
C111	C	2.090140	-0.017607	-0.453409
C112	C	1.423490	-0.684244	-1.203408
C113	C	1.756824	-0.350910	-0.870075
C114	C	2.090157	-0.017577	-0.536742
C115	C	1.423420	-0.684353	-0.883023
C116	C	1.756753	-0.351020	-0.549690
C117	C	2.090086	-0.017686	-0.216356
C118	C	1.423300	-0.684461	-0.351639
C119	C	1.756634	-0.351128	-0.018306
C120	C	2.089967	-0.017794	0.315028
C121	C	1.423506	-0.684223	-0.269838
C122	C	1.756839	-0.350890	0.063496
C123	C	2.090172	-0.017557	0.396829
H124	H	1.019939	-0.751190	-0.595664
H125	H	1.353272	-0.417857	-0.262330
H126	H	1.686606	-0.084523	0.071003
N127	N	1.550342	-1.252891	-0.464973
N128	N	1.883676	-0.919558	-0.131640
N129	N	2.217009	-0.586225	0.201694
H130	H	1.514171	-1.203069	-0.423179
H131	H	1.847504	-0.869736	-0.089845
H132	H	2.180838	-0.536402	0.243488
H133	H	1.585699	-1.308501	-0.443339
H134	H	1.919032	-0.975168	-0.110006
H135	H	2.252366	-0.641835	0.223328
N136	N	1.296546	-1.115017	-0.620706
N137	N	1.629880	-0.781684	-0.287373
N138	N	1.963213	-0.448350	0.045961
H139	H	1.296964	-1.192469	-0.620495
H140	H	1.630298	-0.859135	-0.287161
H141	H	1.963631	-0.525802	0.046172
H142	H	1.225448	-1.087026	-0.600362
H143	H	1.558782	-0.753692	-0.267029
H144	H	1.892115	-0.420359	0.066304
H145	H	1.004751	-0.576782	-0.457622
H146	H	1.338085	-0.243449	-0.124289
H147	H	1.671418	0.089884	0.209045
H148	H	1.557971	-0.580188	-0.976238
H149	H	1.891304	-0.246854	-0.642905
H150	H	2.224638	0.086479	-0.309572
H151	H	1.288892	-0.788455	-0.970763
H152	H	1.622225	-0.455121	-0.637429
H153	H	1.955559	-0.121788	-0.304096
N154	N	1.577586	-0.564954	-1.126223
N155	N	1.910920	-0.231621	-0.792890
N156	N	2.244253	0.101712	-0.459556
H157	H	1.624550	-0.528605	-1.091170
H158	H	1.957884	-0.195272	-0.757837
H159	H	2.291217	0.138062	-0.424504
H160	H	1.619856	-0.612851	-1.166173
H161	H	1.953190	-0.279517	-0.832840
H162	H	2.286523	0.053816	-0.499506
H163	H	0.827711	-0.617879	-0.490149
H164	H	1.161044	-0.284545	-0.156816
H165	H	1.494377	0.048788	0.176518
H166	H	1.356871	-1.280063	-0.583764
H167	H	1.690205	-0.946729	-0.250430
H168	H	2.023538	-0.613396	0.082903
N169	N	1.509186	-1.075830	-0.490140
N170	N	1.842519	-0.742497	-0.156807
N171	N	2.175853	-0.409164	0.176526
H172	H	1.508770	-0.998379	-0.490354
H173	H	1.842103	-0.665046	-0.157020
H174	H	2.175437	-0.331712	0.176313
H175	H	1.490866	-1.092583	-0.437422
H176	H	1.824199	-0.759249	-0.104088
H177	H	2.157532	-0.425916	0.229245
H178	H	0.842890	-0.792300	-0.628205
H179	H	1.176223	-0.458967	-0.294872
H180	H	1.509557	-0.125634	0.038461
N181	N	1.269321	-0.803556	-1.119952
N182	N	1.602655	-0.470223	-0.786618
N183	N	1.935988	-0.136890	-0.453285
H184	H	1.280582	-0.794828	-1.174700
H185	H	1.613915	-0.461495	-0.841367
H186	H	1.947249	-0.128162	-0.508033
H187	H	1.275948	-0.879046	-1.113854
H188	H	1.609281	-0.545712	-0.780520
H189	H	1.942614	-0.212379	-0.447187
