data_functionalizedCrystal
_audit_creation_method	'MofGen! by Chris Wilmer'
_symmetry_space_group_name_H-M	'P1'
_symmetry_Int_Tables_number	1
_symmetry_cell_setting	triclinic
loop_
_symmetry_equiv_pos_as_xyz
  x,y,z
_cell_length_a	17.077404
_cell_length_b	17.640280
_cell_length_c	17.077396
_cell_angle_alpha	78.774026
_cell_angle_beta	89.983895
_cell_angle_gamma	78.798554
loop_
_atom_site_label
_atom_site_type_symbol
_atom_site_fract_x
_atom_site_fract_y
_atom_site_fract_z
Zn1	Zn	1.263282	-0.314703	-0.380711
Zn2	Zn	1.763282	0.185297	0.119289
Zn3	Zn	1.289759	-0.446887	-0.222938
Zn4	Zn	1.789759	0.053113	0.277062
Zn5	Zn	1.132024	-0.314728	-0.249457
Zn6	Zn	1.632024	0.185272	0.250543
Zn7	Zn	1.158536	-0.446833	-0.354175
Zn8	Zn	1.658536	0.053167	0.145825
O9	O	1.210900	-0.380788	-0.301820
O10	O	1.710900	0.119212	0.198180
O11	O	1.376644	-0.332250	-0.359789
O12	O	1.876644	0.167750	0.140211
O13	O	1.268821	-0.429389	-0.116602
O14	O	1.768821	0.070611	0.383398
O15	O	1.127260	-0.204119	-0.289071
O16	O	1.627260	0.295881	0.210929
O17	O	1.396096	-0.429365	-0.243874
O18	O	1.896096	0.070635	0.256126
O19	O	1.223695	-0.204101	-0.385503
O20	O	1.723695	0.295899	0.114497
O21	O	1.152933	-0.332292	-0.136085
O22	O	1.652933	0.167708	0.363915
O23	O	1.025691	-0.332239	-0.263341
O24	O	1.525691	0.167761	0.236659
O25	O	1.172445	-0.429273	-0.467549
O26	O	1.672445	0.070727	0.032451
O27	O	1.045169	-0.429297	-0.340277
O28	O	1.545169	0.070703	0.159723
O29	O	1.249402	-0.332198	-0.487045
O30	O	1.749402	0.167802	0.012955
O31	O	1.294528	-0.557486	-0.218143
O32	O	1.794528	-0.057486	0.281857
O33	O	1.198119	-0.557446	-0.314563
O34	O	1.698119	-0.057446	0.185437
C35	C	1.006948	-0.380765	-0.301807
C36	C	1.506948	0.119235	0.198193
C37	C	0.919700	-0.380775	-0.301816
C38	C	1.419700	0.119225	0.198184
C39	C	0.868600	-0.330297	-0.362232
C40	C	1.368600	0.169703	0.137768
C41	C	0.786620	-0.330302	-0.362235
C42	C	1.286620	0.169698	0.137765
C43	C	0.755743	-0.380790	-0.301824
C44	C	1.255743	0.119210	0.198176
C45	C	0.806850	-0.431270	-0.241402
C46	C	1.306850	0.068730	0.258598
C47	C	0.888827	-0.431260	-0.241397
C48	C	1.388827	0.068740	0.258603
C49	C	0.635983	-0.431287	-0.241418
C50	C	1.135983	0.068713	0.258582
C51	C	0.554001	-0.431298	-0.241424
C52	C	1.054001	0.068702	0.258576
C53	C	0.533777	-0.330330	-0.362255
C54	C	1.033777	0.169670	0.137745
C55	C	0.615754	-0.330320	-0.362250
C56	C	1.115754	0.169680	0.137750
C57	C	0.666855	-0.380801	-0.301829
C58	C	1.166855	0.119199	0.198171
C59	C	1.252094	-0.586145	-0.260613
C60	C	1.752094	-0.086145	0.239387
C61	C	1.269789	-0.673997	-0.243011
C62	C	1.769789	-0.173997	0.256989
C63	C	1.076796	-0.962967	-0.435829
C64	C	1.576796	-0.462967	0.064171
C65	C	1.093425	-1.045518	-0.419264
C66	C	1.593425	-0.545518	0.080736
C67	C	1.193878	-1.045494	-0.318964
C68	C	1.693878	-0.545494	0.181036
C69	C	1.177261	-0.962941	-0.335523
C70	C	1.677261	-0.462941	0.164477
C71	C	1.118718	-0.921684	-0.393956
C72	C	1.618718	-0.421684	0.106044
C73	C	1.219183	-0.921659	-0.293650
C74	C	1.719183	-0.421659	0.206350
C75	C	1.202563	-0.839113	-0.310206
C76	C	1.702563	-0.339113	0.189794
C77	C	1.144022	-0.797851	-0.368634
C78	C	1.644022	-0.297851	0.131366
C79	C	1.102099	-0.839139	-0.410511
C80	C	1.602099	-0.339139	0.089489
C81	C	1.277721	-0.962917	-0.235214
C82	C	1.777721	-0.462917	0.264786
C83	C	1.319643	-0.921634	-0.193341
C84	C	1.819643	-0.421634	0.306659
C85	C	1.303028	-0.839088	-0.209900
C86	C	1.803028	-0.339088	0.290100
C87	C	1.244486	-0.797825	-0.268328
C88	C	1.744486	-0.297825	0.231672
C89	C	1.344951	-0.797799	-0.168023
C90	C	1.844951	-0.297799	0.331977
C91	C	1.328332	-0.715254	-0.184578
C92	C	1.828332	-0.215254	0.315422
C93	C	1.227867	-0.715280	-0.284884
C94	C	1.727867	-0.215280	0.215116
C95	C	1.415649	-0.380811	-0.301834
C96	C	1.915649	0.119189	0.198166
C97	C	1.502901	-0.380821	-0.301839
C98	C	2.002901	0.119179	0.198161
C99	C	1.210927	-0.380727	-0.506577
C100	C	1.710927	0.119273	-0.006577
C101	C	1.210939	-0.380700	-0.593832
C102	C	1.710939	0.119300	-0.093832
C103	C	1.169567	-0.174629	-0.343205
C104	C	1.669567	0.325371	0.156795
C105	C	1.151953	-0.086776	-0.360841
C106	C	1.651953	0.413224	0.139159
C107	C	1.150611	-0.330136	-0.644968
C108	C	1.650611	0.169864	-0.144968
C109	C	1.150620	-0.330118	-0.726952
C110	C	1.650620	0.169882	-0.226952
C111	C	1.210961	-0.380661	-0.757799
C112	C	1.710961	0.119339	-0.257799
C113	C	1.271293	-0.431231	-0.706657
C114	C	1.771293	0.068769	-0.206657
C115	C	1.271280	-0.431252	-0.624674
C116	C	1.771280	0.068748	-0.124674
C117	C	1.271317	-0.431182	-0.877537
C118	C	1.771317	0.068818	-0.377537
C119	C	1.271331	-0.431159	-0.959526
C120	C	1.771331	0.068841	-0.459526
C121	C	1.150657	-0.330047	-0.979815
C122	C	1.650657	0.169953	-0.479815
C123	C	1.150644	-0.330069	-0.897832
C124	C	1.650644	0.169931	-0.397832
C125	C	1.210977	-0.380638	-0.846695
C126	C	1.710977	0.119362	-0.346695
C127	C	1.210907	-0.380792	-0.097872
C128	C	1.710907	0.119208	0.402128
C129	C	1.211003	-0.380595	-0.010662
C130	C	1.711003	0.119405	0.489338
H131	H	0.492166	-0.289225	-0.411451
H132	H	0.992166	0.210775	0.088549
H133	H	0.640892	-0.289213	-0.411446
H134	H	1.140892	0.210787	0.088554
H135	H	0.528864	-0.472410	-0.192233
H136	H	1.028864	0.027590	0.307767
Br137	Br	0.910496	-0.261780	-0.444227
Br138	Br	1.410496	0.238220	0.055773
H139	H	1.241541	-1.079096	-0.271386
H140	H	1.741541	-0.579096	0.228614
H141	H	1.029131	-0.929374	-0.483416
H142	H	1.529131	-0.429374	0.016584
H143	H	0.745017	-0.289200	-0.411432
H144	H	1.245017	0.210800	0.088568
Br145	Br	1.424390	-0.853800	-0.088717
Br146	Br	1.924390	-0.353800	0.411283
Br147	Br	0.705335	-0.499803	-0.159421
Br148	Br	1.205335	0.000197	0.340579
Br149	Br	0.764946	-0.499783	-0.159410
Br150	Br	1.264946	0.000217	0.340590
H151	H	1.362468	-0.681641	-0.150480
H152	H	1.862468	-0.181641	0.349520
Br153	Br	0.958179	-0.499767	-0.159400
Br154	Br	1.458179	0.000233	0.340600
Br155	Br	1.148426	-0.659280	-0.364196
Br156	Br	1.648426	-0.159280	0.135804
Br157	Br	1.068719	-0.261532	-0.603113
Br158	Br	1.568719	0.238468	-0.103113
Br159	Br	1.300306	-1.074944	-0.212775
Br160	Br	1.800306	-0.574944	0.287225
Br161	Br	1.022658	-0.783140	-0.489824
Br162	Br	1.522658	-0.283140	0.010176
Br163	Br	1.036512	-1.101543	-0.476086
Br164	Br	1.536512	-0.601543	0.023914
Br165	Br	1.068779	-0.261414	-1.049214
Br166	Br	1.568779	0.238586	-0.549214
H167	H	1.367306	-0.955237	-0.145763
H168	H	1.867306	-0.455237	0.354237
H169	H	1.130486	-0.730637	-0.382107
H170	H	1.630486	-0.230637	0.117893
Br171	Br	1.068708	-0.261535	-0.796339
Br172	Br	1.568708	0.238465	-0.296339
H173	H	1.101511	-0.288909	-0.872719
H174	H	1.601511	0.211091	-0.372719
Br175	Br	1.353230	-0.499747	-1.001392
Br176	Br	1.853230	0.000253	-0.501392
Br177	Br	1.353194	-0.499817	-0.808136
Br178	Br	1.853194	0.000183	-0.308136
Br179	Br	1.353180	-0.499833	-0.748519
Br180	Br	1.853180	0.000167	-0.248519
H181	H	1.320410	-0.472421	-0.583040
H182	H	1.820410	0.027579	-0.083040
