data_functionalizedCrystal
_audit_creation_method	'MofGen! by Chris Wilmer'
_symmetry_space_group_name_H-M	'P1'
_symmetry_Int_Tables_number	1
_symmetry_cell_setting	triclinic
loop_
_symmetry_equiv_pos_as_xyz
  x,y,z
_cell_length_a	15.944551
_cell_length_b	8.559649
_cell_length_c	7.681481
_cell_angle_alpha	94.930900
_cell_angle_beta	84.271608
_cell_angle_gamma	76.638701
loop_
_atom_site_label
_atom_site_type_symbol
_atom_site_fract_x
_atom_site_fract_y
_atom_site_fract_z
O1	O	-1.092318	-0.221184	-0.146240
O2	O	-0.846126	-0.246596	-0.146284
O3	O	-0.990912	-0.001290	-0.146256
O4	O	-0.947532	-0.466490	-0.146268
O5	O	-1.008737	0.028972	0.146605
O6	O	-0.863951	-0.216334	0.146578
O7	O	-1.110143	-0.190923	0.146621
Zn8	Zn	-0.989877	-0.198824	0.193097
Zn9	Zn	-0.966392	-0.238694	-0.192760
O10	O	-0.965358	-0.436229	0.146594
C11	C	-1.003112	0.073370	0.000171
C12	C	-1.012897	0.250749	0.000163
C13	C	-0.823813	-0.230411	0.000141
C14	C	-0.730770	-0.227250	0.000125
C15	C	-1.132457	-0.207108	0.000192
C16	C	-1.225499	-0.210269	0.000197
C17	C	-0.526216	-0.067638	0.000163
C18	C	-0.451624	-0.156675	-0.144235
C19	C	-0.560414	-0.221527	0.000146
C20	C	-0.469218	-0.126876	0.144503
C21	C	-0.395861	-0.215987	0.000174
C22	C	-0.487040	-0.310620	-0.144371
C23	C	-0.504650	-0.280786	0.144497
C24	C	-0.430066	-0.369939	0.000064
C25	C	-0.655210	-0.224715	0.000128
C26	C	-0.301065	-0.212814	0.000179
C27	C	-0.953157	-0.510889	0.000162
C28	C	-0.943372	-0.688268	0.000158
N29	N	-1.005912	-0.171612	0.456434
N30	N	-0.950365	-0.265893	-0.456097
H31	H	-0.567780	0.060059	-0.000013
O32	O	-0.863425	0.212040	-0.000177
C33	C	-0.753704	-0.014140	-0.151882
C34	C	-0.844247	0.098682	-0.151741
H35	H	-0.738178	-0.105839	-0.274390
H36	H	-0.702888	0.060205	-0.151999
H37	H	-0.753042	-0.080380	-0.029272
H38	H	-0.844995	0.164947	-0.274330
H39	H	-0.895023	0.024251	-0.151533
H40	H	-0.893664	-0.362126	0.468695
O41	O	-1.073631	-0.056766	0.545880
C42	C	-1.199519	0.157032	0.526804
C43	C	-1.122881	0.027009	0.425289
H44	H	-1.239348	0.224821	0.429350
H45	H	-1.242370	0.097047	0.613061
H46	H	-1.173535	0.245564	0.613174
H47	H	-1.148789	-0.061564	0.338823
H48	H	-1.080044	0.087104	0.339143
H49	H	-0.460764	-0.049146	0.266576
O50	O	-0.423927	-0.093975	-0.289920
C51	C	-0.461506	0.019224	-0.556434
C52	C	-0.492982	-0.051735	-0.391511
H53	H	-0.517316	0.053363	-0.638635
H54	H	-0.438086	0.131374	-0.514874
H55	H	-0.405785	-0.074654	-0.637954
H56	H	-0.548727	0.042023	-0.309918
H57	H	-0.516346	-0.163919	-0.433192
O58	O	-0.497155	-0.403159	-0.290122
C59	C	-0.596736	-0.510034	-0.453592
C60	C	-0.585404	-0.405168	-0.288480
H61	H	-0.668078	-0.511721	-0.452301
H62	H	-0.574443	-0.457586	-0.576557
H63	H	-0.556053	-0.638536	-0.454093
H64	H	-0.626083	-0.276646	-0.287808
H65	H	-0.607668	-0.457749	-0.165590
H66	H	-0.528015	-0.333206	0.266578
O67	O	-0.380547	-0.522411	-0.000262
C68	C	-0.262467	-0.734322	-0.151445
C69	C	-0.318470	-0.561620	-0.151262
H70	H	-0.212276	-0.766089	-0.273534
H71	H	-0.227877	-0.741618	-0.028400
H72	H	-0.305836	-0.823164	-0.152586
H73	H	-0.275163	-0.472676	-0.150183
H74	H	-0.353068	-0.554458	-0.274296
O75	O	-1.092878	0.350163	-0.000052
C76	C	-1.219321	0.418395	-0.151806
C77	C	-1.128767	0.305672	-0.151759
H78	H	-1.248357	0.382487	-0.274467
H79	H	-1.263394	0.407737	-0.029326
H80	H	-1.213223	0.548502	-0.151708
H81	H	-1.134782	0.175518	-0.151919
H82	H	-1.084729	0.316470	-0.274228
