data_functionalizedCrystal
_audit_creation_method	'MofGen! by Chris Wilmer'
_symmetry_space_group_name_H-M	'P1'
_symmetry_Int_Tables_number	1
_symmetry_cell_setting	triclinic
loop_
_symmetry_equiv_pos_as_xyz
  x,y,z
_cell_length_a	13.033293
_cell_length_b	16.625539
_cell_length_c	13.032721
_cell_angle_alpha	97.155047
_cell_angle_beta	105.184121
_cell_angle_gamma	82.793394
loop_
_atom_site_label
_atom_site_type_symbol
_atom_site_fract_x
_atom_site_fract_y
_atom_site_fract_z
Zn1	Zn	1.570163	-0.631277	-0.216855
Zn2	Zn	2.070163	-0.131277	0.283145
Zn3	Zn	1.547489	-0.511621	-0.394493
Zn4	Zn	2.047489	-0.011621	0.105507
Zn5	Zn	1.392537	-0.481233	-0.239421
Zn6	Zn	1.892537	0.018767	0.260579
Zn7	Zn	1.369942	-0.631185	-0.416961
Zn8	Zn	1.869942	-0.131185	0.083039
O9	O	1.470033	-0.563829	-0.316933
O10	O	1.970033	-0.063829	0.183067
O11	O	1.715796	-0.628161	-0.221572
O12	O	2.215796	-0.128161	0.278428
O13	O	1.526902	-0.394759	-0.373964
O14	O	2.026902	0.105241	0.126036
O15	O	1.435045	-0.488458	-0.087785
O16	O	1.935045	0.011542	0.412215
O17	O	1.699138	-0.540250	-0.352082
O18	O	2.199138	-0.040250	0.147918
O19	O	1.565546	-0.598695	-0.071205
O20	O	2.065546	-0.098695	0.428795
O21	O	1.413059	-0.372433	-0.260033
O22	O	1.913059	0.127567	0.239967
O23	O	1.240899	-0.488368	-0.281819
O24	O	1.740899	0.011632	0.218181
O25	O	1.396534	-0.744029	-0.390375
O26	O	1.896534	-0.244029	0.109625
O27	O	1.224298	-0.598537	-0.412257
O28	O	1.724298	-0.098537	0.087743
O29	O	1.543636	-0.744097	-0.243358
O30	O	2.043636	-0.244097	0.256642
O31	O	1.504992	-0.540160	-0.546117
O32	O	2.004992	-0.040160	-0.046117
O33	O	1.374548	-0.628003	-0.562624
O34	O	1.874548	-0.128003	-0.062624
C35	C	1.194057	-0.540146	-0.351925
C36	C	1.694057	-0.040146	0.148075
C37	C	1.075991	-0.530035	-0.366921
C38	C	1.575991	-0.030035	0.133079
C39	C	1.031582	-0.569108	-0.309133
C40	C	1.531582	-0.069108	0.190867
C41	C	0.909554	-0.558659	-0.324630
C42	C	1.409554	-0.058659	0.175370
C43	C	1.470094	-0.774137	-0.316856
C44	C	1.970094	-0.274137	0.183144
C45	C	1.470120	-0.863757	-0.316823
C46	C	1.970120	-0.363757	0.183177
C47	C	1.470140	-0.936539	-0.316797
C48	C	1.970140	-0.436539	0.183203
C49	C	1.470170	-1.027846	-0.316755
C50	C	1.970170	-0.527846	0.183245
C51	C	1.470200	-1.100622	-0.316714
C52	C	1.970200	-0.600622	0.183286
C53	C	1.470231	-1.191935	-0.316672
C54	C	1.970231	-0.691935	0.183328
C55	C	1.747086	-0.587606	-0.281804
C56	C	2.247086	-0.087606	0.218196
C57	C	1.865149	-0.597738	-0.266834
C58	C	2.365149	-0.097738	0.233166
C59	C	1.434887	-0.587389	-0.592908
C60	C	1.934887	-0.087389	-0.092908
C61	C	1.419948	-0.597504	-0.710959
C62	C	1.919948	-0.097504	-0.210959
C63	C	1.470043	-0.354339	-0.316925
C64	C	1.970043	0.145661	0.183075
C65	C	1.470261	-0.264711	-0.316632
C66	C	1.970261	0.235289	0.183368
C67	C	1.477886	-0.558592	-0.755381
C68	C	1.977886	-0.058592	-0.255381
C69	C	1.462447	-0.569044	-0.877393
C70	C	1.962447	-0.069044	-0.377393
C71	C	1.505345	-0.540197	-0.039876
C72	C	2.005345	-0.040197	0.460124
C73	C	1.520393	-0.530127	0.078189
C74	C	2.020393	-0.030127	0.578189
H75	H	0.917466	-0.638924	-0.205877
H76	H	1.417466	-0.138924	0.294123
O77	O	1.601250	-0.475745	-0.852557
O78	O	2.101250	0.024255	-0.352557
H79	H	1.600688	-0.476064	-0.767592
H80	H	2.100688	0.023936	-0.267592
O81	O	1.006701	-0.475473	-0.447657
O82	O	1.506701	0.024527	0.052343
H83	H	0.921728	-0.475832	-0.447164
H84	H	1.421728	0.024168	0.052836
H85	H	0.857237	-0.517467	-0.385580
H86	H	1.357237	-0.017467	0.114420
O87	O	1.339099	-0.651880	-0.780231
O88	O	1.839099	-0.151880	-0.280231
H89	H	1.359940	-0.714923	-0.756641
H90	H	1.859940	-0.214923	-0.256641
O91	O	1.558742	-0.504223	-0.686105
O92	O	2.058742	-0.004223	-0.186105
H93	H	1.537918	-0.441179	-0.709695
H94	H	2.037918	0.058821	-0.209695
O95	O	1.100872	-0.623668	-0.228395
O96	O	1.600872	-0.123668	0.271605
H97	H	1.185844	-0.623316	-0.228896
H98	H	1.685844	-0.123316	0.271104
H99	H	1.401415	-0.610103	-0.929686
H100	H	1.901415	-0.110103	-0.429686
