data_functionalizedCrystal
_audit_creation_method	'MofGen! by Chris Wilmer'
_symmetry_space_group_name_H-M	'P1'
_symmetry_Int_Tables_number	1
_symmetry_cell_setting	triclinic
loop_
_symmetry_equiv_pos_as_xyz
  x,y,z
_cell_length_a	15.298709
_cell_length_b	21.295417
_cell_length_c	15.296720
_cell_angle_alpha	80.360665
_cell_angle_beta	72.673665
_cell_angle_gamma	99.724908
loop_
_atom_site_label
_atom_site_type_symbol
_atom_site_fract_x
_atom_site_fract_y
_atom_site_fract_z
Zn1	Zn	1.330596	-0.123537	0.280174
Zn2	Zn	1.357401	-0.206796	0.124684
Zn3	Zn	1.202012	-0.123579	0.151553
Zn4	Zn	1.175037	-0.250820	0.306988
O5	O	1.266261	-0.176183	0.215850
O6	O	1.464284	-0.116140	0.237081
O7	O	1.359295	-0.177351	-0.001874
O8	O	1.219140	-0.035478	0.168638
O9	O	1.483978	-0.177310	0.122843
O10	O	1.313610	-0.035447	0.263135
O11	O	1.245131	-0.116211	0.017866
O12	O	1.068301	-0.158899	0.194639
O13	O	1.173166	-0.252342	0.433554
O14	O	1.048483	-0.252383	0.308836
O15	O	1.287454	-0.158828	0.413853
O16	O	1.333139	-0.300731	0.148844
O17	O	1.199157	-0.333075	0.282782
C18	C	1.024650	-0.210423	0.257564
C19	C	0.921284	-0.225090	0.275431
C20	C	0.862448	-0.280699	0.343186
C21	C	0.765329	-0.294477	0.359982
C22	C	0.727036	-0.252650	0.309020
C23	C	0.785873	-0.197041	0.241259
C24	C	0.883001	-0.183259	0.224466
C25	C	0.747589	-0.155210	0.190301
C26	C	0.806426	-0.099602	0.122540
C27	C	0.903544	-0.085822	0.105750
C28	C	0.941837	-0.127650	0.156712
C29	C	0.650461	-0.168992	0.207093
C30	C	0.671014	-0.071552	0.088374
C31	C	0.768133	-0.057774	0.071578
C32	C	1.266151	-0.339745	0.215823
C33	C	1.266184	-0.409710	0.215828
C34	C	1.315333	-0.442514	0.265081
C35	C	1.315362	-0.508255	0.265098
C36	C	1.266254	-0.541185	0.215845
C37	C	1.217094	-0.508374	0.166590
C38	C	1.217059	-0.442636	0.166581
N39	N	1.273324	-0.633915	0.135676
N40	N	1.273363	-0.696363	0.135685
C41	C	1.266355	-0.739251	0.215868
N42	N	1.259326	-0.717329	0.296039
N43	N	1.259292	-0.654875	0.296028
C44	C	1.266286	-0.612467	0.215848
C45	C	1.315538	-0.843339	0.265144
C46	C	1.315560	-0.909083	0.265164
C47	C	1.217299	-0.909199	0.166646
C48	C	1.217270	-0.843459	0.166635
C49	C	1.266395	-0.810532	0.215882
C50	C	1.508816	-0.141810	0.173974
C51	C	1.612179	-0.127162	0.156129
C52	C	1.224311	-0.210491	0.458386
C53	C	1.206434	-0.225111	0.561741
C54	C	1.266394	-0.011982	0.215893
C55	C	1.266451	0.057991	0.215911
C56	C	1.308102	-0.141955	-0.025752
C57	C	1.326159	-0.127132	-0.129138
C58	C	1.394065	-0.071575	0.812051
C59	C	1.410867	-0.057839	0.714944
C60	C	1.359760	-0.099656	0.676638
C61	C	1.291848	-0.155211	0.735450
C62	C	1.275050	-0.168952	0.832567
C63	C	1.240745	-0.197032	0.697153
C64	C	1.172833	-0.252588	0.755965
C65	C	1.156037	-0.266325	0.853072
C66	C	1.207144	-0.224509	0.891378
C67	C	1.257543	-0.183292	0.600037
C68	C	1.138528	-0.280668	0.620552
C69	C	1.121726	-0.294405	0.717660
H70	H	0.639837	-0.037491	0.046879
H71	H	1.177035	-0.415926	0.126473
H72	H	1.355330	-0.415708	0.305183
H73	H	1.435674	-0.037537	0.843249
H74	H	1.100747	-0.311566	0.900954
H75	H	1.355375	-0.534972	0.305218
N76	N	1.326893	-0.126543	0.539958
N77	N	1.341883	-0.114277	0.453254
H78	H	1.390863	-0.074194	0.410822
N79	N	0.901576	-0.323406	0.395239
N80	N	0.988293	-0.311088	0.380241
H81	H	1.015928	-0.341251	0.417010
H82	H	0.951446	-0.040540	0.050580
H83	H	1.466163	-0.012607	0.667065
N84	N	1.365719	-0.809711	0.315451
N85	N	1.409594	-0.839013	0.359432
H86	H	1.445036	-0.815265	0.394961
N87	N	1.041036	-0.113592	0.139606
N88	N	1.071822	-0.104642	0.204706
H89	H	1.141880	-0.094719	0.192640
H90	H	0.816052	-0.012497	0.016407
N91	N	1.189984	-0.238526	0.990573
N92	N	1.235614	-0.201179	1.024758
H93	H	1.223495	-0.211075	1.094816
N94	N	0.705215	-0.351272	0.429185
N95	N	0.640784	-0.345266	0.497862
H96	H	0.598324	-0.385381	0.546739
N97	N	1.052359	-0.351147	0.777753
N98	N	1.037371	-0.363402	0.864457
H99	H	0.988379	-0.403476	0.906900
N100	N	1.376934	-0.085618	0.577444
N101	N	1.437569	-0.036013	0.524944
H102	H	1.449699	-0.026095	0.454884
H103	H	1.355582	-0.935792	0.305276
N104	N	1.166951	-0.542020	0.116272
N105	N	1.209992	-0.565674	0.051396
H106	H	1.174577	-0.589439	0.015859
N107	N	1.167130	-0.942840	0.116348
N108	N	1.167162	-1.001536	0.116366
H109	H	1.131726	-1.025299	0.080845
H110	H	1.177253	-0.816746	0.126524
H111	H	1.096914	-0.314720	0.589364
H112	H	0.647957	-0.263871	0.322700
N113	N	0.590385	-0.225800	0.276296
N114	N	0.602302	-0.281447	0.268095
H115	H	0.559875	-0.321572	0.316972
