data_functionalizedCrystal
_audit_creation_method	'MofGen! by Chris Wilmer'
_symmetry_space_group_name_H-M	'P1'
_symmetry_Int_Tables_number	1
_symmetry_cell_setting	triclinic
loop_
_symmetry_equiv_pos_as_xyz
  x,y,z
_cell_length_a	27.731993
_cell_length_b	27.732064
_cell_length_c	17.666332
_cell_angle_alpha	89.997589
_cell_angle_beta	90.002180
_cell_angle_gamma	82.634907
loop_
_atom_site_label
_atom_site_type_symbol
_atom_site_fract_x
_atom_site_fract_y
_atom_site_fract_z
O1	O	0.640951	0.057392	-0.062739
O2	O	0.974285	0.390725	0.270595
O3	O	1.307618	0.724058	0.603928
O4	O	0.500154	0.066165	-0.062784
O5	O	0.833488	0.399498	0.270550
O6	O	1.166821	0.732831	0.603883
O7	O	0.574921	-0.008619	-0.062763
O8	O	0.908255	0.324715	0.270571
O9	O	1.241588	0.658048	0.603904
O10	O	0.566184	0.132175	-0.062760
O11	O	0.899517	0.465509	0.270574
O12	O	1.232851	0.798842	0.603907
O13	O	0.574908	-0.008623	0.063134
O14	O	0.908242	0.324711	0.396467
O15	O	1.241575	0.658044	0.729801
O16	O	0.500141	0.066161	0.063113
O17	O	0.833475	0.399494	0.396446
O18	O	1.166808	0.732828	0.729780
O19	O	0.640938	0.057388	0.063158
O20	O	0.974272	0.390721	0.396492
O21	O	1.307605	0.724055	0.729825
Cu22	Cu	0.570539	0.061774	0.074631
Cu23	Cu	0.903872	0.395107	0.407964
Cu24	Cu	1.237205	0.728441	0.741298
Cu25	Cu	0.570554	0.061779	-0.074256
Cu26	Cu	0.903887	0.395112	0.259077
Cu27	Cu	1.237221	0.728445	0.592410
O28	O	0.566171	0.132171	0.063137
O29	O	0.899504	0.465505	0.396471
O30	O	1.232838	0.798838	0.729804
C31	C	0.482141	0.065983	0.000159
C32	C	0.815474	0.399316	0.333492
C33	C	1.148807	0.732649	0.666825
C34	C	0.428484	0.065441	0.000141
C35	C	0.761818	0.398774	0.333475
C36	C	1.095151	0.732107	0.666808
C37	C	0.045331	0.061512	-0.068448
C38	C	0.378664	0.394845	0.264885
C39	C	0.711998	0.728179	0.598218
C40	C	0.246988	0.063579	-0.068469
C41	C	0.580322	0.396912	0.264864
C42	C	0.913655	0.730246	0.598198
O43	O	0.273068	0.063829	-0.126834
O44	O	0.606401	0.397162	0.206499
O45	O	0.939734	0.730495	0.539832
N46	N	0.272202	0.063836	0.000156
N47	N	0.605535	0.397169	0.333489
N48	N	0.938868	0.730502	0.666822
C49	C	0.246998	0.063572	0.068791
C50	C	0.580331	0.396905	0.402124
C51	C	0.913664	0.730239	0.735457
O52	O	0.273071	0.063833	0.127160
O53	O	0.606404	0.397166	0.460493
O54	O	0.939738	0.730499	0.793826
C55	C	0.045342	0.061502	0.068810
C56	C	0.378675	0.394835	0.402144
C57	C	0.712008	0.728168	0.735477
C58	C	0.020130	0.061250	0.000181
C59	C	0.353464	0.394583	0.333514
C60	C	0.686797	0.727917	0.666848
C61	C	0.020120	0.061260	-0.137072
C62	C	0.353453	0.394593	0.196261
C63	C	0.686786	0.727927	0.529595
C64	C	-0.030292	0.060746	-0.137066
C65	C	0.303041	0.394079	0.196267
C66	C	0.636375	0.727412	0.529600
C67	C	-0.055493	0.060484	-0.068437
C68	C	0.277841	0.393817	0.264896
C69	C	0.611174	0.727151	0.598230
C70	C	-0.030281	0.060736	0.000187
C71	C	0.303052	0.394069	0.333520
C72	C	0.636385	0.727403	0.666853
C73	C	0.020139	0.061235	0.137444
C74	C	0.353473	0.394568	0.470778
C75	C	0.686806	0.727901	0.804111
C76	C	-0.030278	0.060716	0.137443
C77	C	0.303056	0.394049	0.470776
C78	C	0.636389	0.727382	0.804110
C79	C	-0.055489	0.060464	0.068814
C80	C	0.277844	0.393798	0.402147
C81	C	0.611178	0.727131	0.735480
C82	C	-0.105894	0.059960	0.068822
C83	C	0.227440	0.393293	0.402155
C84	C	0.560773	0.726627	0.735489
N85	N	-0.131107	0.059703	0.000197
N86	N	0.202227	0.393037	0.333531
N87	N	0.535560	0.726370	0.666864
C88	C	-0.105906	0.059965	-0.068432
C89	C	0.227427	0.393299	0.264901
C90	C	0.560760	0.726632	0.598235
C91	C	0.352870	0.064660	0.068775
C92	C	0.686203	0.397993	0.402109
C93	C	1.019537	0.731327	0.735442
C94	C	0.403284	0.065179	0.068771
C95	C	0.736617	0.398512	0.402104
C96	C	1.069950	0.731845	0.735437
C97	C	0.403271	0.065185	-0.068489
C98	C	0.736604	0.398518	0.264844
C99	C	1.069938	0.731851	0.598178
C100	C	0.352856	0.064670	-0.068484
C101	C	0.686189	0.398003	0.264850
C102	C	1.019523	0.731336	0.598183
C103	C	0.327657	0.064404	0.000151
C104	C	0.660990	0.397737	0.333484
C105	C	0.994323	0.731070	0.666817
C106	C	-0.211775	0.058886	-0.068415
C107	C	0.121559	0.392220	0.264919
C108	C	0.454892	0.725553	0.598252
C109	C	-0.262191	0.058374	-0.068403
C110	C	0.071142	0.391707	0.264931
C111	C	0.404476	0.725041	0.598264
C112	C	-0.262174	0.058366	0.068857
C113	C	0.071160	0.391699	0.402190
C114	C	0.404493	0.725032	0.735523
C115	C	-0.211762	0.058880	0.068845
C116	C	0.121571	0.392214	0.402178
C117	C	0.454905	0.725547	0.735512
C118	C	-0.186563	0.059139	0.000203
C119	C	0.146770	0.392472	0.333537
C120	C	0.480103	0.725806	0.666870
O121	O	-0.132003	0.059705	0.127157
O122	O	0.201330	0.393038	0.460490
O123	O	0.534664	0.726371	0.793824
O124	O	-0.131987	0.059694	-0.126793
O125	O	0.201347	0.393027	0.206541
O126	O	0.534680	0.726361	0.539874
C127	C	0.095743	0.062026	-0.068454
C128	C	0.429076	0.395359	0.264879
C129	C	0.762409	0.728693	0.598212
C130	C	0.120954	0.062278	0.000169
C131	C	0.454287	0.395611	0.333503
C132	C	0.787621	0.728945	0.666836
C133	C	0.095753	0.062016	0.068799
C134	C	0.429087	0.395350	0.402132
C135	C	0.762420	0.728683	0.735466
C136	C	0.171368	0.062797	0.000165
C137	C	0.504701	0.396130	0.333498
C138	C	0.838034	0.729463	0.666831
C139	C	0.196568	0.063059	-0.068465
C140	C	0.529901	0.396392	0.264869
C141	C	0.863235	0.729725	0.598202
C142	C	0.171355	0.062802	-0.137090
C143	C	0.504688	0.396135	0.196244
C144	C	0.838021	0.729469	0.529577
C145	C	0.120943	0.062288	-0.137084
C146	C	0.454276	0.395621	0.196250
C147	C	0.787610	0.728955	0.529583
C148	C	0.120967	0.062273	0.137424
C149	C	0.454300	0.395606	0.470757
C150	C	0.787633	0.728939	0.804090
C151	C	0.171378	0.062787	0.137412
C152	C	0.504712	0.396121	0.470746
C153	C	0.838045	0.729454	0.804079
C154	C	0.196579	0.063049	0.068783
C155	C	0.529912	0.396383	0.402116
C156	C	0.863245	0.729716	0.735449
C157	C	0.574730	-0.026627	0.000183
C158	C	0.908064	0.306706	0.333517
C159	C	1.241397	0.640039	0.666850
C160	C	0.574174	-0.080282	0.000176
C161	C	0.907508	0.253052	0.333509
C162	C	1.240841	0.586385	0.666843
C163	C	0.526206	-0.457345	0.000158
C164	C	0.859539	-0.124012	0.333491
C165	C	1.192873	0.209322	0.666824
C166	C	0.528252	-0.255685	0.000157
C167	C	0.861586	0.077648	0.333491
C168	C	1.194919	0.410981	0.666824
O169	O	0.491030	-0.224425	0.000115
O170	O	0.824363	0.108908	0.333449
O171	O	1.157697	0.442241	0.666782
N172	N	0.572588	-0.236566	0.000172
N173	N	0.905921	0.096767	0.333505
N174	N	1.239254	0.430100	0.666838
C175	C	0.616415	-0.267866	0.000181
C176	C	0.949748	0.065467	0.333514
C177	C	1.283081	0.398801	0.666847
O178	O	0.654172	-0.246977	0.000185
O179	O	0.987505	0.086356	0.333518
O180	O	1.320838	0.419689	0.666852
C181	C	0.614368	-0.469525	0.000176
C182	C	0.947701	-0.136192	0.333509
C183	C	1.281035	0.197142	0.666842
C184	C	0.570030	-0.488641	0.000169
C185	C	0.903363	-0.155307	0.333503
C186	C	1.236696	0.178026	0.666836
C187	C	0.481871	-0.476461	0.000150
C188	C	0.815204	-0.143128	0.333484
C189	C	1.148538	0.190205	0.666817
C190	C	0.481360	-0.526873	0.000155
C191	C	0.814693	-0.193540	0.333488
C192	C	1.148027	0.139793	0.666821
C193	C	0.525184	-0.558169	0.000166
C194	C	0.858517	-0.224836	0.333499
C195	C	1.191850	0.108498	0.666833
C196	C	0.569518	-0.539053	0.000173
C197	C	0.902852	-0.205719	0.333507
C198	C	1.236185	0.127614	0.666840
C199	C	0.658194	-0.500824	0.000180
C200	C	0.991528	-0.167490	0.333513
C201	C	1.324861	0.165843	0.666846
C202	C	0.657679	-0.551241	0.000176
C203	C	0.991012	-0.217908	0.333510
C204	C	1.324345	0.115426	0.666843
C205	C	0.613340	-0.570357	0.000170
C206	C	0.946674	-0.237024	0.333503
C207	C	1.280007	0.096310	0.666837
C208	C	0.612831	-0.620761	0.000189
C209	C	0.946164	-0.287427	0.333522
C210	C	1.279498	0.045906	0.666856
N211	N	0.568496	-0.639879	0.000175
N212	N	0.901829	-0.306546	0.333508
N213	N	1.235162	0.026787	0.666842
C214	C	0.524672	-0.608584	0.000163
C215	C	0.858005	-0.275250	0.333497
C216	C	1.191339	0.058083	0.666830
C217	C	0.617486	-0.161992	0.000185
C218	C	0.950820	0.171341	0.333518
C219	C	1.284153	0.504675	0.666852
C220	C	0.617998	-0.111577	0.000188
C221	C	0.951331	0.221756	0.333521
C222	C	1.284665	0.555089	0.666854
C223	C	0.529835	-0.099400	0.000163
C224	C	0.863169	0.233933	0.333496
C225	C	1.196502	0.567267	0.666829
C226	C	0.529324	-0.149815	0.000166
C227	C	0.862657	0.183518	0.333499
C228	C	1.195991	0.516851	0.666832
C229	C	0.573151	-0.181111	0.000171
C230	C	0.906484	0.152223	0.333504
C231	C	1.239817	0.485556	0.666837
C232	C	0.523602	-0.714453	0.000173
C233	C	0.856935	-0.381120	0.333506
C234	C	1.190269	-0.047786	0.666840
C235	C	0.523095	-0.764870	0.000180
C236	C	0.856428	-0.431537	0.333514
C237	C	1.189761	-0.098203	0.666847
C238	C	0.611257	-0.777043	0.000201
C239	C	0.944590	-0.443710	0.333534
C240	C	1.277924	-0.110376	0.666868
C241	C	0.611765	-0.726630	0.000198
C242	C	0.945098	-0.393297	0.333531
C243	C	1.278431	-0.059964	0.666864
C244	C	0.567933	-0.695336	0.000181
C245	C	0.901266	-0.362003	0.333514
C246	C	1.234600	-0.028669	0.666848
O247	O	0.650033	-0.652049	0.000223
O248	O	0.983366	-0.318715	0.333556
O249	O	1.316700	0.014618	0.666889
O250	O	0.486920	-0.629482	0.000142
O251	O	0.820254	-0.296149	0.333476
O252	O	1.153587	0.037185	0.666809
C253	C	0.526717	-0.406933	0.000153
C254	C	0.860050	-0.073600	0.333487
C255	C	1.193384	0.259734	0.666820
C256	C	0.571052	-0.387817	0.000161
C257	C	0.904385	-0.054483	0.333494
C258	C	1.237718	0.278850	0.666827
C259	C	0.614875	-0.419112	0.000172
C260	C	0.948209	-0.085779	0.333506
C261	C	1.281542	0.247554	0.666839
C262	C	0.571564	-0.337402	0.000163
C263	C	0.904897	-0.004069	0.333497
C264	C	1.238230	0.329264	0.666830
C265	C	0.527740	-0.306107	0.000152
C266	C	0.861073	0.027227	0.333485
C267	C	1.194407	0.360560	0.666819
C268	C	0.483404	-0.325225	0.000138
C269	C	0.816738	0.008108	0.333471
C270	C	1.150071	0.341441	0.666804
C271	C	0.482893	-0.375637	0.000142
C272	C	0.816227	-0.042304	0.333475
C273	C	1.149560	0.291029	0.666809
C274	C	0.659211	-0.399994	0.000186
C275	C	0.992544	-0.066660	0.333520
C276	C	1.325878	0.266673	0.666853
C277	C	0.659718	-0.349581	0.000183
C278	C	0.993052	-0.016248	0.333516
C279	C	1.326385	0.317086	0.666850
C280	C	0.615895	-0.318285	0.000172
C281	C	0.949228	0.015048	0.333505
C282	C	1.282561	0.348381	0.666838
C283	C	0.658952	0.057570	0.000214
C284	C	0.992285	0.390903	0.333547
C285	C	1.325619	0.724237	0.666881
C286	C	0.712608	0.058112	0.000227
C287	C	1.045942	0.391445	0.333560
C288	C	1.379275	0.724779	0.666893
C289	C	0.566362	0.150180	0.000190
C290	C	0.899696	0.483513	0.333523
C291	C	1.233029	0.816847	0.666856
C292	C	0.566918	0.203834	0.000192
C293	C	0.900252	0.537168	0.333525
C294	C	1.233585	0.870501	0.666858
N295	N	0.570531	0.061770	0.179350
N296	N	0.903865	0.395104	0.512684
N297	N	1.237198	0.728437	0.846017
N298	N	0.570565	0.061778	-0.178976
N299	N	0.903898	0.395112	0.154357
N300	N	1.237232	0.728445	0.487691
C301	C	0.603649	0.028672	0.218969
C302	C	0.936982	0.362006	0.552303
C303	C	1.270315	0.695339	0.885636
C304	C	0.603652	0.028670	0.298217
C305	C	0.936985	0.362003	0.631550
C306	C	1.270318	0.695337	0.964884
C307	C	0.570542	0.061774	0.337843
C308	C	0.903875	0.395107	0.671176
C309	C	1.237208	0.728441	1.004509
C310	C	0.537418	0.094875	0.298214
C311	C	0.870751	0.428208	0.631547
C312	C	1.204085	0.761541	0.964881
C313	C	0.537413	0.094873	0.218968
C314	C	0.870746	0.428206	0.552301
C315	C	1.204080	0.761540	0.885635
N316	N	0.564071	0.104594	0.462261
N317	N	0.897405	0.437927	0.795594
N318	N	1.230738	0.771260	1.128928
N319	N	0.564079	0.104594	0.537541
N320	N	0.897412	0.437927	0.870875
N321	N	1.230746	0.771260	1.204208
C322	C	0.570554	0.061781	0.576607
C323	C	0.903888	0.395114	0.909940
C324	C	1.237221	0.728447	1.243273
N325	N	0.577031	0.018966	0.537547
N326	N	0.910364	0.352300	0.870881
N327	N	1.243698	0.685633	1.204214
N328	N	0.577026	0.018966	0.462260
N329	N	0.910359	0.352300	0.795593
N330	N	1.243692	0.685633	1.128927
C331	C	0.570543	0.061780	0.423772
C332	C	0.903877	0.395113	0.757105
C333	C	1.237210	0.728446	1.090438
C334	C	0.603677	0.028677	0.702155
C335	C	0.937010	0.362011	1.035488
C336	C	1.270343	0.695344	1.368822
C337	C	0.603676	0.028674	0.781404
C338	C	0.937009	0.362008	1.114737
C339	C	1.270343	0.695341	1.448071
C340	C	0.537445	0.094883	0.781399
C341	C	0.870778	0.428217	1.114733
C342	C	1.204111	0.761550	1.448066
C343	C	0.537443	0.094882	0.702152
C344	C	0.870776	0.428215	1.035485
C345	C	1.204110	0.761549	1.368819
C346	C	0.570561	0.061780	0.662534
C347	C	0.903895	0.395113	0.995868
C348	C	1.237228	0.728446	1.329201
H349	H	-0.050814	0.060539	-0.192951
H350	H	0.282519	0.393872	0.140382
H351	H	0.615852	0.727205	0.473715
H352	H	0.446789	-0.391196	0.000137
H353	H	0.780122	-0.057863	0.333471
H354	H	1.113455	0.275470	0.666804
H355	H	0.694299	-0.485269	0.000184
H356	H	1.027633	-0.151936	0.333518
H357	H	1.360966	0.181398	0.666851
H358	H	0.693369	-0.576720	0.000177
H359	H	1.026702	-0.243387	0.333510
H360	H	1.360035	0.089947	0.666843
H361	H	0.630615	0.001717	0.186715
H362	H	0.963948	0.335051	0.520049
H363	H	1.297281	0.668384	0.853382
H364	H	0.486988	-0.780431	0.000179
H365	H	0.820321	-0.447097	0.333512
H366	H	1.153654	-0.113764	0.666845
H367	H	0.630621	0.001717	0.330481
H368	H	0.963954	0.335050	0.663814
H369	H	1.297287	0.668383	0.997148
H370	H	0.510459	0.121828	0.330481
H371	H	0.843792	0.455161	0.663814
H372	H	1.177125	0.788495	0.997148
H373	H	-0.191264	0.059097	-0.124309
H374	H	0.142069	0.392431	0.209024
H375	H	0.475403	0.725764	0.542357
H376	H	0.487910	-0.688978	0.000159
H377	H	0.821243	-0.355645	0.333492
H378	H	1.154577	-0.022312	0.666826
H379	H	0.446183	-0.450985	0.000138
H380	H	0.779516	-0.117651	0.333472
H381	H	1.112849	0.215682	0.666805
H382	H	0.445255	-0.542432	0.000143
H383	H	0.778589	-0.209099	0.333476
H384	H	1.111922	0.124234	0.666809
H385	H	-0.282701	0.058154	0.124733
H386	H	0.050632	0.391488	0.458066
H387	H	0.383966	0.724821	0.791400
H388	H	0.100454	0.062057	0.193311
H389	H	0.433787	0.395390	0.526645
H390	H	0.767120	0.728724	0.859978
H391	H	0.423805	0.065391	0.124656
H392	H	0.757139	0.398725	0.457989
H393	H	1.090472	0.732058	0.791322
H394	H	0.510484	0.121835	0.813662
H395	H	0.843817	0.455169	1.146995
H396	H	1.177151	0.788502	1.480329
H397	H	0.040633	0.061472	-0.192962
H398	H	0.373966	0.394805	0.140372
H399	H	0.707299	0.728138	0.473705
H400	H	0.493220	-0.165376	0.000163
H401	H	0.826553	0.167958	0.333497
H402	H	1.159886	0.501291	0.666830
H403	H	0.332332	0.064465	-0.124368
H404	H	0.665666	0.397798	0.208966
H405	H	0.998999	0.731131	0.542299
H406	H	0.494152	-0.073910	0.000157
H407	H	0.827486	0.259423	0.333490
H408	H	1.160819	0.592756	0.666823
H409	H	0.694898	-0.425470	0.000195
H410	H	1.028232	-0.092137	0.333528
H411	H	1.361565	0.241196	0.666862
H412	H	0.510444	0.121826	0.186709
H413	H	0.843777	0.455159	0.520043
H414	H	1.177111	0.788493	0.853376
H415	H	0.654103	-0.096018	0.000205
H416	H	0.987436	0.237315	0.333538
H417	H	1.320769	0.570648	0.666871
H418	H	-0.050793	0.060503	0.193335
H419	H	0.282541	0.393837	0.526668
H420	H	0.615874	0.727170	0.860001
H421	H	0.630642	0.001722	0.669897
H422	H	0.963976	0.335055	1.003231
H423	H	1.297309	0.668388	1.336564
H424	H	0.630643	0.001719	0.813662
H425	H	0.963976	0.335053	1.146996
H426	H	1.297309	0.668386	1.480329
H427	H	0.647868	-0.711066	0.000214
H428	H	0.981202	-0.377732	0.333547
H429	H	1.314535	-0.044399	0.666881
H430	H	0.510478	0.121836	0.669892
H431	H	0.843811	0.455169	1.003225
H432	H	1.177144	0.788502	1.336559
H433	H	0.653177	-0.187469	0.000190
H434	H	0.986511	0.145864	0.333524
H435	H	1.319844	0.479198	0.666857
H436	H	0.447722	-0.299735	0.000133
H437	H	0.781055	0.033598	0.333466
H438	H	1.114388	0.366931	0.666800
H439	H	-0.282716	0.058171	-0.124291
H440	H	0.050617	0.391504	0.209042
H441	H	0.383951	0.724837	0.542375
H442	H	0.332358	0.064442	0.124669
H443	H	0.665691	0.397775	0.458002
H444	H	0.999024	0.731109	0.791336
H445	H	0.423798	0.065399	-0.124370
H446	H	0.757131	0.398733	0.208963
H447	H	1.090464	0.732066	0.542297
H448	H	0.040658	0.061438	0.193330
H449	H	0.373991	0.394771	0.526663
H450	H	0.707325	0.728105	0.859996
H451	H	-0.191235	0.059095	0.124729
H452	H	0.142098	0.392428	0.458062
H453	H	0.475432	0.725761	0.791395
H454	H	0.646937	-0.802533	0.000214
H455	H	0.980270	-0.469199	0.333547
H456	H	1.313604	-0.135866	0.666881
H457	H	0.100421	0.062083	-0.192969
H458	H	0.433754	0.395416	0.140364
H459	H	0.767087	0.728750	0.473698
H460	H	0.191900	0.062996	0.193303
H461	H	0.525234	0.396329	0.526636
H462	H	0.858567	0.729663	0.859969
H463	H	0.191881	0.063018	-0.192970
H464	H	0.525215	0.396352	0.140363
H465	H	0.858548	0.729685	0.473696
H466	H	0.695827	-0.334022	0.000194
H467	H	1.029160	-0.000689	0.333528
H468	H	1.362493	0.332644	0.666861
