data_functionalizedCrystal
_audit_creation_method	'MofGen! by Chris Wilmer'
_symmetry_space_group_name_H-M	'P1'
_symmetry_Int_Tables_number	1
_symmetry_cell_setting	triclinic
loop_
_symmetry_equiv_pos_as_xyz
  x,y,z
_cell_length_a	10.723022
_cell_length_b	14.971486
_cell_length_c	13.448316
_cell_angle_alpha	90.001801
_cell_angle_beta	89.994589
_cell_angle_gamma	95.959323
loop_
_atom_site_label
_atom_site_type_symbol
_atom_site_fract_x
_atom_site_fract_y
_atom_site_fract_z
O1	O	0.162617	-1.187820	-0.082575
O2	O	0.662617	-0.687820	0.417425
O3	O	0.182090	-0.927524	-0.082602
O4	O	0.682090	-0.427524	0.417398
O5	O	-0.009285	-1.063677	-0.082584
O6	O	0.490715	-0.563677	0.417416
O7	O	0.353993	-1.051667	-0.082593
O8	O	0.853993	-0.551667	0.417407
O9	O	-0.009297	-1.063660	0.082800
O10	O	0.490703	-0.563660	0.582800
O11	O	0.182079	-0.927507	0.082782
O12	O	0.682079	-0.427507	0.582782
O13	O	0.162605	-1.187803	0.082809
O14	O	0.662605	-0.687803	0.582809
Cu15	Cu	0.172341	-1.057653	0.097896
Cu16	Cu	0.672341	-0.557653	0.597896
Cu17	Cu	0.172355	-1.057674	-0.097689
Cu18	Cu	0.672355	-0.557674	0.402311
O19	O	0.353981	-1.051650	0.082791
O20	O	0.853981	-0.551650	0.582791
C21	C	0.181214	-0.894186	0.000087
C22	C	0.681214	-0.394186	0.500087
C23	C	0.178604	-0.794875	0.000077
C24	C	0.678604	-0.294875	0.500077
C25	C	-0.055782	-1.062795	0.000107
C26	C	0.444218	-0.562795	0.500107
C27	C	-0.194309	-1.060181	0.000103
C28	C	0.305691	-0.560181	0.500103
C29	C	0.163482	-1.221141	0.000118
C30	C	0.663482	-0.721141	0.500118
C31	C	0.166092	-1.320452	0.000122
C32	C	0.666092	-0.820452	0.500122
C33	C	-0.413255	-1.133661	0.000106
C34	C	0.086745	-0.633661	0.500106
C35	C	-0.270081	-1.136364	0.000109
C36	C	0.229919	-0.636364	0.500109
C37	C	0.400477	-1.052532	0.000098
C38	C	0.900477	-0.552532	0.500098
C39	C	0.539004	-1.055146	0.000096
C40	C	1.039004	-0.555146	0.500096
N41	N	0.172330	-1.057645	0.235461
N42	N	0.672330	-0.557645	0.735461
C43	C	0.291032	-0.738253	0.000075
C44	C	0.791032	-0.238253	0.500075
C45	C	0.288572	-0.644940	0.000090
C46	C	0.788572	-0.144940	0.500090
C47	C	0.173683	-0.608252	0.000099
C48	C	0.673683	-0.108252	0.500099
C49	C	0.061246	-0.664881	0.000104
C50	C	0.561246	-0.164881	0.500104
C51	C	0.063707	-0.758192	0.000096
C52	C	0.563707	-0.258192	0.500096
C53	C	0.056125	-0.470391	0.000117
C54	C	0.556125	0.029609	0.500117
C55	C	0.053663	-0.377074	0.000123
C56	C	0.553663	0.122926	0.500123
C57	C	0.280990	-0.357140	0.000112
C58	C	0.780990	0.142860	0.500112
C59	C	0.283451	-0.450450	0.000104
C60	C	0.783451	0.049550	0.500104
C61	C	0.171013	-0.507073	0.000106
C62	C	0.671013	-0.007073	0.500106
N63	N	0.172355	-1.057689	-0.235253
N64	N	0.672355	-0.557689	0.264747
C65	C	0.087624	-1.117953	0.287509
C66	C	0.587624	-0.617953	0.787509
C67	C	0.087623	-1.117958	0.391612
C68	C	0.587623	-0.617958	0.891612
C69	C	0.172335	-1.057660	0.443665
C70	C	0.672335	-0.557660	0.943665
C71	C	0.257045	-0.997346	0.391610
C72	C	0.757045	-0.497346	0.891610
C73	C	0.257039	-0.997337	0.287509
C74	C	0.757039	-0.497337	0.787509
C75	C	0.257054	-0.997371	0.608590
C76	C	0.757054	-0.497371	1.108590
C77	C	0.257062	-0.997381	0.712698
C78	C	0.757062	-0.497381	1.212698
C79	C	0.087637	-1.117992	0.712694
C80	C	0.587637	-0.617992	1.212694
C81	C	0.087631	-1.117983	0.608592
C82	C	0.587631	-0.617983	1.108592
C83	C	0.172343	-1.057670	0.556544
C84	C	0.672343	-0.557670	1.056544
H85	H	-0.478379	-1.198878	0.000117
H86	H	0.021621	-0.698878	0.500117
H87	H	0.326014	-0.948227	0.245132
H88	H	0.826014	-0.448227	0.745132
H89	H	-0.039889	-0.347205	0.000132
H90	H	0.460111	0.152795	0.500132
F91	F	-0.216353	-1.224234	0.000113
F92	F	0.283647	-0.724234	0.500113
H93	H	-0.235410	-0.992954	0.000090
H94	H	0.264590	-0.492954	0.500090
F95	F	0.400655	-0.296876	0.000111
F96	F	0.900655	0.203124	0.500111
H97	H	0.018658	-1.167087	0.566211
H98	H	0.518658	-0.667087	1.066211
H99	H	-0.032298	-0.635002	0.000125
H100	H	0.467702	-0.135002	0.500125
H101	H	-0.395872	-0.989929	0.000097
H102	H	0.104128	-0.489929	0.500097
F103	F	0.347198	-0.933167	0.447009
F104	F	0.847198	-0.433167	0.947009
H105	H	-0.035434	-0.516492	0.000121
H106	H	0.464566	-0.016492	0.500121
H107	H	0.384588	-0.768117	0.000067
H108	H	0.884588	-0.268117	0.500067
F109	F	0.347223	-0.933202	0.768090
F110	F	0.847223	-0.433202	1.268090
F111	F	0.347212	-0.933175	0.553201
F112	F	0.847212	-0.433175	1.053201
F113	F	0.408234	-0.584682	0.000085
F114	F	0.908234	-0.084682	0.500085
H115	H	0.018647	-1.167058	0.245134
H116	H	0.518647	-0.667058	0.745134
F117	F	-0.002532	-1.182143	0.447006
F118	F	0.497468	-0.682143	0.947006
F119	F	-0.055954	-0.818453	0.000101
F120	F	0.444046	-0.318453	0.500101
F121	F	0.405728	-0.489495	0.000084
F122	F	0.905728	0.010505	0.500084
H123	H	0.018662	-1.167101	0.755077
H124	H	0.518662	-0.667101	1.255077
