data_functionalizedCrystal
_audit_creation_method	'MofGen! by Chris Wilmer'
_symmetry_space_group_name_H-M	'P1'
_symmetry_Int_Tables_number	1
_symmetry_cell_setting	triclinic
loop_
_symmetry_equiv_pos_as_xyz
  x,y,z
_cell_length_a	18.050589
_cell_length_b	18.050590
_cell_length_c	19.805399
_cell_angle_alpha	90.000100
_cell_angle_beta	89.977706
_cell_angle_gamma	89.984959
loop_
_atom_site_label
_atom_site_type_symbol
_atom_site_fract_x
_atom_site_fract_y
_atom_site_fract_z
Zn1	Zn	-0.295938	-1.135320	-0.382393
Zn2	Zn	0.204062	-0.635320	0.117607
Zn3	Zn	-0.420130	-1.135222	-0.269215
Zn4	Zn	0.079870	-0.635222	0.230785
Zn5	Zn	-0.295930	-1.011131	-0.269256
Zn6	Zn	0.204070	-0.511131	0.230744
Zn7	Zn	-0.420062	-1.011087	-0.382400
Zn8	Zn	0.079938	-0.511087	0.117600
O9	O	-0.358015	-1.073190	-0.325816
O10	O	0.141985	-0.573190	0.174184
O11	O	-0.312444	-1.239231	-0.367359
O12	O	0.187556	-0.739231	0.132641
O13	O	-0.403680	-1.118739	-0.174504
O14	O	0.096320	-0.618739	0.325496
O15	O	-0.192006	-1.027664	-0.284278
O16	O	0.307994	-0.527664	0.215722
O17	O	-0.403688	-1.239160	-0.284208
O18	O	0.096312	-0.739160	0.215792
O19	O	-0.192012	-1.118905	-0.367399
O20	O	0.307988	-0.618905	0.132601
O21	O	-0.312430	-1.027569	-0.174534
O22	O	0.187570	-0.527569	0.325466
O23	O	-0.312364	-0.907200	-0.284285
O24	O	0.187636	-0.407200	0.215715
O25	O	-0.403572	-1.027589	-0.477116
O26	O	0.096428	-0.527589	0.022884
O27	O	-0.403564	-0.907168	-0.367412
O28	O	0.096436	-0.407168	0.132588
O29	O	-0.312378	-1.118862	-0.477110
O30	O	0.187622	-0.618862	0.022890
O31	O	-0.524046	-1.118696	-0.284215
O32	O	-0.024046	-0.618696	0.215785
O33	O	-0.523996	-1.027495	-0.367372
O34	O	-0.023996	-0.527495	0.132628
C35	C	-0.357956	-0.880238	-0.325854
C36	C	0.142044	-0.380238	0.174146
C37	C	-0.357949	-0.797692	-0.325886
C38	C	0.142051	-0.297692	0.174114
C39	C	-0.407677	-0.598245	-0.370992
C40	C	0.092323	-0.098245	0.129008
C41	C	-0.339959	-0.548853	-0.387646
C42	C	0.160041	-0.048853	0.112354
C43	C	-0.357984	-0.646562	-0.325860
C44	C	0.142016	-0.146562	0.174140
C45	C	-0.425736	-0.548872	-0.309212
C46	C	0.074264	-0.048872	0.190788
C47	C	-0.358025	-0.500577	-0.325836
C48	C	0.141975	-0.000577	0.174164
C49	C	-0.290230	-0.598257	-0.342546
C50	C	0.209770	-0.098257	0.157454
C51	C	-0.376052	-0.598280	-0.264084
C52	C	0.123948	-0.098280	0.235916
C53	C	-0.308287	-0.548910	-0.280714
C54	C	0.191713	-0.048910	0.219286
C55	C	-0.357962	-0.730660	-0.325875
C56	C	0.142038	-0.230660	0.174125
C57	C	-0.358039	-0.416480	-0.325820
C58	C	0.141961	0.083520	0.174180
C59	C	-0.550967	-1.073100	-0.325805
C60	C	-0.050967	-0.573100	0.174195
C61	C	-0.633513	-1.073130	-0.325823
C62	C	-0.133513	-0.573130	0.174177
C63	C	-0.832963	-1.023583	-0.371027
C64	C	-0.332963	-0.523583	0.128973
C65	C	-0.882398	-1.005481	-0.309270
C66	C	-0.382398	-0.505481	0.190730
C67	C	-0.784643	-1.073203	-0.325831
C68	C	-0.284643	-0.573203	0.174169
C69	C	-0.882290	-1.091342	-0.387596
C70	C	-0.382290	-0.591342	0.112404
C71	C	-0.930628	-1.073272	-0.325845
C72	C	-0.430628	-0.573272	0.174155
C73	C	-0.832991	-1.055065	-0.264041
C74	C	-0.332991	-0.555065	0.235959
C75	C	-0.832879	-1.140957	-0.342409
C76	C	-0.332879	-0.640957	0.157591
C77	C	-0.882291	-1.122881	-0.280609
C78	C	-0.382291	-0.622881	0.219391
C79	C	-0.700545	-1.073161	-0.325824
C80	C	-0.200545	-0.573161	0.174176
C81	C	-1.014725	-1.073314	-0.325845
C82	C	-0.514725	-0.573314	0.174155
C83	C	-0.164309	-1.073300	-0.325842
C84	C	0.335691	-0.573300	0.174158
C85	C	-0.081764	-1.073347	-0.325853
C86	C	0.418236	-0.573347	0.174147
C87	C	-0.357968	-1.073232	-0.502359
C88	C	0.142032	-0.573232	-0.002359
C89	C	-0.357948	-1.073249	-0.577591
C90	C	0.142052	-0.573249	-0.077591
C91	C	-0.358064	-0.266895	-0.325790
C92	C	0.141936	0.233105	0.174210
C93	C	-0.358059	-0.349441	-0.325808
C94	C	0.141941	0.150559	0.174192
C95	C	-0.310462	-1.120776	-0.612933
C96	C	0.189538	-0.620776	-0.112933
C97	C	-0.310440	-1.120784	-0.683622
C98	C	0.189560	-0.620784	-0.183622
C99	C	-0.357910	-1.073268	-0.718966
C100	C	0.142090	-0.573268	-0.218966
C101	C	-0.405398	-1.025735	-0.683619
C102	C	0.094602	-0.525735	-0.183619
C103	C	-0.405416	-1.025725	-0.612932
C104	C	0.094584	-0.525725	-0.112932
C105	C	-0.405329	-1.025777	-0.968692
C106	C	0.094671	-0.525777	-0.468692
C107	C	-0.405310	-1.025793	-1.039385
C108	C	0.094690	-0.525793	-0.539385
C109	C	-0.310354	-1.120837	-1.039382
C110	C	0.189646	-0.620837	-0.539382
C111	C	-0.310371	-1.120826	-0.968695
C112	C	0.189629	-0.620826	-0.468695
C113	C	-0.357857	-1.073291	-0.933354
C114	C	0.142143	-0.573291	-0.433354
C115	C	-0.357878	-1.073283	-0.856705
C116	C	0.142122	-0.573283	-0.356705
C117	C	-0.357892	-1.073280	-0.795614
C118	C	0.142108	-0.573280	-0.295614
C119	C	-0.358008	-1.073191	-0.149960
C120	C	0.141992	-0.573191	0.350040
C121	C	-0.357819	-1.073317	-0.074728
C122	C	0.142181	-0.573317	0.425272
H123	H	-0.811304	-0.981560	-0.409194
H124	H	-0.311304	-0.481560	0.090806
H125	H	-0.903946	-1.106656	-0.439824
H126	H	-0.403946	-0.606656	0.060176
H127	H	-0.483014	-0.527175	-0.295144
H128	H	0.016986	-0.027175	0.204856
C129	C	-0.319336	-0.519512	-0.458207
C130	C	0.180664	-0.019512	0.041793
N131	N	-0.303810	-0.497412	-0.511355
N132	N	0.196190	0.002588	-0.011355
C133	C	-0.258148	-1.173094	-0.929820
C134	C	0.241852	-0.673094	-0.429820
N135	N	-0.218809	-1.212461	-0.900540
N136	N	0.281191	-0.712461	-0.400540
H137	H	-0.271773	-1.159487	-0.712394
H138	H	0.228227	-0.659487	-0.212394
C139	C	-0.803458	-1.218296	-0.361380
C140	C	-0.303458	-0.718296	0.138620
N141	N	-0.781293	-1.276546	-0.375679
N142	N	-0.281293	-0.776546	0.124321
C143	C	-0.396710	-0.627635	-0.193540
C144	C	0.103290	-0.127635	0.306460
N145	N	-0.412276	-0.649747	-0.140406
N146	N	0.087724	-0.149747	0.359594
H147	H	-0.811425	-1.039684	-0.211799
H148	H	-0.311425	-0.539684	0.288201
C149	C	-0.911784	-0.928114	-0.290330
C150	C	-0.411784	-0.428114	0.209670
N151	N	-0.933915	-0.869840	-0.276069
N152	N	-0.433915	-0.369840	0.223931
C153	C	-0.258108	-1.173117	-1.078264
C154	C	0.241892	-0.673117	-0.578264
N155	N	-0.218758	-1.212494	-1.107548
N156	N	0.281242	-0.712494	-0.607548
H157	H	-0.443967	-0.987097	-1.068160
H158	H	0.056033	-0.487097	-0.568160
C159	C	-0.911373	-1.179607	-0.228924
C160	C	-0.411373	-0.679607	0.271076
N161	N	-0.933281	-1.222329	-0.189992
N162	N	-0.433281	-0.722329	0.310008
H163	H	-0.449630	-0.619910	-0.409199
H164	H	0.050370	-0.119910	0.090801
H165	H	-0.444077	-0.987016	-0.584157
H166	H	0.055923	-0.487016	-0.084157
C167	C	-0.212827	-0.627438	-0.361641
C168	C	0.287173	-0.127438	0.138359
N169	N	-0.154529	-0.649418	-0.376026
N170	N	0.345471	-0.149418	0.123974
H171	H	-0.266232	-0.527384	-0.242537
H172	H	0.233768	-0.027384	0.257463
C173	C	-0.258240	-1.173048	-0.574060
C174	C	0.241760	-0.673048	-0.074060
N175	N	-0.218902	-1.212418	-0.544783
N176	N	0.281098	-0.712418	-0.044783
H177	H	-0.444006	-0.987083	-0.939926
H178	H	0.055994	-0.487083	-0.439926
H179	H	-0.444046	-0.987044	-0.712402
H180	H	0.055954	-0.487044	-0.212402
