data_functionalizedCrystal
_audit_creation_method	'MofGen! by Chris Wilmer'
_symmetry_space_group_name_H-M	'P1'
_symmetry_Int_Tables_number	1
_symmetry_cell_setting	triclinic
loop_
_symmetry_equiv_pos_as_xyz
  x,y,z
_cell_length_a	19.805407
_cell_length_b	19.121063
_cell_length_c	19.805399
_cell_angle_alpha	92.409585
_cell_angle_beta	89.983114
_cell_angle_gamma	92.469032
loop_
_atom_site_label
_atom_site_type_symbol
_atom_site_fract_x
_atom_site_fract_y
_atom_site_fract_z
Zn1	Zn	1.023216	-0.279621	-0.394202
Zn2	Zn	1.018304	-0.397076	-0.285838
Zn3	Zn	0.910035	-0.279643	-0.281028
Zn4	Zn	0.905164	-0.397036	-0.398983
O5	O	0.964180	-0.338344	-0.340013
O6	O	1.117280	-0.295209	-0.379840
O7	O	1.003925	-0.381524	-0.190484
O8	O	0.929142	-0.181355	-0.292027
O9	O	1.113672	-0.381503	-0.300225
O10	O	1.012296	-0.181339	-0.375176
O11	O	0.924380	-0.295247	-0.186950
O12	O	0.814672	-0.295208	-0.296663
O13	O	0.920841	-0.381434	-0.493064
O14	O	0.811094	-0.381456	-0.383323
O15	O	1.007573	-0.295170	-0.489552
O16	O	0.999202	-0.495355	-0.304860
O17	O	0.916079	-0.495326	-0.387987
C18	C	0.788324	-0.338330	-0.339990
C19	C	0.713092	-0.338341	-0.339997
C20	C	0.675899	-0.383318	-0.385054
C21	C	0.605211	-0.383320	-0.385064
C22	C	0.571716	-0.338347	-0.340013
C23	C	0.608914	-0.293365	-0.294954
C24	C	0.679601	-0.293361	-0.294948
C25	C	0.323840	-0.293381	-0.294977
C26	C	0.253147	-0.293390	-0.294985
C27	C	0.249449	-0.383339	-0.385093
C28	C	0.320137	-0.383335	-0.385087
C29	C	0.357328	-0.338351	-0.340031
C30	C	0.433977	-0.338349	-0.340022
C31	C	0.495069	-0.338352	-0.340018
C32	C	0.956597	-0.520824	-0.347479
C33	C	0.953415	-0.598890	-0.350696
C34	C	0.995232	-0.635558	-0.308963
C35	C	0.992244	-0.708909	-0.311992
C36	C	0.947434	-0.745592	-0.356751
C37	C	0.905616	-0.708919	-0.398489
C38	C	0.908608	-0.635569	-0.395462
C39	C	0.936236	-0.967062	-0.368055
C40	C	0.933245	-1.040417	-0.371077
C41	C	1.019874	-1.040402	-0.284581
C42	C	1.022860	-0.967051	-0.281556
C43	C	0.981044	-0.930384	-0.323296
C44	C	0.944377	-0.820569	-0.359847
C45	C	0.984105	-0.855409	-0.320203
C46	C	1.140722	-0.338358	-0.340036
C47	C	1.215954	-0.338364	-0.340045
C48	C	0.964211	-0.338295	-0.516553
C49	C	0.964225	-0.338274	-0.591785
C50	C	0.971810	-0.155150	-0.332532
C51	C	0.975062	-0.077084	-0.329344
C52	C	0.922818	-0.293345	-0.625288
C53	C	0.922828	-0.293332	-0.695976
C54	C	0.964249	-0.338244	-0.733159
C55	C	1.005657	-0.383178	-0.699651
C56	C	1.005643	-0.383194	-0.628964
C57	C	1.005713	-0.383112	-0.984721
C58	C	1.005726	-0.383090	-1.055413
C59	C	0.922898	-0.293249	-1.051733
C60	C	0.922884	-0.293266	-0.981047
C61	C	0.964290	-0.338202	-0.947545
C62	C	0.964278	-0.338217	-0.870897
C63	C	0.964265	-0.338226	-0.809805
C64	C	0.964189	-0.338342	-0.164157
C65	C	0.964315	-0.338164	-0.088918
H66	H	0.354113	-0.256757	-0.258284
C67	C	1.087603	-0.471900	-0.995468
C68	C	1.051238	-0.432493	-0.947902
H69	H	1.115714	-0.502382	-0.972733
H70	H	1.057001	-0.498761	-1.024127
H71	H	1.114764	-0.441282	-1.021796
H72	H	1.024073	-0.463111	-0.921577
H73	H	1.081844	-0.405630	-0.919231
H74	H	0.347404	-0.419959	-0.421770
H75	H	0.889108	-0.256749	-0.723251
H76	H	0.709883	-0.256732	-0.258261
H77	H	0.907892	-0.850443	-0.396289
C78	C	1.042396	-0.423116	-0.522238
C79	C	1.051158	-0.432581	-0.592133
H80	H	1.070492	-0.453612	-0.499503
H81	H	1.054269	-0.375935	-0.508733
H82	H	0.996486	-0.433393	-0.511077
H83	H	1.097068	-0.422299	-0.603295
H84	H	1.039290	-0.479772	-0.605644
H85	H	1.039379	-0.419750	-0.729931
C86	C	0.252896	-0.472254	-0.474167
C87	C	0.208567	-0.432780	-0.434630
H88	H	0.227657	-0.502778	-0.504745
H89	H	0.281747	-0.441686	-0.498848
H90	H	0.279340	-0.499079	-0.445721
H91	H	0.182127	-0.405951	-0.463076
H92	H	0.179705	-0.463352	-0.409947
C93	C	1.117273	-0.884483	-0.268835
C94	C	1.072115	-0.926726	-0.232359
H95	H	1.147675	-0.859584	-0.238459
H96	H	1.141981	-0.913054	-0.299518
H97	H	1.092785	-0.852153	-0.293256
H98	H	1.096602	-0.959059	-0.207941
H99	H	1.047404	-0.898152	-0.201663
H100	H	0.889093	-0.256768	-0.595018
H101	H	0.902186	-0.937214	-0.402040
C102	C	0.822679	-0.642946	-0.481263
C103	C	0.862643	-0.595261	-0.441337
H104	H	0.794302	-0.618061	-0.509584
H105	H	0.850988	-0.671512	-0.508354
H106	H	0.795636	-0.671597	-0.452925
H107	H	0.889690	-0.566613	-0.469676
H108	H	0.834331	-0.566683	-0.414244
H109	H	0.225878	-0.256763	-0.258298
C110	C	0.886087	-0.253400	-0.871056
C111	C	0.877353	-0.243898	-0.940175
H112	H	0.857978	-0.222920	-0.845826
H113	H	0.874214	-0.300588	-0.861401
H114	H	0.931991	-0.243125	-0.859064
H115	H	0.831449	-0.254179	-0.952168
H116	H	0.889222	-0.196700	-0.949834
H117	H	1.053919	-1.070264	-0.250600
H118	H	0.703165	-0.419943	-0.421738
C119	C	0.996917	-0.772981	-0.225771
C120	C	1.033356	-0.815090	-0.271001
H121	H	1.027322	-0.748090	-0.195392
H122	H	0.972447	-0.740652	-0.250198
H123	H	0.966276	-0.801648	-0.201039
H124	H	1.063994	-0.786423	-0.295737
H125	H	1.057838	-0.847423	-0.246571
H126	H	1.039457	-0.419666	-1.085685
C127	C	0.608655	-0.472253	-0.474114
C128	C	0.564328	-0.432771	-0.434582
H129	H	0.583414	-0.502788	-0.504681
H130	H	0.637499	-0.441690	-0.498808
H131	H	0.635105	-0.499066	-0.445663
H132	H	0.537881	-0.405954	-0.463032
H133	H	0.535472	-0.463338	-0.409886
C134	C	0.529797	-0.283485	-0.203526
C135	C	0.572097	-0.243928	-0.245434
H136	H	0.507072	-0.252964	-0.172952
H137	H	0.497532	-0.310267	-0.230361
H138	H	0.556101	-0.314045	-0.178836
H139	H	0.545792	-0.213372	-0.270128
H140	H	0.604365	-0.217134	-0.218596
C141	C	1.080563	-0.642919	-0.223773
C142	C	1.044488	-0.595240	-0.259761
H143	H	1.110975	-0.618028	-0.193402
H144	H	1.049920	-0.671570	-0.199039
H145	H	1.105267	-0.671485	-0.254475
H146	H	1.019780	-0.566677	-0.229060
H147	H	1.075135	-0.566577	-0.284496
C148	C	0.847926	-1.033067	-0.456289
C149	C	0.883994	-1.080740	-0.420287
H150	H	0.817526	-1.057963	-0.486670
H151	H	0.823214	-1.004503	-0.425602
H152	H	0.878578	-1.004413	-0.481020
H153	H	0.853342	-1.109391	-0.395552
H154	H	0.908706	-1.109316	-0.450978
C155	C	0.886125	-0.253333	-1.158457
C156	C	0.877374	-0.243862	-1.088561
H157	H	0.858018	-0.222846	-1.181191
H158	H	0.932026	-0.243053	-1.169627
H159	H	0.874254	-0.300522	-1.171958
H160	H	0.889250	-0.196674	-1.075060
H161	H	0.831463	-0.254137	-1.077386
H162	H	1.026295	-0.738761	-0.278008
C163	C	0.862558	-0.821364	-0.441528
C164	C	0.856358	-0.749239	-0.447687
H165	H	0.832142	-0.846253	-0.471899
H166	H	0.907534	-0.833337	-0.451973
H167	H	0.852189	-0.833417	-0.396536
H168	H	0.866732	-0.737185	-0.492678
H169	H	0.811372	-0.737260	-0.437247
