data_functionalizedCrystal
_audit_creation_method	'MofGen! by Chris Wilmer'
_symmetry_space_group_name_H-M	'P1'
_symmetry_Int_Tables_number	1
_symmetry_cell_setting	triclinic
loop_
_symmetry_equiv_pos_as_xyz
  x,y,z
_cell_length_a	27.440280
_cell_length_b	27.440280
_cell_length_c	27.440280
_cell_angle_alpha	60.004742
_cell_angle_beta	89.999308
_cell_angle_gamma	60.000166
loop_
_atom_site_label
_atom_site_type_symbol
_atom_site_fract_x
_atom_site_fract_y
_atom_site_fract_z
Zr1	Zr	0.469565	0.533336	-0.063960
O2	O	0.391758	0.634997	-0.141766
O3	O	0.493407	0.431675	-0.040110
O4	O	0.493419	0.533325	-0.141771
O5	O	0.391748	0.533356	0.040089
O6	O	0.573621	0.533317	-0.141774
O7	O	0.391747	0.533347	-0.040105
O8	O	0.573600	0.351484	0.040080
O9	O	0.391769	0.715189	-0.141765
O10	O	0.563441	0.473485	-0.029939
O11	O	0.503588	0.473497	0.029911
O12	O	0.503602	0.593177	-0.089782
O13	O	0.443749	0.593190	-0.029933
Zr14	Zr	0.597479	0.533339	0.063934
Zr15	Zr	0.597478	0.533324	-0.063965
Zr16	Zr	0.469566	0.533351	0.063939
Zr17	Zr	0.469581	0.661234	-0.063959
Zr18	Zr	0.597463	0.405441	0.063933
O19	O	0.573637	0.635000	0.040083
O20	O	0.573634	0.634979	-0.141773
O21	O	0.391761	0.635018	0.040090
O22	O	0.675286	0.431679	0.141740
O23	O	0.675283	0.431658	-0.040116
O24	O	0.493410	0.431697	0.141747
O25	O	0.675296	0.533319	-0.040115
O26	O	0.573625	0.533350	0.141745
O27	O	0.493423	0.533358	0.141748
O28	O	0.675297	0.533329	0.040078
O29	O	0.493442	0.715179	-0.141769
O30	O	0.573602	0.351496	0.141743
O31	O	0.675275	0.351486	0.141739
O32	O	0.675274	0.351475	0.040076
O33	O	0.391770	0.715201	-0.040103
O34	O	0.493444	0.715191	-0.040106
O35	O	0.563443	0.473499	0.089756
O36	O	0.623296	0.473486	0.029907
O37	O	0.563456	0.593178	-0.029937
O38	O	0.503603	0.593191	0.029912
C39	C	0.533501	0.373357	-0.000015
C40	C	0.533494	0.319061	-0.000016
C41	C	0.373522	0.533353	-0.000007
C42	C	0.319220	0.533359	-0.000005
C43	C	0.564781	-0.017687	-0.031249
C44	C	0.564787	-0.068711	-0.031247
O45	O	0.591376	-0.095123	-0.057798
N46	N	0.533544	-0.094221	-0.000007
C47	C	0.502298	-0.068709	0.031238
O48	O	0.475724	-0.095092	0.057810
C49	C	0.502296	-0.017689	0.031239
C50	C	0.533537	0.007823	-0.000008
C51	C	0.596020	0.007824	-0.062492
C52	C	0.596013	0.058845	-0.062495
C53	C	0.564768	0.084355	-0.031254
C54	C	0.533530	0.058844	-0.000010
C55	C	0.471054	0.007819	0.062487
C56	C	0.471056	0.058841	0.062486
C57	C	0.502296	0.084353	0.031240
C58	C	0.502279	0.135375	0.031229
N59	N	0.533522	0.160885	-0.000011
C60	C	0.564767	0.135375	-0.031252
C61	C	0.502304	-0.175854	0.031233
C62	C	0.502302	-0.226869	0.031228
C63	C	0.564792	-0.226869	-0.031256
C64	C	0.564790	-0.175849	-0.031254
C65	C	0.533548	-0.150344	-0.000007
C66	C	0.564750	0.242523	-0.031255
C67	C	0.564739	0.293551	-0.031257
C68	C	0.502252	0.293544	0.031229
C69	C	0.502261	0.242524	0.031229
C70	C	0.533514	0.217013	-0.000015
O71	O	0.475706	0.161818	0.057768
O72	O	0.591342	0.161758	-0.057814
C73	C	-0.017478	0.533317	-0.044193
C74	C	-0.068496	0.533312	-0.044194
O75	O	-0.094872	0.533282	-0.081754
N76	N	-0.094013	0.533319	-0.000015
C77	C	-0.068506	0.533323	0.044170
O78	O	-0.094895	0.533327	0.081748
C79	C	-0.017487	0.533323	0.044172
C80	C	0.008024	0.533324	-0.000012
C81	C	0.008033	0.533317	-0.088374
C82	C	0.059047	0.533323	-0.088374
C83	C	0.084549	0.533330	-0.044193
C84	C	0.059038	0.533330	-0.000013
C85	C	0.008021	0.533322	0.088360
C86	C	0.059045	0.533322	0.088358
C87	C	0.084556	0.533322	0.044173
C88	C	0.135554	0.533342	0.044168
N89	N	0.161071	0.533336	-0.000010
C90	C	0.135569	0.533330	-0.044191
C91	C	-0.175650	0.533322	0.044163
C92	C	-0.226671	0.533327	0.044158
C93	C	-0.226657	0.533315	-0.044205
C94	C	-0.175637	0.533315	-0.044203
C95	C	-0.150133	0.533315	-0.000016
C96	C	0.242701	0.533343	-0.044188
C97	C	0.293718	0.533352	-0.044186
C98	C	0.293701	0.533361	0.044179
C99	C	0.242687	0.533355	0.044175
C100	C	0.217189	0.533344	-0.000012
O101	O	0.161963	0.533370	0.081711
O102	O	0.161968	0.533316	-0.081758
C103	C	0.693522	0.533322	-0.000019
C104	C	0.747824	0.533317	-0.000021
C105	C	0.533520	0.533319	-0.159996
C106	C	0.533519	0.533313	-0.214292
C107	C	0.533543	0.693318	-0.000011
C108	C	0.533550	0.747614	-0.000011
C109	C	0.502292	0.595827	-0.582264
C110	C	0.502294	0.595831	-0.633286
O111	O	0.475747	0.648966	-0.686241
N112	N	0.533528	0.533354	-0.627566
C113	C	0.564768	0.470868	-0.570818
O114	O	0.591335	0.417727	-0.570638
C115	C	0.564769	0.470865	-0.519797
C116	C	0.533528	0.533347	-0.525523
C117	C	0.471054	0.658304	-0.587987
C118	C	0.471051	0.658300	-0.536968
C119	C	0.502287	0.595819	-0.480226
C120	C	0.533525	0.533343	-0.474504
C121	C	0.596012	0.408381	-0.463051
C122	C	0.596011	0.408383	-0.412030
C123	C	0.564769	0.470864	-0.417755
C124	C	0.564758	0.470858	-0.366743
N125	N	0.533524	0.533336	-0.372464
C126	C	0.502288	0.595816	-0.429205
C127	C	0.564763	0.470880	-0.677968
C128	C	0.564759	0.470882	-0.728988
C129	C	0.502285	0.595845	-0.791453
C130	C	0.502287	0.595842	-0.740432
C131	C	0.533529	0.533357	-0.683689
C132	C	0.502285	0.595803	-0.322060
C133	C	0.502283	0.595793	-0.271034
C134	C	0.564759	0.470831	-0.208574
C135	C	0.564758	0.470840	-0.259595
C136	C	0.533520	0.533331	-0.316340
O137	O	0.591293	0.417750	-0.313770
O138	O	0.475731	0.648949	-0.429375
C139	C	0.533524	0.533356	0.159969
C140	C	0.533525	0.533363	0.214266
C141	C	0.693501	0.373342	-0.000021
C142	C	0.747796	0.319040	-0.000023
C143	C	0.533504	0.373376	0.159967
C144	C	0.533497	0.319086	0.214263
C145	C	0.693503	0.373360	0.159962
C146	C	0.747799	0.319066	0.214256
C147	C	0.373541	0.693315	-0.159988
C148	C	0.319245	0.747610	-0.214282
C149	C	0.373543	0.693334	-0.000005
C150	C	0.319248	0.747635	-0.000003
C151	C	0.533540	0.693299	-0.159994
C152	C	0.533547	0.747589	-0.214290
C153	C	0.742050	0.293539	-0.031269
C154	C	0.793062	0.242525	-0.031283
C155	C	0.849819	0.217008	-0.000048
C156	C	0.855563	0.242515	0.031198
C157	C	0.804552	0.293532	0.031208
C158	C	0.564738	0.293592	0.271005
C159	C	0.564730	0.242588	0.322027
C160	C	0.533484	0.217077	0.316305
C161	C	0.502240	0.242576	0.259557
C162	C	0.502245	0.293582	0.208537
C163	C	0.804545	0.293561	0.208512
C164	C	0.855567	0.242553	0.259522
C165	C	0.849842	0.217046	0.316275
C166	C	0.793090	0.242555	0.322018
C167	C	0.742069	0.293566	0.271008
C168	C	0.262499	0.773120	-0.208538
C169	C	0.211477	0.824145	-0.259548
C170	C	0.217202	0.849655	-0.316301
C171	C	0.273954	0.824142	-0.322044
C172	C	0.324975	0.773122	-0.271034
C173	C	0.324994	0.773141	0.031237
C174	C	0.273982	0.824170	0.031237
C175	C	0.217226	0.849688	0.000001
C176	C	0.211481	0.824180	-0.031243
C177	C	0.262492	0.773155	-0.031246
C178	C	0.564798	0.773085	-0.208549
C179	C	0.564816	0.824089	-0.259561
C180	C	0.533578	0.849600	-0.316313
C181	C	0.502325	0.824099	-0.322052
C182	C	0.502311	0.773092	-0.271041
H183	H	0.590178	0.314323	-0.056704
H184	H	0.257825	0.752353	-0.162331
H185	H	0.476848	0.646689	-0.368258
Br186	Br	0.459838	0.207945	0.251803
H187	H	0.476840	0.646675	-0.275702
Br188	Br	0.785251	0.207919	-0.073690
H189	H	0.476807	0.314333	0.162337
H190	H	0.445613	0.079606	0.087931
H191	H	0.476892	0.844878	-0.368267
Br192	Br	0.147953	0.918897	-0.385524
H193	H	0.371179	0.752352	-0.275718
H194	H	0.165272	0.844908	-0.254860
H195	H	0.533485	0.175544	0.357854
H196	H	0.590236	0.752322	-0.162343
H197	H	0.590264	0.844846	-0.254876
Br198	Br	0.607190	-0.141232	-0.073661
Br199	Br	0.812332	0.328171	0.131496
Br200	Br	0.533602	0.918825	-0.385537
Br201	Br	0.428637	0.743101	-0.544748
H202	H	0.901773	0.221788	0.254835
Br203	Br	0.459889	0.738503	-0.278843
H204	H	0.891391	0.175509	0.357805
Br205	Br	0.607151	0.328201	0.278787
Br206	Br	0.208106	0.533328	-0.104156
Br207	Br	0.459850	0.328175	0.073626
Br208	Br	0.093666	0.533319	-0.148339
H209	H	0.788437	0.221779	0.368233
Br210	Br	0.665059	0.328170	0.278814
H211	H	0.371203	0.752369	0.056677
H212	H	0.590201	0.221757	-0.056696
H213	H	0.278609	0.844919	-0.368259
H214	H	0.278671	0.844931	0.056682
Br215	Br	0.638415	0.093459	-0.104901
Br216	Br	0.607137	0.207992	0.399034
H217	H	-0.247444	0.533337	0.080132
Br218	Br	0.148002	0.918936	0.000012
H219	H	0.621465	-0.012944	-0.087932
H220	H	0.165263	0.844964	-0.056675
H221	H	-0.154869	0.533315	-0.080181
Br222	Br	0.607196	-0.261500	-0.073655
Br223	Br	0.459891	-0.261474	0.073624
H224	H	0.476856	-0.155086	0.056675
Br225	Br	0.428655	-0.026793	0.104897
H226	H	-0.154890	0.533328	0.080144
H227	H	0.590189	0.419962	-0.254932
H228	H	0.257805	0.752389	-0.056684
Br229	Br	0.428657	0.743110	-0.664989
H230	H	0.476847	0.646720	-0.745099
H231	H	0.476814	0.221759	0.056664
H232	H	-0.247429	0.533308	-0.080179
Br233	Br	-0.026567	0.533307	-0.148341
Br234	Br	-0.026590	0.533321	0.148328
Br235	Br	0.328336	0.533357	-0.104157
H236	H	0.221910	0.533365	0.080149
Br237	Br	0.093656	0.533319	0.148332
H238	H	0.314471	0.533369	0.080149
H239	H	0.476851	0.646720	-0.837662
H240	H	0.590191	0.420003	-0.724319
H241	H	0.590201	0.419994	-0.631766
Br242	Br	0.932595	0.207876	0.073587
Br243	Br	0.638412	0.323579	-0.455266
H244	H	0.621453	0.357499	-0.365828
H245	H	0.590188	0.419961	-0.162366
Br246	Br	0.665030	0.328159	-0.073666
H247	H	0.891350	0.175466	-0.000061
H248	H	0.809239	0.314288	0.056655
