data_functionalizedCrystal
_audit_creation_method	'MofGen! by Chris Wilmer'
_symmetry_space_group_name_H-M	'P1'
_symmetry_Int_Tables_number	1
_symmetry_cell_setting	triclinic
loop_
_symmetry_equiv_pos_as_xyz
  x,y,z
_cell_length_a	19.288864
_cell_length_b	11.892095
_cell_length_c	19.288865
_cell_angle_alpha	93.870403
_cell_angle_beta	96.863755
_cell_angle_gamma	93.899284
loop_
_atom_site_label
_atom_site_type_symbol
_atom_site_fract_x
_atom_site_fract_y
_atom_site_fract_z
O1	O	0.925821	0.094380	-0.082175
O2	O	1.259154	0.427713	0.251158
O3	O	1.592488	0.761046	0.584491
O4	O	0.723557	0.094304	-0.093868
O5	O	1.056890	0.427638	0.239466
O6	O	1.390224	0.760971	0.572799
O7	O	0.830532	0.094322	0.013108
O8	O	1.163866	0.427655	0.346441
O9	O	1.497199	0.760988	0.679774
O10	O	0.818846	0.094362	-0.189151
O11	O	1.152179	0.427696	0.144182
O12	O	1.485512	0.761029	0.477516
O13	O	0.821613	-0.093687	0.004202
O14	O	1.154946	0.239646	0.337535
O15	O	1.488280	0.572980	0.670869
O16	O	0.714638	-0.093705	-0.102773
O17	O	1.047971	0.239629	0.230560
O18	O	1.381304	0.572962	0.563893
O19	O	0.916902	-0.093629	-0.091081
O20	O	1.250235	0.239704	0.242252
O21	O	1.583568	0.573037	0.575586
Zn22	Zn	0.814354	-0.123517	-0.098341
Zn23	Zn	1.147687	0.209816	0.234992
Zn24	Zn	1.481020	0.543149	0.568325
Zn25	Zn	0.826105	0.124192	-0.086608
Zn26	Zn	1.159439	0.457526	0.246726
Zn27	Zn	1.492772	0.790859	0.580059
O28	O	0.809926	-0.093647	-0.198057
O29	O	1.143260	0.239687	0.135277
O30	O	1.476593	0.573020	0.468610
C31	C	0.693220	0.000290	-0.097945
C32	C	1.026554	0.333623	0.235388
C33	C	1.359887	0.666956	0.568722
C34	C	0.616115	0.000260	-0.096817
C35	C	0.949449	0.333593	0.236516
C36	C	1.282782	0.666927	0.569849
N37	N	0.806338	-0.292573	-0.106349
N38	N	1.139672	0.040760	0.226985
N39	N	1.473005	0.374094	0.560318
C40	C	0.571421	0.000290	-0.159584
C41	C	0.904754	0.333624	0.173750
C42	C	1.238087	0.666957	0.507083
C43	C	0.498974	0.000303	-0.158523
C44	C	0.832307	0.333636	0.174811
C45	C	1.165641	0.666969	0.508144
C46	C	0.471227	0.000307	-0.094690
C47	C	0.804560	0.333641	0.238643
C48	C	1.137893	0.666974	0.571977
C49	C	0.515931	0.000270	-0.031916
C50	C	0.849264	0.333604	0.301418
C51	C	1.182598	0.666937	0.634751
C52	C	0.588375	0.000247	-0.032979
C53	C	0.921709	0.333580	0.300354
C54	C	1.255042	0.666914	0.633687
C55	C	0.366091	0.066203	-0.041390
C56	C	0.699424	0.399536	0.291944
C57	C	1.032758	0.732870	0.625277
C58	C	0.293648	0.066234	-0.040328
C59	C	0.626981	0.399567	0.293005
C60	C	0.960314	0.732900	0.626338
C61	C	0.247784	0.000375	-0.091407
C62	C	0.581118	0.333708	0.241926
C63	C	0.914451	0.667042	0.575259
C64	C	0.274372	-0.065500	-0.143559
C65	C	0.607705	0.267834	0.189775
C66	C	0.941039	0.601167	0.523108
C67	C	0.346816	-0.065523	-0.144622
C68	C	0.680150	0.267810	0.188711
C69	C	1.013483	0.601143	0.522044
C70	C	0.392674	0.000332	-0.093530
C71	C	0.726007	0.333665	0.239803
C72	C	1.059341	0.666999	0.573137
C73	C	0.124534	0.000417	-0.153027
C74	C	0.457867	0.333750	0.180306
C75	C	0.791201	0.667084	0.513639
C76	C	0.052086	0.000422	-0.151964
C77	C	0.385420	0.333756	0.181369
C78	C	0.718753	0.667089	0.514703
C79	C	0.069045	0.000402	-0.025355
C80	C	0.402379	0.333735	0.307979
C81	C	0.735712	0.667068	0.641312
C82	C	0.141491	0.000385	-0.026421
C83	C	0.474824	0.333718	0.306913
C84	C	0.808158	0.667052	0.640246
C85	C	0.169231	0.000398	-0.090259
C86	C	0.502564	0.333731	0.243075
C87	C	0.835898	0.667065	0.576408
C88	C	0.889899	-0.529207	-0.022835
C89	C	1.223232	-0.195874	0.310498
C90	C	1.556566	0.137460	0.643832
C91	C	0.884301	-0.647550	-0.028437
C92	C	1.217635	-0.314216	0.304896
C93	C	1.550968	0.019117	0.638229
C94	C	0.789543	-0.647603	-0.123152
C95	C	1.122876	-0.314270	0.210182
C96	C	1.456210	0.019063	0.543515
C97	C	0.795141	-0.529261	-0.117549
C98	C	1.128474	-0.195927	0.215784
C99	C	1.461807	0.137406	0.549117
C100	C	0.845321	-0.470067	-0.067390
C101	C	1.178654	-0.136733	0.265943
C102	C	1.511987	0.196600	0.599277
C103	C	0.850921	-0.351722	-0.061792
C104	C	1.184254	-0.018388	0.271542
C105	C	1.517588	0.314945	0.604875
C106	C	0.756160	-0.351777	-0.156502
C107	C	1.089493	-0.018444	0.176831
C108	C	1.422827	0.314889	0.510164
C109	C	0.750563	-0.470120	-0.162105
C110	C	1.083896	-0.136787	0.171229
C111	C	1.417229	0.196546	0.504562
C112	C	0.947239	0.000388	-0.087004
C113	C	1.280572	0.333721	0.246330
C114	C	1.613905	0.667054	0.579663
C115	C	1.024344	0.000425	-0.088131
C116	C	1.357677	0.333758	0.245202
C117	C	1.691011	0.667092	0.578536
C118	C	0.825697	0.000314	0.034531
C119	C	1.159030	0.333647	0.367865
C120	C	1.492363	0.666980	0.701198
C121	C	0.824567	0.000303	0.111634
C122	C	1.157900	0.333637	0.444968
C123	C	1.491234	0.666970	0.778301
N124	N	0.834126	0.293248	-0.078595
N125	N	1.167459	0.626581	0.254739
N126	N	1.500792	0.959915	0.588072
C127	C	0.814762	0.000364	-0.219480
C128	C	1.148096	0.333697	0.113853
C129	C	1.481429	0.667030	0.447187
C130	C	0.815892	0.000382	-0.296583
C131	C	1.149226	0.333715	0.036751
C132	C	1.482559	0.667048	0.370084
C133	C	0.887336	0.000321	0.156331
C134	C	1.220669	0.333655	0.489665
C135	C	1.554002	0.666988	0.822998
C136	C	0.886276	0.000339	0.228779
C137	C	1.219609	0.333672	0.562113
C138	C	1.552943	0.667006	0.895446
C139	C	0.822443	0.000316	0.256526
C140	C	1.155776	0.333649	0.589859
C141	C	1.489109	0.666982	0.923192
C142	C	0.759666	0.000304	0.211819
C143	C	1.092999	0.333637	0.545152
C144	C	1.426333	0.666971	0.878486
C145	C	0.760728	0.000298	0.139373
C146	C	1.094061	0.333631	0.472707
C147	C	1.427395	0.666965	0.806040
C148	C	0.769138	-0.065559	0.361693
C149	C	1.102471	0.267775	0.695026
C150	C	1.435805	0.601108	1.028360
C151	C	0.768078	-0.065559	0.434137
C152	C	1.101411	0.267774	0.767471
C153	C	1.434745	0.601107	1.100804
C154	C	0.819164	0.000340	0.479973
C155	C	1.152497	0.333673	0.813306
C156	C	1.485831	0.667006	1.146639
C157	C	0.871321	0.066225	0.453355
C158	C	1.204655	0.399558	0.786689
C159	C	1.537988	0.732892	1.120022
C160	C	0.872383	0.066219	0.380910
C161	C	1.205717	0.399552	0.714243
C162	C	1.539050	0.732886	1.047576
C163	C	0.821284	0.000323	0.335080
C164	C	1.154617	0.333656	0.668414
C165	C	1.487951	0.666990	1.001747
C166	C	0.880788	0.000378	0.603227
C167	C	1.214121	0.333712	0.936560
C168	C	1.547455	0.667045	1.269893
C169	C	0.879726	0.000403	0.675676
C170	C	1.213059	0.333736	1.009009
C171	C	1.546393	0.667069	1.342343
C172	C	0.753114	0.000357	0.658713
C173	C	1.086447	0.333690	0.992047
C174	C	1.419780	0.667023	1.325380
C175	C	0.754178	0.000344	0.586266
C176	C	1.087511	0.333677	0.919600
C177	C	1.420845	0.667010	1.252933
C178	C	0.818017	0.000349	0.558527
C179	C	1.151350	0.333682	0.891861
C180	C	1.484684	0.667016	1.225194
H181	H	0.594001	0.000303	-0.211566
H182	H	0.927335	0.333636	0.121768
H183	H	1.260668	0.666970	0.455101
Br184	Br	0.697299	-0.154981	0.470254
Br185	Br	1.030632	0.178352	0.803587
Br186	Br	1.363965	0.511686	1.136920
H187	H	0.719863	-0.303612	-0.192784
H188	H	1.053197	0.029722	0.140549
H189	H	1.386530	0.363055	0.473883
H190	H	0.939318	0.000330	0.133752
H191	H	1.272652	0.333663	0.467085
H192	H	1.605985	0.666996	0.800418
Br193	Br	-0.008574	0.000453	-0.237155
Br194	Br	0.324759	0.333787	0.096178
Br195	Br	0.658092	0.667120	0.429511
H196	H	0.920600	-0.695699	0.007845
H197	H	1.253934	-0.362365	0.341178
H198	H	1.587267	-0.029032	0.674511
H199	H	0.462576	0.000324	-0.209636
H200	H	0.795910	0.333657	0.123697
H201	H	1.129243	0.666991	0.457030
Br202	Br	0.031396	0.000389	0.061276
Br203	Br	0.364729	0.333722	0.394609
Br204	Br	0.698062	0.667056	0.727942
H205	H	0.932770	0.000388	0.580641
H206	H	1.266103	0.333721	0.913974
H207	H	1.599436	0.667055	1.247307
H208	H	0.403429	0.119840	0.000207
H209	H	0.736762	0.453173	0.333540
H210	H	1.070095	0.786507	0.666874
Br211	Br	0.940658	0.155665	0.515552
Br212	Br	1.273992	0.488999	0.848885
Br213	Br	1.607325	0.822332	1.182218
Br214	Br	0.212137	-0.154882	-0.212888
Br215	Br	0.545471	0.178451	0.120446
Br216	Br	0.878804	0.511784	0.453779
H217	H	0.701140	0.000343	0.681304
H218	H	1.034473	0.333677	1.014637
H219	H	1.367806	0.667010	1.347971
Br220	Br	0.971468	0.000368	0.289452
Br221	Br	1.304802	0.333701	0.622785
Br222	Br	1.638135	0.667035	0.956119
H223	H	0.368461	-0.119164	-0.187084
H224	H	0.701794	0.214169	0.146250
H225	H	1.035127	0.547502	0.479583
Br226	Br	0.257571	0.155649	0.030439
Br227	Br	0.590905	0.488982	0.363773
Br228	Br	0.924238	0.822316	0.697106
H229	H	0.177883	0.000366	0.024691
H230	H	0.511217	0.333700	0.358024
H231	H	0.844550	0.667033	0.691358
H232	H	0.493335	0.000290	0.020058
H233	H	0.826669	0.333623	0.353391
H234	H	1.160002	0.666956	0.686724
Br235	Br	0.721436	-0.727949	-0.191212
Br236	Br	1.054769	-0.394616	0.142122
Br237	Br	1.388102	-0.061282	0.475455
H238	H	0.891782	-0.303527	-0.020951
H239	H	1.225115	0.029807	0.312382
H240	H	1.558449	0.363140	0.645715
H241	H	0.914850	0.119867	0.359241
H242	H	1.248184	0.453201	0.692574
H243	H	1.581517	0.786534	1.025908
Br244	Br	0.668987	0.000318	0.525602
Br245	Br	1.002320	0.333651	0.858935
Br246	Br	1.335654	0.666985	1.192268
Br247	Br	0.682460	-0.550462	-0.230172
Br248	Br	1.015794	-0.217128	0.103162
Br249	Br	1.349127	0.116205	0.436495
H250	H	0.930842	0.000424	0.712069
H251	H	1.264176	0.333757	1.045402
H252	H	1.597509	0.667090	1.378735
H253	H	0.930762	-0.481010	0.018002
H254	H	1.264095	-0.147677	0.351335
H255	H	1.597429	0.185656	0.684669
H256	H	0.727535	-0.119228	0.324378
H257	H	1.060869	0.214106	0.657711
H258	H	1.394202	0.547439	0.991045
Br259	Br	0.673035	0.000287	0.249473
Br260	Br	1.006368	0.333621	0.582807
Br261	Br	1.339702	0.666954	0.916140
H262	H	0.147120	0.000411	-0.205009
H263	H	0.480454	0.333744	0.128324
H264	H	0.813787	0.667078	0.461658
Br265	Br	0.649037	0.000203	0.052210
Br266	Br	0.982370	0.333537	0.385544
Br267	Br	1.315704	0.666870	0.718877
H268	H	0.709613	0.000283	0.102980
H269	H	1.042946	0.333616	0.436313
H270	H	1.376279	0.666950	0.769647
