data_functionalizedCrystal
_audit_creation_method	'MofGen! by Chris Wilmer'
_symmetry_space_group_name_H-M	'P1'
_symmetry_Int_Tables_number	1
_symmetry_cell_setting	triclinic
loop_
_symmetry_equiv_pos_as_xyz
  x,y,z
_cell_length_a	15.995343
_cell_length_b	15.072220
_cell_length_c	14.044220
_cell_angle_alpha	90.001345
_cell_angle_beta	88.339031
_cell_angle_gamma	90.008177
loop_
_atom_site_label
_atom_site_type_symbol
_atom_site_fract_x
_atom_site_fract_y
_atom_site_fract_z
O1	O	1.120122	0.073695	0.122138
O2	O	0.877474	0.073717	0.137233
O3	O	0.995156	0.073698	-0.008299
O4	O	1.002440	0.073714	0.267670
O5	O	0.995125	-0.073868	-0.008291
O6	O	0.877442	-0.073848	0.137241
O7	O	1.120091	-0.073870	0.122146
Zn8	Zn	0.998762	-0.097288	0.129695
Zn9	Zn	0.998803	0.097135	0.129684
O10	O	1.002409	-0.073851	0.267678
C11	C	0.846217	-0.000063	0.136615
C12	C	0.753126	-0.000055	0.134748
C13	C	0.582687	-0.000067	0.131359
C14	C	0.551495	-0.000073	0.026307
C15	C	0.454669	-0.000414	0.024330
C16	C	0.414878	-0.000078	0.128021
C17	C	0.447897	-0.084174	0.180847
C18	C	0.544782	-0.084239	0.182093
C19	C	0.544843	0.083576	0.183622
C20	C	0.448059	0.084676	0.179744
C21	C	0.320039	-0.000087	0.126140
C22	C	0.677526	-0.000064	0.133243
N23	N	0.998740	-0.229977	0.129702
C24	C	0.998801	-0.589179	0.129681
C25	C	0.935581	-0.551561	0.207291
C26	C	0.935760	-0.448736	0.207574
C27	C	0.998770	-0.410974	0.129691
C28	C	1.087748	-0.448272	0.151290
C29	C	1.087403	-0.551130	0.151842
C30	C	0.973804	-0.551283	0.030241
C31	C	0.971849	-0.448419	0.030905
C32	C	0.998758	-0.310261	0.129695
C33	C	0.998819	-0.689892	0.129679
C34	C	1.151348	-0.000088	0.122765
C35	C	1.244438	-0.000090	0.124632
C36	C	0.991952	-0.000085	-0.043609
C37	C	0.982441	-0.000085	-0.148835
N38	N	0.998831	0.229824	0.129670
C39	C	0.965052	-0.000071	-0.341495
C40	C	1.032509	-0.000074	-0.399131
C41	C	1.022834	-0.000066	-0.506334
C42	C	0.974726	-0.000079	-0.234282
C43	C	1.005613	-0.000066	0.302988
C44	C	1.015124	-0.000060	0.408214
H45	H	0.433146	-0.061055	-0.016821
H46	H	0.425085	-0.147001	0.144608
H47	H	1.136308	-0.576012	0.097543
H48	H	1.019821	-0.575609	-0.027514
H49	H	0.577475	-0.060294	-0.013746
C50	C	0.877226	-0.000070	-0.383596
H51	H	0.882164	-0.000076	-0.451171
H52	H	0.847670	0.051386	-0.362802
H53	H	0.847665	-0.051539	-0.362807
H54	H	0.568854	-0.147346	0.145943
C55	C	0.846292	-0.585013	0.190208
H56	H	0.846766	-0.622226	0.135595
H57	H	0.810465	-0.535815	0.180302
H58	H	0.826564	-0.617660	0.244187
H59	H	1.097526	-0.000020	-0.367962
H60	H	0.432574	0.059857	-0.017022
C61	C	1.029250	-0.413713	-0.050773
H62	H	1.070572	-0.375767	-0.025583
H63	H	0.996910	-0.381602	-0.094777
H64	H	1.055701	-0.462368	-0.082338
H65	H	0.576474	0.060223	-0.014415
H66	H	0.421750	-0.087061	0.257160
C67	C	0.572247	-0.089079	0.286159
H68	H	0.524197	-0.091005	0.327487
H69	H	0.604680	-0.038221	0.300356
H70	H	0.604796	-0.141017	0.294837
H71	H	0.909930	-0.577269	0.009472
C72	C	0.579697	0.169717	0.138845
H73	H	0.556070	0.219383	0.171422
H74	H	0.565744	0.172095	0.073609
H75	H	0.638787	0.170818	0.143891
C76	C	0.419119	0.168726	0.127787
H77	H	0.386944	0.152245	0.074796
H78	H	0.466586	0.201746	0.106232
H79	H	0.385951	0.204033	0.170279
H80	H	1.136223	-0.423811	0.096266
H81	H	0.420754	0.090019	0.255402
C82	C	0.571584	0.084688	0.288075
H83	H	0.605645	0.034456	0.299816
H84	H	0.523309	0.082972	0.329053
H85	H	0.602316	0.137318	0.299786
C86	C	0.846726	-0.414662	0.190258
H87	H	0.846714	-0.351630	0.190422
H88	H	0.809731	-0.435794	0.239302
H89	H	0.828804	-0.435534	0.130370
H90	H	0.952126	-0.577396	0.280668
C91	C	0.958366	-0.415473	0.307257
H92	H	0.967483	-0.464824	0.347734
H93	H	0.913791	-0.380489	0.333011
H94	H	1.007787	-0.380596	0.302524
C95	C	1.115628	-0.583532	0.249807
H96	H	1.115670	-0.646555	0.251006
H97	H	1.078207	-0.561771	0.298100
H98	H	1.170433	-0.562269	0.260747
C99	C	1.116399	-0.413466	0.248143
H100	H	1.074264	-0.376216	0.275540
H101	H	1.166691	-0.380595	0.239208
H102	H	1.125899	-0.462123	0.289442
C103	C	0.883376	-0.415495	0.008758
H104	H	0.862925	-0.379075	0.059493
H105	H	0.847239	-0.464943	0.001776
H106	H	0.885388	-0.382134	-0.048654
