data_functionalizedCrystal
_audit_creation_method	'MofGen! by Chris Wilmer'
_symmetry_space_group_name_H-M	'P1'
_symmetry_Int_Tables_number	1
_symmetry_cell_setting	triclinic
loop_
_symmetry_equiv_pos_as_xyz
  x,y,z
_cell_length_a	13.032831
_cell_length_b	29.839131
_cell_length_c	13.033454
_cell_angle_alpha	82.775327
_cell_angle_beta	89.091650
_cell_angle_gamma	82.845366
loop_
_atom_site_label
_atom_site_type_symbol
_atom_site_fract_x
_atom_site_fract_y
_atom_site_fract_z
Zn1	Zn	1.498351	-0.218109	-0.780800
Zn2	Zn	1.520000	-0.303825	-0.608780
Zn3	Zn	1.348190	-0.220504	-0.587030
Zn4	Zn	1.326279	-0.285000	-0.758920
O5	O	1.423205	-0.256860	-0.683883
O6	O	1.645139	-0.236356	-0.776241
O7	O	1.515439	-0.301653	-0.461967
O8	O	1.368219	-0.157322	-0.612788
O9	O	1.661044	-0.299331	-0.649858
O10	O	1.478542	-0.155563	-0.755150
O11	O	1.389211	-0.240437	-0.445987
O12	O	1.201367	-0.222184	-0.591572
O13	O	1.330875	-0.267246	-0.905751
O14	O	1.185269	-0.269569	-0.717859
O15	O	1.457296	-0.218102	-0.921826
O16	O	1.494192	-0.364192	-0.628642
O17	O	1.351866	-0.350361	-0.738950
C18	C	1.156002	-0.244093	-0.649982
C19	C	1.041689	-0.238641	-0.635503
C20	C	0.982799	-0.259705	-0.691439
C21	C	0.864650	-0.254071	-0.676476
C22	C	1.423026	-0.373577	-0.683808
C23	C	1.423039	-0.423511	-0.683822
C24	C	1.497421	-0.740349	-0.626557
C25	C	1.497543	-0.928025	-0.626613
O26	O	1.560644	-0.958403	-0.577866
N27	N	1.423408	-0.944307	-0.683987
C28	C	1.349242	-0.913666	-0.741357
O29	O	1.286195	-0.931821	-0.790167
C30	C	1.349125	-0.725990	-0.741306
C31	C	1.423259	-0.709712	-0.683920
C32	C	1.571549	-0.724069	-0.569176
C33	C	1.571515	-0.677153	-0.569158
C34	C	1.497352	-0.646516	-0.626521
C35	C	1.423224	-0.662795	-0.683902
C36	C	1.274964	-0.695350	-0.798681
C37	C	1.274943	-0.648429	-0.798665
C38	C	1.349077	-0.632150	-0.741279
C39	C	1.349027	-0.585242	-0.741247
N40	N	1.423162	-0.568960	-0.683873
C41	C	1.497324	-0.599597	-0.626510
C42	C	1.349307	-1.012199	-0.741378
C43	C	1.349335	-1.059118	-0.741389
C44	C	1.497638	-1.073474	-0.626646
C45	C	1.497605	-1.026554	-0.626630
C46	C	1.423442	-0.995918	-0.684004
C47	C	1.497245	-0.501069	-0.626476
C48	C	1.497201	-0.454148	-0.626459
C49	C	1.348902	-0.439796	-0.741206
C50	C	1.348942	-0.486713	-0.741219
C51	C	1.423123	-0.517349	-0.683851
O52	O	1.285966	-0.554839	-0.789978
O53	O	1.560376	-0.581433	-0.577725
C54	C	1.497456	-0.787265	-0.626575
C55	C	1.423328	-0.803545	-0.683955
C56	C	1.349165	-0.772907	-0.741318
C57	C	1.423356	-0.850463	-0.683967
C58	C	1.497519	-0.881100	-0.626604
C59	C	1.571653	-0.864819	-0.569230
C60	C	1.571619	-0.817902	-0.569212
C61	C	1.275030	-0.789189	-0.798693
C62	C	1.275070	-0.836106	-0.798705
C63	C	1.349233	-0.866743	-0.741342
C64	C	1.691451	-0.269676	-0.717916
C65	C	1.805761	-0.275138	-0.732420
C66	C	1.389226	-0.240307	-0.952150
C67	C	1.374747	-0.233254	-1.066470
C68	C	1.423410	-0.139687	-0.683983
C69	C	1.423497	-0.089755	-0.684026
C70	C	1.430746	-0.260397	-1.125344
C71	C	1.415782	-0.253108	-1.243500
C72	C	1.457111	-0.273318	-0.416666
C73	C	1.471789	-0.280255	-0.302372
H74	H	1.004637	-0.216434	-0.576541
H75	H	1.557570	-0.440896	-0.579725
H76	H	1.489772	-0.289031	-1.088275
H77	H	1.356761	-0.224469	-1.280566
H78	H	1.019849	-0.281909	-0.750409
H79	H	1.214552	-0.623486	-0.845389
H80	H	1.631947	-0.749010	-0.522465
H81	H	1.530820	-0.308891	-1.265309
H82	H	0.827602	-0.231862	-0.617510
H83	H	0.842806	-0.297341	-0.791396
H84	H	1.557652	-0.526008	-0.579764
H85	H	1.315729	-0.204617	-1.103541
H86	H	1.557971	-1.013304	-0.579902
H87	H	1.631883	-0.663902	-0.522433
H88	H	1.558024	-1.098427	-0.579940
H89	H	1.288959	-1.072368	-0.788108
H90	H	1.288912	-0.987257	-0.788100
H91	H	1.214592	-0.708596	-0.845406
H92	H	1.288580	-0.499968	-0.787951
H93	H	1.288517	-0.414844	-0.787907
H94	H	1.631985	-0.804652	-0.522483
H95	H	1.632037	-0.889772	-0.522519
H96	H	1.214639	-0.764247	-0.845406
H97	H	1.214693	-0.849355	-0.845434
