data_functionalizedCrystal
_audit_creation_method	'MofGen! by Chris Wilmer'
_symmetry_space_group_name_H-M	'P1'
_symmetry_Int_Tables_number	1
_symmetry_cell_setting	triclinic
loop_
_symmetry_equiv_pos_as_xyz
  x,y,z
_cell_length_a	19.805407
_cell_length_b	12.645330
_cell_length_c	12.645323
_cell_angle_alpha	90.026844
_cell_angle_beta	90.022547
_cell_angle_gamma	90.017692
loop_
_atom_site_label
_atom_site_type_symbol
_atom_site_fract_x
_atom_site_fract_y
_atom_site_fract_z
Zn1	Zn	1.034797	-0.422010	0.599468
Zn2	Zn	1.034723	-0.599304	0.422208
Zn3	Zn	0.921605	-0.422055	0.422210
Zn4	Zn	0.921592	-0.599232	0.599421
O5	O	0.978179	-0.510651	0.510826
O6	O	1.129503	-0.445540	0.575972
O7	O	1.019692	-0.575841	0.273861
O8	O	0.936657	-0.273702	0.445744
O9	O	1.129449	-0.575797	0.445740
O10	O	1.019818	-0.273669	0.575974
O11	O	0.936585	-0.445617	0.273862
O12	O	0.826887	-0.445547	0.445698
O13	O	0.936634	-0.575674	0.747774
O14	O	0.826877	-0.575718	0.575895
O15	O	1.019805	-0.445470	0.747809
O16	O	1.019679	-0.747642	0.445695
O17	O	0.936562	-0.747589	0.575893
C18	C	0.802323	-0.510630	0.510792
C19	C	0.727091	-0.510647	0.510803
C20	C	0.691760	-0.578529	0.578486
C21	C	0.621071	-0.578531	0.578501
C22	C	0.585716	-0.510655	0.510826
C23	C	0.621052	-0.442766	0.443140
C24	C	0.691739	-0.442759	0.443131
C25	C	0.335979	-0.442789	0.443175
C26	C	0.265287	-0.442803	0.443187
C27	C	0.265311	-0.578561	0.578545
C28	C	0.335998	-0.578555	0.578536
C29	C	0.371328	-0.510661	0.510854
C30	C	0.447977	-0.510659	0.510840
C31	C	0.509068	-0.510663	0.510834
C32	C	0.978130	-0.786080	0.510812
C33	C	0.978171	-0.903910	0.510841
C34	C	0.926097	-1.071485	0.593001
C35	C	0.925831	-0.948926	0.592737
C36	C	0.958861	-0.948508	0.399118
C37	C	0.958543	-1.071107	0.399617
C38	C	1.049872	-1.070999	0.539497
C39	C	1.049433	-0.948392	0.541940
C40	C	1.154722	-0.510672	0.510861
C41	C	1.229954	-0.510681	0.510876
C42	C	0.978226	-0.510559	0.787332
C43	C	0.978246	-0.510520	0.905162
C44	C	0.978247	-0.234145	0.510865
C45	C	0.978276	-0.116315	0.510881
C46	C	0.978171	-0.510665	0.235397
C47	C	0.978282	-0.510406	0.117567
C48	C	0.925927	-0.592415	0.950022
C49	C	0.925742	-0.592107	1.072582
C50	C	0.959175	-0.398622	1.073064
C51	C	0.958775	-0.399162	0.950465
C52	C	1.049812	-0.539408	0.950354
C53	C	1.049450	-0.541806	1.072961
H54	H	0.236502	-0.387524	0.388078
O55	O	0.582930	-0.369551	0.370140
H56	H	0.596483	-0.387631	0.286913
O57	O	0.374082	-0.369599	0.370146
H58	H	0.337619	-0.322423	0.323073
H59	H	0.994898	-1.100766	0.336345
H60	H	0.720505	-0.387477	0.388022
O61	O	0.941818	-0.909005	0.702485
H62	H	0.988300	-0.860020	0.699897
H63	H	0.872723	-0.572927	1.101907
O64	O	0.856078	-0.567362	0.909226
H65	H	0.858463	-0.496835	0.857140
O66	O	0.941950	-1.110440	0.703097
H67	H	0.904469	-1.077755	0.759558
O68	O	0.856223	-1.112394	0.568209
H69	H	0.858496	-1.164516	0.497653
O70	O	0.890665	-0.365629	1.113713
H71	H	0.856013	-0.352945	1.045891
O72	O	0.729887	-0.651724	0.651501
H73	H	0.784977	-0.640318	0.640127
H74	H	1.063995	-0.919238	0.624162
H75	H	0.872753	-0.919692	0.573778
O76	O	0.889217	-1.109127	0.367517
H77	H	0.856234	-1.039947	0.351789
O78	O	1.008117	-0.315534	1.111649
H79	H	1.006887	-0.312459	1.199350
H80	H	1.067240	-0.619572	0.919440
O81	O	1.068551	-0.650774	1.111491
H82	H	1.027535	-0.682445	1.162205
O83	O	1.073203	-1.111839	0.645582
H84	H	1.123783	-1.078749	0.663940
O85	O	1.007598	-0.909890	0.315844
H86	H	1.046191	-0.858373	0.353291
H87	H	0.907069	-0.917898	0.374439
O88	O	1.103841	-0.468542	1.113491
H89	H	1.080896	-0.408333	1.166293
H90	H	1.088746	-1.099989	0.479686
O91	O	0.582961	-0.651949	0.651298
H92	H	0.619421	-0.699228	0.698271
O93	O	0.941528	-0.701890	1.112454
H94	H	0.949361	-0.755681	1.044169
H95	H	1.090356	-0.917743	0.486484
O96	O	0.374133	-0.651756	0.651533
H97	H	0.337689	-0.698952	0.698611
H98	H	0.937704	-0.675586	0.920546
O99	O	0.889494	-0.366777	0.912574
H100	H	0.851390	-0.423529	0.942925
O101	O	1.007069	-0.315553	0.911136
H102	H	0.990805	-0.236914	0.940661
O103	O	0.227206	-0.651781	0.651562
H104	H	0.172113	-0.640377	0.640214
O105	O	1.101453	-0.460417	0.911918
H106	H	1.076313	-0.400868	0.860875
