data_functionalizedCrystal
_audit_creation_method	'MofGen! by Chris Wilmer'
_symmetry_space_group_name_H-M	'P1'
_symmetry_Int_Tables_number	1
_symmetry_cell_setting	triclinic
loop_
_symmetry_equiv_pos_as_xyz
  x,y,z
_cell_length_a	12.759401
_cell_length_b	21.295417
_cell_length_c	12.759393
_cell_angle_alpha	89.960780
_cell_angle_beta	89.980163
_cell_angle_gamma	90.032032
loop_
_atom_site_label
_atom_site_type_symbol
_atom_site_fract_x
_atom_site_fract_y
_atom_site_fract_z
Zn1	Zn	1.606140	-0.250546	-0.593965
Zn2	Zn	1.605986	-0.355830	-0.418261
Zn3	Zn	1.430442	-0.250582	-0.418300
Zn4	Zn	1.430382	-0.355784	-0.593899
O5	O	1.518237	-0.303186	-0.506106
O6	O	1.753140	-0.264517	-0.570669
O7	O	1.582660	-0.341903	-0.271245
O8	O	1.453838	-0.162488	-0.441646
O9	O	1.753027	-0.341869	-0.441580
O10	O	1.582922	-0.162461	-0.570706
O11	O	1.453689	-0.264577	-0.271274
O12	O	1.283413	-0.264533	-0.441582
O13	O	1.453736	-0.341790	-0.740929
O14	O	1.283369	-0.341825	-0.570594
O15	O	1.582864	-0.264472	-0.740977
O16	O	1.582602	-0.443914	-0.441516
O17	O	1.453586	-0.443880	-0.570556
C18	C	1.245270	-0.303178	-0.506085
C19	C	1.128493	-0.303190	-0.506101
C20	C	1.073636	-0.343497	-0.573172
C21	C	0.963912	-0.343499	-0.573193
C22	C	0.963912	-0.262886	-0.439063
C23	C	1.073634	-0.262881	-0.439048
C24	C	1.518099	-0.466737	-0.506048
C25	C	1.518137	-0.536705	-0.506058
C26	C	1.585375	-0.569569	-0.438936
C27	C	1.585424	-0.635311	-0.438960
C28	C	1.518216	-0.668188	-0.506094
C29	C	1.450974	-0.635317	-0.573230
C30	C	1.450934	-0.569575	-0.573212
N31	N	1.426309	-0.771454	-0.514097
N32	N	1.426350	-0.833906	-0.514108
C33	C	1.518334	-0.866262	-0.506155
N34	N	1.610278	-0.833808	-0.498169
N35	N	1.610236	-0.771351	-0.498153
C36	C	1.518253	-0.739473	-0.506122
C37	C	1.585631	-0.970411	-0.439054
C38	C	1.585682	-1.036155	-0.439085
C39	C	1.451222	-1.036159	-0.573350
C40	C	1.451181	-0.970417	-0.573325
C41	C	1.518384	-0.937547	-0.506171
C42	C	1.792270	-0.303194	-0.506128
C43	C	1.909047	-0.303197	-0.506137
C44	C	1.518311	-0.303122	-0.780140
C45	C	1.518342	-0.303095	-0.896916
C46	C	1.518404	-0.138995	-0.506188
C47	C	1.518475	-0.069027	-0.506222
C48	C	1.451211	-0.262824	-0.951793
C49	C	1.451235	-0.262805	-1.061517
C50	C	1.585531	-0.343329	-1.061479
C51	C	1.585500	-0.343351	-0.951757
C52	C	1.518225	-0.303204	-0.233139
C53	C	1.518397	-0.303053	-0.116363
H54	H	0.919252	-0.376320	-0.627810
C55	C	1.659379	-0.671471	-0.365110
C56	C	1.733294	-0.635316	-0.291242
C57	C	1.807245	-0.671474	-0.217390
C58	C	1.807281	-0.743787	-0.217405
C59	C	1.733363	-0.779946	-0.291276
C60	C	1.659412	-0.743788	-0.365129
H61	H	1.733270	-0.581782	-0.291228
H62	H	1.861964	-0.644706	-0.162706
H63	H	1.862023	-0.770553	-0.162735
H64	H	1.733387	-0.833480	-0.291290
H65	H	1.604693	-0.770556	-0.419813
C66	C	1.377330	-0.218549	-0.891466
C67	C	1.422880	-0.169142	-0.816069
C68	C	1.348994	-0.124868	-0.755746
C69	C	1.229557	-0.130001	-0.770821
C70	C	1.184000	-0.179411	-0.846221
C71	C	1.257887	-0.223685	-0.906544
H72	H	1.511300	-0.165340	-0.804907
H73	H	1.382719	-0.088292	-0.699929
H74	H	1.174862	-0.097227	-0.726166
H75	H	1.095581	-0.183212	-0.857383
H76	H	1.224162	-0.260261	-0.962361
C77	C	1.659403	-0.387613	-1.121797
C78	C	1.778841	-0.382495	-1.106717
C79	C	1.852713	-0.426783	-1.167028
C80	C	1.807147	-0.476189	-1.242420
C81	C	1.687703	-0.481308	-1.257504
C82	C	1.613831	-0.437020	-1.197192
H83	H	1.812577	-0.345921	-1.050904
H84	H	1.941133	-0.422993	-1.155862
H85	H	1.861832	-0.508973	-1.287066
H86	H	1.653967	-0.517883	-1.313316
H87	H	1.525410	-0.440810	-1.208359
C88	C	1.133988	-0.218542	-0.365265
C89	C	1.209364	-0.245759	-0.282693
C90	C	1.269720	-0.201420	-0.208917
C91	C	1.254701	-0.129865	-0.217713
C92	C	1.179322	-0.102644	-0.300288
C93	C	1.118966	-0.146983	-0.374064
H94	H	1.220485	-0.298731	-0.276178
H95	H	1.325520	-0.221571	-0.147789
H96	H	1.299380	-0.097043	-0.163099
H97	H	1.168200	-0.049672	-0.306803
H98	H	1.063165	-0.126832	-0.435192
H99	H	1.640098	-0.542808	-0.384258
C100	C	1.659351	-0.387651	-0.891384
C101	C	1.733232	-0.431926	-0.951701
C102	C	1.807075	-0.476226	-0.891328
C103	C	1.807036	-0.476251	-0.770638
C104	C	1.733152	-0.431975	-0.710314
C105	C	1.659309	-0.387675	-0.770687
H106	H	1.733263	-0.431908	-1.041049
H107	H	1.861769	-0.509002	-0.935985
H108	H	1.861699	-0.509045	-0.725947
H109	H	1.733121	-0.431993	-0.620966
H110	H	1.604615	-0.354899	-0.726031
H111	H	1.118299	-0.376318	-0.627773
H112	H	1.396569	-0.230013	-1.106192
H113	H	1.396180	-0.542817	-0.627872
H114	H	1.396255	-0.662089	-0.627893
C115	C	0.903564	-0.218553	-0.365299
C116	C	0.782875	-0.218559	-0.365306
C117	C	0.722530	-0.174226	-0.291537
C118	C	0.782875	-0.129888	-0.217761
C119	C	0.903571	-0.129880	-0.217752
C120	C	0.963916	-0.174213	-0.291521
H121	H	0.738197	-0.251382	-0.419922
H122	H	0.633182	-0.174232	-0.291545
H123	H	0.738204	-0.097070	-0.163153
H124	H	0.948249	-0.097057	-0.163136
H125	H	1.053264	-0.174207	-0.291513
H126	H	1.640355	-0.943648	-0.384377
C127	C	1.377211	-0.934263	-0.647155
C128	C	1.303285	-0.970421	-0.721008
C129	C	1.229316	-0.934267	-0.794847
C130	C	1.229272	-0.861955	-0.794834
C131	C	1.303201	-0.825792	-0.720978
C132	C	1.377170	-0.861946	-0.647139
H133	H	1.303315	-1.023955	-0.721020
H134	H	1.174589	-0.961038	-0.849519
H135	H	1.174516	-0.835191	-0.849494
H136	H	1.303171	-0.772258	-0.720966
H137	H	1.431897	-0.835175	-0.592467
H138	H	1.640442	-1.062911	-0.384429
H139	H	1.396505	-1.062927	-0.628017
