data_functionalizedCrystal
_audit_creation_method	'MofGen! by Chris Wilmer'
_symmetry_space_group_name_H-M	'P1'
_symmetry_Int_Tables_number	1
_symmetry_cell_setting	triclinic
loop_
_symmetry_equiv_pos_as_xyz
  x,y,z
_cell_length_a	25.639242
_cell_length_b	25.639239
_cell_length_c	21.395355
_cell_angle_alpha	89.980666
_cell_angle_beta	89.966687
_cell_angle_gamma	90.034213
loop_
_atom_site_label
_atom_site_type_symbol
_atom_site_fract_x
_atom_site_fract_y
_atom_site_fract_z
Zn1	Zn	0.799283	-0.208274	-0.354404
Zn2	Zn	1.132616	0.125060	-0.021071
Zn3	Zn	1.465949	0.458393	0.312262
Zn4	Zn	0.799189	-0.295693	-0.249625
Zn5	Zn	1.132522	0.037640	0.083708
Zn6	Zn	1.465856	0.370973	0.417041
Zn7	Zn	0.711842	-0.208267	-0.249625
Zn8	Zn	1.045175	0.125066	0.083708
Zn9	Zn	1.378509	0.458400	0.417042
Zn10	Zn	0.711804	-0.295673	-0.354349
Zn11	Zn	1.045137	0.037660	-0.021016
Zn12	Zn	1.378471	0.370994	0.312317
O13	O	0.755529	-0.251977	-0.302001
O14	O	1.088863	0.081357	0.031332
O15	O	1.422196	0.414690	0.364666
O16	O	0.872435	-0.219881	-0.340528
O17	O	1.205769	0.113452	-0.007195
O18	O	1.539102	0.446785	0.326139
O19	O	0.787579	-0.284102	-0.161947
O20	O	1.120912	0.049232	0.171386
O21	O	1.454246	0.382565	0.504719
O22	O	0.723496	-0.135103	-0.263547
O23	O	1.056829	0.198231	0.069786
O24	O	1.390163	0.531564	0.403120
O25	O	0.872367	-0.284108	-0.263547
O26	O	1.205700	0.049225	0.069786
O27	O	1.539033	0.382558	0.403119
O28	O	0.787738	-0.135108	-0.340528
O29	O	1.121072	0.198226	-0.007195
O30	O	1.454405	0.531559	0.326139
O31	O	0.723405	-0.219870	-0.161947
O32	O	1.056739	0.113463	0.171386
O33	O	1.390072	0.446797	0.504720
O34	O	0.638672	-0.219850	-0.263494
O35	O	0.972005	0.113483	0.069840
O36	O	1.305338	0.446816	0.403173
O37	O	0.723432	-0.284074	-0.442035
O38	O	1.056765	0.049260	-0.108701
O39	O	1.390098	0.382593	0.224632
O40	O	0.638644	-0.284067	-0.340434
O41	O	0.971977	0.049266	-0.007101
O42	O	1.305310	0.382599	0.326232
O43	O	0.787702	-0.219862	-0.442075
O44	O	1.121035	0.113472	-0.108742
O45	O	1.454368	0.446805	0.224592
O46	O	0.787542	-0.368856	-0.263494
O47	O	1.120876	-0.035523	0.069839
O48	O	1.454209	0.297811	0.403172
O49	O	0.723341	-0.368841	-0.340435
O50	O	1.056674	-0.035508	-0.007101
O51	O	1.390007	0.297826	0.326232
C52	C	0.619687	-0.251956	-0.301959
C53	C	0.953020	0.081377	0.031375
C54	C	1.286353	0.414710	0.364708
C55	C	0.561573	-0.251960	-0.301955
C56	C	0.894906	0.081373	0.031378
C57	C	1.228239	0.414707	0.364711
C58	C	0.201204	-0.285470	-0.342026
C59	C	0.534537	0.047863	-0.008693
C60	C	0.867871	0.381196	0.324641
C61	C	0.146600	-0.285474	-0.342036
C62	C	0.479933	0.047860	-0.008703
C63	C	0.813266	0.381193	0.324631
O64	O	0.118358	-0.313940	-0.376070
O65	O	0.451692	0.019394	-0.042736
O66	O	0.785025	0.352727	0.290597
N67	N	0.119290	-0.251991	-0.302042
N68	N	0.452624	0.081342	0.031291
N69	N	0.785957	0.414675	0.364625
C70	C	0.146588	-0.218500	-0.262040
C71	C	0.479921	0.114834	0.071294
C72	C	0.813255	0.448167	0.404627
O73	O	0.118345	-0.190020	-0.228023
O74	O	0.451678	0.143313	0.105310
O75	O	0.785012	0.476646	0.438644
C76	C	0.201191	-0.218494	-0.262034
C77	C	0.534525	0.114839	0.071300
C78	C	0.867858	0.448172	0.404633
C79	C	0.228498	-0.251983	-0.302026
C80	C	0.561831	0.081351	0.031308
C81	C	0.895165	0.414684	0.364641
C82	C	0.228511	-0.318956	-0.382015
C83	C	0.561844	0.014378	-0.048682
C84	C	0.895177	0.347711	0.284651
C85	C	0.283111	-0.318953	-0.382004
C86	C	0.616445	0.014380	-0.048671
C87	C	0.949778	0.347714	0.284662
C88	C	0.310405	-0.285465	-0.342004
C89	C	0.643739	0.047868	-0.008671
C90	C	0.977072	0.381202	0.324662
C91	C	0.283098	-0.251980	-0.302015
C92	C	0.616432	0.081353	0.031318
C93	C	0.949765	0.414687	0.364652
C94	C	0.228488	-0.185000	-0.222035
C95	C	0.561821	0.148333	0.111298
C96	C	0.895155	0.481666	0.444631
C97	C	0.283095	-0.184998	-0.222033
C98	C	0.616428	0.148336	0.111301
C99	C	0.949762	0.481669	0.444634
C100	C	0.310402	-0.218486	-0.262025
C101	C	0.643735	0.114847	0.071308
C102	C	0.977068	0.448181	0.404642
C103	C	0.364993	-0.218489	-0.262004
C104	C	0.698326	0.114844	0.071330
C105	C	1.031660	0.448177	0.404663
N106	N	0.392302	-0.251972	-0.301998
N107	N	0.725636	0.081361	0.031336
N108	N	1.058969	0.414695	0.364669
C109	C	0.365008	-0.285460	-0.341998
C110	C	0.698342	0.047874	-0.008665
C111	C	1.031675	0.381207	0.324669
C112	C	0.031917	-0.218513	-0.262057
C113	C	0.365251	0.114820	0.071277
C114	C	0.698584	0.448154	0.404610
C115	C	-0.022685	-0.218521	-0.262059
C116	C	0.310648	0.114813	0.071274
C117	C	0.643982	0.448146	0.404607
C118	C	-0.022669	-0.285494	-0.342056
C119	C	0.310664	0.047839	-0.008723
C120	C	0.643997	0.381173	0.324610
C121	C	0.031934	-0.285489	-0.342050
C122	C	0.365267	0.047845	-0.008717
C123	C	0.698601	0.381178	0.324616
C124	C	0.059227	-0.251995	-0.302051
C125	C	0.392560	0.081338	0.031283
C126	C	0.725893	0.414671	0.364616
C127	C	0.479674	-0.285452	-0.341972
C128	C	0.813007	0.047881	-0.008638
C129	C	1.146340	0.381215	0.324695
C130	C	0.534279	-0.285448	-0.341955
C131	C	0.867612	0.047885	-0.008622
C132	C	1.200946	0.381219	0.324711
C133	C	0.534259	-0.218473	-0.261961
C134	C	0.867592	0.114861	0.071372
C135	C	1.200925	0.448194	0.404706
C136	C	0.479658	-0.218479	-0.261975
C137	C	0.812991	0.114855	0.071359
C138	C	1.146325	0.448188	0.404692
C139	C	0.452367	-0.251970	-0.301985
C140	C	0.785700	0.081363	0.031348
C141	C	1.119033	0.414697	0.364682
O142	O	0.393269	-0.190036	-0.227989
O143	O	0.726602	0.143297	0.105344
O144	O	1.059936	0.476630	0.438677
O145	O	0.393258	-0.313930	-0.376015
O146	O	0.726591	0.019404	-0.042681
O147	O	1.059925	0.352737	0.290652
C148	C	0.755441	-0.387819	-0.301972
C149	C	1.088775	-0.054486	0.031361
C150	C	1.422108	0.278847	0.364694
C151	C	0.755452	-0.445933	-0.301981
C152	C	1.088785	-0.112600	0.031352
C153	C	1.422118	0.220733	0.364686
C154	C	0.789046	-0.806292	-0.262006
C155	C	1.122380	-0.472958	0.071327
C156	C	1.455713	-0.139625	0.404660
C157	C	0.789067	-0.860896	-0.262015
C158	C	1.122400	-0.527563	0.071319
C159	C	1.455733	-0.194229	0.404652
O160	O	0.817539	-0.889129	-0.227996
O161	O	1.150872	-0.555795	0.105338
O162	O	1.484205	-0.222462	0.438671
N163	N	0.755621	-0.888216	-0.302043
N164	N	1.088955	-0.554883	0.031291
N165	N	1.422288	-0.221549	0.364624
C166	C	0.722157	-0.860929	-0.342069
C167	C	1.055491	-0.527595	-0.008736
C168	C	1.388824	-0.194262	0.324598
O169	O	0.693712	-0.889180	-0.376117
O170	O	1.027045	-0.555847	-0.042783
O171	O	1.360378	-0.222514	0.290550
C172	C	0.722140	-0.806325	-0.342063
C173	C	1.055473	-0.472992	-0.008730
C174	C	1.388807	-0.139659	0.324603
C175	C	0.755584	-0.779008	-0.302028
C176	C	1.088917	-0.445675	0.031305
C177	C	1.422250	-0.112342	0.364638
C178	C	0.822488	-0.778975	-0.221975
C179	C	1.155821	-0.445641	0.111358
C180	C	1.489154	-0.112308	0.444691
C181	C	0.822467	-0.724374	-0.221966
C182	C	1.155800	-0.391041	0.111367
C183	C	1.489133	-0.057707	0.444700
C184	C	0.789004	-0.697091	-0.261988
C185	C	1.122337	-0.363757	0.071345
C186	C	1.455671	-0.030424	0.404678
C187	C	0.755563	-0.724408	-0.302019
C188	C	1.088896	-0.391074	0.031314
C189	C	1.422229	-0.057741	0.364647
C190	C	0.688679	-0.779039	-0.382092
C191	C	1.022012	-0.445706	-0.048759
C192	C	1.355346	-0.112372	0.284574
C193	C	0.688665	-0.724432	-0.382084
C194	C	1.021998	-0.391099	-0.048750
C195	C	1.355332	-0.057765	0.284583
C196	C	0.722109	-0.697115	-0.342049
C197	C	1.055442	-0.363782	-0.008715
C198	C	1.388775	-0.030448	0.324618
C199	C	0.722079	-0.642524	-0.342032
C200	C	1.055412	-0.309190	-0.008699
C201	C	1.388746	0.024143	0.324634
N202	N	0.755524	-0.615204	-0.302005
N203	N	1.088858	-0.281871	0.031329
N204	N	1.422191	0.051463	0.364662
C205	C	0.788987	-0.642487	-0.261983
C206	C	1.122320	-0.309154	0.071351
C207	C	1.455654	0.024179	0.404684
C208	C	0.722197	-0.975599	-0.342079
C209	C	1.055530	-0.642266	-0.008745
C210	C	1.388863	-0.308933	0.324588
C211	C	0.722211	-1.030202	-0.342082
C212	C	1.055544	-0.696868	-0.008748
C213	C	1.388878	-0.363535	0.324585
C214	C	0.789121	-1.030165	-0.262028
C215	C	1.122454	-0.696832	0.071305
C216	C	1.455788	-0.363498	0.404639
C217	C	0.789104	-0.975562	-0.262022
C218	C	1.122437	-0.642228	0.071311
C219	C	1.455770	-0.308895	0.404644
C220	C	0.755642	-0.948279	-0.302051
C221	C	1.088975	-0.614946	0.031282
C222	C	1.422309	-0.281613	0.364616
C223	C	0.788940	-0.527822	-0.261966
C224	C	1.122273	-0.194489	0.071367
C225	C	1.455606	0.138844	0.404700
C226	C	0.788914	-0.473217	-0.261959
C227	C	1.122248	-0.139884	0.071374
C228	C	1.455581	0.193450	0.404708
C229	C	0.722006	-0.473258	-0.342014
C230	C	1.055340	-0.139925	-0.008681
C231	C	1.388673	0.193409	0.324652
C232	C	0.722030	-0.527859	-0.342020
C233	C	1.055363	-0.194525	-0.008686
C234	C	1.388696	0.138808	0.324647
C235	C	0.755501	-0.555139	-0.301994
C236	C	1.088834	-0.221806	0.031340
C237	C	1.422167	0.111527	0.364673
O238	O	0.693623	-0.614256	-0.376036
O239	O	1.026956	-0.280923	-0.042703
O240	O	1.360290	0.052410	0.290631
O241	O	0.817433	-0.614229	-0.227946
O242	O	1.150766	-0.280896	0.105387
O243	O	1.484099	0.052438	0.438720
C244	C	0.891902	-0.251998	-0.302044
C245	C	1.225236	0.081335	0.031289
C246	C	1.558569	0.414669	0.364623
C247	C	0.950016	-0.252007	-0.302062
C248	C	1.283350	0.081326	0.031271
C249	C	1.616683	0.414660	0.364604
C250	C	0.755573	-0.251966	-0.465424
C251	C	1.088906	0.081367	-0.132091
C252	C	1.422239	0.414700	0.201242
C253	C	0.755591	-0.251962	-0.535066
C254	C	1.088925	0.081372	-0.201732
C255	C	1.422258	0.414705	0.131601
C256	C	0.755632	-0.115604	-0.302044
C257	C	1.088965	0.217730	0.031290
C258	C	1.422299	0.551063	0.364623
C259	C	0.755676	-0.057490	-0.302062
C260	C	1.089009	0.275844	0.031272
C261	C	1.422342	0.609177	0.364605
C262	C	0.789055	-0.218525	-0.567801
C263	C	1.122389	0.114808	-0.234467
C264	C	1.455722	0.448142	0.098866
C265	C	0.789055	-0.218503	-0.633236
C266	C	1.122388	0.114831	-0.299903
C267	C	1.455721	0.448164	0.033431
C268	C	0.755595	-0.251926	-0.665934
C269	C	1.088929	0.081407	-0.332601
C270	C	1.422262	0.414741	0.000733
C271	C	0.722125	-0.285365	-0.633191
C272	C	1.055458	0.047968	-0.299858
C273	C	1.388792	0.381302	0.033476
C274	C	0.722123	-0.285383	-0.567757
C275	C	1.055456	0.047951	-0.234423
C276	C	1.388789	0.381284	0.098910
C277	C	0.751437	-0.299003	-0.769598
C278	C	1.084770	0.034330	-0.436265
C279	C	1.418103	0.367664	-0.102931
C280	C	0.751442	-0.298986	-0.835031
C281	C	1.084776	0.034347	-0.501698
C282	C	1.418109	0.367681	-0.168364
C283	C	0.755599	-0.251871	-0.867755
C284	C	1.088932	0.081462	-0.534422
C285	C	1.422265	0.414796	-0.201088
C286	C	0.759760	-0.204771	-0.835038
C287	C	1.093094	0.128562	-0.501704
C288	C	1.426427	0.461896	-0.168371
C289	C	0.759758	-0.204789	-0.769604
C290	C	1.093092	0.128544	-0.436270
C291	C	1.426425	0.461878	-0.102937
C292	C	0.755594	-0.251910	-0.736886
C293	C	1.088927	0.081423	-0.403553
C294	C	1.422260	0.414756	-0.070220
C295	C	0.789064	-0.218407	-0.971443
C296	C	1.122397	0.114926	-0.638109
C297	C	1.455730	0.448260	-0.304776
C298	C	0.789059	-0.218384	-1.036879
C299	C	1.122393	0.114950	-0.703546
C300	C	1.455726	0.448283	-0.370213
C301	C	0.722132	-0.285251	-1.036833
C302	C	1.055466	0.048083	-0.703499
C303	C	1.388799	0.381416	-0.370166
C304	C	0.722134	-0.285269	-0.971397
C305	C	1.055467	0.048064	-0.638064
C306	C	1.388801	0.381397	-0.304731
C307	C	0.755602	-0.251848	-0.938706
C308	C	1.088936	0.081485	-0.605373
C309	C	1.422269	0.414818	-0.272040
C310	C	0.755516	-0.251950	-0.139213
C311	C	1.088850	0.081384	0.194120
C312	C	1.422183	0.414717	0.527453
C313	C	0.755599	-0.251807	-0.069573
C314	C	1.088932	0.081526	0.263761
C315	C	1.422266	0.414860	0.597094
H316	H	0.305340	-0.346222	-0.414572
H317	H	0.638673	-0.012888	-0.081238
H318	H	0.972006	0.320445	0.252095
H319	H	0.661443	-0.801271	-0.414690
H320	H	0.994776	-0.467938	-0.081357
H321	H	1.328110	-0.134605	0.251977
H322	H	0.694944	-0.953388	-0.374673
H323	H	1.028277	-0.620055	-0.041339
H324	H	1.361610	-0.286722	0.291994
H325	H	0.206294	-0.346226	-0.414592
H326	H	0.539627	-0.012892	-0.081258
H327	H	0.872961	0.320441	0.252075
H328	H	0.816313	-0.191191	-0.944824
H329	H	1.149646	0.142143	-0.611491
H330	H	1.482979	0.475476	-0.278157
H331	H	0.816370	-1.052389	-0.229442
H332	H	1.149703	-0.719056	0.103891
H333	H	1.483037	-0.385722	0.437225
H334	H	0.206264	-0.157732	-0.189468
H335	H	0.539598	0.175601	0.143866
H336	H	0.872931	0.508935	0.477199
H337	H	0.816148	-0.450977	-0.229356
H338	H	1.149481	-0.117644	0.103978
H339	H	1.482815	0.215690	0.437311
H340	H	0.054136	-0.191239	-0.229480
H341	H	0.387469	0.142094	0.103853
H342	H	0.720803	0.475427	0.437187
H343	H	0.054163	-0.312757	-0.374616
H344	H	0.387497	0.020576	-0.041283
H345	H	0.720830	0.353910	0.292050
H346	H	0.694884	-0.312459	-1.063455
H347	H	1.028217	0.020874	-0.730121
H348	H	1.361550	0.354207	-0.396788
H349	H	0.694973	-1.052439	-0.374676
H350	H	1.028306	-0.719105	-0.041343
H351	H	1.361639	-0.385772	0.291991
H352	H	0.305314	-0.157720	-0.189463
H353	H	0.638647	0.175614	0.143870
H354	H	0.971981	0.508947	0.477203
H355	H	0.816196	-0.550028	-0.229375
H356	H	1.149530	-0.216694	0.103959
H357	H	1.482863	0.116639	0.437292
H358	H	0.457424	-0.191211	-0.229409
H359	H	0.790757	0.142123	0.103925
H360	H	1.124090	0.475456	0.437258
H361	H	0.556491	-0.191209	-0.229392
H362	H	0.889824	0.142124	0.103941
H363	H	1.223158	0.475457	0.437275
H364	H	0.849701	-0.702136	-0.189368
H365	H	1.183034	-0.368802	0.143965
H366	H	1.516368	-0.035469	0.477298
H367	H	0.457460	-0.312723	-0.374553
H368	H	0.790793	0.020611	-0.041220
H369	H	1.124126	0.353944	0.292113
H370	H	-0.044902	-0.312760	-0.374629
H371	H	0.288431	0.020573	-0.041296
H372	H	0.621765	0.353907	0.292038
H373	H	0.849740	-0.801183	-0.189384
H374	H	1.183073	-0.467850	0.143949
H375	H	1.516406	-0.134516	0.477282
H376	H	0.816337	-0.953323	-0.229423
H377	H	1.149670	-0.619990	0.103910
H378	H	1.483003	-0.286657	0.437244
H379	H	0.661417	-0.702221	-0.414682
H380	H	0.994750	-0.368888	-0.081348
H381	H	1.328084	-0.035555	0.251985
H382	H	0.694799	-0.550101	-0.374621
H383	H	1.028132	-0.216768	-0.041288
H384	H	1.361465	0.116565	0.292045
H385	H	0.816309	-0.191153	-1.063531
H386	H	1.149642	0.142181	-0.730198
H387	H	1.482976	0.475514	-0.396864
H388	H	-0.044913	-0.191256	-0.229487
H389	H	0.288420	0.142077	0.103846
H390	H	0.621753	0.475410	0.437179
H391	H	0.694887	-0.312500	-0.944744
H392	H	1.028220	0.020833	-0.611411
H393	H	1.361554	0.354166	-0.278077
H394	H	0.694760	-0.451035	-0.374598
H395	H	1.028093	-0.117702	-0.041265
H396	H	1.361426	0.215631	0.292069
H397	H	0.816307	-0.191310	-0.541188
H398	H	1.149641	0.142023	-0.207854
H399	H	1.482974	0.475356	0.125479
H400	H	0.748057	-0.337338	-0.861664
H401	H	1.081390	-0.004004	-0.528331
H402	H	1.414723	0.329329	-0.194998
H403	H	0.816304	-0.191272	-0.659894
H404	H	1.149637	0.142062	-0.326561
H405	H	1.482971	0.475395	0.006772
H406	H	0.556510	-0.312720	-0.374522
H407	H	0.889843	0.020613	-0.041189
H408	H	1.223176	0.353947	0.292144
H409	H	0.763145	-0.166439	-0.742968
H410	H	1.096479	0.166895	-0.409635
H411	H	1.429812	0.500228	-0.076301
H412	H	0.763146	-0.166405	-0.861680
H413	H	1.096479	0.166928	-0.528347
H414	H	1.429812	0.500261	-0.195013
H415	H	0.694870	-0.312610	-0.541104
H416	H	1.028203	0.020723	-0.207771
H417	H	1.361537	0.354056	0.125562
H418	H	0.694880	-0.312577	-0.659818
H419	H	1.028214	0.020756	-0.326484
H420	H	1.361547	0.354090	0.006849
H421	H	0.747912	-0.337360	-0.742960
H422	H	1.081245	-0.004027	-0.409626
H423	H	1.414579	0.329306	-0.076293
