data_functionalizedCrystal
_audit_creation_method	'MofGen! by Chris Wilmer'
_symmetry_space_group_name_H-M	'P1'
_symmetry_Int_Tables_number	1
_symmetry_cell_setting	triclinic
loop_
_symmetry_equiv_pos_as_xyz
  x,y,z
_cell_length_a	18.101398
_cell_length_b	16.120484
_cell_length_c	16.120379
_cell_angle_alpha	90.213218
_cell_angle_beta	92.857794
_cell_angle_gamma	87.078898
loop_
_atom_site_label
_atom_site_type_symbol
_atom_site_fract_x
_atom_site_fract_y
_atom_site_fract_z
Zn1	Zn	1.096519	0.307004	-0.487081
Zn2	Zn	1.346519	0.557004	-0.237081
Zn3	Zn	1.596519	0.807004	0.012919
Zn4	Zn	1.846519	1.057004	0.262919
Zn5	Zn	1.095751	0.453205	-0.355068
Zn6	Zn	1.345751	0.703205	-0.105068
Zn7	Zn	1.595751	0.953205	0.144932
Zn8	Zn	1.845751	1.203205	0.394932
Zn9	Zn	0.978580	0.314161	-0.348026
Zn10	Zn	1.228580	0.564161	-0.098026
Zn11	Zn	1.478580	0.814161	0.151974
Zn12	Zn	1.728580	1.064161	0.401974
Zn13	Zn	0.966067	0.446008	-0.494064
Zn14	Zn	1.216067	0.696008	-0.244064
Zn15	Zn	1.466067	0.946008	0.005936
Zn16	Zn	1.716067	1.196008	0.255936
O17	O	1.034229	0.380095	-0.421060
O18	O	1.284229	0.630095	-0.171060
O19	O	1.534229	0.880095	0.078940
O20	O	1.784229	1.130095	0.328940
O21	O	1.200048	0.326416	-0.469594
O22	O	1.450048	0.576416	-0.219594
O23	O	1.700048	0.826416	0.030406
O24	O	1.950048	1.076416	0.280406
O25	O	1.085123	0.440768	-0.237768
O26	O	1.335123	0.690768	0.012232
O27	O	1.585123	0.940768	0.262232
O28	O	1.835123	1.190768	0.512232
O29	O	0.999783	0.196847	-0.360603
O30	O	1.249783	0.446847	-0.110603
O31	O	1.499783	0.696847	0.139397
O32	O	1.749783	0.946847	0.389397
O33	O	1.199484	0.433829	-0.372604
O34	O	1.449484	0.683829	-0.122604
O35	O	1.699484	0.933829	0.127396
O36	O	1.949484	1.183829	0.377396
O37	O	1.086432	0.191590	-0.462766
O38	O	1.336432	0.441590	-0.212766
O39	O	1.586432	0.691590	0.037234
O40	O	1.836432	0.941590	0.287234
O41	O	0.999038	0.338612	-0.232595
O42	O	1.249038	0.588612	0.017405
O43	O	1.499038	0.838612	0.267405
O44	O	1.749038	1.088612	0.517405
O45	O	0.873289	0.331633	-0.367374
O46	O	1.123289	0.581633	-0.117374
O47	O	1.373289	0.831633	0.132626
O48	O	1.623289	1.081633	0.382626
O49	O	0.978457	0.421562	-0.609503
O50	O	1.228457	0.671562	-0.359503
O51	O	1.478457	0.921562	-0.109503
O52	O	1.728457	1.171562	0.140497
O53	O	0.864096	0.428501	-0.474667
O54	O	1.114096	0.678501	-0.224667
O55	O	1.364096	0.928501	0.025333
O56	O	1.614096	1.178501	0.275333
O57	O	1.074299	0.319436	-0.604373
O58	O	1.324299	0.569436	-0.354373
O59	O	1.574299	0.819436	-0.104373
O60	O	1.824299	1.069436	0.145627
O61	O	1.072990	0.568615	-0.379375
O62	O	1.322990	0.818615	-0.129375
O63	O	1.572990	1.068615	0.120625
O64	O	1.822990	1.318615	0.370625
O65	O	0.977712	0.563327	-0.481495
O66	O	1.227712	0.813327	-0.231495
O67	O	1.477712	1.063327	0.018505
O68	O	1.727712	1.313327	0.268505
C69	C	0.841822	0.380063	-0.421015
C70	C	1.091822	0.630063	-0.171015
C71	C	1.341822	0.880063	0.078985
C72	C	1.591822	1.130063	0.328985
C73	C	0.759508	0.380069	-0.421016
C74	C	1.009508	0.630069	-0.171016
C75	C	1.259508	0.880069	0.078984
C76	C	1.509508	1.130069	0.328984
C77	C	1.023929	0.596141	-0.431975
C78	C	1.273929	0.846141	-0.181975
C79	C	1.523929	1.096141	0.068025
C80	C	1.773929	1.346141	0.318025
C81	C	1.019589	0.688566	-0.436672
C82	C	1.269589	0.938566	-0.186672
C83	C	1.519589	1.188566	0.063328
C84	C	1.769589	1.438566	0.313328
C85	C	1.025068	0.368898	-0.637954
C86	C	1.275068	0.618898	-0.387954
C87	C	1.525068	0.868898	-0.137954
C88	C	1.775068	1.118898	0.112046
C89	C	1.021164	0.364126	-0.730381
C90	C	1.271164	0.614126	-0.480381
C91	C	1.521164	0.864126	-0.230381
C92	C	1.771164	1.114126	0.019619
C93	C	0.460411	0.380117	-0.421089
C94	C	0.710411	0.630117	-0.171089
C95	C	0.960411	0.880117	0.078911
C96	C	1.210411	1.130117	0.328911
C97	C	0.497498	0.318833	-0.353880
C98	C	0.747498	0.568833	-0.103880
C99	C	0.997498	0.818833	0.146120
C100	C	1.247498	1.068833	0.396120
C101	C	0.583119	0.319021	-0.353616
C102	C	0.833119	0.569021	-0.103616
C103	C	1.083119	0.819021	0.146384
C104	C	1.333119	1.069021	0.396384
C105	C	0.608797	0.380092	-0.421052
C106	C	0.858797	0.630092	-0.171052
C107	C	1.108797	0.880092	0.078948
C108	C	1.358797	1.130092	0.328948
C109	C	0.574558	0.468916	-0.401546
C110	C	0.824558	0.718916	-0.151546
C111	C	1.074558	0.968916	0.098454
C112	C	1.324558	1.218916	0.348454
C113	C	0.488949	0.468580	-0.401083
C114	C	0.738949	0.718580	-0.151083
C115	C	0.988949	0.968580	0.098917
C116	C	1.238949	1.218580	0.348917
C117	C	0.489341	0.353330	-0.507993
C118	C	0.739341	0.603330	-0.257993
C119	C	0.989341	0.853330	-0.007993
C120	C	1.239341	1.103330	0.242007
C121	C	0.575104	0.351405	-0.507414
C122	C	0.825104	0.601405	-0.257414
C123	C	1.075104	0.851405	-0.007414
C124	C	1.325104	1.101405	0.242586
C125	C	0.692657	0.380084	-0.421034
C126	C	0.942657	0.630084	-0.171034
C127	C	1.192657	0.880084	0.078966
C128	C	1.442657	1.130084	0.328966
C129	C	0.376550	0.380132	-0.421105
C130	C	0.626550	0.630132	-0.171105
C131	C	0.876550	0.880132	0.078895
C132	C	1.126550	1.130132	0.328895
C133	C	1.227388	0.380127	-0.421105
C134	C	1.477388	0.630127	-0.171105
C135	C	1.727388	0.880127	0.078895
C136	C	1.977388	1.130127	0.328895
C137	C	1.309700	0.380141	-0.421125
C138	C	1.559700	0.630141	-0.171125
C139	C	1.809700	0.880141	0.078875
C140	C	2.059700	1.130141	0.328875
C141	C	1.044589	0.163203	-0.410120
C142	C	1.294589	0.413203	-0.160120
C143	C	1.544589	0.663203	0.089880
C144	C	1.794589	0.913203	0.339880
C145	C	1.049004	0.070777	-0.405458
C146	C	1.299004	0.320777	-0.155458
C147	C	1.549004	0.570777	0.094542
C148	C	1.799004	0.820777	0.344542
C149	C	1.011669	0.857786	-0.445265
C150	C	1.261669	1.107786	-0.195265
C151	C	1.511669	1.357786	0.054735
C152	C	1.761669	1.607786	0.304735
C153	C	1.056921	0.901562	-0.396868
C154	C	1.306921	1.151562	-0.146868
C155	C	1.556921	1.401562	0.103132
C156	C	1.806921	1.651562	0.353132
C157	C	1.052515	0.995722	-0.401649
C158	C	1.302515	1.245722	-0.151649
C159	C	1.552515	1.495722	0.098351
C160	C	1.802515	1.745722	0.348351
C161	C	1.016075	0.763617	-0.440485
C162	C	1.266075	1.013617	-0.190485
C163	C	1.516075	1.263617	0.059515
C164	C	1.766075	1.513617	0.309515
C165	C	1.043400	0.391188	-0.205007
C166	C	1.293400	0.641188	0.044993
C167	C	1.543400	0.891188	0.294993
C168	C	1.793400	1.141188	0.544993
C169	C	1.047459	0.395725	-0.112568
C170	C	1.297459	0.645725	0.137432
C171	C	1.547459	0.895725	0.387432
C172	C	1.797459	1.145725	0.637432
C173	C	1.054879	0.404009	0.056679
C174	C	1.304879	0.654009	0.306679
C175	C	1.554879	0.904009	0.556679
C176	C	1.804879	1.154009	0.806679
C177	C	1.013746	0.355845	0.100378
C178	C	1.263746	0.605845	0.350378
C179	C	1.513746	0.855845	0.600378
C180	C	1.763746	1.105845	0.850378
C181	C	1.017874	0.360454	0.194552
C182	C	1.267874	0.610454	0.444552
C183	C	1.517874	0.860454	0.694552
C184	C	1.767874	1.110454	0.944552
C185	C	1.050752	0.399401	-0.037505
C186	C	1.300752	0.649401	0.212495
C187	C	1.550752	0.899401	0.462495
C188	C	1.800752	1.149401	0.712495
H189	H	0.606590	0.253295	-0.365334
H190	H	0.856590	0.503295	-0.115334
H191	H	1.106590	0.753295	0.134666
H192	H	1.356590	1.003295	0.384666
Br193	Br	0.603791	0.419781	-0.594755
Br194	Br	0.853791	0.669781	-0.344755
Br195	Br	1.103791	0.919781	-0.094755
Br196	Br	1.353791	1.169781	0.155245
H197	H	1.098972	0.868324	-0.351842
H198	H	1.348972	1.118324	-0.101842
H199	H	1.598972	1.368324	0.148158
H200	H	1.848972	1.618324	0.398158
H201	H	1.093192	0.448702	0.089992
H202	H	1.343192	0.698702	0.339992
H203	H	1.593192	0.948702	0.589992
H204	H	1.843192	1.198702	0.839992
H205	H	0.479374	0.252918	-0.365423
H206	H	0.729374	0.502918	-0.115423
H207	H	0.979374	0.752918	0.134577
H208	H	1.229374	1.002918	0.384577
H209	H	0.463988	0.516029	-0.448141
H210	H	0.713988	0.766029	-0.198141
H211	H	0.963988	1.016029	0.051859
H212	H	1.213988	1.266029	0.301859
H213	H	0.478014	0.336717	-0.289765
H214	H	0.728014	0.586717	-0.039765
H215	H	0.978014	0.836717	0.210235
H216	H	1.228014	1.086717	0.460235
H217	H	0.969621	0.891021	-0.490286
H218	H	1.219621	1.141021	-0.240286
H219	H	1.469621	1.391021	0.009714
H220	H	1.719621	1.641021	0.259714
Br221	Br	0.620674	0.349130	-0.246133
Br222	Br	0.870674	0.599130	0.003867
Br223	Br	1.120674	0.849130	0.253867
Br224	Br	1.370674	1.099130	0.503867
Br225	Br	0.458657	0.505559	-0.295413
Br226	Br	0.708657	0.755559	-0.045413
Br227	Br	0.958657	1.005559	0.204587
Br228	Br	1.208657	1.255559	0.454587
H229	H	0.590675	0.515996	-0.449160
H230	H	0.840675	0.765996	-0.199160
H231	H	1.090675	1.015996	0.050840
H232	H	1.340675	1.265996	0.300840
H233	H	0.975430	0.311148	0.067062
H234	H	1.225430	0.561148	0.317062
H235	H	1.475430	0.811148	0.567062
H236	H	1.725430	1.061148	0.817062
Br237	Br	0.613239	0.506387	-0.297061
Br238	Br	0.863239	0.756387	-0.047061
Br239	Br	1.113239	1.006387	0.202939
Br240	Br	1.363239	1.256387	0.452939
H241	H	0.469808	0.289451	-0.526584
H242	H	0.719808	0.539451	-0.276584
H243	H	0.969808	0.789451	-0.026584
H244	H	1.219808	1.039451	0.223416
H245	H	0.464841	0.397912	-0.558015
H246	H	0.714841	0.647912	-0.308015
H247	H	0.964841	0.897912	-0.058015
H248	H	1.214841	1.147912	0.191985
Br249	Br	0.612819	0.242429	-0.532078
Br250	Br	0.862819	0.492429	-0.282078
Br251	Br	1.112819	0.742429	-0.032078
Br252	Br	1.362819	0.992429	0.217922
