data_functionalizedCrystal
_audit_creation_method	'MofGen! by Chris Wilmer'
_symmetry_space_group_name_H-M	'P1'
_symmetry_Int_Tables_number	1
_symmetry_cell_setting	triclinic
loop_
_symmetry_equiv_pos_as_xyz
  x,y,z
_cell_length_a	6.817900
_cell_length_b	9.514072
_cell_length_c	14.125465
_cell_angle_alpha	92.613576
_cell_angle_beta	100.398878
_cell_angle_gamma	118.843421
loop_
_atom_site_label
_atom_site_type_symbol
_atom_site_fract_x
_atom_site_fract_y
_atom_site_fract_z
V1	V	-4.075413	-0.220821	-0.300725
O2	O	-3.974926	0.012031	-0.294225
O3	O	-4.110342	-0.439217	-0.299415
O4	O	-4.010024	-0.216802	-0.431542
O5	O	-4.075938	-0.211924	-0.161183
V6	V	-4.550445	-0.193043	-0.283944
O7	O	-4.355298	-0.281755	-0.337536
O8	O	-4.720758	-0.132109	-0.247134
O9	O	-4.292310	0.025352	-0.285255
O10	O	-4.768328	-0.425895	-0.290445
O11	O	-4.667317	-0.201940	-0.423487
O12	O	-4.392627	-0.197063	-0.153128
C13	C	-3.976164	-0.492476	-0.294863
C14	C	-4.085896	-0.671014	-0.294663
C15	C	-3.848197	-0.208762	-0.463403
C16	C	-3.876570	-0.206920	-0.570351
C17	C	-3.928574	-0.203544	-0.766163
C18	C	-4.116651	-0.210317	-0.818507
C19	C	-4.145589	-0.208438	-0.927463
C20	C	-3.899628	-0.205422	-0.657197
C21	C	-4.089833	0.078604	-0.289804
C22	C	-3.959339	0.257139	-0.290010
C23	C	-4.217799	-0.205108	-0.121262
C24	C	-4.168662	-0.206941	-0.014313
H25	H	-4.278223	-0.746105	-0.298528
C26	C	-3.702858	-0.642517	-0.284694
C27	C	-3.596811	-0.524509	-0.201275
C28	C	-3.360541	-0.432019	-0.196352
H29	H	-3.637872	-0.711327	-0.281702
H30	H	-3.679508	-0.590990	-0.340933
H31	H	-3.620144	-0.576034	-0.145051
H32	H	-3.661728	-0.455663	-0.204249
H33	H	-3.337191	-0.380491	-0.252590
H34	H	-3.295578	-0.500841	-0.193363
H35	H	-3.288562	-0.351931	-0.139758
C36	C	-4.302193	-0.220033	-0.768991
C37	C	-4.236207	-0.220063	-0.669206
C38	C	-4.407080	-0.229045	-0.623560
H39	H	-4.322113	-0.129034	-0.778204
H40	H	-4.442950	-0.317132	-0.796494
H41	H	-4.095491	-0.122975	-0.641711
H42	H	-4.216305	-0.311057	-0.659964
H43	H	-4.547836	-0.326144	-0.651063
H44	H	-4.426987	-0.138043	-0.632781
H45	H	-4.362342	-0.229082	-0.555853
H46	H	-3.789302	-0.196336	-0.803176
