data_functionalizedCrystal
_audit_creation_method	'MofGen! by Chris Wilmer'
_symmetry_space_group_name_H-M	'P1'
_symmetry_Int_Tables_number	1
_symmetry_cell_setting	triclinic
loop_
_symmetry_equiv_pos_as_xyz
  x,y,z
_cell_length_a	12.811438
_cell_length_b	19.188930
_cell_length_c	11.295483
_cell_angle_alpha	94.076039
_cell_angle_beta	80.460799
_cell_angle_gamma	83.595539
loop_
_atom_site_label
_atom_site_type_symbol
_atom_site_fract_x
_atom_site_fract_y
_atom_site_fract_z
O1	O	1.410244	0.082162	-0.251320
O2	O	1.102231	0.093959	-0.218064
O3	O	1.265124	-0.013596	-0.235628
O4	O	1.247350	0.189717	-0.233756
O5	O	1.250817	-0.004164	-0.036035
O6	O	1.087923	0.103391	-0.018470
O7	O	1.395937	0.091594	-0.051726
Cu8	Cu	1.240624	0.098354	-0.016874
Cu9	Cu	1.257544	0.087199	-0.252916
O10	O	1.233043	0.199149	-0.034162
C11	C	1.055671	0.098303	-0.114012
C12	C	0.938252	0.097186	-0.101334
C13	C	0.764959	0.100754	0.025328
C14	C	0.875283	0.101804	0.013421
C15	C	0.890890	0.091521	-0.204188
C16	C	0.780566	0.090471	-0.192281
C17	C	0.717604	0.095087	-0.077519
C18	C	0.607278	0.094032	-0.065613
C19	C	0.622886	0.083754	-0.283220
C20	C	0.733211	0.084803	-0.295128
C21	C	1.257395	-0.034891	-0.135766
C22	C	1.255666	-0.112394	-0.135569
C23	C	1.351247	-0.157338	-0.145883
C24	C	1.349625	-0.230162	-0.145727
C25	C	1.252414	-0.258039	-0.135232
C26	C	1.156821	-0.213086	-0.124923
C27	C	1.158447	-0.140264	-0.125092
N28	N	1.173239	-0.362819	-0.059284
N29	N	1.171701	-0.431997	-0.059122
C30	C	1.247510	-0.477448	-0.134727
N31	N	1.324931	-0.451107	-0.210486
N32	N	1.326471	-0.381922	-0.210643
C33	C	1.250641	-0.337001	-0.135049
C34	C	1.341339	-0.601356	-0.144874
C35	C	1.339714	-0.674182	-0.144725
C36	C	1.146906	-0.657103	-0.123909
C37	C	1.148535	-0.584280	-0.124070
C38	C	1.245755	-0.556410	-0.134548
C39	C	1.442497	0.087250	-0.155781
C40	C	1.559916	0.088366	-0.168467
C41	C	1.240773	0.220443	-0.134027
C42	C	1.242502	0.297947	-0.134232
N43	N	1.228731	0.106199	0.149145
N44	N	1.269445	0.079348	-0.418936
C45	C	1.355057	0.022835	0.384813
C46	C	1.346077	0.028769	0.510445
C47	C	1.201786	0.123996	0.526043
C48	C	1.210766	0.118062	0.400411
C49	C	1.287405	0.067481	0.329800
C50	C	1.296390	0.061551	0.204165
C51	C	1.152095	0.156775	0.219767
C52	C	1.143115	0.162708	0.345399
H53	H	0.784488	0.081048	-0.388563
C54	C	0.539068	0.098940	0.059053
C55	C	0.573393	0.042254	0.120512
C56	C	0.510595	0.046760	0.235365
H57	H	0.466558	0.097474	0.051591
H58	H	0.545712	0.141916	0.102747
H59	H	0.566739	-0.000711	0.076828
H60	H	0.645893	0.043709	0.128007
H61	H	0.517239	0.089735	0.279059
H62	H	0.438089	0.045295	0.227891
H63	H	0.533882	0.008303	0.277083
H64	H	1.401164	-0.007587	0.555232
C65	C	1.118466	0.178920	0.602517
C66	C	1.061114	0.216738	0.527456
C67	C	0.984336	0.267330	0.597861
H68	H	1.152740	0.210296	0.647450
H69	H	1.070999	0.156205	0.656250
H70	H	1.108574	0.239453	0.473743
H71	H	1.026817	0.185382	0.482523
H72	H	0.936868	0.244615	0.651595
H73	H	1.018619	0.298701	0.642791
H74	H	0.945407	0.292992	0.546944
H75	H	1.067756	-0.679800	-0.115370
C76	C	1.051186	-0.243243	-0.113334
C77	C	0.986047	-0.215521	-0.004428
C78	C	0.888720	-0.243277	0.006276
H79	H	1.063749	-0.293045	-0.114630
H80	H	1.016776	-0.231061	-0.178649
H81	H	1.020449	-0.227708	0.060871
H82	H	0.973453	-0.165722	-0.003107
H83	H	0.854310	-0.231095	-0.059040
H84	H	0.901294	-0.293078	0.004975
H85	H	0.844507	-0.224467	0.080162
C86	C	1.443482	-0.723025	-0.156174
C87	C	1.455564	-0.770156	-0.259396
C88	C	1.551150	-0.815155	-0.269992
H89	H	1.441972	-0.748580	-0.087035
H90	H	1.501643	-0.696020	-0.162505
H91	H	1.397418	-0.797158	-0.253056
H92	H	1.457093	-0.744621	-0.328553
H93	H	1.609312	-0.788150	-0.276323
H94	H	1.549632	-0.840705	-0.200848
H95	H	1.559366	-0.847134	-0.340033
C96	C	1.078754	0.205369	0.160093
C97	C	1.093432	0.275387	0.188803
C98	C	1.025905	0.320173	0.133842
H99	H	1.006680	0.198986	0.188271
H100	H	1.095080	0.194643	0.075145
H101	H	1.077098	0.286110	0.273733
H102	H	1.165492	0.281793	0.160622
H103	H	1.042231	0.309446	0.048894
H104	H	0.953835	0.313783	0.162025
H105	H	1.035861	0.367684	0.153304
C106	C	1.044639	-0.535592	-0.112781
C107	C	0.959154	-0.575587	-0.103525
C108	C	0.863423	-0.530759	-0.093110
H109	H	1.046101	-0.510092	-0.181980
H110	H	1.036219	-0.503557	-0.042776
H111	H	0.967572	-0.607609	-0.173523
H112	H	0.957657	-0.601085	-0.034328
H113	H	0.855003	-0.498724	-0.023105
H114	H	0.864896	-0.505261	-0.162311
H115	H	0.805410	-0.557888	-0.086818
H116	H	1.358795	0.020367	0.146674
H117	H	1.080714	0.203889	0.402905
C118	C	1.446823	-0.571003	-0.156445
C119	C	1.460729	-0.534516	-0.259815
C120	C	1.557879	-0.506539	-0.270506
H121	H	1.503616	-0.608132	-0.162647
H122	H	1.446488	-0.539632	-0.087375
H123	H	1.461072	-0.565884	-0.328868
H124	H	1.403959	-0.497377	-0.253636
H125	H	1.557545	-0.475168	-0.201436
H126	H	1.614665	-0.543672	-0.276704
H127	H	1.567323	-0.481774	-0.340635
C128	C	0.696744	0.105656	0.149991
C129	C	0.731066	0.048963	0.211438
C130	C	0.668263	0.053460	0.326286
H131	H	0.624236	0.104191	0.142521
H132	H	0.703385	0.148629	0.193696
H133	H	0.724415	0.006002	0.167743
H134	H	0.803565	0.050417	0.218939
H135	H	0.674904	0.096433	0.369992
H136	H	0.595758	0.051997	0.318805
H137	H	0.691548	0.014999	0.367997
C138	C	0.926862	0.107841	0.124979
C139	C	1.001938	0.048695	0.123182
C140	C	1.049484	0.054237	0.225926
H141	H	0.873682	0.110409	0.195114
H142	H	0.961387	0.149151	0.125744
H143	H	0.967414	0.007396	0.122429
H144	H	1.055139	0.046116	0.053069
H145	H	1.084009	0.095547	0.226690
H146	H	0.996296	0.056807	0.296053
H147	H	1.100435	0.014112	0.224715
H148	H	0.584318	0.079141	-0.366966
C149	C	0.959143	0.086407	-0.328857
C150	C	0.949185	0.023005	-0.392933
C151	C	1.012029	0.018278	-0.507790
H152	H	1.031666	0.087806	-0.321395
H153	H	0.935989	0.124809	-0.370779
H154	H	0.972344	-0.015387	-0.351022
H155	H	0.876676	0.021592	-0.400429
H156	H	0.988875	0.056680	-0.549712
H157	H	1.084548	0.019679	-0.500316
H158	H	1.005273	-0.024737	-0.551284
C159	C	1.456910	-0.127219	-0.157340
C160	C	1.540272	-0.182173	-0.166369
C161	C	1.637623	-0.154454	-0.176942
H162	H	1.456713	-0.095895	-0.088271
H163	H	1.466605	-0.102470	-0.227476
H164	H	1.530579	-0.206910	-0.096240
H165	H	1.540503	-0.213501	-0.235437
H166	H	1.647318	-0.129705	-0.247078
H167	H	1.637416	-0.123131	-0.107871
H168	H	1.694197	-0.191736	-0.183081
C169	C	1.453387	-0.279015	-0.157160
C170	C	1.465468	-0.326155	-0.260370
C171	C	1.561046	-0.371160	-0.270947
H172	H	1.451866	-0.304564	-0.088012
H173	H	1.511555	-0.252016	-0.163493
H174	H	1.407315	-0.353151	-0.254028
H175	H	1.467009	-0.300626	-0.329537
H176	H	1.619214	-0.344161	-0.277280
H177	H	1.559515	-0.396704	-0.201794
H178	H	1.569260	-0.403146	-0.340981
H179	H	1.080610	-0.103670	-0.116692
H180	H	1.417466	-0.018346	0.327319
