data_functionalizedCrystal
_audit_creation_method	'MofGen! by Chris Wilmer'
_symmetry_space_group_name_H-M	'P1'
_symmetry_Int_Tables_number	1
_symmetry_cell_setting	triclinic
loop_
_symmetry_equiv_pos_as_xyz
  x,y,z
_cell_length_a	19.805407
_cell_length_b	19.805404
_cell_length_c	19.805399
_cell_angle_alpha	90.026554
_cell_angle_beta	90.016886
_cell_angle_gamma	90.030762
loop_
_atom_site_label
_atom_site_type_symbol
_atom_site_fract_x
_atom_site_fract_y
_atom_site_fract_z
Zn1	Zn	-1.034697	0.269469	-0.382731
Zn2	Zn	-0.701364	0.602803	-0.049398
Zn3	Zn	-0.368031	0.936136	0.283936
Zn4	Zn	-1.034609	0.382661	-0.269548
Zn5	Zn	-0.701275	0.715994	0.063786
Zn6	Zn	-0.367942	1.049327	0.397119
Zn7	Zn	-0.921517	0.269491	-0.269556
Zn8	Zn	-0.588184	0.602824	0.063778
Zn9	Zn	-0.254851	0.936158	0.397111
Zn10	Zn	-0.921467	0.382622	-0.382694
Zn11	Zn	-0.588133	0.715955	-0.049361
Zn12	Zn	-0.254800	1.049289	0.283972
O13	O	-0.978073	0.326061	-0.326132
O14	O	-0.644739	0.659394	0.007201
O15	O	-0.311406	0.992727	0.340534
O16	O	-1.129402	0.284492	-0.367729
O17	O	-0.796069	0.617825	-0.034396
O18	O	-0.462735	0.951158	0.298938
O19	O	-1.019591	0.367674	-0.174832
O20	O	-0.686258	0.701007	0.158501
O21	O	-0.352924	1.034340	0.491835
O22	O	-0.936589	0.174771	-0.284587
O23	O	-0.603256	0.508105	0.048746
O24	O	-0.269922	0.841438	0.382079
O25	O	-1.129337	0.367653	-0.284574
O26	O	-0.796004	0.700986	0.048760
O27	O	-0.462670	1.034319	0.382093
O28	O	-1.019742	0.174756	-0.367737
O29	O	-0.686408	0.508089	-0.034404
O30	O	-0.353075	0.841422	0.298930
O31	O	-0.936503	0.284528	-0.174838
O32	O	-0.603170	0.617862	0.158495
O33	O	-0.269836	0.951195	0.491829
O34	O	-0.826794	0.284491	-0.284552
O35	O	-0.493461	0.617824	0.048782
O36	O	-0.160127	0.951157	0.382115
O37	O	-0.936503	0.367587	-0.477416
O38	O	-0.603170	0.700920	-0.144083
O39	O	-0.269836	1.034253	0.189251
O40	O	-0.826757	0.367608	-0.367674
O41	O	-0.493424	0.700941	-0.034341
O42	O	-0.160090	1.034274	0.298992
O43	O	-1.019693	0.284454	-0.477443
O44	O	-0.686360	0.617788	-0.144109
O45	O	-0.353026	0.951121	0.189224
O46	O	-1.019542	0.477372	-0.284538
O47	O	-0.686209	0.810705	0.048795
O48	O	-0.352876	1.144039	0.382129
O49	O	-0.936417	0.477344	-0.367667
O50	O	-0.603084	0.810677	-0.034333
O51	O	-0.269751	1.144010	0.299000
C52	C	-0.977983	0.501917	-0.326112
C53	C	-0.644650	0.835250	0.007221
C54	C	-0.311316	1.168583	0.340554
C55	C	-0.978007	0.577149	-0.326126
C56	C	-0.644673	0.910482	0.007207
C57	C	-0.311340	1.243815	0.340540
C58	C	-0.802217	0.326048	-0.326110
C59	C	-0.468883	0.659381	0.007223
C60	C	-0.135550	0.992714	0.340556
C61	C	-0.726985	0.326059	-0.326117
C62	C	-0.393651	0.659392	0.007216
C63	C	-0.060318	0.992725	0.340550
C64	C	-0.978102	0.326014	-0.502675
C65	C	-0.644769	0.659347	-0.169342
C66	C	-0.311436	0.992680	0.163992
C67	C	-0.978115	0.325994	-0.577907
C68	C	-0.644782	0.659327	-0.244574
C69	C	-0.311448	0.992660	0.088760
C70	C	-1.154615	0.326074	-0.326155
C71	C	-0.821282	0.659408	0.007179
C72	C	-0.487949	0.992741	0.340512
C73	C	-1.229847	0.326080	-0.326164
C74	C	-0.896514	0.659413	0.007169
C75	C	-0.563181	0.992747	0.340503
C76	C	-0.691639	0.369403	-0.369329
C77	C	-0.358305	0.702736	-0.035996
C78	C	-0.024972	1.036069	0.297338
C79	C	-0.620950	0.369404	-0.369338
C80	C	-0.287617	0.702737	-0.036005
C81	C	0.045716	1.036070	0.297328
C82	C	-0.585609	0.326064	-0.326132
C83	C	-0.252276	0.659397	0.007201
C84	C	0.081058	0.992730	0.340534
C85	C	-0.620960	0.282715	-0.282918
C86	C	-0.287626	0.616048	0.050415
C87	C	0.045707	0.949382	0.383748
C88	C	-0.691647	0.282711	-0.282913
C89	C	-0.358313	0.616044	0.050421
C90	C	-0.024980	0.949378	0.383754
C91	C	-0.335886	0.282730	-0.282941
C92	C	-0.002553	0.616063	0.050393
C93	C	0.330780	0.949397	0.383726
C94	C	-0.265194	0.282739	-0.282948
C95	C	0.068139	0.616072	0.050385
C96	C	0.401472	0.949405	0.383718
C97	C	-0.265190	0.369423	-0.369366
C98	C	0.068143	0.702756	-0.036033
C99	C	0.401477	1.036090	0.297300
C100	C	-0.335877	0.369419	-0.369361
C101	C	-0.002544	0.702752	-0.036027
C102	C	0.330790	1.036085	0.297306
C103	C	-0.371222	0.326068	-0.326150
C104	C	-0.037888	0.659401	0.007183
C105	C	0.295445	0.992734	0.340517
C106	C	-0.447870	0.326066	-0.326141
C107	C	-0.114537	0.659399	0.007192
C108	C	0.218797	0.992733	0.340526
C109	C	-0.508962	0.326068	-0.326137
C110	C	-0.175628	0.659402	0.007196
C111	C	0.157705	0.992735	0.340529
C112	C	-1.021507	1.038932	-0.282966
C113	C	-0.688174	1.372265	0.050367
C114	C	-0.354841	1.705599	0.383700
C115	C	-1.021477	0.968244	-0.282951
C116	C	-0.688144	1.301577	0.050383
C117	C	-0.354810	1.634910	0.383716
C118	C	-0.978149	0.932910	-0.326189
C119	C	-0.644816	1.266244	0.007144
C120	C	-0.311482	1.599577	0.340478
C121	C	-0.934843	0.968269	-0.369441
C122	C	-0.601510	1.301603	-0.036107
C123	C	-0.268177	1.634936	0.297226
C124	C	-0.934871	1.038956	-0.369452
C125	C	-0.601537	1.372290	-0.036119
C126	C	-0.268204	1.705623	0.297214
C127	C	-0.934731	0.683196	-0.369394
C128	C	-0.601398	1.016529	-0.036060
C129	C	-0.268065	1.349863	0.297273
C130	C	-0.934709	0.612504	-0.369380
C131	C	-0.601375	0.945837	-0.036047
C132	C	-0.268042	1.279171	0.297287
C133	C	-1.021338	0.612483	-0.282892
C134	C	-0.688004	0.945817	0.050441
C135	C	-0.354671	1.279150	0.383775
C136	C	-1.021365	0.683170	-0.282904
C137	C	-0.688032	1.016504	0.050429
C138	C	-0.354698	1.349837	0.383763
C139	C	-0.978057	0.718523	-0.326153
C140	C	-0.644724	1.051856	0.007181
C141	C	-0.311391	1.385190	0.340514
C142	C	-0.978090	0.795171	-0.326168
C143	C	-0.644756	1.128505	0.007165
C144	C	-0.311423	1.461838	0.340498
C145	C	-0.978119	0.856263	-0.326177
C146	C	-0.644786	1.189597	0.007156
C147	C	-0.311453	1.522930	0.340489
C148	C	-0.978176	1.149518	-0.326176
C149	C	-0.644842	1.482851	0.007158
C150	C	-0.311509	1.816185	0.340491
C151	C	-0.978207	1.074286	-0.326216
C152	C	-0.644873	1.407619	0.007117
C153	C	-0.311540	1.740953	0.340450
C154	C	-0.934863	0.282696	-0.613254
C155	C	-0.601530	0.616029	-0.279920
C156	C	-0.268197	0.949363	0.053413
C157	C	-0.934873	0.282683	-0.683942
C158	C	-0.601539	0.616016	-0.350609
C159	C	-0.268206	0.949349	-0.017276
C160	C	-0.978137	0.325964	-0.719283
C161	C	-0.644804	0.659298	-0.385949
C162	C	-0.311471	0.992631	-0.052616
C163	C	-1.021391	0.369267	-0.683931
C164	C	-0.688058	0.702600	-0.350598
C165	C	-0.354724	1.035934	-0.017264
C166	C	-1.021378	0.369283	-0.613244
C167	C	-0.688044	0.702617	-0.279910
C168	C	-0.354711	1.035950	0.053423
C169	C	-1.021445	0.369204	-0.969004
C170	C	-0.688111	0.702537	-0.635671
C171	C	-0.354778	1.035870	-0.302338
C172	C	-1.021456	0.369183	-1.039697
C173	C	-0.688123	0.702516	-0.706363
C174	C	-0.354789	1.035850	-0.373030
C175	C	-0.934940	0.282603	-1.039703
C176	C	-0.601606	0.615937	-0.706370
C177	C	-0.268273	0.949270	-0.373036
C178	C	-0.934926	0.282619	-0.969016
C179	C	-0.601593	0.615953	-0.635682
C180	C	-0.268260	0.949286	-0.302349
C181	C	-0.978177	0.325924	-0.933670
C182	C	-0.644844	0.659258	-0.600337
C183	C	-0.311510	0.992591	-0.267003
C184	C	-0.978165	0.325939	-0.857022
C185	C	-0.644832	0.659272	-0.523688
C186	C	-0.311499	0.992606	-0.190355
C187	C	-0.978153	0.325947	-0.795930
C188	C	-0.644820	0.659280	-0.462597
C189	C	-0.311486	0.992614	-0.129263
C190	C	-0.978082	0.326059	-0.150276
C191	C	-0.644749	0.659392	0.183057
C192	C	-0.311415	0.992725	0.516390
C193	C	-0.978200	0.325888	-0.075045
C194	C	-0.644867	0.659221	0.258289
C195	C	-0.311534	0.992555	0.591622
H196	H	-0.592175	0.404700	-0.404525
H197	H	-0.258842	0.738033	-0.071192
H198	H	0.074492	1.071366	0.262141
N199	N	-1.068044	0.574355	-0.236235
N200	N	-0.734711	0.907688	0.097098
N201	N	-0.401377	1.241022	0.430432
H202	H	-1.116402	0.586606	-0.246800
H203	H	-0.783068	0.919939	0.086534
H204	H	-0.449735	1.253272	0.419867
H205	H	-1.061396	0.524226	-0.242804
H206	H	-0.728063	0.857559	0.090529
H207	H	-0.394730	1.190892	0.423862
H208	H	-0.364655	0.247436	-0.247751
H209	H	-0.031322	0.580769	0.085583
H210	H	0.302011	0.914103	0.418916
H211	H	-1.056650	0.711935	-0.247697
H212	H	-0.723316	1.045268	0.085636
H213	H	-0.389983	1.378602	0.418969
H214	H	-1.056794	1.067695	-0.247761
H215	H	-0.723461	1.401029	0.085573
H216	H	-0.390127	1.734362	0.418906
N217	N	-1.068188	0.930111	-0.236311
N218	N	-0.734855	1.263444	0.097022
N219	N	-0.401521	1.596778	0.430356
H220	H	-1.095646	0.963220	-0.208928
H221	H	-0.762313	1.296554	0.124405
H222	H	-0.428979	1.629887	0.457739
H223	H	-1.099476	0.900740	-0.263898
H224	H	-0.766143	1.234073	0.069436
H225	H	-0.432809	1.567406	0.402769
H226	H	-0.899650	0.247428	-0.712718
H227	H	-0.566317	0.580761	-0.379385
H228	H	-0.232984	0.914095	-0.046052
N229	N	-0.888167	1.077086	-0.416104
N230	N	-0.554834	1.410419	-0.082770
N231	N	-0.221500	1.743752	0.250563
H232	H	-0.915662	1.106371	-0.447501
H233	H	-0.582329	1.439704	-0.114168
H234	H	-0.248995	1.773038	0.219166
H235	H	-0.856838	1.106419	-0.388523
H236	H	-0.523505	1.439752	-0.055190
H237	H	-0.190171	1.773086	0.278144
H238	H	-0.899698	0.247373	-0.940245
H239	H	-0.566365	0.580706	-0.606912
H240	H	-0.233031	0.914039	-0.273578
H241	H	-0.899636	0.247447	-0.584485
H242	H	-0.566303	0.580780	-0.251151
H243	H	-0.232969	0.914114	0.082182
N244	N	-0.888115	0.930161	-0.416080
N245	N	-0.554782	1.263495	-0.082747
N246	N	-0.221448	1.596828	0.250586
H247	H	-0.860688	0.963286	-0.443480
H248	H	-0.527354	1.296620	-0.110147
H249	H	-0.194021	1.629953	0.223186
H250	H	-0.856799	0.900877	-0.388496
H251	H	-0.523465	1.234210	-0.055163
H252	H	-0.190132	1.567543	0.278170
N253	N	-0.729751	0.416154	-0.415928
N254	N	-0.396418	0.749487	-0.082594
N255	N	-0.063084	1.082821	0.250739
H256	H	-0.717474	0.405705	-0.464308
H257	H	-0.384140	0.739038	-0.130975
H258	H	-0.050807	1.072371	0.202359
H259	H	-0.779883	0.409557	-0.409310
H260	H	-0.446549	0.742890	-0.075977
H261	H	-0.113216	1.076223	0.257357
H262	H	-0.592179	0.247424	-0.247742
H263	H	-0.258846	0.580757	0.085591
H264	H	0.074488	0.914091	0.418925
N265	N	-0.888276	0.235906	-1.077825
N266	N	-0.554943	0.569240	-0.744492
N267	N	-0.221610	0.902573	-0.411159
H268	H	-0.894841	0.242466	-1.127968
H269	H	-0.561508	0.575800	-0.794635
H270	H	-0.228175	0.909133	-0.461301
H271	H	-0.839931	0.246448	-1.065453
H272	H	-0.506598	0.579782	-0.732119
H273	H	-0.173265	0.913115	-0.398786
H274	H	-0.899423	0.583737	-0.404591
H275	H	-0.566090	0.917070	-0.071257
H276	H	-0.232757	1.250404	0.262076
H277	H	-1.056614	0.404511	-0.712711
H278	H	-0.723281	0.737845	-0.379378
H279	H	-0.389948	1.071178	-0.046044
H280	H	-0.364649	0.404713	-0.404541
H281	H	-0.031315	0.738046	-0.071208
H282	H	0.302018	1.071380	0.262125
H283	H	-1.056603	0.404536	-0.584465
H284	H	-0.723269	0.737869	-0.251132
H285	H	-0.389936	1.071202	0.082201
H286	H	-0.899462	0.711972	-0.404604
H287	H	-0.566129	1.045305	-0.071271
H288	H	-0.232796	1.378638	0.262062
H289	H	-0.236404	0.404719	-0.404553
H290	H	0.096929	0.738052	-0.071220
H291	H	0.430263	1.071386	0.262113
H292	H	-1.056689	0.404431	-1.068469
H293	H	-0.723356	0.737764	-0.735136
H294	H	-0.390022	1.071097	-0.401802
H295	H	-0.720424	0.247412	-0.247729
H296	H	-0.387091	0.580745	0.085604
H297	H	-0.053758	0.914079	0.418938
H298	H	-1.056655	0.404473	-0.940235
H299	H	-0.723321	0.737806	-0.606901
H300	H	-0.389988	1.071139	-0.273568
H301	H	-0.236421	0.247442	-0.247765
H302	H	0.096912	0.580775	0.085569
H303	H	0.430245	0.914109	0.418902
