data_functionalizedCrystal
_audit_creation_method	'MofGen! by Chris Wilmer'
_symmetry_space_group_name_H-M	'P1'
_symmetry_Int_Tables_number	1
_symmetry_cell_setting	triclinic
loop_
_symmetry_equiv_pos_as_xyz
  x,y,z
_cell_length_a	19.121241
_cell_length_b	19.121063
_cell_length_c	13.032268
_cell_angle_alpha	80.752502
_cell_angle_beta	85.573556
_cell_angle_gamma	95.003121
loop_
_atom_site_label
_atom_site_type_symbol
_atom_site_fract_x
_atom_site_fract_y
_atom_site_fract_z
Zn1	Zn	1.003683	-0.294326	0.673316
Zn2	Zn	1.503683	0.205674	1.173316
Zn3	Zn	1.013522	-0.397065	0.505708
Zn4	Zn	1.513522	0.102935	1.005708
Zn5	Zn	0.902239	-0.283152	0.491433
Zn6	Zn	1.402239	0.216848	0.991433
Zn7	Zn	0.880967	-0.416957	0.673227
Zn8	Zn	1.380967	0.083043	1.173227
O9	O	0.950103	-0.347875	0.585921
O10	O	1.450103	0.152125	1.085921
O11	O	1.102918	-0.304305	0.657094
O12	O	1.602918	0.195695	1.157094
O13	O	1.011781	-0.368953	0.357589
O14	O	1.511781	0.131047	0.857589
O15	O	0.920481	-0.185639	0.509623
O16	O	1.420481	0.314361	1.009623
O17	O	1.110146	-0.379788	0.533953
O18	O	1.610146	0.120212	1.033953
O19	O	0.995012	-0.193849	0.643252
O20	O	1.495012	0.306151	1.143252
O21	O	0.930022	-0.285262	0.347101
O22	O	1.430022	0.214738	0.847101
O23	O	0.801488	-0.304550	0.509537
O24	O	1.301488	0.195450	1.009537
O25	O	0.884225	-0.413691	0.819464
O26	O	1.384225	0.086309	1.319464
O27	O	0.785859	-0.402856	0.643100
O28	O	1.285859	0.097144	1.143100
O29	O	0.974384	-0.323594	0.819530
O30	O	1.474384	0.176406	1.319530
O31	O	0.991153	-0.498699	0.533867
O32	O	1.491153	0.001301	1.033867
O33	O	0.893765	-0.513313	0.656942
O34	O	1.393765	-0.013313	1.156942
C35	C	0.768281	-0.354650	0.574761
C36	C	1.268281	0.145350	1.074761
C37	C	0.690494	-0.357568	0.570012
C38	C	1.190494	0.142432	1.070012
C39	C	0.941235	-0.531675	0.596968
C40	C	1.441235	-0.031675	1.096968
C41	C	0.937503	-0.610307	0.601733
C42	C	1.437503	-0.110307	1.101733
C43	C	0.650175	-0.319720	0.632000
C44	C	1.150175	0.180280	1.132000
C45	C	0.577086	-0.322457	0.627529
C46	C	1.077086	0.177543	1.127529
C47	C	0.544319	-0.363047	0.561075
C48	C	1.044319	0.136953	1.061075
C49	C	0.584644	-0.400896	0.499080
C50	C	1.084644	0.099104	0.999080
C51	C	0.657732	-0.398154	0.503546
C52	C	1.157732	0.101846	1.003546
C53	C	0.323831	-0.373283	0.544372
C54	C	0.823831	0.126717	1.044372
C55	C	0.250738	-0.376024	0.539912
C56	C	0.750738	0.123976	1.039912
C57	C	0.243185	-0.297584	0.668361
C58	C	0.743185	0.202416	1.168361
C59	C	0.316274	-0.294849	0.672826
C60	C	0.816274	0.205151	1.172826
C61	C	0.356594	-0.332695	0.610827
C62	C	0.856594	0.167305	1.110827
C63	C	0.469611	-0.365847	0.556505
C64	C	0.969611	0.134153	1.056505
C65	C	0.431301	-0.329890	0.615391
C66	C	0.931301	0.170110	1.115391
C67	C	0.986484	-0.639619	0.539950
C68	C	1.486484	-0.139619	1.039950
C69	C	0.982977	-0.713503	0.544438
C70	C	1.482977	-0.213503	1.044438
C71	C	0.930485	-0.758072	0.610703
C72	C	1.430485	-0.258072	1.110703
C73	C	0.881502	-0.728755	0.672493
C74	C	1.381502	-0.228755	1.172493
C75	C	0.885012	-0.654873	0.668010
C76	C	1.385012	-0.154873	1.168010
C77	C	0.917350	-0.981529	0.627446
C78	C	1.417350	-0.481529	1.127446
C79	C	0.913842	-1.055416	0.631922
C80	C	1.413842	-0.555416	1.131922
C81	C	1.015318	-1.040158	0.503868
C82	C	1.515318	-0.540158	1.003868
C83	C	1.018821	-0.966275	0.499386
C84	C	1.518821	-0.466275	0.999386
C85	C	0.969840	-0.936965	0.561180
C86	C	1.469840	-0.436965	1.061180
C87	C	0.926898	-0.833593	0.615289
C88	C	1.426898	-0.333593	1.115289
C89	C	0.973431	-0.861446	0.556599
C90	C	1.473431	-0.361446	1.056599
C91	C	1.132634	-0.341074	0.597126
C92	C	1.632634	0.158926	1.097126
C93	C	1.210418	-0.338176	0.601900
C94	C	1.710418	0.161824	1.101900
C95	C	0.925834	-0.372108	0.858472
C96	C	1.425834	0.127892	1.358472
C97	C	0.915492	-0.382435	0.974617
C98	C	1.415492	0.117565	1.474617
C99	C	0.959022	-0.163358	0.574855
C100	C	1.459022	0.336642	1.074855
C101	C	0.962823	-0.084728	0.570139
C102	C	1.462823	0.415272	1.070139
C103	C	0.974320	-0.323684	0.314430
C104	C	1.474320	0.176316	0.814430
C105	C	0.984807	-0.313153	0.198282
C106	C	1.484807	0.186847	0.698282
C107	C	0.955491	-0.342460	1.026430
C108	C	1.455491	0.157540	1.526430
C109	C	0.944803	-0.353133	1.146472
C110	C	1.444803	0.146867	1.646472
H111	H	0.676848	-0.286669	0.686117
H112	H	1.176848	0.213331	1.186117
H113	H	0.902639	-0.395255	1.190978
H114	H	1.402639	0.104745	1.690978
H115	H	1.026963	-0.271022	1.153776
H116	H	1.526963	0.228978	1.653776
Br117	Br	1.057720	-0.579138	0.450004
Br118	Br	1.557720	-0.079138	0.950004
Br119	Br	0.475773	-0.274802	0.705571
Br120	Br	0.975773	0.225198	1.205571
H121	H	1.022862	-0.737365	0.494127
H122	H	1.522862	-0.237365	0.994127
Br123	Br	0.810268	-0.789242	0.762435
Br124	Br	1.310268	-0.289242	1.262435
Br125	Br	1.025737	-0.272227	0.952250
Br126	Br	1.525737	0.227773	1.452250
Br127	Br	1.090070	-0.905793	0.409465
Br128	Br	1.590070	-0.405793	0.909465
Br129	Br	0.425134	-0.420931	0.466319
Br130	Br	0.925134	0.079069	0.966319
H131	H	0.845128	-0.631009	0.718321
H132	H	1.345128	-0.131009	1.218321
Br133	Br	1.044671	-0.800959	0.466676
Br134	Br	1.544671	-0.300959	0.966676
Br135	Br	1.081791	-1.079940	0.420015
Br136	Br	1.581791	-0.579940	0.920015
Br137	Br	0.842588	-1.115902	0.721841
Br138	Br	1.342588	-0.615902	1.221841
Br139	Br	0.206264	-0.431136	0.449749
Br140	Br	0.706264	0.068864	0.949749
Br141	Br	0.855662	-0.894086	0.705221
Br142	Br	1.355662	-0.394086	1.205221
H143	H	0.877467	-0.957671	0.677759
H144	H	1.377467	-0.457671	1.177759
Br145	Br	0.845220	-0.452642	1.048793
Br146	Br	1.345220	0.047358	1.548793
H147	H	0.544260	-0.291639	0.678009
H148	H	1.044260	0.208361	1.178009
Br149	Br	0.712453	-0.449520	0.419414
Br150	Br	1.212453	0.050480	0.919414
Br151	Br	0.360738	-0.239769	0.763028
Br152	Br	0.860738	0.260231	1.263028
H153	H	0.356651	-0.404101	0.493889
H154	H	0.856651	0.095899	0.993889
Br155	Br	0.540176	-0.455976	0.408881
Br156	Br	1.040176	0.044024	0.908881
Br157	Br	0.188463	-0.246224	0.752497
Br158	Br	0.688463	0.253776	1.252497
