data_functionalizedCrystal
_audit_creation_method	'MofGen! by Chris Wilmer'
_symmetry_space_group_name_H-M	'P1'
_symmetry_Int_Tables_number	1
_symmetry_cell_setting	triclinic
loop_
_symmetry_equiv_pos_as_xyz
  x,y,z
_cell_length_a	10.723024
_cell_length_b	15.944551
_cell_length_c	9.798715
_cell_angle_alpha	89.995900
_cell_angle_beta	89.996609
_cell_angle_gamma	83.983304
loop_
_atom_site_label
_atom_site_type_symbol
_atom_site_fract_x
_atom_site_fract_y
_atom_site_fract_z
O1	O	1.655699	0.117808	-0.113485
O2	O	1.292404	0.129085	-0.113490
O3	O	1.483972	0.001228	-0.113475
O4	O	1.464131	0.245664	-0.113500
O5	O	1.483958	0.001228	0.113507
O6	O	1.292390	0.129084	0.113492
O7	O	1.655685	0.117808	0.113497
Zn8	Zn	1.474035	0.123446	0.149533
Zn9	Zn	1.474054	0.123446	-0.149526
O10	O	1.464116	0.245664	0.113482
C11	C	1.245908	0.128264	0.000000
C12	C	1.107384	0.125809	-0.000001
C13	C	1.031498	0.197350	-0.000009
C14	C	0.888327	0.194814	-0.000011
C15	C	1.483141	-0.030070	0.000016
C16	C	1.480672	-0.123331	0.000017
C17	C	1.356026	-0.338901	-0.000004
C18	C	1.413901	-0.399587	0.111913
C19	C	1.476205	-0.294082	0.000006
C20	C	1.413943	-0.399570	-0.111874
C21	C	1.471880	-0.459020	-0.000010
C22	C	1.534112	-0.353540	0.112015
C23	C	1.534137	-0.353517	-0.111872
C24	C	1.592099	-0.414184	0.000072
C25	C	1.478692	-0.199066	0.000016
C26	C	1.469402	-0.554035	-0.000011
C27	C	1.702181	0.118629	0.000003
C28	C	1.840704	0.121084	-0.000004
C29	C	1.464947	0.276963	-0.000012
C30	C	1.467417	0.370223	-0.000022
N31	N	1.474031	0.123445	0.353632
N32	N	1.474067	0.123441	-0.353626
C33	C	1.554469	0.069525	0.421415
C34	C	1.554489	0.069522	0.578578
H35	H	1.066360	0.062682	-0.000030
C36	C	1.647484	0.007161	0.342649
H37	H	1.697947	-0.026672	0.405556
H38	H	1.699510	0.037622	0.286889
H39	H	1.602373	-0.027956	0.286925
H40	H	1.584893	-0.333259	0.206736
H41	H	1.623359	0.023362	0.636869
H42	H	1.072523	0.260477	-0.000008
H43	H	1.691940	-0.446772	0.000137
H44	H	1.405203	0.169609	0.588092
C45	C	0.928770	0.038337	-0.000002
H46	H	0.880319	-0.008249	-0.000009
H47	H	0.980160	0.036100	0.079148
H48	H	0.980157	0.036107	-0.079169
H49	H	1.363064	-0.419986	0.206528
H50	H	0.823120	0.256060	-0.000024
H51	H	1.256273	-0.306164	0.000106
H52	H	1.405176	0.169603	0.411951
H53	H	1.363103	-0.419938	-0.206497
C54	C	1.602750	-0.325919	-0.239691
H55	H	1.559933	-0.341507	-0.319137
H56	H	1.686142	-0.352737	-0.240495
H57	H	1.604474	-0.266476	-0.238314
