data_functionalizedCrystal
_audit_creation_method	'MofGen! by Chris Wilmer'
_symmetry_space_group_name_H-M	'P1'
_symmetry_Int_Tables_number	1
_symmetry_cell_setting	triclinic
loop_
_symmetry_equiv_pos_as_xyz
  x,y,z
_cell_length_a	13.897449
_cell_length_b	13.897447
_cell_length_c	19.076919
_cell_angle_alpha	87.725848
_cell_angle_beta	87.720573
_cell_angle_gamma	90.020357
loop_
_atom_site_label
_atom_site_type_symbol
_atom_site_fract_x
_atom_site_fract_y
_atom_site_fract_z
Zn1	Zn	1.452731	-0.405928	0.397992
Zn2	Zn	1.952731	0.094072	0.897992
Zn3	Zn	1.459113	-0.560755	0.280304
Zn4	Zn	1.959113	-0.060755	0.780304
Zn5	Zn	1.297913	-0.399478	0.280308
Zn6	Zn	1.797913	0.100522	0.780308
Zn7	Zn	1.291399	-0.567183	0.397956
Zn8	Zn	1.791399	-0.067183	0.897956
O9	O	1.375289	-0.483336	0.339140
O10	O	1.875289	0.016664	0.839140
O11	O	1.588558	-0.426476	0.382394
O12	O	2.088558	0.073524	0.882394
O13	O	1.443127	-0.533971	0.181815
O14	O	1.943127	-0.033971	0.681815
O15	O	1.318506	-0.265353	0.295936
O16	O	1.818506	0.234647	0.795936
O17	O	1.593248	-0.540226	0.295929
O18	O	2.093248	-0.040226	0.795929
O19	O	1.432249	-0.270092	0.382398
O20	O	1.932249	0.229908	0.882398
O21	O	1.324694	-0.415482	0.181818
O22	O	1.824694	0.084518	0.681818
O23	O	1.162068	-0.421715	0.295901
O24	O	1.662068	0.078285	0.795901
O25	O	1.307402	-0.551183	0.496450
O26	O	1.807402	-0.051183	0.996450
O27	O	1.157282	-0.544928	0.382336
O28	O	1.657282	-0.044928	0.882336
O29	O	1.425932	-0.432709	0.496477
O30	O	1.925932	0.067291	0.996477
O31	O	1.436810	-0.696588	0.295894
O32	O	1.936810	-0.196588	0.795894
O33	O	1.313591	-0.701311	0.382332
O34	O	1.813591	-0.201311	0.882332
C35	C	1.124676	-0.483320	0.339116
C36	C	1.624676	0.016680	0.839116
C37	C	1.017462	-0.483337	0.339122
C38	C	1.517462	0.016663	0.839122
C39	C	0.930391	-0.483341	0.339133
C40	C	1.430391	0.016659	0.839133
C41	C	0.821158	-0.483349	0.339155
C42	C	1.321158	0.016651	0.839155
C43	C	1.375212	-0.733950	0.339124
C44	C	1.875212	-0.233950	0.839124
C45	C	1.375265	-0.841164	0.339140
C46	C	1.875265	-0.341164	0.839140
C47	C	1.375311	-0.928235	0.339156
C48	C	1.875311	-0.428235	0.839156
C49	C	1.375378	-1.037468	0.339174
C50	C	1.875378	-0.537468	0.839174
C51	C	1.626881	-0.483353	0.339165
C52	C	2.126881	0.016647	0.839165
C53	C	1.734094	-0.483360	0.339176
C54	C	2.234094	0.016640	0.839176
C55	C	1.365229	-0.493383	0.522714
C56	C	1.865229	0.006617	1.022714
C57	C	1.360942	-0.497664	0.600943
C58	C	1.860942	0.002336	1.100943
C59	C	1.375392	-0.231745	0.339172
C60	C	1.875392	0.268255	0.839172
C61	C	1.375436	-0.124532	0.339185
C62	C	1.875436	0.375468	0.839185
C63	C	1.385366	-0.473259	0.156280
C64	C	1.885366	0.026741	0.656280
C65	C	1.389840	-0.468706	0.078052
C66	C	1.889840	0.031294	0.578052
C67	C	1.420637	-0.437995	0.637710
C68	C	1.920637	0.062005	1.137710
C69	C	1.416597	-0.442014	0.711214
C70	C	1.916597	0.057986	1.211214
C71	C	1.352866	-0.505707	0.747949
C72	C	1.852866	-0.005707	1.247949
C73	C	1.293164	-0.565378	0.711177
C74	C	1.793164	-0.065378	1.211177
C75	C	1.297200	-0.561354	0.637675
C76	C	1.797200	-0.061354	1.137675
C77	C	1.334174	-0.524353	0.967777
C78	C	1.834174	-0.024353	1.467777
C79	C	1.330145	-0.528375	1.041285
C80	C	1.830145	-0.028375	1.541285
C81	C	1.453576	-0.405009	1.041316
C82	C	1.953576	0.094991	1.541316
C83	C	1.457611	-0.400994	0.967812
C84	C	1.957611	0.099006	1.467812
C85	C	1.397905	-0.460662	0.931047
C86	C	1.897905	0.039338	1.431047
N87	N	1.348737	-0.509819	0.823082
N88	N	1.848737	-0.009819	1.323082
N89	N	1.402030	-0.456544	0.855915
N90	N	1.902030	0.043456	1.355915
H91	H	1.465209	-0.393428	0.741146
H92	H	1.965209	0.106572	1.241146
O93	O	1.231338	-0.627223	0.746969
O94	O	1.731338	-0.127223	1.246969
C95	C	1.240559	-0.617966	0.819729
C96	C	1.740559	-0.117966	1.319729
H97	H	1.314462	-0.586933	0.829784
H98	H	1.814462	-0.086933	1.329784
H99	H	1.182223	-0.567736	0.840586
H100	H	1.682223	-0.067736	1.340586
C101	C	1.138836	-0.755744	0.845100
C102	C	1.638836	-0.255744	1.345100
C103	C	1.229608	-0.717636	0.857450
C104	C	1.729608	-0.217636	1.357450
H105	H	1.132077	-0.817223	0.868370
H106	H	1.632077	-0.317223	1.368370
H107	H	1.132620	-0.761979	0.796081
H108	H	1.632620	-0.261979	1.296081
H109	H	1.090233	-0.713876	0.862482
H110	H	1.590233	-0.213876	1.362482
H111	H	1.278209	-0.759498	0.840061
H112	H	1.778209	-0.259498	1.340061
H113	H	1.235832	-0.711410	0.906468
H114	H	1.735832	-0.211410	1.406468
H115	H	1.285572	-0.572953	0.937851
H116	H	1.785572	-0.072953	1.437851
H117	H	1.248580	-0.609933	0.607740
H118	H	1.748580	-0.109933	1.107740
O119	O	1.482647	-0.376257	0.601995
O120	O	1.982647	0.123743	1.101995
C121	C	1.547247	-0.428842	0.559465
C122	C	2.047247	0.071158	1.059465
H123	H	1.551965	-0.506025	0.581605
H124	H	2.051965	-0.006025	1.081605
H125	H	1.520478	-0.429113	0.503754
H126	H	2.020478	0.070887	1.003754
C127	C	1.641803	-0.286857	0.531164
C128	C	2.141803	0.213143	1.031164
C129	C	1.647604	-0.381652	0.558360
C130	C	2.147604	0.118348	1.058360
H131	H	1.703708	-0.257747	0.530479
H132	H	2.203708	0.242253	1.030479
H133	H	1.598280	-0.251427	0.559815
H134	H	2.098280	0.248573	1.059815
H135	H	1.619493	-0.287096	0.484741
H136	H	2.119493	0.212904	0.984741
H137	H	1.669903	-0.381411	0.604785
H138	H	2.169903	0.118589	1.104785
H139	H	1.691134	-0.417081	0.529716
H140	H	2.191134	0.082919	1.029716
O141	O	1.519409	-0.338967	0.932175
O142	O	2.019409	0.161033	1.432175
C143	C	1.497376	-0.243826	0.950178
C144	C	1.997376	0.256174	1.450178
H145	H	1.419206	-0.240077	0.970364
H146	H	1.919206	0.259923	1.470364
H147	H	1.546744	-0.220962	0.992867
H148	H	2.046744	0.279038	1.492867
C149	C	1.608227	-0.180453	0.860117
C150	C	2.108227	0.319547	1.360117
C151	C	1.512214	-0.175847	0.884904
C152	C	2.012214	0.324153	1.384904
H153	H	1.617383	-0.138519	0.819854
H154	H	2.117383	0.361481	1.319854
H155	H	1.623074	-0.244551	0.847989
H156	H	2.123074	0.255449	1.347989
H157	H	1.649356	-0.161402	0.895697
H158	H	2.149356	0.338598	1.395697
H159	H	1.471088	-0.194910	0.849328
H160	H	1.971088	0.305090	1.349328
H161	H	1.497360	-0.111750	0.897024
H162	H	1.997360	0.388250	1.397024
O163	O	1.511467	-0.347082	1.077140
O164	O	2.011467	0.152918	1.577140
C165	C	1.494260	-0.364305	1.149892
C166	C	1.994260	0.135695	1.649892
H167	H	1.419257	-0.396443	1.159917
H168	H	1.919257	0.103557	1.659917
H169	H	1.550310	-0.416814	1.170753
H170	H	2.050310	0.083186	1.670753
C171	C	1.593182	-0.229300	1.175329
C172	C	2.093182	0.270700	1.675329
C173	C	1.501060	-0.268765	1.187642
C174	C	2.001060	0.231235	1.687642
H175	H	1.597381	-0.170368	1.198616
H176	H	2.097381	0.329632	1.698616
H177	H	1.604779	-0.217698	1.126314
H178	H	2.104779	0.282302	1.626314
H179	H	1.639881	-0.273066	1.192713
H180	H	2.139881	0.226934	1.692713
H181	H	1.454364	-0.225004	1.170250
H182	H	1.954364	0.274996	1.670250
H183	H	1.489456	-0.280357	1.236655
H184	H	1.989456	0.219643	1.736655
H185	H	1.278244	-0.580244	1.071193
H186	H	1.778244	-0.080244	1.571193
