data_functionalizedCrystal
_audit_creation_method	'MofGen! by Chris Wilmer'
_symmetry_space_group_name_H-M	'P1'
_symmetry_Int_Tables_number	1
_symmetry_cell_setting	triclinic
loop_
_symmetry_equiv_pos_as_xyz
  x,y,z
_cell_length_a	16.625547
_cell_length_b	16.625545
_cell_length_c	16.625539
_cell_angle_alpha	90.028107
_cell_angle_beta	90.024822
_cell_angle_gamma	90.025495
loop_
_atom_site_label
_atom_site_type_symbol
_atom_site_fract_x
_atom_site_fract_y
_atom_site_fract_z
Zn1	Zn	1.232663	-0.321001	0.456002
Zn2	Zn	1.565997	0.012332	0.789335
Zn3	Zn	1.899330	0.345665	1.122669
Zn4	Zn	1.232559	-0.455845	0.321170
Zn5	Zn	1.565892	-0.122511	0.654503
Zn6	Zn	1.899226	0.210822	0.987836
Zn7	Zn	1.097825	-0.321030	0.321172
Zn8	Zn	1.431158	0.012304	0.654506
Zn9	Zn	1.764492	0.345637	0.987839
Zn10	Zn	1.097788	-0.455796	0.455949
Zn11	Zn	1.431121	-0.122462	0.789283
Zn12	Zn	1.764455	0.210871	1.122616
O13	O	1.165209	-0.388418	0.388573
O14	O	1.498542	-0.055084	0.721907
O15	O	1.831876	0.278249	1.055240
O16	O	1.345482	-0.338897	0.438137
O17	O	1.678815	-0.005564	0.771470
O18	O	2.012148	0.327769	1.104804
O19	O	1.214658	-0.437993	0.208338
O20	O	1.547992	-0.104660	0.541671
O21	O	1.881325	0.228673	0.875004
O22	O	1.115771	-0.208193	0.339081
O23	O	1.449104	0.125140	0.672414
O24	O	1.782437	0.458473	1.005748
O25	O	1.345405	-0.437966	0.339076
O26	O	1.678739	-0.104633	0.672410
O27	O	2.012072	0.228701	1.005743
O28	O	1.214836	-0.208173	0.438140
O29	O	1.548169	0.125161	0.771473
O30	O	1.881502	0.458494	1.104806
O31	O	1.115670	-0.338945	0.208340
O32	O	1.449003	-0.005612	0.541673
O33	O	1.782336	0.327721	0.875006
O34	O	0.984988	-0.338898	0.339030
O35	O	1.318321	-0.005564	0.672364
O36	O	1.651654	0.327769	1.005697
O37	O	1.115708	-0.437883	0.568789
O38	O	1.449041	-0.104549	0.902122
O39	O	1.782374	0.228784	1.235456
O40	O	0.984961	-0.437910	0.438050
O41	O	1.318294	-0.104577	0.771384
O42	O	1.651627	0.228757	1.104717
O43	O	1.214800	-0.338850	0.568827
O44	O	1.548133	-0.005517	0.902161
O45	O	1.881467	0.327817	1.235494
O46	O	1.214623	-0.568671	0.339025
O47	O	1.547956	-0.235337	0.672359
O48	O	1.881289	0.097996	1.005692
O49	O	1.115607	-0.568635	0.438048
O50	O	1.448940	-0.235301	0.771381
O51	O	1.782274	0.098032	1.104714
C52	C	0.955718	-0.388402	0.388535
C53	C	1.289051	-0.055069	0.721869
C54	C	1.622385	0.278264	1.055202
C55	C	0.866097	-0.388415	0.388538
C56	C	1.199430	-0.055082	0.721871
C57	C	1.532764	0.278252	1.055205
C58	C	0.793314	-0.388416	0.388548
C59	C	1.126648	-0.055083	0.721881
C60	C	1.459981	0.278250	1.055215
C61	C	0.702006	-0.388421	0.388568
C62	C	1.035339	-0.055087	0.721902
C63	C	1.368673	0.278246	1.055235
C64	C	0.629230	-0.388428	0.388589
C65	C	0.962563	-0.055095	0.721922
C66	C	1.295896	0.278239	1.055255
C67	C	0.537915	-0.388434	0.388608
C68	C	0.871249	-0.055100	0.721941
C69	C	1.204582	0.278233	1.055275
C70	C	1.165121	-0.597909	0.388548
C71	C	1.498455	-0.264575	0.721881
C72	C	1.831788	0.068758	1.055215
C73	C	1.165158	-0.687530	0.388564
C74	C	1.498491	-0.354196	0.721897
C75	C	1.831824	-0.020863	1.055231
C76	C	1.165189	-0.760312	0.388580
C77	C	1.498522	-0.426979	0.721913
C78	C	1.831856	-0.093646	1.055247
C79	C	1.165236	-0.851621	0.388598
C80	C	1.498569	-0.518287	0.721931
C81	C	1.831902	-0.184954	1.055265
C82	C	1.165278	-0.924397	0.388608
C83	C	1.498611	-0.591064	0.721942
C84	C	1.831944	-0.257730	1.055275
C85	C	1.165324	-1.015711	0.388625
C86	C	1.498657	-0.682378	0.721958
C87	C	1.831990	-0.349045	1.055291
C88	C	1.375518	-0.388434	0.388612
C89	C	1.708851	-0.055101	0.721945
C90	C	2.042184	0.278233	1.055279
C91	C	1.465139	-0.388441	0.388629
C92	C	1.798472	-0.055108	0.721962
C93	C	2.131806	0.278226	1.055295
C94	C	1.165261	-0.388358	0.598882
C95	C	1.498595	-0.055024	0.932216
C96	C	1.831928	0.278309	1.265549
C97	C	1.165284	-0.388332	0.688504
C98	C	1.498617	-0.054999	1.021837
C99	C	1.831950	0.278334	1.355170
C100	C	1.165319	-0.178109	0.388617
C101	C	1.498652	0.155224	0.721950
C102	C	1.831985	0.488558	1.055283
C103	C	1.165366	-0.088488	0.388635
C104	C	1.498699	0.244846	0.721968
C105	C	1.832032	0.578179	1.055302
C106	C	1.165203	-0.388419	0.179083
C107	C	1.498536	-0.055086	0.512416
C108	C	1.831870	0.278247	0.845749
C109	C	1.165337	-0.388218	0.089462
C110	C	1.498670	-0.054885	0.422795
C111	C	1.832004	0.278449	0.756129
C112	C	1.165321	-0.388242	1.016679
C113	C	1.498654	-0.054909	1.350013
C114	C	1.831987	0.278425	1.683346
C115	C	1.165308	-0.388270	0.925371
C116	C	1.498642	-0.054936	1.258704
C117	C	1.831975	0.278397	1.592038
C118	C	1.165303	-0.388288	0.852594
C119	C	1.498636	-0.054954	1.185928
C120	C	1.831969	0.278379	1.519261
C121	C	1.165289	-0.388314	0.761280
C122	C	1.498623	-0.054981	1.094613
C123	C	1.831956	0.278353	1.427947
