data_functionalizedCrystal
_audit_creation_method	'MofGen! by Chris Wilmer'
_symmetry_space_group_name_H-M	'P1'
_symmetry_Int_Tables_number	1
_symmetry_cell_setting	triclinic
loop_
_symmetry_equiv_pos_as_xyz
  x,y,z
_cell_length_a	17.038272
_cell_length_b	17.038272
_cell_length_c	18.366186
_cell_angle_alpha	89.993834
_cell_angle_beta	89.996724
_cell_angle_gamma	91.111556
loop_
_atom_site_label
_atom_site_type_symbol
_atom_site_fract_x
_atom_site_fract_y
_atom_site_fract_z
O1	O	1.048760	0.170538	-0.060459
O2	O	0.820948	0.167830	-0.060481
O3	O	0.933500	0.055279	-0.060464
O4	O	0.936208	0.283090	-0.060476
O5	O	0.933479	0.055271	0.060635
O6	O	0.820927	0.167823	0.060619
O7	O	1.048739	0.170531	0.060640
Zn8	Zn	0.934830	0.169176	0.079857
Zn9	Zn	0.934857	0.169185	-0.079697
O10	O	0.936187	0.283083	0.060624
C11	C	0.791645	0.165364	0.000066
C12	C	0.704361	0.158016	0.000058
C13	C	0.658752	0.225479	0.000056
C14	C	0.576740	0.218570	0.000066
C15	C	0.540339	0.144197	0.000074
C16	C	0.585954	0.076728	0.000079
C17	C	0.667965	0.083638	0.000074
C18	C	0.292951	0.119787	0.000095
C19	C	0.210935	0.112882	0.000098
C20	C	0.201726	0.254725	0.000086
C21	C	0.283739	0.261628	0.000077
C22	C	0.329347	0.194159	0.000085
C23	C	0.456510	0.137133	0.000082
C24	C	0.413174	0.201224	0.000082
C25	C	0.931027	0.025982	0.000085
C26	C	0.923679	-0.061301	0.000084
C27	C	0.991142	-0.106911	0.000091
C28	C	0.984233	-0.188923	0.000084
C29	C	0.909860	-0.225324	0.000074
C30	C	0.842391	-0.179708	0.000065
C31	C	0.849301	-0.097698	0.000067
C32	C	0.885449	-0.472712	0.000062
C33	C	0.878545	-0.554728	0.000062
C34	C	1.020387	-0.563937	0.000079
C35	C	1.027291	-0.481924	0.000086
C36	C	0.959822	-0.436316	0.000073
C37	C	0.902796	-0.309153	0.000069
C38	C	0.966886	-0.352488	0.000073
C39	C	1.078042	0.172997	0.000092
C40	C	1.165326	0.180346	0.000095
C41	C	0.938660	0.312379	0.000073
C42	C	0.946008	0.399663	0.000069
N43	N	0.934817	0.169169	0.188748
N44	N	0.934876	0.169186	-0.188588
C45	C	0.984674	0.119359	0.226855
C46	C	0.984679	0.119355	0.303083
C47	C	0.934834	0.169177	0.341200
C48	C	0.884967	0.218991	0.303084
C49	C	0.884959	0.218987	0.226857
C50	C	0.929303	0.240015	0.461957
C51	C	0.929317	0.240021	0.538182
C52	C	0.934857	0.169188	0.576308
C53	C	0.940400	0.098348	0.538200
C54	C	0.940391	0.098345	0.461974
C55	C	0.934838	0.169186	0.423855
C56	C	0.984722	0.119370	0.697071
C57	C	0.984722	0.119365	0.773300
C58	C	0.885015	0.219008	0.773299
C59	C	0.885011	0.219005	0.697071
C60	C	0.934869	0.169188	0.658961
H61	H	0.164583	0.309653	0.000080
F62	F	1.046037	-0.313746	0.000079
F63	F	0.341480	0.047979	0.000104
F64	F	0.799383	-0.593467	0.000055
F65	F	1.056038	-0.237460	0.000093
F66	F	0.813642	-0.424182	0.000046
H67	H	1.087853	-0.452293	0.000094
F68	F	0.322473	0.340786	0.000064
F69	F	1.037784	0.066343	0.813858
F70	F	0.451917	0.280375	0.000077
H71	H	1.075316	-0.601079	0.000089
H72	H	0.556310	0.016172	0.000096
F73	F	1.037733	0.066336	0.186298
F74	F	0.831892	0.272004	0.186299
F75	F	0.763237	-0.218451	0.000047
H76	H	0.794365	-0.060564	0.000061
F77	F	1.037746	0.066337	0.343647
H78	H	0.842241	-0.338800	0.000063
F79	F	0.946283	0.022954	0.421419
F80	F	0.946301	0.022958	0.578771
H81	H	0.426863	0.076578	0.000109
F82	F	1.037782	0.066346	0.656511
H83	H	0.705099	0.028702	0.000076
F84	F	0.831962	0.272026	0.813862
F85	F	0.831950	0.272024	0.656511
H86	H	1.051705	-0.077279	0.000103
H87	H	0.924809	0.297703	0.569203
H88	H	0.924778	0.297699	0.430920
F89	F	0.831917	0.272012	0.343651
H90	H	0.539608	0.273507	0.000063
F91	F	0.697485	0.304638	0.000042
H92	H	0.181300	0.052315	0.000103
