data_functionalizedCrystal
_audit_creation_method	'MofGen! by Chris Wilmer'
_symmetry_space_group_name_H-M	'P1'
_symmetry_Int_Tables_number	1
_symmetry_cell_setting	triclinic
loop_
_symmetry_equiv_pos_as_xyz
  x,y,z
_cell_length_a	12.827893
_cell_length_b	16.625546
_cell_length_c	16.625539
_cell_angle_alpha	89.969603
_cell_angle_beta	89.981396
_cell_angle_gamma	90.022439
loop_
_atom_site_label
_atom_site_type_symbol
_atom_site_fract_x
_atom_site_fract_y
_atom_site_fract_z
Zn1	Zn	1.597611	-0.321001	-0.455855
Zn2	Zn	1.847611	-0.071001	-0.205855
Zn3	Zn	2.097611	0.178999	0.044145
Zn4	Zn	2.347611	0.428999	0.294145
Zn5	Zn	1.597486	-0.455844	-0.321018
Zn6	Zn	1.847486	-0.205844	-0.071018
Zn7	Zn	2.097486	0.044156	0.178982
Zn8	Zn	2.347486	0.294156	0.428982
Zn9	Zn	1.422855	-0.321029	-0.321040
Zn10	Zn	1.672855	-0.071029	-0.071040
Zn11	Zn	1.922855	0.178971	0.178960
Zn12	Zn	2.172855	0.428971	0.428960
Zn13	Zn	1.422816	-0.455795	-0.455812
Zn14	Zn	1.672816	-0.205795	-0.205812
Zn15	Zn	1.922816	0.044205	0.044188
Zn16	Zn	2.172816	0.294205	0.294188
O17	O	1.510192	-0.388417	-0.388431
O18	O	1.760192	-0.138417	-0.138431
O19	O	2.010192	0.111583	0.111569
O20	O	2.260192	0.361583	0.361569
O21	O	1.743831	-0.338897	-0.437977
O22	O	1.993831	-0.088897	-0.187977
O23	O	2.243831	0.161103	0.062023
O24	O	2.493831	0.411103	0.312023
O25	O	1.574284	-0.437993	-0.208188
O26	O	1.824284	-0.187993	0.041812
O27	O	2.074284	0.062007	0.291812
O28	O	2.324284	0.312007	0.541812
O29	O	1.446105	-0.208193	-0.338952
O30	O	1.696105	0.041807	-0.088952
O31	O	1.946105	0.291807	0.161048
O32	O	2.196105	0.541807	0.411048
O33	O	1.743739	-0.437965	-0.338913
O34	O	1.993739	-0.187965	-0.088913
O35	O	2.243739	0.062035	0.161087
O36	O	2.493739	0.312035	0.411087
O37	O	1.574498	-0.208172	-0.438000
O38	O	1.824498	0.041828	-0.188000
O39	O	2.074498	0.291828	0.062000
O40	O	2.324498	0.541828	0.312000
O41	O	1.445983	-0.338945	-0.208205
O42	O	1.695983	-0.088945	0.041795
O43	O	1.945983	0.161055	0.291795
O44	O	2.195983	0.411055	0.541795
O45	O	1.276614	-0.338897	-0.338910
O46	O	1.526614	-0.088897	-0.088910
O47	O	1.776614	0.161103	0.161090
O48	O	2.026614	0.411103	0.411090
O49	O	1.446040	-0.437882	-0.568650
O50	O	1.696040	-0.187882	-0.318650
O51	O	1.946040	0.062118	-0.068650
O52	O	2.196040	0.312118	0.181350
O53	O	1.276585	-0.437909	-0.437926
O54	O	1.526585	-0.187909	-0.187926
O55	O	1.776585	0.062091	0.062074
O56	O	2.026585	0.312091	0.312074
O57	O	1.574461	-0.338849	-0.568682
O58	O	1.824461	-0.088849	-0.318682
O59	O	2.074461	0.161151	-0.068682
O60	O	2.324461	0.411151	0.181318
O61	O	1.574247	-0.568670	-0.338871
O62	O	1.824247	-0.318670	-0.088871
O63	O	2.074247	-0.068670	0.161129
O64	O	2.324247	0.181330	0.411129
O65	O	1.445918	-0.568634	-0.437904
O66	O	1.695918	-0.318634	-0.187904
O67	O	1.945918	-0.068634	0.062096
O68	O	2.195918	0.181366	0.312096
C69	C	1.238682	-0.388402	-0.388416
C70	C	1.488682	-0.138402	-0.138416
C71	C	1.738682	0.111598	0.111584
C72	C	1.988682	0.361598	0.361584
C73	C	1.122529	-0.388414	-0.388429
C74	C	1.372529	-0.138414	-0.138429
C75	C	1.622529	0.111586	0.111571
C76	C	1.872529	0.361586	0.361571
C77	C	1.070758	-0.437485	-0.437349
C78	C	1.320758	-0.187485	-0.187349
C79	C	1.570758	0.062515	0.062651
C80	C	1.820758	0.312515	0.312651
C81	C	0.950708	-0.437500	-0.437363
C82	C	1.200708	-0.187500	-0.187363
C83	C	1.450708	0.062500	0.062637
C84	C	1.700708	0.312500	0.312637
C85	C	1.510093	-0.597908	-0.388398
C86	C	1.760093	-0.347908	-0.138398
C87	C	2.010093	-0.097908	0.111602
C88	C	2.260093	0.152092	0.361602
C89	C	1.510146	-0.687529	-0.388410
C90	C	1.760146	-0.437529	-0.138410
C91	C	2.010146	-0.187529	0.111590
C92	C	2.260146	0.062471	0.361590
C93	C	1.510329	-1.015705	-0.388494
C94	C	1.760329	-0.765705	-0.138494
C95	C	2.010329	-0.515705	0.111506
C96	C	2.260329	-0.265705	0.361506
C97	C	1.510275	-0.924396	-0.388473
C98	C	1.760275	-0.674396	-0.138473
C99	C	2.010275	-0.424396	0.111527
C100	C	2.260275	-0.174396	0.361527
C101	C	1.510237	-0.851620	-0.388452
C102	C	1.760237	-0.601620	-0.138452
C103	C	2.010237	-0.351620	0.111548
C104	C	2.260237	-0.101620	0.361548
C105	C	1.510184	-0.760306	-0.388431
C106	C	1.760184	-0.510306	-0.138431
C107	C	2.010184	-0.260306	0.111569
C108	C	2.260184	-0.010306	0.361569
C109	C	1.782762	-0.388433	-0.388447
C110	C	2.032762	-0.138433	-0.138447
C111	C	2.282762	0.111567	0.111553
C112	C	2.532762	0.361567	0.361553
C113	C	1.898915	-0.388440	-0.388454
C114	C	2.148915	-0.138440	-0.138454
C115	C	2.398915	0.111560	0.111546
C116	C	2.648915	0.361560	0.361546
C117	C	1.510260	-0.388357	-0.598740
C118	C	1.760260	-0.138357	-0.348740
C119	C	2.010260	0.111643	-0.098740
C120	C	2.260260	0.361643	0.151260
C121	C	1.510289	-0.388332	-0.688362
C122	C	1.760289	-0.138332	-0.438362
C123	C	2.010289	0.111668	-0.188362
C124	C	2.260289	0.361668	0.061638
C125	C	1.510320	-0.178108	-0.388483
C126	C	1.760320	0.071892	-0.138483
C127	C	2.010320	0.321892	0.111517
C128	C	2.260320	0.571892	0.361517
C129	C	1.510374	-0.088487	-0.388505
C130	C	1.760374	0.161513	-0.138505
C131	C	2.010374	0.411513	0.111495
C132	C	2.260374	0.661513	0.361495
C133	C	1.510337	-0.388241	-1.016537
C134	C	1.760337	-0.138241	-0.766537
C135	C	2.010337	0.111759	-0.516537
C136	C	2.260337	0.361759	-0.266537
C137	C	1.510321	-0.388269	-0.925229
C138	C	1.760321	-0.138269	-0.675229
C139	C	2.010321	0.111731	-0.425229
C140	C	2.260321	0.361731	-0.175229
C141	C	1.510314	-0.388287	-0.852452
C142	C	1.760314	-0.138287	-0.602452
C143	C	2.010314	0.111713	-0.352452
C144	C	2.260314	0.361713	-0.102452
C145	C	1.510296	-0.388313	-0.761138
C146	C	1.760296	-0.138313	-0.511138
C147	C	2.010296	0.111687	-0.261138
C148	C	2.260296	0.361687	-0.011138
C149	C	1.510185	-0.388419	-0.178941
C150	C	1.760185	-0.138419	0.071059
C151	C	2.010185	0.111581	0.321059
C152	C	2.260185	0.361581	0.571059
C153	C	1.510358	-0.388217	-0.089320
C154	C	1.760358	-0.138217	0.160680
C155	C	2.010358	0.111783	0.410680
C156	C	2.260358	0.361783	0.660680
H157	H	1.115312	-0.479483	-0.479225
H158	H	1.365312	-0.229483	-0.229225
H159	H	1.615312	0.020517	0.020775
H160	H	1.865312	0.270517	0.270775
Br161	Br	0.876509	-0.507533	-0.507169
Br162	Br	1.126509	-0.257533	-0.257169
Br163	Br	1.376509	-0.007533	-0.007169
Br164	Br	1.626509	0.242467	0.242831
Br165	Br	0.973107	-0.318419	-0.318633
Br166	Br	1.223107	-0.068419	-0.068633
Br167	Br	1.473107	0.181581	0.181367
Br168	Br	1.723107	0.431581	0.431367
H169	H	1.077975	-0.346410	-0.346560
H170	H	1.327975	-0.096410	-0.096560
H171	H	1.577975	0.153590	0.153440
H172	H	1.827975	0.403590	0.403440
