data_functionalizedCrystal
_audit_creation_method	'MofGen! by Chris Wilmer'
_symmetry_space_group_name_H-M	'P1'
_symmetry_Int_Tables_number	1
_symmetry_cell_setting	triclinic
loop_
_symmetry_equiv_pos_as_xyz
  x,y,z
_cell_length_a	15.944551
_cell_length_b	15.944551
_cell_length_c	12.503572
_cell_angle_alpha	93.522593
_cell_angle_beta	86.485927
_cell_angle_gamma	83.498738
loop_
_atom_site_label
_atom_site_type_symbol
_atom_site_fract_x
_atom_site_fract_y
_atom_site_fract_z
O1	O	1.119362	0.103479	-0.089210
O2	O	1.619362	0.603479	0.410790
O3	O	0.874813	0.116834	-0.089237
O4	O	1.374813	0.616834	0.410763
O5	O	1.003765	-0.012118	-0.089213
O6	O	1.503765	0.487882	0.410787
O7	O	0.990410	0.232431	-0.089234
O8	O	1.490410	0.732431	0.410766
O9	O	0.994067	-0.002404	0.089427
O10	O	1.494067	0.497596	0.589427
O11	O	0.865115	0.126548	0.089403
O12	O	1.365115	0.626548	0.589403
O13	O	1.109664	0.113193	0.089430
O14	O	1.609664	0.613193	0.589430
Cu15	Cu	0.986504	0.120757	0.105728
Cu16	Cu	1.486504	0.620757	0.605728
Cu17	Cu	0.997973	0.109269	-0.105535
Cu18	Cu	1.497973	0.609269	0.394465
O19	O	0.980712	0.242145	0.089406
O20	O	1.480712	0.742145	0.589406
C21	C	0.838671	0.121136	0.000079
C22	C	1.338671	0.621136	0.500079
C23	C	0.745425	0.119473	0.000069
C24	C	1.245425	0.619473	0.500069
C25	C	0.530567	0.035570	0.000097
C26	C	1.030567	0.535570	0.500097
C27	C	0.474329	0.069743	-0.087985
C28	C	0.974329	0.569743	0.412015
C29	C	0.574699	0.116467	0.000082
C30	C	1.074699	0.616467	0.500082
C31	C	0.464789	0.079340	0.088140
C32	C	0.964789	0.579340	0.588140
C33	C	0.409785	0.113557	0.000100
C34	C	0.909785	0.613557	0.500100
C35	C	0.519692	0.150658	-0.088073
C36	C	1.019692	0.650658	0.411927
C37	C	0.510155	0.160247	0.088132
C38	C	1.010155	0.660247	0.588132
C39	C	0.453936	0.194477	0.000028
C40	C	0.953936	0.694477	0.500028
C41	C	0.669702	0.118141	0.000071
C42	C	1.169702	0.618141	0.500071
C43	C	0.314784	0.111889	0.000103
C44	C	0.814784	0.611889	0.500103
C45	C	0.998362	-0.038555	0.000107
C46	C	1.498362	0.461445	0.500107
C47	C	0.996699	-0.131801	0.000107
C48	C	1.496699	0.368199	0.500107
C49	C	0.912796	-0.346659	0.000083
C50	C	1.412796	0.153341	0.500083
C51	C	0.946977	-0.402886	0.088168
C52	C	1.446977	0.097114	0.588168
C53	C	0.993693	-0.302527	0.000099
C54	C	1.493693	0.197473	0.500099
C55	C	0.956557	-0.412447	-0.087957
C56	C	1.456557	0.087553	0.412043
C57	C	0.990782	-0.467441	0.000086
C58	C	1.490782	0.032559	0.500086
C59	C	1.027891	-0.357522	0.088256
C60	C	1.527891	0.142478	0.588256
C61	C	1.037465	-0.367081	-0.087948
C62	C	1.537465	0.132919	0.412052
C63	C	1.071703	-0.423290	0.000158
C64	C	1.571703	0.076710	0.500158
C65	C	0.995367	-0.207524	0.000107
C66	C	1.495367	0.292476	0.500107
C67	C	0.989114	-0.562442	0.000085
C68	C	1.489114	-0.062442	0.500085
C69	C	1.145807	0.108891	0.000111
C70	C	1.645807	0.608891	0.500111
C71	C	1.239052	0.110553	0.000114
C72	C	1.739052	0.610553	0.500114
C73	C	0.986116	0.268581	0.000083
C74	C	1.486116	0.768581	0.500083
C75	C	0.987778	0.361827	0.000076
C76	C	1.487778	0.861827	0.500076
N77	N	0.978444	0.128837	0.254318
N78	N	1.478444	0.628837	0.754318
N79	N	1.006040	0.101183	-0.254126
N80	N	1.506040	0.601183	0.245874
C81	C	0.966586	0.140729	0.473431
C82	C	1.466586	0.640729	0.973431
C83	C	1.017895	0.089294	0.526768
C84	C	1.517895	0.589294	1.026768
C85	C	1.011297	0.095911	0.648690
C86	C	1.511297	0.595911	1.148690
C87	C	0.973183	0.134113	0.351498
C88	C	1.473183	0.634113	0.851498
H89	H	0.440661	0.049158	0.162604
H90	H	0.940661	0.549158	0.662604
H91	H	1.058031	-0.333478	0.162807
H92	H	1.558031	0.166522	0.662807
H93	H	1.066777	0.040290	0.480864
H94	H	1.566777	0.540290	0.980864
O95	O	1.160716	-0.467223	0.000227
O96	O	1.660716	0.032777	0.500227
H97	H	1.190111	-0.445089	0.073414
H98	H	1.690111	0.054911	0.573414
H99	H	0.845644	-0.313347	0.000164
H100	H	1.345644	0.186653	0.500164
H101	H	0.917708	0.189731	0.519330
H102	H	1.417708	0.689731	1.019330
O103	O	0.896302	-0.424156	0.186803
O104	O	1.396302	0.075844	0.686803
H105	H	0.896047	-0.493763	0.186292
H106	H	1.396047	0.006237	0.686292
O107	O	1.088105	-0.345765	-0.186579
O108	O	1.588105	0.154235	0.313421
H109	H	1.058357	-0.367681	-0.259594
H110	H	1.558357	0.132319	0.240406
H111	H	0.563905	-0.031573	-0.000006
H112	H	1.063905	0.468427	0.499994
O113	O	0.453027	0.019062	-0.186613
O114	O	0.953027	0.519062	0.313387
H115	H	0.484001	-0.046872	-0.186426
H116	H	0.984001	0.453128	0.313574
H117	H	0.526244	0.198484	0.162597
H118	H	1.026244	0.698484	0.662597
O119	O	0.551522	0.190545	-0.186848
O120	O	1.051522	0.690545	0.313152
H121	H	0.620993	0.191421	-0.186108
H122	H	1.120993	0.691421	0.313892
H123	H	0.420780	0.261682	-0.000027
H124	H	0.920780	0.761682	0.499973
O125	O	0.916581	-0.444421	-0.186602
O126	O	1.416581	0.055579	0.313398
H127	H	0.850634	-0.413408	-0.186416
H128	H	1.350634	0.086592	0.313584
