data_functionalizedCrystal
_audit_creation_method	'MofGen! by Chris Wilmer'
_symmetry_space_group_name_H-M	'P1'
_symmetry_Int_Tables_number	1
_symmetry_cell_setting	triclinic
loop_
_symmetry_equiv_pos_as_xyz
  x,y,z
_cell_length_a	18.215407
_cell_length_b	10.686285
_cell_length_c	18.215398
_cell_angle_alpha	85.611694
_cell_angle_beta	89.980536
_cell_angle_gamma	85.632014
loop_
_atom_site_label
_atom_site_type_symbol
_atom_site_fract_x
_atom_site_fract_y
_atom_site_fract_z
Zn1	Zn	1.147638	-0.502373	-0.393703
Zn2	Zn	1.397638	-0.252373	-0.143703
Zn3	Zn	1.647638	-0.002373	0.106297
Zn4	Zn	1.897638	0.247627	0.356297
Zn5	Zn	1.157026	-0.713379	-0.261222
Zn6	Zn	1.407026	-0.463379	-0.011222
Zn7	Zn	1.657026	-0.213379	0.238778
Zn8	Zn	1.907026	0.036621	0.488778
Zn9	Zn	1.024573	-0.502405	-0.270649
Zn10	Zn	1.274573	-0.252405	-0.020649
Zn11	Zn	1.524573	-0.002405	0.229351
Zn12	Zn	1.774573	0.247595	0.479351
Zn13	Zn	1.034013	-0.713318	-0.384250
Zn14	Zn	1.284013	-0.463318	-0.134250
Zn15	Zn	1.534013	-0.213318	0.115750
Zn16	Zn	1.784013	0.036682	0.365750
O17	O	1.090812	-0.607869	-0.327456
O18	O	1.340812	-0.357869	-0.077456
O19	O	1.590812	-0.107869	0.172544
O20	O	1.840812	0.142131	0.422544
O21	O	1.251868	-0.530376	-0.376140
O22	O	1.501868	-0.280376	-0.126140
O23	O	1.751868	-0.030376	0.123860
O24	O	2.001868	0.219624	0.373860
O25	O	1.139434	-0.685432	-0.159487
O26	O	1.389434	-0.435432	0.090513
O27	O	1.639434	-0.185432	0.340513
O28	O	1.889434	0.064568	0.590513
O29	O	1.033018	-0.325827	-0.294873
O30	O	1.283018	-0.075827	-0.044873
O31	O	1.533018	0.174173	0.205127
O32	O	1.783018	0.424173	0.455127
O33	O	1.258766	-0.685401	-0.278807
O34	O	1.508766	-0.435401	-0.028807
O35	O	1.758766	-0.185401	0.221193
O36	O	2.008766	0.064599	0.471193
O37	O	1.123433	-0.325803	-0.385280
O38	O	1.373433	-0.075803	-0.135280
O39	O	1.623433	0.174197	0.114720
O40	O	1.873433	0.424197	0.364720
O41	O	1.042121	-0.530430	-0.166412
O42	O	1.292121	-0.280430	0.083588
O43	O	1.542121	-0.030430	0.333588
O44	O	1.792121	0.219570	0.583588
O45	O	0.922840	-0.530371	-0.285707
O46	O	1.172840	-0.280371	-0.035707
O47	O	1.422840	-0.030371	0.214293
O48	O	1.672840	0.219629	0.464293
O49	O	1.049107	-0.685297	-0.488490
O50	O	1.299107	-0.435297	-0.238490
O51	O	1.549107	-0.185297	0.011510
O52	O	1.799107	0.064703	0.261510
O53	O	0.929776	-0.685328	-0.369169
O54	O	1.179776	-0.435328	-0.119169
O55	O	1.429776	-0.185328	0.130831
O56	O	1.679776	0.064672	0.380831
O57	O	1.132587	-0.530317	-0.495435
O58	O	1.382587	-0.280317	-0.245435
O59	O	1.632587	-0.030317	0.004565
O60	O	1.882587	0.219683	0.254565
O61	O	1.148588	-0.889945	-0.269641
O62	O	1.398588	-0.639945	-0.019641
O63	O	1.648588	-0.389945	0.230359
O64	O	1.898588	-0.139945	0.480359
O65	O	1.058211	-0.889901	-0.360029
O66	O	1.308211	-0.639901	-0.110029
O67	O	1.558211	-0.389901	0.139971
O68	O	1.808211	-0.139901	0.389971
C69	C	0.899605	-0.607847	-0.327436
C70	C	1.149605	-0.357847	-0.077436
C71	C	1.399605	-0.107847	0.172564
C72	C	1.649605	0.142153	0.422564
C73	C	0.817807	-0.607869	-0.327443
C74	C	1.067807	-0.357869	-0.077443
C75	C	1.317807	-0.107869	0.172557
C76	C	1.567807	0.142131	0.422557
C77	C	0.633250	-0.688681	-0.370837
C78	C	0.883250	-0.438681	-0.120837
C79	C	1.133250	-0.188681	0.129163
C80	C	1.383250	0.061319	0.379163
C81	C	0.556391	-0.688685	-0.370846
C82	C	0.806391	-0.438685	-0.120846
C83	C	1.056391	-0.188685	0.129154
C84	C	1.306391	0.061315	0.379154
C85	C	0.549128	-0.527079	-0.284089
C86	C	0.799128	-0.277079	-0.034089
C87	C	1.049128	-0.027079	0.215911
C88	C	1.299128	0.222921	0.465911
C89	C	0.625985	-0.527070	-0.284085
C90	C	0.875985	-0.277070	-0.034085
C91	C	1.125985	-0.027070	0.215915
C92	C	1.375985	0.222930	0.465915
C93	C	0.668044	-0.607878	-0.327458
C94	C	0.918044	-0.357878	-0.077458
C95	C	1.168044	-0.107878	0.172542
C96	C	1.418044	0.142122	0.422542
C97	C	0.514329	-0.607891	-0.327471
C98	C	0.764329	-0.357891	-0.077471
C99	C	1.014329	-0.107891	0.172529
C100	C	1.264329	0.142109	0.422529
C101	C	0.430995	-0.607895	-0.327480
C102	C	0.680995	-0.357895	-0.077480
C103	C	0.930995	-0.107895	0.172520
C104	C	1.180995	0.142105	0.422520
C105	C	0.751383	-0.607873	-0.327449
C106	C	1.001383	-0.357873	-0.077449
C107	C	1.251383	-0.107873	0.172551
C108	C	1.501383	0.142127	0.422551
C109	C	1.105463	-0.935707	-0.312803
C110	C	1.355463	-0.685707	-0.062803
C111	C	1.605463	-0.435707	0.187197
C112	C	1.855463	-0.185707	0.437197
C113	C	1.111797	-1.075957	-0.306559
C114	C	1.361797	-0.825957	-0.056559
C115	C	1.611797	-0.575957	0.193441
C116	C	1.861797	-0.325957	0.443441
C117	C	1.282766	-0.607892	-0.327477
C118	C	1.532766	-0.357892	-0.077477
C119	C	1.782766	-0.107892	0.172523
C120	C	2.032766	0.142108	0.422523
C121	C	1.364566	-0.607901	-0.327485
C122	C	1.614566	-0.357901	-0.077485
C123	C	1.864566	-0.107901	0.172515
C124	C	2.114566	0.142099	0.422515
C125	C	1.090853	-0.607796	-0.519412
C126	C	1.340853	-0.357796	-0.269412
C127	C	1.590853	-0.107796	-0.019412
C128	C	1.840853	0.142204	0.230588
C129	C	1.090870	-0.607766	-0.601212
C130	C	1.340870	-0.357766	-0.351212
C131	C	1.590870	-0.107766	-0.101212
C132	C	1.840870	0.142234	0.148788
C133	C	1.076125	-0.278751	-0.342182
C134	C	1.326125	-0.028751	-0.092182
C135	C	1.576125	0.221249	0.157818
C136	C	1.826125	0.471249	0.407818
C137	C	1.069866	-0.138500	-0.348458
C138	C	1.319866	0.111500	-0.098458
C139	C	1.569866	0.361500	0.151542
C140	C	1.819866	0.611500	0.401542
C141	C	1.141567	-0.688319	-0.862675
C142	C	1.391567	-0.438319	-0.612675
C143	C	1.641567	-0.188319	-0.362675
C144	C	1.891567	0.061681	-0.112675
C145	C	1.141558	-0.688363	-0.785815
C146	C	1.391558	-0.438363	-0.535815
C147	C	1.641558	-0.188363	-0.285815
C148	C	1.891558	0.061637	-0.035815
C149	C	1.040217	-0.526968	-0.793009
C150	C	1.290217	-0.276968	-0.543009
C151	C	1.540217	-0.026968	-0.293009
C152	C	1.790217	0.223032	-0.043009
C153	C	1.040223	-0.526932	-0.869868
C154	C	1.290223	-0.276932	-0.619868
C155	C	1.540223	-0.026932	-0.369868
C156	C	1.790223	0.223068	-0.119868
C157	C	1.090903	-0.607605	-0.904699
C158	C	1.340903	-0.357605	-0.654699
C159	C	1.590903	-0.107605	-0.404699
C160	C	1.840903	0.142395	-0.154699
C161	C	1.090887	-0.607686	-0.750980
C162	C	1.340887	-0.357686	-0.500980
C163	C	1.590887	-0.107686	-0.250980
C164	C	1.840887	0.142314	-0.000980
C165	C	1.090877	-0.607733	-0.667644
C166	C	1.340877	-0.357733	-0.417644
C167	C	1.590877	-0.107733	-0.167644
C168	C	1.840877	0.142267	0.082356
C169	C	1.090913	-0.607561	-0.988040
C170	C	1.340913	-0.357561	-0.738040
C171	C	1.590913	-0.107561	-0.488040
C172	C	1.840913	0.142439	-0.238040
C173	C	1.090811	-0.607850	-0.136250
C174	C	1.340811	-0.357850	0.113750
C175	C	1.590811	-0.107850	0.363750
C176	C	1.840811	0.142150	0.613750
C177	C	1.090920	-0.607526	-0.054466
C178	C	1.340920	-0.357526	0.195534
C179	C	1.590920	-0.107526	0.445534
C180	C	1.840920	0.142474	0.695534
H181	H	0.654315	-0.461263	-0.248760
H182	H	0.904315	-0.211263	0.001240
H183	H	1.154315	0.038737	0.251240
H184	H	1.404315	0.288737	0.501240
H185	H	1.182833	-0.754010	-0.891033
H186	H	1.432833	-0.504010	-0.641033
H187	H	1.682833	-0.254010	-0.391033
H188	H	1.932833	-0.004010	-0.141033
Br189	Br	1.001952	-1.048919	-0.416211
Br190	Br	1.251952	-0.798919	-0.166211
Br191	Br	1.501952	-0.548919	0.083789
Br192	Br	1.751952	-0.298919	0.333789
H193	H	0.998962	-0.461204	-0.904085
H194	H	1.248962	-0.211204	-0.654085
H195	H	1.498962	0.038796	-0.404085
H196	H	1.748962	0.288796	-0.154085
Br197	Br	0.509172	-0.798346	-0.429726
Br198	Br	0.759172	-0.548346	-0.179726
Br199	Br	1.009172	-0.298346	0.070274
Br200	Br	1.259172	-0.048346	0.320274
Br201	Br	1.210318	-0.797913	-0.728784
Br202	Br	1.460318	-0.547913	-0.478784
Br203	Br	1.710318	-0.297913	-0.228784
Br204	Br	1.960318	-0.047913	0.021216
H205	H	0.667492	-0.754477	-0.406156
H206	H	0.917492	-0.504477	-0.156156
H207	H	1.167492	-0.254477	0.093844
H208	H	1.417492	-0.004477	0.343844
Br209	Br	0.492044	-0.417417	-0.225229
Br210	Br	0.742044	-0.167417	0.024771
Br211	Br	0.992044	0.082583	0.274771
Br212	Br	1.242044	0.332583	0.524771
Br213	Br	1.179702	-1.165543	-0.238790
Br214	Br	1.429702	-0.915543	0.011210
Br215	Br	1.679702	-0.665543	0.261210
Br216	Br	1.929702	-0.415543	0.511210
H217	H	0.998957	-0.461285	-0.764640
H218	H	1.248957	-0.211285	-0.514640
H219	H	1.498957	0.038715	-0.264640
H220	H	1.748957	0.288715	-0.014640
