data_functionalizedCrystal
_audit_creation_method	'MofGen! by Chris Wilmer'
_symmetry_space_group_name_H-M	'P1'
_symmetry_Int_Tables_number	1
_symmetry_cell_setting	triclinic
loop_
_symmetry_equiv_pos_as_xyz
  x,y,z
_cell_length_a	6.817900
_cell_length_b	10.943632
_cell_length_c	10.943624
_cell_angle_alpha	91.771060
_cell_angle_beta	108.838799
_cell_angle_gamma	108.838880
loop_
_atom_site_label
_atom_site_type_symbol
_atom_site_fract_x
_atom_site_fract_y
_atom_site_fract_z
V1	V	-4.115495	-0.178596	-0.402520
O2	O	-4.073204	0.008617	-0.394890
O3	O	-4.093445	-0.354159	-0.399737
O4	O	-4.093458	-0.175834	-0.578087
O5	O	-4.073192	-0.170943	-0.215305
V6	V	-4.592293	-0.156205	-0.380131
O7	O	-4.391506	-0.227713	-0.451632
O8	O	-4.766479	-0.107088	-0.331020
O9	O	-4.391136	0.019358	-0.382915
O10	O	-4.751980	-0.343418	-0.387762
O11	O	-4.751993	-0.163858	-0.567347
O12	O	-4.391123	-0.158967	-0.204564
C13	C	-3.944003	-0.396958	-0.393379
C14	C	-4.007438	-0.540484	-0.392273
C15	C	-3.852284	-0.617637	-0.384920
C16	C	-3.931120	-0.690292	-0.280695
C17	C	-4.041658	-0.723567	-0.494542
C18	C	-4.085393	-0.611235	-0.287974
C19	C	-4.195950	-0.644516	-0.501916
C20	C	-4.274895	-0.717134	-0.397670
C21	C	-3.944018	-0.169484	-0.620881
C22	C	-4.007457	-0.168388	-0.764408
C23	C	-3.852287	-0.161001	-0.841556
C24	C	-4.041646	-0.270645	-0.947527
C25	C	-3.931164	-0.056801	-0.914178
C26	C	-4.196026	-0.278134	-0.868502
C27	C	-4.085465	-0.064194	-0.835129
C28	C	-4.274960	-0.173869	-0.941070
C29	C	-4.203920	0.062151	-0.389269
C30	C	-4.119726	0.205675	-0.390383
C31	C	-4.203905	-0.165321	-0.161764
C32	C	-4.119703	-0.166411	-0.018236
H33	H	-4.023738	-0.772480	-0.581812
O34	O	-4.488933	-0.180450	-0.992467
C35	C	-4.578679	-0.187095	-0.892397
H36	H	-4.481275	-0.226566	-0.807678
H37	H	-4.759323	-0.254787	-0.931698
H38	H	-4.568014	-0.085310	-0.856897
O39	O	-4.106336	0.040074	-0.776727
C40	C	-3.965592	0.156515	-0.799257
H41	H	-3.825411	0.136822	-0.821533
H42	H	-3.893490	0.233416	-0.708647
H43	H	-4.064062	0.193465	-0.885807
O44	O	-4.106450	-0.552860	-0.183753
C45	C	-4.045844	-0.417207	-0.186015
H46	H	-3.932162	-0.386867	-0.245088
H47	H	-3.955537	-0.362852	-0.081903
H48	H	-4.200820	-0.392208	-0.232881
H49	H	-4.454151	-0.760358	-0.403023
O50	O	-4.328436	-0.619760	-0.613630
C51	C	-4.304009	-0.677353	-0.722273
H52	H	-4.137347	-0.691646	-0.690727
H53	H	-4.312107	-0.610919	-0.800565
H54	H	-4.442815	-0.776062	-0.763378
O55	O	-3.638615	-0.154858	-0.789583
C56	C	-3.631200	-0.266144	-0.729364
H57	H	-3.785718	-0.308498	-0.702828
H58	H	-3.477787	-0.237495	-0.637018
H59	H	-3.624096	-0.342427	-0.799549
O60	O	-4.020543	-0.374908	-1.005795
C61	C	-4.158266	-0.491326	-0.981291
H62	H	-4.193708	-0.470207	-0.889491
H63	H	-4.071802	-0.566017	-0.966693
H64	H	-4.320651	-0.531892	-1.067872
H65	H	-3.819816	0.036718	-0.934956
O66	O	-3.638244	-0.565771	-0.378116
C67	C	-3.498582	-0.588407	-0.261309
H68	H	-3.585394	-0.604451	-0.186795
H69	H	-3.338444	-0.500277	-0.220863
H70	H	-3.458970	-0.678795	-0.281816
O71	O	-3.798284	-0.715252	-0.169239
C72	C	-3.685595	-0.791878	-0.201249
H73	H	-3.781968	-0.846505	-0.304936
H74	H	-3.670392	-0.865112	-0.130090
H75	H	-3.513306	-0.725979	-0.194607
H76	H	-4.307409	-0.371779	-0.847941
