data_functionalizedCrystal
_audit_creation_method	'MofGen! by Chris Wilmer'
_symmetry_space_group_name_H-M	'P1'
_symmetry_Int_Tables_number	1
_symmetry_cell_setting	triclinic
loop_
_symmetry_equiv_pos_as_xyz
  x,y,z
_cell_length_a	18.215405
_cell_length_b	18.215407
_cell_length_c	12.827879
_cell_angle_alpha	90.044483
_cell_angle_beta	89.934925
_cell_angle_gamma	89.978057
loop_
_atom_site_label
_atom_site_type_symbol
_atom_site_fract_x
_atom_site_fract_y
_atom_site_fract_z
Zn1	Zn	-0.292713	-1.125260	-0.590911
Zn2	Zn	-0.415867	-1.125123	-0.416163
Zn3	Zn	-0.292819	-1.002141	-0.416175
Zn4	Zn	-0.415742	-1.002165	-0.590854
O5	O	-0.354285	-1.063672	-0.503526
O6	O	-0.309058	-1.228226	-0.567749
O7	O	-0.399641	-1.108743	-0.269928
O8	O	-0.189820	-1.018521	-0.439383
O9	O	-0.399538	-1.228126	-0.439362
O10	O	-0.189743	-1.108976	-0.567761
O11	O	-0.309238	-1.018388	-0.269937
O12	O	-0.309117	-0.899160	-0.439329
O13	O	-0.399325	-1.018561	-0.737098
O14	O	-0.399428	-0.899177	-0.567664
O15	O	-0.308936	-1.108998	-0.737140
O16	O	-0.518835	-1.108765	-0.439307
O17	O	-0.518743	-1.018428	-0.567652
C18	C	-0.354271	-0.872466	-0.503492
C19	C	-0.354282	-0.790667	-0.503503
C20	C	-0.401380	-0.602502	-0.570240
C21	C	-0.401381	-0.525643	-0.570251
C22	C	-0.307195	-0.525595	-0.436816
C23	C	-0.307190	-0.602453	-0.436810
C24	C	-0.354287	-0.640904	-0.503521
C25	C	-0.354293	-0.487188	-0.503538
C26	C	-0.354294	-0.403854	-0.503550
C27	C	-0.354285	-0.724243	-0.503510
C28	C	-0.545492	-1.063604	-0.503495
C29	C	-0.627290	-1.063642	-0.503517
C30	C	-0.892250	-1.110786	-0.570465
C31	C	-0.815391	-1.110762	-0.570449
C32	C	-0.815579	-1.016653	-0.436647
C33	C	-0.892437	-1.016682	-0.436659
C34	C	-0.930770	-1.063747	-0.503573
C35	C	-0.777054	-1.063694	-0.503546
C36	C	-0.693720	-1.063667	-0.503528
C37	C	-1.014109	-1.063776	-0.503590
C38	C	-0.162332	-1.063761	-0.503580
C39	C	-0.080533	-1.063799	-0.503603
C40	C	-0.354105	-1.063797	-0.776096
C41	C	-0.354028	-1.063851	-0.892250
C42	C	-0.354298	-0.255625	-0.503555
C43	C	-0.354297	-0.337424	-0.503556
C44	C	-0.354412	-1.063590	-0.232016
C45	C	-0.354281	-1.063680	-0.115863
C46	C	-0.309819	-1.018690	-0.064131
C47	C	-0.309683	-1.018782	0.055919
H48	H	-0.439728	-0.494379	-0.624582
H49	H	-0.923801	-0.978376	-0.382182
H50	H	-0.392097	-1.102369	0.063269
N51	N	-0.259532	-0.967570	-0.123174
H52	H	-0.271313	-0.915073	-0.104038
H53	H	-0.206855	-0.978702	-0.104442
N54	N	-0.256411	-0.484120	-0.364854
H55	H	-0.226577	-0.520113	-0.322587
H56	H	-0.222373	-0.452265	-0.407472
H57	H	-0.271620	-0.980263	0.100407
N58	N	-0.256385	-0.643879	-0.364860
H59	H	-0.226552	-0.607859	-0.322597
H60	H	-0.286313	-0.675735	-0.316422
H61	H	-0.439727	-0.633806	-0.624562
N62	N	-0.933597	-1.161541	-0.642642
H63	H	-0.897528	-1.191334	-0.685017
H64	H	-0.965502	-1.195619	-0.600169
H65	H	-0.784030	-1.149066	-0.624917
H66	H	-0.784361	-0.978332	-0.382168
H67	H	-0.392243	-1.102267	-0.071276
