data_functionalizedCrystal
_audit_creation_method	'MofGen! by Chris Wilmer'
_symmetry_space_group_name_H-M	'P1'
_symmetry_Int_Tables_number	1
_symmetry_cell_setting	triclinic
loop_
_symmetry_equiv_pos_as_xyz
  x,y,z
_cell_length_a	16.109295
_cell_length_b	8.140239
_cell_length_c	9.065218
_cell_angle_alpha	89.998314
_cell_angle_beta	84.237536
_cell_angle_gamma	90.000208
loop_
_atom_site_label
_atom_site_type_symbol
_atom_site_fract_x
_atom_site_fract_y
_atom_site_fract_z
O1	O	-1.104589	0.136495	-0.189589
O2	O	-0.771256	0.469828	0.143745
O3	O	-0.437923	0.803161	0.477078
O4	O	-0.862708	0.136522	-0.213196
O5	O	-0.529375	0.469855	0.120137
O6	O	-0.196042	0.803188	0.453470
O7	O	-0.988648	0.136504	0.013371
O8	O	-0.655315	0.469838	0.346704
O9	O	-0.321982	0.803171	0.680038
O10	O	-0.978649	0.136512	-0.416156
O11	O	-0.645316	0.469846	-0.082823
O12	O	-0.311982	0.803179	0.250511
O13	O	-0.988641	-0.136723	0.013374
O14	O	-0.655308	0.196611	0.346707
O15	O	-0.321975	0.529944	0.680040
O16	O	-0.862701	-0.136705	-0.213194
O17	O	-0.529368	0.196628	0.120140
O18	O	-0.196034	0.529961	0.453473
O19	O	-1.104582	-0.136732	-0.189586
O20	O	-0.771249	0.196601	0.143747
O21	O	-0.437916	0.529934	0.477081
Zn22	Zn	-0.983641	-0.180099	-0.201389
Zn23	Zn	-0.650307	0.153234	0.131944
Zn24	Zn	-0.316974	0.486567	0.465277
Zn25	Zn	-0.983650	0.179889	-0.201393
Zn26	Zn	-0.650317	0.513222	0.131941
Zn27	Zn	-0.316983	0.846556	0.465274
O28	O	-0.978642	-0.136715	-0.416153
O29	O	-0.645309	0.196618	-0.082820
O30	O	-0.311975	0.529952	0.250513
C31	C	-0.831722	-0.000088	-0.212240
C32	C	-0.498389	0.333245	0.121093
C33	C	-0.165056	0.666578	0.454426
C34	C	-0.739405	-0.000078	-0.209377
C35	C	-0.406071	0.333256	0.123956
C36	C	-0.072738	0.666589	0.457289
N37	N	-0.983640	-0.425782	-0.201386
N38	N	-0.650307	-0.092449	0.131947
N39	N	-0.316974	0.240885	0.465280
C40	C	-0.518114	-0.000093	-0.337159
C41	C	-0.184780	0.333240	-0.003826
C42	C	0.148553	0.666574	0.329507
C43	C	-0.431372	-0.000103	-0.334458
C44	C	-0.098039	0.333231	-0.001125
C45	C	0.235294	0.666564	0.332208
C46	C	-0.449181	-0.000101	-0.065648
C47	C	-0.115848	0.333232	0.267685
C48	C	0.217485	0.666566	0.601018
C49	C	-0.535921	-0.000103	-0.068351
C50	C	-0.202588	0.333231	0.264982
C51	C	0.130746	0.666564	0.598315
C52	C	-0.570385	-0.000090	-0.204111
C53	C	-0.237051	0.333243	0.129222
C54	C	0.096282	0.666576	0.462556
C55	C	-0.396904	-0.000099	-0.198707
C56	C	-0.063570	0.333235	0.134626
C57	C	0.269763	0.666568	0.467960
C58	C	-0.302855	-0.000109	-0.195777
C59	C	0.030479	0.333224	0.137556
C60	C	0.363812	0.666557	0.470890
C61	C	-0.664439	-0.000083	-0.207042
C62	C	-0.331106	0.333251	0.126292
C63	C	0.002227	0.666584	0.459625
C64	C	-0.135568	-0.000117	-0.190551
C65	C	0.197766	0.333216	0.142782
C66	C	0.531099	0.666550	0.476116
C67	C	-0.227883	-0.000111	-0.193441
C68	C	0.105450	0.333222	0.139893
C69	C	0.438783	0.666556	0.473226
C70	C	-0.987684	-0.000106	0.068336
C71	C	-0.654351	0.333227	0.401669
C72	C	-0.321017	0.666560	0.735002
C73	C	-0.984810	-0.000098	0.232109
C74	C	-0.651477	0.333235	0.565442
C75	C	-0.318144	0.666568	0.898776
N76	N	-0.983657	0.425572	-0.201384
N77	N	-0.650323	0.758905	0.131949
N78	N	-0.316990	1.092238	0.465282
C79	C	-0.979607	-0.000100	-0.471118
C80	C	-0.646273	0.333233	-0.137785
C81	C	-0.312940	0.666566	0.195549
C82	C	-0.982480	-0.000098	-0.634891
C83	C	-0.649147	0.333235	-0.301558
C84	C	-0.315813	0.666569	0.031775
H85	H	-0.546171	-0.000095	-0.447704
H86	H	-0.212837	0.333238	-0.114370
H87	H	0.120496	0.666572	0.218963
H88	H	-0.388816	-0.000108	-0.442800
H89	H	-0.055483	0.333225	-0.109466
H90	H	0.277851	0.666558	0.223867
O91	O	-0.415564	-0.000027	0.066093
O92	O	-0.082231	0.333307	0.399426
O93	O	0.251103	0.666640	0.732760
C94	C	-0.327796	-0.000062	0.039953
C95	C	0.005537	0.333271	0.373286
C96	C	0.338870	0.666604	0.706619
H97	H	-0.308297	0.051663	-0.075188
H98	H	0.025036	0.384996	0.258145
H99	H	0.358369	0.718330	0.591478
H100	H	-0.300519	0.079267	0.126812
H101	H	0.032815	0.412601	0.460146
H102	H	0.366148	0.745934	0.793479
H103	H	-0.303602	-0.131141	0.047097
H104	H	0.029732	0.202192	0.380430
H105	H	0.363065	0.535525	0.713764
H106	H	-0.578483	-0.000105	0.040000
H107	H	-0.245149	0.333228	0.373333
H108	H	0.088184	0.666561	0.706666
