data_functionalizedCrystal
_audit_creation_method	'MofGen! by Chris Wilmer'
_symmetry_space_group_name_H-M	'P1'
_symmetry_Int_Tables_number	1
_symmetry_cell_setting	triclinic
loop_
_symmetry_equiv_pos_as_xyz
  x,y,z
_cell_length_a	14.853567
_cell_length_b	14.853559
_cell_length_c	13.330367
_cell_angle_alpha	89.997552
_cell_angle_beta	89.995418
_cell_angle_gamma	83.633192
loop_
_atom_site_label
_atom_site_type_symbol
_atom_site_fract_x
_atom_site_fract_y
_atom_site_fract_z
O1	O	1.196365	0.117704	-0.083349
O2	O	1.696365	0.617704	0.416651
O3	O	0.933905	0.131725	-0.083366
O4	O	1.433905	0.631725	0.416634
O5	O	1.072150	-0.006515	-0.083356
O6	O	1.572150	0.493485	0.416644
O7	O	1.058121	0.255945	-0.083359
O8	O	1.558121	0.755945	0.416641
O9	O	1.072130	-0.006519	0.083491
O10	O	1.572130	0.493481	0.583491
O11	O	0.933885	0.131722	0.083481
O12	O	1.433885	0.631722	0.583481
O13	O	1.196345	0.117701	0.083498
O14	O	1.696345	0.617701	0.583498
Cu15	Cu	1.065113	0.124711	0.098724
Cu16	Cu	1.565113	0.624711	0.598724
Cu17	Cu	1.065137	0.124715	-0.098592
Cu18	Cu	1.565137	0.624715	0.401408
O19	O	1.058100	0.255942	0.083488
O20	O	1.558100	0.755942	0.583488
C21	C	0.900307	0.131089	0.000055
C22	C	1.400307	0.631089	0.500055
C23	C	0.800223	0.129185	0.000049
C24	C	1.300223	0.629185	0.500049
C25	C	0.387692	0.039019	0.000072
C26	C	0.887692	0.539019	0.500072
C27	C	0.366406	0.203252	0.000070
C28	C	0.866406	0.703252	0.500070
C29	C	0.460440	0.205042	0.000066
C30	C	0.960440	0.705042	0.500066
C31	C	0.518104	0.123819	0.000065
C32	C	1.018104	0.623819	0.500065
C33	C	0.481735	0.040806	0.000066
C34	C	0.981735	0.540806	0.500066
C35	C	0.496816	0.288054	0.000055
C36	C	0.996816	0.788054	0.500055
C37	C	0.590855	0.289847	0.000050
C38	C	1.090855	0.789847	0.500050
C39	C	0.648521	0.208623	0.000056
C40	C	1.148521	0.708623	0.500056
C41	C	0.612147	0.125607	0.000058
C42	C	1.112147	0.625607	0.500058
C43	C	0.669811	0.044384	0.000057
C44	C	1.169811	0.544384	0.500057
C45	C	0.633438	-0.038633	0.000067
C46	C	1.133438	0.461367	0.500067
C47	C	0.539401	-0.040418	0.000072
C48	C	1.039401	0.459582	0.500072
C49	C	0.742559	0.210408	0.000051
C50	C	1.242559	0.710408	0.500051
C51	C	0.763854	0.046172	0.000050
C52	C	1.263854	0.546172	0.500050
C53	C	1.071506	-0.040106	0.000066
C54	C	1.571506	0.459894	0.500066
C55	C	1.069605	-0.140190	0.000060
C56	C	1.569605	0.359810	0.500060
C57	C	1.061552	-0.563363	-0.090889
C58	C	1.561552	-0.063363	0.409111
C59	C	1.061530	-0.563361	0.091014
C60	C	1.561530	-0.063361	0.591014
C61	C	1.063323	-0.469328	0.091015
C62	C	1.563323	0.030672	0.591015
C63	C	1.064230	-0.422308	0.000062
C64	C	1.564230	0.077692	0.500062
C65	C	1.063343	-0.469321	-0.090891
C66	C	1.563343	0.030679	0.409109
C67	C	1.064201	-0.422307	0.181967
C68	C	1.564201	0.077693	0.681967
C69	C	1.065994	-0.328268	0.181971
C70	C	1.565994	0.171732	0.681971
C71	C	1.066907	-0.281247	0.091018
C72	C	1.566907	0.218753	0.591018
C73	C	1.066021	-0.328266	0.000061
C74	C	1.566021	0.171734	0.500061
C75	C	1.066927	-0.281245	-0.090892
C76	C	1.566927	0.218755	0.409108
C77	C	1.066047	-0.328264	-0.181850
C78	C	1.566047	0.171736	0.318150
C79	C	1.064256	-0.422300	-0.181845
C80	C	1.564256	0.077700	0.318155
C81	C	1.068698	-0.187210	0.091012
C82	C	1.568698	0.312790	0.591012
C83	C	1.068718	-0.187203	-0.090894
C84	C	1.568718	0.312797	0.409106
C85	C	1.229944	0.118338	0.000074
C86	C	1.729944	0.618338	0.500074
C87	C	1.330027	0.120242	0.000074
C88	C	1.830027	0.620242	0.500074
C89	C	1.058745	0.289532	0.000064
C90	C	1.558745	0.789532	0.500064
C91	C	1.060646	0.389616	0.000063
C92	C	1.560646	0.889616	0.500063
N93	N	1.065103	0.124708	0.237505
N94	N	1.565103	0.624708	0.737505
N95	N	1.065154	0.124711	-0.237374
N96	N	1.565154	0.624711	0.262626
C97	C	1.003920	0.185904	0.710124
C98	C	1.503920	0.685904	1.210124
C99	C	1.126379	0.063519	0.710101
C100	C	1.626379	0.563519	1.210101
C101	C	1.126369	0.063516	0.605082
C102	C	1.626369	0.563516	1.105082
C103	C	1.065134	0.124709	0.552580
C104	C	1.565134	0.624709	1.052580
C105	C	1.003909	0.185905	0.605096
C106	C	1.503909	0.685905	1.105096
C107	C	1.187598	0.002328	0.552559
C108	C	1.687598	0.502328	1.052559
C109	C	1.187591	0.002323	0.447534
C110	C	1.687591	0.502323	0.947534
C111	C	1.126351	0.063513	0.395029
C112	C	1.626351	0.563513	0.895029
C113	C	1.065124	0.124710	0.447552
C114	C	1.565124	0.624710	0.947552
C115	C	1.003889	0.185903	0.395050
C116	C	1.503889	0.685903	0.895050
C117	C	0.942656	0.247097	0.447570
C118	C	1.442656	0.747097	0.947570
C119	C	0.942670	0.247094	0.552592
C120	C	1.442670	0.747094	1.052592
C121	C	1.126338	0.063515	0.290008
C122	C	1.626338	0.563515	0.790008
C123	C	1.003879	0.185904	0.290021
C124	C	1.503879	0.685904	0.790021
H125	H	0.772169	0.277999	0.000044
H126	H	1.272169	0.777999	0.500044
O127	O	1.069687	-0.136487	-0.188994
O128	O	1.569687	0.363513	0.311006
H129	H	1.068766	-0.184981	-0.252236
H130	H	1.568766	0.315019	0.247764
O131	O	1.060547	-0.614076	0.189106
O132	O	1.560547	-0.114076	0.689106
H133	H	1.061458	-0.565583	0.252350
H134	H	1.561458	-0.065583	0.752350
H135	H	1.176239	0.013702	0.752851
H136	H	1.676239	0.513702	1.252851
O137	O	0.630086	0.379381	0.000047
O138	O	1.130086	0.879381	0.500047
H139	H	0.672421	0.384114	0.068048
H140	H	1.172421	0.884114	0.568048
H141	H	1.237449	-0.047505	0.404778
H142	H	1.737449	0.452495	0.904778
H143	H	1.176197	0.013696	0.247250
H144	H	1.676197	0.513696	0.747250
O145	O	0.434618	0.375650	0.000068
O146	O	0.934618	0.875650	0.500068
H147	H	0.391254	0.378759	-0.067923
H148	H	0.891254	0.878759	0.432077
O149	O	1.060590	-0.614068	-0.188990
O150	O	1.560590	-0.114068	0.311010
H151	H	1.122337	-0.603983	-0.232601
H152	H	1.622337	-0.103983	0.267399
O153	O	1.063242	-0.473031	0.280054
O154	O	1.563242	0.026969	0.780054
H155	H	1.001040	-0.507933	0.284400
H156	H	1.501040	-0.007933	0.784400
H157	H	0.892802	0.296925	0.404811
H158	H	1.392802	0.796925	0.904811
H159	H	1.066713	-0.289994	0.256035
H160	H	1.566713	0.210006	0.756035
H161	H	0.892817	0.296917	0.595360
H162	H	1.392817	0.796917	1.095360
H163	H	0.954062	0.235725	0.752889
H164	H	1.454062	0.735725	1.252889
O165	O	1.253644	-0.063669	0.609180
O166	O	1.753644	0.436331	1.109180
H167	H	1.243355	-0.053395	0.691032
H168	H	1.743355	0.446605	1.191032
O169	O	0.500173	-0.129953	0.000077
O170	O	1.000173	0.370047	0.500077
H171	H	0.425096	-0.117548	0.000070
H172	H	0.925096	0.382452	0.500070
O173	O	1.069648	-0.136502	0.189108
O174	O	1.569648	0.363498	0.689108
H175	H	1.071043	-0.063212	0.173828
H176	H	1.571043	0.436788	0.673828
H177	H	0.954011	0.235732	0.247280
H178	H	1.454011	0.735732	0.747280
H179	H	1.066779	-0.289967	-0.255904
H180	H	1.566779	0.210033	0.244096
H181	H	0.810799	-0.019971	0.000053
H182	H	1.310799	0.480029	0.500053
O183	O	1.063289	-0.473010	-0.279942
O184	O	1.563289	0.026990	0.220058
H185	H	1.123863	-0.523826	-0.284289
H186	H	1.623863	-0.023826	0.215711
O187	O	0.695635	-0.126238	0.000072
O188	O	1.195635	0.373762	0.500072
H189	H	0.767133	-0.111042	0.000071
H190	H	1.267133	0.388958	0.500071
H191	H	0.358073	-0.028572	0.000084
H192	H	0.858073	0.471428	0.500084
H193	H	0.319450	0.269380	0.000063
H194	H	0.819450	0.769380	0.500063
