data_functionalizedCrystal
_audit_creation_method	'MofGen! by Chris Wilmer'
_symmetry_space_group_name_H-M	'P1'
_symmetry_Int_Tables_number	1
_symmetry_cell_setting	triclinic
loop_
_symmetry_equiv_pos_as_xyz
  x,y,z
_cell_length_a	13.033293
_cell_length_b	15.297327
_cell_length_c	13.033109
_cell_angle_alpha	107.902170
_cell_angle_beta	74.800007
_cell_angle_gamma	107.951422
loop_
_atom_site_label
_atom_site_type_symbol
_atom_site_fract_x
_atom_site_fract_y
_atom_site_fract_z
Zn1	Zn	1.651843	-0.272005	-0.855503
Zn2	Zn	1.604361	-0.411325	-0.702628
Zn3	Zn	1.451644	-0.272022	-0.655309
Zn4	Zn	1.443077	-0.446608	-0.863870
O5	O	1.537731	-0.350490	-0.769327
O6	O	1.796826	-0.275713	-0.851526
O7	O	1.567817	-0.378087	-0.545088
O8	O	1.501657	-0.140650	-0.658561
O9	O	1.761942	-0.378070	-0.739209
O10	O	1.648742	-0.140637	-0.805643
O11	O	1.455616	-0.275742	-0.510323
O12	O	1.299225	-0.309955	-0.666673
O13	O	1.487056	-0.438205	-1.014022
O14	O	1.292932	-0.438222	-0.819902
O15	O	1.640436	-0.309925	-1.007876
O16	O	1.559510	-0.547376	-0.747321
O17	O	1.441015	-0.573298	-0.865785
C18	C	1.256853	-0.377920	-0.739061
C19	C	1.136690	-0.389679	-0.726143
C20	C	1.100373	-0.344376	-0.776074
C21	C	0.976180	-0.356529	-0.762723
C22	C	1.494213	-0.594399	-0.812622
C23	C	1.475698	-0.698738	-0.831190
C24	C	1.670544	-0.938737	-0.637033
C25	C	1.687938	-0.840705	-0.619582
C26	C	1.634880	-0.805208	-0.672482
C27	C	1.564424	-0.867754	-0.742837
C28	C	1.547021	-0.965796	-0.760284
C29	C	1.511357	-0.832267	-0.795733
C30	C	1.440901	-0.894812	-0.866088
C31	C	1.423502	-0.992844	-0.883532
C32	C	1.476560	-1.028341	-0.830631
C33	C	1.528760	-0.734225	-0.778287
C34	C	1.405237	-0.761284	-0.901538
C35	C	1.387843	-0.859316	-0.918989
C36	C	1.819706	-0.322954	-0.799712
C37	C	1.939867	-0.311220	-0.812661
C38	C	1.568087	-0.377999	-1.051266
C39	C	1.581023	-0.389722	-1.171412
C40	C	1.581452	-0.105628	-0.725891
C41	C	1.600083	-0.001282	-0.707380
C42	C	1.531275	-0.344310	-1.207775
C43	C	1.544643	-0.356425	-1.331952
C44	C	1.507568	-0.323014	-0.488480
C45	C	1.494889	-0.311007	-0.368311
H46	H	1.586125	-0.683308	-0.721003
C47	C	1.424789	-0.247346	-1.287141
C48	C	1.339092	-0.300984	-1.224287
C49	C	1.274504	-0.242371	-1.149494
H50	H	1.395201	-0.220404	-1.325922
H51	H	1.468698	-0.198148	-1.240244
H52	H	1.295190	-0.350164	-1.271177
H53	H	1.368649	-0.327925	-1.185482
H54	H	1.318413	-0.193174	-1.102597
H55	H	1.244923	-0.215432	-1.188284
H56	H	1.216357	-0.278754	-1.106832
H57	H	1.633509	-0.437571	-1.232211
C58	C	1.181674	-0.280739	-0.846251
C59	C	1.288692	-0.281361	-0.845570
C60	C	1.363611	-0.222759	-0.910219
H61	H	1.172927	-0.217860	-0.817457
H62	H	1.168657	-0.303457	-0.919374
H63	H	1.301704	-0.258639	-0.772463
H64	H	1.297474	-0.344226	-0.874373
H65	H	1.350594	-0.245477	-0.983341
H66	H	1.354854	-0.159883	-0.881419
H67	H	1.436230	-0.223180	-0.909774
C68	C	1.614810	-0.420063	-1.413048
C69	C	1.700535	-0.366412	-1.475864
C70	C	1.765203	-0.424998	-1.550570
H71	H	1.570996	-0.469289	-1.459987
H72	H	1.644358	-0.446961	-1.374167
H73	H	1.670988	-0.339529	-1.514743
H74	H	1.744375	-0.317189	-1.428955
H75	H	1.794751	-0.451896	-1.511688
H76	H	1.721381	-0.474221	-1.597501
H77	H	1.823380	-0.388602	-1.593193
C78	C	1.653955	-0.698742	-0.653446
C79	C	1.727036	-0.651564	-0.580534
C80	C	1.744653	-0.553483	-0.562985
H81	H	1.586196	-0.681475	-0.623199
H82	H	1.684113	-0.681476	-0.721253
H83	H	1.696876	-0.668823	-0.512740
H84	H	1.794809	-0.668802	-0.610760
H85	H	1.774811	-0.536216	-0.630792
H86	H	1.676890	-0.536226	-0.532742
H87	H	1.794248	-0.521460	-0.513521
H88	H	1.478782	-0.296466	-1.146977
C89	C	1.020861	-0.247584	-0.883015
C90	C	1.001325	-0.281246	-0.990652
C91	C	1.075903	-0.222643	-1.055489
H92	H	1.093595	-0.247834	-0.882801
H93	H	1.011953	-0.184742	-0.854203
H94	H	1.010243	-0.344071	-1.019458
H95	H	0.928605	-0.280993	-0.990901
H96	H	1.066995	-0.159802	-1.026676
H97	H	1.148633	-0.222898	-1.055265
H98	H	1.062652	-0.245470	-1.128525
C99	C	1.728040	-0.977462	-0.579704
C100	C	1.697716	-1.076704	-0.610042
C101	C	1.750656	-1.112410	-0.557238
H102	H	1.707312	-0.955973	-0.502502
H103	H	1.805258	-0.955862	-0.600526
H104	H	1.620515	-1.098296	-0.589212
H105	H	1.718446	-1.098219	-0.687234
H106	H	1.827874	-1.090809	-0.578061
H107	H	1.729924	-1.090914	-0.480039
H108	H	1.730096	-1.179748	-0.577823
C109	C	1.055619	-0.453257	-0.655769
C110	C	1.075117	-0.419571	-0.548119
C111	C	1.000450	-0.478108	-0.483256
H112	H	1.064441	-0.516117	-0.684500
H113	H	0.982913	-0.452942	-0.656048
H114	H	1.147806	-0.419895	-0.547844
H115	H	1.066287	-0.356719	-0.519356
H116	H	0.927744	-0.477794	-0.483535
H117	H	1.009278	-0.540965	-0.511996
H118	H	1.013662	-0.455256	-0.410206
H119	H	1.330476	-0.910254	-0.976273
H120	H	0.915331	-0.404313	-0.710086
H121	H	1.745301	-0.789784	-0.562298
H122	H	1.462404	-1.108166	-0.844840
H123	H	1.362030	-0.732384	-0.944612
C124	C	1.347001	-1.060599	-0.959992
C125	C	1.304280	-1.008535	-1.002609
C126	C	1.233814	-1.070916	-1.073058
H127	H	1.288594	-1.099475	-0.920457
H128	H	1.386599	-1.099348	-1.018423
H129	H	1.264683	-0.969802	-0.944187
H130	H	1.362661	-0.969661	-1.042162
H131	H	1.273412	-1.109665	-1.131489
H132	H	1.175414	-1.109789	-1.033515
H133	H	1.204827	-1.035600	-1.101990
