data_functionalizedCrystal
_audit_creation_method	'MofGen! by Chris Wilmer'
_symmetry_space_group_name_H-M	'P1'
_symmetry_Int_Tables_number	1
_symmetry_cell_setting	triclinic
loop_
_symmetry_equiv_pos_as_xyz
  x,y,z
_cell_length_a	16.992694
_cell_length_b	11.792241
_cell_length_c	16.053802
_cell_angle_alpha	92.583059
_cell_angle_beta	87.249047
_cell_angle_gamma	87.430819
loop_
_atom_site_label
_atom_site_type_symbol
_atom_site_fract_x
_atom_site_fract_y
_atom_site_fract_z
O1	O	1.044699	0.236280	-0.069325
O2	O	0.816403	0.233637	-0.069350
O3	O	0.936091	0.070242	-0.069331
O4	O	0.925011	0.399675	-0.069344
O5	O	0.929503	0.079196	0.069527
O6	O	0.809815	0.242591	0.069508
O7	O	1.038111	0.245234	0.069533
Zn8	Zn	0.922917	0.245334	0.091567
Zn9	Zn	0.931597	0.233537	-0.091384
O10	O	0.918423	0.408630	0.069514
C11	C	0.783882	0.234716	0.000076
C12	C	0.696796	0.224578	0.000067
C13	C	0.646971	0.322395	0.000064
C14	C	0.565143	0.312864	0.000076
C15	C	0.533142	0.205513	0.000085
C16	C	0.582973	0.107688	0.000091
C17	C	0.664799	0.117221	0.000085
C18	C	0.289375	0.166002	0.000109
C19	C	0.207543	0.156476	0.000112
C20	C	0.189719	0.361652	0.000099
C21	C	0.271548	0.371176	0.000088
C22	C	0.321371	0.273351	0.000098
N23	N	0.449501	0.195767	0.000094
N24	N	0.405010	0.283098	0.000095
C25	C	0.932101	0.032371	0.000098
C26	C	0.930018	-0.093813	0.000097
C27	C	0.926188	-0.324840	0.000082
C28	C	0.928316	-0.196280	0.000090
C29	C	1.070632	0.244155	0.000105
C30	C	1.157719	0.254293	0.000109
C31	C	0.922413	0.446500	0.000084
C32	C	0.924497	0.572684	0.000079
N33	N	0.916999	0.253386	0.216427
N34	N	0.937521	0.225477	-0.216243
C35	C	0.967945	0.183889	0.260129
C36	C	0.963812	0.189532	0.347535
C37	C	0.908737	0.264679	0.391237
C38	C	0.857785	0.334179	0.347529
C39	C	0.861915	0.328529	0.260125
C40	C	0.890699	0.289327	0.652644
C41	C	0.886575	0.294974	0.740055
C42	C	0.992602	0.150325	0.740054
C43	C	0.996729	0.144687	0.652648
C44	C	0.945775	0.214182	0.608948
N45	N	0.904513	0.270452	0.480580
N46	N	0.949996	0.208403	0.519606
H47	H	0.297597	0.458591	0.000071
H48	H	0.841724	0.356172	0.775633
O49	O	0.812463	0.395926	0.217541
C50	C	0.827929	0.374845	0.131025
H51	H	0.857429	0.286488	0.119095
H52	H	0.770151	0.379890	0.097813
H53	H	0.868711	0.441110	0.106206
H54	H	0.181491	0.069053	0.000119
O55	O	0.713226	0.022243	0.000232
C56	C	0.757703	0.026270	0.072135
H57	H	0.725608	0.084856	0.122398
H58	H	0.765373	-0.062796	0.096279
H59	H	0.818091	0.060006	0.055871
H60	H	0.812938	0.395361	0.383117
O61	O	1.013197	0.121906	0.390019
C62	C	0.968516	0.051287	0.440606
H63	H	0.907893	0.041998	0.414279
H64	H	1.000098	-0.035963	0.441597
H65	H	0.961428	0.090718	0.506847
O66	O	0.141435	0.456786	0.000059
C67	C	0.187226	0.553580	0.000073
H68	H	0.249410	0.528603	-0.026219
H69	H	0.159257	0.619976	-0.040242
H70	H	0.190038	0.590432	0.066688
O71	O	0.551761	0.003491	0.000064
C72	C	0.468854	0.016051	0.000087
H73	H	0.451261	0.101216	-0.026206
H74	H	0.445357	-0.055690	-0.040222
H75	H	0.442904	0.012781	0.066706
O76	O	1.021469	0.110792	0.217809
C77	C	1.065561	0.050682	0.275129
H78	H	1.030452	0.050485	0.337438
H79	H	1.078337	-0.040531	0.249886
H80	H	1.123545	0.093484	0.284413
O81	O	1.042009	0.082859	0.782635
C82	C	1.026571	0.103975	0.869151
H83	H	0.963827	0.141477	0.881095
H84	H	1.033364	0.020934	0.902377
H85	H	1.070038	0.166586	0.893942
H86	H	0.524579	0.392517	0.000072
O87	O	0.677922	0.426767	0.000091
C88	C	0.616396	0.511056	0.000071
H89	H	0.559438	0.475880	0.026366
H90	H	0.631895	0.588159	0.040380
H91	H	0.608101	0.537288	-0.066547
O92	O	0.337656	0.070861	0.000078
C93	C	0.291860	-0.025928	0.000106
H94	H	0.232164	-0.004340	-0.026185
H95	H	0.323642	-0.097527	-0.040203
H96	H	0.282742	-0.054184	0.066726
O97	O	1.050250	0.071586	0.610327
C98	C	1.094345	0.011474	0.667644
H99	H	1.059239	0.011272	0.729954
H100	H	1.107122	-0.079737	0.642398
H101	H	1.152329	0.054277	0.676926
O102	O	0.841173	0.356953	0.610330
C103	C	0.791669	0.424472	0.667649
H104	H	0.820894	0.432723	0.729947
H105	H	0.781276	0.512420	0.642388
H106	H	0.732807	0.382871	0.676962
