data_functionalizedCrystal
_audit_creation_method	'MofGen! by Chris Wilmer'
_symmetry_space_group_name_H-M	'P1'
_symmetry_Int_Tables_number	1
_symmetry_cell_setting	triclinic
loop_
_symmetry_equiv_pos_as_xyz
  x,y,z
_cell_length_a	17.917603
_cell_length_b	23.196402
_cell_length_c	17.917559
_cell_angle_alpha	57.018572
_cell_angle_beta	60.142190
_cell_angle_gamma	90.005509
loop_
_atom_site_label
_atom_site_type_symbol
_atom_site_fract_x
_atom_site_fract_y
_atom_site_fract_z
Zr1	Zr	0.790684	-0.074022	0.746405
O2	O	0.673539	-0.176034	0.913091
O3	O	0.821431	-0.039156	0.587597
O4	O	0.828864	-0.164608	0.742921
O5	O	0.666118	0.044288	0.757767
O6	O	0.957260	-0.159684	0.731212
O7	O	0.666107	-0.050582	0.757766
O8	O	0.943965	0.064727	0.453365
O9	O	0.679413	-0.180123	1.035615
O10	O	0.936604	-0.024953	0.641261
O11	O	0.840791	0.042172	0.650000
O12	O	0.849542	-0.105532	0.832875
O13	O	0.753730	-0.038406	0.841614
Zr14	Zr	0.995479	0.085138	0.727732
Zr15	Zr	0.995461	-0.066169	0.727730
Zr16	Zr	0.790701	0.077285	0.746406
Zr17	Zr	0.800052	-0.080543	0.941816
Zr18	Zr	0.986110	0.091659	0.532321
O19	O	0.964731	0.050272	0.886540
O20	O	0.964706	-0.164867	0.886538
O21	O	0.673564	0.039105	0.913093
O22	O	1.112623	0.187150	0.561046
O23	O	1.112598	-0.027989	0.561044
O24	O	0.821456	0.175983	0.587599
O25	O	1.120045	-0.033172	0.716369
O26	O	0.957299	0.175724	0.731215
O27	O	0.828902	0.170800	0.742925
O28	O	1.120056	0.061698	0.716370
O29	O	0.842184	-0.173880	1.020771
O30	O	0.943978	0.184996	0.453366
O31	O	1.106749	0.191239	0.438522
O32	O	1.106735	0.070970	0.438521
O33	O	0.679427	-0.059854	1.035616
O34	O	0.842198	-0.053611	1.020772
O35	O	0.936620	0.116648	0.641262
O36	O	1.032433	0.049522	0.632523
O37	O	0.945371	-0.031056	0.824137
O38	O	0.849558	0.036070	0.832876
C39	C	0.636936	-0.004266	0.760428
C40	C	0.550003	-0.007600	0.768356
C41	C	0.881363	0.013715	0.492639
C42	C	0.877386	0.016483	0.409682
C43	C	0.893103	0.194820	0.737070
C44	C	0.893110	0.259054	0.737071
C45	C	0.390852	-0.013689	0.782837
C46	C	0.395303	0.024803	0.691304
C47	C	0.306747	0.021415	0.699362
C48	C	0.479415	-0.010302	0.774782
C49	C	1.149226	0.015382	0.713709
C50	C	1.236160	0.018716	0.705781
C51	C	0.893059	-0.183704	0.737067
C52	C	0.893052	-0.247938	0.737066
C53	C	0.847669	0.247169	0.837088
C54	C	0.847655	0.307522	0.837091
C55	C	0.893101	0.379762	0.737069
C56	C	0.938544	0.391646	0.637039
C57	C	0.938549	0.331292	0.637040
C58	C	0.973372	0.509353	0.656293
C59	C	0.973370	0.569704	0.656296
C60	C	0.893085	0.565916	0.737062
C61	C	0.812802	0.501761	0.817843
C62	C	0.812807	0.441407	0.817844
C63	C	0.893100	0.445211	0.737057
C64	C	0.847624	0.619470	0.837089
C65	C	0.847607	0.679826	0.837088
C66	C	0.938505	0.763950	0.637033
C67	C	0.938512	0.703593	0.637038
C68	C	0.893074	0.631355	0.737069
C69	C	0.915972	-0.010472	0.216411
C70	C	0.870192	0.021586	0.257730
C71	C	0.874196	0.018746	0.342284
C72	C	0.911970	-0.007632	0.131850
C73	C	0.904799	-0.002599	0.981498
C74	C	0.908776	-0.005367	1.064455
C75	C	1.137508	0.023539	0.469279
C76	C	1.220465	0.029641	0.378394
C77	C	0.881385	0.202977	0.492641
C78	C	0.877415	0.269979	0.409684
C79	C	1.137530	0.212801	0.469281
C80	C	1.220494	0.283137	0.378397
C81	C	0.648632	-0.201685	1.004855
C82	C	0.565668	-0.272021	1.095740
C83	C	0.648654	-0.012422	1.004857
C84	C	0.565698	-0.018525	1.095742
C85	C	0.904777	-0.191861	0.981496
C86	C	0.908747	-0.258863	1.064453
C87	C	1.209400	-0.006375	0.340275
C88	C	1.287339	-0.000656	0.254890
C89	C	1.376342	0.041084	0.207621
C90	C	1.387405	0.077101	0.245749
C91	C	1.309467	0.071377	0.331137
C92	C	0.925573	0.340326	0.366166
C93	C	0.921840	0.403287	0.288231
C94	C	0.869954	0.395900	0.253809
C95	C	0.821791	0.325545	0.297336
C96	C	0.825519	0.262586	0.375275
C97	C	1.309476	0.281129	0.331154
C98	C	1.387438	0.347212	0.245769
C99	C	1.376415	0.415301	0.207622
C100	C	1.287423	0.417307	0.254874
C101	C	1.209464	0.351225	0.340263
C102	C	0.476686	-0.270013	1.142992
C103	C	0.398726	-0.336097	1.228402
C104	C	0.409749	-0.404187	1.266552
C105	C	0.498741	-0.406192	1.219296
C106	C	0.576699	-0.340110	1.133893
C107	C	0.576763	0.017485	1.133870
C108	C	0.498825	0.011748	1.219276
C109	C	0.409822	-0.029994	1.266548
C110	C	0.398759	-0.066008	1.228417
C111	C	0.476696	-0.060275	1.143017
C112	C	0.960641	-0.251452	1.098848
C113	C	0.964389	-0.314401	1.176783
C114	C	0.916237	-0.384760	1.220326
C115	C	0.864341	-0.392170	1.185923
C116	C	0.860599	-0.329221	1.107984
H117	H	0.465623	0.060301	0.606889
H118	H	0.326283	-0.099994	1.266918
H119	H	0.999853	-0.194168	1.063407
N120	N	0.302639	-0.058214	0.888722
N121	N	0.229793	-0.060934	0.895189
H122	H	0.167484	-0.092380	0.969969
N123	N	0.817247	0.058702	0.222466
N124	N	0.836358	0.126134	0.177003
H125	H	0.798965	0.152346	0.152098
N126	N	0.968910	-0.047586	0.251680
N127	N	1.054202	-0.026522	0.182837
H128	H	1.091586	-0.052738	0.207756
N129	N	1.478315	0.119737	0.197470
N130	N	1.505623	0.102982	0.256129
H131	H	1.569831	0.133097	0.222026
N132	N	0.465370	-0.097064	1.104088
N133	N	0.385894	-0.134328	1.146310
H134	H	0.377887	-0.160314	1.118822
H135	H	1.318489	0.100711	0.362163
H136	H	0.649226	0.051480	1.095388
N137	N	1.478325	0.345139	0.197511
N138	N	1.500586	0.316035	0.151799
H139	H	1.564772	0.314568	0.117718
H140	H	0.747426	0.498671	0.883611
H141	H	0.346369	-0.034656	1.336085
H142	H	0.810597	0.670141	0.918538
H143	H	0.810668	0.188353	0.918541
H144	H	1.278462	0.472755	0.223802
H145	H	0.975501	0.822768	0.555594
N146	N	0.801207	0.545683	0.939273
N147	N	0.760628	0.535083	1.028571
H148	H	0.727845	0.482973	1.100740
N149	N	0.866140	0.460207	0.174196
N150	N	0.789951	0.467121	0.198615
H151	H	0.787261	0.512539	0.142385
N152	N	0.978585	0.347896	0.401299
N153	N	1.021571	0.410718	0.362425
H154	H	1.059011	0.416071	0.387235
N155	N	1.118499	-0.049010	0.388528
N156	N	1.108650	-0.081160	0.354468
H157	H	1.044453	-0.111274	0.388542
N158	N	1.276009	-0.037453	0.215968
N159	N	1.196534	-0.074710	0.258179
H160	H	1.188529	-0.100698	0.230693
H161	H	1.137013	0.352871	0.378718
H162	H	1.006647	-0.308354	1.204785
N163	N	1.456064	0.482792	0.120398
N164	N	1.535505	0.480981	0.078231
H165	H	1.591761	0.528644	0.016626
N166	N	1.455935	0.046991	0.120311
N167	N	1.446029	0.014876	0.086231
H168	H	1.502236	0.019074	0.024533
H169	H	0.961064	0.460566	0.252800
N170	N	0.768798	0.318020	0.262157
N171	N	0.765490	0.374245	0.192562
H172	H	0.728068	0.368934	0.167709
N173	N	0.920077	-0.449049	1.299934
N174	N	0.966418	-0.442414	1.330630
H175	H	0.969132	-0.487815	1.386855
N176	N	0.776320	0.190735	0.419711
N177	N	0.730002	0.184158	0.388959
H178	H	0.695250	0.133415	0.420339
H179	H	0.507705	-0.461639	1.250369
N180	N	1.320767	0.211589	0.370090
N181	N	1.400230	0.209821	0.327888
H182	H	1.408212	0.160710	0.355383
N183	N	0.730809	0.375879	0.900327
N184	N	0.730827	0.322002	0.900304
H185	H	0.672913	0.275724	0.958553
H186	H	0.975544	0.450468	0.555601
H187	H	0.825137	-0.449465	1.221387
H188	H	0.467693	-0.214577	1.111936
N189	N	0.807581	-0.336811	1.072868
N190	N	0.764595	-0.399639	1.111763
H191	H	0.727149	-0.405005	1.086966
H192	H	0.507851	0.041079	1.250308
H193	H	0.326273	-0.334449	1.266864
H194	H	0.975521	0.713275	0.555592
N195	N	0.801251	0.295376	0.939268
N196	N	0.760698	0.230876	1.028569
H197	H	0.727933	0.222296	1.100733
H198	H	0.649150	-0.341753	1.095421
N199	N	0.330101	-0.471678	1.353793
N200	N	0.250660	-0.469867	1.395965
H201	H	0.194405	-0.517530	1.457578
H202	H	1.038742	0.621934	0.590525
H203	H	1.038753	0.512451	0.590513
N204	N	0.984975	0.343419	0.534879
N205	N	0.984978	0.289526	0.534894
H206	H	1.017769	0.298089	0.462742
