data_functionalizedCrystal
_audit_creation_method	'MofGen! by Chris Wilmer'
_symmetry_space_group_name_H-M	'P1'
_symmetry_Int_Tables_number	1
_symmetry_cell_setting	triclinic
loop_
_symmetry_equiv_pos_as_xyz
  x,y,z
_cell_length_a	25.639242
_cell_length_b	29.839126
_cell_length_c	25.639240
_cell_angle_alpha	89.969504
_cell_angle_beta	90.028283
_cell_angle_gamma	89.971322
loop_
_atom_site_label
_atom_site_type_symbol
_atom_site_fract_x
_atom_site_fract_y
_atom_site_fract_z
Zn1	Zn	0.799280	-0.254094	-0.208253
Zn2	Zn	1.299280	0.245906	0.291747
Zn3	Zn	0.799203	-0.178955	-0.295679
Zn4	Zn	1.299203	0.321045	0.204321
Zn5	Zn	0.711847	-0.178965	-0.208253
Zn6	Zn	1.211847	0.321035	0.291747
Zn7	Zn	0.711811	-0.254045	-0.295653
Zn8	Zn	1.211811	0.245955	0.204347
O9	O	0.755535	-0.216515	-0.251959
O10	O	1.255535	0.283485	0.248041
O11	O	0.872435	-0.244143	-0.219862
O12	O	1.372435	0.255857	0.280138
O13	O	0.787597	-0.116089	-0.284092
O14	O	1.287597	0.383911	0.215908
O15	O	0.723492	-0.188955	-0.135087
O16	O	1.223492	0.311045	0.364913
O17	O	0.872378	-0.188939	-0.284093
O18	O	1.372378	0.311061	0.215907
O19	O	0.787729	-0.244152	-0.135088
O20	O	1.287729	0.255848	0.364912
O21	O	0.723417	-0.116096	-0.219861
O22	O	1.223417	0.383904	0.280139
O23	O	0.638677	-0.188908	-0.219835
O24	O	1.138677	0.311092	0.280165
O25	O	0.723431	-0.316919	-0.284048
O26	O	1.223431	0.183081	0.215952
O27	O	0.638650	-0.244069	-0.284047
O28	O	1.138650	0.255931	0.215953
O29	O	0.787695	-0.316954	-0.219836
O30	O	1.287695	0.183046	0.280164
O31	O	0.787563	-0.188892	-0.368841
O32	O	1.287563	0.311108	0.131159
O33	O	0.723356	-0.244060	-0.368821
O34	O	1.223356	0.255940	0.131179
C35	C	0.619693	-0.216484	-0.251939
C36	C	1.119693	0.283516	0.248061
C37	C	0.561578	-0.216482	-0.251942
C38	C	1.061578	0.283518	0.248058
C39	C	0.201211	-0.245210	-0.285451
C40	C	0.701211	0.254790	0.214549
C41	C	0.146606	-0.245217	-0.285454
C42	C	0.646606	0.254783	0.214546
O43	O	0.118365	-0.269617	-0.313918
O44	O	0.618365	0.230383	0.186082
N45	N	0.119296	-0.216544	-0.251974
N46	N	0.619296	0.283456	0.248026
C47	C	0.146593	-0.187865	-0.218484
C48	C	0.646593	0.312135	0.281516
O49	O	0.118349	-0.163477	-0.190007
O50	O	0.618349	0.336523	0.309993
C51	C	0.201196	-0.187861	-0.218479
C52	C	0.701196	0.312139	0.281521
C53	C	0.228504	-0.216532	-0.251965
C54	C	0.728504	0.283468	0.248035
C55	C	0.228518	-0.273880	-0.318934
C56	C	0.728518	0.226120	0.181066
C57	C	0.283119	-0.273872	-0.318931
C58	C	0.783119	0.226128	0.181069
C59	C	0.310412	-0.245194	-0.285445
C60	C	0.810412	0.254806	0.214555
C61	C	0.283104	-0.216525	-0.251962
C62	C	0.783104	0.283475	0.248038
C63	C	0.228492	-0.159185	-0.184988
C64	C	0.728492	0.340815	0.315012
C65	C	0.283099	-0.159183	-0.184985
C66	C	0.783099	0.340817	0.315015
C67	C	0.310407	-0.187854	-0.218471
C68	C	0.810407	0.312146	0.281529
C69	C	0.364998	-0.187839	-0.218474
C70	C	0.864998	0.312161	0.281526
N71	N	0.392308	-0.216512	-0.251954
N72	N	0.892308	0.283488	0.248046
C73	C	0.365015	-0.245190	-0.285440
C74	C	0.865015	0.254810	0.214560
C75	C	0.031922	-0.187877	-0.218498
C76	C	0.531922	0.312123	0.281502
C77	C	-0.022680	-0.187879	-0.218506
C78	C	0.477320	0.312121	0.281494
C79	C	-0.022663	-0.245232	-0.285474
C80	C	0.477337	0.254768	0.214526
C81	C	0.031940	-0.245227	-0.285469
C82	C	0.531940	0.254773	0.214531
C83	C	0.059233	-0.216550	-0.251978
C84	C	0.559233	0.283450	0.248022
C85	C	0.479680	-0.245171	-0.285432
C86	C	0.979680	0.254829	0.214568
C87	C	0.534285	-0.245159	-0.285428
C88	C	1.034285	0.254841	0.214572
C89	C	0.534264	-0.187809	-0.218458
C90	C	1.034264	0.312191	0.281542
C91	C	0.479663	-0.187818	-0.218463
C92	C	0.979663	0.312182	0.281537
C93	C	0.452373	-0.216503	-0.251952
C94	C	0.952373	0.283497	0.248048
O95	O	0.393273	-0.163453	-0.190023
O96	O	0.893273	0.336547	0.309977
O97	O	0.393265	-0.269578	-0.313908
O98	O	0.893265	0.230422	0.186092
C99	C	0.755567	-0.333693	-0.251939
C100	C	1.255567	0.166307	0.248061
C101	C	0.755581	-0.383627	-0.251931
C102	C	1.255581	0.116373	0.248069
C103	C	0.722173	-0.693277	-0.218433
C104	C	1.222173	-0.193277	0.281567
C105	C	0.722188	-0.880951	-0.218397
C106	C	1.222188	-0.380951	0.281603
O107	O	0.693757	-0.905221	-0.189968
O108	O	1.193757	-0.405221	0.310032
N109	N	0.755606	-0.904413	-0.251833
N110	N	1.255606	-0.404413	0.248167
C111	C	0.789020	-0.880954	-0.285283
C112	C	1.289020	-0.380954	0.214717
O113	O	0.817441	-0.905216	-0.313725
O114	O	1.317441	-0.405216	0.186275
C115	C	0.789003	-0.693282	-0.285321
C116	C	1.289003	-0.193282	0.214679
C117	C	0.755586	-0.669822	-0.251879
C118	C	1.255586	-0.169822	0.248121
C119	C	0.688759	-0.669818	-0.184994
C120	C	1.188759	-0.169818	0.315006
C121	C	0.688757	-0.622902	-0.185002
C122	C	1.188757	-0.122902	0.314998
C123	C	0.722170	-0.599446	-0.218448
C124	C	1.222170	-0.099446	0.281552
C125	C	0.755585	-0.622906	-0.251887
C126	C	1.255585	-0.122906	0.248113
C127	C	0.822414	-0.669824	-0.318773
C128	C	1.322414	-0.169824	0.181227
C129	C	0.822406	-0.622903	-0.318781
C130	C	1.322406	-0.122903	0.181219
C131	C	0.788989	-0.599443	-0.285339
C132	C	1.288989	-0.099443	0.214661
C133	C	0.788996	-0.552535	-0.285340
C134	C	1.288996	-0.052535	0.214660
N135	N	0.755578	-0.529073	-0.251904
N136	N	1.255578	-0.029073	0.248096
C137	C	0.722165	-0.552529	-0.218458
C138	C	1.222165	-0.052529	0.281542
C139	C	0.789028	-0.979485	-0.285259
C140	C	1.289028	-0.479485	0.214741
C141	C	0.789033	-1.026402	-0.285249
C142	C	1.289033	-0.526402	0.214751
C143	C	0.722200	-1.026396	-0.218364
C144	C	1.222200	-0.526396	0.281636
C145	C	0.722198	-0.979477	-0.218372
C146	C	1.222198	-0.479477	0.281628
C147	C	0.755610	-0.956022	-0.251823
C148	C	1.255610	-0.456022	0.248177
C149	C	0.722165	-0.454003	-0.218476
C150	C	1.222165	0.045997	0.281524
C151	C	0.722168	-0.407083	-0.218485
C152	C	1.222168	0.092917	0.281515
C153	C	0.789000	-0.407094	-0.285372
C154	C	1.289000	0.092906	0.214628
C155	C	0.788999	-0.454009	-0.285361
C156	C	1.288999	0.045991	0.214639
C157	C	0.755577	-0.477463	-0.251911
C158	C	1.255577	0.022537	0.248089
O159	O	0.817408	-0.528236	-0.313758
O160	O	1.317408	-0.028236	0.186242
O161	O	0.693740	-0.528258	-0.190028
O162	O	1.193740	-0.028258	0.309972
C163	C	0.722174	-0.740193	-0.218426
C164	C	1.222174	-0.240193	0.281574
C165	C	0.755589	-0.763653	-0.251864
C166	C	1.255589	-0.263653	0.248136
C167	C	0.789002	-0.740197	-0.285311
C168	C	1.289002	-0.240197	0.214689
C169	C	0.755594	-0.810571	-0.251854
C170	C	1.255594	-0.310571	0.248146
C171	C	0.722181	-0.834026	-0.218408
C172	C	1.222181	-0.334026	0.281592
C173	C	0.688763	-0.810564	-0.184972
C174	C	1.188763	-0.310564	0.315028
C175	C	0.688761	-0.763648	-0.184979
C176	C	1.188761	-0.263648	0.315021
C177	C	0.822420	-0.763659	-0.318747
C178	C	1.322420	-0.263659	0.181253
C179	C	0.822419	-0.810575	-0.318736
C180	C	1.322419	-0.310575	0.181264
C181	C	0.789006	-0.834031	-0.285290
C182	C	1.289006	-0.334031	0.214710
C183	C	0.891908	-0.216545	-0.251980
C184	C	1.391908	0.283455	0.248020
C185	C	0.950022	-0.216559	-0.251989
C186	C	1.450022	0.283441	0.248011
C187	C	0.755461	-0.216479	-0.387802
C188	C	1.255461	0.283521	0.112198
C189	C	0.755477	-0.216479	-0.445916
C190	C	1.255477	0.283521	0.054084
C191	C	0.755533	-0.099792	-0.251942
C192	C	1.255533	0.400208	0.248058
C193	C	0.755620	-0.049858	-0.251803
C194	C	1.255620	0.450142	0.248197
C195	C	0.789000	-0.245308	-0.806241
C196	C	1.289000	0.254692	-0.306241
C197	C	0.789015	-0.245317	-0.860845
C198	C	1.289015	0.254683	-0.360845
O199	O	0.817430	-0.269791	-0.889049
O200	O	1.317430	0.230209	-0.389049
N201	N	0.755608	-0.216558	-0.888198
N202	N	1.255608	0.283442	-0.388198
C203	C	0.722179	-0.187792	-0.860945
C204	C	1.222179	0.312208	-0.360945
O205	O	0.693764	-0.163331	-0.889225
O206	O	1.193764	0.336669	-0.389225
C207	C	0.722161	-0.187785	-0.806341
C208	C	1.222161	0.312215	-0.306341
C209	C	0.755575	-0.216542	-0.778991
C210	C	1.255575	0.283458	-0.278991
C211	C	0.822410	-0.274063	-0.778890
C212	C	1.322410	0.225937	-0.278890
C213	C	0.822396	-0.274053	-0.724290
C214	C	1.322396	0.225947	-0.224290
C215	C	0.788970	-0.245288	-0.697040
C216	C	1.288970	0.254712	-0.197040
C217	C	0.755560	-0.216533	-0.724390
C218	C	1.255560	0.283467	-0.224390
C219	C	0.688730	-0.159021	-0.779088
C220	C	1.188730	0.340979	-0.279088
C221	C	0.688714	-0.159017	-0.724481
C222	C	1.188714	0.340983	-0.224481
C223	C	0.722128	-0.187775	-0.697131
C224	C	1.222128	0.312225	-0.197131
C225	C	0.722119	-0.187758	-0.642540
C226	C	1.222119	0.312242	-0.142540
N227	N	0.755527	-0.216516	-0.615186
N228	N	1.255527	0.283484	-0.115186
C229	C	0.788953	-0.245281	-0.642436
C230	C	1.288953	0.254719	-0.142436
C231	C	0.722218	-0.187808	-0.975615
C232	C	1.222218	0.312192	-0.475615
C233	C	0.722237	-0.187812	-1.030217
C234	C	1.222237	0.312188	-0.530217
C235	C	0.789074	-0.245338	-1.030114
C236	C	1.289074	0.254662	-0.530114
C237	C	0.789056	-0.245331	-0.975511
C238	C	1.289056	0.254669	-0.475511
C239	C	0.755625	-0.216567	-0.948262
C240	C	1.255625	0.283433	-0.448262
C241	C	0.788919	-0.245258	-0.527771
C242	C	1.288919	0.254742	-0.027771
C243	C	0.788903	-0.245245	-0.473166
C244	C	1.288903	0.254755	0.026834
C245	C	0.722065	-0.187721	-0.473274
C246	C	1.222065	0.312279	0.026726
C247	C	0.722083	-0.187732	-0.527875
C248	C	1.222083	0.312268	-0.027875
C249	C	0.755512	-0.216505	-0.555122
C250	C	1.255512	0.283495	-0.055122
O251	O	0.693718	-0.163297	-0.614301
O252	O	1.193718	0.336703	-0.114301
O253	O	0.817358	-0.269742	-0.614150
O254	O	1.317358	0.230258	-0.114150
C255	C	0.755623	-0.216560	-0.115586
C256	C	1.255623	0.283440	0.384414
C257	C	0.755661	-0.216579	-0.057472
C258	C	1.255661	0.283421	0.442528
H259	H	0.694956	-0.387984	-0.191250
H260	H	1.194956	0.112016	0.308750
H261	H	0.816215	-0.473111	-0.312586
H262	H	1.316215	0.026889	0.187414
O263	O	0.858467	-0.835873	-0.354808
O264	O	1.358467	-0.335873	0.145192
H265	H	0.852861	-0.872440	-0.349186
H266	H	1.352861	-0.372440	0.150814
H267	H	0.305318	-0.135833	-0.157709
H268	H	0.805318	0.364167	0.342291
H269	H	0.556517	-0.268508	-0.312698
H270	H	1.056517	0.231492	0.187302
O271	O	0.825093	-0.276350	-0.946014
O272	O	1.325093	0.223650	-0.446014
H273	H	0.851702	-0.256263	-0.921134
H274	H	1.351702	0.243737	-0.421134
H275	H	0.816290	-0.268761	-1.052311
H276	H	1.316290	0.231239	-0.552311
H277	H	0.694852	-0.164299	-0.451078
H278	H	1.194852	0.335701	0.048922
H279	H	-0.044909	-0.164527	-0.191243
H280	H	0.455091	0.335473	0.308757
O281	O	0.686157	-0.954175	-0.182302
O282	O	1.186157	-0.454175	0.317698
H283	H	0.645117	-0.963163	-0.191261
H284	H	1.145117	-0.463163	0.308739
H285	H	0.661550	-0.744552	-0.157747
H286	H	1.161550	-0.244552	0.342253
H287	H	0.457467	-0.268530	-0.312701
H288	H	0.957467	0.231470	0.187299
H289	H	0.661489	-0.135594	-0.702298
H290	H	1.161489	0.364406	-0.202298
O291	O	0.061359	-0.156934	-0.182387
O292	O	0.561359	0.343066	0.317613
H293	H	0.033190	-0.136994	-0.159115
H294	H	0.533190	0.363006	0.340885
H295	H	0.849625	-0.688917	-0.346006
H296	H	1.349625	-0.188917	0.153994
O297	O	0.652689	-0.128004	-0.808578
O298	O	1.152689	0.371996	-0.308578
H299	H	0.626084	-0.148090	-0.833462
H300	H	1.126084	0.351910	-0.333462
H301	H	0.849627	-0.744567	-0.345985
H302	H	1.349627	-0.244567	0.154015
O303	O	0.563706	-0.156877	-0.182344
O304	O	1.063706	0.343123	0.317656
H305	H	0.553248	-0.164650	-0.141323
H306	H	1.053248	0.335350	0.358677
H307	H	0.816114	-0.268662	-0.450899
H308	H	1.316114	0.231338	0.049101
O309	O	0.652730	-0.835866	-0.148890
O310	O	1.152730	-0.335866	0.351110
H311	H	0.658349	-0.872431	-0.154507
H312	H	1.158349	-0.372431	0.345493
H313	H	0.816137	-0.268691	-0.549950
H314	H	1.316137	0.231309	-0.049950
H315	H	0.816237	-0.960392	-0.312502
H316	H	1.316237	-0.460392	0.187498
O317	O	-0.052109	-0.276113	-0.321649
O318	O	0.447891	0.223887	0.178351
H319	H	-0.023951	-0.296031	-0.344957
H320	H	0.476049	0.203969	0.155043
H321	H	0.849618	-0.603808	-0.346018
H322	H	1.349618	-0.103808	0.153982
H323	H	0.816205	-0.387988	-0.312601
H324	H	1.316205	0.112012	0.187399
H325	H	0.694996	-0.164381	-0.953432
H326	H	1.194996	0.335619	-0.453432
O327	O	0.825075	-1.051700	-0.321322
O328	O	1.325075	-0.551700	0.178678
H329	H	0.866115	-1.042708	-0.312371
H330	H	1.366115	-0.542708	0.187629
O331	O	0.686047	-0.156716	-0.557379
O332	O	1.186047	0.343284	-0.057379
H333	H	0.662800	-0.136714	-0.529255
H334	H	1.162800	0.363286	-0.029255
H335	H	0.206268	-0.135836	-0.157721
H336	H	0.706268	0.364164	0.342279
H337	H	0.457428	-0.164471	-0.191197
H338	H	0.957428	0.335529	0.308803
O339	O	0.686124	-0.479296	-0.182394
O340	O	1.186124	0.020704	0.317606
H341	H	0.662896	-0.455094	-0.159142
H342	H	1.162896	0.044906	0.340858
H343	H	0.305347	-0.297220	-0.346198
H344	H	0.805347	0.202780	0.153802
O345	O	0.652718	-0.597601	-0.148930
O346	O	1.152718	-0.097601	0.351070
H347	H	0.629486	-0.621800	-0.125676
H348	H	1.129486	-0.121800	0.374324
H349	H	0.849602	-0.297471	-0.702024
H350	H	1.349602	0.202529	-0.202024
H351	H	0.661547	-0.688910	-0.157758
H352	H	1.161547	-0.188910	0.342242
O353	O	0.686202	-0.156793	-1.059715
O354	O	1.186202	0.343207	-0.559715
H355	H	0.662956	-0.136793	-1.031588
H356	H	1.162956	0.363207	-0.531588
H357	H	0.694995	-1.045501	-0.191129
H358	H	1.194995	-0.545501	0.308871
H359	H	0.054170	-0.268575	-0.312735
H360	H	0.554170	0.231425	0.187265
O361	O	0.199084	-0.304761	-0.355113
O362	O	0.699084	0.195239	0.144887
H363	H	0.227255	-0.324672	-0.378415
H364	H	0.727255	0.175328	0.121585
O365	O	0.858467	-0.305089	-0.808278
O366	O	1.358467	0.194911	-0.308278
H367	H	0.881695	-0.325078	-0.780077
H368	H	1.381695	0.174922	-0.280077
