data_functionalizedCrystal
_audit_creation_method	'MofGen! by Chris Wilmer'
_symmetry_space_group_name_H-M	'P1'
_symmetry_Int_Tables_number	1
_symmetry_cell_setting	triclinic
loop_
_symmetry_equiv_pos_as_xyz
  x,y,z
_cell_length_a	17.640112
_cell_length_b	13.897448
_cell_length_c	17.640968
_cell_angle_alpha	78.768361
_cell_angle_beta	92.139080
_cell_angle_gamma	101.242525
loop_
_atom_site_label
_atom_site_type_symbol
_atom_site_fract_x
_atom_site_fract_y
_atom_site_fract_z
Zn1	Zn	1.247780	-0.027714	-0.195080
Zn2	Zn	1.222024	-0.226719	-0.068097
Zn3	Zn	1.095117	-0.090459	-0.093726
Zn4	Zn	1.120765	-0.214022	-0.220679
O5	O	1.171421	-0.139729	-0.144395
O6	O	1.350631	-0.033168	-0.156796
O7	O	1.183677	-0.240217	0.034777
O8	O	1.115413	0.052860	-0.107183
O9	O	1.331709	-0.179376	-0.063502
O10	O	1.227574	0.098958	-0.181648
O11	O	1.090439	-0.140107	0.015947
O12	O	0.992251	-0.127795	-0.132005
O13	O	1.159126	-0.157736	-0.323556
O14	O	1.011094	-0.218577	-0.225277
O15	O	1.252444	-0.020856	-0.304749
O16	O	1.208547	-0.360031	-0.088325
O17	O	1.134152	-0.350703	-0.200426
C18	C	0.974119	-0.178617	-0.184201
C19	C	0.889716	-0.195272	-0.201248
C20	C	0.563040	-0.013187	-0.014898
C21	C	0.483732	-0.028853	-0.030926
C22	C	0.503374	-0.123604	-0.127883
C23	C	0.582686	-0.107942	-0.111865
C24	C	0.612512	-0.052734	-0.055371
C25	C	0.632158	-0.147488	-0.152339
C26	C	0.711462	-0.131831	-0.136319
C27	C	0.741294	-0.076628	-0.079826
C28	C	0.691816	-0.037077	-0.039352
C29	C	0.602329	-0.202701	-0.208829
C30	C	0.651801	-0.242247	-0.249302
C31	C	0.731108	-0.226585	-0.233287
C32	C	0.760940	-0.171382	-0.176794
C33	C	0.780586	-0.266136	-0.273761
C34	C	0.859889	-0.250480	-0.257742
C35	C	0.840244	-0.155726	-0.160774
C36	C	1.171362	-0.390361	-0.144385
C37	C	1.171411	-0.497561	-0.144391
C38	C	1.171500	-0.693826	-0.144423
C39	C	1.171449	-0.584610	-0.144408
C40	C	1.369495	-0.100689	-0.104435
C41	C	1.453902	-0.084053	-0.087406
C42	C	1.211519	-0.080881	-0.342478
C43	C	1.228606	-0.055803	-0.426890
C44	C	1.171506	0.111891	-0.144419
C45	C	1.171541	0.219116	-0.144429
C46	C	1.041904	-0.329658	-0.753462
C47	C	1.057976	-0.306079	-0.832776
C48	C	1.155140	-0.163558	-0.813183
C49	C	1.139073	-0.187123	-0.733866
C50	C	1.082455	-0.270175	-0.704012
C51	C	1.179624	-0.127639	-0.684416
C52	C	1.163562	-0.151206	-0.605106
C53	C	1.106948	-0.234255	-0.575246
C54	C	1.066393	-0.293741	-0.624702
C55	C	1.236246	-0.044592	-0.714271
C56	C	1.276797	0.014891	-0.664821
C57	C	1.260731	-0.008670	-0.585510
C58	C	1.204117	-0.091720	-0.555650
C59	C	1.301286	0.050815	-0.536054
C60	C	1.285224	0.027249	-0.456744
C61	C	1.188055	-0.115286	-0.476339
C62	C	1.131524	-0.198270	0.052926
C63	C	1.114584	-0.223047	0.137366
H64	H	0.479078	-0.168557	-0.173878
H65	H	0.537754	-0.215447	-0.221869
C66	C	1.004109	-0.385091	-0.591854
H67	H	1.000350	-0.390599	-0.537538
H68	H	1.017827	-0.443859	-0.602603
H69	H	0.955721	-0.377155	-0.615150
H70	H	0.443455	0.003362	0.002031
C71	C	0.979653	-0.421044	-0.720612
H72	H	0.957810	-0.453110	-0.761418
H73	H	0.940302	-0.399897	-0.696337
H74	H	1.002460	-0.466523	-0.683817
C75	C	1.013364	-0.371514	-0.887169
H76	H	0.977342	-0.424346	-0.858028
H77	H	1.048665	-0.398626	-0.912243
H78	H	0.986550	-0.331937	-0.924789
H79	H	0.900171	-0.282681	-0.290700
H80	H	1.322898	0.082510	-0.689139
H81	H	0.587328	0.031786	0.031094
C82	C	1.217411	-0.072203	-0.846028
H83	H	1.221166	-0.066681	-0.900346
H84	H	1.265798	-0.080117	-0.822731
H85	H	1.203674	-0.013440	-0.835280
H86	H	1.249324	-0.025409	-0.778851
H87	H	1.141933	-0.182896	-0.452035
C88	C	0.618988	-0.302967	-0.311444
H89	H	0.564673	-0.306623	-0.315193
H90	H	0.629712	-0.368518	-0.297624
H91	H	0.642332	-0.271202	-0.359863
C92	C	1.363563	0.142163	-0.568900
H93	H	1.367320	0.147680	-0.623217
H94	H	1.411948	0.134242	-0.545600
H95	H	1.349832	0.200932	-0.558156
H96	H	0.756288	-0.311095	-0.319753
C97	C	1.329826	0.092675	-0.402343
H98	H	1.312155	0.066737	-0.350832
H99	H	1.321367	0.159164	-0.417585
H100	H	1.383479	0.092469	-0.405040
H101	H	0.805868	-0.063884	-0.066783
C102	C	0.724632	0.023667	0.022781
H103	H	0.683811	0.044981	0.044593
H104	H	0.761470	0.080389	-0.000086
H105	H	0.748850	-0.016907	0.062174
C106	C	0.873062	-0.094991	-0.098637
H107	H	0.927379	-0.091328	-0.094899
H108	H	0.849721	-0.126733	-0.050217
H109	H	0.862344	-0.029433	-0.112472
C110	C	1.089275	-0.260185	-0.488007
H111	H	1.049753	-0.318170	-0.477310
H112	H	1.072529	-0.205855	-0.472717
H113	H	1.134643	-0.272548	-0.460172
