data_functionalizedCrystal
_audit_creation_method	'MofGen! by Chris Wilmer'
_symmetry_space_group_name_H-M	'P1'
_symmetry_Int_Tables_number	1
_symmetry_cell_setting	triclinic
loop_
_symmetry_equiv_pos_as_xyz
  x,y,z
_cell_length_a	10.967926
_cell_length_b	17.038274
_cell_length_c	9.482900
_cell_angle_alpha	100.005815
_cell_angle_beta	111.315955
_cell_angle_gamma	92.158675
loop_
_atom_site_label
_atom_site_type_symbol
_atom_site_fract_x
_atom_site_fract_y
_atom_site_fract_z
O1	O	1.713772	-0.078794	0.308445
O2	O	1.337391	-0.098751	0.214139
O3	O	1.523350	0.025003	0.260773
O4	O	1.527812	-0.202548	0.261811
O5	O	1.561191	0.050195	0.512055
O6	O	1.375231	-0.073559	0.465421
O7	O	1.751612	-0.053602	0.559727
Cu8	Cu	1.566877	-0.061280	0.535518
Cu9	Cu	1.522126	-0.091073	0.238348
O10	O	1.565653	-0.177356	0.513093
C11	C	1.307915	-0.086607	0.327655
C12	C	1.163709	-0.087943	0.291525
C13	C	1.119020	-0.075488	0.405588
C14	C	0.969975	-0.076868	0.368249
C15	C	1.538202	0.066647	0.385402
C16	C	1.526065	0.153202	0.382383
C17	C	1.637528	0.205524	0.410324
C18	C	1.626114	0.286850	0.407471
C19	C	1.503238	0.315852	0.376687
C20	C	1.391766	0.263522	0.348739
C21	C	1.403180	0.182197	0.351582
C22	C	1.462914	0.560815	0.366626
C23	C	1.451509	0.642147	0.363790
C24	C	1.685857	0.665469	0.422519
C25	C	1.697261	0.584143	0.425368
C26	C	1.585789	0.531819	0.397412
C27	C	1.491569	0.398979	0.373775
C28	C	1.597457	0.448692	0.400314
C29	C	1.781087	-0.065747	0.446208
C30	C	1.925292	-0.064412	0.482328
C31	C	1.550809	0.781006	0.388526
C32	C	1.562972	0.694470	0.391731
N33	N	1.490651	-0.112022	0.029335
C34	C	1.557600	-0.067465	-0.026075
C35	C	1.531402	-0.084889	-0.200063
N36	N	1.598361	-0.040325	0.744534
H37	H	1.191101	-0.063799	0.530885
H38	H	1.697497	0.425072	0.425344
O39	O	0.874516	-0.092351	0.202260
H40	H	0.772431	-0.091013	0.198979
O41	O	1.429777	-0.152514	-0.307816
H42	H	1.332070	-0.141557	-0.303141
O43	O	1.318975	0.673434	0.330597
H44	H	1.292761	0.699670	0.225497
O45	O	1.020748	-0.048936	0.648317
H46	H	1.122833	-0.050287	0.651603
H47	H	1.091628	-0.099625	0.166227
O48	O	1.770057	0.174243	0.443512
H49	H	1.845642	0.224290	0.462442
H50	H	1.372144	0.518223	0.343863
H51	H	1.675085	0.010722	-0.174101
O52	O	1.282956	0.125764	0.321450
H53	H	1.311532	0.064340	0.328584
H54	H	1.634319	-0.016420	0.055292
H55	H	1.413942	-0.163071	-0.052032
O56	O	1.746344	0.343283	0.437633
H57	H	1.789317	0.322989	0.349860
O58	O	1.829786	0.552857	0.458533
H59	H	1.905375	0.602902	0.477461
H60	H	1.776611	0.708078	0.445276
O61	O	1.259233	0.294798	0.315552
H62	H	1.270023	0.360141	0.318291
H63	H	1.391523	0.422602	0.348714
