data_functionalizedCrystal
_audit_creation_method	'MofGen! by Chris Wilmer'
_symmetry_space_group_name_H-M	'P1'
_symmetry_Int_Tables_number	1
_symmetry_cell_setting	triclinic
loop_
_symmetry_equiv_pos_as_xyz
  x,y,z
_cell_length_a	12.759401
_cell_length_b	19.805405
_cell_length_c	12.759393
_cell_angle_alpha	90.036554
_cell_angle_beta	90.020938
_cell_angle_gamma	90.027935
loop_
_atom_site_label
_atom_site_type_symbol
_atom_site_fract_x
_atom_site_fract_y
_atom_site_fract_z
Zn1	Zn	1.606181	-0.269403	0.593976
Zn2	Zn	1.606036	-0.382606	0.418277
Zn3	Zn	1.430480	-0.269439	0.418311
Zn4	Zn	1.430436	-0.382558	0.593915
O5	O	1.518283	-0.326001	0.506120
O6	O	1.753183	-0.284424	0.570681
O7	O	1.582706	-0.367629	0.271261
O8	O	1.453866	-0.174718	0.441653
O9	O	1.753076	-0.367594	0.441596
O10	O	1.582953	-0.174691	0.570713
O11	O	1.453725	-0.284486	0.271285
O12	O	1.283453	-0.284440	0.441594
O13	O	1.453791	-0.367513	0.740944
O14	O	1.283420	-0.367548	0.570609
O15	O	1.582910	-0.284378	0.740989
O16	O	1.582663	-0.477316	0.441536
O17	O	1.453650	-0.477281	0.570576
C18	C	1.245316	-0.325993	0.506099
C19	C	1.128539	-0.326006	0.506115
C20	C	1.073688	-0.369346	0.573187
C21	C	0.963964	-0.369349	0.573208
C22	C	0.963952	-0.282669	0.439075
C23	C	1.073674	-0.282663	0.439060
C24	C	1.518165	-0.501858	0.506069
C25	C	1.518210	-0.577089	0.506082
C26	C	1.585453	-0.612429	0.438962
C27	C	1.585497	-0.683118	0.438985
C28	C	1.518294	-0.718465	0.506124
C29	C	1.451048	-0.683120	0.573252
C30	C	1.451010	-0.612433	0.573234
C31	C	1.451203	-0.968194	0.573330
C32	C	1.451245	-1.038886	0.573342
C33	C	1.585691	-1.038878	0.439081
C34	C	1.585652	-0.968191	0.439063
C35	C	1.518411	-0.932852	0.506194
C36	C	1.518365	-0.856204	0.506170
C37	C	1.518334	-0.795112	0.506144
C38	C	1.792316	-0.326010	0.506141
C39	C	1.909093	-0.326014	0.506150
C40	C	1.518362	-0.325936	0.780153
C41	C	1.518395	-0.325909	0.896930
C42	C	1.518430	-0.149459	0.506194
C43	C	1.518493	-0.074227	0.506225
C44	C	1.518265	-0.326017	0.233152
C45	C	1.518435	-0.325854	0.116376
C46	C	1.585633	-0.282614	0.951817
C47	C	1.585650	-0.282584	1.061541
C48	C	1.451190	-0.369151	1.061481
C49	C	1.451168	-0.369177	0.951759
H50	H	0.919309	-0.404640	0.627827
H51	H	1.396408	-0.404432	0.907069
C52	C	1.645302	-0.244211	0.783647
C53	C	1.659515	-0.235047	0.891546
H54	H	1.690918	-0.214845	0.746443
H55	H	1.574724	-0.234309	0.765665
H56	H	1.660644	-0.289694	0.765657
H57	H	1.644166	-0.189566	0.909538
H58	H	1.730110	-0.244945	0.909535
H59	H	1.640372	-0.939413	0.384388
H60	H	1.640400	-0.247328	1.106225
H61	H	1.640252	-0.711888	0.384328
H62	H	1.396256	-0.583660	0.627892
H63	H	1.396334	-0.711906	0.627923
C64	C	1.391526	-0.407554	1.229652
C65	C	1.377305	-0.416715	1.121754
H66	H	1.345916	-0.436923	1.266858
H67	H	1.376191	-0.362078	1.247647
H68	H	1.462116	-0.417460	1.247629
H69	H	1.306717	-0.406804	1.103776
H70	H	1.392633	-0.462202	1.103752
H71	H	1.396452	-0.939426	0.627989
C72	C	1.062674	-0.455018	0.705785
C73	C	1.133996	-0.416980	0.646904
H74	H	1.099907	-0.484421	0.751302
H75	H	1.019844	-0.480876	0.659943
H76	H	1.019914	-0.425552	0.746055
H77	H	1.176752	-0.446446	0.606628
H78	H	1.176845	-0.391120	0.692751
H79	H	0.919267	-0.247382	0.384480
H80	H	1.118335	-0.247366	0.384442
H81	H	1.640446	-1.067659	0.384424
C82	C	1.718359	-0.619529	0.306253
C83	C	1.659326	-0.573579	0.365158
H84	H	1.763971	-0.595545	0.260695
H85	H	1.672620	-0.647144	0.266035
H86	H	1.758534	-0.647055	0.352084
H87	H	1.619144	-0.546056	0.319327
H88	H	1.705071	-0.545952	0.405379
C89	C	1.318355	-1.031797	0.706082
C90	C	1.377378	-1.077741	0.647156
H91	H	1.272761	-1.055786	0.751653
H92	H	1.278170	-1.004273	0.660274
H93	H	1.364109	-1.004179	0.746298
H94	H	1.331624	-1.105355	0.606935
H95	H	1.417567	-1.105277	0.692971
