data_functionalizedCrystal
_audit_creation_method	'MofGen! by Chris Wilmer'
_symmetry_space_group_name_H-M	'P1'
_symmetry_Int_Tables_number	1
_symmetry_cell_setting	triclinic
loop_
_symmetry_equiv_pos_as_xyz
  x,y,z
_cell_length_a	12.759401
_cell_length_b	13.032721
_cell_length_c	12.759393
_cell_angle_alpha	97.147972
_cell_angle_beta	89.980163
_cell_angle_gamma	97.205831
loop_
_atom_site_label
_atom_site_type_symbol
_atom_site_fract_x
_atom_site_fract_y
_atom_site_fract_z
Zn1	Zn	1.553102	-0.415933	-0.647097
Zn2	Zn	1.530661	-0.590715	-0.493720
Zn3	Zn	1.377397	-0.415992	-0.471439
Zn4	Zn	1.355067	-0.590639	-0.669348
O5	O	1.454056	-0.503320	-0.570401
O6	O	1.697145	-0.439125	-0.626763
O7	O	1.510283	-0.567594	-0.343751
O8	O	1.419441	-0.269746	-0.476104
O9	O	1.680658	-0.567537	-0.514079
O10	O	1.548531	-0.269703	-0.605158
O11	O	1.397681	-0.439226	-0.327381
O12	O	1.227414	-0.439152	-0.497680
O13	O	1.381383	-0.567407	-0.813410
O14	O	1.211009	-0.567464	-0.643082
O15	O	1.526879	-0.439051	-0.797062
O16	O	1.488631	-0.736943	-0.535655
O17	O	1.359622	-0.736886	-0.664688
C18	C	1.181091	-0.503307	-0.570379
C19	C	1.064312	-0.503326	-0.570397
C20	C	1.000922	-0.570240	-0.646015
C21	C	0.891197	-0.570244	-0.646037
C22	C	0.908262	-0.436418	-0.494812
C23	C	1.017985	-0.436409	-0.494796
C24	C	1.419297	-0.774832	-0.605026
C25	C	1.404523	-0.890987	-0.619874
C26	C	1.461823	-0.942765	-0.562699
C27	C	1.446555	-1.062817	-0.578044
C28	C	1.728088	-0.503333	-0.570424
C29	C	1.844864	-0.503339	-0.570434
C30	C	1.454143	-0.503214	-0.844421
C31	C	1.454180	-0.503169	-0.961192
C32	C	1.488980	-0.230747	-0.535664
C33	C	1.503863	-0.114592	-0.520860
C34	C	1.395574	-0.436315	-1.007528
C35	C	1.395602	-0.436283	-1.117248
C36	C	1.512853	-0.569961	-1.134287
C37	C	1.512817	-0.569998	-1.024569
C38	C	1.454040	-0.503349	-0.297438
C39	C	1.454244	-0.503100	-0.180630
H40	H	0.839589	-0.624731	-0.707614
H41	H	1.038637	-0.624726	-0.707577
H42	H	0.870530	-0.381937	-0.433259
H43	H	1.069601	-0.381913	-0.433218
C44	C	1.491995	-0.819984	-0.405808
C45	C	1.543309	-0.882637	-0.481277
H46	H	1.542303	-0.782871	-0.355538
H47	H	1.458035	-0.771949	-0.439695
H48	H	1.440858	-0.862646	-0.370998
H49	H	1.594441	-0.839973	-0.516093
H50	H	1.577286	-0.930678	-0.447387
H51	H	1.347828	-0.381899	-0.955929
C52	C	1.279717	-0.304143	-1.089377
C53	C	1.331186	-0.362790	-1.168180
H54	H	1.239952	-0.258766	-1.120822
H55	H	1.233682	-0.349682	-1.052381
H56	H	1.330616	-0.264192	-1.041495
H57	H	1.280287	-0.402747	-1.216058
H58	H	1.377225	-0.317245	-1.205193
H59	H	1.386194	-1.107361	-0.638362
H60	H	1.560594	-0.624370	-1.185901
C61	C	1.534044	-0.991822	-0.363959
C62	C	1.585354	-1.054475	-0.439432
H63	H	1.584353	-0.954715	-0.313687
H64	H	1.500088	-0.943782	-0.397842
H65	H	1.482904	-1.034485	-0.329152
H66	H	1.636489	-1.011811	-0.474244
H67	H	1.619328	-1.102521	-0.405545
H68	H	1.560544	-0.624442	-0.986843
H69	H	1.344166	-0.935535	-0.680189
