data_functionalizedCrystal
_audit_creation_method	'MofGen! by Chris Wilmer'
_symmetry_space_group_name_H-M	'P1'
_symmetry_Int_Tables_number	1
_symmetry_cell_setting	triclinic
loop_
_symmetry_equiv_pos_as_xyz
  x,y,z
_cell_length_a	25.639242
_cell_length_b	25.639239
_cell_length_c	12.759393
_cell_angle_alpha	89.962948
_cell_angle_beta	89.977361
_cell_angle_gamma	90.030990
loop_
_atom_site_label
_atom_site_type_symbol
_atom_site_fract_x
_atom_site_fract_y
_atom_site_fract_z
Zn1	Zn	0.799268	-0.208227	-0.594057
Zn2	Zn	1.132601	0.125106	-0.260724
Zn3	Zn	1.465934	0.458439	0.072609
Zn4	Zn	0.799179	-0.295674	-0.418360
Zn5	Zn	1.132512	0.037659	-0.085027
Zn6	Zn	1.465845	0.370993	0.248306
Zn7	Zn	0.711831	-0.208243	-0.418384
Zn8	Zn	1.045165	0.125091	-0.085051
Zn9	Zn	1.378498	0.458424	0.248283
Zn10	Zn	0.711789	-0.295622	-0.593989
Zn11	Zn	1.045123	0.037712	-0.260656
Zn12	Zn	1.378456	0.371045	0.072677
O13	O	0.755517	-0.251941	-0.506198
O14	O	1.088850	0.081392	-0.172864
O15	O	1.422183	0.414725	0.160469
O16	O	0.872421	-0.219843	-0.570769
O17	O	1.205754	0.113491	-0.237436
O18	O	1.539088	0.446824	0.095897
O19	O	0.787572	-0.284104	-0.271342
O20	O	1.120906	0.049229	0.061991
O21	O	1.454239	0.382562	0.395324
O22	O	0.723485	-0.135075	-0.441726
O23	O	1.056818	0.198258	-0.108392
O24	O	1.390152	0.531591	0.224941
O25	O	0.872356	-0.284089	-0.441686
O26	O	1.205689	0.049244	-0.108352
O27	O	1.539022	0.382577	0.224981
O28	O	0.787724	-0.135064	-0.570792
O29	O	1.121058	0.198269	-0.237459
O30	O	1.454391	0.531603	0.095875
O31	O	0.723399	-0.219869	-0.271360
O32	O	1.056732	0.113464	0.061974
O33	O	1.390065	0.446798	0.395307
O34	O	0.638661	-0.219818	-0.441660
O35	O	0.971994	0.113515	-0.108326
O36	O	1.305327	0.446848	0.225007
O37	O	0.723413	-0.284000	-0.741019
O38	O	1.056746	0.049333	-0.407686
O39	O	1.390080	0.382666	-0.074353
O40	O	0.638630	-0.284015	-0.570676
O41	O	0.971963	0.049318	-0.237343
O42	O	1.305296	0.382651	0.095990
O43	O	0.787683	-0.219792	-0.741069
O44	O	1.121017	0.113541	-0.407736
O45	O	1.454350	0.446875	-0.074403
O46	O	0.787531	-0.368832	-0.441620
O47	O	1.120865	-0.035499	-0.108286
O48	O	1.454198	0.297834	0.225047
O49	O	0.723327	-0.368794	-0.570653
O50	O	1.056660	-0.035461	-0.237320
O51	O	1.389993	0.297873	0.096013
C52	C	0.619674	-0.251913	-0.506164
C53	C	0.953008	0.081420	-0.172830
C54	C	1.286341	0.414753	0.160503
C55	C	0.561560	-0.251914	-0.506174
C56	C	0.894894	0.081420	-0.172841
C57	C	1.228227	0.414753	0.160493
C58	C	0.310409	-0.218548	-0.573534
C59	C	0.643742	0.114786	-0.240201
C60	C	0.977076	0.448119	0.093132
C61	C	0.365013	-0.218542	-0.573528
C62	C	0.698347	0.114791	-0.240195
C63	C	1.031680	0.448124	0.093138
O64	O	0.393286	-0.190151	-0.630793
O65	O	0.726619	0.143183	-0.297459
O66	O	1.059952	0.476516	0.035874
N67	N	0.392286	-0.251935	-0.506210
N68	N	0.725620	0.081398	-0.172876
N69	N	1.058953	0.414731	0.160457
C70	C	0.364952	-0.285339	-0.438900
C71	C	0.698286	0.047994	-0.105567
C72	C	1.031619	0.381327	0.227766
O73	O	0.393164	-0.313743	-0.381641
O74	O	0.726497	0.019591	-0.048308
O75	O	1.059831	0.352924	0.285026
C76	C	0.310349	-0.285347	-0.438912
C77	C	0.643682	0.047986	-0.105579
C78	C	0.977016	0.381320	0.227754
C79	C	0.283079	-0.251948	-0.506228
C80	C	0.616412	0.081385	-0.172895
C81	C	0.949745	0.414719	0.160439
C82	C	0.283139	-0.185152	-0.640845
C83	C	0.616472	0.148182	-0.307512
C84	C	0.949805	0.481515	0.025822
C85	C	0.228538	-0.185156	-0.640849
C86	C	0.561871	0.148177	-0.307516
C87	C	0.895205	0.481510	0.025817
C88	C	0.201208	-0.218557	-0.573543
C89	C	0.534541	0.114777	-0.240210
C90	C	0.867874	0.448110	0.093124
C91	C	0.228478	-0.251953	-0.506232
C92	C	0.561811	0.081381	-0.172899
C93	C	0.895145	0.414714	0.160435
C94	C	0.283016	-0.318753	-0.371609
C95	C	0.616349	0.014580	-0.038276
C96	C	0.949683	0.347913	0.295057
C97	C	0.228409	-0.318758	-0.371628
C98	C	0.561742	0.014575	-0.038294
C99	C	0.895075	0.347909	0.295039
C100	C	0.201139	-0.285359	-0.438943
C101	C	0.534472	0.047974	-0.105610
C102	C	0.867805	0.381308	0.227724
C103	C	0.146547	-0.285358	-0.438930
C104	C	0.479881	0.047976	-0.105597
C105	C	0.813214	0.381309	0.227737
N106	N	0.119274	-0.251965	-0.506249
N107	N	0.452608	0.081369	-0.172915
N108	N	0.785941	0.414702	0.160418
C109	C	0.146604	-0.218564	-0.573555
C110	C	0.479938	0.114769	-0.240222
C111	C	0.813271	0.448102	0.093112
C112	C	0.479623	-0.285322	-0.438882
C113	C	0.812956	0.048011	-0.105548
C114	C	1.146290	0.381345	0.227785
C115	C	0.534225	-0.285312	-0.438863
C116	C	0.867559	0.048021	-0.105530
C117	C	1.200892	0.381354	0.227803
C118	C	0.534282	-0.218516	-0.573493
C119	C	0.867616	0.114817	-0.240160
C120	C	1.200949	0.448151	0.093174
C121	C	0.479679	-0.218523	-0.573505
C122	C	0.813012	0.114810	-0.240172
C123	C	1.146346	0.448143	0.093162
C124	C	0.452350	-0.251929	-0.506200
C125	C	0.785683	0.081404	-0.172867
C126	C	1.119016	0.414738	0.160467
C127	C	0.031939	-0.218576	-0.573558
C128	C	0.365273	0.114757	-0.240225
C129	C	0.698606	0.448091	0.093108
C130	C	-0.022666	-0.218582	-0.573554
C131	C	0.310667	0.114751	-0.240220
C132	C	0.644001	0.448085	0.093113
C133	C	-0.022718	-0.285380	-0.438929
C134	C	0.310615	0.047953	-0.105595
C135	C	0.643948	0.381286	0.227738
C136	C	0.031882	-0.285373	-0.438929
C137	C	0.365216	0.047961	-0.105596
C138	C	0.698549	0.381294	0.227738
C139	C	0.059210	-0.251969	-0.506252
C140	C	0.392543	0.081365	-0.172919
C141	C	0.725876	0.414698	0.160414
O142	O	0.118240	-0.313736	-0.381698
O143	O	0.451574	0.019597	-0.048365
O144	O	0.784907	0.352930	0.284969
O145	O	0.118386	-0.190171	-0.630814
O146	O	0.451719	0.143163	-0.297481
O147	O	0.785053	0.476496	0.035852
C148	C	0.755429	-0.387784	-0.506150
C149	C	1.088762	-0.054451	-0.172816
C150	C	1.422096	0.278883	0.160517
C151	C	0.755439	-0.445898	-0.506164
C152	C	1.088772	-0.112565	-0.172831
C153	C	1.422106	0.220769	0.160503
C154	C	0.789035	-0.806268	-0.439124
C155	C	1.122369	-0.472935	-0.105791
C156	C	1.455702	-0.139602	0.227542
C157	C	0.789056	-0.860873	-0.439138
C158	C	1.122389	-0.527539	-0.105805
C159	C	1.455722	-0.194206	0.227528
O160	O	0.817529	-0.889116	-0.382086
O161	O	1.150863	-0.555782	-0.048753
O162	O	1.484196	-0.222449	0.284581
N163	N	0.755609	-0.888180	-0.506267
N164	N	1.088942	-0.554847	-0.172934
N165	N	1.422275	-0.221514	0.160399
C166	C	0.722143	-0.860881	-0.573394
C167	C	1.055476	-0.527548	-0.240061
C168	C	1.388810	-0.194214	0.093273
O169	O	0.693696	-0.889122	-0.630494
O170	O	1.027029	-0.555789	-0.297161
O171	O	1.360363	-0.222456	0.036172
C172	C	0.722126	-0.806278	-0.573385
C173	C	1.055459	-0.472944	-0.240051
C174	C	1.388792	-0.139611	0.093282
C175	C	0.755571	-0.778973	-0.506244
C176	C	1.088905	-0.445640	-0.172910
C177	C	1.422238	-0.112306	0.160423
C178	C	0.822478	-0.778964	-0.371990
C179	C	1.155812	-0.445630	-0.038656
C180	C	1.489145	-0.112297	0.294677
C181	C	0.822457	-0.724363	-0.371975
C182	C	1.155791	-0.391030	-0.038641
C183	C	1.489124	-0.057696	0.294692
C184	C	0.788993	-0.697067	-0.439094
C185	C	1.122327	-0.363734	-0.105761
C186	C	1.455660	-0.030401	0.227573
C187	C	0.755550	-0.724372	-0.506229
C188	C	1.088883	-0.391039	-0.172895
C189	C	1.422217	-0.057706	0.160438
C190	C	0.688663	-0.778979	-0.640516
C191	C	1.021996	-0.445646	-0.307183
C192	C	1.355330	-0.112313	0.026151
C193	C	0.688649	-0.724372	-0.640501
C194	C	1.021982	-0.391039	-0.307168
C195	C	1.355316	-0.057706	0.026166
C196	C	0.722094	-0.697067	-0.573360
C197	C	1.055428	-0.363734	-0.240027
C198	C	1.388761	-0.030401	0.093306
C199	C	0.722065	-0.642476	-0.573333
C200	C	1.055398	-0.309143	-0.239999
C201	C	1.388732	0.024190	0.093334
N202	N	0.755512	-0.615168	-0.506204
N203	N	1.088845	-0.281835	-0.172871
N204	N	1.422178	0.051498	0.160463
C205	C	0.788976	-0.642464	-0.439084
C206	C	1.122309	-0.309131	-0.105751
C207	C	1.455643	0.024203	0.227582
C208	C	0.722182	-0.975552	-0.573410
C209	C	1.055516	-0.642218	-0.240077
C210	C	1.388849	-0.308885	0.093256
C211	C	0.722197	-1.030154	-0.573415
C212	C	1.055530	-0.696821	-0.240082
C213	C	1.388863	-0.363487	0.093251
C214	C	0.789110	-1.030142	-0.439161
C215	C	1.122443	-0.696809	-0.105827
C216	C	1.455777	-0.363475	0.227506
C217	C	0.789093	-0.975539	-0.439151
C218	C	1.122426	-0.642205	-0.105818
C219	C	1.455759	-0.308872	0.227515
C220	C	0.755629	-0.948244	-0.506281
C221	C	1.088963	-0.614911	-0.172948
C222	C	1.422296	-0.281577	0.160385
C223	C	0.788929	-0.527799	-0.439057
C224	C	1.122262	-0.194466	-0.105724
C225	C	1.455595	0.138868	0.227610
C226	C	0.788903	-0.473194	-0.439045
C227	C	1.122237	-0.139860	-0.105711
C228	C	1.455570	0.193473	0.227622
C229	C	0.721992	-0.473210	-0.573303
C230	C	1.055325	-0.139877	-0.239969
C231	C	1.388659	0.193456	0.093364
C232	C	0.722015	-0.527811	-0.573312
C233	C	1.055349	-0.194478	-0.239978
C234	C	1.388682	0.138856	0.093355
C235	C	0.755488	-0.555104	-0.506185
C236	C	1.088821	-0.221771	-0.172852
C237	C	1.422155	0.111563	0.160481
O238	O	0.693607	-0.614198	-0.630359
O239	O	1.026941	-0.280865	-0.297026
O240	O	1.360274	0.052468	0.036308
O241	O	0.817423	-0.614216	-0.382003
O242	O	1.150756	-0.280883	-0.048670
O243	O	1.484090	0.052450	0.284663
C244	C	0.891890	-0.251970	-0.506232
C245	C	1.225223	0.081363	-0.172899
C246	C	1.558556	0.414696	0.160434
C247	C	0.950004	-0.251982	-0.506247
C248	C	1.283337	0.081351	-0.172914
C249	C	1.616670	0.414684	0.160419
C250	C	0.755553	-0.251889	-0.780231
C251	C	1.088887	0.081445	-0.446898
C252	C	1.422220	0.414778	-0.113565
C253	C	0.755569	-0.251866	-0.897008
C254	C	1.088902	0.081467	-0.563675
C255	C	1.422236	0.414800	-0.230341
C256	C	0.755619	-0.115568	-0.506269
C257	C	1.088953	0.217765	-0.172936
C258	C	1.422286	0.551098	0.160398
C259	C	0.755663	-0.057454	-0.506299
C260	C	1.088996	0.275879	-0.172966
C261	C	1.422330	0.609212	0.160367
C262	C	0.789039	-0.218430	-0.951898
C263	C	1.122372	0.114904	-0.618564
C264	C	1.455706	0.448237	-0.285231
C265	C	0.789052	-0.218411	-1.061622
C266	C	1.122385	0.114922	-0.728288
C267	C	1.455718	0.448256	-0.394955
C268	C	0.722122	-0.285269	-1.061557
C269	C	1.055456	0.048064	-0.728223
C270	C	1.388789	0.381397	-0.394890
C271	C	0.722108	-0.285285	-0.951835
C272	C	1.055441	0.048048	-0.618501
C273	C	1.388774	0.381381	-0.285168
C274	C	0.822500	-0.185011	-0.897071
C275	C	1.155834	0.148323	-0.563738
C276	C	1.489167	0.481656	-0.230404
C277	C	0.855974	-0.151572	-0.951961
C278	C	1.189307	0.181761	-0.618627
C279	C	1.522640	0.515095	-0.285294
C280	C	0.855986	-0.151553	-1.061685
C281	C	1.189319	0.181780	-0.728352
C282	C	1.522653	0.515114	-0.395018
C283	C	0.822525	-0.184973	-1.116519
C284	C	1.155859	0.148360	-0.783186
C285	C	1.489192	0.481694	-0.449853
C286	C	0.755510	-0.251956	-0.233230
C287	C	1.088844	0.081377	0.100103
C288	C	1.422177	0.414710	0.433436
C289	C	0.755596	-0.251831	-0.116454
C290	C	1.088929	0.081502	0.216879
C291	C	1.422263	0.414835	0.550212
H292	H	-0.044981	-0.312572	-0.384125
H293	H	0.288353	0.020761	-0.050792
H294	H	0.621686	0.354095	0.282541
O295	O	-0.052078	-0.182555	-0.646157
O296	O	0.281255	0.150778	-0.312824
O297	O	0.614588	0.484112	0.020509
H298	H	-0.076959	-0.205986	-0.699524
H299	H	0.256374	0.127347	-0.366190
H300	H	0.589708	0.460681	-0.032857
H301	H	0.556545	-0.191320	-0.628298
H302	H	0.889878	0.142014	-0.294964
H303	H	1.223211	0.475347	0.038369
H304	H	0.054087	-0.312564	-0.384106
H305	H	0.387420	0.020769	-0.050773
H306	H	0.720753	0.354103	0.282561
O307	O	0.450272	-0.182501	-0.646117
O308	O	0.783605	0.150832	-0.312783
O309	O	1.116938	0.484165	0.020550
H310	H	0.425397	-0.155872	-0.599199
H311	H	0.758730	0.177461	-0.265865
H312	H	1.092064	0.510795	0.067468
O313	O	0.822534	-0.184945	-1.234866
O314	O	1.155867	0.148388	-0.901532
O315	O	1.489200	0.481722	-0.568199
H316	H	0.793642	-0.213798	-1.263770
H317	H	1.126976	0.119535	-0.930437
H318	H	1.460309	0.452868	-0.597103
O319	O	0.824981	-0.443742	-0.366634
O320	O	1.158315	-0.110409	-0.033301
O321	O	1.491648	0.222925	0.300032
H322	H	0.848259	-0.471900	-0.319976
H323	H	1.181592	-0.138566	0.013357
H324	H	1.514925	0.194767	0.346690
O325	O	0.686035	-0.321316	-1.120692
O326	O	1.019369	0.012018	-0.787359
O327	O	1.352702	0.345351	-0.454025
H328	H	0.691672	-0.315690	-1.206210
H329	H	1.025005	0.017644	-0.872877
H330	H	1.358339	0.350977	-0.539544
O331	O	0.825026	-0.557233	-0.366650
O332	O	1.158359	-0.223900	-0.033317
O333	O	1.491692	0.109433	0.300016
H334	H	0.848270	-0.529066	-0.319963
H335	H	1.181604	-0.195732	0.013370
H336	H	1.514937	0.137601	0.346704
H337	H	0.457375	-0.312524	-0.384065
H338	H	0.790708	0.020809	-0.050731
H339	H	1.124041	0.354143	0.282602
O340	O	0.858538	-0.694915	-0.299574
O341	O	1.191872	-0.361582	0.033759
O342	O	1.525205	-0.028248	0.367092
H343	H	0.881813	-0.723076	-0.252921
H344	H	1.215147	-0.389743	0.080412
H345	H	1.548480	-0.056410	0.413746
O346	O	0.858571	-0.808400	-0.299584
O347	O	1.191905	-0.475067	0.033749
O348	O	1.525238	-0.141733	0.367083
H349	H	0.881817	-0.780231	-0.252901
H350	H	1.215150	-0.446898	0.080432
H351	H	1.548483	-0.113565	0.413765
H352	H	0.206160	-0.345963	-0.316821
H353	H	0.539493	-0.012630	0.016512
H354	H	0.872827	0.320704	0.349845
O355	O	0.686116	-1.059597	-0.645824
O356	O	1.019450	-0.726264	-0.312491
O357	O	1.352783	-0.392930	0.020842
H358	H	0.659532	-1.084512	-0.598759
H359	H	0.992866	-0.751179	-0.265425
H360	H	1.326199	-0.417845	0.067908
H361	H	0.816360	-1.052376	-0.384512
H362	H	1.149694	-0.719043	-0.051179
H363	H	1.483027	-0.385709	0.282155
H364	H	0.054183	-0.191375	-0.628379
H365	H	0.387516	0.141958	-0.295046
H366	H	0.720850	0.475291	0.038288
O367	O	0.686073	-0.946118	-0.645798
O368	O	1.019406	-0.612785	-0.312465
O369	O	1.352740	-0.279451	0.020869
H370	H	0.695012	-0.956565	-0.728275
H371	H	1.028345	-0.623232	-0.394942
H372	H	1.361679	-0.289898	-0.061609
O373	O	0.825171	-0.946089	-0.366748
O374	O	1.158504	-0.612755	-0.033414
O375	O	1.491837	-0.279422	0.299919
H376	H	0.848444	-0.974248	-0.320086
H377	H	1.181777	-0.640915	0.013247
H378	H	1.515110	-0.307582	0.346580
H379	H	0.694845	-0.312504	-0.907142
H380	H	1.028179	0.020829	-0.573809
H381	H	1.361512	0.354163	-0.240476
O382	O	0.199127	-0.149137	-0.713461
O383	O	0.532461	0.184196	-0.380127
O384	O	0.865794	0.517530	-0.046794
H385	H	0.227313	-0.125917	-0.760262
H386	H	0.560646	0.207416	-0.426929
H387	H	0.893979	0.540749	-0.093596
O388	O	0.652593	-0.808422	-0.712939
O389	O	0.985926	-0.475089	-0.379606
O390	O	1.319260	-0.141756	-0.046273
H391	H	0.629330	-0.780260	-0.759613
H392	H	0.962663	-0.446926	-0.426280
H393	H	1.295996	-0.113593	-0.092946
O394	O	0.312609	-0.149116	-0.713435
O395	O	0.645942	0.184217	-0.380102
O396	O	0.979276	0.517550	-0.046769
H397	H	0.302140	-0.158125	-0.795862
H398	H	0.635473	0.175208	-0.462529
H399	H	0.968806	0.508541	-0.129196
O400	O	0.312421	-0.354776	-0.299002
O401	O	0.645755	-0.021442	0.034331
O402	O	0.979088	0.311891	0.367664
H403	H	0.284235	-0.378002	-0.252217
H404	H	0.617568	-0.044669	0.081116
H405	H	0.950902	0.288665	0.414449
O406	O	0.563637	-0.321329	-0.366247
O407	O	0.896970	0.012005	-0.032914
O408	O	1.230303	0.345338	0.300419
H409	H	0.535453	-0.344554	-0.319453
H410	H	0.868787	-0.011221	0.013880
H411	H	1.202120	0.322112	0.347213
H412	H	0.661400	-0.702152	-0.695170
H413	H	0.994733	-0.368818	-0.361837
H414	H	1.328066	-0.035485	-0.028503
H415	H	0.694783	-0.550044	-0.627986
H416	H	1.028116	-0.216710	-0.294653
H417	H	1.361450	0.116623	0.038680
O418	O	0.685901	-0.443766	-0.645700
O419	O	1.019235	-0.110433	-0.312367
O420	O	1.352568	0.222901	0.020967
H421	H	0.691514	-0.401210	-0.634413
H422	H	1.024847	-0.067877	-0.301080
H423	H	1.358181	0.265456	0.032253
H424	H	0.822495	-0.185023	-0.807728
H425	H	1.155829	0.148310	-0.474395
H426	H	1.489162	0.481643	-0.141061
O427	O	0.892064	-0.115529	-0.892828
O428	O	1.225398	0.217805	-0.559495
O429	O	1.558731	0.551138	-0.226161
H430	H	0.886438	-0.121162	-0.807309
H431	H	1.219771	0.212171	-0.473976
H432	H	1.553105	0.545504	-0.140642
O433	O	0.892086	-0.115490	-1.120894
O434	O	1.225420	0.217844	-0.787560
O435	O	1.558753	0.551177	-0.454227
H436	H	0.915353	-0.092259	-1.064332
H437	H	1.248686	0.241075	-0.730998
H438	H	1.582019	0.574408	-0.397665
