data_functionalizedCrystal
_audit_creation_method	'MofGen! by Chris Wilmer'
_symmetry_space_group_name_H-M	'P1'
_symmetry_Int_Tables_number	1
_symmetry_cell_setting	triclinic
loop_
_symmetry_equiv_pos_as_xyz
  x,y,z
_cell_length_a	15.625691
_cell_length_b	12.811457
_cell_length_c	11.295483
_cell_angle_alpha	91.289320
_cell_angle_beta	67.883109
_cell_angle_gamma	97.547503
loop_
_atom_site_label
_atom_site_type_symbol
_atom_site_fract_x
_atom_site_fract_y
_atom_site_fract_z
O1	O	-0.127868	1.385294	0.105785
O2	O	-0.139375	1.081716	0.077967
O3	O	0.001044	1.245717	0.035059
O4	O	-0.268287	1.221293	0.148693
O5	O	-0.011270	1.231313	0.236870
O6	O	-0.151689	1.067312	0.279778
O7	O	-0.140182	1.370890	0.307596
Cu8	Cu	-0.147060	1.217786	0.312114
Cu9	Cu	-0.132497	1.234820	0.073449
O10	O	-0.280601	1.206890	0.350504
C11	C	-0.144510	1.035740	0.174244
C12	C	-0.141453	0.920204	0.160446
C13	C	-0.149118	0.687396	0.354551
C14	C	-0.146246	0.578839	0.341593
C15	C	-0.132830	0.594533	0.121570
C16	C	-0.135702	0.703089	0.134528
C17	C	-0.143848	0.749517	0.251023
C18	C	-0.146726	0.858074	0.263983
C19	C	-0.133304	0.873767	0.043958
C20	C	-0.130432	0.765210	0.031000
C21	C	-0.308939	1.213772	0.264455
C22	C	-0.411723	1.212833	0.308726
C23	C	-0.716269	1.248967	-0.095611
C24	C	-0.812854	1.248069	-0.053966
C25	C	-0.826243	1.232367	0.166026
C26	C	-0.729658	1.233258	0.124399
C27	C	-0.674678	1.241560	-0.006421
C28	C	-0.688067	1.225851	0.213588
C29	C	-0.591489	1.226748	0.171964
C30	C	-0.536503	1.235052	0.041151
C31	C	-0.578100	1.242457	-0.048045
C32	C	-0.743047	1.217557	0.344408
C33	C	-0.701456	1.210150	0.433598
C34	C	-0.604878	1.211039	0.391974
C35	C	-0.549891	1.219344	0.261160
C36	C	-0.563280	1.203635	0.481169
C37	C	-0.466702	1.204532	0.439545
C38	C	-0.453314	1.220240	0.219536
C39	C	0.029382	1.238834	0.121105
C40	C	0.132166	1.239774	0.076827
C41	C	-0.135047	1.416867	0.211317
C42	C	-0.138103	1.532403	0.225107
N43	N	-0.157302	1.205813	0.479979
N44	N	-0.122248	1.246802	-0.094418
C45	C	-0.048467	1.332995	0.696019
C46	C	-0.056214	1.323954	0.823051
C47	C	-0.180537	1.178685	0.861073
C48	C	-0.172791	1.187726	0.734042
C49	C	-0.106754	1.264885	0.651519
C50	C	-0.099013	1.273930	0.524488
C51	C	-0.223331	1.128657	0.562510
C52	C	-0.231078	1.119615	0.689541
H53	H	-0.153364	0.895872	0.358841
H54	H	-0.126183	0.556715	0.026719
F55	F	-0.394796	1.229060	0.080301
F56	F	-0.157798	0.736808	0.478535
H57	H	0.005296	1.395827	0.628831
F58	F	-0.028734	1.356051	0.436665
F59	F	0.005826	1.396445	0.870405
H60	H	-0.123796	0.727395	-0.063848
H61	H	-0.270795	1.073199	0.526266
F62	F	-0.127708	0.939886	-0.066225
F63	F	-0.301353	1.037499	0.777376
F64	F	-0.151853	0.512729	0.451780
F65	F	-0.433714	1.236015	-0.003149
H66	H	-0.608058	1.196886	0.587683
H67	H	-0.533334	1.249198	-0.154572
F68	F	-0.857114	1.255956	-0.148905
F69	F	-0.657752	1.257786	-0.234846
F70	F	-0.884766	1.223536	0.305249
H71	H	-0.234297	1.115857	0.928276
F72	F	-0.845834	1.216610	0.388706
F73	F	-0.759979	1.201319	0.572821
H74	H	-0.432839	1.198497	0.512173
