data_functionalizedCrystal
_audit_creation_method	'MofGen! by Chris Wilmer'
_symmetry_space_group_name_H-M	'P1'
_symmetry_Int_Tables_number	1
_symmetry_cell_setting	triclinic
loop_
_symmetry_equiv_pos_as_xyz
  x,y,z
_cell_length_a	18.215407
_cell_length_b	14.908520
_cell_length_c	18.215399
_cell_angle_alpha	93.269364
_cell_angle_beta	89.982632
_cell_angle_gamma	93.318033
loop_
_atom_site_label
_atom_site_type_symbol
_atom_site_fract_x
_atom_site_fract_y
_atom_site_fract_z
Zn1	Zn	1.108174	-0.359230	-0.432973
Zn2	Zn	1.608174	0.140770	0.067027
Zn3	Zn	1.100986	-0.510098	-0.317007
Zn4	Zn	1.600986	-0.010098	0.182993
Zn5	Zn	0.985106	-0.359251	-0.309927
Zn6	Zn	1.485106	0.140749	0.190073
Zn7	Zn	0.977979	-0.510040	-0.440034
Zn8	Zn	1.477979	-0.010040	0.059966
O9	O	1.043061	-0.434655	-0.374985
O10	O	1.543061	0.065345	0.125015
O11	O	1.210204	-0.379258	-0.417598
O12	O	1.710204	0.120742	0.082402
O13	O	1.085589	-0.490121	-0.213085
O14	O	1.585589	0.009879	0.286915
O15	O	1.007422	-0.233004	-0.320331
O16	O	1.507422	0.266996	0.179669
O17	O	1.204923	-0.490100	-0.332398
O18	O	1.704923	0.009900	0.167602
O19	O	1.097840	-0.232988	-0.410732
O20	O	1.597840	0.267012	0.089268
O21	O	1.000452	-0.379295	-0.207883
O22	O	1.500452	0.120705	0.292117
O23	O	0.881177	-0.379238	-0.327178
O24	O	1.381177	0.120762	0.172822
O25	O	0.995275	-0.490001	-0.542080
O26	O	1.495275	0.009999	-0.042080
O27	O	0.875941	-0.490022	-0.422767
O28	O	1.375941	0.009978	0.077233
O29	O	1.090929	-0.379202	-0.536892
O30	O	1.590929	0.120798	-0.036892
O31	O	1.078678	-0.636335	-0.339245
O32	O	1.578678	-0.136335	0.160755
O33	O	0.988305	-0.636292	-0.429632
O34	O	1.488305	-0.136292	0.070368
C35	C	0.851856	-0.434627	-0.374971
C36	C	1.351856	0.065373	0.125029
C37	C	0.770057	-0.434637	-0.374983
C38	C	1.270057	0.065363	0.125017
C39	C	0.584606	-0.377040	-0.419427
C40	C	1.084606	0.122960	0.080573
C41	C	0.507747	-0.377048	-0.419430
C42	C	1.007747	0.122952	0.080570
C43	C	0.502267	-0.492295	-0.330557
C44	C	1.002267	0.007705	0.169443
C45	C	0.579125	-0.492282	-0.330551
C46	C	1.079125	0.007718	0.169449
C47	C	0.620292	-0.434656	-0.374990
C48	C	1.120292	0.065344	0.125010
C49	C	0.466575	-0.434677	-0.374999
C50	C	0.966575	0.065323	0.125001
C51	C	0.383241	-0.434685	-0.375002
C52	C	0.883241	0.065315	0.124998
C53	C	0.703632	-0.434646	-0.374987
C54	C	1.203632	0.065354	0.125013
C55	C	1.031958	-0.669048	-0.385989
C56	C	1.531958	-0.169048	0.114011
C57	C	1.027275	-0.769322	-0.390721
C58	C	1.527275	-0.269322	0.109279
C59	C	1.112678	-0.957731	-0.305568
C60	C	1.612678	-0.457731	0.194432
C61	C	1.108281	-1.051948	-0.310012
C62	C	1.608281	-0.551948	0.189988
C63	C	1.014088	-1.051973	-0.404056
C64	C	1.514088	-0.551973	0.095944
C65	C	1.018485	-0.957757	-0.399612
C66	C	1.518485	-0.457757	0.100388
C67	C	1.067781	-0.910639	-0.350366
C68	C	1.567781	-0.410639	0.149634
C69	C	1.072174	-0.816421	-0.345919
C70	C	1.572174	-0.316421	0.154081
C71	C	0.977985	-0.816448	-0.439966
C72	C	1.477985	-0.316448	0.060034
C73	C	0.973588	-0.910665	-0.444410
C74	C	1.473588	-0.410665	0.055590
C75	C	1.235013	-0.434683	-0.375000
C76	C	1.735013	0.065317	0.125000
C77	C	1.316811	-0.434695	-0.375006
C78	C	1.816811	0.065305	0.124994
C79	C	1.043109	-0.434593	-0.566935
C80	C	1.543109	0.065407	-0.066935
C81	C	1.043129	-0.434566	-0.648733
C82	C	1.543129	0.065434	-0.148733
C83	C	1.054228	-0.199347	-0.363954
C84	C	1.554228	0.300653	0.136046
C85	C	1.058986	-0.099072	-0.359254
C86	C	1.558986	0.400928	0.140746
C87	C	1.092956	-0.376819	-0.834224
C88	C	1.592956	0.123181	-0.334224
C89	C	1.092966	-0.376792	-0.911082
C90	C	1.592966	0.123208	-0.411082
C91	C	0.993361	-0.492174	-0.916473
C92	C	1.493361	0.007826	-0.416473
C93	C	0.993348	-0.492195	-0.839616
C94	C	1.493348	0.007805	-0.339616
C95	C	1.043150	-0.434519	-0.798494
C96	C	1.543150	0.065481	-0.298494
C97	C	1.043173	-0.434471	-0.952208
C98	C	1.543173	0.065529	-0.452208
C99	C	1.043183	-0.434443	-1.035541
C100	C	1.543183	0.065557	-0.535541
C101	C	1.043139	-0.434545	-0.715156
C102	C	1.543139	0.065455	-0.215156
C103	C	1.043059	-0.434652	-0.183779
C104	C	1.543059	0.065348	0.316221
C105	C	1.043193	-0.434424	-0.101969
C106	C	1.543193	0.065576	0.398031
H107	H	0.478695	-0.330130	-0.455613
H108	H	0.978695	0.169870	0.044387
O109	O	0.939622	-0.554432	-0.801076
O110	O	1.439622	-0.054432	-0.301076
H111	H	0.947975	-0.544747	-0.740725
H112	H	1.447975	-0.044747	-0.240725
O113	O	1.146668	-0.314613	-0.789870
O114	O	1.646668	0.185387	-0.289870
H115	H	1.115902	-0.268725	-0.752692
H116	H	1.615902	0.231275	-0.252692
H117	H	1.152812	-0.919367	-0.265465
H118	H	1.652812	-0.419367	0.234535
H119	H	0.618123	-0.330114	-0.455609
H120	H	1.118123	0.169886	0.044391
O121	O	0.457866	-0.554452	-0.282631
O122	O	0.957866	-0.054452	0.217369
H123	H	0.398426	-0.544788	-0.290105
H124	H	0.898426	-0.044788	0.209895
H125	H	0.973958	-1.090353	-0.444155
H126	H	1.473958	-0.590353	0.055845
O127	O	0.920419	-0.961484	-0.497524
O128	O	1.420419	-0.461484	0.002476
H129	H	0.863512	-0.943461	-0.483995
H130	H	1.363512	-0.443461	0.016005
O131	O	0.617624	-0.554424	-0.282618
O132	O	1.117624	-0.054424	0.217382
H133	H	0.576086	-0.594506	-0.251725
H134	H	1.076086	-0.094506	0.248275
O135	O	1.156703	-1.102753	-0.261700
O136	O	1.656703	-0.602753	0.238300
H137	H	1.144959	-1.084738	-0.203078
H138	H	1.644959	-0.584738	0.296922
H139	H	1.112311	-0.778058	-0.305818
H140	H	1.612311	-0.278058	0.194182
O141	O	0.929557	-0.765658	-0.488291
O142	O	1.429557	-0.265658	0.011709
H143	H	0.940897	-0.692227	-0.476932
H144	H	1.440897	-0.192227	0.023068
O145	O	1.146689	-0.314565	-0.949622
O146	O	1.646689	0.185435	-0.449622
H147	H	1.181318	-0.274470	-0.908113
H148	H	1.681318	0.225530	-0.408113
O149	O	0.939648	-0.554379	-0.960827
O150	O	1.439648	-0.054379	-0.460827
H151	H	0.970413	-0.600279	-0.997995
H152	H	1.470413	-0.100279	-0.497995
