data_functionalizedCrystal
_audit_creation_method	'MofGen! by Chris Wilmer'
_symmetry_space_group_name_H-M	'P1'
_symmetry_Int_Tables_number	1
_symmetry_cell_setting	triclinic
loop_
_symmetry_equiv_pos_as_xyz
  x,y,z
_cell_length_a	10.654562
_cell_length_b	15.625429
_cell_length_c	9.730223
_cell_angle_alpha	71.921515
_cell_angle_beta	89.996961
_cell_angle_gamma	84.353932
loop_
_atom_site_label
_atom_site_type_symbol
_atom_site_fract_x
_atom_site_fract_y
_atom_site_fract_z
O1	O	1.666503	0.126673	-0.177501
O2	O	1.300901	0.138725	-0.183489
O3	O	1.493474	0.001525	-0.115123
O4	O	1.473930	0.263872	-0.245867
O5	O	1.493471	0.001529	0.113455
O6	O	1.300899	0.138728	0.045089
O7	O	1.666501	0.126676	0.051077
Zn8	Zn	1.483699	0.132703	0.084375
Zn9	Zn	1.483702	0.132698	-0.216787
O10	O	1.473928	0.263876	-0.017289
C11	C	1.254111	0.137839	-0.068756
C12	C	1.114696	0.135185	-0.067426
C13	C	1.049177	0.133948	0.057778
C14	C	0.918181	0.131461	0.058995
C15	C	0.918234	0.131450	-0.190211
C16	C	1.049229	0.133931	-0.191422
C17	C	1.049145	0.133958	0.201653
C18	C	0.918149	0.131471	0.202870
C19	C	1.492589	-0.032065	0.015904
C20	C	1.489941	-0.132160	0.065780
C21	C	1.481205	-0.461372	-0.393126
C22	C	1.478711	-0.555426	-0.346218
C23	C	1.478709	-0.555408	-0.097038
C24	C	1.481209	-0.461353	-0.143925
C25	C	1.482455	-0.414342	-0.291971
C26	C	1.482459	-0.414323	-0.042770
C27	C	1.484952	-0.320275	-0.089654
C28	C	1.486194	-0.273257	-0.237693
C29	C	1.484948	-0.320294	-0.338855
C30	C	1.481204	-0.461335	0.105275
C31	C	1.482454	-0.414305	0.206430
C32	C	1.484956	-0.320256	0.159548
C33	C	1.486198	-0.273238	0.011508
C34	C	1.486203	-0.273219	0.260709
C35	C	1.488695	-0.179172	0.213825
C36	C	1.488691	-0.179190	-0.035376
C37	C	1.713290	0.127562	-0.063659
C38	C	1.852705	0.130217	-0.064998
C39	C	1.474813	0.297467	-0.148319
C40	C	1.477460	0.397562	-0.198204
N41	N	1.483706	0.132705	0.289910
N42	N	1.483705	0.132689	-0.422318
C43	C	1.568999	0.071974	0.392098
C44	C	1.568996	0.071963	0.535986
C45	C	1.398403	0.193423	0.475482
C46	C	1.398401	0.193429	0.331599
C47	C	1.667494	0.001853	0.427030
C48	C	1.667491	0.001842	0.570918
H49	H	1.102572	0.134924	-0.293369
F50	F	1.477374	-0.605475	-0.453894
H51	H	0.864914	0.130430	-0.291164
F52	F	1.481118	-0.464346	0.363986
H53	H	1.763840	0.017292	0.602265
H54	H	1.488210	-0.196676	-0.275864
F55	F	1.110465	0.052528	0.314454
H56	H	1.485175	-0.311509	0.381248
H57	H	1.489687	-0.140876	0.296195
H58	H	1.328938	0.242873	0.248400
F59	F	1.307619	0.258044	0.519863
H60	H	1.758448	0.023813	0.371455
H61	H	1.078033	0.199708	0.213529
F62	F	1.640412	-0.088716	0.421114
F63	F	0.880351	0.045606	0.304248
H64	H	1.482231	-0.423093	-0.513679
H65	H	0.871212	0.193776	0.227055
F66	F	1.490034	-0.129154	-0.192943
F67	F	1.628493	-0.083743	0.671896
H68	H	1.485974	-0.282016	-0.459407
H69	H	1.477690	-0.593697	0.023501
F70	F	1.478547	-0.561430	0.155170
