data_functionalizedCrystal
_audit_creation_method	'MofGen! by Chris Wilmer'
_symmetry_space_group_name_H-M	'P1'
_symmetry_Int_Tables_number	1
_symmetry_cell_setting	triclinic
loop_
_symmetry_equiv_pos_as_xyz
  x,y,z
_cell_length_a	12.376457
_cell_length_b	16.992694
_cell_length_c	16.992695
_cell_angle_alpha	89.331777
_cell_angle_beta	77.943136
_cell_angle_gamma	77.932115
loop_
_atom_site_label
_atom_site_type_symbol
_atom_site_fract_x
_atom_site_fract_y
_atom_site_fract_z
O1	O	0.093862	-1.064980	0.152796
O2	O	0.093895	-0.836585	0.150960
O3	O	0.093870	-0.949866	0.037679
O4	O	0.093888	-0.951699	0.266076
O5	O	-0.094136	-0.921554	0.065959
O6	O	-0.094110	-0.808273	0.179239
O7	O	-0.094144	-1.036668	0.181075
Zn8	Zn	-0.123977	-0.917975	0.184647
Zn9	Zn	0.123729	-0.955278	0.147388
O10	O	-0.094118	-0.923388	0.294356
C11	C	-0.000103	-0.793069	0.162743
C12	C	-0.000091	-0.705587	0.155712
N13	N	-0.293029	-0.892523	0.210076
C14	C	-0.000132	-0.933354	0.022459
C15	C	-0.000131	-0.926325	-0.065026
C16	C	-0.648048	-1.039817	0.062910
C17	C	-0.529712	-1.057627	0.045112
C18	C	-0.470535	-1.016352	0.086351
C19	C	-0.529706	-0.957265	0.145392
C20	C	-0.648054	-0.939459	0.163196
C21	C	-0.470542	-0.915994	0.186637
C22	C	-0.529713	-0.856907	0.245678
C23	C	-0.648049	-0.839103	0.263479
C24	C	-0.707225	-0.880377	0.222239
C25	C	-0.352194	-0.933800	0.168833
C26	C	-0.352201	-0.833442	0.269119
C27	C	-0.470536	-0.815632	0.286917
N28	N	0.292781	-0.980736	0.121953
C29	C	-0.000142	-1.080184	0.169292
C30	C	-0.000147	-1.167668	0.176321
C31	C	-0.000086	-0.659597	0.223530
C32	C	-0.000102	-0.577393	0.216923
C33	C	-0.000115	-0.541183	0.142497
C34	C	-0.000123	-0.587179	0.074675
C35	C	-0.000115	-0.669379	0.081284
C36	C	-0.000147	-0.295864	0.115108
C37	C	-0.000152	-0.213658	0.108504
C38	C	-0.000134	-0.203878	0.250752
C39	C	-0.000119	-0.286081	0.257353
C40	C	-0.000133	-0.332069	0.189532
N41	N	-0.000128	-0.457159	0.135742
N42	N	-0.000128	-0.416090	0.196290
C43	C	-0.000142	-0.994142	-0.111015
C44	C	-0.000130	-0.987535	-0.193218
C45	C	-0.000116	-0.913109	-0.229428
C46	C	-0.000101	-0.845288	-0.183434
C47	C	-0.000105	-0.851897	-0.101234
C48	C	-0.000096	-0.885718	-0.474746
C49	C	-0.000096	-0.879113	-0.556951
C50	C	-0.000123	-1.021360	-0.566730
C51	C	-0.000133	-1.027962	-0.484527
C52	C	-0.000113	-0.960142	-0.438541
N53	N	-0.000107	-0.906353	-0.313452
N54	N	-0.000113	-0.966900	-0.354520
C55	C	-0.000113	-0.939900	0.309576
C56	C	-0.000107	-0.946929	0.397060
H57	H	-0.304028	-0.981909	0.120762
Cl58	Cl	-0.321768	-1.038740	0.063974
Cl59	Cl	-0.000172	-1.087708	-0.065500
H60	H	-0.000098	-0.539952	0.272147
Cl61	Cl	-0.455328	-1.131903	-0.029106
Cl62	Cl	-0.000087	-0.766639	-0.043419
Cl63	Cl	-0.722441	-1.091706	0.011079
Cl64	Cl	-0.000148	-1.072793	-0.251029
H65	H	-0.304020	-0.799834	0.302702
H66	H	-0.000149	-0.557688	0.014079
Cl67	Cl	-0.000096	-0.331597	0.350920
Cl68	Cl	-0.000193	-0.168134	0.014937
Cl69	Cl	-0.855997	-0.857983	0.244612
H70	H	-0.000125	-0.166426	0.305969
Cl71	Cl	-0.000084	-0.785541	-0.602471
H72	H	-0.696226	-0.790997	0.311559
Cl73	Cl	-0.000163	-0.353667	0.029846
H74	H	-0.518728	-0.767523	0.334990
H75	H	-0.000075	-0.689073	0.284135
H76	H	-0.000117	-0.706824	0.026060
Cl77	Cl	-0.000115	-1.121535	-0.439017
H78	H	-0.000138	-1.076575	-0.604181
H79	H	-0.000080	-0.830493	-0.437313
H80	H	-0.000082	-0.784690	-0.212924
