data_functionalizedCrystal
_audit_creation_method	'MofGen! by Chris Wilmer'
_symmetry_space_group_name_H-M	'P1'
_symmetry_Int_Tables_number	1
_symmetry_cell_setting	triclinic
loop_
_symmetry_equiv_pos_as_xyz
  x,y,z
_cell_length_a	16.992694
_cell_length_b	14.853567
_cell_length_c	15.455313
_cell_angle_alpha	92.672621
_cell_angle_beta	87.142206
_cell_angle_gamma	87.151577
loop_
_atom_site_label
_atom_site_type_symbol
_atom_site_fract_x
_atom_site_fract_y
_atom_site_fract_z
O1	O	1.044027	0.187488	-0.072010
O2	O	1.544027	0.687488	0.427990
O3	O	0.815740	0.185390	-0.072036
O4	O	1.315740	0.685390	0.427964
O5	O	0.935981	0.055640	-0.072025
O6	O	1.435981	0.555640	0.427975
O7	O	0.923785	0.317238	-0.072021
O8	O	1.423785	0.817238	0.427979
O9	O	0.929105	0.063027	0.072237
O10	O	1.429105	0.563027	0.572237
O11	O	0.808864	0.192777	0.072226
O12	O	1.308864	0.692777	0.572226
O13	O	1.037151	0.194875	0.072251
O14	O	1.537151	0.694875	0.572251
Cu15	Cu	0.922380	0.194501	0.085411
Cu16	Cu	1.422380	0.694501	0.585411
Cu17	Cu	0.930511	0.185764	-0.085195
Cu18	Cu	1.430511	0.685764	0.414805
O19	O	0.916909	0.324625	0.072241
O20	O	1.416909	0.824625	0.572241
C21	C	0.783087	0.186385	0.000092
C22	C	1.283087	0.686385	0.500092
C23	C	0.696034	0.178334	0.000081
C24	C	1.196034	0.678334	0.500081
C25	C	0.645878	0.256009	0.000083
C26	C	1.145878	0.756009	0.500083
C27	C	0.564083	0.248440	0.000095
C28	C	1.064083	0.748440	0.500095
C29	C	0.532445	0.163195	0.000099
C30	C	1.032445	0.663195	0.500099
C31	C	0.582608	0.085514	0.000100
C32	C	1.082608	0.585514	0.500100
C33	C	0.664401	0.093084	0.000094
C34	C	1.164401	0.593084	0.500094
C35	C	0.288813	0.131820	0.000122
C36	C	0.788813	0.631820	0.500122
C37	C	0.207013	0.124255	0.000125
C38	C	0.707013	0.624255	0.500125
C39	C	0.188493	0.287183	0.000122
C40	C	0.688493	0.787183	0.500122
C41	C	0.270290	0.294745	0.000111
C42	C	0.770290	0.794745	0.500111
C43	C	0.320445	0.217064	0.000116
C44	C	0.820445	0.717064	0.500116
N45	N	0.448838	0.155456	0.000108
N46	N	0.948838	0.655456	0.500108
N47	N	0.404050	0.224804	0.000113
N48	N	0.904050	0.724804	0.500113
C49	C	0.931991	0.025705	0.000103
C50	C	1.431991	0.525705	0.500103
C51	C	0.930335	-0.074496	0.000096
C52	C	1.430335	0.425504	0.500096
C53	C	0.851909	-0.492567	0.000103
C54	C	1.351909	0.007433	0.500103
C55	C	0.994758	-0.503760	0.000119
C56	C	1.494758	-0.003760	0.500119
C57	C	0.996315	-0.409617	0.000114
C58	C	1.496315	0.090383	0.500114
C59	C	0.925668	-0.356944	0.000105
C60	C	1.425668	0.143056	0.500105
C61	C	0.853464	-0.398414	0.000101
C62	C	1.353464	0.101586	0.500101
C63	C	1.068518	-0.368139	0.000127
C64	C	1.568518	0.131861	0.500127
C65	C	1.070078	-0.273990	0.000123
C66	C	1.570078	0.226010	0.500123
C67	C	0.999430	-0.221316	0.000108
C68	C	1.499430	0.278684	0.500108
C69	C	0.927223	-0.262791	0.000103
C70	C	1.427223	0.237209	0.500103
C71	C	0.856576	-0.210118	0.000094
C72	C	1.356576	0.289882	0.500094
C73	C	0.784368	-0.251593	0.000082
C74	C	1.284368	0.248407	0.500082
C75	C	0.782816	-0.345740	0.000086
C76	C	1.282816	0.154260	0.500086
C77	C	1.000982	-0.127169	0.000105
C78	C	1.500982	0.372831	0.500105
C79	C	0.858131	-0.115966	0.000091
C80	C	1.358131	0.384034	0.500091
C81	C	1.069804	0.193880	0.000122
C82	C	1.569804	0.693880	0.500122
C83	C	1.156857	0.201931	0.000127
C84	C	1.656857	0.701931	0.500127
C85	C	0.920900	0.354560	0.000110
C86	C	1.420900	0.854560	0.500110
C87	C	0.922556	0.454760	0.000112
C88	C	1.422556	0.954760	0.500112
N89	N	0.916666	0.200645	0.205406
N90	N	1.416666	0.700645	0.705406
N91	N	0.936231	0.179613	-0.205190
N92	N	1.436231	0.679613	0.294810
C93	C	0.967766	0.145545	0.250805
C94	C	1.467766	0.645545	0.750805
C95	C	0.963453	0.150201	0.341612
C96	C	1.463453	0.650201	0.841612
C97	C	0.908042	0.209961	0.387019
C98	C	1.408042	0.709961	0.887019
C99	C	0.856936	0.265063	0.341614
C100	C	1.356936	0.765063	0.841614
C101	C	0.861246	0.260402	0.250808
C102	C	1.361246	0.760402	0.750808
C103	C	0.889436	0.230054	0.658599
C104	C	1.389436	0.730054	1.158599
C105	C	0.885131	0.234713	0.749411
C106	C	1.385131	0.734713	1.249411
C107	C	0.991647	0.119849	0.749403
C108	C	1.491647	0.619849	1.249403
C109	C	0.995956	0.115198	0.658595
C110	C	1.495956	0.615198	1.158595
C111	C	0.944847	0.170296	0.613198
C112	C	1.444847	0.670296	1.113198
N113	N	0.903633	0.214723	0.479839
N114	N	1.403633	0.714723	0.979839
N115	N	0.949253	0.165529	0.520380
N116	N	1.449253	0.665529	1.020380
H117	H	0.296043	0.364161	0.000098
H118	H	0.796043	0.864161	0.500098
H119	H	1.128874	-0.240230	0.000132
H120	H	1.628874	0.259770	0.500132
H121	H	0.840006	0.283380	0.786377
H122	H	1.340006	0.783380	1.286377
Br123	Br	0.539672	-0.030178	0.000114
Br124	Br	1.039672	0.469822	0.500114
Br125	Br	0.820078	0.304830	0.596993
Br126	Br	1.320078	0.804830	1.096993
Br127	Br	0.781727	0.346161	0.403234
Br128	Br	1.281727	0.846161	0.903234
Br129	Br	0.732471	-0.012337	0.000099
Br130	Br	1.232471	0.487663	0.500099
Br131	Br	0.791887	0.335177	0.189195
Br132	Br	1.291887	0.835177	0.689195
Br133	Br	1.098969	-0.070884	0.000141
Br134	Br	1.598969	0.429116	0.500141
H135	H	1.126034	-0.411032	0.000143
H136	H	1.626034	0.088968	0.500143
H137	H	1.005062	0.105334	0.378575
H138	H	1.505062	0.605334	0.878575
Br139	Br	0.356870	0.026395	0.000131
Br140	Br	0.856870	0.526395	0.500131
H141	H	0.793119	-0.526339	0.000091
H142	H	1.293119	-0.026339	0.500091
H143	H	0.181257	0.054835	0.000127
H144	H	0.681257	0.554835	0.500127
Br145	Br	0.496016	0.353862	0.000095
Br146	Br	0.996016	0.853862	0.500095
Br147	Br	0.688807	0.371705	0.000069
Br148	Br	1.188807	0.871705	0.500069
Br149	Br	0.120423	0.392601	0.000116
Br150	Br	0.620423	0.892601	0.500116
H151	H	0.800601	-0.073085	0.000080
H152	H	1.300601	0.426915	0.500080
Br153	Br	1.042977	0.064445	0.189190
Br154	Br	1.542977	0.564445	0.689190
H155	H	0.726847	-0.208694	0.000081
H156	H	1.226847	0.291306	0.500081
H157	H	1.041076	0.066536	0.621627
H158	H	1.541076	0.566536	1.121627
H159	H	0.724028	-0.379517	0.000077
H160	H	1.224028	0.120483	0.500077
H161	H	1.052275	-0.546652	0.000134
H162	H	1.552275	-0.046652	0.500134
H163	H	1.033256	0.074990	0.786374
H164	H	1.533256	0.574990	1.286374
