data_functionalizedCrystal
_audit_creation_method	'MofGen! by Chris Wilmer'
_symmetry_space_group_name_H-M	'P1'
_symmetry_Int_Tables_number	1
_symmetry_cell_setting	triclinic
loop_
_symmetry_equiv_pos_as_xyz
  x,y,z
_cell_length_a	19.288867
_cell_length_b	15.072220
_cell_length_c	19.288857
_cell_angle_alpha	90.003306
_cell_angle_beta	83.135089
_cell_angle_gamma	90.010994
loop_
_atom_site_label
_atom_site_type_symbol
_atom_site_fract_x
_atom_site_fract_y
_atom_site_fract_z
O1	O	0.921354	0.073756	0.086650
O2	O	1.421354	0.573756	0.586650
O3	O	0.719093	0.073765	0.098337
O4	O	1.219093	0.573765	0.598337
O5	O	0.826070	0.073749	-0.008637
O6	O	1.326070	0.573749	0.491363
O7	O	0.814376	0.073771	0.193624
O8	O	1.314376	0.573771	0.693624
O9	O	0.826044	-0.073816	-0.008631
O10	O	1.326044	0.426184	0.491369
O11	O	0.719066	-0.073800	0.098343
O12	O	1.219066	0.426200	0.598343
O13	O	0.921327	-0.073810	0.086656
O14	O	1.421327	0.426190	0.586656
Zn15	Zn	0.820193	-0.097234	0.092501
Zn16	Zn	1.320193	0.402766	0.592501
Zn17	Zn	0.820227	0.097189	0.092493
Zn18	Zn	1.320227	0.597189	0.592493
O19	O	0.814350	-0.073794	0.193630
O20	O	1.314350	0.426206	0.693630
C21	C	0.693203	-0.000017	0.097964
C22	C	1.193203	0.499983	0.597964
C23	C	0.616100	-0.000014	0.096834
C24	C	1.116100	0.499986	0.596834
N25	N	0.820174	-0.229923	0.092506
N26	N	1.320174	0.270077	0.592506
C27	C	0.060549	0.080413	0.088695
C28	C	0.560549	0.580413	0.588695
C29	C	0.132996	0.080416	0.089752
C30	C	0.632996	0.580416	0.589752
C31	C	0.169211	-0.000021	0.090287
C32	C	0.669211	0.499979	0.590287
C33	C	0.132974	-0.080468	0.089747
C34	C	0.632974	0.419532	0.589747
C35	C	0.060529	-0.080469	0.088683
C36	C	0.560529	0.419531	0.588683
C37	C	0.278526	-0.061642	0.132657
C38	C	0.778526	0.438358	0.632657
C39	C	0.350969	-0.061638	0.133726
C40	C	0.850969	0.438362	0.633726
C41	C	0.392656	-0.000021	0.093566
C42	C	0.892656	0.499979	0.593566
C43	C	0.361890	0.061606	0.052347
C44	C	0.861890	0.561606	0.552347
C45	C	0.289445	0.061605	0.051283
C46	C	0.789445	0.561605	0.551283
C47	C	0.247765	-0.000029	0.091441
C48	C	0.747765	0.499971	0.591441
C49	C	0.507441	0.080425	0.095248
C50	C	1.007441	0.580425	0.595248
C51	C	0.579890	0.080425	0.096301
C52	C	1.079890	0.580425	0.596301
C53	C	0.579865	-0.080462	0.096303
C54	C	1.079865	0.419538	0.596303
C55	C	0.507418	-0.080460	0.095243
C56	C	1.007418	0.419540	0.595243
C57	C	0.471210	-0.000014	0.094719
C58	C	0.971210	0.499986	0.594719
C59	C	0.820226	-0.589124	0.092490
C60	C	1.320226	-0.089124	0.592490
C61	C	0.762793	-0.551509	0.149539
C62	C	1.262793	-0.051509	0.649539
C63	C	0.762924	-0.448683	0.149746
C64	C	1.262924	0.051317	0.649746
C65	C	0.820200	-0.410920	0.092498
C66	C	1.320200	0.089080	0.592498
C67	C	0.892624	-0.448213	0.108101
C68	C	1.392624	0.051787	0.608101
C69	C	0.892302	-0.551071	0.108506
C70	C	1.392302	-0.051071	0.608506
C71	C	0.805881	-0.551232	0.019667
C72	C	1.305881	-0.051232	0.519667
C73	C	0.804217	-0.448368	0.020158
C74	C	1.304217	0.051632	0.520158
C75	C	0.820189	-0.310207	0.092501
C76	C	1.320189	0.189793	0.592501
C77	C	0.820241	-0.689838	0.092488
C78	C	1.320241	-0.189838	0.592488
C79	C	0.947217	-0.000026	0.087029
C80	C	1.447217	0.499974	0.587029
C81	C	1.024320	-0.000023	0.088159
C82	C	1.524320	0.499977	0.588159
N83	N	0.820252	0.229878	0.092482
N84	N	1.320252	0.729878	0.592482
C85	C	0.825682	-0.000034	-0.034511
C86	C	1.325682	0.499966	0.465489
C87	C	0.824555	-0.000037	-0.111614
C88	C	1.324555	0.499963	0.388386
C89	C	0.824043	0.080401	-0.147828
C90	C	1.324043	0.580401	0.352172
C91	C	0.822975	0.080408	-0.220274
C92	C	1.322975	0.580408	0.279726
C93	C	0.822431	-0.000028	-0.256506
C94	C	1.322431	0.499972	0.243494
C95	C	0.822939	-0.080476	-0.220282
C96	C	1.322939	0.419524	0.279718
C97	C	0.824001	-0.080481	-0.147837
C98	C	1.324001	0.419519	0.352163
C99	C	0.861422	-0.061648	-0.376734
C100	C	1.361422	0.438352	0.123266
C101	C	0.860365	-0.061641	-0.449179
C102	C	1.360365	0.438359	0.050821
C103	C	0.819154	-0.000018	-0.479951
C104	C	1.319154	0.499982	0.020049
C105	C	0.779009	0.061612	-0.438271
C106	C	1.279009	0.561612	0.061729
C107	C	0.780071	0.061608	-0.365826
C108	C	1.280071	0.561608	0.134174
C109	C	0.821280	-0.000032	-0.335061
C110	C	1.321280	0.499968	0.164939
C111	C	0.817482	0.080433	-0.594719
C112	C	1.317482	0.580433	-0.094719
C113	C	0.816409	0.080436	-0.667166
C114	C	1.316409	0.580436	-0.167166
C115	C	0.816381	-0.080450	-0.667174
C116	C	1.316381	0.419550	-0.167174
C117	C	0.817447	-0.080451	-0.594727
C118	C	1.317447	0.419549	-0.094727
C119	C	0.818001	-0.000007	-0.558505
C120	C	1.318001	0.499993	-0.058505
C121	C	0.814738	-0.000009	0.219504
C122	C	1.314738	0.499991	0.719504
C123	C	0.815865	-0.000000	0.296608
C124	C	1.315865	0.500000	0.796608
H125	H	0.162499	0.145919	0.090192
H126	H	0.662499	0.645919	0.590192
C127	C	0.232676	-0.129421	0.176840
C128	C	0.732676	0.370579	0.676840
H129	H	0.261372	-0.166112	0.201549
H130	H	0.761372	0.333888	0.701549
H131	H	0.208337	-0.165064	0.147099
H132	H	0.708337	0.334936	0.647099
H133	H	0.200039	-0.098894	0.209140
H134	H	0.700039	0.401106	0.709140
H135	H	0.936373	-0.423750	0.067645
H136	H	1.436373	0.076250	0.567645
H137	H	0.894980	-0.111836	-0.351686
H138	H	1.394980	0.388164	0.148314
H139	H	0.477959	0.145928	0.094819
H140	H	0.977959	0.645928	0.594819
C141	C	0.857074	-0.413651	-0.039861
C142	C	1.357074	0.086349	0.460139
H143	H	0.846156	-0.437326	-0.082899
H144	H	1.346156	0.062674	0.417101
H145	H	0.902827	-0.431478	-0.032384
H146	H	1.402827	0.068522	0.467616
H147	H	0.854842	-0.350725	-0.041334
H148	H	1.354842	0.149275	0.458666
C149	C	0.818084	0.168916	-0.554871
C150	C	1.318084	0.668916	-0.054871
H151	H	0.817615	0.216824	-0.586816
H152	H	1.317615	0.716824	-0.086816
H153	H	0.858996	0.172258	-0.532036
H154	H	1.358996	0.672258	-0.032036
H155	H	0.777998	0.172258	-0.521183
H156	H	1.277998	0.672258	-0.021183
H157	H	0.708777	-0.576269	0.140432
H158	H	1.208777	-0.076269	0.640432
H159	H	0.376011	-0.111800	0.167306
H160	H	0.876011	0.388200	0.667306
H161	H	0.609387	0.145928	0.096732
H162	H	1.109387	0.645928	0.596732
C163	C	0.732250	-0.415445	0.004146
C164	C	1.232250	0.084555	0.504146
H165	H	0.722881	-0.438323	-0.039677
H166	H	1.222881	0.061677	0.460323
H167	H	0.732180	-0.352452	0.002587
H168	H	1.232180	0.147548	0.502587
H169	H	0.697287	-0.435260	0.039648
H170	H	1.197287	0.064740	0.539648
H171	H	0.771802	-0.577342	0.203280
H172	H	1.271802	-0.077342	0.703280
C173	C	0.467528	-0.168938	0.094901
C174	C	0.967528	0.331062	0.594901
H175	H	0.419188	-0.157418	0.094258
H176	H	0.919188	0.342582	0.594258
H177	H	0.474049	-0.201792	0.135645
H178	H	0.974049	0.298208	0.635645
H179	H	0.484724	-0.202186	0.054646
H180	H	0.984724	0.297814	0.554646
C181	C	0.690178	-0.414615	0.137282
C182	C	1.190178	0.085385	0.637282
H183	H	0.690158	-0.351583	0.137403
H184	H	1.190158	0.148417	0.637403
H185	H	0.656337	-0.435748	0.173326
H186	H	1.156337	0.064252	0.673326
H187	H	0.679160	-0.435488	0.093431
H188	H	1.179160	0.064512	0.593431
C189	C	0.735914	0.129389	-0.319977
C190	C	1.235914	0.629389	0.180023
H191	H	0.742455	0.120562	-0.272426
H192	H	1.242455	0.620562	0.227574
H193	H	0.687997	0.121639	-0.325453
H194	H	1.187997	0.621639	0.174547
H195	H	0.750060	0.187789	-0.333761
H196	H	1.250060	0.687789	0.166239
H197	H	0.904977	-0.575047	0.161608
H198	H	1.404977	-0.075047	0.661608
H199	H	0.893055	-0.111820	-0.483110
H200	H	1.393055	0.388180	0.016890
C201	C	0.775270	-0.415418	0.222754
C202	C	1.275270	0.084582	0.722754
H203	H	0.780232	-0.464768	0.252400
H204	H	1.280232	0.035232	0.752400
H205	H	0.736637	-0.380436	0.241746
H206	H	1.236637	0.119564	0.741746
H207	H	0.816572	-0.380538	0.219158
H208	H	1.316572	0.119462	0.719158
C209	C	0.815781	-0.168931	-0.707016
C210	C	1.315781	0.331069	-0.207016
H211	H	0.816235	-0.216839	-0.675068
H212	H	1.316235	0.283161	-0.175068
H213	H	0.855860	-0.172279	-0.740704
H214	H	1.355860	0.327721	-0.240704
H215	H	0.774863	-0.172268	-0.729848
H216	H	1.274863	0.327732	-0.229848
H217	H	0.162464	-0.145961	0.090182
H218	H	0.662464	0.354039	0.590182
H219	H	0.031031	-0.145972	0.088249
H220	H	0.531031	0.354028	0.588249
H221	H	0.822554	0.145912	-0.249765
H222	H	1.322554	0.645912	0.250235
H223	H	0.905608	-0.422439	0.160597
H224	H	1.405608	0.077561	0.660597
C225	C	0.951749	-0.584688	0.054493
C226	C	1.451749	-0.084688	0.554493
H227	H	0.975994	-0.535480	0.032405
H228	H	1.475994	-0.035480	0.532405
H229	H	0.932759	-0.619721	0.020421
H230	H	1.432759	-0.119721	0.520421
H231	H	0.983180	-0.619590	0.077340
H232	H	1.483180	-0.119590	0.577340
C233	C	0.736088	-0.586303	-0.000663
C234	C	1.236088	-0.086303	0.499337
H235	H	0.715042	-0.624387	0.035076
H236	H	1.215042	-0.124387	0.535076
H237	H	0.744336	-0.618342	-0.043261
H238	H	1.244336	-0.118342	0.456739
H239	H	0.705817	-0.537809	-0.006329
H240	H	1.205817	-0.037809	0.493671
H241	H	0.264398	0.111782	0.017720
H242	H	0.764398	0.611782	0.517720
H243	H	0.847767	-0.575556	-0.022784
H244	H	1.347767	-0.075556	0.477216
H245	H	0.817869	-0.145953	-0.565243
H246	H	1.317869	0.354047	-0.065243
H247	H	0.824492	0.145905	-0.118340
H248	H	1.324492	0.645905	0.381660
C249	C	0.733673	0.129400	-0.472110
C250	C	1.233673	0.629400	0.027890
H251	H	0.738782	0.120571	-0.521224
H252	H	1.238782	0.620571	-0.021224
H253	H	0.748162	0.187795	-0.462152
H254	H	1.248162	0.687795	0.037848
H255	H	0.686103	0.121639	-0.453839
H256	H	1.186103	0.621639	0.046161
H257	H	0.395830	0.111783	0.019647
H258	H	0.895830	0.611783	0.519647
C259	C	0.815843	0.168923	-0.707001
C260	C	1.315843	0.668923	-0.207001
H261	H	0.816331	0.216828	-0.675051
H262	H	1.316331	0.716828	-0.175051
H263	H	0.774932	0.172275	-0.729835
H264	H	1.274932	0.672275	-0.229835
H265	H	0.855929	0.172262	-0.740689
H266	H	1.355929	0.672262	-0.240689
C267	C	0.822343	-0.168953	-0.260134
C268	C	1.322343	0.331047	0.239866
H269	H	0.821645	-0.157431	-0.308468
H270	H	1.321645	0.342569	0.191532
H271	H	0.782015	-0.202004	-0.242840
H272	H	1.282015	0.297996	0.257160
H273	H	0.863012	-0.202006	-0.253686
H274	H	1.363012	0.297994	0.246314
C275	C	0.824565	-0.168964	-0.107997
C276	C	1.324565	0.331036	0.392003
H277	H	0.825272	-0.157445	-0.059662
H278	H	1.325272	0.342555	0.440338
H279	H	0.864879	-0.202022	-0.125296
H280	H	1.364879	0.297978	0.374704
H281	H	0.783881	-0.202007	-0.114444
H282	H	1.283881	0.297993	0.385556
C283	C	0.020721	0.168897	0.088112
C284	C	0.520721	0.668897	0.588112
H285	H	-0.027615	0.157379	0.087406
H286	H	0.472385	0.657379	0.587406
H287	H	0.038026	0.201949	0.047792
H288	H	0.538026	0.701949	0.547792
H289	H	0.027172	0.201946	0.128789
H290	H	0.527172	0.701946	0.628789
C291	C	0.619692	-0.168942	0.096891
C292	C	1.119692	0.331058	0.596891
H293	H	0.668027	-0.157422	0.097605
H294	H	1.168027	0.342578	0.597605
H295	H	0.613239	-0.201997	0.056222
H296	H	1.113239	0.298003	0.556222
H297	H	0.602389	-0.201989	0.137219
H298	H	1.102389	0.298011	0.637219
