data_functionalizedCrystal
_audit_creation_method	'MofGen! by Chris Wilmer'
_symmetry_space_group_name_H-M	'P1'
_symmetry_Int_Tables_number	1
_symmetry_cell_setting	triclinic
loop_
_symmetry_equiv_pos_as_xyz
  x,y,z
_cell_length_a	14.971486
_cell_length_b	10.540539
_cell_length_c	14.048226
_cell_angle_alpha	89.995726
_cell_angle_beta	89.998499
_cell_angle_gamma	84.069810
loop_
_atom_site_label
_atom_site_type_symbol
_atom_site_fract_x
_atom_site_fract_y
_atom_site_fract_z
O1	O	1.187879	0.165423	-0.079046
O2	O	0.927591	0.185233	-0.079072
O3	O	1.063673	-0.009446	-0.079057
O4	O	1.051796	0.360102	-0.079061
O5	O	1.063657	-0.009457	0.079264
O6	O	0.927574	0.185221	0.079249
O7	O	1.187862	0.165412	0.079275
Zn8	Zn	1.057716	0.175315	0.104399
Zn9	Zn	1.057737	0.175330	-0.104196
O10	O	1.051780	0.360090	0.079260
C11	C	0.894253	0.184341	0.000085
C12	C	0.794940	0.181686	0.000076
C13	C	1.062774	-0.056745	0.000101
C14	C	1.060109	-0.197662	0.000096
C15	C	0.738360	0.296055	0.000076
C16	C	0.645046	0.293553	0.000090
C17	C	0.608315	0.176681	0.000097
C18	C	0.664903	0.062303	0.000100
C19	C	0.758215	0.064807	0.000092
C20	C	0.470412	0.057094	0.000113
C21	C	0.377093	0.054590	0.000119
C22	C	0.357242	0.285839	0.000111
C23	C	0.450554	0.288343	0.000103
C24	C	0.507136	0.173965	0.000104
C25	C	0.958001	-0.379931	-0.000269
C26	C	0.960702	-0.233343	0.000087
C27	C	1.107939	-0.259870	0.090510
C28	C	1.104547	-0.406376	0.090586
C29	C	1.106587	-0.406904	-0.089455
C30	C	1.107503	-0.259932	-0.090650
C31	C	1.221200	0.166303	0.000115
C32	C	1.320512	0.168958	0.000119
C33	C	1.052679	0.407389	0.000099
C34	C	1.055344	0.548307	0.000099
N35	N	1.057707	0.175303	0.246760
N36	N	1.057753	0.175331	-0.246557
C37	C	1.117984	0.089135	0.296584
C38	C	1.117990	0.089135	0.396242
C39	C	1.057723	0.175309	0.446073
C40	C	0.997440	0.261481	0.396242
C41	C	0.997430	0.261475	0.296586
C42	C	0.997466	0.261491	0.603956
C43	C	0.997476	0.261499	0.703619
C44	C	1.118025	0.089150	0.703612
C45	C	1.118016	0.089144	0.603956
C46	C	1.057733	0.175318	0.554132
H47	H	0.768258	0.391225	0.000069
H48	H	1.179979	-0.236533	-0.096103
H49	H	0.516479	-0.036045	0.000115
H50	H	0.311169	0.378970	0.000114
H51	H	0.347191	-0.040578	0.000126
H52	H	1.178389	-0.454944	-0.090056
H53	H	1.069184	-0.434179	0.158165
O54	O	0.625293	-0.063756	0.000116
H55	H	0.583259	-0.070436	-0.064414
H56	H	1.167094	0.018981	0.563384
O57	O	0.584020	0.416910	0.000085
H58	H	0.541044	0.421307	0.064624
O59	O	1.182974	-0.003820	0.242831
H60	H	1.252809	0.012496	0.261942
O61	O	1.183041	-0.003808	0.757342
H62	H	1.172917	0.010658	0.835011
H63	H	1.176039	-0.455156	0.094694
O64	O	1.064013	-0.448200	-0.180249
H65	H	0.993101	-0.405641	-0.183471
H66	H	0.804283	-0.028324	0.000092
O67	O	0.932458	0.354415	0.757372
H68	H	0.890524	0.414316	0.705986
O69	O	0.910833	-0.176318	-0.085749
H70	H	0.884563	-0.253434	-0.127888
H71	H	0.918739	-0.408080	-0.065107
O72	O	0.490177	0.414393	0.000108
H73	H	0.435158	0.493507	0.000122
H74	H	1.180941	-0.238344	0.093879
O75	O	0.906183	-0.419333	0.085130
H76	H	0.949458	-0.489804	0.127836
O77	O	0.910489	-0.177450	0.086073
H78	H	0.956704	-0.127695	0.131270
H79	H	1.074700	-0.216898	0.157786
H80	H	1.167071	0.018969	0.436808
O81	O	0.932453	0.354439	0.550211
H82	H	0.890554	0.414375	0.601602
H83	H	1.072506	-0.218672	-0.157536
H84	H	0.948365	0.331642	0.436820
O85	O	0.932422	0.354418	0.242839
H86	H	0.890522	0.414352	0.294230
