data_functionalizedCrystal
_audit_creation_method	'MofGen! by Chris Wilmer'
_symmetry_space_group_name_H-M	'P1'
_symmetry_Int_Tables_number	1
_symmetry_cell_setting	triclinic
loop_
_symmetry_equiv_pos_as_xyz
  x,y,z
_cell_length_a	12.837943
_cell_length_b	15.021413
_cell_length_c	12.837942
_cell_angle_alpha	89.995022
_cell_angle_beta	94.828940
_cell_angle_gamma	90.007011
loop_
_atom_site_label
_atom_site_type_symbol
_atom_site_fract_x
_atom_site_fract_y
_atom_site_fract_z
O1	O	1.402340	0.074015	0.272127
O2	O	1.735674	0.407349	0.605460
O3	O	2.069007	0.740682	0.938794
O4	O	1.099207	0.074021	0.258684
O5	O	1.432540	0.407354	0.592017
O6	O	1.765873	0.740687	0.925350
O7	O	1.244052	0.074013	0.113839
O8	O	1.577385	0.407346	0.447172
O9	O	1.910719	0.740679	0.780505
O10	O	1.257495	0.074023	0.416972
O11	O	1.590828	0.407357	0.750305
O12	O	1.924162	0.740690	1.083639
O13	O	1.244029	-0.074052	0.113859
O14	O	1.577362	0.259282	0.447192
O15	O	1.910695	0.592615	0.780526
O16	O	1.099183	-0.074044	0.258704
O17	O	1.432517	0.259290	0.592037
O18	O	1.765850	0.592623	0.925371
O19	O	1.402317	-0.074049	0.272147
O20	O	1.735650	0.259284	0.605481
O21	O	2.068984	0.592618	0.938814
Zn22	Zn	1.250746	-0.097555	0.265429
Zn23	Zn	1.584080	0.235779	0.598762
Zn24	Zn	1.917413	0.569112	0.932096
Zn25	Zn	1.250777	0.097526	0.265402
Zn26	Zn	1.584111	0.430860	0.598735
Zn27	Zn	1.917444	0.764193	0.932069
O28	O	1.257472	-0.074041	0.416993
O29	O	1.590805	0.259292	0.750326
O30	O	1.924138	0.592626	1.083659
C31	C	1.060126	-0.000011	0.254153
C32	C	1.393459	0.333323	0.587486
C33	C	1.726793	0.666656	0.920819
C34	C	0.943711	-0.000009	0.240608
C35	C	1.277044	0.333324	0.573941
C36	C	1.610378	0.666658	0.907275
N37	N	1.250733	-0.230692	0.265447
N38	N	1.584066	0.102641	0.598781
N39	N	1.917400	0.435974	0.932114
C40	C	0.718837	-0.000016	0.403437
C41	C	1.052170	0.333317	0.736771
C42	C	1.385503	0.666651	1.070104
C43	C	0.609454	-0.000015	0.390716
C44	C	0.942788	0.333319	0.724049
C45	C	1.276121	0.666652	1.057383
C46	C	0.615562	-0.000012	0.202445
C47	C	0.948895	0.333321	0.535778
C48	C	1.282228	0.666655	0.869112
C49	C	0.724944	-0.000013	0.215166
C50	C	1.058277	0.333320	0.548500
C51	C	1.391611	0.666654	0.881833
C52	C	0.776578	-0.000014	0.315666
C53	C	1.109911	0.333320	0.648999
C54	C	1.443244	0.666653	0.982332
C55	C	0.885962	-0.000008	0.328386
C56	C	1.219295	0.333325	0.661720
C57	C	1.552629	0.666658	0.995053
C58	C	0.892067	-0.000012	0.140116
C59	C	1.225401	0.333321	0.473449
C60	C	1.558734	0.666655	0.806783
C61	C	0.782685	-0.000011	0.127395
C62	C	1.116018	0.333322	0.460728
C63	C	1.449352	0.666656	0.794061
C64	C	1.183742	-0.470372	0.332388
C65	C	1.517075	-0.137038	0.665721
C66	C	1.850409	0.196295	0.999054
C67	C	1.280341	-0.529707	0.362050
C68	C	1.613675	-0.196374	0.695383
C69	C	1.947008	0.136960	1.028716
C70	C	1.250757	-0.412299	0.265424
C71	C	1.584091	-0.078966	0.598757
C72	C	1.917424	0.254368	0.932091
C73	C	1.154186	-0.529706	0.235788
C74	C	1.487519	-0.196372	0.569122
C75	C	1.820853	0.136961	0.902455
C76	C	1.250772	-0.587723	0.265403
C77	C	1.584106	-0.254390	0.598736
C78	C	1.917439	0.078943	0.932069
C79	C	1.347409	-0.470328	0.295137
C80	C	1.680742	-0.136995	0.628471
C81	C	2.014076	0.196339	0.961804
C82	C	1.221187	-0.470321	0.168829
C83	C	1.554521	-0.136988	0.502162
C84	C	1.887854	0.196345	0.835496
C85	C	1.317851	-0.529630	0.198457
C86	C	1.651184	-0.196296	0.531790
C87	C	1.984518	0.137037	0.865124
C88	C	1.250747	-0.311242	0.265439
C89	C	1.584081	0.022092	0.598772
C90	C	1.917414	0.355425	0.932105
C91	C	1.250793	-0.688778	0.265388
C92	C	1.584126	-0.355445	0.598722
C93	C	1.917460	-0.022112	0.932055
C94	C	1.441398	-0.000015	0.276679
C95	C	1.774731	0.333318	0.610012
C96	C	2.108064	0.666651	0.943345
C97	C	1.557813	-0.000011	0.290223
C98	C	1.891146	0.333322	0.623556
C99	C	2.224479	0.666655	0.956890
C100	C	1.239499	-0.000019	0.074780
C101	C	1.572832	0.333314	0.408113
C102	C	1.906165	0.666648	0.741446
C103	C	1.225954	-0.000017	-0.041635
C104	C	1.559288	0.333316	0.291698
C105	C	1.892621	0.666649	0.625031
N106	N	1.250798	0.230664	0.265376
N107	N	1.584131	0.563997	0.598709
N108	N	1.917465	0.897331	0.932043
C109	C	1.388784	-0.000001	-0.266510
C110	C	1.722117	0.333332	0.066824
C111	C	2.055450	0.666665	0.400157
C112	C	1.376062	0.000000	-0.375892
C113	C	1.709396	0.333334	-0.042559
C114	C	2.042729	0.666667	0.290775
C115	C	1.187791	-0.000006	-0.369785
C116	C	1.521125	0.333328	-0.036451
C117	C	1.854458	0.666661	0.296882
C118	C	1.200513	-0.000007	-0.260402
C119	C	1.533846	0.333326	0.072931
C120	C	1.867179	0.666659	0.406264
C121	C	1.301012	-0.000007	-0.208769
C122	C	1.634345	0.333327	0.124565
C123	C	1.967679	0.666660	0.457898
C124	C	1.313732	-0.000015	-0.099384
C125	C	1.647066	0.333319	0.233949
C126	C	1.980399	0.666652	0.567283
C127	C	1.125462	-0.000014	-0.093279
C128	C	1.458796	0.333319	0.240054
C129	C	1.792129	0.666652	0.573388
C130	C	1.112741	-0.000013	-0.202661
C131	C	1.446074	0.333321	0.130672
C132	C	1.779408	0.666654	0.464005
C133	C	1.262025	-0.000007	0.456052
C134	C	1.595358	0.333326	0.789385
C135	C	1.928692	0.666659	1.122718
C136	C	1.275569	-0.000003	0.572467
C137	C	1.608903	0.333330	0.905800
C138	C	1.942236	0.666663	1.239133
H139	H	0.928000	-0.000010	0.410218
H140	H	1.261334	0.333323	0.743551
H141	H	1.594667	0.666656	1.076884
F142	F	1.032043	-0.000029	-0.031819
F143	F	1.365377	0.333304	0.301514
F144	F	1.698710	0.666638	0.634848
H145	H	1.447536	0.000007	-0.422901
H146	H	1.780869	0.333341	-0.089567
H147	H	2.114202	0.666674	0.243766
F148	F	0.773792	-0.000006	0.510394
F149	F	1.107125	0.333328	0.843728
F150	F	1.440458	0.666661	1.177061
H151	H	1.395564	-0.000017	-0.057346
H152	H	1.728897	0.333316	0.275988
H153	H	2.062231	0.666649	0.609321
F154	F	1.392022	-0.563430	0.124432
F155	F	1.725355	-0.230097	0.457765
F156	F	2.058688	0.103237	0.791098
H157	H	1.105969	0.000003	-0.411844
H158	H	1.439302	0.333337	-0.078511
H159	H	1.772636	0.666670	0.254823
H160	H	0.573502	-0.000085	0.120623
H161	H	0.906836	0.333248	0.453956
H162	H	1.240169	0.666582	0.787289
H163	H	0.562446	-0.000019	0.462189
H164	H	0.895779	0.333314	0.795523
H165	H	1.229112	0.666648	1.128856
H166	H	0.740630	-0.000021	0.045571
H167	H	1.073963	0.333313	0.378904
H168	H	1.407296	0.666646	0.712237
F169	F	1.005788	-0.000006	-0.257625
F170	F	1.339121	0.333327	0.075708
F171	F	1.672454	0.666660	0.409042
H172	H	0.939092	-0.000004	0.068646
H173	H	1.272425	0.333329	0.401979
H174	H	1.605758	0.666662	0.735312
F175	F	1.188445	-0.436197	0.062096
F176	F	1.521778	-0.102864	0.395429
F177	F	1.855111	0.230469	0.728763
H178	H	1.127138	-0.444353	0.389074
H179	H	1.460471	-0.111020	0.722407
H180	H	1.793804	0.222314	1.055741
H181	H	1.429111	-0.444356	0.320291
H182	H	1.762445	-0.111022	0.653624
H183	H	2.095778	0.222311	0.986957
F184	F	1.047432	-0.563799	0.203037
F185	F	1.380765	-0.230465	0.536370
F186	F	1.714098	0.102868	0.869703
F187	F	1.495741	-0.000019	-0.211555
F188	F	1.829074	0.333314	0.121779
F189	F	2.162407	0.666647	0.455112
F190	F	1.313051	-0.563803	0.468810
F191	F	1.646384	-0.230469	0.802143
F192	F	1.979718	0.102864	1.135477
