data_functionalizedCrystal
_audit_creation_method	'MofGen! by Chris Wilmer'
_symmetry_space_group_name_H-M	'P1'
_symmetry_Int_Tables_number	1
_symmetry_cell_setting	triclinic
loop_
_symmetry_equiv_pos_as_xyz
  x,y,z
_cell_length_a	11.792254
_cell_length_b	19.188930
_cell_length_c	10.268362
_cell_angle_alpha	89.989600
_cell_angle_beta	89.995475
_cell_angle_gamma	83.671689
loop_
_atom_site_label
_atom_site_type_symbol
_atom_site_fract_x
_atom_site_fract_y
_atom_site_fract_z
O1	O	1.505467	0.095737	-0.108315
O2	O	2.005467	0.595737	0.391685
O3	O	1.174981	0.105590	-0.108320
O4	O	1.674981	0.605590	0.391680
O5	O	1.349761	-0.000937	-0.108292
O6	O	1.849761	0.499063	0.391708
O7	O	1.330687	0.202265	-0.108343
O8	O	1.830687	0.702265	0.391657
O9	O	1.349746	-0.000942	0.108309
O10	O	1.849746	0.499058	0.608309
O11	O	1.174966	0.105586	0.108281
O12	O	1.674966	0.605586	0.608281
O13	O	1.505452	0.095733	0.108286
O14	O	2.005452	0.595733	0.608286
Cu15	Cu	1.340207	0.100659	0.128061
Cu16	Cu	1.840207	0.600659	0.628061
Cu17	Cu	1.340225	0.100664	-0.128095
Cu18	Cu	1.840225	0.600664	0.371905
O19	O	1.330672	0.202261	0.108258
O20	O	1.830672	0.702261	0.608258
C21	C	1.132692	0.104968	-0.000019
C22	C	1.632692	0.604968	0.499981
C23	C	1.006706	0.103110	-0.000020
C24	C	1.506706	0.603110	0.499980
C25	C	0.904392	0.101600	-0.000025
C26	C	1.404392	0.601600	0.499975
C27	C	0.776034	0.099713	-0.000026
C28	C	1.276034	0.599713	0.499974
C29	C	1.349136	-0.026954	0.000012
C30	C	1.849136	0.473046	0.500012
C31	C	1.347282	-0.104469	0.000023
C32	C	1.847282	0.395531	0.500023
C33	C	1.449837	-0.148809	0.000031
C34	C	1.949837	0.351191	0.500031
C35	C	1.448095	-0.221643	0.000010
C36	C	1.948095	0.278357	0.500010
C37	C	1.343792	-0.250134	0.000008
C38	C	1.843792	0.249866	0.500008
C39	C	1.241223	-0.205784	-0.000007
C40	C	1.741223	0.294216	0.499993
C41	C	1.242968	-0.132951	0.000001
C42	C	1.742968	0.367049	0.500001
N43	N	1.264059	-0.358594	0.073720
N44	N	1.764059	0.141406	0.573720
N45	N	1.262409	-0.427782	0.073715
N46	N	1.762409	0.072218	0.573715
C47	C	1.338528	-0.469572	-0.000019
C48	C	1.838528	0.030428	0.499981
N49	N	1.416378	-0.439562	-0.073731
N50	N	1.916378	0.060438	0.426269
N51	N	1.418032	-0.370368	-0.073721
N52	N	1.918032	0.129632	0.426279
C53	C	1.341888	-0.329107	-0.000002
C54	C	1.841888	0.170893	0.499998
C55	C	1.439202	-0.592887	-0.000035
C56	C	1.939202	-0.092887	0.499965
C57	C	1.437455	-0.665722	-0.000064
C58	C	1.937455	-0.165722	0.499936
C59	C	1.230580	-0.649861	-0.000069
C60	C	1.730580	-0.149861	0.499931
C61	C	1.232330	-0.577028	-0.000053
C62	C	1.732330	-0.077028	0.499947
C63	C	1.336643	-0.548546	-0.000030
C64	C	1.836643	-0.048546	0.499970
C65	C	1.547741	0.096356	-0.000017
C66	C	2.047741	0.596356	0.499983
C67	C	1.673726	0.098214	-0.000025
C68	C	2.173726	0.598214	0.499975
C69	C	1.331297	0.228278	-0.000049
C70	C	1.831297	0.728278	0.499951
C71	C	1.333151	0.305793	-0.000069
C72	C	1.833151	0.805793	0.499931
N73	N	1.340203	0.100655	0.308227
N74	N	1.840203	0.600655	0.808227
N75	N	1.340239	0.100663	-0.308261
N76	N	1.840239	0.600663	0.191739
C77	C	1.340220	0.100663	0.573897
C78	C	1.840220	0.600663	1.073897
C79	C	1.340207	0.100660	0.426059
C80	C	1.840207	0.600660	0.926059
H81	H	1.534777	-0.125624	0.000045
H82	H	2.034777	0.374376	0.500045
H83	H	1.148818	-0.540925	-0.000052
H84	H	1.648818	-0.040925	0.499948
H85	H	1.145654	-0.673057	-0.000077
H86	H	1.645654	-0.173057	0.499923
Br87	Br	1.103774	-0.072771	-0.000013
Br88	Br	1.603774	0.427229	0.499987
Br89	Br	1.587287	-0.281831	0.000015
Br90	Br	2.087287	0.218169	0.500015
H91	H	1.156298	-0.228985	-0.000012
H92	H	1.656298	0.271015	0.499988
Br93	Br	1.580766	-0.554229	0.000009
Br94	Br	2.080766	-0.054229	0.500009
H95	H	1.520972	-0.701824	-0.000065
H96	H	2.020972	-0.201824	0.499935
