data_functionalizedCrystal
_audit_creation_method	'MofGen! by Chris Wilmer'
_symmetry_space_group_name_H-M	'P1'
_symmetry_Int_Tables_number	1
_symmetry_cell_setting	triclinic
loop_
_symmetry_equiv_pos_as_xyz
  x,y,z
_cell_length_a	12.827885
_cell_length_b	11.169417
_cell_length_c	11.169416
_cell_angle_alpha	90.011219
_cell_angle_beta	90.027574
_cell_angle_gamma	90.017908
loop_
_atom_site_label
_atom_site_type_symbol
_atom_site_fract_x
_atom_site_fract_y
_atom_site_fract_z
Zn1	Zn	-0.590827	-1.834940	0.477721
Zn2	Zn	-0.416094	-1.834836	0.678450
Zn3	Zn	-0.416105	-1.634232	0.477783
Zn4	Zn	-0.590798	-1.634233	0.678364
O5	O	-0.503456	-1.734560	0.578079
O6	O	-0.567656	-2.002876	0.504358
O7	O	-0.269859	-1.808181	0.651893
O8	O	-0.439298	-1.660900	0.309825
O9	O	-0.439280	-2.002799	0.651833
O10	O	-0.567666	-1.808359	0.309779
O11	O	-0.269867	-1.660799	0.504463
O12	O	-0.439270	-1.466283	0.504380
O13	O	-0.737038	-1.660901	0.651686
O14	O	-0.567617	-1.466283	0.651746
O15	O	-0.737059	-1.808359	0.504275
O16	O	-0.439252	-1.808182	0.846388
O17	O	-0.567606	-1.660800	0.846325
C18	C	-0.503442	-1.422735	0.578061
C19	C	-0.503461	-1.289335	0.578082
C20	C	-0.503448	-1.734513	0.889904
C21	C	-0.503479	-1.734602	1.023304
C22	C	-0.776026	-1.734642	0.577964
C23	C	-0.892179	-1.734677	0.577915
C24	C	-0.943974	-1.807652	0.504957
C25	C	-1.064025	-1.807689	0.504904
C26	C	-0.231946	-1.734548	0.578107
C27	C	-0.115793	-1.734745	0.577818
C28	C	-0.503470	-2.047602	0.578098
C29	C	-0.503476	-2.181002	0.578107
C30	C	-0.503487	-1.734641	0.265037
C31	C	-0.503500	-1.734675	0.131637
H32	H	-0.899441	-1.870096	0.442529
O33	O	-0.951161	-1.651947	0.660599
H34	H	-0.894959	-1.598477	0.714044
O35	O	-1.123013	-1.890433	0.422137
H36	H	-1.208048	-1.877462	0.435068
H37	H	-1.071257	-1.672270	0.640288
