data_functionalizedCrystal
_audit_creation_method	'MofGen! by Chris Wilmer'
_symmetry_space_group_name_H-M	'P1'
_symmetry_Int_Tables_number	1
_symmetry_cell_setting	triclinic
loop_
_symmetry_equiv_pos_as_xyz
  x,y,z
_cell_length_a	14.908571
_cell_length_b	18.215406
_cell_length_c	18.215399
_cell_angle_alpha	89.984834
_cell_angle_beta	86.687722
_cell_angle_gamma	86.697668
loop_
_atom_site_label
_atom_site_type_symbol
_atom_site_fract_x
_atom_site_fract_y
_atom_site_fract_z
Zn1	Zn	1.379369	-0.358024	-0.481003
Zn2	Zn	1.712703	-0.024690	-0.147670
Zn3	Zn	2.046036	0.308643	0.185663
Zn4	Zn	1.379321	-0.481092	-0.357962
Zn5	Zn	1.712654	-0.147759	-0.024629
Zn6	Zn	2.045987	0.185574	0.308704
Zn7	Zn	1.228502	-0.350934	-0.350861
Zn8	Zn	1.561835	-0.017601	-0.017528
Zn9	Zn	1.895168	0.315733	0.315806
Zn10	Zn	1.228523	-0.473941	-0.473901
Zn11	Zn	1.561857	-0.140608	-0.140567
Zn12	Zn	1.895190	0.192726	0.192766
O13	O	1.303929	-0.415998	-0.415932
O14	O	1.637262	-0.082664	-0.082599
O15	O	1.970595	0.250669	0.250735
O16	O	1.505611	-0.380309	-0.470626
O17	O	1.838944	-0.046976	-0.137293
O18	O	2.172277	0.286358	0.196040
O19	O	1.359285	-0.463852	-0.254035
O20	O	1.692618	-0.130519	0.079299
O21	O	2.025951	0.202814	0.412632
O22	O	1.248526	-0.248891	-0.368125
O23	O	1.581859	0.084443	-0.034792
O24	O	1.915193	0.417776	0.298541
O25	O	1.505575	-0.470727	-0.380229
O26	O	1.838908	-0.137394	-0.046895
O27	O	2.172241	0.195940	0.286438
O28	O	1.359368	-0.254099	-0.463740
O29	O	1.692701	0.079234	-0.130407
O30	O	2.026035	0.412567	0.202926
O31	O	1.248479	-0.368225	-0.248817
O32	O	1.581812	-0.034892	0.084516
O33	O	1.915145	0.298441	0.417849
O34	O	1.102257	-0.361291	-0.361238
O35	O	1.435590	-0.027958	-0.027905
O36	O	1.768924	0.305376	0.305429
O37	O	1.248563	-0.458539	-0.577829
O38	O	1.581896	-0.125205	-0.244495
O39	O	1.915230	0.208128	0.088838
O40	O	1.102273	-0.451664	-0.451635
O41	O	1.435606	-0.118331	-0.118301
O42	O	1.768939	0.215003	0.215032
O43	O	1.359389	-0.373374	-0.583047
O44	O	1.692722	-0.040041	-0.249714
O45	O	2.026055	0.293292	0.083620
O46	O	1.359306	-0.583128	-0.373341
O47	O	1.692639	-0.249794	-0.040008
O48	O	2.025972	0.083539	0.293325
O49	O	1.248516	-0.577873	-0.458521
O50	O	1.581849	-0.244540	-0.125187
O51	O	1.915182	0.088793	0.208146
C52	C	1.069530	-0.404933	-0.404895
C53	C	1.402864	-0.071599	-0.071562
C54	C	1.736197	0.261734	0.261771
C55	C	0.969254	-0.400217	-0.400191
C56	C	1.302587	-0.066883	-0.066858
C57	C	1.635920	0.266450	0.266475
C58	C	1.303950	-0.224046	-0.415933
C59	C	1.637283	0.109288	-0.082600
C60	C	1.970617	0.442621	0.250734
C61	C	1.303959	-0.142247	-0.415933
C62	C	1.637292	0.191086	-0.082600
C63	C	1.970626	0.524419	0.250733
C64	C	1.303932	-0.607204	-0.415948
C65	C	1.637265	-0.273871	-0.082615
C66	C	1.970599	0.059463	0.250719
C67	C	1.304016	-0.689007	-0.415983
C68	C	1.637349	-0.355674	-0.082650
C69	C	1.970683	-0.022340	0.250683
C70	C	0.780888	-0.485606	-0.485356
C71	C	1.114221	-0.152273	-0.152022
C72	C	1.447555	0.181060	0.181311
C73	C	0.686669	-0.481177	-0.480939
C74	C	1.020002	-0.147844	-0.147605
C75	C	1.353336	0.185489	0.185728
C76	C	0.686595	-0.386927	-0.386944
C77	C	1.019928	-0.053594	-0.053611
C78	C	1.353262	0.279739	0.279723
C79	C	0.780814	-0.391356	-0.391361
C80	C	1.114147	-0.058023	-0.058028
C81	C	1.447481	0.275311	0.275306
C82	C	0.827957	-0.440698	-0.440568
C83	C	1.161290	-0.107365	-0.107235
C84	C	1.494624	0.225969	0.226099
C85	C	0.922178	-0.445130	-0.444981
C86	C	1.255511	-0.111797	-0.111648
C87	C	1.588844	0.221537	0.221686
C88	C	0.922102	-0.350876	-0.350991
C89	C	1.255435	-0.017543	-0.017657
C90	C	1.588769	0.315790	0.315676
C91	C	0.827883	-0.346448	-0.346573
C92	C	1.161217	-0.013114	-0.013240
C93	C	1.494550	0.320219	0.320093
C94	C	1.539243	-0.427106	-0.427012
C95	C	1.872576	-0.093773	-0.093679
C96	C	2.205909	0.239560	0.239655
C97	C	1.639519	-0.431840	-0.431734
C98	C	1.972853	-0.098507	-0.098400
C99	C	2.306186	0.234826	0.234933
C100	C	1.303984	-0.415950	-0.607887
C101	C	1.637317	-0.082616	-0.274554
C102	C	1.970650	0.250717	0.058779
C103	C	1.304007	-0.415929	-0.689687
C104	C	1.637340	-0.082596	-0.356354
C105	C	1.970674	0.250738	-0.023021
C106	C	1.246272	0.048659	-0.366174
C107	C	1.579606	0.381992	-0.032841
C108	C	1.912939	0.715325	0.300492
C109	C	1.246280	0.125517	-0.366184
C110	C	1.579613	0.458850	-0.032850
C111	C	1.912947	0.792184	0.300483
C112	C	1.361705	0.120082	-0.465748
C113	C	1.695039	0.453415	-0.132414
C114	C	2.028372	0.786748	0.200919
C115	C	1.361693	0.043225	-0.465741
C116	C	1.695026	0.376558	-0.132408
C117	C	2.028359	0.709892	0.200925
C118	C	1.303978	0.007515	-0.415951
C119	C	1.637311	0.340849	-0.082617
C120	C	1.970644	0.674182	0.250716
C121	C	1.303998	0.161230	-0.415966
C122	C	1.637331	0.494564	-0.082633
C123	C	1.970664	0.827897	0.250700
C124	C	1.304006	0.244564	-0.415977
C125	C	1.637339	0.577897	-0.082643
C126	C	1.970673	0.911230	0.250690
C127	C	1.303968	-0.075823	-0.415941
C128	C	1.637301	0.257510	-0.082608
C129	C	1.970634	0.590843	0.250726
C130	C	1.361735	-0.371541	-0.880601
C131	C	1.695068	-0.038208	-0.547268
C132	C	2.028402	0.295126	-0.213934
C133	C	1.361746	-0.371520	-0.957460
C134	C	1.695079	-0.038187	-0.624127
C135	C	2.028412	0.295147	-0.290794
C136	C	1.246343	-0.460206	-0.952015
C137	C	1.579676	-0.126873	-0.618682
C138	C	1.913010	0.206460	-0.285348
C139	C	1.246328	-0.460223	-0.875157
C140	C	1.579662	-0.126889	-0.541824
C141	C	1.912995	0.206444	-0.208490
C142	C	1.304029	-0.415891	-0.839452
C143	C	1.637363	-0.082558	-0.506119
C144	C	1.970696	0.250775	-0.172785
C145	C	1.304055	-0.415854	-0.993169
C146	C	1.637388	-0.082521	-0.659836
C147	C	1.970722	0.250813	-0.326503
C148	C	1.304066	-0.415832	-1.076504
C149	C	1.637399	-0.082498	-0.743170
C150	C	1.970733	0.250835	-0.409837
C151	C	1.304017	-0.415913	-0.756113
C152	C	1.637351	-0.082579	-0.422779
C153	C	1.970684	0.250754	-0.089446
C154	C	1.303926	-0.415995	-0.224726
C155	C	1.637259	-0.082662	0.108608
C156	C	1.970593	0.250672	0.441941
C157	C	1.304077	-0.415816	-0.142934
C158	C	1.637411	-0.082483	0.190399
C159	C	1.970744	0.250850	0.523733
H160	H	0.960560	-0.485308	-0.485047
H161	H	1.293894	-0.151975	-0.151713
H162	H	1.627227	0.181359	0.181620
H163	H	0.819273	-0.525786	-0.525418
H164	H	1.152606	-0.192453	-0.192085
H165	H	1.485939	0.140880	0.141249
H166	H	1.199331	-0.496337	-0.841652
H167	H	1.532665	-0.163004	-0.508319
H168	H	1.865998	0.170329	-0.174985
H169	H	1.408683	0.009725	-0.506280
H170	H	1.742016	0.343058	-0.172947
H171	H	2.075349	0.676391	0.160387
C172	C	0.776021	-0.292180	-0.292447
C173	C	1.109355	0.041153	0.040887
C174	C	1.442688	0.374486	0.374220
H175	H	0.713166	-0.295977	-0.296226
H176	H	1.046499	0.037356	0.037108
H177	H	1.379833	0.370689	0.370441
H178	H	0.791459	-0.243471	-0.304007
H179	H	1.124792	0.089862	0.029326
H180	H	1.458125	0.423196	0.362659
H181	H	0.791436	-0.303626	-0.243705
H182	H	1.124769	0.029708	0.089628
H183	H	1.458102	0.363041	0.422962
H184	H	1.408716	-0.335442	-0.851532
H185	H	1.742050	-0.002108	-0.518199
H186	H	2.075383	0.331225	-0.184866
C187	C	1.425226	-0.322738	-1.002721
C188	C	1.758559	0.010595	-0.669388
C189	C	2.091893	0.343928	-0.336054
H190	H	1.459590	-0.296345	-0.970446
H191	H	1.792924	0.036988	-0.637113
H192	H	2.126257	0.370322	-0.303780
H193	H	1.390727	-0.289036	-1.031077
H194	H	1.724060	0.044297	-0.697744
H195	H	2.057393	0.377631	-0.364411
H196	H	1.464540	-0.352744	-1.034555
H197	H	1.797873	-0.019411	-0.701222
H198	H	2.131207	0.313923	-0.367888
C199	C	0.634891	-0.530576	-0.530202
C200	C	0.968225	-0.197242	-0.196869
C201	C	1.301558	0.136091	0.136464
H202	H	0.572026	-0.520869	-0.520530
H203	H	0.905359	-0.187536	-0.187196
H204	H	1.238692	0.145798	0.146137
H205	H	0.650336	-0.580736	-0.520085
H206	H	0.983669	-0.247402	-0.186752
H207	H	1.317002	0.085931	0.146582
H208	H	0.650360	-0.520587	-0.580393
H209	H	0.983694	-0.187253	-0.247059
H210	H	1.317027	0.146080	0.086274
C211	C	0.973876	-0.301477	-0.301717
C212	C	1.307209	0.031856	0.031616
C213	C	1.640542	0.365190	0.364950
H214	H	0.932302	-0.271463	-0.271776
H215	H	1.265635	0.061870	0.061558
H216	H	1.598968	0.395203	0.394891
H217	H	1.010647	-0.271174	-0.331634
H218	H	1.343981	0.062159	0.001700
H219	H	1.677314	0.395493	0.335033
H220	H	1.010610	-0.331326	-0.271329
H221	H	1.343943	0.002007	0.062004
H222	H	1.677276	0.335341	0.395337
H223	H	1.199275	0.019586	-0.325633
H224	H	1.532608	0.352920	0.007700
H225	H	1.865942	0.686253	0.341033
C226	C	1.182808	0.170771	-0.311427
C227	C	1.516142	0.504105	0.021906
C228	C	1.849475	0.837438	0.355240
H229	H	1.148441	0.138494	-0.281771
H230	H	1.481774	0.471827	0.051562
H231	H	1.815107	0.805161	0.384895
H232	H	1.143511	0.202615	-0.337729
H233	H	1.476844	0.535948	-0.004396
H234	H	1.810177	0.869282	0.328938
H235	H	1.217321	0.199117	-0.280987
H236	H	1.550654	0.532450	0.052347
H237	H	1.883987	0.865783	0.385680
H238	H	1.199367	-0.496301	-0.981095
H239	H	1.532700	-0.162967	-0.647762
H240	H	1.866034	0.170366	-0.314429
H241	H	0.648195	-0.346751	-0.346887
H242	H	0.981528	-0.013418	-0.013554
H243	H	1.314862	0.319916	0.319780
H244	H	1.408697	0.149164	-0.506285
H245	H	1.742030	0.482497	-0.172952
H246	H	2.075364	0.815831	0.160381
