data_functionalizedCrystal
_audit_creation_method	'MofGen! by Chris Wilmer'
_symmetry_space_group_name_H-M	'P1'
_symmetry_Int_Tables_number	1
_symmetry_cell_setting	triclinic
loop_
_symmetry_equiv_pos_as_xyz
  x,y,z
_cell_length_a	12.759400
_cell_length_b	12.759401
_cell_length_c	14.909241
_cell_angle_alpha	93.315644
_cell_angle_beta	86.675800
_cell_angle_gamma	89.986693
loop_
_atom_site_label
_atom_site_type_symbol
_atom_site_fract_x
_atom_site_fract_y
_atom_site_fract_z
Zn1	Zn	-0.384000	-1.640520	-0.510103
Zn2	Zn	0.116000	-1.140520	-0.010103
Zn3	Zn	-0.569845	-1.630282	-0.359249
Zn4	Zn	-0.069845	-1.130282	0.140751
Zn5	Zn	-0.394176	-1.454690	-0.359259
Zn6	Zn	0.105824	-0.954690	0.140741
Zn7	Zn	-0.559636	-1.464808	-0.510064
Zn8	Zn	-0.059636	-0.964808	-0.010064
O9	O	-0.476914	-1.547575	-0.434669
O10	O	0.023086	-1.047575	0.065331
O11	O	-0.408667	-1.786184	-0.490104
O12	O	0.091333	-1.286184	0.009896
O13	O	-0.555074	-1.598469	-0.233005
O14	O	-0.055074	-1.098469	0.266995
O15	O	-0.245804	-1.479391	-0.379290
O16	O	0.254196	-0.979391	0.120710
O17	O	-0.545207	-1.778662	-0.379272
O18	O	-0.045207	-1.278662	0.120728
O19	O	-0.238327	-1.615920	-0.490114
O20	O	0.261673	-1.115920	0.009886
O21	O	-0.426011	-1.469463	-0.233012
O22	O	0.073989	-0.969463	0.266988
O23	O	-0.416111	-1.309010	-0.379251
O24	O	0.083889	-0.809010	0.120749
O25	O	-0.527806	-1.496637	-0.636315
O26	O	-0.027806	-0.996637	-0.136315
O27	O	-0.537673	-1.316444	-0.490047
O28	O	-0.037673	-0.816444	0.009953
O29	O	-0.398767	-1.625731	-0.636344
O30	O	0.101233	-1.125731	-0.136344
O31	O	-0.715514	-1.608281	-0.379234
O32	O	-0.215514	-1.108281	0.120766
O33	O	-0.708012	-1.486708	-0.490037
O34	O	-0.208012	-0.986708	0.009963
C35	C	-0.476889	-1.274606	-0.434647
C36	C	0.023111	-0.774606	0.065353
C37	C	-0.476902	-1.157830	-0.434659
C38	C	0.023098	-0.657830	0.065341
C39	C	-0.547919	-0.989324	-0.376883
C40	C	-0.047919	-0.489324	0.123117
C41	C	-0.547900	-1.099047	-0.376870
C42	C	-0.047900	-0.599047	0.123130
C43	C	-0.405911	-1.106885	-0.492458
C44	C	0.094089	-0.606885	0.007542
C45	C	-0.405925	-0.997163	-0.492465
C46	C	0.094075	-0.497163	0.007535
C47	C	-0.618929	-0.930546	-0.319097
C48	C	-0.118929	-0.430546	0.180903
C49	C	-0.689919	-0.981484	-0.261297
C50	C	-0.189919	-0.481484	0.238703
C51	C	-0.689901	-1.091207	-0.261284
C52	C	-0.189901	-0.591207	0.238716
C53	C	-0.618892	-1.149993	-0.319071
C54	C	-0.118892	-0.649993	0.180929
C55	C	-0.749883	-1.547511	-0.434650
C56	C	-0.249883	-1.047511	0.065350
C57	C	-0.866658	-1.547582	-0.434672
C58	C	-0.366658	-1.047582	0.065328
C59	C	-0.925387	-1.610964	-0.377041
C60	C	-0.425387	-1.110964	0.122959
C61	C	-1.035109	-1.611030	-0.377068
C62	C	-0.535109	-1.111030	0.122932
C63	C	-1.027364	-1.484325	-0.492362
C64	C	-0.527364	-0.984325	0.007638
C65	C	-0.917643	-1.484265	-0.492338
C66	C	-0.417643	-0.984265	0.007662
C67	C	-0.874401	-1.674282	-0.319375
C68	C	-0.374401	-1.174282	0.180625
C69	C	-0.933130	-1.737667	-0.261738
C70	C	-0.433130	-1.237667	0.238262
C71	C	-1.042853	-1.737734	-0.261766
C72	C	-0.542853	-1.237734	0.238234
C73	C	-1.093846	-1.674414	-0.319431
C74	C	-0.593846	-1.174414	0.180569
C75	C	-0.202878	-1.547669	-0.434707
C76	C	0.297122	-1.047669	0.065293
C77	C	-0.086101	-1.547709	-0.434724
C78	C	0.413899	-1.047709	0.065276
C79	C	-0.461012	-1.563455	-0.669978
C80	C	0.038988	-1.063455	-0.169978
C81	C	-0.454235	-1.570222	-0.770253
C82	C	0.045765	-1.070222	-0.270253
C83	C	-0.476936	-0.821609	-0.434686
C84	C	0.023064	-0.321609	0.065314
C85	C	-0.476935	-0.938386	-0.434680
C86	C	0.023065	-0.438386	0.065320
C87	C	-0.575894	-1.448514	-0.958652
C88	C	-0.075894	-0.948514	-0.458652
C89	C	-0.569530	-1.454869	-1.052870
C90	C	-0.069530	-0.954869	-0.552870
C91	C	-0.435150	-1.589291	-1.052907
C92	C	0.064850	-1.089291	-0.552907
C93	C	-0.441514	-1.582936	-0.958690
C94	C	0.058486	-1.082936	-0.458690
C95	C	-0.511887	-1.512544	-0.911566
C96	C	-0.011887	-1.012544	-0.411566
C97	C	-0.518245	-1.506185	-0.817347
C98	C	-0.018245	-1.006185	-0.317347
C99	C	-0.383871	-1.640611	-0.817386
C100	C	0.116129	-1.140611	-0.317386
C101	C	-0.377507	-1.646966	-0.911603
C102	C	0.122493	-1.146966	-0.411603
C103	C	-0.492679	-1.531817	-0.200275
C104	C	0.007321	-1.031817	0.299725
C105	C	-0.499160	-1.525254	-0.100000
C106	C	0.000840	-1.025254	0.400000
H107	H	-0.747727	-0.933614	-0.214245
H108	H	-0.247727	-0.433614	0.285755
F109	F	-1.210642	-1.674129	-0.319165
F110	F	-0.710642	-1.174129	0.180835
H111	H	-1.068891	-1.432772	-0.539309
H112	H	-0.568891	-0.932772	-0.039309
F113	F	-0.618864	-1.266770	-0.319043
F114	F	-0.118864	-0.766770	0.180957
H115	H	-0.747698	-1.132677	-0.214214
H116	H	-0.247698	-0.632677	0.285786
H117	H	-0.785061	-1.674232	-0.319343
H118	H	-0.285061	-1.174232	0.180657
F119	F	-0.637657	-1.386722	-1.102980
F120	F	-0.137657	-0.886722	-0.602980
F121	F	-0.878858	-1.805061	-0.200378
F122	F	-0.378858	-1.305061	0.299622
H123	H	-0.348099	-1.154756	-0.539506
H124	H	0.151901	-0.654756	-0.039506
H125	H	-0.348119	-0.955688	-0.539525
H126	H	0.151881	-0.455688	-0.039525
F127	F	-0.855136	-1.416809	-0.553677
F128	F	-0.355136	-0.916809	-0.053677
H129	H	-1.090667	-1.789353	-0.214842
H130	H	-0.590667	-1.289353	0.285158
H131	H	-0.575536	-1.448858	-0.778980
H132	H	-0.075536	-0.948858	-0.278980
H133	H	-0.633175	-1.391179	-0.920283
H134	H	-0.133175	-0.891179	-0.420283
F135	F	-0.360271	-1.664211	-1.103074
F136	F	0.139729	-1.164211	-0.603074
F137	F	-0.302618	-1.721881	-0.961765
F138	F	0.197382	-1.221881	-0.461765
F139	F	-0.315762	-1.708778	-0.767266
F140	F	0.184238	-1.208778	-0.267266
H141	H	-0.618953	-0.841204	-0.319103
H142	H	-0.118953	-0.341204	0.180897
