data_functionalizedCrystal
_audit_creation_method	'MofGen! by Chris Wilmer'
_symmetry_space_group_name_H-M	'P1'
_symmetry_Int_Tables_number	1
_symmetry_cell_setting	triclinic
loop_
_symmetry_equiv_pos_as_xyz
  x,y,z
_cell_length_a	14.044220
_cell_length_b	19.188930
_cell_length_c	12.503572
_cell_angle_alpha	93.506241
_cell_angle_beta	86.164750
_cell_angle_gamma	88.166830
loop_
_atom_site_label
_atom_site_type_symbol
_atom_site_fract_x
_atom_site_fract_y
_atom_site_fract_z
O1	O	1.262485	0.164589	-0.089229
O2	O	1.762485	0.664589	0.410771
O3	O	0.986542	0.158515	-0.089255
O4	O	1.486542	0.658515	0.410745
O5	O	1.132475	0.060411	-0.089220
O6	O	1.632475	0.560411	0.410780
O7	O	1.116552	0.262693	-0.089264
O8	O	1.616552	0.762693	0.410736
O9	O	1.121500	0.067803	0.089419
O10	O	1.621500	0.567803	0.589419
O11	O	0.975567	0.165907	0.089384
O12	O	1.475567	0.665907	0.589384
O13	O	1.251510	0.171980	0.089411
O14	O	1.751510	0.671980	0.589411
Cu15	Cu	1.112536	0.169618	0.105709
Cu16	Cu	1.612536	0.669618	0.605709
Cu17	Cu	1.125516	0.160877	-0.105553
Cu18	Cu	1.625516	0.660877	0.394447
O19	O	1.105577	0.270084	0.089376
O20	O	1.605577	0.770084	0.589376
C21	C	0.945752	0.159553	0.000061
C22	C	1.445752	0.659553	0.500061
C23	C	0.840559	0.151624	0.000052
C24	C	1.340559	0.651624	0.500052
C25	C	0.647956	0.137129	0.000077
C26	C	1.147956	0.637129	0.500077
C27	C	0.590090	0.193363	0.000069
C28	C	1.090090	0.693363	0.500069
C29	C	0.482920	0.185298	0.000083
C30	C	0.982920	0.685298	0.500083
C31	C	0.755137	0.145193	0.000063
C32	C	1.255137	0.645193	0.500063
C33	C	1.126472	0.038063	0.000102
C34	C	1.626472	0.538063	0.500102
C35	C	1.124923	-0.039541	0.000112
C36	C	1.624923	0.460459	0.500112
C37	C	1.210552	-0.078939	0.000125
C38	C	1.710552	0.421061	0.500125
C39	C	1.209099	-0.151857	0.000108
C40	C	1.709099	0.348143	0.500108
C41	C	1.122010	-0.185374	0.000098
C42	C	1.622010	0.314626	0.500098
C43	C	1.036370	-0.145968	0.000079
C44	C	1.536370	0.354032	0.500079
C45	C	1.037826	-0.073051	0.000086
C46	C	1.537826	0.426949	0.500086
N47	N	1.051706	-0.295160	0.060886
N48	N	1.551706	0.204840	0.560886
N49	N	1.050328	-0.364427	0.060882
N50	N	1.550328	0.135573	0.560882
C51	C	1.117616	-0.405067	0.000076
C52	C	1.617616	0.094933	0.500076
N53	N	1.186348	-0.373823	-0.060712
N54	N	1.686348	0.126177	0.439288
N55	N	1.187729	-0.304548	-0.060704
N56	N	1.687729	0.195452	0.439296
C57	C	1.120421	-0.264440	0.000091
C58	C	1.620421	0.235560	0.500091
C59	C	1.201676	-0.523532	0.000069
C60	C	1.701676	-0.023532	0.500069
C61	C	1.200219	-0.596451	0.000045
C62	C	1.700219	-0.096451	0.500045
C63	C	1.027487	-0.590560	0.000028
C64	C	1.527487	-0.090560	0.500028
C65	C	1.028947	-0.517642	0.000041
C66	C	1.528947	-0.017642	0.500041
C67	C	1.116043	-0.484132	0.000067
C68	C	1.616043	0.015868	0.500067
C69	C	1.292301	0.170943	0.000092
C70	C	1.792301	0.670943	0.500092
C71	C	1.397493	0.178872	0.000094
C72	C	1.897493	0.678872	0.500094
C73	C	1.111580	0.292433	0.000051
C74	C	1.611580	0.792433	0.500051
C75	C	1.113129	0.370037	0.000034
C76	C	1.613129	0.870037	0.500034
N77	N	1.103414	0.175766	0.254299
N78	N	1.603414	0.675766	0.754299
N79	N	1.134645	0.154724	-0.254143
N80	N	1.634645	0.654724	0.245857
C81	C	1.089995	0.184816	0.473411
C82	C	1.589995	0.684816	0.973411
C83	C	1.148061	0.145676	0.526752
C84	C	1.648061	0.645676	1.026752
C85	C	1.140595	0.150712	0.648673
C86	C	1.640595	0.650712	1.148673
C87	C	1.097461	0.179782	0.351478
C88	C	1.597461	0.679782	0.851478
H89	H	0.617011	0.082933	0.000094
H90	H	1.117011	0.582933	0.500094
H91	H	0.621038	0.247564	0.000052
H92	H	1.121038	0.747564	0.500052
O93	O	1.304487	-0.042793	0.000144
O94	O	1.804487	0.457207	0.500144
H95	H	1.313750	-0.012714	-0.072661
H96	H	1.813750	0.487286	0.427339
O97	O	1.016734	0.234222	0.534195
O98	O	1.516734	0.734222	1.034195
H99	H	0.967633	0.204104	0.585453
H100	H	1.467633	0.704104	1.085453
H101	H	1.278831	-0.183941	0.000114
H102	H	1.778831	0.316059	0.500114
H103	H	0.965462	-0.173262	0.000069
H104	H	1.465462	0.326738	0.500069
O105	O	0.945465	-0.030550	0.000090
O106	O	1.445465	0.469450	0.500090
H107	H	0.884659	-0.066103	0.000088
H108	H	1.384659	0.433897	0.500088
O109	O	1.221343	0.096279	0.465966
O110	O	1.721343	0.596279	0.965966
H111	H	1.215789	0.100027	0.378355
H112	H	1.715789	0.600027	0.878355
O113	O	1.295610	-0.487381	0.000076
O114	O	1.795610	0.012619	0.500076
H115	H	1.354913	-0.527031	0.000061
H116	H	1.854913	-0.027031	0.500061
O117	O	1.292579	-0.638950	0.000069
O118	O	1.792579	-0.138950	0.500069
H119	H	1.353382	-0.603395	0.000101
H120	H	1.853382	-0.103395	0.500101
O121	O	0.933550	-0.626698	0.000023
O122	O	1.433550	-0.126698	0.500023
H123	H	0.946921	-0.684021	0.000027
H124	H	1.446921	-0.184021	0.500027
O125	O	0.936588	-0.475140	0.000053
O126	O	1.436588	0.024860	0.500053
H127	H	0.875782	-0.510694	0.000057
H128	H	1.375782	-0.010694	0.500057
