data_functionalizedCrystal
_audit_creation_method	'MofGen! by Chris Wilmer'
_symmetry_space_group_name_H-M	'P1'
_symmetry_Int_Tables_number	1
_symmetry_cell_setting	triclinic
loop_
_symmetry_equiv_pos_as_xyz
  x,y,z
_cell_length_a	19.805407
_cell_length_b	10.686203
_cell_length_c	19.805399
_cell_angle_alpha	94.386472
_cell_angle_beta	90.021725
_cell_angle_gamma	85.635327
loop_
_atom_site_label
_atom_site_type_symbol
_atom_site_fract_x
_atom_site_fract_y
_atom_site_fract_z
Zn1	Zn	-1.055485	0.502332	-0.362166
Zn2	Zn	-1.064116	0.713342	-0.240328
Zn3	Zn	-0.942301	0.502371	-0.248985
Zn4	Zn	-0.950977	0.713280	-0.353473
O5	O	-1.003220	0.607832	-0.301238
O6	O	-1.151347	0.530333	-0.346019
O7	O	-1.047938	0.685399	-0.146758
O8	O	-0.950073	0.325792	-0.271260
O9	O	-1.157688	0.685361	-0.256505
O10	O	-1.033228	0.325763	-0.354414
O11	O	-0.958442	0.530400	-0.153118
O12	O	-0.848735	0.530339	-0.262830
O13	O	-0.964858	0.685255	-0.449344
O14	O	-0.855109	0.685293	-0.339597
O15	O	-1.041640	0.530272	-0.455731
O16	O	-1.056350	0.889909	-0.248076
O17	O	-0.973227	0.889863	-0.331203
C18	C	-0.827363	0.607814	-0.301210
C19	C	-0.752132	0.607837	-0.301213
C20	C	-0.287048	0.527243	-0.347918
C21	C	-0.357737	0.527247	-0.347915
C22	C	-0.396370	0.607837	-0.301246
C23	C	-0.364312	0.688437	-0.254581
C24	C	-0.293625	0.688439	-0.254588
C25	C	-0.649385	0.688434	-0.254552
C26	C	-0.720077	0.688424	-0.254547
C27	C	-0.713497	0.527242	-0.347879
C28	C	-0.642810	0.527243	-0.347886
C29	C	-0.610758	0.607848	-0.301224
C30	C	-0.534109	0.607844	-0.301229
C31	C	-0.473017	0.607835	-0.301237
C32	C	-1.016685	0.935670	-0.287771
C33	C	-1.022508	1.075920	-0.282033
C34	C	-0.179763	0.607844	-0.301261
C35	C	-0.254994	0.607834	-0.301256
C36	C	-1.003254	0.607752	-0.477784
C37	C	-1.003269	0.607718	-0.553017
C38	C	-0.989713	1.278713	-0.314779
C39	C	-0.983941	1.138463	-0.320568
C40	C	-1.043250	0.527015	-0.591688
C41	C	-1.043256	0.526978	-0.662378
C42	C	-1.003283	0.607652	-0.694396
C43	C	-0.963297	0.688359	-0.655720
C44	C	-0.963289	0.688389	-0.585031
C45	C	-0.963331	0.688242	-0.940798
C46	C	-0.963344	0.688209	-1.011491
C47	C	-1.043298	0.526831	-1.018145
C48	C	-1.043289	0.526861	-0.947457
C49	C	-1.003301	0.607562	-0.908787
C50	C	-1.003295	0.607599	-0.832137
C51	C	-1.003293	0.607623	-0.771044
C52	C	-1.003220	0.607820	-0.125382
C53	C	-1.003322	0.607498	-0.050164
H54	H	-0.255597	0.461609	-0.385918
F55	F	-1.085855	0.440936	-1.059306
H56	H	-1.059978	1.129677	-0.244643
F57	F	-1.085799	0.441155	-0.557619
F58	F	-0.920797	0.774077	-1.045565
F59	F	-1.085836	0.441001	-0.913385
F60	F	-0.601696	0.441465	-0.397556
H61	H	-1.075814	0.461264	-0.693861
H62	H	-0.930781	0.753972	-0.909320
H63	H	-0.930749	0.754041	-0.681794
H64	H	-0.383831	0.461625	-0.385914
F65	F	-0.920734	0.774281	-0.543875
F66	F	-0.747614	0.441459	-0.397544
F67	F	-0.761193	0.774203	-0.204872
H68	H	-0.946469	1.084714	-0.357951
F69	F	-0.405431	0.774213	-0.204915
F70	F	-0.259512	0.774223	-0.204928
F71	F	-0.615281	0.774192	-0.204876
