data_functionalizedCrystal
_audit_creation_method	'MofGen! by Chris Wilmer'
_symmetry_space_group_name_H-M	'P1'
_symmetry_Int_Tables_number	1
_symmetry_cell_setting	triclinic
loop_
_symmetry_equiv_pos_as_xyz
  x,y,z
_cell_length_a	23.532407
_cell_length_b	23.532357
_cell_length_c	22.610064
_cell_angle_alpha	89.998517
_cell_angle_beta	89.994501
_cell_angle_gamma	82.838519
loop_
_atom_site_label
_atom_site_type_symbol
_atom_site_fract_x
_atom_site_fract_y
_atom_site_fract_z
O1	O	0.755251	0.069129	-0.049154
O2	O	1.255251	0.569129	0.450846
O3	O	0.589386	0.079133	-0.049165
O4	O	1.089386	0.579133	0.450835
O5	O	0.677335	-0.008803	-0.049147
O6	O	1.177335	0.491197	0.450853
O7	O	0.667302	0.157065	-0.049172
O8	O	1.167302	0.657065	0.450828
O9	O	0.677319	-0.008790	0.049222
O10	O	1.177319	0.491210	0.549222
O11	O	0.589370	0.079145	0.049205
O12	O	1.089370	0.579145	0.549205
O13	O	0.755236	0.069142	0.049215
O14	O	1.255236	0.569142	0.549215
Zn15	Zn	0.672300	0.074146	0.064828
Zn16	Zn	1.172300	0.574146	0.564828
Zn17	Zn	0.672321	0.074129	-0.064778
Zn18	Zn	1.172321	0.574129	0.435222
O19	O	0.667286	0.157077	0.049197
O20	O	1.167286	0.657077	0.549197
C21	C	0.568162	0.078884	0.000019
C22	C	1.068162	0.578884	0.500019
C23	C	0.504945	0.078118	0.000015
C24	C	1.004945	0.578118	0.500015
C25	C	0.238788	0.022922	0.000040
C26	C	0.738788	0.522922	0.500040
C27	C	0.298188	0.023633	0.000040
C28	C	0.798188	0.523633	0.500040
O29	O	0.334940	-0.020154	0.000067
O30	O	0.834940	0.479846	0.500067
N31	N	0.320805	0.075911	0.000028
N32	N	0.820805	0.575911	0.500028
C33	C	0.284018	0.127480	0.000022
C34	C	0.784018	0.627480	0.500022
O35	O	0.308710	0.172012	0.000012
O36	O	0.808710	0.672012	0.500012
C37	C	0.224619	0.126768	0.000027
C38	C	0.724619	0.626768	0.500027
C39	C	0.202006	0.074487	0.000032
C40	C	0.702006	0.574487	0.500032
C41	C	0.216174	-0.029355	0.000046
C42	C	0.716174	0.470645	0.500046
C43	C	0.156778	-0.030066	0.000045
C44	C	0.656778	0.469934	0.500045
C45	C	0.119996	0.021499	0.000038
C46	C	0.619996	0.521499	0.500038
C47	C	0.142610	0.073776	0.000032
C48	C	0.642610	0.573776	0.500032
C49	C	0.187833	0.178337	0.000025
C50	C	0.687833	0.678337	0.500025
C51	C	0.128431	0.177620	0.000030
C52	C	0.628431	0.677620	0.500030
C53	C	0.105818	0.125339	0.000036
C54	C	0.605818	0.625339	0.500036
C55	C	0.046431	0.124630	0.000023
C56	C	0.546431	0.624630	0.500023
N57	N	0.023815	0.072353	0.000035
N58	N	0.523815	0.572353	0.500035
C59	C	0.060597	0.020787	0.000043
C60	C	0.560597	0.520787	0.500043
C61	C	0.408760	0.128971	0.000014
C62	C	0.908760	0.628971	0.500014
C63	C	0.468158	0.129684	0.000005
C64	C	0.968158	0.629684	0.500005
C65	C	0.482324	0.025837	0.000023
C66	C	0.982324	0.525837	0.500023
C67	C	0.422925	0.025125	0.000028
C68	C	0.922925	0.525125	0.500028
C69	C	0.386143	0.076694	0.000026
C70	C	0.886143	0.576694	0.500026
C71	C	-0.064140	0.019297	0.000040
C72	C	0.435860	0.519297	0.500040
C73	C	-0.123542	0.018591	0.000037
C74	C	0.376458	0.518591	0.500037
C75	C	-0.137702	0.122438	0.000022
C76	C	0.362298	0.622438	0.500022
C77	C	-0.078306	0.123145	0.000022
C78	C	0.421694	0.623145	0.500022
C79	C	-0.041525	0.071570	0.000033
C80	C	0.458475	0.571570	0.500033
O81	O	0.009644	0.168394	-0.000001
O82	O	0.509644	0.668394	0.499999
O83	O	0.035897	-0.023737	0.000060
O84	O	0.535897	0.476263	0.500060
C85	C	0.677076	-0.030013	0.000039
C86	C	1.177076	0.469987	0.500039
C87	C	0.676322	-0.093232	0.000045
C88	C	1.176322	0.406768	0.500045
C89	C	0.671593	-0.485250	-0.053608
C90	C	1.171593	0.014750	0.446392
C91	C	0.670876	-0.544649	-0.053612
C92	C	1.170876	-0.044649	0.446388
O93	O	0.670493	-0.575372	-0.099214
O94	O	1.170493	-0.075372	0.400786
N95	N	0.670512	-0.574354	0.000009
N96	N	1.170512	-0.074354	0.500009
C97	C	0.670859	-0.544654	0.053636
C98	C	1.170859	-0.044654	0.553636
O99	O	0.670483	-0.575374	0.099244
O100	O	1.170483	-0.075374	0.599244
C101	C	0.671573	-0.485255	0.053639
C102	C	1.171573	0.014745	0.553639
C103	C	0.671942	-0.455555	0.000015
C104	C	1.171942	0.044445	0.500015
C105	C	0.671963	-0.455549	-0.107228
C106	C	1.171963	0.044451	0.392772
C107	C	0.672681	-0.396154	-0.107224
C108	C	1.172681	0.103846	0.392776
C109	C	0.673030	-0.366459	-0.053601
C110	C	1.173030	0.133541	0.446399
C111	C	0.672661	-0.396160	0.000018
C112	C	1.172661	0.103840	0.500018
C113	C	0.671916	-0.455557	0.107265
C114	C	1.171916	0.044443	0.607265
C115	C	0.672629	-0.396154	0.107263
C116	C	1.172629	0.103846	0.607263
C117	C	0.672998	-0.366454	0.053640
C118	C	1.172998	0.133546	0.553640
C119	C	0.673728	-0.307070	0.053645
C120	C	1.173728	0.192930	0.553645
N121	N	0.674092	-0.277366	0.000025
N122	N	1.174092	0.222634	0.500025
C123	C	0.673743	-0.307061	-0.053598
C124	C	1.173743	0.192939	0.446402
C125	C	0.669361	-0.669396	0.053626
C126	C	1.169361	-0.169396	0.553626
C127	C	0.668652	-0.728794	0.053624
C128	C	1.168652	-0.228794	0.553624
C129	C	0.668668	-0.728785	-0.053624
C130	C	1.168668	-0.228785	0.446376
C131	C	0.669381	-0.669386	-0.053621
C132	C	1.169381	-0.169386	0.446379
C133	C	0.669725	-0.639692	0.000005
C134	C	1.169725	-0.139692	0.500005
C135	C	0.675252	-0.182326	-0.053587
C136	C	1.175252	0.317674	0.446413
C137	C	0.675973	-0.122926	-0.053578
C138	C	1.175973	0.377074	0.446422
C139	C	0.675954	-0.122940	0.053669
C140	C	1.175954	0.377060	0.553669
C141	C	0.675236	-0.182336	0.053661
C142	C	1.175236	0.317664	0.553661
C143	C	0.674883	-0.212027	0.000028
C144	C	1.174883	0.287973	0.500028
O145	O	0.674109	-0.276310	0.099224
O146	O	1.174109	0.223690	0.599224
O147	O	0.674112	-0.276332	-0.099199
O148	O	1.174112	0.223668	0.400801
C149	C	0.776459	0.069390	0.000030
C150	C	1.276459	0.569390	0.500030
C151	C	0.839676	0.070156	0.000030
C152	C	1.339676	0.570156	0.500030
C153	C	0.667545	0.178288	0.000010
C154	C	1.167545	0.678288	0.500010
C155	C	0.668300	0.241506	0.000000
C156	C	1.168300	0.741506	0.500000
N157	N	0.672291	0.074157	0.153280
N158	N	1.172291	0.574157	0.653280
N159	N	0.672335	0.074113	-0.153230
N160	N	1.172335	0.574113	0.346770
C161	C	0.711266	0.035197	0.561930
C162	C	1.211266	0.535197	1.061930
C163	C	0.711269	0.035193	0.623850
C164	C	1.211269	0.535193	1.123850
O165	O	0.744384	0.002076	0.655875
O166	O	1.244384	0.502076	1.155875
N167	N	0.672321	0.074117	0.654818
N168	N	1.172321	0.574117	1.154818
C169	C	0.633362	0.113044	0.623862
C170	C	1.133362	0.613044	1.123862
O171	O	0.600233	0.146151	0.655889
O172	O	1.100233	0.646151	1.155889
C173	C	0.633357	0.113045	0.561944
C174	C	1.133357	0.613045	1.061944
C175	C	0.672312	0.074122	0.530979
C176	C	1.172312	0.574122	1.030979
C177	C	0.750218	-0.003723	0.530965
C178	C	1.250218	0.496277	1.030965
C179	C	0.750216	-0.003718	0.469049
C180	C	1.250216	0.496282	0.969049
C181	C	0.711262	0.035207	0.438098
C182	C	1.211262	0.535207	0.938098
C183	C	0.672310	0.074127	0.469063
C184	C	1.172310	0.574127	0.969063
C185	C	0.594397	0.151969	0.530990
C186	C	1.094397	0.651969	1.030990
C187	C	0.594395	0.151966	0.469067
C188	C	1.094395	0.651966	0.969067
C189	C	0.633350	0.113043	0.438102
C190	C	1.133350	0.613043	0.938102
C191	C	0.633354	0.113057	0.376197
C192	C	1.133354	0.613057	0.876197
N193	N	0.672303	0.074133	0.345229
N194	N	1.172303	0.574133	0.845229
C195	C	0.711257	0.035208	0.376180
C196	C	1.211257	0.535208	0.876180
C197	C	0.633376	0.113038	0.753896
C198	C	1.133376	0.613038	1.253896
C199	C	0.633383	0.113041	0.815814
C200	C	1.133383	0.613041	1.315814
C201	C	0.711289	0.035188	0.815797
C202	C	1.211289	0.535188	1.315797
C203	C	0.711284	0.035189	0.753878
C204	C	1.211284	0.535189	1.253878
C205	C	0.672324	0.074114	0.722928
C206	C	1.172324	0.574114	1.222928
C207	C	0.711249	0.035222	0.246152
C208	C	1.211249	0.535222	0.746152
C209	C	0.711245	0.035232	0.184231
C210	C	1.211245	0.535232	0.684231
C211	C	0.633336	0.113082	0.184254
C212	C	1.133336	0.613082	0.684254
C213	C	0.633342	0.113074	0.246169
C214	C	1.133342	0.613074	0.746169
C215	C	0.672301	0.074139	0.277117
C216	C	1.172301	0.574139	0.777117
O217	O	0.600255	0.146155	0.344132
O218	O	1.100255	0.646155	0.844132
O219	O	0.744375	0.002101	0.344146
O220	O	1.244375	0.502101	0.844146
H221	H	0.404518	-0.017447	0.000033
H222	H	0.904518	0.482553	0.500033
H223	H	0.781939	-0.035423	0.556159
H224	H	1.281939	0.464577	1.056159
H225	H	0.601668	0.144741	0.841021
H226	H	1.101668	0.644741	1.341021
H227	H	-0.167661	0.164421	0.000013
H228	H	0.332339	0.664421	0.500013
H229	H	0.742969	0.003536	0.159021
H230	H	1.242969	0.503536	0.659021
H231	H	0.486564	0.172256	-0.000008
H232	H	0.986564	0.672256	0.499992
H233	H	0.742972	0.003517	0.271343
H234	H	1.242972	0.503517	0.771343
H235	H	0.668359	-0.752973	0.097289
H236	H	1.168359	-0.252973	0.597289
H237	H	0.671615	-0.479729	0.150931
H238	H	1.171615	0.020271	0.650931
H239	H	0.672980	-0.371977	-0.150890
H240	H	1.172980	0.128023	0.349110
H241	H	0.781935	-0.035414	0.443841
H242	H	1.281935	0.464586	0.943841
H243	H	0.512283	-0.016151	0.000030
H244	H	1.012283	0.483849	0.500030
H245	H	0.743005	0.003495	0.728670
H246	H	1.243005	0.503495	1.228670
H247	H	0.669643	-0.645223	0.097298
H248	H	1.169643	-0.145223	0.597298
H249	H	0.601627	0.144774	0.271381
H250	H	1.101627	0.644774	0.771381
H251	H	0.672900	-0.371979	0.150934
H252	H	1.172900	0.128021	0.650934
H253	H	0.601622	0.144776	0.159044
H254	H	1.101622	0.644776	0.659044
H255	H	0.674940	-0.206520	0.097326
H256	H	1.174940	0.293480	0.597326
H257	H	-0.034199	-0.022700	0.000049
H258	H	0.465801	0.477300	0.500049
H259	H	0.562676	0.183663	0.556193
H260	H	1.062676	0.683663	1.056193
H261	H	-0.141950	-0.023984	0.000040
H262	H	0.358050	0.476016	0.500040
H263	H	0.743007	0.003493	0.841008
H264	H	1.243007	0.503493	1.341008
H265	H	0.676241	-0.098753	0.097328
H266	H	1.176241	0.401247	0.597328
H267	H	0.138372	-0.072639	0.000053
H268	H	0.638372	0.427361	0.500053
H269	H	0.378815	0.170968	0.000007
H270	H	0.878815	0.670968	0.500007
H271	H	0.246117	-0.071348	0.000054
H272	H	0.746117	0.428652	0.500054
H273	H	0.206234	0.220910	0.000018
H274	H	0.706234	0.720910	0.500018
H275	H	0.601651	0.144740	0.728700
H276	H	1.101651	0.644740	1.228700
H277	H	0.562667	0.183663	0.443870
H278	H	1.062667	0.683663	0.943870
H279	H	0.676275	-0.098747	-0.097247
H280	H	1.176275	0.401253	0.402753
H281	H	-0.059893	0.165716	0.000016
H282	H	0.440107	0.665716	0.500016
H283	H	0.098485	0.219615	0.000031
H284	H	0.598485	0.719615	0.500031
H285	H	0.671676	-0.479720	-0.150897
H286	H	1.171676	0.020280	0.349103
H287	H	0.674962	-0.206494	-0.097259
H288	H	1.174962	0.293506	0.402741
H289	H	0.669681	-0.645208	-0.097287
H290	H	1.169681	-0.145208	0.402713
H291	H	0.668381	-0.752973	-0.097287
H292	H	1.168381	-0.252973	0.402713
