data_functionalizedCrystal
_audit_creation_method	'MofGen! by Chris Wilmer'
_symmetry_space_group_name_H-M	'P1'
_symmetry_Int_Tables_number	1
_symmetry_cell_setting	triclinic
loop_
_symmetry_equiv_pos_as_xyz
  x,y,z
_cell_length_a	14.044191
_cell_length_b	10.489763
_cell_length_c	12.503572
_cell_angle_alpha	86.445212
_cell_angle_beta	86.162165
_cell_angle_gamma	91.129931
loop_
_atom_site_label
_atom_site_type_symbol
_atom_site_fract_x
_atom_site_fract_y
_atom_site_fract_z
O1	O	1.265245	-0.301026	-0.089289
O2	O	1.515245	-0.051026	0.160711
O3	O	1.765245	0.198974	0.410711
O4	O	2.015245	0.448974	0.660711
O5	O	0.989200	-0.289910	-0.089302
O6	O	1.239200	-0.039910	0.160698
O7	O	1.489200	0.210090	0.410698
O8	O	1.739200	0.460090	0.660698
O9	O	1.133492	-0.110510	-0.089275
O10	O	1.383492	0.139490	0.160725
O11	O	1.633492	0.389490	0.410725
O12	O	1.883492	0.639490	0.660725
O13	O	1.120954	-0.480426	-0.089316
O14	O	1.370954	-0.230426	0.160684
O15	O	1.620954	0.019574	0.410684
O16	O	1.870954	0.269574	0.660684
O17	O	1.122640	-0.124026	0.089365
O18	O	1.372640	0.125974	0.339365
O19	O	1.622640	0.375974	0.589365
O20	O	1.872640	0.625974	0.839365
O21	O	0.978349	-0.303427	0.089338
O22	O	1.228349	-0.053427	0.339338
O23	O	1.478349	0.196573	0.589338
O24	O	1.728349	0.446573	0.839338
O25	O	1.254394	-0.314542	0.089351
O26	O	1.504394	-0.064542	0.339351
O27	O	1.754394	0.185458	0.589351
O28	O	2.004394	0.435458	0.839351
Cu29	Cu	1.115380	-0.310219	0.105655
Cu30	Cu	1.365380	-0.060219	0.355655
Cu31	Cu	1.615380	0.189781	0.605655
Cu32	Cu	1.865380	0.439781	0.855655
Cu33	Cu	1.128214	-0.294234	-0.105607
Cu34	Cu	1.378214	-0.044234	0.144393
Cu35	Cu	1.628214	0.205766	0.394393
Cu36	Cu	1.878214	0.455766	0.644393
O37	O	1.110102	-0.493943	0.089324
O38	O	1.360102	-0.243943	0.339324
O39	O	1.610102	0.006057	0.589324
O40	O	1.860102	0.256057	0.839324
C41	C	0.948426	-0.291806	0.000016
C42	C	1.198426	-0.041806	0.250016
C43	C	1.448426	0.208194	0.500016
C44	C	1.698426	0.458194	0.750016
C45	C	0.843101	-0.277303	0.000012
C46	C	1.093101	-0.027303	0.250012
C47	C	1.343101	0.222697	0.500012
C48	C	1.593101	0.472697	0.750012
C49	C	0.593340	-0.353648	0.000015
C50	C	0.843340	-0.103648	0.250015
C51	C	1.093340	0.146352	0.500015
C52	C	1.343340	0.396352	0.750015
C53	C	0.650260	-0.250809	0.000024
C54	C	0.900260	-0.000809	0.250024
C55	C	1.150260	0.249191	0.500024
C56	C	1.400260	0.499191	0.750024
C57	C	0.757567	-0.265554	0.000018
C58	C	1.007567	-0.015554	0.250018
C59	C	1.257567	0.234446	0.500018
C60	C	1.507567	0.484446	0.750018
C61	C	0.486024	-0.338906	0.000021
C62	C	0.736024	-0.088906	0.250021
C63	C	0.986024	0.161094	0.500021
C64	C	1.236024	0.411094	0.750021
C65	C	1.127114	-0.069640	0.000047
C66	C	1.377114	0.180360	0.250047
C67	C	1.627114	0.430360	0.500047
C68	C	1.877114	0.680360	0.750047
C69	C	1.124266	0.072276	0.000056
C70	C	1.374266	0.322276	0.250056
C71	C	1.624266	0.572276	0.500056
C72	C	1.874266	0.822276	0.750056
C73	C	1.032446	0.149732	0.000049
C74	C	1.282446	0.399732	0.250049
C75	C	1.532446	0.649732	0.500049
C76	C	1.782446	0.899732	0.750049
C77	C	1.070463	0.230789	0.088137
C78	C	1.320463	0.480789	0.338137
C79	C	1.570463	0.730789	0.588137
C80	C	1.820463	0.980789	0.838137
C81	C	1.081183	0.244087	-0.087988
C82	C	1.331183	0.494087	0.162012
C83	C	1.581183	0.744087	0.412012
C84	C	1.831183	0.994087	0.662012
C85	C	1.162317	0.151458	0.088216
C86	C	1.412317	0.401458	0.338216
C87	C	1.662317	0.651458	0.588216
C88	C	1.912317	0.901458	0.838216
C89	C	1.173029	0.164754	-0.087988
C90	C	1.423029	0.414754	0.162012
C91	C	1.673029	0.664754	0.412012
C92	C	1.923029	0.914754	0.662012
C93	C	1.211112	0.245775	0.000121
C94	C	1.461112	0.495775	0.250121
C95	C	1.711112	0.745775	0.500121
C96	C	1.961112	0.995775	0.750121
C97	C	1.295168	-0.312646	0.000030
C98	C	1.545168	-0.062646	0.250030
C99	C	1.795168	0.187354	0.500030
C100	C	2.045168	0.437354	0.750030
C101	C	1.400494	-0.327149	0.000027
C102	C	1.650494	-0.077149	0.250027
C103	C	1.900494	0.172851	0.500027
C104	C	2.150494	0.422851	0.750027
N105	N	1.106361	-0.321461	0.254246
N106	N	1.356361	-0.071461	0.504246
N107	N	1.606361	0.178539	0.754246
N108	N	1.856361	0.428539	1.004246
C109	C	1.116464	0.465186	0.000017
C110	C	1.366464	0.715186	0.250017
C111	C	1.616464	0.965186	0.500017
C112	C	1.866464	1.215186	0.750017
C113	C	1.119264	0.323263	0.000057
C114	C	1.369264	0.573263	0.250057
C115	C	1.619264	0.823263	0.500057
C116	C	1.869264	1.073263	0.750057
N117	N	1.137240	-0.282982	-0.254198
N118	N	1.387240	-0.032982	-0.004198
N119	N	1.637240	0.217018	0.245802
N120	N	1.887240	0.467018	0.495802
C121	C	1.093094	-0.338011	0.473359
C122	C	1.343094	-0.088011	0.723359
C123	C	1.593094	0.161989	0.973359
C124	C	1.843094	0.411989	1.223359
C125	C	1.150505	-0.266436	0.526697
C126	C	1.400505	-0.016436	0.776697
C127	C	1.650505	0.233564	1.026697
C128	C	1.900505	0.483564	1.276697
C129	C	1.143122	-0.275645	0.648618
C130	C	1.393122	-0.025645	0.898618
C131	C	1.643122	0.224355	1.148618
C132	C	1.893122	0.474355	1.398618
C133	C	1.100475	-0.328804	0.351426
C134	C	1.350475	-0.078804	0.601426
C135	C	1.600475	0.171196	0.851426
C136	C	1.850475	0.421196	1.101426
H137	H	0.618406	-0.151687	-0.000040
H138	H	0.868406	0.098313	0.249960
H139	H	1.118406	0.348313	0.499960
H140	H	1.368406	0.598313	0.749960
H141	H	0.625197	-0.452757	0.000001
H142	H	0.875197	-0.202757	0.250001
H143	H	1.125197	0.047243	0.500001
H144	H	1.375197	0.297243	0.750001
H145	H	0.956952	0.107734	0.000131
H146	H	1.206952	0.357734	0.250131
H147	H	1.456952	0.607734	0.500131
H148	H	1.706952	0.857734	0.750131
H149	H	1.046844	0.284628	-0.162458
H150	H	1.296844	0.534628	0.087542
H151	H	1.546844	0.784628	0.337542
H152	H	1.796844	1.034628	0.587542
H153	H	1.038403	-0.406199	0.519256
H154	H	1.288403	-0.156199	0.769256
H155	H	1.538403	0.093801	1.019256
H156	H	1.788403	0.343801	1.269256
H157	H	1.286665	0.287529	0.000176
H158	H	1.536665	0.537529	0.250176
H159	H	1.786665	0.787529	0.500176
H160	H	2.036665	1.037529	0.750176
C161	C	1.011865	0.270404	0.188733
C162	C	1.261865	0.520404	0.438733
C163	C	1.511865	0.770404	0.688733
C164	C	1.761865	1.020404	0.938733
N165	N	0.967723	0.300240	0.264497
N166	N	1.217723	0.550240	0.514497
N167	N	1.467723	0.800240	0.764497
N168	N	1.717723	1.050240	1.014497
H169	H	1.196607	0.111047	0.162762
H170	H	1.446607	0.361047	0.412762
H171	H	1.696607	0.611047	0.662762
H172	H	1.946607	0.861047	0.912762
C173	C	1.231582	0.125100	-0.188593
C174	C	1.481582	0.375100	0.061407
C175	C	1.731582	0.625100	0.311407
C176	C	1.981582	0.875100	0.561407
N177	N	1.275678	0.095231	-0.264378
N178	N	1.525678	0.345231	-0.014378
N179	N	1.775678	0.595231	0.235622
N180	N	2.025678	0.845231	0.485622
H181	H	1.205200	-0.198245	0.480794
H182	H	1.455200	0.051755	0.730794
H183	H	1.705200	0.301755	0.980794
H184	H	1.955200	0.551755	1.230794
