data_functionalizedCrystal
_audit_creation_method	'MofGen! by Chris Wilmer'
_symmetry_space_group_name_H-M	'P1'
_symmetry_Int_Tables_number	1
_symmetry_cell_setting	triclinic
loop_
_symmetry_equiv_pos_as_xyz
  x,y,z
_cell_length_a	18.215407
_cell_length_b	19.121063
_cell_length_c	18.215399
_cell_angle_alpha	87.592693
_cell_angle_beta	90.016824
_cell_angle_gamma	92.469446
loop_
_atom_site_label
_atom_site_type_symbol
_atom_site_fract_x
_atom_site_fract_y
_atom_site_fract_z
Zn1	Zn	1.112538	-0.279596	0.428595
Zn2	Zn	1.612538	0.220404	0.928595
Zn3	Zn	1.107196	-0.397056	0.310772
Zn4	Zn	1.607196	0.102944	0.810772
Zn5	Zn	0.989475	-0.279624	0.305544
Zn6	Zn	1.489475	0.220376	0.805544
Zn7	Zn	0.984181	-0.397012	0.433795
Zn8	Zn	1.484181	0.102988	0.933795
O9	O	1.048347	-0.338322	0.369676
O10	O	1.548347	0.161678	0.869676
O11	O	1.214813	-0.295184	0.412978
O12	O	1.714813	0.204816	0.912978
O13	O	1.091560	-0.381508	0.207095
O14	O	1.591560	0.118492	0.707095
O15	O	1.010251	-0.181336	0.317503
O16	O	1.510251	0.318664	0.817503
O17	O	1.210888	-0.381481	0.326413
O18	O	1.710888	0.118519	0.826413
O19	O	1.100664	-0.181315	0.407908
O20	O	1.600664	0.318685	0.907908
O21	O	1.005071	-0.295231	0.203254
O22	O	1.505071	0.204769	0.703254
O23	O	0.885789	-0.295189	0.322545
O24	O	1.385789	0.204811	0.822545
O25	O	1.001228	-0.381406	0.536088
O26	O	1.501228	0.118594	1.036088
O27	O	0.881900	-0.381433	0.416770
O28	O	1.381900	0.118567	0.916770
O29	O	1.095531	-0.295141	0.532268
O30	O	1.595531	0.204859	1.032268
O31	O	1.086427	-0.495334	0.331455
O32	O	1.586427	0.004666	0.831455
O33	O	0.996048	-0.495302	0.421839
O34	O	1.496048	0.004698	0.921839
C35	C	0.857142	-0.338310	0.369655
C36	C	1.357142	0.161690	0.869655
C37	C	0.775342	-0.338321	0.369664
C38	C	1.275342	0.161679	0.869664
C39	C	0.585139	-0.383299	0.418671
C40	C	1.085139	0.116701	0.918671
C41	C	0.508280	-0.383302	0.418680
C42	C	1.008280	0.116698	0.918680
C43	C	0.512307	-0.293357	0.320698
C44	C	1.012307	0.206643	0.820698
C45	C	0.589165	-0.293351	0.320693
C46	C	1.089165	0.206649	0.820693
C47	C	0.625579	-0.338327	0.369679
C48	C	1.125579	0.161673	0.869679
C49	C	0.471862	-0.338334	0.369693
C50	C	0.971862	0.161666	0.869693
C51	C	0.388528	-0.338336	0.369703
C52	C	0.888528	0.161664	0.869703
C53	C	0.708918	-0.338324	0.369670
C54	C	1.208918	0.161676	0.869670
C55	C	1.040103	-0.520802	0.377794
C56	C	1.540103	-0.020802	0.877794
C57	C	1.036644	-0.598868	0.381292
C58	C	1.536644	-0.098868	0.881292
C59	C	1.082110	-0.635537	0.335916
C60	C	1.582110	-0.135537	0.835916
C61	C	1.078861	-0.708888	0.339209
C62	C	1.578861	-0.208888	0.839209
C63	C	1.030141	-0.745569	0.387876
C64	C	1.530141	-0.245569	0.887876
C65	C	0.984673	-0.708895	0.433257
C66	C	1.484673	-0.208895	0.933257
C67	C	0.987926	-0.635545	0.429967
C68	C	1.487926	-0.135545	0.929967
C69	C	1.017965	-0.967039	0.400167
C70	C	1.517965	-0.467039	0.900167
C71	C	1.014713	-1.040394	0.403453
C72	C	1.514713	-0.540394	0.903453
C73	C	1.108902	-1.040382	0.309405
C74	C	1.608902	-0.540382	0.809405
C75	C	1.112149	-0.967031	0.306116
C76	C	1.612149	-0.467031	0.806116
C77	C	1.066683	-0.930363	0.351500
C78	C	1.566683	-0.430363	0.851500
C79	C	1.026817	-0.820546	0.391242
C80	C	1.526817	-0.320546	0.891242
C81	C	1.070012	-0.855387	0.348137
C82	C	1.570012	-0.355387	0.848137
C83	C	1.240300	-0.338334	0.369698
C84	C	1.740300	0.161666	0.869698
C85	C	1.322098	-0.338340	0.369708
C86	C	1.822098	0.161660	0.869708
C87	C	1.048385	-0.338266	0.561627
C88	C	1.548385	0.161734	1.061627
C89	C	1.048401	-0.338242	0.643425
C90	C	1.548401	0.161758	1.143425
C91	C	1.056644	-0.155129	0.361543
C92	C	1.556644	0.344871	0.861543
C93	C	1.060179	-0.077063	0.358077
C94	C	1.560179	0.422937	0.858077
C95	C	1.048355	-0.338327	0.178470
C96	C	1.548355	0.161673	0.678470
C97	C	1.048491	-0.338153	0.096664
C98	C	1.548491	0.161847	0.596664
C99	C	1.003407	-0.293287	0.829618
C100	C	1.503407	0.206713	1.329618
C101	C	1.003420	-0.293273	0.906476
C102	C	1.503420	0.206727	1.406476
C103	C	1.093486	-0.383112	0.910465
C104	C	1.593486	0.116888	1.410465
C105	C	1.093468	-0.383130	0.833609
C106	C	1.593468	0.116870	1.333609
C107	C	1.048430	-0.338213	0.793187
C108	C	1.548430	0.161787	1.293187
C109	C	1.048461	-0.338182	0.946902
C110	C	1.548461	0.161818	1.446902
C111	C	1.048476	-0.338167	1.030235
C112	C	1.548476	0.161833	1.530235
C113	C	1.048414	-0.338229	0.709849
C114	C	1.548414	0.161771	1.209849
H115	H	1.121780	-0.605676	0.296283
H116	H	1.621780	-0.105676	0.796283
H117	H	0.966734	-0.256713	0.796709
H118	H	1.466734	0.243287	1.296709
Br119	Br	0.453401	-0.444335	0.485176
Br120	Br	0.953401	0.055665	0.985176
H121	H	0.482649	-0.256740	0.280815
H122	H	0.982649	0.243260	0.780815
H123	H	0.622092	-0.256725	0.280798
H124	H	1.122092	0.243275	0.780798
H125	H	0.614785	-0.419920	0.458559
H126	H	1.114785	0.080080	0.958559
Br127	Br	1.140573	-0.758651	0.277629
Br128	Br	1.640573	-0.258651	0.777629
H129	H	1.151820	-0.937167	0.266488
H130	H	1.651820	-0.437167	0.766488
Br131	Br	1.170606	-1.090149	0.247820
Br132	Br	1.670606	-0.590149	0.747820
Br133	Br	0.948576	-1.090175	0.469492
Br134	Br	1.448576	-0.590175	0.969492
Br135	Br	0.956261	-0.917284	0.461760
Br136	Br	1.456261	-0.417284	0.961760
H137	H	0.966758	-0.256690	0.936135
H138	H	1.466758	0.243310	1.436135
Br139	Br	1.154607	-0.444067	0.965327
Br140	Br	1.654607	0.055933	1.465327
Br141	Br	0.926224	-0.585779	0.491556
Br142	Br	1.426224	-0.085779	0.991556
Br143	Br	1.154570	-0.444110	0.784161
Br144	Br	1.654570	0.055890	1.284161
H145	H	1.109682	-0.825520	0.308515
H146	H	1.609682	-0.325520	0.808515
Br147	Br	0.918558	-0.758675	0.499312
Br148	Br	1.418558	-0.258675	0.999312
H149	H	0.987147	-0.850419	0.430866
H150	H	1.487147	-0.350419	0.930866
