data_functionalizedCrystal
_audit_creation_method	'MofGen! by Chris Wilmer'
_symmetry_space_group_name_H-M	'P1'
_symmetry_Int_Tables_number	1
_symmetry_cell_setting	triclinic
loop_
_symmetry_equiv_pos_as_xyz
  x,y,z
_cell_length_a	10.654554
_cell_length_b	15.995292
_cell_length_c	9.130313
_cell_angle_alpha	89.998056
_cell_angle_beta	90.000385
_cell_angle_gamma	83.977680
loop_
_atom_site_label
_atom_site_type_symbol
_atom_site_fract_x
_atom_site_fract_y
_atom_site_fract_z
O1	O	1.666257	0.117620	0.121793
O2	O	1.300630	0.128820	0.121794
O3	O	1.493476	0.001387	0.121796
O4	O	1.473411	0.245053	0.121791
O5	O	1.493474	0.001391	-0.121803
O6	O	1.300627	0.128824	-0.121805
O7	O	1.666255	0.117623	-0.121806
Cu8	Cu	1.483441	0.123224	-0.144048
Cu9	Cu	1.483444	0.123220	0.144036
O10	O	1.473409	0.245056	-0.121808
C11	C	1.253842	0.127999	-0.000005
C12	C	1.114432	0.125536	-0.000005
C13	C	0.902951	0.198255	-0.000003
C14	C	1.033941	0.200570	-0.000003
C15	C	1.063926	0.048182	0.000008
C16	C	0.932938	0.045868	0.000018
C17	C	0.885640	0.286235	-0.000015
C18	C	1.016630	0.288550	-0.000015
C19	C	1.492659	-0.029811	-0.000000
C20	C	1.490210	-0.122778	0.000011
C21	C	1.481209	-0.460569	-0.000002
C22	C	1.620401	-0.436447	-0.000547
C23	C	1.623046	-0.339756	0.000007
C24	C	1.485676	-0.292987	0.000003
C25	C	1.416088	-0.322495	0.139106
C26	C	1.414412	-0.419295	0.139217
C27	C	1.411567	-0.419165	-0.137800
C28	C	1.416725	-0.322643	-0.139634
C29	C	1.488192	-0.198277	0.000012
C30	C	1.478688	-0.555280	-0.000001
C31	C	1.713043	0.118444	-0.000003
C32	C	1.852453	0.120907	0.000006
C33	C	1.474226	0.276255	-0.000009
C34	C	1.476675	0.369222	-0.000010
N35	N	1.483448	0.123226	-0.346671
C36	C	1.568862	0.066818	-0.423322
C37	C	1.568859	0.066808	-0.576658
C38	C	1.398023	0.179621	-0.576680
C39	C	1.398022	0.179627	-0.423345
C40	C	1.667497	0.001689	-0.423311
C41	C	1.667493	0.001679	-0.576648
N42	N	1.483447	0.123211	0.346659
H43	H	0.843452	0.319388	0.101926
N44	N	1.063344	0.325678	0.139288
H45	H	1.157982	0.326024	0.134198
H46	H	1.040879	0.290711	0.225656
H47	H	1.315001	-0.291216	0.144275
N48	N	0.878465	-0.037554	0.000043
H49	H	0.907822	-0.070457	0.090349
H50	H	0.907824	-0.070399	-0.090315
N51	N	1.305899	0.240455	-0.659384
H52	H	1.251789	0.276191	-0.587555
H53	H	1.250399	0.208047	-0.722993
N54	N	1.054925	0.334124	-0.135047
H55	H	0.977535	0.352787	-0.195311
H56	H	1.115311	0.295146	-0.195187
H57	H	1.758407	0.022083	-0.375753
N58	N	1.695636	-0.314961	0.132348
H59	H	1.638925	-0.275404	0.195727
H60	H	1.770579	-0.286033	0.099342
H61	H	1.455400	-0.446997	-0.243240
N62	N	1.640239	-0.083558	-0.368165
H63	H	1.554915	-0.096316	-0.404996
H64	H	1.640303	-0.083529	-0.257549
H65	H	1.129473	-0.012912	0.000021
N66	N	1.628195	-0.078888	-0.639646
H67	H	1.609205	-0.117808	-0.557306
H68	H	1.698845	-0.106907	-0.701921
N69	N	0.824696	0.321443	-0.139334
H70	H	0.842050	0.381940	-0.151334
H71	H	0.730597	0.318399	-0.134159
H72	H	1.763813	0.016026	-0.618265
N73	N	1.695200	-0.314122	-0.132092
H74	H	1.725575	-0.365676	-0.191206
H75	H	1.770083	-0.285227	-0.098786
H76	H	1.674051	-0.464131	-0.100303
N77	N	1.691088	-0.474474	0.130840
H78	H	1.633339	-0.507257	0.190714
H79	H	1.721053	-0.428198	0.192855
N80	N	1.478269	-0.454457	0.276939
H81	H	1.507239	-0.407054	0.337005
H82	H	1.553514	-0.495255	0.249842
N83	N	1.279236	-0.439365	0.147596
H84	H	1.221000	-0.385349	0.151207
H85	H	1.267347	-0.473406	0.238776
N86	N	1.480093	-0.295567	0.276245
H87	H	1.477855	-0.232291	0.277835
H88	H	1.570655	-0.321576	0.277541
H89	H	1.467396	-0.303781	-0.242540
N90	N	1.283890	-0.279774	-0.150747
H91	H	1.266447	-0.240345	-0.065041
H92	H	1.222103	-0.323530	-0.149546
N93	N	1.275853	-0.438481	-0.139057
H94	H	1.259506	-0.473874	-0.050849
H95	H	1.259101	-0.470249	-0.231403
N96	N	1.305875	0.240451	-0.340668
H97	H	1.251761	0.276177	-0.412512
H98	H	1.353916	0.277777	-0.277047
