data_functionalizedCrystal
_audit_creation_method	'MofGen! by Chris Wilmer'
_symmetry_space_group_name_H-M	'P1'
_symmetry_Int_Tables_number	1
_symmetry_cell_setting	triclinic
loop_
_symmetry_equiv_pos_as_xyz
  x,y,z
_cell_length_a	19.188905
_cell_length_b	19.188930
_cell_length_c	18.266242
_cell_angle_alpha	89.988525
_cell_angle_beta	89.983837
_cell_angle_gamma	83.139668
loop_
_atom_site_label
_atom_site_type_symbol
_atom_site_fract_x
_atom_site_fract_y
_atom_site_fract_z
O1	O	0.926160	0.087085	-0.061010
O2	O	1.259494	0.420419	0.272324
O3	O	1.592827	0.753752	0.605657
O4	O	0.722847	0.098838	-0.060986
O5	O	1.056180	0.432171	0.272348
O6	O	1.389513	0.765505	0.605681
O7	O	0.830371	-0.008694	-0.060984
O8	O	1.163704	0.324639	0.272349
O9	O	1.497037	0.657972	0.605682
O10	O	0.818636	0.194618	-0.061011
O11	O	1.151970	0.527951	0.272322
O12	O	1.485303	0.861285	0.605655
O13	O	0.830353	-0.008700	0.060778
O14	O	1.163686	0.324633	0.394111
O15	O	1.497019	0.657967	0.727444
O16	O	0.722828	0.098833	0.060776
O17	O	1.056162	0.432166	0.394109
O18	O	1.389495	0.765499	0.727443
O19	O	0.926142	0.087080	0.060752
O20	O	1.259476	0.420413	0.394086
O21	O	1.592809	0.753747	0.727419
Zn22	Zn	0.824482	0.092955	0.080097
Zn23	Zn	1.157816	0.426289	0.413430
Zn24	Zn	1.491149	0.759622	0.746763
Zn25	Zn	0.824506	0.092963	-0.080330
Zn26	Zn	1.157840	0.426296	0.253003
Zn27	Zn	1.491173	0.759629	0.586337
O28	O	0.818618	0.194612	0.060751
O29	O	1.151952	0.527946	0.394084
O30	O	1.485285	0.861279	0.727417
C31	C	0.696826	0.098458	-0.000102
C32	C	1.030160	0.431791	0.333232
C33	C	1.363493	0.765124	0.666565
C34	C	0.619321	0.097324	-0.000092
C35	C	0.952654	0.430657	0.333242
C36	C	1.285987	0.763991	0.666575
C37	C	0.582939	0.096782	-0.066466
C38	C	0.916272	0.430116	0.266867
C39	C	1.249606	0.763449	0.600201
C40	C	0.510115	0.095709	-0.066475
C41	C	0.843449	0.429043	0.266858
C42	C	1.176782	0.762376	0.600192
C43	C	0.473678	0.095164	-0.000106
C44	C	0.807012	0.428497	0.333227
C45	C	1.140345	0.761830	0.666561
C46	C	0.510068	0.095709	0.066277
C47	C	0.843402	0.429043	0.399610
C48	C	1.176735	0.762376	0.732944
C49	C	0.582890	0.096789	0.066284
C50	C	0.916223	0.430123	0.399618
C51	C	1.249556	0.763456	0.732951
N52	N	0.364651	0.053733	0.049292
N53	N	0.697984	0.387066	0.382625
N54	N	1.031317	0.720400	0.715958
N55	N	0.295474	0.052705	0.049280
N56	N	0.628807	0.386039	0.382614
N57	N	0.962140	0.719372	0.715947
C58	C	0.254272	0.091911	-0.000123
C59	C	0.587605	0.425245	0.333210
C60	C	0.920938	0.758578	0.666543
N61	N	0.284861	0.132174	-0.049526
N62	N	0.618194	0.465508	0.283807
N63	N	0.951528	0.798841	0.617140
N64	N	0.354045	0.133199	-0.049517
N65	N	0.687378	0.466532	0.283816
N66	N	1.020711	0.799866	0.617149
C67	C	0.394716	0.093993	-0.000106
C68	C	0.728049	0.427326	0.333227
C69	C	1.061382	0.760660	0.666560
C70	C	0.138926	0.090207	-0.066512
C71	C	0.472259	0.423540	0.266822
C72	C	0.805593	0.756874	0.600155
C73	C	0.066100	0.089138	-0.066518
C74	C	0.399434	0.422472	0.266815
C75	C	0.732767	0.755805	0.600149
C76	C	0.066056	0.089132	0.066236
C77	C	0.399389	0.422465	0.399569
C78	C	0.732722	0.755798	0.732903
C79	C	0.138879	0.090207	0.066240
C80	C	0.472212	0.423541	0.399574
C81	C	0.805546	0.756874	0.732907
C82	C	0.175310	0.090742	-0.000136
C83	C	0.508643	0.424075	0.333198
C84	C	0.841977	0.757408	0.666531
C85	C	0.829982	-0.034708	-0.000101
C86	C	1.163315	0.298625	0.333232
C87	C	1.496648	0.631959	0.666566
C88	C	0.828841	-0.112213	-0.000095
C89	C	1.162174	0.221121	0.333239
C90	C	1.495508	0.554454	0.666572
C91	C	0.891933	-0.157142	-0.000099
C92	C	1.225266	0.176191	0.333235
C93	C	1.558599	0.509525	0.666568
C94	C	0.890861	-0.229966	-0.000110
C95	C	1.224194	0.103367	0.333223
C96	C	1.557528	0.436701	0.666557
C97	C	0.826694	-0.257857	-0.000103
C98	C	1.160027	0.075477	0.333230
C99	C	1.493361	0.408810	0.666564
C100	C	0.763594	-0.212917	-0.000103
C101	C	1.096927	0.120416	0.333230
C102	C	1.430261	0.453749	0.666563
C103	C	0.764668	-0.140095	-0.000099
C104	C	1.098001	0.193238	0.333234
C105	C	1.431334	0.526572	0.666568
N106	N	0.777640	-0.365859	0.041341
N107	N	1.110973	-0.032526	0.374674
N108	N	1.444307	0.300808	0.708007
N109	N	0.776624	-0.435038	0.041338
N110	N	1.109958	-0.101704	0.374671
N111	N	1.443291	0.231629	0.708005
C112	C	0.823456	-0.477265	-0.000118
C113	C	1.156789	-0.143932	0.333216
C114	C	1.490122	0.189402	0.666549
N115	N	0.871352	-0.447702	-0.041561
N116	N	1.204685	-0.114369	0.291772
N117	N	1.538018	0.218965	0.625105
N118	N	0.872369	-0.378517	-0.041556
N119	N	1.205703	-0.045184	0.291778
N120	N	1.539036	0.288149	0.625111
C121	C	0.825523	-0.336819	-0.000108
C122	C	1.158856	-0.003486	0.333225
C123	C	1.492190	0.329848	0.666558
C124	C	0.885390	-0.601159	-0.000135
C125	C	1.218723	-0.267826	0.333198
C126	C	1.552056	0.065508	0.666532
C127	C	0.884315	-0.673984	-0.000151
C128	C	1.217649	-0.340650	0.333182
C129	C	1.550982	-0.007317	0.666515
C130	C	0.757047	-0.656933	-0.000137
C131	C	1.090380	-0.323600	0.333196
C132	C	1.423714	0.009733	0.666530
C133	C	0.758123	-0.584110	-0.000128
C134	C	1.091456	-0.250777	0.333205
C135	C	1.424790	0.082556	0.666538
C136	C	0.822296	-0.556228	-0.000124
C137	C	1.155630	-0.222894	0.333210
C138	C	1.488963	0.110439	0.666543
C139	C	0.952163	0.087460	-0.000134
C140	C	1.285496	0.420794	0.333200
C141	C	1.618829	0.754127	0.666533
C142	C	1.029668	0.088594	-0.000148
C143	C	1.363001	0.421927	0.333185
C144	C	1.696335	0.755261	0.666518
C145	C	0.819007	0.220626	-0.000134
C146	C	1.152341	0.553959	0.333199
C147	C	1.485674	0.887293	0.666532
C148	C	0.820148	0.298131	-0.000145
C149	C	1.153481	0.631464	0.333188
C150	C	1.486815	0.964797	0.666521
N151	N	0.824471	0.092950	0.189583
N152	N	1.157805	0.426283	0.522917
N153	N	1.491138	0.759617	0.856250
N154	N	0.824523	0.092962	-0.189817
N155	N	1.157857	0.426296	0.143516
N156	N	1.491190	0.759629	0.476850
C157	C	0.872098	0.045358	0.227893
C158	C	1.205432	0.378691	0.561226
C159	C	1.538765	0.712025	0.894560
C160	C	0.872103	0.045355	0.304538
C161	C	1.205436	0.378688	0.637871
C162	C	1.538770	0.712021	0.971205
C163	C	0.824487	0.092956	0.342870
C164	C	1.157820	0.426289	0.676204
C165	C	1.491153	0.759622	1.009537
C166	C	0.776851	0.140551	0.304552
C167	C	1.110184	0.473885	0.637885
C168	C	1.443517	0.807218	0.971218
C169	C	0.776843	0.140549	0.227908
C170	C	1.110176	0.473882	0.561241
C171	C	1.443510	0.807215	0.894575
N172	N	0.815411	0.154764	0.463195
N173	N	1.148744	0.488097	0.796528
N174	N	1.482078	0.821431	1.129862
N175	N	0.815423	0.154764	0.536003
N176	N	1.148756	0.488098	0.869337
N177	N	1.482089	0.821431	1.202670
C178	C	0.824506	0.092966	0.573793
C179	C	1.157840	0.426299	0.907126
C180	C	1.491173	0.759632	1.240459
N181	N	0.833592	0.031165	0.536024
N182	N	1.166925	0.364498	0.869357
N183	N	1.500258	0.697831	1.202690
N184	N	0.833584	0.031165	0.463209
N185	N	1.166917	0.364498	0.796542
N186	N	1.500250	0.697831	1.129876
C187	C	0.824490	0.092963	0.425977
C188	C	1.157823	0.426297	0.759311
C189	C	1.491156	0.759630	1.092644
C190	C	0.872141	0.045366	0.695210
C191	C	1.205474	0.378699	1.028543
C192	C	1.538808	0.712033	1.361876
C193	C	0.872141	0.045362	0.771856
C194	C	1.205474	0.378695	1.105189
C195	C	1.538807	0.712029	1.438523
C196	C	0.776892	0.140565	0.771868
C197	C	1.110225	0.473898	1.105201
C198	C	1.443558	0.807231	1.438535
C199	C	0.776889	0.140563	0.695223
C200	C	1.110222	0.473896	1.028556
C201	C	1.443555	0.807229	1.361890
C202	C	0.824517	0.092964	0.656898
C203	C	1.157850	0.426298	0.990232
C204	C	1.491184	0.759631	1.323565
H205	H	0.036389	0.088692	0.120275
H206	H	0.369722	0.422025	0.453609
H207	H	0.703055	0.755358	0.786942
Cl208	Cl	0.678803	-0.527624	-0.000120
Cl209	Cl	1.012136	-0.194291	0.333213
Cl210	Cl	1.345470	0.139042	0.666547
Cl211	Cl	0.464368	0.095028	-0.149924
Cl212	Cl	0.797702	0.428361	0.183410
Cl213	Cl	1.131035	0.761694	0.516743
Cl214	Cl	0.932012	-0.014475	0.647029
Cl215	Cl	1.265346	0.318858	0.980362
Cl216	Cl	1.598679	0.652191	1.313696
Cl217	Cl	0.716965	0.200384	0.179744
Cl218	Cl	1.050298	0.533718	0.513078
Cl219	Cl	1.383631	0.867051	0.846411
Cl220	Cl	0.966063	-0.566103	-0.000125
Cl221	Cl	1.299396	-0.232770	0.333208
Cl222	Cl	1.632730	0.100564	0.666541
H223	H	0.704801	-0.679641	-0.000135
H224	H	1.038134	-0.346308	0.333198
H225	H	1.371468	-0.012975	0.666532
H226	H	0.910922	0.006603	0.803048
H227	H	1.244256	0.339936	1.136381
H228	H	1.577589	0.673270	1.469715
H229	H	0.711349	-0.235631	-0.000099
H230	H	1.044682	0.097703	0.333234
H231	H	1.378016	0.431036	0.666567
H232	H	0.935694	-0.710565	-0.000158
H233	H	1.269028	-0.377232	0.333175
H234	H	1.602361	-0.043899	0.666508
Cl235	Cl	0.628629	0.097470	0.149733
Cl236	Cl	0.961963	0.430803	0.483067
Cl237	Cl	1.295296	0.764136	0.816400
Cl238	Cl	0.931969	-0.014482	0.179714
Cl239	Cl	1.265302	0.318851	0.513047
Cl240	Cl	1.598636	0.652184	0.846381
H241	H	0.036479	0.088702	-0.120570
H242	H	0.369812	0.422035	0.212763
H243	H	0.703145	0.755368	0.546097
H244	H	0.168502	0.090644	0.120290
H245	H	0.501835	0.423977	0.453623
H246	H	0.835169	0.757310	0.786956
Cl247	Cl	0.717026	0.200401	0.820052
Cl248	Cl	1.050360	0.533734	1.153385
Cl249	Cl	1.383693	0.867067	1.486718
Cl250	Cl	0.464262	0.095028	0.149713
Cl251	Cl	0.797596	0.428362	0.483046
Cl252	Cl	1.130929	0.761695	0.816379
Cl253	Cl	0.685346	-0.083609	-0.000094
Cl254	Cl	1.018679	0.249724	0.333240
Cl255	Cl	1.352012	0.583058	0.666573
H256	H	0.910888	0.006598	0.335735
H257	H	1.244221	0.339931	0.669069
H258	H	1.577555	0.673265	1.002402
H259	H	0.738080	0.179308	0.335766
H260	H	1.071413	0.512641	0.669099
H261	H	1.404746	0.845974	1.002432
Cl262	Cl	0.717015	0.200399	0.647058
Cl263	Cl	1.050349	0.533733	0.980391
Cl264	Cl	1.383682	0.867066	1.313724
H265	H	0.612597	0.097218	-0.120515
H266	H	0.945930	0.430551	0.212819
H267	H	1.279263	0.763884	0.546152
H268	H	0.944187	-0.134445	-0.000097
H269	H	1.277521	0.198888	0.333236
H270	H	1.610854	0.532221	0.666569
Cl271	Cl	0.184727	0.090886	-0.149954
Cl272	Cl	0.518061	0.424219	0.183379
Cl273	Cl	0.851394	0.757552	0.516713
H274	H	0.942239	-0.266555	-0.000116
H275	H	1.275573	0.066779	0.333217
H276	H	1.608906	0.400112	0.666550
