data_functionalizedCrystal
_audit_creation_method	'MofGen! by Chris Wilmer'
_symmetry_space_group_name_H-M	'P1'
_symmetry_Int_Tables_number	1
_symmetry_cell_setting	triclinic
loop_
_symmetry_equiv_pos_as_xyz
  x,y,z
_cell_length_a	10.489741
_cell_length_b	10.489741
_cell_length_c	8.965430
_cell_angle_alpha	90.000707
_cell_angle_beta	89.998843
_cell_angle_gamma	84.539174
loop_
_atom_site_label
_atom_site_type_symbol
_atom_site_fract_x
_atom_site_fract_y
_atom_site_fract_z
O1	O	1.694053	0.179958	-0.123946
O2	O	1.322858	0.196851	-0.123969
O3	O	1.516902	0.002807	-0.123948
O4	O	1.500009	0.374003	-0.123967
O5	O	1.516886	0.002820	0.124130
O6	O	1.322841	0.196864	0.124110
O7	O	1.694037	0.179971	0.124133
Cu8	Cu	1.508438	0.188419	0.146773
Cu9	Cu	1.508457	0.188404	-0.146609
O10	O	1.499993	0.374016	0.124112
C11	C	1.275318	0.195582	0.000067
C12	C	1.133688	0.191765	0.000059
C13	C	1.515618	-0.044718	0.000090
C14	C	1.511801	-0.186348	0.000087
C15	C	1.065548	0.068300	0.000079
C16	C	0.973430	0.126617	-0.122237
C17	C	0.973447	0.126659	0.122349
C18	C	1.043435	0.250133	-0.122358
C19	C	1.043462	0.250158	0.122338
C20	C	0.951371	0.308564	-0.000007
C21	C	1.388336	-0.254488	0.000069
C22	C	1.446652	-0.346604	0.122388
C23	C	1.446697	-0.346591	-0.122198
C24	C	1.570167	-0.276599	0.122508
C25	C	1.570195	-0.276576	-0.122189
C26	C	1.628600	-0.368665	0.000161
C27	C	1.741577	0.181241	0.000093
C28	C	1.883206	0.185058	0.000092
C29	C	1.501277	0.421541	0.000070
C30	C	1.505094	0.563170	0.000063
N31	N	1.508433	0.188429	0.353122
N32	N	1.508471	0.188384	-0.352958
C33	C	1.418666	0.278138	0.450418
C34	C	1.534163	0.303949	0.549838
C35	C	1.392986	0.162629	0.549830
C36	C	1.623988	0.214298	0.450352
C37	C	1.482735	0.072927	0.450336
C38	C	1.598314	0.098690	0.549711
H39	H	0.942422	0.074371	-0.225643
O40	O	1.749797	-0.427661	-0.000049
C41	C	1.768580	-0.503932	-0.129119
H42	H	1.697675	-0.466581	-0.218927
H43	H	1.870479	-0.499625	-0.171718
H44	H	1.752777	-0.607261	-0.101084
H45	H	1.115238	-0.033196	-0.000069
O46	O	1.384554	-0.383517	-0.245726
C47	C	1.448578	-0.346080	-0.374481
H48	H	1.552513	-0.333545	-0.345756
H49	H	1.445388	-0.422833	-0.464072
H50	H	1.399605	-0.251595	-0.417729
O51	O	1.384451	-0.383470	0.245903
C52	C	1.448510	-0.346116	0.374669
H53	H	1.506774	-0.263042	0.346171
H54	H	1.375301	-0.314755	0.464579
H55	H	1.515252	-0.430344	0.417382
H56	H	1.286824	-0.204837	0.000185
H57	H	1.074270	0.302327	-0.225883
O58	O	1.632549	-0.239684	0.245865
C59	C	1.740220	-0.177907	0.202228
H60	H	1.725242	-0.138939	0.084186
H61	H	1.753268	-0.095545	0.282037
H62	H	1.829216	-0.249280	0.205177
H63	H	0.901947	0.410168	-0.000079
H64	H	1.074502	0.302361	0.225749
O65	O	1.328209	0.368622	0.398138
C66	C	1.328665	0.366681	0.240891
H67	H	1.371386	0.268838	0.200223
H68	H	1.226343	0.385812	0.197941
H69	H	1.388634	0.443820	0.197353
O70	O	0.936651	0.064154	0.245675
C71	C	0.995312	-0.062491	0.245186
H72	H	1.085468	-0.067785	0.173581
H73	H	1.021916	-0.092822	0.364142
H74	H	0.925991	-0.129275	0.197445
H75	H	1.622398	-0.245537	-0.225600
H76	H	1.555925	0.401606	0.593543
H77	H	1.721659	0.236216	0.406840
O78	O	1.456889	-0.043642	0.398317
C79	C	1.550437	-0.138341	0.451072
H80	H	1.596213	-0.102602	0.556545
H81	H	1.503607	-0.229465	0.477289
H82	H	1.627134	-0.159533	0.362045
H83	H	1.674327	0.022803	0.593034
O84	O	1.276391	0.136760	0.601777
C85	C	1.182035	0.231624	0.551214
H86	H	1.217672	0.278689	0.446524
H87	H	1.090447	0.185804	0.524419
H88	H	1.161686	0.307085	0.641811
