data_functionalizedCrystal
_audit_creation_method	'MofGen! by Chris Wilmer'
_symmetry_space_group_name_H-M	'P1'
_symmetry_Int_Tables_number	1
_symmetry_cell_setting	triclinic
loop_
_symmetry_equiv_pos_as_xyz
  x,y,z
_cell_length_a	16.959455
_cell_length_b	21.295411
_cell_length_c	16.959454
_cell_angle_alpha	90.013189
_cell_angle_beta	89.982978
_cell_angle_gamma	89.976585
loop_
_atom_site_label
_atom_site_type_symbol
_atom_site_fract_x
_atom_site_fract_y
_atom_site_fract_z
Zn1	Zn	1.208455	-0.355929	0.314836
Zn2	Zn	1.708455	0.144071	0.814836
Zn3	Zn	1.208356	-0.250670	0.446997
Zn4	Zn	1.708356	0.249330	0.946997
Zn5	Zn	1.076262	-0.250676	0.314830
Zn6	Zn	1.576262	0.249324	0.814830
Zn7	Zn	1.076248	-0.355904	0.446969
Zn8	Zn	1.576248	0.144096	0.946969
O9	O	1.142330	-0.303295	0.380908
O10	O	1.642330	0.196705	0.880908
O11	O	1.319052	-0.341974	0.332382
O12	O	1.819052	0.158026	0.832382
O13	O	1.190798	-0.162582	0.429474
O14	O	1.690798	0.337418	0.929474
O15	O	1.093845	-0.264651	0.204220
O16	O	1.593845	0.235349	0.704220
O17	O	1.318980	-0.264641	0.429480
O18	O	1.818980	0.235359	0.929480
O19	O	1.190966	-0.341980	0.204224
O20	O	1.690966	0.158020	0.704224
O21	O	1.093750	-0.162586	0.332371
O22	O	1.593750	0.337414	0.832371
O23	O	0.965649	-0.264627	0.332344
O24	O	1.465649	0.235373	0.832344
O25	O	1.093821	-0.443997	0.429433
O26	O	1.593821	0.056003	0.929433
O27	O	0.965639	-0.341937	0.429426
O28	O	1.465639	0.158063	0.929426
O29	O	1.190952	-0.444015	0.332355
O30	O	1.690952	0.055985	0.832355
O31	O	1.190785	-0.264616	0.557604
O32	O	1.690785	0.235384	1.057604
O33	O	1.093725	-0.341931	0.557584
O34	O	1.593725	0.158069	1.057584
C35	C	0.936964	-0.303280	0.380882
C36	C	1.436964	0.196720	0.880882
C37	C	0.849107	-0.303289	0.380890
C38	C	1.349107	0.196711	0.880890
C39	C	0.477613	-0.263123	0.330316
C40	C	0.977613	0.236877	0.830316
C41	C	0.477651	-0.343502	0.431565
C42	C	0.977651	0.156498	0.931565
C43	C	0.560197	-0.343498	0.431554
C44	C	1.060197	0.156502	0.931554
C45	C	0.601454	-0.303306	0.380924
C46	C	1.101454	0.196694	0.880924
C47	C	0.560166	-0.263117	0.330305
C48	C	1.060166	0.236883	0.830305
C49	C	0.601491	-0.383682	0.482178
C50	C	1.101491	0.116318	0.982178
C51	C	0.684042	-0.383679	0.482169
C52	C	1.184042	0.116321	0.982169
C53	C	0.725301	-0.343489	0.431534
C54	C	1.225301	0.156511	0.931534
C55	C	0.684008	-0.303299	0.380912
C56	C	1.184008	0.196701	0.880912
C57	C	0.725266	-0.263107	0.330282
C58	C	1.225266	0.236893	0.830282
C59	C	0.683974	-0.222920	0.279656
C60	C	1.183974	0.277080	0.779656
C61	C	0.601426	-0.222927	0.279670
C62	C	1.101426	0.277073	0.779670
C63	C	0.807849	-0.343482	0.431520
C64	C	1.307849	0.156518	0.931520
C65	C	0.807819	-0.263100	0.330271
C66	C	1.307819	0.236900	0.830271
C67	C	1.142396	-0.467485	0.380891
C68	C	1.642396	0.032515	0.880891
C69	C	1.142424	-0.537453	0.380884
C70	C	1.642424	-0.037453	0.880884
C71	C	1.192998	-0.570331	0.330334
C72	C	1.692998	-0.070331	0.830334
C73	C	1.192997	-0.636073	0.330299
C74	C	1.692997	-0.136073	0.830299
C75	C	1.142430	-0.668936	0.380830
C76	C	1.642430	-0.168936	0.880830
C77	C	1.091846	-0.636051	0.431384
C78	C	1.591846	-0.136051	0.931384
C79	C	1.091843	-0.570309	0.431411
C80	C	1.591843	-0.070309	0.931411
N81	N	1.136344	-0.772159	0.449976
N82	N	1.636344	-0.272159	0.949976
N83	N	1.136352	-0.834611	0.449948
N84	N	1.636352	-0.334611	0.949948
C85	C	1.142435	-0.867011	0.380750
C86	C	1.642435	-0.367011	0.880750
N87	N	1.148526	-0.834600	0.311579
N88	N	1.648526	-0.334600	0.811579
N89	N	1.148522	-0.772143	0.311608
N90	N	1.648522	-0.272143	0.811608
C91	C	1.142427	-0.740221	0.380806
C92	C	1.642427	-0.240221	0.880806
C93	C	1.193011	-0.971174	0.330158
C94	C	1.693011	-0.471174	0.830158
C95	C	1.193004	-1.036917	0.330122
C96	C	1.693004	-0.536917	0.830122
C97	C	1.091857	-1.036894	0.431214
C98	C	1.591857	-0.536894	0.931214
C99	C	1.091859	-0.971151	0.431242
C100	C	1.591859	-0.471151	0.931242
C101	C	1.142441	-0.938295	0.380715
C102	C	1.642441	-0.438295	0.880715
C103	C	1.348498	-0.303310	0.380935
C104	C	1.848498	0.196690	0.880935
C105	C	1.436355	-0.303316	0.380946
C106	C	1.936355	0.196684	0.880946
C107	C	1.142264	-0.303284	0.586274
C108	C	1.642264	0.196716	1.086274
C109	C	1.142308	-0.303301	0.674131
C110	C	1.642308	0.196699	1.174131
C111	C	1.142310	-0.139743	0.380868
C112	C	1.642310	0.360257	0.880868
C113	C	1.142436	-0.069776	0.380652
C114	C	1.642436	0.430224	0.880652
C115	C	1.142418	-0.303319	0.174740
C116	C	1.642418	0.196681	0.674740
C117	C	1.142456	-0.303330	0.086883
C118	C	1.642456	0.196670	0.586883
C119	C	1.091865	-0.343548	1.045626
C120	C	1.591865	0.156452	1.545626
C121	C	1.193016	-0.263105	1.045587
C122	C	1.693016	0.236895	1.545587
C123	C	1.192988	-0.263100	0.963041
C124	C	1.692988	0.236900	1.463041
C125	C	1.142397	-0.303318	0.921784
C126	C	1.642397	0.196682	1.421784
C127	C	1.091834	-0.343543	0.963072
C128	C	1.591834	0.156457	1.463072
C129	C	1.243545	-0.222872	0.921747
C130	C	1.743545	0.277128	1.421747
C131	C	1.243519	-0.222864	0.839196
C132	C	1.743519	0.277136	1.339196
C133	C	1.192931	-0.263086	0.797937
C134	C	1.692931	0.236914	1.297937
C135	C	1.142366	-0.303312	0.839230
C136	C	1.642366	0.196688	1.339230
C137	C	1.091775	-0.343531	0.797973
C138	C	1.591775	0.156469	1.297973
C139	C	1.041214	-0.383761	0.839265
C140	C	1.541214	0.116239	1.339265
C141	C	1.041246	-0.383765	0.921813
C142	C	1.541246	0.116235	1.421813
C143	C	1.192899	-0.263082	0.715388
C144	C	1.692899	0.236918	1.215388
C145	C	1.091745	-0.343525	0.715419
C146	C	1.591745	0.156475	1.215419
H147	H	0.841465	-0.376200	0.472742
H148	H	1.341465	0.123800	0.972742
N149	N	0.433086	-0.219774	0.275720
N150	N	0.933086	0.280226	0.775720
H151	H	0.447429	-0.174782	0.287918
H152	H	0.947429	0.325218	0.787918
H153	H	0.447490	-0.229677	0.219282
H154	H	0.947490	0.270323	0.719282
N155	N	0.852309	-0.219752	0.275651
N156	N	1.352309	0.280248	0.775651
H157	H	0.837910	-0.174759	0.287841
H158	H	1.337910	0.325241	0.787841
H159	H	0.910856	-0.225895	0.283346
H160	H	1.410856	0.274105	0.783346
H161	H	1.234187	-1.063685	0.288953
H162	H	1.734187	-0.563685	0.788953
H163	H	0.717577	-0.190192	0.238436
H164	H	1.217577	0.309808	0.738436
N165	N	1.247583	-0.219727	1.090074
N166	N	1.747583	0.280273	1.590074
H167	H	1.235330	-0.174742	1.075730
H168	H	1.735330	0.325258	1.575730
H169	H	1.239909	-0.225883	1.148621
H170	H	1.739909	0.274117	1.648621
N171	N	0.556994	-0.427024	0.536791
N172	N	1.056994	0.072976	1.036791
H173	H	0.498435	-0.420931	0.529113
H174	H	0.998435	0.079069	1.029113
H175	H	0.571453	-0.471998	0.524576
H176	H	1.071453	0.028002	1.024576
N177	N	1.037332	-0.386933	1.090161
N178	N	1.537332	0.113067	1.590161
H179	H	0.980857	-0.377113	1.075837
H180	H	1.480857	0.122887	1.575837
H181	H	1.049641	-0.431901	1.075749
H182	H	1.549641	0.068099	1.575749
H183	H	1.284689	-0.190107	0.805581
H184	H	1.784689	0.309893	1.305581
N185	N	1.247549	-0.534893	0.275838
N186	N	1.747549	-0.034893	0.775838
H187	H	1.279588	-0.565701	0.243808
H188	H	1.779588	-0.065701	0.743808
H189	H	1.215390	-0.507605	0.239263
H190	H	1.715390	-0.007605	0.739263
N191	N	1.037320	-1.072331	0.485718
N192	N	1.537320	-0.572331	0.985718
H193	H	1.005282	-1.041524	0.517750
H194	H	1.505282	-0.541524	1.017750
H195	H	1.000754	-1.099593	0.453527
H196	H	1.500754	-0.599593	0.953527
H197	H	1.234193	-0.944421	0.289011
H198	H	1.734193	-0.444421	0.789011
N199	N	1.247420	-0.219693	0.670851
N200	N	1.747420	0.280307	1.170851
H201	H	1.279470	-0.194213	0.709514
H202	H	1.779470	0.305787	1.209514
H203	H	1.283974	-0.245339	0.636567
H204	H	1.783974	0.254661	1.136567
H205	H	1.050681	-0.944382	0.472411
H206	H	1.550681	-0.444382	0.972411
N207	N	0.433147	-0.386849	0.486166
N208	N	0.933147	0.113151	0.986166
H209	H	0.447540	-0.431842	0.473968
H210	H	0.947540	0.068158	0.973968
H211	H	0.447513	-0.376945	0.542602
H212	H	0.947513	0.123055	1.042602
N213	N	0.556892	-0.179566	0.225094
N214	N	1.056892	0.320434	0.725094
H215	H	0.498337	-0.185661	0.232796
H216	H	0.998337	0.314339	0.732796
H217	H	0.571305	-0.134598	0.237337
H218	H	1.071305	0.365402	0.737337
H219	H	0.717654	-0.416403	0.523392
H220	H	1.217654	0.083597	1.023392
H221	H	1.234179	-0.662847	0.289131
H222	H	1.734179	-0.162847	0.789131
N223	N	1.037292	-0.671491	0.485873
N224	N	1.537292	-0.171491	0.985873
H225	H	1.044966	-0.718127	0.478184
H226	H	1.544966	-0.218127	0.978184
H227	H	1.049557	-0.660011	0.542335
H228	H	1.549557	-0.160011	1.042335
N229	N	1.037181	-0.386907	0.670922
N230	N	1.537181	0.113093	1.170922
H231	H	1.005159	-0.412391	0.709608
H232	H	1.505159	0.087609	1.209608
H233	H	1.000602	-0.361254	0.636709
H234	H	1.500602	0.138746	1.136709
N235	N	0.986646	-0.427132	0.794756
N236	N	1.486646	0.072868	1.294756
H237	H	1.018738	-0.456320	0.760468
H238	H	1.518738	0.043680	1.260468
H239	H	0.954628	-0.452577	0.833482
H240	H	1.454628	0.047423	1.333482
H241	H	1.050655	-0.543541	0.472575
H242	H	1.550655	-0.043541	0.972575
N243	N	0.986713	-0.427150	0.966348
N244	N	1.486713	0.072850	1.466348
H245	H	0.994406	-0.421046	1.024902
H246	H	1.494406	0.078954	1.524902
H247	H	0.930263	-0.417308	0.951958
H248	H	1.430263	0.082692	1.451958
H249	H	1.284728	-0.190123	0.955345
H250	H	1.784728	0.309877	1.455345
