data_functionalizedCrystal
_audit_creation_method	'MofGen! by Chris Wilmer'
_symmetry_space_group_name_H-M	'P1'
_symmetry_Int_Tables_number	1
_symmetry_cell_setting	triclinic
loop_
_symmetry_equiv_pos_as_xyz
  x,y,z
_cell_length_a	16.120444
_cell_length_b	17.077404
_cell_length_c	17.077396
_cell_angle_alpha	90.017244
_cell_angle_beta	92.868541
_cell_angle_gamma	87.073184
loop_
_atom_site_label
_atom_site_type_symbol
_atom_site_fract_x
_atom_site_fract_y
_atom_site_fract_z
Zn1	Zn	-0.331897	-1.184171	-0.459677
Zn2	Zn	0.168103	-0.684171	0.040323
Zn3	Zn	-0.471323	-1.177418	-0.335062
Zn4	Zn	0.028677	-0.677418	0.164938
Zn5	Zn	-0.331928	-1.052906	-0.328426
Zn6	Zn	0.168072	-0.552906	0.171574
Zn7	Zn	-0.471272	-1.046208	-0.466284
Zn8	Zn	0.028728	-0.546208	0.033716
O9	O	-0.401605	-1.115176	-0.397362
O10	O	0.098395	-0.615176	0.102638
O11	O	-0.350400	-1.293122	-0.443159
O12	O	0.149600	-0.793122	0.056841
O13	O	-0.452867	-1.160878	-0.224337
O14	O	0.047133	-0.660878	0.275663
O15	O	-0.215258	-1.075948	-0.340295
O16	O	0.284742	-0.575948	0.159705
O17	O	-0.452836	-1.288160	-0.351605
O18	O	0.047164	-0.788160	0.148395
O19	O	-0.215235	-1.172388	-0.436724
O20	O	0.284765	-0.672388	0.063276
O21	O	-0.350454	-1.069400	-0.219461
O22	O	0.149546	-0.569400	0.280539
O23	O	-0.350404	-0.942171	-0.346701
O24	O	0.149596	-0.442171	0.153299
O25	O	-0.452749	-1.064532	-0.575252
O26	O	0.047251	-0.564532	-0.075252
O27	O	-0.452779	-0.937250	-0.447984
O28	O	0.047221	-0.437250	0.052016
O29	O	-0.350350	-1.165893	-0.570398
O30	O	0.149650	-0.665893	-0.070398
O31	O	-0.587983	-1.154383	-0.358011
O32	O	-0.087983	-0.654383	0.141989
O33	O	-0.587945	-1.057984	-0.454419
O34	O	-0.087945	-0.557984	0.045581
C35	C	-0.401590	-0.911229	-0.397340
C36	C	0.098410	-0.411229	0.102660
C37	C	-0.401603	-0.823978	-0.397350
C38	C	0.098397	-0.323978	0.102650
C39	C	-0.618214	-1.104745	-0.407669
C40	C	-0.118214	-0.604745	0.092331
C41	C	-0.710880	-1.100354	-0.412105
C42	C	-0.210880	-0.600354	0.087895
C43	C	-0.921822	-1.138144	-0.374521
C44	C	-0.421822	-0.638144	0.125479
C45	C	-0.880537	-1.092353	-0.420212
C46	C	-0.380537	-0.592353	0.079788
C47	C	-0.786131	-1.096806	-0.415700
C48	C	-0.286131	-0.596806	0.084300
C49	C	-1.016236	-1.133691	-0.379032
C50	C	-0.516236	-0.633691	0.120968
C51	C	-0.401540	-1.115218	-0.602103
C52	C	0.098460	-0.615218	-0.102103
C53	C	-0.401513	-1.115236	-0.689352
C54	C	0.098487	-0.615236	-0.189352
C55	C	-0.184150	-1.125669	-0.387032
C56	C	0.315850	-0.625669	0.112968
C57	C	-0.091484	-1.130140	-0.382630
C58	C	0.408516	-0.630140	0.117370
C59	C	-0.401621	-1.319919	-0.397385
C60	C	0.098379	-0.819919	0.102615
C61	C	-0.401627	-1.407169	-0.397395
C62	C	0.098373	-0.907169	0.102605
C63	C	-0.454991	-0.780442	-0.450011
C64	C	0.045009	-0.280442	0.049989
C65	C	-0.454992	-0.698462	-0.450024
C66	C	0.045008	-0.198462	0.049976
C67	C	-0.401611	-0.660018	-0.397371
C68	C	0.098389	-0.160018	0.102629
C69	C	-0.348218	-0.703560	-0.344707
C70	C	0.151782	-0.203560	0.155293
C71	C	-0.348212	-0.785540	-0.344698
C72	C	0.151788	-0.285540	0.155302
C73	C	-0.348234	-0.532690	-0.344726
C74	C	0.151766	-0.032690	0.155274
C75	C	-0.348240	-0.450705	-0.344733
C76	C	0.151760	0.049295	0.155267
C77	C	-0.455014	-0.445612	-0.450052
C78	C	0.044986	0.054388	0.049948
C79	C	-0.455009	-0.527591	-0.450044
C80	C	0.044991	-0.027591	0.049956
C81	C	-0.401617	-0.571127	-0.397378
C82	C	0.098383	-0.071127	0.102622
C83	C	-0.348180	-1.067619	-0.727803
C84	C	0.151820	-0.567619	-0.227803
C85	C	-0.348161	-1.067633	-0.809782
C86	C	0.151839	-0.567633	-0.309782
C87	C	-0.401471	-1.115268	-0.853310
C88	C	0.098529	-0.615268	-0.353310
C89	C	-0.454810	-1.162887	-0.814854
C90	C	0.045190	-0.662887	-0.314854
C91	C	-0.454833	-1.162869	-0.732876
C92	C	0.045167	-0.662869	-0.232876
C93	C	-0.454758	-1.162924	-0.985721
C94	C	0.045242	-0.662924	-0.485721
C95	C	-0.454735	-1.162944	-1.067705
C96	C	0.045265	-0.662944	-0.567705
C97	C	-0.348086	-1.067688	-1.062628
C98	C	0.151914	-0.567688	-0.562628
C99	C	-0.348109	-1.067669	-0.980650
C100	C	0.151891	-0.567669	-0.480650
C101	C	-0.401447	-1.115290	-0.942199
C102	C	0.098553	-0.615290	-0.442199
C103	C	-0.401609	-1.115181	-0.193415
C104	C	0.098391	-0.615181	0.306585
C105	C	-0.401402	-1.115327	-0.106155
C106	C	0.098598	-0.615327	0.393845
H107	H	-0.916093	-1.049805	-0.462718
H108	H	-0.416093	-0.549805	0.037282
H109	H	-0.304735	-1.028855	-0.841085
H110	H	0.195265	-0.528855	-0.341085
C111	C	-0.560548	-0.514327	-0.554151
C112	C	-0.060548	-0.014327	-0.054151
C113	C	-0.513686	-0.569850	-0.507920
C114	C	-0.013686	-0.069850	-0.007920
H115	H	-0.596768	-0.540418	-0.589886
H116	H	-0.096768	-0.040418	-0.089886
H117	H	-0.592396	-0.480808	-0.521422
H118	H	-0.092396	0.019192	-0.021422
H119	H	-0.524260	-0.484108	-0.582510
H120	H	-0.024260	0.015892	-0.082510
H121	H	-0.549975	-0.600065	-0.479557
H122	H	-0.049975	-0.100065	0.020443
H123	H	-0.481836	-0.603382	-0.540654
H124	H	0.018164	-0.103382	-0.040654
C125	C	-0.236058	-0.630270	-0.328634
C126	C	0.263942	-0.130270	0.171366
C127	C	-0.289545	-0.580543	-0.286833
C128	C	0.210455	-0.080543	0.213167
H129	H	-0.199827	-0.659807	-0.292890
H130	H	0.300173	-0.159807	0.207110
H131	H	-0.267846	-0.664896	-0.359983
H132	H	0.232154	-0.164896	0.140017
H133	H	-0.204217	-0.599828	-0.361369
H134	H	0.295783	-0.099828	0.138631
H135	H	-0.321390	-0.610985	-0.254102
H136	H	0.178610	-0.110985	0.245898
H137	H	-0.257753	-0.545913	-0.255470
H138	H	0.242247	-0.045913	0.244530
C139	C	-0.242691	-0.973512	-0.983861
C140	C	0.257309	-0.473512	-0.483861
C141	C	-0.289510	-1.015309	-0.932802
C142	C	0.210490	-0.515309	-0.432802
H143	H	-0.206519	-0.941183	-0.954321
H144	H	0.293481	-0.441183	-0.454321
H145	H	-0.210795	-1.009257	-1.014323
H146	H	0.289205	-0.509257	-0.514323
H147	H	-0.279011	-0.941739	-1.017559
H148	H	0.220989	-0.441739	-0.517559
H149	H	-0.253190	-1.047086	-0.899108
H150	H	0.246810	-0.547086	-0.399108
H151	H	-0.321408	-0.979559	-0.902327
H152	H	0.178592	-0.479559	-0.402327
H153	H	-0.886269	-1.180688	-0.332017
H154	H	-0.386269	-0.680688	0.167983
C155	C	-0.560523	-0.767165	-0.554121
C156	C	-0.060523	-0.267165	-0.054121
C157	C	-0.513668	-0.822695	-0.507893
C158	C	-0.013668	-0.322695	-0.007893
H159	H	-0.596743	-0.793251	-0.589860
H160	H	-0.096743	-0.293251	-0.089860
H161	H	-0.592370	-0.733647	-0.521391
H162	H	-0.092370	-0.233647	-0.021391
H163	H	-0.524230	-0.736947	-0.582475
H164	H	-0.024230	-0.236947	-0.082475
H165	H	-0.549961	-0.852910	-0.479535
H166	H	-0.049961	-0.352910	0.020465
H167	H	-0.481818	-0.856226	-0.540628
H168	H	0.018182	-0.356226	-0.040628
C169	C	-0.502427	-0.317686	-0.496845
C170	C	-0.002427	0.182314	0.003155
C171	C	-0.513699	-0.397760	-0.507949
C172	C	-0.013699	0.102240	-0.007949
H173	H	-0.538654	-0.288144	-0.532589
H174	H	-0.038654	0.211856	-0.032589
H175	H	-0.514559	-0.303647	-0.444670
H176	H	-0.014559	0.196353	0.055330
H177	H	-0.446425	-0.306961	-0.505760
H178	H	0.053575	0.193039	-0.005760
H179	H	-0.569700	-0.408485	-0.499028
H180	H	-0.069700	0.091515	0.000972
H181	H	-0.501573	-0.411804	-0.560136
H182	H	-0.001573	0.088196	-0.060136
C183	C	-0.336615	-0.962574	-0.635048
C184	C	0.163385	-0.462574	-0.135048
C185	C	-0.289580	-1.015257	-0.679958
C186	C	0.210420	-0.515257	-0.179958
H187	H	-0.300437	-0.930249	-0.605509
H188	H	0.199563	-0.430249	-0.105509
H189	H	-0.372920	-0.930805	-0.668750
H190	H	0.127080	-0.430805	-0.168750
H191	H	-0.368376	-0.990941	-0.600417
H192	H	0.131624	-0.490941	-0.100417
H193	H	-0.257824	-0.986889	-0.714593
H194	H	0.242176	-0.486889	-0.214593
H195	H	-0.253261	-1.047029	-0.646252
H196	H	0.246739	-0.547029	-0.146252
H197	H	-0.304762	-0.419407	-0.301867
H198	H	0.195238	0.080593	0.198133
C199	C	-0.560169	-1.257085	-1.064494
C200	C	-0.060169	-0.757085	-0.564494
C201	C	-0.513340	-1.215299	-1.115552
C202	C	-0.013340	-0.715299	-0.615552
H203	H	-0.596352	-1.289403	-1.094036
H204	H	-0.096352	-0.789403	-0.594036
H205	H	-0.523863	-1.288861	-1.030800
H206	H	-0.023863	-0.788861	-0.530800
H207	H	-0.592061	-1.221327	-1.034029
H208	H	-0.092061	-0.721327	-0.534029
H209	H	-0.481443	-1.251056	-1.146013
H210	H	0.018557	-0.751056	-0.646013
H211	H	-0.549650	-1.183520	-1.149261
H212	H	-0.049650	-0.683520	-0.649261
H213	H	-0.498255	-1.201650	-0.701570
H214	H	0.001745	-0.701650	-0.201570
C215	C	-0.242685	-0.782344	-0.240586
C216	C	0.257315	-0.282344	0.259414
C217	C	-0.289535	-0.833397	-0.286804
C218	C	0.210465	-0.333397	0.213196
H219	H	-0.206463	-0.811891	-0.204841
H220	H	0.293537	-0.311891	0.295159
H221	H	-0.210841	-0.751919	-0.273322
H222	H	0.289159	-0.251919	0.226678
H223	H	-0.278982	-0.748608	-0.212238
H224	H	0.221018	-0.248608	0.287762
H225	H	-0.253238	-0.867130	-0.315156
H226	H	0.246762	-0.367130	0.184844
H227	H	-0.321382	-0.863836	-0.254064
H228	H	0.178618	-0.363836	0.245936
C229	C	-0.300719	-1.025387	-1.186037
C230	C	0.199281	-0.525387	-0.686037
C231	C	-0.289473	-1.015325	-1.104890
C232	C	0.210527	-0.515325	-0.604890
H233	H	-0.264539	-0.993056	-1.212128
H234	H	0.235461	-0.493056	-0.712128
H235	H	-0.288507	-1.078711	-1.198902
H236	H	0.211493	-0.578711	-0.698902
H237	H	-0.356737	-1.011205	-1.202114
H238	H	0.143263	-0.511205	-0.702114
H239	H	-0.233456	-1.029513	-1.088812
H240	H	0.266544	-0.529513	-0.588812
H241	H	-0.301678	-0.961990	-1.092019
H242	H	0.198322	-0.461990	-0.592019
H243	H	-0.498184	-1.201709	-0.954417
H244	H	0.001816	-0.701709	-0.454417
C245	C	-0.560232	-1.257038	-0.811632
C246	C	-0.060232	-0.757038	-0.311632
C247	C	-0.513412	-1.215249	-0.862696
C248	C	-0.013412	-0.715249	-0.362696
H249	H	-0.596412	-1.289362	-0.841169
H250	H	-0.096412	-0.789362	-0.341169
H251	H	-0.523920	-1.288808	-0.777937
H252	H	-0.023920	-0.788808	-0.277937
H253	H	-0.592127	-1.221282	-0.781168
H254	H	-0.092127	-0.721282	-0.281168
H255	H	-0.481512	-1.251006	-0.893156
H256	H	0.018488	-0.751006	-0.393156
H257	H	-0.549728	-1.183477	-0.896405
H258	H	-0.049728	-0.683477	-0.396405
H259	H	-0.498466	-0.663018	-0.492906
H260	H	0.001534	-0.163018	0.007094
H261	H	-0.304750	-0.672254	-0.301839
H262	H	0.195250	-0.172254	0.198161
