data_functionalizedCrystal
_audit_creation_method	'MofGen! by Chris Wilmer'
_symmetry_space_group_name_H-M	'P1'
_symmetry_Int_Tables_number	1
_symmetry_cell_setting	triclinic
loop_
_symmetry_equiv_pos_as_xyz
  x,y,z
_cell_length_a	23.532407
_cell_length_b	23.532407
_cell_length_c	13.101039
_cell_angle_alpha	93.336507
_cell_angle_beta	86.668910
_cell_angle_gamma	82.848678
loop_
_atom_site_label
_atom_site_type_symbol
_atom_site_fract_x
_atom_site_fract_y
_atom_site_fract_z
O1	O	0.758406	0.065978	-0.085096
O2	O	0.592544	0.075980	-0.085128
O3	O	0.680476	-0.011952	-0.085092
O4	O	0.670474	0.153910	-0.085132
O5	O	0.674167	-0.005632	0.085335
O6	O	0.586235	0.082300	0.085300
O7	O	0.752097	0.072298	0.085331
Zn8	Zn	0.668164	0.078302	0.112375
Zn9	Zn	0.676477	0.069976	-0.112171
O10	O	0.664165	0.160230	0.085296
C11	C	0.568173	0.078885	0.000082
C12	C	0.504957	0.078119	0.000071
C13	C	0.105852	0.125353	0.000106
C14	C	0.046452	0.124642	0.000113
O15	O	0.009706	0.168429	0.000140
N16	N	0.023825	0.072366	0.000123
C17	C	0.060602	0.020799	0.000138
O18	O	0.035902	-0.023731	0.000149
C19	C	0.120001	0.021511	0.000139
C20	C	0.142625	0.073790	0.000118
C21	C	0.128476	0.177628	0.000086
C22	C	0.187873	0.178339	0.000078
C23	C	0.224645	0.126775	0.000090
C24	C	0.202021	0.074501	0.000110
C25	C	0.156777	-0.030056	0.000161
C26	C	0.216179	-0.029339	0.000163
C27	C	0.238803	0.022940	0.000142
C28	C	0.298190	0.023648	0.000113
N29	N	0.320817	0.075924	0.000102
C30	C	0.284044	0.127487	0.000090
C31	C	-0.064140	0.019307	0.000138
C32	C	-0.123538	0.018594	0.000130
C33	C	-0.137684	0.122438	0.000106
C34	C	-0.078285	0.123150	0.000107
C35	C	-0.041514	0.071583	0.000127
C36	C	0.408782	0.128976	0.000072
C37	C	0.468184	0.129683	0.000059
C38	C	0.482325	0.025839	0.000088
C39	C	0.422928	0.025132	0.000096
C40	C	0.386157	0.076706	0.000091
O41	O	0.334970	-0.020116	0.000090
O42	O	0.308752	0.172011	0.000093
C43	C	0.677066	-0.030008	0.000124
C44	C	0.676300	-0.093225	0.000132
C45	C	0.723535	-0.492330	0.000085
C46	C	0.722824	-0.551730	0.000077
O47	O	0.766611	-0.588476	0.000047
N48	N	0.670548	-0.574357	0.000068
C49	C	0.618980	-0.537579	0.000056
O50	O	0.574450	-0.562280	0.000046
C51	C	0.619692	-0.478180	0.000056
C52	C	0.671971	-0.455557	0.000076
C53	C	0.775810	-0.469706	0.000103
C54	C	0.776521	-0.410309	0.000113
C55	C	0.724957	-0.373537	0.000104
C56	C	0.672682	-0.396161	0.000086
C57	C	0.568126	-0.441405	0.000037
C58	C	0.568842	-0.382002	0.000037
C59	C	0.621121	-0.359379	0.000057
C60	C	0.621829	-0.299991	0.000087
N61	N	0.674105	-0.277365	0.000096
C62	C	0.725669	-0.314138	0.000105
C63	C	0.617489	-0.662322	0.000053
C64	C	0.616776	-0.721720	0.000060
C65	C	0.720620	-0.735866	0.000079
C66	C	0.721332	-0.676467	0.000079
C67	C	0.669765	-0.639696	0.000062
C68	C	0.727158	-0.189400	0.000126
C69	C	0.727864	-0.129997	0.000141
C70	C	0.624021	-0.115856	0.000116
C71	C	0.623314	-0.175253	0.000107
C72	C	0.674887	-0.212024	0.000109
O73	O	0.578065	-0.263211	0.000112
O74	O	0.770192	-0.289430	0.000101
C75	C	0.776467	0.069393	0.000119
C76	C	0.839684	0.070159	0.000124
C77	C	0.667574	0.178286	0.000077
C78	C	0.668341	0.241502	0.000063
N79	N	0.662495	0.083984	0.265621
N80	N	0.682150	0.064289	-0.265417
C81	C	0.654782	0.091720	0.474660
C82	C	0.689861	0.056555	0.525550
C83	C	0.685569	0.060860	0.641867
C84	C	0.659073	0.087416	0.358333
H85	H	0.512276	-0.016143	0.000094
N86	N	0.255839	-0.084961	0.000174
H87	H	0.296902	-0.076582	0.000168
H88	H	0.246210	-0.105413	0.063363
N89	N	-0.024481	-0.036315	0.000155
H90	H	-0.047832	-0.069536	0.000161
H91	H	0.002809	-0.040628	-0.063024
N92	N	0.784252	-0.105597	0.000167
H93	H	0.816809	-0.137909	0.000169
H94	H	0.789151	-0.083594	-0.063007
H95	H	0.723116	0.023218	0.481761
H96	H	0.621530	0.125055	0.518444
N97	N	0.088822	0.233249	0.000059
H98	H	0.047757	0.224876	0.000058
H99	H	0.093782	0.258391	0.063228
N100	N	0.782782	-0.229055	0.000128
H101	H	0.816001	-0.205702	0.000144
H102	H	0.782411	-0.251672	0.063306
N103	N	-0.147938	-0.037791	0.000150
H104	H	-0.169934	-0.042747	-0.063023
H105	H	-0.115596	-0.070312	0.000196
N106	N	0.492585	0.186071	0.000026
H107	H	0.460273	0.218627	0.000021
H108	H	0.514591	0.190974	0.063199
H109	H	0.404508	-0.017438	0.000098
N110	N	0.513220	-0.342342	0.000047
H111	H	0.521598	-0.301278	0.000061
H112	H	0.492756	-0.351968	-0.063134
N113	N	0.832908	-0.385913	0.000130
H114	H	0.865461	-0.418228	0.000132
H115	H	0.837806	-0.363914	-0.063048
N116	N	-0.177341	0.178067	0.000154
H117	H	-0.167773	0.198565	-0.063013
H118	H	-0.218392	0.169649	0.000216
H119	H	0.378849	0.170973	0.000071
N120	N	0.132387	-0.086444	0.000200
H121	H	0.089178	-0.079080	0.000201
H122	H	0.148197	-0.111338	-0.062969
H123	H	-0.059870	0.165721	0.000096
N124	N	0.212270	0.234726	0.000050
H125	H	0.179954	0.267278	0.000043
H126	H	0.234272	0.239631	0.063226
N127	N	0.831430	-0.509362	0.000114
H128	H	0.864649	-0.486008	0.000126
H129	H	0.831059	-0.531975	0.063297
N130	N	0.777720	-0.652072	0.000097
H131	H	0.782674	-0.630081	-0.063079
H132	H	0.777955	-0.625432	0.063318
N133	N	0.776237	-0.775537	0.000074
H134	H	0.809466	-0.752196	0.000082
H135	H	0.775863	-0.798154	0.063251
N136	N	0.560389	-0.746117	0.000066
H137	H	0.527834	-0.713803	0.000066
H138	H	0.560164	-0.772790	-0.063114
N139	N	0.561866	-0.622662	0.000043
H140	H	0.528646	-0.646014	0.000039
H141	H	0.557559	-0.595372	0.063224
N142	N	0.511734	-0.465788	0.000023
H143	H	0.491503	-0.454689	-0.063161
H144	H	0.519138	-0.508992	0.000063
N145	N	0.566929	-0.199658	0.000101
H146	H	0.534372	-0.167347	0.000100
H147	H	0.566711	-0.226327	-0.063088
H148	H	0.582039	-0.085905	0.000113
