data_functionalizedCrystal
_audit_creation_method	'MofGen! by Chris Wilmer'
_symmetry_space_group_name_H-M	'P1'
_symmetry_Int_Tables_number	1
_symmetry_cell_setting	triclinic
loop_
_symmetry_equiv_pos_as_xyz
  x,y,z
_cell_length_a	10.654541
_cell_length_b	19.288856
_cell_length_c	9.730217
_cell_angle_alpha	90.004943
_cell_angle_beta	90.000443
_cell_angle_gamma	96.191655
loop_
_atom_site_label
_atom_site_type_symbol
_atom_site_fract_x
_atom_site_fract_y
_atom_site_fract_z
O1	O	0.156595	-0.922376	-0.114352
O2	O	0.177739	-0.720253	-0.114341
O3	O	-0.015672	-0.825962	-0.114339
O4	O	0.350006	-0.816666	-0.114355
O5	O	-0.015660	-0.825955	0.114241
O6	O	0.177751	-0.720245	0.114239
O7	O	0.156607	-0.922368	0.114228
Zn8	Zn	0.167181	-0.821306	0.150525
Zn9	Zn	0.167165	-0.821315	-0.150639
O10	O	0.350018	-0.816659	0.114225
C11	C	0.177066	-0.694368	-0.000050
C12	C	0.175029	-0.617251	-0.000045
C13	C	-0.062450	-0.825276	-0.000049
C14	C	-0.201849	-0.823235	-0.000052
C15	C	0.274735	-0.053862	-0.000030
C16	C	0.276660	-0.126321	-0.000040
C17	C	0.163175	-0.170285	-0.000034
C18	C	0.047757	-0.141785	-0.000053
C19	C	0.045835	-0.069327	-0.000057
C20	C	0.078541	-0.290999	0.080052
C21	C	0.080468	-0.363456	0.080064
C22	C	0.169097	-0.393770	-0.000029
C23	C	0.255821	-0.351618	-0.080116
C24	C	0.253900	-0.279160	-0.080120
C25	C	0.165246	-0.248855	-0.000031
C26	C	0.286595	-0.500831	-0.000030
C27	C	0.288515	-0.573291	-0.000049
C28	C	0.059609	-0.588754	-0.000048
C29	C	0.057692	-0.516295	-0.000044
C30	C	0.171189	-0.472337	-0.000028
C31	C	-0.232533	-0.949640	-0.000041
C32	C	-0.313363	-1.011880	-0.000033
C33	C	-0.444340	-1.009958	-0.000037
C34	C	-0.494488	-0.945789	-0.000054
C35	C	-0.413658	-0.883548	-0.000062
C36	C	-0.282680	-0.885477	-0.000053
C37	C	-0.382975	-0.757145	-0.000082
C38	C	-0.251997	-0.759066	-0.000068
C39	C	-0.433123	-0.692976	-0.000098
C40	C	-0.352292	-0.630734	-0.000097
C41	C	-0.221308	-0.632659	-0.000091
C42	C	-0.171167	-0.696825	-0.000076
C43	C	0.396796	-0.817345	-0.000067
C44	C	0.536195	-0.819386	-0.000074
C45	C	0.157283	0.051747	-0.000057
C46	C	0.159332	-0.025369	-0.000041
N47	N	0.167190	-0.821304	0.356062
N48	N	0.167145	-0.821322	-0.356175
C49	C	0.015193	-0.736352	0.643827
C50	C	-0.060767	-0.693859	0.571888
C51	C	-0.060743	-0.693846	0.428008
C52	C	0.015246	-0.736332	0.356064
C53	C	0.091206	-0.778825	0.428003
C54	C	0.091177	-0.778832	0.571886
C55	C	0.243151	-0.863797	0.428001
C56	C	0.243135	-0.863808	0.571880
C57	C	0.319140	-0.906283	0.356056
C58	C	0.395109	-0.948774	0.427995
C59	C	0.395083	-0.948785	0.571884
C60	C	0.319095	-0.906301	0.643819
H61	H	0.367153	-0.018075	-0.000024
H62	H	-0.125886	-0.951211	-0.000019
O63	O	0.319179	-0.906270	0.200872
H64	H	0.253606	-0.869579	0.162931
O65	O	0.351417	-0.384300	-0.166524
H66	H	0.338176	-0.441767	-0.153087
O67	O	-0.259280	-1.081091	-0.000013
H68	H	-0.154624	-1.071975	0.000002
H69	H	0.015247	-0.736323	0.238910
H70	H	-0.393134	-0.578492	-0.000119
O71	O	-0.142709	-0.648050	0.350374
H72	H	-0.082351	-0.611009	0.284810
O73	O	0.477070	-0.994591	0.350406
H74	H	0.464327	-0.987441	0.238272
O75	O	0.401134	-0.157066	-0.000008
H76	H	0.479730	-0.114326	0.000014
H77	H	0.015175	-0.736353	0.760981
O78	O	-0.066778	-0.485556	-0.000023
H79	H	-0.145371	-0.528298	-0.000004
H80	H	0.456934	-0.983390	0.630448
H81	H	-0.155502	-0.581974	-0.000103
H82	H	0.324511	-0.244842	-0.145332
O83	O	-0.017044	-0.258302	0.166457
H84	H	-0.113728	-0.278766	0.133516
H85	H	0.379011	-0.465038	-0.000020
H86	H	0.009858	-0.397770	0.145283
O87	O	-0.635756	-0.943716	-0.000056
H88	H	-0.676912	-0.970504	-0.093216
O89	O	-0.142721	-0.648032	0.649480
H90	H	-0.129970	-0.655171	0.761615
H91	H	-0.539772	-0.691415	-0.000110
O92	O	-0.029900	-0.698899	-0.000074
H93	H	-0.008613	-0.753974	-0.000073
H94	H	0.319070	-0.906304	0.760974
H95	H	0.382494	-0.596488	-0.000051
H96	H	-0.032792	-0.624549	-0.000054
H97	H	-0.044643	-0.177585	-0.000052
H98	H	-0.510153	-1.060640	-0.000041
H99	H	-0.048143	-0.046130	-0.000066
