data_functionalizedCrystal
_audit_creation_method	'MofGen! by Chris Wilmer'
_symmetry_space_group_name_H-M	'P1'
_symmetry_Int_Tables_number	1
_symmetry_cell_setting	triclinic
loop_
_symmetry_equiv_pos_as_xyz
  x,y,z
_cell_length_a	19.805405
_cell_length_b	13.033652
_cell_length_c	19.805399
_cell_angle_alpha	97.154698
_cell_angle_beta	90.029301
_cell_angle_gamma	82.780243
loop_
_atom_site_label
_atom_site_type_symbol
_atom_site_fract_x
_atom_site_fract_y
_atom_site_fract_z
Zn1	Zn	-0.137899	-1.597535	0.251485
Zn2	Zn	0.362101	-1.097535	0.751485
Zn3	Zn	-0.251098	-1.597403	0.138305
Zn4	Zn	0.248902	-1.097403	0.638305
Zn5	Zn	-0.152310	-1.422787	0.152664
Zn6	Zn	0.347690	-0.922787	0.652664
Zn7	Zn	-0.265449	-1.422731	0.265799
Zn8	Zn	0.234551	-0.922731	0.765799
O9	O	-0.201689	-1.510114	0.202063
O10	O	0.298311	-1.010114	0.702063
O11	O	-0.140878	-1.743751	0.224472
O12	O	0.359122	-1.243751	0.724472
O13	O	-0.238019	-1.574208	0.045495
O14	O	0.261981	-1.074208	0.545495
O15	O	-0.055676	-1.446046	0.165792
O16	O	0.444324	-0.946046	0.665792
O17	O	-0.224045	-1.743654	0.141318
O18	O	0.275955	-1.243654	0.641318
O19	O	-0.045087	-1.574433	0.238396
O20	O	0.454913	-1.074433	0.738396
O21	O	-0.165440	-1.445919	0.056045
O22	O	0.334560	-0.945919	0.556045
O23	O	-0.179356	-1.276546	0.179672
O24	O	0.320644	-0.776546	0.679672
O25	O	-0.248503	-1.445950	0.358615
O26	O	0.251497	-0.945950	0.858615
O27	O	-0.262478	-1.276505	0.262792
O28	O	0.237522	-0.776505	0.762792
O29	O	-0.154793	-1.574378	0.348098
O30	O	0.345207	-1.074378	0.848098
O31	O	-0.347725	-1.574154	0.155198
O32	O	0.152275	-1.074154	0.655198
O33	O	-0.358268	-1.445823	0.248868
O34	O	0.141732	-0.945823	0.748868
C35	C	-0.224038	-1.238609	0.224344
C36	C	0.275962	-0.738609	0.724344
C37	C	-0.233616	-1.122458	0.233891
C38	C	0.266384	-0.622458	0.733891
C39	C	-0.196697	-1.070667	0.197088
C40	C	0.303303	-0.570667	0.697088
C41	C	-0.206595	-0.950618	0.206955
C42	C	0.293405	-0.450618	0.706955
C43	C	-0.377555	-1.509996	0.202040
C44	C	0.122445	-1.009996	0.702040
C45	C	-0.452783	-1.510042	0.202045
C46	C	0.047217	-1.010042	0.702045
C47	C	-0.482609	-1.576928	0.153311
C48	C	0.017391	-1.076928	0.653311
C49	C	-0.553294	-1.576973	0.153323
C50	C	-0.053294	-1.076973	0.653323
C51	C	-0.594152	-1.510124	0.202065
C52	C	-0.094152	-1.010124	0.702065
C53	C	-0.564321	-1.443234	0.250804
C54	C	-0.064321	-0.943234	0.750804
C55	C	-0.493637	-1.443196	0.250795
C56	C	0.006363	-0.943196	0.750795
C57	C	-0.849381	-1.443389	0.250842
C58	C	-0.349381	-0.943389	0.750842
C59	C	-0.920070	-1.443430	0.250846
C60	C	-0.420070	-0.943430	0.750846
C61	C	-0.909038	-1.577165	0.153369
C62	C	-0.409038	-1.077165	0.653369
C63	C	-0.838354	-1.577127	0.153360
C64	C	-0.338354	-1.077127	0.653360
C65	C	-0.808529	-1.510242	0.202101
C66	C	-0.308529	-1.010242	0.702101
C67	C	-0.731885	-1.510196	0.202089
C68	C	-0.231885	-1.010196	0.702089
C69	C	-0.670795	-1.510164	0.202075
C70	C	-0.170795	-1.010164	0.702075
C71	C	-0.025134	-1.510260	0.202099
C72	C	0.474866	-1.010260	0.702099
C73	C	0.050103	-1.510323	0.202114
C74	C	0.550103	-1.010323	0.702114
C75	C	-0.201641	-1.510172	0.378601
C76	C	0.298359	-1.010172	0.878601
C77	C	-0.201621	-1.510197	0.453831
C78	C	0.298379	-1.010197	0.953831
C79	C	-0.179247	-0.782679	0.179692
C80	C	0.320753	-0.282679	0.679692
C81	C	-0.169671	-0.898830	0.170147
C82	C	0.330329	-0.398830	0.670147
C83	C	-0.201682	-1.510116	0.026207
C84	C	0.298318	-1.010116	0.526207
C85	C	-0.201495	-1.510293	-0.049039
C86	C	0.298505	-1.010293	0.450961
C87	C	-0.152824	-1.577071	0.483701
C88	C	0.347176	-1.077071	0.983701
C89	C	-0.152803	-1.577082	0.554388
C90	C	0.347197	-1.077082	1.054388
C91	C	-0.201584	-1.510223	0.595205
C92	C	0.298416	-1.010223	1.095205
C93	C	-0.250384	-1.443342	0.565331
C94	C	0.249616	-0.943342	1.065331
C95	C	-0.250401	-1.443327	0.494645
C96	C	0.249599	-0.943327	0.994645
C97	C	-0.250316	-1.443401	0.850400
C98	C	0.249684	-0.943401	1.350400
C99	C	-0.250296	-1.443424	0.921090
C100	C	0.249704	-0.943424	1.421090
C101	C	-0.152718	-1.577156	0.910143
C102	C	0.347282	-1.077156	1.410143
C103	C	-0.152735	-1.577141	0.839457
C104	C	0.347265	-1.077141	1.339457
C105	C	-0.201533	-1.510256	0.809590
C106	C	0.298467	-1.010256	1.309590
C107	C	-0.201554	-1.510244	0.732942
C108	C	0.298446	-1.010244	1.232942
C109	C	-0.201566	-1.510240	0.671851
C110	C	0.298434	-1.010240	1.171851
H111	H	-0.449347	-1.631360	0.113617
H112	H	0.050653	-1.131360	0.613617
C113	C	-0.099162	-1.650612	0.438809
C114	C	0.400838	-1.150612	0.938809
H115	H	-0.070093	-1.690432	0.466725
H116	H	0.429907	-1.190432	0.966725
H117	H	-0.121309	-1.696119	0.407492
H118	H	0.378691	-1.196119	0.907492
H119	H	-0.072965	-1.610644	0.414523
H120	H	0.427035	-1.110644	0.914523
C121	C	-0.117067	-0.958977	0.117711
C122	C	0.382933	-0.458977	0.617711
H123	H	-0.117310	-1.031772	0.117960
H124	H	0.382690	-0.531772	0.617960
H125	H	-0.128372	-0.941106	0.073674
H126	H	0.371628	-0.441106	0.573674
H127	H	-0.073059	-0.941169	0.129160
H128	H	0.426941	-0.441169	0.629160
H129	H	-0.597592	-1.388810	0.290494
H130	H	-0.097592	-0.888810	0.790494
H131	H	-0.290130	-1.388861	0.470328
H132	H	0.209870	-0.888861	0.970328
H133	H	-0.272553	-1.077922	0.272703
H134	H	0.227447	-0.577922	0.772703
H135	H	-0.112983	-1.631613	0.934469
H136	H	0.387017	-1.131613	1.434469
H137	H	-0.577575	-1.631438	0.113638
H138	H	-0.077575	-1.131438	0.613638
C139	C	-0.259196	-0.890470	0.259394
C140	C	0.240804	-0.390470	0.759394
H141	H	-0.258944	-0.817675	0.259150
H142	H	0.241056	-0.317675	0.759150
H143	H	-0.303203	-0.908276	0.247955
H144	H	0.196797	-0.408276	0.747955
H145	H	-0.247880	-0.908339	0.303433
H146	H	0.252120	-0.408339	0.803433
C147	C	-0.793414	-1.650663	0.099745
C148	C	-0.293414	-1.150663	0.599745
H149	H	-0.821301	-1.690514	0.070726
H150	H	-0.321301	-1.190514	0.570726
H151	H	-0.769169	-1.610706	0.073507
H152	H	-0.269169	-1.110706	0.573507
H153	H	-0.762053	-1.696158	0.121931
H154	H	-0.262053	-1.196158	0.621931
C155	C	-0.941847	-1.650746	0.099758
C156	C	-0.441847	-1.150746	0.599758
H157	H	-0.989795	-1.641206	0.106746
H158	H	-0.489795	-1.141206	0.606746
H159	H	-0.931558	-1.635484	0.055524
H160	H	-0.431558	-1.135484	0.555524
H161	H	-0.924435	-1.720947	0.103940
H162	H	-0.424435	-1.220947	0.603940
H163	H	-0.953335	-1.388995	0.290543
H164	H	-0.453335	-0.888995	0.790543
C165	C	-0.099143	-1.650667	0.587243
C166	C	0.400857	-1.150667	1.087243
H167	H	-0.106116	-1.641102	0.635186
H168	H	0.393884	-1.141102	1.135186
H169	H	-0.103290	-1.720860	0.569892
H170	H	0.396710	-1.220860	1.069892
H171	H	-0.054915	-1.635428	0.576926
H172	H	0.445085	-1.135428	1.076926
C173	C	-0.816583	-1.369800	0.304444
C174	C	-0.316583	-0.869800	0.804444
H175	H	-0.851043	-1.329983	0.333466
H176	H	-0.351043	-0.829983	0.833466
H177	H	-0.785676	-1.409717	0.330681
H178	H	-0.285676	-0.909717	0.830681
H179	H	-0.792804	-1.324276	0.282250
H180	H	-0.292804	-0.824276	0.782250
C181	C	-0.460824	-1.369623	0.304401
C182	C	0.039176	-0.869623	0.804401
H183	H	-0.412876	-1.379181	0.297420
H184	H	0.087124	-0.879181	0.797420
H185	H	-0.478232	-1.299424	0.300225
H186	H	0.021768	-0.799424	0.800225
H187	H	-0.471114	-1.384891	0.348637
H188	H	0.028886	-0.884891	0.848637
C189	C	-0.099075	-1.650681	0.794562
C190	C	0.400925	-1.150681	1.294562
H191	H	-0.070005	-1.690504	0.822476
H192	H	0.429995	-1.190504	1.322476
H193	H	-0.121224	-1.696185	0.763245
H194	H	0.378776	-1.196185	1.263245
H195	H	-0.072879	-1.610713	0.770276
H196	H	0.427121	-1.110713	1.270276
H197	H	-0.290021	-1.388975	0.954322
H198	H	0.209979	-0.888975	1.454322
H199	H	-0.290058	-1.388955	0.826090
H200	H	0.209942	-0.888955	1.326090
C201	C	-0.304041	-1.369800	0.610228
C202	C	0.195959	-0.869800	1.110228
H203	H	-0.297048	-1.379394	0.656603
H204	H	0.202952	-0.879394	1.156603
H205	H	-0.299919	-1.299593	0.604405
H206	H	0.200081	-0.799593	1.104405
H207	H	-0.348267	-1.385062	0.597376
H208	H	0.151733	-0.885062	1.097376
H209	H	-0.157765	-1.115202	0.158272
H210	H	0.342235	-0.615202	0.658272
