data_functionalizedCrystal
_audit_creation_method	'MofGen! by Chris Wilmer'
_symmetry_space_group_name_H-M	'P1'
_symmetry_Int_Tables_number	1
_symmetry_cell_setting	triclinic
loop_
_symmetry_equiv_pos_as_xyz
  x,y,z
_cell_length_a	17.638336
_cell_length_b	17.640280
_cell_length_c	17.077396
_cell_angle_alpha	78.774396
_cell_angle_beta	78.784369
_cell_angle_gamma	65.685103
loop_
_atom_site_label
_atom_site_type_symbol
_atom_site_fract_x
_atom_site_fract_y
_atom_site_fract_z
Zn1	Zn	1.326509	-0.583298	-0.592778
Zn2	Zn	1.354304	-0.721107	-0.439449
Zn3	Zn	1.188678	-0.555412	-0.439489
Zn4	Zn	1.216521	-0.693156	-0.548659
O5	O	1.271503	-0.638243	-0.505094
O6	O	1.445542	-0.624946	-0.590886
O7	O	1.332313	-0.699154	-0.329598
O8	O	1.183677	-0.443791	-0.478304
O9	O	1.465963	-0.726193	-0.478236
O10	O	1.284941	-0.464278	-0.590925
O11	O	1.210628	-0.577419	-0.329627
O12	O	1.077025	-0.550317	-0.435523
O13	O	1.231131	-0.678556	-0.664368
O14	O	1.097481	-0.651517	-0.515729
O15	O	1.311939	-0.597843	-0.696782
O16	O	1.359311	-0.832719	-0.435455
O17	O	1.258082	-0.812184	-0.515691
C18	C	1.057346	-0.594859	-0.470843
C19	C	0.965732	-0.576318	-0.456206
C20	C	0.825917	-0.497417	-0.393908
C21	C	0.912003	-0.514844	-0.407666
C22	C	0.933390	-0.620393	-0.491004
C23	C	0.847305	-0.602978	-0.477249
C24	C	0.793574	-0.541488	-0.428701
C25	C	0.814962	-0.647049	-0.512042
C26	C	0.728884	-0.629632	-0.498291
C27	C	0.675148	-0.568143	-0.449747
C28	C	0.707496	-0.524070	-0.414950
C29	C	0.868693	-0.708535	-0.560594
C30	C	0.836350	-0.752606	-0.595387
C31	C	0.750271	-0.735193	-0.581632
C32	C	0.696535	-0.673704	-0.533088
C33	C	0.717923	-0.779266	-0.616430
C34	C	0.631845	-0.761848	-0.602679
C35	C	0.610457	-0.656287	-0.519338
C36	C	1.314757	-0.852357	-0.470802
C37	C	1.333336	-0.943971	-0.456170
C38	C	1.130695	-1.191914	-0.616591
C39	C	1.148155	-1.278000	-0.602817
C40	C	1.253630	-1.299331	-0.519380
C41	C	1.236182	-1.213245	-0.533150
C42	C	1.174713	-1.159543	-0.581755
C43	C	1.280200	-1.180875	-0.498314
C44	C	1.262749	-1.094797	-0.512080
C45	C	1.201282	-1.041089	-0.560681
C46	C	1.157263	-1.073465	-0.595521
C47	C	1.341664	-1.234578	-0.449704
C48	C	1.385682	-1.202207	-0.414869
C49	C	1.368236	-1.116128	-0.428639
C50	C	1.306768	-1.062420	-0.477240
C51	C	1.412255	-1.083752	-0.393799
C52	C	1.394805	-0.997674	-0.407564
C53	C	1.289318	-0.976342	-0.491005
C54	C	1.486497	-0.681798	-0.539478
C55	C	1.578114	-0.700358	-0.554131
C56	C	1.271541	-0.638193	-0.709856
C57	C	1.271557	-0.638171	-0.797113
C58	C	1.228103	-0.423298	-0.539541
C59	C	1.209608	-0.331701	-0.554220
C60	C	1.313635	-0.596140	-0.854984
C61	C	1.313639	-0.596114	-0.936970
C62	C	1.271570	-0.638126	-0.961085
C63	C	1.229487	-0.680158	-0.903207
C64	C	1.229478	-0.680178	-0.821222
C65	C	1.229510	-0.680115	-1.074090
C66	C	1.229520	-0.680097	-1.156081
C67	C	1.313671	-0.596052	-1.189839
C68	C	1.313662	-0.596072	-1.107854
C69	C	1.271580	-0.638105	-1.049982
C70	C	1.271501	-0.638244	-0.301145
C71	C	1.271598	-0.638066	-0.213951
H72	H	0.605511	-0.797733	-0.631014
H73	H	0.880108	-0.802669	-0.634917
O74	O	0.655182	-0.464382	-0.367792
C75	C	0.572268	-0.458440	-0.363144
H76	H	0.573391	-0.519705	-0.376675
H77	H	0.538004	-0.404685	-0.408958
C78	C	0.525089	-0.366560	-0.261285
C79	C	0.526467	-0.441809	-0.277897
H80	H	0.496834	-0.356297	-0.208702
H81	H	0.580948	-0.370560	-0.264418
H82	H	0.496537	-0.321773	-0.299469
H83	H	0.555028	-0.486595	-0.239719
H84	H	0.470611	-0.437816	-0.274756
O85	O	1.472053	-1.135857	-0.346652
C86	C	1.549927	-1.131416	-0.380390
H87	H	1.538955	-1.069247	-0.420837
H88	H	1.587472	-1.185442	-0.417461
C89	C	1.612568	-1.213923	-0.262851
C90	C	1.599093	-1.137562	-0.312524
H91	H	1.642899	-1.217718	-0.220989
H92	H	1.560105	-1.216918	-0.240122
H93	H	1.643853	-1.258936	-0.293753
H94	H	1.567800	-1.092551	-0.281624
H95	H	1.651553	-1.134560	-0.335246
O96	O	0.773696	-0.437791	-0.346646
C97	C	0.733324	-0.474551	-0.280427
H98	H	0.772384	-0.544699	-0.269212
H99	H	0.668687	-0.464234	-0.293829
C100	C	0.675797	-0.347728	-0.218913
C101	C	0.723776	-0.433884	-0.205135
H102	H	0.669903	-0.322640	-0.172470
H103	H	0.702994	-0.322960	-0.263528
H104	H	0.621939	-0.339142	-0.230083
H105	H	0.777636	-0.442468	-0.193975
H106	H	0.696587	-0.458652	-0.160516
O107	O	0.769998	-0.838990	-0.663641
C108	C	0.722995	-0.874171	-0.691386
H109	H	0.654811	-0.828008	-0.689754
H110	H	0.726480	-0.934871	-0.651062
C111	C	0.842795	-0.949658	-0.780371
C112	C	0.759052	-0.892958	-0.778374
H113	H	0.865038	-0.961251	-0.834028
H114	H	0.874463	-0.925960	-0.761677
H115	H	0.845688	-1.000235	-0.746764
H116	H	0.756162	-0.842379	-0.811972
H117	H	0.727384	-0.916649	-0.797075
H118	H	0.977148	-0.670457	-0.530534
O119	O	0.943290	-0.471986	-0.373765
C120	C	0.877402	-0.413969	-0.327982
H121	H	0.822861	-0.435301	-0.310012
H122	H	0.855622	-0.349565	-0.365378
C123	C	0.975515	-0.382579	-0.273799
C124	C	0.908529	-0.408783	-0.251723
H125	H	0.994716	-0.379375	-0.226761
H126	H	1.019905	-0.421663	-0.304646
H127	H	0.957356	-0.328911	-0.304964
H128	H	0.926692	-0.462454	-0.220569
H129	H	0.864143	-0.369707	-0.220869
O130	O	1.188549	-0.720980	-0.926491
C131	C	1.151425	-0.758099	-0.857828
H132	H	1.141746	-0.723779	-0.804341
H133	H	1.194246	-0.826803	-0.843905
C134	C	1.077989	-0.794353	-0.939581
C135	C	1.066095	-0.752195	-0.873888
H136	H	1.025355	-0.790716	-0.949487
H137	H	1.103002	-0.769348	-0.985840
H138	H	1.113676	-0.851603	-0.927969
H139	H	1.030417	-0.694945	-0.885504
H140	H	1.041073	-0.777191	-0.827631
O141	O	1.354376	-0.555263	-0.831467
C142	C	1.296690	-0.492527	-0.785084
H143	H	1.240094	-0.508944	-0.758145
H144	H	1.275301	-0.429616	-0.825022
C145	C	1.408531	-0.466641	-0.749945
C146	C	1.339022	-0.486808	-0.716853
H147	H	1.434644	-0.463109	-0.707858
H148	H	1.447396	-0.508904	-0.781196
H149	H	1.390697	-0.414216	-0.783226
H150	H	1.356858	-0.539236	-0.683581
H151	H	1.300161	-0.444553	-0.685594
O152	O	1.184324	-0.957471	-0.573911
C153	C	1.157362	-0.924480	-0.499879
H154	H	1.181533	-0.976951	-0.448996
H155	H	1.085886	-0.895414	-0.489656
C156	C	1.162126	-0.792383	-0.564048
C157	C	1.191819	-0.856827	-0.501553
H158	H	1.183376	-0.750648	-0.565081
H159	H	1.180287	-0.814607	-0.613926
H160	H	1.102563	-0.768170	-0.555522
H161	H	1.251379	-0.881045	-0.510086
H162	H	1.173668	-0.834605	-0.451676
O163	O	1.437437	-0.966161	-0.373633
C164	C	1.380454	-0.906918	-0.323365
H165	H	1.320812	-0.919771	-0.303922
H166	H	1.364367	-0.841094	-0.357614
C167	C	1.493761	-0.897975	-0.272336
C168	C	1.420510	-0.913766	-0.248450
H169	H	1.518470	-0.902195	-0.226126
H170	H	1.532152	-0.937886	-0.306204
H171	H	1.480345	-0.843122	-0.300877
H172	H	1.433929	-0.968621	-0.219918
H173	H	1.382122	-0.873864	-0.214575
H174	H	0.938782	-0.722708	-0.571794
O175	O	1.229675	-0.924265	-0.538332
C176	C	1.251916	-0.948871	-0.616106
H177	H	1.296256	-1.017764	-0.612832
H178	H	1.284461	-0.908965	-0.657098
C179	C	1.117891	-0.851976	-0.654133
C180	C	1.172345	-0.936594	-0.650111
H181	H	1.068809	-0.844400	-0.675111
H182	H	1.102908	-0.835396	-0.601736
H183	H	1.145022	-0.818731	-0.688292
H184	H	1.145218	-0.969836	-0.615945
H185	H	1.187322	-0.953179	-0.702503
H186	H	0.566706	-0.606215	-0.479805
H187	H	1.347905	-0.561891	-0.984087
H188	H	1.347924	-0.561868	-1.088224
O189	O	1.097620	-1.021388	-0.642847
C190	C	1.119860	-1.045994	-0.720622
H191	H	1.164200	-1.114887	-0.717348
H192	H	1.152405	-1.006088	-0.761614
C193	C	0.985836	-0.949099	-0.758649
C194	C	1.040290	-1.033717	-0.754626
H195	H	0.936753	-0.941523	-0.779627
H196	H	0.970852	-0.932519	-0.706252
H197	H	1.012966	-0.915854	-0.792808
H198	H	1.013162	-1.066959	-0.720460
H199	H	1.055267	-1.050302	-0.807019
O200	O	1.071052	-1.139837	-0.663917
C201	C	1.093292	-1.164443	-0.741692
H202	H	1.137633	-1.233336	-0.738418
H203	H	1.125837	-1.124537	-0.782684
C204	C	0.959268	-1.067548	-0.779719
C205	C	1.013722	-1.152166	-0.775696
H206	H	0.910186	-1.059972	-0.800697
H207	H	0.944285	-1.050968	-0.727322
H208	H	0.986399	-1.034303	-0.813878
H209	H	0.986595	-1.185408	-0.741530
H210	H	1.028699	-1.168751	-0.828089
H211	H	1.195226	-0.714328	-1.026971
O212	O	1.105528	-1.309561	-0.636703
C213	C	1.162502	-1.368773	-0.687004
H214	H	1.227593	-1.394285	-0.667308
H215	H	1.164787	-1.337391	-0.751937
C216	C	1.053780	-1.410048	-0.705033
C217	C	1.133724	-1.441387	-0.680837
H218	H	1.036028	-1.454838	-0.701233
H219	H	1.015394	-1.370153	-0.671147
H220	H	1.055695	-1.383896	-0.759142
H221	H	1.131807	-1.467529	-0.626726
H222	H	1.172109	-1.481288	-0.714714
H223	H	1.303676	-1.343066	-0.479803
H224	H	1.355872	-1.304668	-0.438500
H225	H	1.195203	-0.714394	-0.774103
H226	H	1.435728	-1.245942	-0.375291
H227	H	1.347934	-0.561824	-1.236963
O228	O	1.188712	-0.721019	-1.179414
C229	C	1.223305	-0.806813	-1.149121
H230	H	1.255323	-0.814968	-1.094383
H231	H	1.271294	-0.843144	-1.197593
C232	C	1.113690	-0.830421	-1.191724
C233	C	1.153009	-0.840436	-1.124489
H234	H	1.070330	-0.851164	-1.176533
H235	H	1.090385	-0.772621	-1.212136
H236	H	1.153689	-0.860698	-1.232112
H237	H	1.113013	-0.810152	-1.084108
H238	H	1.176306	-0.898233	-1.104070
O239	O	0.591525	-0.551196	-0.436540
C240	C	0.558554	-0.524293	-0.510595
H241	H	0.611041	-0.548498	-0.561443
H242	H	0.529489	-0.452823	-0.520884
C243	C	0.426433	-0.529022	-0.446447
C244	C	0.490898	-0.558757	-0.508899
H245	H	0.384697	-0.550277	-0.445401
H246	H	0.448645	-0.547143	-0.396554
H247	H	0.402222	-0.469465	-0.455028
H248	H	0.515115	-0.618312	-0.500312
H249	H	0.468689	-0.540646	-0.558791
