data_functionalizedCrystal
_audit_creation_method	'MofGen! by Chris Wilmer'
_symmetry_space_group_name_H-M	'P1'
_symmetry_Int_Tables_number	1
_symmetry_cell_setting	triclinic
loop_
_symmetry_equiv_pos_as_xyz
  x,y,z
_cell_length_a	19.077713
_cell_length_b	16.625547
_cell_length_c	19.076919
_cell_angle_alpha	92.276735
_cell_angle_beta	94.658599
_cell_angle_gamma	87.732996
loop_
_atom_site_label
_atom_site_type_symbol
_atom_site_fract_x
_atom_site_fract_y
_atom_site_fract_z
Zn1	Zn	-0.296667	1.227387	-0.409952
Zn2	Zn	-0.046667	1.477387	-0.159952
Zn3	Zn	0.203333	1.727387	0.090048
Zn4	Zn	0.453333	1.977387	0.340048
Zn5	Zn	-0.409812	1.237695	-0.296806
Zn6	Zn	-0.159812	1.487695	-0.046806
Zn7	Zn	0.090188	1.737695	0.203194
Zn8	Zn	0.340188	1.987695	0.453194
Zn9	Zn	-0.291951	1.097767	-0.292073
Zn10	Zn	-0.041951	1.347767	-0.042073
Zn11	Zn	0.208049	1.597767	0.207927
Zn12	Zn	0.458049	1.847767	0.457927
Zn13	Zn	-0.414508	1.097707	-0.414641
Zn14	Zn	-0.164508	1.347707	-0.164641
Zn15	Zn	0.085492	1.597707	0.085359
Zn16	Zn	0.335492	1.847707	0.335359
O17	O	-0.353234	1.165139	-0.353368
O18	O	-0.103234	1.415139	-0.103368
O19	O	0.146766	1.665139	0.146632
O20	O	0.396766	1.915139	0.396632
O21	O	-0.311684	1.341587	-0.394962
O22	O	-0.061684	1.591587	-0.144962
O23	O	0.188316	1.841587	0.105038
O24	O	0.438316	2.091587	0.355038
O25	O	-0.390239	1.223472	-0.197531
O26	O	-0.140239	1.473472	0.052469
O27	O	0.109761	1.723472	0.302469
O28	O	0.359761	1.973472	0.552469
O29	O	-0.193934	1.110672	-0.303767
O30	O	0.056066	1.360672	-0.053767
O31	O	0.306066	1.610672	0.196233
O32	O	0.556066	1.860672	0.446233
O33	O	-0.394811	1.349160	-0.311833
O34	O	-0.144811	1.599160	-0.061833
O35	O	0.105189	1.849160	0.188167
O36	O	0.355189	2.099160	0.438167
O37	O	-0.197399	1.205904	-0.390372
O38	O	0.052601	1.455904	-0.140372
O39	O	0.302601	1.705904	0.109628
O40	O	0.552601	1.955904	0.359628
O41	O	-0.303646	1.120667	-0.194054
O42	O	-0.053646	1.370667	0.055946
O43	O	0.196354	1.620667	0.305946
O44	O	0.446354	1.870667	0.555946
O45	O	-0.308200	0.984927	-0.308314
O46	O	-0.058200	1.234927	-0.058314
O47	O	0.191800	1.484927	0.191686
O48	O	0.441800	1.734927	0.441686
O49	O	-0.402815	1.110571	-0.512666
O50	O	-0.152815	1.360571	-0.262666
O51	O	0.097185	1.610571	-0.012666
O52	O	0.347185	1.860571	0.237334
O53	O	-0.398242	0.984883	-0.398363
O54	O	-0.148242	1.234883	-0.148363
O55	O	0.101758	1.484883	0.101637
O56	O	0.351758	1.734883	0.351637
O57	O	-0.316237	1.205846	-0.509221
O58	O	-0.066237	1.455846	-0.259221
O59	O	0.183763	1.705846	-0.009221
O60	O	0.433763	1.955846	0.240779
O61	O	-0.509077	1.223414	-0.316380
O62	O	-0.259077	1.473414	-0.066380
O63	O	-0.009077	1.723414	0.183620
O64	O	0.240923	1.973414	0.433620
O65	O	-0.512527	1.120566	-0.402952
O66	O	-0.262527	1.370566	-0.152952
O67	O	-0.012527	1.620566	0.097048
O68	O	0.237473	1.870566	0.347048
C69	C	-0.353219	0.955649	-0.353334
C70	C	-0.103219	1.205649	-0.103334
C71	C	0.146781	1.455649	0.146666
C72	C	0.396781	1.705649	0.396666
C73	C	-0.353230	0.866028	-0.353337
C74	C	-0.103230	1.116028	-0.103337
C75	C	0.146770	1.366028	0.146663
C76	C	0.396770	1.616028	0.396663
C77	C	-0.353232	0.793246	-0.353346
C78	C	-0.103232	1.043246	-0.103346
C79	C	0.146768	1.293246	0.146654
C80	C	0.396768	1.543246	0.396654
C81	C	-0.353237	0.701937	-0.353364
C82	C	-0.103237	0.951937	-0.103364
C83	C	0.146763	1.201937	0.146636
C84	C	0.396763	1.451937	0.396636
C85	C	-0.353244	0.629160	-0.353382
C86	C	-0.103244	0.879160	-0.103382
C87	C	0.146756	1.129160	0.146618
C88	C	0.396756	1.379160	0.396618
C89	C	-0.353249	0.537845	-0.353399
C90	C	-0.103249	0.787845	-0.103399
C91	C	0.146751	1.037845	0.146601
C92	C	0.396751	1.287845	0.396601
C93	C	-0.536380	1.173123	-0.360704
C94	C	-0.286380	1.423123	-0.110704
C95	C	-0.036380	1.673123	0.139296
C96	C	0.213620	1.923123	0.389296
C97	C	-0.614731	1.176612	-0.363866
C98	C	-0.364731	1.426612	-0.113866
C99	C	-0.114731	1.676612	0.136134
C100	C	0.135269	1.926612	0.386134
C101	C	-1.055954	1.201630	-0.386523
C102	C	-0.805954	1.451630	-0.136523
C103	C	-0.555954	1.701630	0.113477
C104	C	-0.305954	1.951630	0.363477
C105	C	-0.982335	1.198344	-0.383545
C106	C	-0.732335	1.448344	-0.133545
C107	C	-0.482335	1.698344	0.116455
C108	C	-0.232335	1.948344	0.366455
C109	C	-0.943786	1.147161	-0.336936
C110	C	-0.693786	1.397161	-0.086936
C111	C	-0.443786	1.647161	0.163064
C112	C	-0.193786	1.897161	0.413064
C113	C	-0.978861	1.099267	-0.293296
C114	C	-0.728861	1.349267	-0.043296
C115	C	-0.478861	1.599267	0.206704
C116	C	-0.228861	1.849267	0.456704
C117	C	-1.052479	1.102558	-0.296270
C118	C	-0.802479	1.352558	-0.046270
C119	C	-0.552479	1.602558	0.203730
C120	C	-0.302479	1.852558	0.453730
C121	C	-0.723424	1.132010	-0.323200
C122	C	-0.473424	1.382010	-0.073200
C123	C	-0.223424	1.632010	0.176800
C124	C	0.026576	1.882010	0.426800
C125	C	-0.649801	1.128720	-0.320230
C126	C	-0.399801	1.378720	-0.070230
C127	C	-0.149801	1.628720	0.179770
C128	C	0.100199	1.878720	0.429770
C129	C	-0.653280	1.227798	-0.410479
C130	C	-0.403280	1.477798	-0.160479
C131	C	-0.153280	1.727798	0.089521
C132	C	0.096720	1.977798	0.339521
C133	C	-0.726900	1.231081	-0.413452
C134	C	-0.476900	1.481081	-0.163452
C135	C	-0.226900	1.731081	0.086548
C136	C	0.023100	1.981081	0.336548
C137	C	-0.761968	1.183191	-0.369810
C138	C	-0.511968	1.433191	-0.119810
C139	C	-0.261968	1.683191	0.130190
C140	C	-0.011968	1.933191	0.380190
N141	N	-0.868535	1.143798	-0.333893
N142	N	-0.618535	1.393798	-0.083893
N143	N	-0.368535	1.643798	0.166107
N144	N	-0.118535	1.893798	0.416107
N145	N	-0.837217	1.186558	-0.372849
N146	N	-0.587217	1.436558	-0.122849
N147	N	-0.337217	1.686558	0.127151
N148	N	-0.087217	1.936558	0.377151
C149	C	-0.169374	1.157145	-0.346019
C150	C	0.080626	1.407145	-0.096019
C151	C	0.330626	1.657145	0.153981
C152	C	0.580626	1.907145	0.403981
C153	C	-0.091024	1.153738	-0.342887
C154	C	0.158976	1.403738	-0.092887
C155	C	0.408976	1.653738	0.157113
C156	C	0.658976	1.903738	0.407113
C157	C	-0.360576	1.157052	-0.537237
C158	C	-0.110576	1.407052	-0.287237
C159	C	0.139424	1.657052	-0.037237
C160	C	0.389424	1.907052	0.212763
C161	C	-0.363705	1.153606	-0.615591
C162	C	-0.113705	1.403606	-0.365591
C163	C	0.136295	1.653606	-0.115591
C164	C	0.386295	1.903606	0.134409
C165	C	-0.353250	1.375447	-0.353402
C166	C	-0.103250	1.625447	-0.103402
C167	C	0.146750	1.875447	0.146598
C168	C	0.396750	2.125447	0.396598
C169	C	-0.353257	1.465068	-0.353417
C170	C	-0.103257	1.715068	-0.103417
C171	C	0.146743	1.965068	0.146583
C172	C	0.396743	2.215068	0.396583
C173	C	-0.320100	1.201589	-0.650609
C174	C	-0.070100	1.451589	-0.400609
C175	C	0.179900	1.701589	-0.150609
C176	C	0.429900	1.951589	0.099391
C177	C	-0.323037	1.198341	-0.724231
C178	C	-0.073037	1.448341	-0.474231
C179	C	0.176963	1.698341	-0.224231
C180	C	0.426963	1.948341	0.025769
C181	C	-0.369582	1.147114	-0.762833
C182	C	-0.119582	1.397114	-0.512833
C183	C	0.130418	1.647114	-0.262833
C184	C	0.380418	1.897114	-0.012833
C185	C	-0.413189	1.099125	-0.727809
C186	C	-0.163189	1.349125	-0.477809
C187	C	0.086811	1.599125	-0.227809
C188	C	0.336811	1.849125	0.022191
C189	C	-0.410248	1.102370	-0.654189
C190	C	-0.160248	1.352370	-0.404189
C191	C	0.089752	1.602370	-0.154189
C192	C	0.339752	1.852370	0.095811
C193	C	-0.383208	1.132088	-0.983207
C194	C	-0.133208	1.382088	-0.733207
C195	C	0.116792	1.632088	-0.483207
C196	C	0.366792	1.882088	-0.233207
C197	C	-0.386148	1.128849	-1.056832
C198	C	-0.136148	1.378849	-0.806832
C199	C	0.113852	1.628849	-0.556832
C200	C	0.363852	1.878849	-0.306832
C201	C	-0.295995	1.228064	-1.053249
C202	C	-0.045995	1.478064	-0.803249
C203	C	0.204005	1.728064	-0.553249
C204	C	0.454005	1.978064	-0.303249
C205	C	-0.293061	1.231308	-0.979627
C206	C	-0.043061	1.481308	-0.729627
C207	C	0.206939	1.731308	-0.479627
C208	C	0.456939	1.981308	-0.229627
C209	C	-0.336664	1.183316	-0.944610
C210	C	-0.086664	1.433316	-0.694610
C211	C	0.163336	1.683316	-0.444610
C212	C	0.413336	1.933316	-0.194610
N213	N	-0.372587	1.143795	-0.838086
N214	N	-0.122587	1.393795	-0.588086
N215	N	0.127413	1.643795	-0.338086
N216	N	0.377413	1.893795	-0.088086
N217	N	-0.333656	1.186632	-0.869358
N218	N	-0.083656	1.436632	-0.619358
N219	N	0.166344	1.686632	-0.369358
N220	N	0.416344	1.936632	-0.119358
C221	C	-0.345870	1.173239	-0.170213
C222	C	-0.095870	1.423239	0.079787
C223	C	0.154130	1.673239	0.329787
C224	C	0.404130	1.923239	0.579787
C225	C	-0.342543	1.176832	-0.091851
C226	C	-0.092543	1.426832	0.158149
C227	C	0.157457	1.676832	0.408149
C228	C	0.407457	1.926832	0.658149
H229	H	-1.087336	1.243300	-0.424484
H230	H	-0.837336	1.493300	-0.174484
H231	H	-0.587336	1.743300	0.075516
H232	H	-0.337336	1.993300	0.325516
H233	H	-0.255160	1.273025	-0.948203
H234	H	-0.005160	1.523025	-0.698203
H235	H	0.244840	1.773025	-0.448203
H236	H	0.494840	2.023025	-0.198203
H237	H	-0.282200	1.243307	-0.619185
H238	H	-0.032200	1.493307	-0.369185
H239	H	0.217800	1.743307	-0.119185
H240	H	0.467800	1.993307	0.130815
Br241	Br	-0.442384	1.066955	-0.935692
Br242	Br	-0.192384	1.316955	-0.685692
Br243	Br	0.057616	1.566955	-0.435692
Br244	Br	0.307616	1.816955	-0.185692
Br245	Br	-1.100074	1.037566	-0.237043
Br246	Br	-0.850074	1.287566	0.012957
Br247	Br	-0.600074	1.537566	0.262957
Br248	Br	-0.350074	1.787566	0.512957
H249	H	-0.445748	1.063288	-0.625677
H250	H	-0.195748	1.313288	-0.375677
H251	H	0.054252	1.563288	-0.125677
H252	H	0.304252	1.813288	0.124323
Br253	Br	-0.263890	1.263503	-0.771755
Br254	Br	-0.013890	1.513503	-0.521755
Br255	Br	0.236110	1.763503	-0.271755
Br256	Br	0.486110	2.013503	-0.021755
Br257	Br	-0.597485	1.059260	-0.256965
Br258	Br	-0.347485	1.309260	-0.006965
Br259	Br	-0.097485	1.559260	0.243035
Br260	Br	0.152515	1.809260	0.493035
H261	H	-0.953781	1.237341	-0.419076
H262	H	-0.703781	1.487341	-0.169076
H263	H	-0.453781	1.737341	0.080924
H264	H	-0.203781	1.987341	0.330924
Br265	Br	-0.236820	1.293191	-1.100776
Br266	Br	0.013180	1.543191	-0.850776
Br267	Br	0.263180	1.793191	-0.600776
Br268	Br	0.513180	2.043191	-0.350776
Br269	Br	-0.449318	1.059319	-1.109221
Br270	Br	-0.199318	1.309319	-0.859221
Br271	Br	0.050682	1.559319	-0.609221
Br272	Br	0.300682	1.809319	-0.359221
Br273	Br	-0.476354	1.029596	-0.780197
Br274	Br	-0.226354	1.279596	-0.530197
Br275	Br	0.023646	1.529596	-0.280197
Br276	Br	0.273646	1.779596	-0.030197
H277	H	-0.758281	1.272770	-0.451398
H278	H	-0.508281	1.522770	-0.201398
H279	H	-0.258281	1.772770	0.048602
H280	H	-0.008281	2.022770	0.298602
H281	H	-0.751968	1.093014	-0.287663
H282	H	-0.501968	1.343014	-0.037663
H283	H	-0.251968	1.593014	0.212337
H284	H	-0.001968	1.843014	0.462337
Br285	Br	-0.926545	1.029809	-0.230035
Br286	Br	-0.676545	1.279809	0.019965
Br287	Br	-0.426545	1.529809	0.269965
Br288	Br	-0.176545	1.779809	0.519965
Br289	Br	-0.605684	1.292788	-0.469706
Br290	Br	-0.355684	1.542788	-0.219706
Br291	Br	-0.105684	1.792788	0.030294
Br292	Br	0.144316	2.042788	0.280294
