data_functionalizedCrystal
_audit_creation_method	'MofGen! by Chris Wilmer'
_symmetry_space_group_name_H-M	'P1'
_symmetry_Int_Tables_number	1
_symmetry_cell_setting	triclinic
loop_
_symmetry_equiv_pos_as_xyz
  x,y,z
_cell_length_a	19.377372
_cell_length_b	14.809436
_cell_length_c	14.809374
_cell_angle_alpha	60.797024
_cell_angle_beta	87.767910
_cell_angle_gamma	78.644746
loop_
_atom_site_label
_atom_site_type_symbol
_atom_site_fract_x
_atom_site_fract_y
_atom_site_fract_z
Zr1	Zr	0.699809	1.243952	-0.380233
O2	O	0.622194	1.369852	-0.507817
O3	O	0.712617	1.071466	-0.325383
O4	O	0.738530	1.231308	-0.518464
O5	O	0.588335	1.236229	-0.180334
O6	O	0.842795	1.274327	-0.544766
O7	O	0.596280	1.210010	-0.314736
O8	O	0.796440	0.988399	-0.199381
O9	O	0.634690	1.522157	-0.525720
O10	O	0.809163	1.191770	-0.340635
O11	O	0.725422	1.179232	-0.220703
O12	O	0.755932	1.367425	-0.448031
O13	O	0.672191	1.354888	-0.328099
Zr14	Zr	0.853427	1.354376	-0.207828
Zr15	Zr	0.866099	1.312561	-0.422183
Zr16	Zr	0.687137	1.285767	-0.165878
Zr17	Zr	0.719739	1.486860	-0.408788
Zr18	Zr	0.833497	1.111468	-0.179273
O19	O	0.840619	1.526862	-0.262678
O20	O	0.858636	1.467406	-0.567463
O21	O	0.604176	1.429308	-0.203031
O22	O	0.931042	1.228476	-0.080244
O23	O	0.949059	1.169020	-0.385030
O24	O	0.694599	1.130922	-0.020598
O25	O	0.964901	1.362099	-0.407727
O26	O	0.814705	1.367020	-0.069597
O27	O	0.710441	1.324001	-0.043295
O28	O	0.956956	1.388318	-0.273325
O29	O	0.766868	1.576692	-0.559064
O30	O	0.786368	1.021636	-0.028997
O31	O	0.918546	1.076171	-0.062341
O32	O	0.928618	1.042934	-0.232725
O33	O	0.624618	1.555394	-0.355336
O34	O	0.756796	1.609929	-0.388681
O35	O	0.797304	1.230903	-0.140030
O36	O	0.881045	1.243440	-0.259962
O37	O	0.827814	1.419096	-0.367358
O38	O	0.744073	1.406558	-0.247426
C39	C	0.751689	0.995323	-0.258314
C40	C	0.743228	0.892203	-0.246192
C41	C	0.772243	0.745879	-0.287776
C42	C	0.780997	0.852452	-0.300293
C43	C	0.568615	1.213344	-0.241558
C44	C	0.498020	1.184218	-0.223750
C45	C	0.126919	1.546864	-0.445477
C46	C	0.060592	1.519471	-0.428727
C47	C	0.116170	1.336101	-0.316615
C48	C	0.182503	1.363479	-0.333351
C49	C	0.187871	1.468862	-0.397784
C50	C	0.243455	1.285476	-0.285658
C51	C	0.309782	1.312852	-0.302397
C52	C	0.315157	1.418230	-0.366830
C53	C	0.254198	1.496238	-0.414524
C54	C	0.238086	1.180093	-0.221231
C55	C	0.299038	1.102090	-0.173537
C56	C	0.365366	1.129466	-0.190271
C57	C	0.370741	1.234844	-0.254703
C58	C	0.426325	1.051459	-0.142577
C59	C	0.492652	1.078834	-0.159317
C60	C	0.437068	1.262220	-0.271443
C61	C	0.984621	1.384984	-0.346503
C62	C	1.055215	1.414110	-0.364311
C63	C	0.792468	1.246860	-0.562156
C64	C	0.797848	1.229108	-0.653156
C65	C	0.801547	1.603005	-0.329747
C66	C	0.810008	1.706125	-0.341869
C67	C	0.773840	1.308331	-0.747002
C68	C	0.779399	1.289986	-0.841055
C69	C	0.760768	1.351468	-0.025905
C70	C	0.755388	1.369220	0.065094
C71	C	0.959692	1.081143	-0.310786
C72	C	1.021826	1.007149	-0.316472
C73	C	0.735838	1.047627	0.009812
C74	C	0.721998	0.962258	0.112933
C75	C	0.943842	1.133447	-0.042660
C76	C	1.000596	1.077205	0.042653
C77	C	0.609394	1.464881	-0.545401
C78	C	0.552640	1.521123	-0.630714
C79	C	0.593544	1.517185	-0.277275
C80	C	0.531410	1.591179	-0.271589
C81	C	0.817397	1.550700	-0.597873
C82	C	0.831237	1.636070	-0.700994
C83	C	1.013483	0.945427	-0.361262
C84	C	1.071860	0.875909	-0.366626
C85	C	1.138578	0.868108	-0.327191
C86	C	1.146920	0.929839	-0.282400
C87	C	1.088544	0.999361	-0.277045
C88	C	0.753020	0.949141	0.203480
C89	C	0.740013	0.868942	0.300381
C90	C	0.695989	0.801856	0.306732
C91	C	0.664964	0.814978	0.216176
C92	C	0.677966	0.895181	0.119278
C93	C	1.070967	1.057340	0.020112
C94	C	1.124302	1.004508	0.100261
C95	C	1.107263	0.971536	0.202951
C96	C	1.036885	0.991407	0.225491
C97	C	0.983552	1.044244	0.145342
C98	C	0.482270	1.541000	-0.608174
C99	C	0.428938	1.593861	-0.688327
C100	C	0.445977	1.626839	-0.791017
C101	C	0.516354	1.606962	-0.813557
C102	C	0.569685	1.554108	-0.733406
C103	C	0.539754	1.652909	-0.226809
C104	C	0.481381	1.722450	-0.221472
C105	C	0.414663	1.730253	-0.260910
C106	C	0.406321	1.668519	-0.305696
C107	C	0.464694	1.598985	-0.311039
C108	C	0.875265	1.703134	-0.707312
C109	C	0.888283	1.783343	-0.804200
C110	C	0.857269	1.796489	-0.894768
C111	C	0.813239	1.729415	-0.888447
C112	C	0.800225	1.649204	-0.791561
H113	H	0.441436	1.348039	-0.323882
Br114	Br	0.812774	1.040168	0.194888
H115	H	0.258566	1.582057	-0.466962
H116	H	1.201250	0.923477	-0.250296
Br117	Br	1.013773	0.946652	0.364862
H118	H	0.402544	1.669875	-0.856272
H119	H	1.095346	1.049610	-0.240566
H120	H	0.371637	1.610034	-0.669954
H121	H	0.131287	1.632684	-0.497916
H122	H	0.804073	1.208574	-0.830335
Br123	Br	0.740463	1.558200	-0.783004
Br124	Br	0.678531	0.817443	-0.153549
H125	H	0.488186	1.772706	-0.184999
Br126	Br	0.148070	1.142936	-0.198525
Br127	Br	0.782127	0.851151	0.423262
Br128	Br	0.771146	1.747279	-1.011370
Br129	Br	0.678349	0.693013	0.438247
H130	H	0.959164	0.951775	-0.393389
Br131	Br	1.217796	0.773749	-0.334469
Br132	Br	0.707564	0.671100	-0.195117
Br133	Br	0.605218	0.723923	0.224814
Br134	Br	-0.022131	1.625341	-0.493476
H135	H	0.421944	0.965655	-0.090124
Br136	Br	0.714274	1.504920	-0.952789
H137	H	1.181603	0.988335	0.081890
H138	H	0.530220	1.633819	-0.897177
Br139	Br	0.845699	0.927209	-0.392927
Br140	Br	0.635861	0.912966	-0.003601
Br141	Br	0.732728	1.444024	-0.764875
H142	H	1.150697	0.928513	0.268204
Br143	Br	0.575378	0.972973	-0.094598
H144	H	0.848823	0.750985	-0.397444
Br145	Br	0.405173	1.455386	-0.389557
Br146	Br	0.335448	1.824627	-0.253651
H147	H	1.084854	1.084179	-0.063498
H148	H	0.626983	1.537924	-0.751770
H149	H	0.351991	1.674884	-0.337804
Br150	Br	0.291745	0.959075	-0.086099
Br151	Br	0.838975	1.093421	-0.635286
H152	H	1.065054	0.825652	-0.403098
Br153	Br	0.888048	1.071190	0.175953
Br154	Br	0.459126	1.496251	-0.468815
Br155	Br	0.453357	1.515208	-0.371811
H156	H	0.594073	1.646564	-0.194686
Br157	Br	0.917366	1.685315	-0.584414
H158	H	0.111789	1.250297	-0.264156
H159	H	0.924134	1.837950	-0.809327
Br160	Br	0.874936	1.905356	-1.026250
