data_functionalizedCrystal
_audit_creation_method	'MofGen! by Chris Wilmer'
_symmetry_space_group_name_H-M	'P1'
_symmetry_Int_Tables_number	1
_symmetry_cell_setting	triclinic
loop_
_symmetry_equiv_pos_as_xyz
  x,y,z
_cell_length_a	16.625548
_cell_length_b	19.121063
_cell_length_c	16.625539
_cell_angle_alpha	92.410374
_cell_angle_beta	89.982945
_cell_angle_gamma	92.470058
loop_
_atom_site_label
_atom_site_type_symbol
_atom_site_fract_x
_atom_site_fract_y
_atom_site_fract_z
Zn1	Zn	1.218929	-0.279606	-0.469578
Zn2	Zn	1.552263	0.053727	-0.136244
Zn3	Zn	1.885596	0.387061	0.197089
Zn4	Zn	1.213076	-0.397060	-0.340487
Zn5	Zn	1.546410	-0.063727	-0.007153
Zn6	Zn	1.879743	0.269607	0.326180
Zn7	Zn	1.084098	-0.279629	-0.334759
Zn8	Zn	1.417432	0.053704	-0.001426
Zn9	Zn	1.750765	0.387038	0.331907
Zn10	Zn	1.078299	-0.397023	-0.475275
Zn11	Zn	1.411632	-0.063690	-0.141941
Zn12	Zn	1.744965	0.269643	0.191392
O13	O	1.148601	-0.338330	-0.405025
O14	O	1.481934	-0.004996	-0.071691
O15	O	1.815267	0.328337	0.261642
O16	O	1.330985	-0.295192	-0.452466
O17	O	1.664318	0.038141	-0.119133
O18	O	1.997652	0.371474	0.214200
O19	O	1.195945	-0.381507	-0.226896
O20	O	1.529278	-0.048174	0.106438
O21	O	1.862611	0.285159	0.439771
O22	O	1.106861	-0.181341	-0.347862
O23	O	1.440194	0.151992	-0.014529
O24	O	1.773527	0.485325	0.318804
O25	O	1.326685	-0.381485	-0.357624
O26	O	1.660018	-0.048152	-0.024290
O27	O	1.993351	0.285182	0.309043
O28	O	1.205920	-0.181324	-0.446913
O29	O	1.539254	0.152009	-0.113579
O30	O	1.872587	0.485342	0.219754
O31	O	1.101185	-0.295231	-0.222688
O32	O	1.434518	0.038102	0.110645
O33	O	1.767852	0.371435	0.443979
O34	O	0.970497	-0.295196	-0.353386
O35	O	1.303830	0.038137	-0.020053
O36	O	1.637164	0.371471	0.313280
O37	O	1.096976	-0.381423	-0.587350
O38	O	1.430309	-0.048090	-0.254017
O39	O	1.763643	0.285244	0.079316
O40	O	0.966236	-0.381445	-0.456622
O41	O	1.299569	-0.048112	-0.123289
O42	O	1.632903	0.285222	0.210044
O43	O	1.200297	-0.295157	-0.583165
O44	O	1.533630	0.038176	-0.249831
O45	O	1.866964	0.371510	0.083502
O46	O	1.190321	-0.495340	-0.363148
O47	O	1.523654	-0.162007	-0.029814
O48	O	1.856988	0.171327	0.303519
O49	O	1.091301	-0.495313	-0.462176
O50	O	1.424634	-0.161980	-0.128843
O51	O	1.757967	0.171354	0.204491
C52	C	0.939110	-0.338320	-0.405002
C53	C	1.272444	-0.004986	-0.071668
C54	C	1.605777	0.328347	0.261665
C55	C	0.849489	-0.338332	-0.405012
C56	C	1.182822	-0.004999	-0.071678
C57	C	1.516155	0.328334	0.261655
C58	C	1.139568	-0.520811	-0.413919
C59	C	1.472902	-0.187477	-0.080586
C60	C	1.806235	0.145856	0.252748
C61	C	1.135778	-0.598877	-0.417751
C62	C	1.469111	-0.265543	-0.084418
C63	C	1.802444	0.067790	0.248916
C64	C	0.521313	-0.338337	-0.405046
C65	C	0.854646	-0.005003	-0.071713
C66	C	1.187979	0.328330	0.261620
C67	C	0.612621	-0.338334	-0.405034
C68	C	0.945955	-0.005000	-0.071701
C69	C	1.279288	0.328333	0.261633
C70	C	0.685398	-0.338335	-0.405028
C71	C	1.018731	-0.005002	-0.071695
C72	C	1.352064	0.328332	0.261638
C73	C	0.776712	-0.338331	-0.405017
C74	C	1.110046	-0.004998	-0.071684
C75	C	1.443379	0.328336	0.261649
C76	C	1.185592	-0.635543	-0.368035
C77	C	1.518925	-0.302210	-0.034702
C78	C	1.852258	0.031124	0.298631
C79	C	1.182032	-0.708894	-0.371644
C80	C	1.515365	-0.375561	-0.038311
C81	C	1.848698	-0.042228	0.295023
C82	C	1.128653	-0.745578	-0.424965
C83	C	1.461986	-0.412245	-0.091632
C84	C	1.795320	-0.078911	0.241702
C85	C	1.078837	-0.708907	-0.474686
C86	C	1.412170	-0.375573	-0.141353
C87	C	1.745504	-0.042240	0.191981
C88	C	1.082402	-0.635557	-0.471081
C89	C	1.415735	-0.302223	-0.137748
C90	C	1.749068	0.031110	0.195586
C91	C	1.115313	-0.967048	-0.438432
C92	C	1.448646	-0.633715	-0.105098
C93	C	1.781979	-0.300382	0.228235
C94	C	1.111750	-1.040404	-0.442031
C95	C	1.445083	-0.707070	-0.108698
C96	C	1.778417	-0.373737	0.224635
C97	C	1.214946	-1.040386	-0.338990
C98	C	1.548279	-0.707053	-0.005657
C99	C	1.881613	-0.373720	0.327677
C100	C	1.218503	-0.967035	-0.335386
C101	C	1.551836	-0.633701	-0.002053
C102	C	1.885169	-0.300368	0.331281
C103	C	1.168690	-0.930370	-0.385110
C104	C	1.502023	-0.597036	-0.051777
C105	C	1.835356	-0.263703	0.281557
C106	C	1.125011	-0.820555	-0.428653
C107	C	1.458344	-0.487222	-0.095320
C108	C	1.791678	-0.153888	0.238013
C109	C	1.172336	-0.855394	-0.381425
C110	C	1.505670	-0.522061	-0.048092
C111	C	1.839003	-0.188727	0.285241
C112	C	1.358909	-0.338340	-0.405048
C113	C	1.692242	-0.005007	-0.071715
C114	C	2.025576	0.328326	0.261618
C115	C	1.448530	-0.338345	-0.405058
C116	C	1.781863	-0.005011	-0.071725
C117	C	2.115197	0.328322	0.261608
C118	C	1.148642	-0.338283	-0.615331
C119	C	1.481976	-0.004950	-0.281998
C120	C	1.815309	0.328383	0.051335
C121	C	1.148660	-0.338264	-0.704952
C122	C	1.481994	-0.004930	-0.371618
C123	C	1.815327	0.328403	-0.038285
C124	C	1.157690	-0.155136	-0.396113
C125	C	1.491024	0.178197	-0.062780
C126	C	1.824357	0.511531	0.270554
C127	C	1.161564	-0.077070	-0.392316
C128	C	1.494897	0.256263	-0.058982
C129	C	1.828231	0.589597	0.274351
C130	C	1.148674	-0.338248	-0.777733
C131	C	1.482008	-0.004915	-0.444400
C132	C	1.815341	0.328419	-0.111067
C133	C	1.148694	-0.338222	-0.869041
C134	C	1.482028	-0.004888	-0.535707
C135	C	1.815361	0.328445	-0.202374
C136	C	1.148715	-0.338197	-0.941816
C137	C	1.482048	-0.004864	-0.608482
C138	C	1.815381	0.328470	-0.275149
C139	C	1.148736	-0.338172	-1.033129
C140	C	1.482069	-0.004838	-0.699796
C141	C	1.815403	0.328495	-0.366462
C142	C	1.148608	-0.338325	-0.195534
C143	C	1.481941	-0.004992	0.137800
C144	C	1.815275	0.328342	0.471133
C145	C	1.148756	-0.338147	-0.105904
C146	C	1.482089	-0.004814	0.227429
C147	C	1.815423	0.328520	0.560762
H148	H	1.229055	-0.605680	-0.324612
H149	H	1.562388	-0.272347	0.008721
H150	H	1.895722	0.060987	0.342054
H151	H	1.035379	-0.738781	-0.518105
H152	H	1.368712	-0.405447	-0.184771
H153	H	1.702045	-0.072114	0.148562
H154	H	1.074751	-0.937202	-0.478917
H155	H	1.408085	-0.603868	-0.145584
H156	H	1.741418	-0.270535	0.187749
H157	H	1.255502	-1.070247	-0.298509
H158	H	1.588835	-0.736913	0.034825
H159	H	1.922169	-0.403580	0.368158
N160	N	1.028677	-0.596006	-0.524705
N161	N	1.362011	-0.262672	-0.191372
N162	N	1.695344	0.070661	0.141962
H163	H	0.994320	-0.630374	-0.559030
H164	H	1.327653	-0.297040	-0.225697
H165	H	1.660986	0.036293	0.107637
H166	H	0.992860	-0.565617	-0.490358
H167	H	1.326193	-0.232284	-0.157025
H168	H	1.659527	0.101049	0.176309
H169	H	1.068292	-1.070270	-0.485466
H170	H	1.401626	-0.736936	-0.152132
H171	H	1.734959	-0.403603	0.181201
N172	N	1.229910	-0.815828	-0.323922
N173	N	1.563243	-0.482495	0.009411
N174	N	1.896576	-0.149161	0.342745
H175	H	1.198637	-0.785440	-0.285038
H176	H	1.531971	-0.452107	0.048295
H177	H	1.865304	-0.118773	0.381629
H178	H	1.260916	-0.850226	-0.293025
H179	H	1.594250	-0.516892	0.040309
H180	H	1.927583	-0.183559	0.373642
N181	N	1.235756	-0.748444	-0.318021
N182	N	1.569090	-0.415110	0.015312
N183	N	1.902423	-0.081777	0.348646
H184	H	1.293982	-0.735626	-0.329962
H185	H	1.627315	-0.402292	0.003372
H186	H	1.960649	-0.068959	0.336705
H187	H	1.223814	-0.735708	-0.259796
H188	H	1.557147	-0.402374	0.073537
H189	H	1.890481	-0.069041	0.406871
N190	N	1.276087	-0.927470	-0.277888
N191	N	1.609420	-0.594136	0.055446
N192	N	1.942754	-0.260803	0.388779
H193	H	1.307110	-0.961829	-0.246944
H194	H	1.640443	-0.628495	0.086389
H195	H	1.973776	-0.295162	0.419722
H196	H	1.314856	-0.896995	-0.309259
H197	H	1.648189	-0.563662	0.024074
H198	H	1.981523	-0.230329	0.357408
N199	N	1.067432	-0.860119	-0.486158
N200	N	1.400765	-0.526786	-0.152824
N201	N	1.734099	-0.193453	0.180509
H202	H	1.098699	-0.890507	-0.525046
H203	H	1.432032	-0.557173	-0.191713
H204	H	1.765366	-0.223840	0.141620
H205	H	1.028624	-0.890559	-0.454788
H206	H	1.361957	-0.557225	-0.121455
H207	H	1.695291	-0.223892	0.211879
