data_functionalizedCrystal
_audit_creation_method	'MofGen! by Chris Wilmer'
_symmetry_space_group_name_H-M	'P1'
_symmetry_Int_Tables_number	1
_symmetry_cell_setting	triclinic
loop_
_symmetry_equiv_pos_as_xyz
  x,y,z
_cell_length_a	19.188930
_cell_length_b	15.625950
_cell_length_c	14.750779
_cell_angle_alpha	120.090508
_cell_angle_beta	77.396187
_cell_angle_gamma	83.723680
loop_
_atom_site_label
_atom_site_type_symbol
_atom_site_fract_x
_atom_site_fract_y
_atom_site_fract_z
O1	O	0.021527	1.286118	0.367712
O2	O	0.521527	1.786118	0.867712
O3	O	0.051304	0.999070	0.267820
O4	O	0.551304	1.499070	0.767820
O5	O	-0.065764	1.150882	0.320669
O6	O	0.434236	1.650882	0.820669
O7	O	0.138596	1.134305	0.314863
O8	O	0.638596	1.634305	0.814863
O9	O	-0.098855	1.193798	0.495260
O10	O	0.401145	1.693798	0.995260
O11	O	0.018214	1.041986	0.442410
O12	O	0.518214	1.541986	0.942410
O13	O	-0.011563	1.329033	0.542302
O14	O	0.488437	1.829033	1.042302
Zn15	Zn	-0.001929	1.192323	0.520076
Zn16	Zn	0.498071	1.692323	1.020076
Zn17	Zn	0.041670	1.135780	0.290046
Zn18	Zn	0.541670	1.635780	0.790046
O19	O	0.105505	1.177221	0.489453
O20	O	0.605505	1.677221	0.989453
C21	C	0.036687	0.983804	0.342336
C22	C	0.536687	1.483804	0.842336
C23	C	0.042424	0.874378	0.304257
C24	C	0.542424	1.374378	0.804257
C25	C	-0.028832	0.631333	0.654736
C26	C	0.471168	1.131333	1.154736
C27	C	-0.023418	0.528496	0.618906
C28	C	0.476582	1.028496	1.118906
C29	C	0.012653	0.481762	0.428593
C30	C	0.512653	0.981762	0.928593
C31	C	0.007245	0.584596	0.464407
C32	C	0.507245	1.084596	0.964407
C33	C	-0.013498	0.659374	0.577480
C34	C	0.486502	1.159374	1.077480
C35	C	0.022579	0.612638	0.387150
C36	C	0.522579	1.112638	0.887150
C37	C	0.017168	0.715464	0.422962
C38	C	0.517168	1.215464	0.922962
C39	C	-0.003577	0.790247	0.536031
C40	C	0.496423	1.290247	1.036031
C41	C	-0.018909	0.762200	0.613292
C42	C	0.481091	1.262200	1.113292
C43	C	0.043318	0.537859	0.274078
C44	C	0.543318	1.037859	0.774078
C45	C	0.058652	0.565901	0.196822
C46	C	0.558652	1.065901	0.696822
C47	C	0.053246	0.668727	0.232633
C48	C	0.553246	1.168727	0.732633
C49	C	0.032501	0.743511	0.345701
C50	C	0.532501	1.243511	0.845701
C51	C	0.068579	0.696775	0.155372
C52	C	0.568579	1.196775	0.655372
C53	C	0.063168	0.799600	0.191184
C54	C	0.563168	1.299600	0.691184
C55	C	0.027090	0.846337	0.381513
C56	C	0.527090	1.346337	0.881513
C57	C	-0.108288	1.171804	0.407781
C58	C	0.391712	1.671804	0.907781
C59	C	-0.185693	1.170196	0.407229
C60	C	0.314307	1.670196	0.907229
C61	C	-0.236216	1.259273	0.438233
C62	C	0.263784	1.759273	0.938233
C63	C	-0.308942	1.257756	0.437689
C64	C	0.191058	1.757756	0.937689
C65	C	-0.331144	1.167162	0.406162
C66	C	0.168856	1.667162	0.906162
C67	C	-0.280608	1.078072	0.375149
C68	C	0.219392	1.578072	0.875149
C69	C	-0.207883	1.079589	0.375683
C70	C	0.292117	1.579589	0.875683
N71	N	-0.446058	1.112519	0.441480
N72	N	0.053942	1.612519	0.941480
N73	N	-0.515145	1.111084	0.440978
N74	N	-0.015145	1.611084	0.940978
C75	C	-0.550261	1.162585	0.404550
C76	C	-0.050261	1.662585	0.904550
N77	N	-0.513684	1.215593	0.368662
N78	N	-0.013684	1.715593	0.868662
N79	N	-0.444591	1.217031	0.369170
N80	N	0.055409	1.717031	0.869170
C81	C	-0.410001	1.165507	0.405579
C82	C	0.089999	1.665507	0.905579
C83	C	-0.679643	1.250022	0.434964
C84	C	-0.179643	1.750022	0.934964
C85	C	-0.752368	1.248500	0.434413
C86	C	-0.252368	1.748500	0.934413
C87	C	-0.724035	1.068816	0.371883
C88	C	-0.224035	1.568816	0.871883
C89	C	-0.651310	1.070339	0.372424
C90	C	-0.151310	1.570339	0.872424
C91	C	-0.629119	1.160946	0.403971
C92	C	-0.129119	1.660946	0.903971
C93	C	0.148029	1.156298	0.402340
C94	C	0.648029	1.656298	0.902340
C95	C	0.225435	1.157905	0.402884
C96	C	0.725435	1.657905	0.902884
C97	C	0.003054	1.344299	0.467785
C98	C	0.503054	1.844299	0.967785
C99	C	-0.002682	1.453722	0.505857
C100	C	0.497318	1.953722	1.005857
N101	N	-0.031684	1.230919	0.677068
N102	N	0.468316	1.730919	1.177068
N103	N	0.071419	1.097192	0.133057
N104	N	0.571419	1.597192	0.633057
C105	C	0.154491	0.989398	0.944808
C106	C	0.654491	1.489398	1.444808
C107	C	0.133645	1.016451	1.054724
C108	C	0.633645	1.516451	1.554724
C109	C	0.030014	1.150908	1.101495
C110	C	0.530014	1.650908	1.601495
C111	C	0.050849	1.123863	0.991578
C112	C	0.550849	1.623863	1.491578
C113	C	0.113089	1.043108	0.913243
C114	C	0.613089	1.543108	1.413243
C115	C	0.009447	1.177573	0.960014
C116	C	0.509447	1.677573	1.460014
C117	C	0.030284	1.150533	0.850108
C118	C	0.530284	1.650533	1.350108
C119	C	0.092523	1.069784	0.771767
C120	C	0.592523	1.569784	1.271767
C121	C	0.133926	1.016068	0.803337
C122	C	0.633926	1.516068	1.303337
C123	C	-0.052789	1.258333	1.038353
C124	C	0.447211	1.758333	1.538353
C125	C	-0.094191	1.312043	1.006788
C126	C	0.405809	1.812043	1.506788
C127	C	-0.073358	1.284999	0.896879
C128	C	0.426642	1.784999	1.396879
C129	C	-0.011119	1.204249	0.818538
C130	C	0.488881	1.704249	1.318538
C131	C	-0.114761	1.338714	0.865309
C132	C	0.385239	1.838714	1.365309
C133	C	-0.093924	1.311674	0.755404
C134	C	0.406076	1.811674	1.255404
C135	C	0.009718	1.177209	0.708633
C136	C	0.509718	1.677209	1.208633
H137	H	0.029539	0.420866	0.336528
H138	H	0.529539	0.920866	0.836528
H139	H	-0.742110	0.995051	0.346207
H140	H	-0.242110	1.495051	0.846207
Cl141	Cl	-0.044979	0.856213	0.755443
Cl142	Cl	0.455021	1.356213	1.255443
H143	H	-0.144866	1.377797	1.070582
H144	H	0.355134	1.877797	1.570582
H145	H	-0.020661	1.216662	1.165288
H146	H	0.479339	1.716662	1.665288
Cl147	Cl	-0.078978	1.292326	1.176522
Cl148	Cl	0.421022	1.792326	1.676522
H149	H	-0.165433	1.404472	0.929106
H150	H	0.334567	1.904472	1.429106
H151	H	-0.045713	0.692220	0.746811
H152	H	0.454287	1.192220	1.246811
H153	H	0.047727	0.454133	0.244923
H154	H	0.547727	0.954133	0.744923
Cl155	Cl	0.084706	0.471891	0.054679
Cl156	Cl	0.584706	0.971891	0.554679
Cl157	Cl	-0.010385	0.919518	0.581055
Cl158	Cl	0.489615	1.419518	1.081055
H159	H	-0.298690	1.004309	0.349477
H160	H	0.201310	1.504309	0.849477
H161	H	-0.127638	1.355412	0.729706
H162	H	0.372362	1.855412	1.229706
H163	H	-0.610172	0.997804	0.347184
H164	H	-0.110172	1.497804	0.847184
H165	H	-0.350085	1.330294	0.462932
H166	H	0.149915	1.830294	0.962932
Cl167	Cl	0.094627	0.602764	0.013230
Cl168	Cl	0.594627	1.102764	0.513230
Cl169	Cl	-0.042711	0.493252	0.716043
Cl170	Cl	0.457289	0.993252	1.216043
H171	H	0.205169	0.923632	0.881020
H172	H	0.705169	1.423632	1.381020
H173	H	0.060395	1.111443	0.644845
H174	H	0.560395	1.611443	1.144845
Cl175	Cl	-0.144363	0.967597	0.336704
Cl176	Cl	0.355637	1.467597	0.836704
Cl177	Cl	0.118721	1.035794	0.633600
Cl178	Cl	0.618721	1.535794	1.133600
Cl179	Cl	-0.208318	1.373171	0.477862
Cl180	Cl	0.291682	1.873171	0.977862
Cl181	Cl	0.001021	0.940350	0.523665
Cl182	Cl	0.501021	1.440350	1.023665
Cl183	Cl	-0.815885	1.360491	0.473385
Cl184	Cl	-0.315885	1.860491	0.973385
Cl185	Cl	0.082444	0.834857	0.094061
Cl186	Cl	0.582444	1.334857	0.594061
H187	H	-0.661574	1.323799	0.460647
H188	H	-0.161574	1.823799	0.960647
Cl189	Cl	0.212166	0.914534	0.704850
Cl190	Cl	0.712166	1.414534	1.204850
Cl191	Cl	0.185704	0.948919	1.094395
Cl192	Cl	0.685704	1.448919	1.594395
