data_functionalizedCrystal
_audit_creation_method	'MofGen! by Chris Wilmer'
_symmetry_space_group_name_H-M	'P1'
_symmetry_Int_Tables_number	1
_symmetry_cell_setting	triclinic
loop_
_symmetry_equiv_pos_as_xyz
  x,y,z
_cell_length_a	18.101398
_cell_length_b	18.101395
_cell_length_c	18.101389
_cell_angle_alpha	90.016841
_cell_angle_beta	90.024327
_cell_angle_gamma	90.026371
loop_
_atom_site_label
_atom_site_type_symbol
_atom_site_fract_x
_atom_site_fract_y
_atom_site_fract_z
Zn1	Zn	1.132121	-0.295001	0.418847
Zn2	Zn	1.632121	0.204999	0.918847
Zn3	Zn	1.132017	-0.418826	0.295009
Zn4	Zn	1.632017	0.081174	0.795009
Zn5	Zn	1.008280	-0.294993	0.295008
Zn6	Zn	1.508280	0.205007	0.795008
Zn7	Zn	1.008231	-0.418795	0.418797
Zn8	Zn	1.508231	0.081205	0.918797
O9	O	1.070162	-0.356904	0.356915
O10	O	1.570162	0.143096	0.856915
O11	O	1.235740	-0.311443	0.402440
O12	O	1.735740	0.188557	0.902440
O13	O	1.115580	-0.402410	0.191376
O14	O	1.615580	0.097590	0.691376
O15	O	1.024772	-0.191361	0.311456
O16	O	1.524772	0.308639	0.811456
O17	O	1.235664	-0.402417	0.311457
O18	O	1.735664	0.097583	0.811457
O19	O	1.115757	-0.191367	0.402440
O20	O	1.615757	0.308633	0.902440
O21	O	1.024671	-0.311430	0.191375
O22	O	1.524671	0.188570	0.691375
O23	O	0.904641	-0.311399	0.311408
O24	O	1.404641	0.188601	0.811408
O25	O	1.024688	-0.402363	0.522437
O26	O	1.524688	0.097637	1.022437
O27	O	0.904604	-0.402356	0.402355
O28	O	1.404604	0.097644	0.902355
O29	O	1.115710	-0.311412	0.522473
O30	O	1.615710	0.188588	1.022473
O31	O	1.115532	-0.522455	0.311409
O32	O	1.615532	-0.022455	0.811409
O33	O	1.024587	-0.522432	0.402356
O34	O	1.524587	-0.022432	0.902356
C35	C	0.877752	-0.356874	0.356877
C36	C	1.377752	0.143126	0.856877
C37	C	0.795437	-0.356879	0.356878
C38	C	1.295437	0.143121	0.856878
C39	C	0.496347	-0.356925	0.356940
C40	C	0.996347	0.143075	0.856940
C41	C	0.527670	-0.299412	0.299997
C42	C	1.027670	0.200588	0.799997
C43	C	0.613288	-0.299566	0.299754
C44	C	1.113288	0.200434	0.799754
C45	C	0.644729	-0.356901	0.356909
C46	C	1.144729	0.143099	0.856909
C47	C	0.613611	-0.434909	0.335587
C48	C	1.113611	0.065091	0.835587
C49	C	0.527966	-0.434590	0.335191
C50	C	1.027966	0.065410	0.835191
C51	C	0.527961	-0.337109	0.435339
C52	C	1.027961	0.162891	0.935339
C53	C	0.613612	-0.335371	0.434911
C54	C	1.113612	0.164629	0.934911
C55	C	0.728589	-0.356893	0.356893
C56	C	1.228589	0.143107	0.856893
C57	C	0.412487	-0.356939	0.356954
C58	C	0.912487	0.143061	0.856954
C59	C	1.070063	-0.549314	0.356893
C60	C	1.570063	-0.049314	0.856893
C61	C	1.070088	-0.631628	0.356909
C62	C	1.570088	-0.131628	0.856909
C63	C	1.070251	-0.930719	0.356949
C64	C	1.570251	-0.430719	0.856949
C65	C	1.013163	-0.899410	0.414312
C66	C	1.513163	-0.399410	0.914312
C67	C	1.012892	-0.813792	0.414133
C68	C	1.512892	-0.313792	0.914133
C69	C	1.070170	-0.782337	0.356930
C70	C	1.570170	-0.282337	0.856930
C71	C	1.049041	-0.813472	0.278878
C72	C	1.549041	-0.313472	0.778878
C73	C	1.048673	-0.899117	0.279221
C74	C	1.548673	-0.399117	0.779221
C75	C	1.148593	-0.899073	0.376950
C76	C	1.648593	-0.399073	0.876950
C77	C	1.148132	-0.813422	0.378661
C78	C	1.648132	-0.313422	0.878661
C79	C	1.070126	-0.698477	0.356914
C80	C	1.570126	-0.198477	0.856914
C81	C	1.070293	-1.014579	0.356959
C82	C	1.570293	-0.514579	0.856959
C83	C	1.263324	-0.356934	0.356954
C84	C	1.763324	0.143066	0.856954
C85	C	1.345638	-0.356948	0.356971
C86	C	1.845638	0.143052	0.856971
C87	C	1.070205	-0.356885	0.550077
C88	C	1.570205	0.143115	1.050077
C89	C	1.070223	-0.356877	0.632391
C90	C	1.570223	0.143123	1.132391
C91	C	1.070282	-0.163742	0.356953
C92	C	1.570282	0.336258	0.856953
C93	C	1.070333	-0.081428	0.356970
C94	C	1.570333	0.418572	0.856970
C95	C	1.070162	-0.356869	0.164505
C96	C	1.570162	0.143131	0.664505
C97	C	1.070287	-0.356668	0.082191
C98	C	1.570287	0.143332	0.582191
C99	C	1.070266	-0.356738	0.931482
C100	C	1.570266	0.143262	1.431482
C101	C	1.012801	-0.413780	0.900134
C102	C	1.512801	0.086220	1.400134
C103	C	1.012956	-0.414045	0.814516
C104	C	1.512956	0.085955	1.314516
C105	C	1.070244	-0.356807	0.783100
C106	C	1.570244	0.143193	1.283100
C107	C	1.148270	-0.377998	0.814206
C108	C	1.648270	0.122002	1.314206
C109	C	1.147949	-0.378372	0.899851
C110	C	1.647949	0.121628	1.399851
C111	C	1.050385	-0.278379	0.899905
C112	C	1.550385	0.221621	1.399905
C113	C	1.048649	-0.278832	0.814254
C114	C	1.548649	0.221168	1.314254
C115	C	1.070237	-0.356845	0.699240
C116	C	1.570237	0.143155	1.199240
C117	C	1.070279	-0.356702	1.015342
C118	C	1.570279	0.143298	1.515342
H119	H	0.507954	-0.451397	0.277877
H120	H	1.007954	0.048603	0.777877
O121	O	0.640558	-0.259334	0.456219
O122	O	1.140558	0.240666	0.956219
H123	H	0.675970	-0.236964	0.411449
H124	H	1.175970	0.263036	0.911449
O125	O	0.641976	-0.457557	0.260488
O126	O	1.141976	0.042443	0.760488
H127	H	0.673925	-0.509628	0.265616
H128	H	1.173925	-0.009628	0.765616
O129	O	1.100046	-0.219541	0.785939
O130	O	1.600046	0.280459	1.285939
H131	H	1.141976	-0.244838	0.749059
H132	H	1.641976	0.255162	1.249059
H133	H	1.192217	-0.338629	0.920590
H134	H	1.692217	0.161371	1.420590
O135	O	1.169249	-0.786466	0.454747
O136	O	1.669249	-0.286466	0.954747
H137	H	1.221150	-0.753982	0.451232
H138	H	1.721150	-0.253982	0.951232
O139	O	1.105824	-0.222083	0.926763
O140	O	1.605824	0.277917	1.426763
H141	H	1.133928	-0.196569	0.878619
H142	H	1.633928	0.303431	1.378619
O143	O	0.936706	-0.927978	0.396984
O144	O	1.436706	-0.427978	0.896984
H145	H	0.939188	-0.964378	0.347692
H146	H	1.439188	-0.464378	0.847692
O147	O	1.102382	-0.786482	0.220717
O148	O	1.602382	-0.286482	0.720717
H149	H	1.129868	-0.834551	0.194398
H150	H	1.629868	-0.334551	0.694398
H151	H	0.506120	-0.312363	0.242242
H152	H	1.006120	0.187637	0.742242
O153	O	0.500514	-0.493277	0.387725
O154	O	1.000514	0.006723	0.887725
H155	H	0.439196	-0.493485	0.387839
H156	H	0.939196	0.006515	0.887839
H157	H	1.088449	-0.919830	0.235023
H158	H	1.588449	-0.419830	0.735023
H159	H	1.167856	-0.920633	0.432895
H160	H	1.667856	-0.420633	0.932895
O161	O	0.641936	-0.386831	0.494124
O162	O	1.141936	0.113169	0.994124
H163	H	0.678797	-0.428744	0.468769
H164	H	1.178797	0.071256	0.968769
O165	O	0.935980	-0.786719	0.396564
O166	O	1.435980	-0.286719	0.896564
H167	H	0.898836	-0.834799	0.388157
H168	H	1.398836	-0.334799	0.888157
H169	H	0.994478	-0.259074	0.921490
H170	H	1.494478	0.240926	1.421490
H171	H	1.164804	-0.435654	0.919836
H172	H	1.664804	0.064346	1.419836
H173	H	0.634329	-0.241719	0.313119
H174	H	1.134329	0.258281	0.813119
H175	H	1.026082	-0.472127	0.794035
H176	H	1.526082	0.027873	1.294035
H177	H	1.192236	-0.337757	0.793859
H178	H	1.692236	0.162243	1.293859
H179	H	0.991406	-0.919153	0.262279
H180	H	1.491406	-0.419153	0.762279
H181	H	1.192915	-0.792007	0.339927
H182	H	1.692915	-0.292007	0.839927
O183	O	0.972591	-0.257661	0.787321
O184	O	1.472591	0.242339	1.287321
H185	H	0.957735	-0.202493	0.809581
H186	H	1.457735	0.297507	1.309581
H187	H	0.507705	-0.378999	0.477766
H188	H	1.007705	0.121001	0.977766
H189	H	0.954768	-0.400655	0.920720
H190	H	1.454768	0.099345	1.420720
H191	H	1.025796	-0.471508	0.921661
H192	H	1.525796	0.028492	1.421661
O193	O	0.973985	-0.785146	0.256028
O194	O	1.473985	-0.285146	0.756028
H195	H	0.951611	-0.748903	0.300131
H196	H	1.451611	-0.248903	0.800131
O197	O	1.170987	-0.453070	0.785818
O198	O	1.670987	0.046930	1.285818
H199	H	1.126836	-0.475409	0.749563
H200	H	1.626836	0.024591	1.249563
H201	H	0.955097	-0.400784	0.793483
H202	H	1.455097	0.099216	1.293483
H203	H	0.633741	-0.312665	0.241661
H204	H	1.133741	0.187335	0.741661
O205	O	0.500377	-0.222557	0.317460
O206	O	1.000377	0.277443	0.817460
H207	H	0.464196	-0.224526	0.366912
H208	H	0.964196	0.275474	0.866912
O209	O	1.204975	-0.926055	0.321733
O210	O	1.704975	-0.426055	0.821733
H211	H	1.177378	-0.961810	0.280228
H212	H	1.677378	-0.461810	0.780228
O213	O	0.640580	-0.493199	0.388800
O214	O	1.140580	0.006801	0.888800
H215	H	0.701845	-0.495297	0.387412
H216	H	1.201845	0.004703	0.887412
H217	H	1.026111	-0.792740	0.472007
H218	H	1.526111	-0.292740	0.972007
O219	O	0.499400	-0.263068	0.461021
O220	O	0.999400	0.236932	0.961021
H221	H	0.438192	-0.264854	0.464233
H222	H	0.938192	0.235146	0.964233
H223	H	1.026252	-0.919970	0.472374
H224	H	1.526252	-0.419970	0.972374
