data_functionalizedCrystal
_audit_creation_method	'MofGen! by Chris Wilmer'
_symmetry_space_group_name_H-M	'P1'
_symmetry_Int_Tables_number	1
_symmetry_cell_setting	triclinic
loop_
_symmetry_equiv_pos_as_xyz
  x,y,z
_cell_length_a	12.759401
_cell_length_b	12.827892
_cell_length_c	12.759393
_cell_angle_alpha	89.968954
_cell_angle_beta	89.981504
_cell_angle_gamma	90.015553
loop_
_atom_site_label
_atom_site_type_symbol
_atom_site_fract_x
_atom_site_fract_y
_atom_site_fract_z
Zn1	Zn	1.606250	-0.415967	-0.593985
Zn2	Zn	1.606143	-0.590748	-0.418307
Zn3	Zn	1.430552	-0.416022	-0.418325
Zn4	Zn	1.430539	-0.590667	-0.593948
O5	O	1.518371	-0.503351	-0.506141
O6	O	1.753257	-0.439163	-0.570689
O7	O	1.582811	-0.567626	-0.271288
O8	O	1.453910	-0.269778	-0.441649
O9	O	1.753178	-0.567573	-0.441619
O10	O	1.582994	-0.269738	-0.570706
O11	O	1.453805	-0.439256	-0.271301
O12	O	1.283530	-0.439178	-0.441613
O13	O	1.453887	-0.567436	-0.740974
O14	O	1.283520	-0.567489	-0.570643
O15	O	1.582981	-0.439085	-0.741001
O16	O	1.582798	-0.736973	-0.441583
O17	O	1.453782	-0.736914	-0.570626
C18	C	1.245404	-0.503332	-0.506127
C19	C	1.128627	-0.503349	-0.506146
C20	C	1.073787	-0.570267	-0.573221
C21	C	0.964063	-0.570280	-0.573232
C22	C	0.964028	-0.436453	-0.439085
C23	C	1.073750	-0.436436	-0.439079
C24	C	1.073807	-0.647534	-0.650666
C25	C	0.964083	-0.647548	-0.650678
C26	C	1.518305	-0.774861	-0.506122
C27	C	1.518373	-0.891014	-0.506149
C28	C	1.582220	-0.942695	-0.570067
C29	C	1.582292	-1.062746	-0.570097
C30	C	1.792404	-0.503371	-0.506156
C31	C	1.909181	-0.503379	-0.506162
C32	C	1.518445	-0.503245	-0.780175
C33	C	1.518476	-0.503200	-0.896951
C34	C	1.518466	-0.230781	-0.506184
C35	C	1.518506	-0.114628	-0.506202
C36	C	1.585705	-0.436361	-0.951829
C37	C	1.585730	-0.436324	-1.061553
C38	C	1.451294	-0.569973	-1.061512
C39	C	1.451265	-0.570005	-0.951790
C40	C	1.663323	-0.359203	-0.951854
C41	C	1.663348	-0.359165	-1.061578
C42	C	1.518358	-0.503380	-0.233174
C43	C	1.518530	-0.503131	-0.116398
H44	H	0.930085	-0.618659	-0.728029
C45	C	1.716029	-0.210363	-0.850727
C46	C	1.633931	-0.249958	-0.911674
H47	H	1.697883	-0.142919	-0.825928
H48	H	1.728099	-0.255342	-0.792822
H49	H	1.777779	-0.205959	-0.892106
H50	H	1.572183	-0.254368	-0.870292
H51	H	1.621847	-0.204967	-0.969587
H52	H	0.919334	-0.381975	-0.384483
H53	H	0.934286	-0.728463	-0.628746
C54	C	1.715047	-1.051800	-0.703056
C55	C	1.656084	-1.122735	-0.643981
H56	H	1.760606	-1.088838	-0.748667
H57	H	1.669260	-1.009237	-0.743225
H58	H	1.755275	-1.009228	-0.657336
H59	H	1.615849	-1.165302	-0.689701
H60	H	1.701876	-1.165315	-0.603809
C61	C	1.641607	-0.775190	-0.629590
C62	C	1.655946	-0.882457	-0.643915
H63	H	1.687130	-0.738006	-0.675179
H64	H	1.570990	-0.757410	-0.644889
H65	H	1.656994	-0.757407	-0.558989
H66	H	1.640552	-0.900242	-0.714515
H67	H	1.726580	-0.900244	-0.628624
C68	C	1.836177	-0.424033	-0.987624
C69	C	1.767639	-0.398352	-0.905896
H70	H	1.900578	-0.448196	-0.959248
H71	H	1.805763	-0.477230	-1.029501
H72	H	1.848686	-0.364081	-1.029540
H73	H	1.755124	-0.458307	-0.863984
H74	H	1.798059	-0.345151	-0.864002
H75	H	1.463845	-1.070190	-0.451471
H76	H	1.463760	-0.935644	-0.451452
H77	H	1.744719	-0.380841	-1.091357
H78	H	1.107820	-0.724374	-0.621383
C79	C	1.521334	-0.236988	-1.073628
C80	C	1.624060	-0.255355	-1.107542
H81	H	1.497080	-0.172899	-1.101999
H82	H	1.477263	-0.292103	-1.096609
H83	H	1.519996	-0.233488	-0.999274
H84	H	1.625397	-0.258862	-1.181896
H85	H	1.668142	-0.200226	-1.084567
H86	H	1.103615	-0.625951	-0.732073
C87	C	1.062690	-0.304145	-0.306496
C88	C	1.134031	-0.362867	-0.365359
H89	H	1.099907	-0.258728	-0.260980
H90	H	1.019916	-0.264243	-0.352348
H91	H	1.019874	-0.349641	-0.266225
H92	H	1.176842	-0.317371	-0.405636
H93	H	1.176823	-0.402771	-0.319501
H94	H	1.396517	-0.624428	-0.907113
H95	H	1.396571	-0.624360	-1.106175
