data_functionalizedCrystal
_audit_creation_method	'MofGen! by Chris Wilmer'
_symmetry_space_group_name_H-M	'P1'
_symmetry_Int_Tables_number	1
_symmetry_cell_setting	triclinic
loop_
_symmetry_equiv_pos_as_xyz
  x,y,z
_cell_length_a	15.995350
_cell_length_b	23.532407
_cell_length_c	15.072220
_cell_angle_alpha	89.994175
_cell_angle_beta	89.991149
_cell_angle_gamma	83.170526
loop_
_atom_site_label
_atom_site_type_symbol
_atom_site_fract_x
_atom_site_fract_y
_atom_site_fract_z
O1	O	1.110385	0.073404	-0.073717
O2	O	0.866535	0.082469	-0.073736
O3	O	0.995813	-0.004967	-0.073710
O4	O	0.981107	0.160840	-0.073743
O5	O	0.995781	-0.004962	0.073856
O6	O	0.866503	0.082474	0.073829
O7	O	1.110354	0.073409	0.073848
Zn8	Zn	0.988423	0.077942	0.097268
Zn9	Zn	0.988465	0.077935	-0.097155
O10	O	0.981075	0.160845	0.073822
C11	C	0.835327	0.082096	0.000044
C12	C	0.742386	0.080973	0.000038
C13	C	0.404672	0.076938	0.000057
C14	C	0.452624	0.014668	0.000399
C15	C	0.549305	0.015792	0.000060
C16	C	0.572216	0.078939	0.000048
C17	C	0.530892	0.109650	-0.084222
C18	C	0.434269	0.108086	-0.084286
C19	C	0.433883	0.109378	0.083523
C20	C	0.530828	0.109363	0.084631
C21	C	0.666904	0.080074	0.000040
C22	C	0.309984	0.075805	0.000059
C23	C	0.995423	-0.026182	0.000075
C24	C	0.994297	-0.089404	0.000082
C25	C	1.063739	-0.488239	0.000039
C26	C	1.062693	-0.547644	0.000032
O27	O	1.127067	-0.584141	0.000004
N28	N	0.985837	-0.570566	0.000027
C29	C	0.910022	-0.534080	0.000019
O30	O	0.844554	-0.559031	0.000013
C31	C	0.911069	-0.474677	0.000019
C32	C	0.987930	-0.451758	0.000034
C33	C	1.140594	-0.465320	0.000052
C34	C	1.141640	-0.405920	0.000061
C35	C	1.065830	-0.369439	0.000056
C36	C	0.988975	-0.392358	0.000042
C37	C	0.835255	-0.438192	0.000005
C38	C	0.836308	-0.378785	0.000005
C39	C	0.913169	-0.355867	0.000020
C40	C	0.914212	-0.296477	0.000046
N41	N	0.991068	-0.273555	0.000051
C42	C	1.066877	-0.310036	0.000056
C43	C	0.907829	-0.658831	0.000016
C44	C	0.906781	-0.718233	0.000022
C45	C	1.059453	-0.731793	0.000034
C46	C	1.060500	-0.672389	0.000034
C47	C	0.984685	-0.635909	0.000022
C48	C	1.069067	-0.185291	0.000075
C49	C	1.070106	-0.125885	0.000087
C50	C	0.917435	-0.112330	0.000071
C51	C	0.916396	-0.171731	0.000063
C52	C	0.992219	-0.208210	0.000062
O53	O	0.849872	-0.259945	0.000070
O54	O	1.132335	-0.285076	0.000051
C55	C	1.141561	0.073781	0.000066
C56	C	1.234502	0.074905	0.000067
C57	C	0.981465	0.182060	0.000035
C58	C	0.982591	0.245281	0.000023
N59	N	0.988401	0.077946	0.229957
N60	N	0.988494	0.077927	-0.229844
C61	C	0.988463	0.077933	0.589158
C62	C	0.919059	0.124562	0.551537
C63	C	0.919216	0.124732	0.448711
C64	C	0.988431	0.077940	0.410954
C65	C	1.075688	0.090918	0.448249
C66	C	1.075299	0.091250	0.551107
C67	C	0.971391	0.018188	0.551269
C68	C	0.969383	0.018587	0.448405
C69	C	0.988419	0.077942	0.310241
C70	C	0.988482	0.077932	0.689872
H71	H	0.401740	0.155290	0.084084
H72	H	1.022010	-0.016511	0.575598
H73	H	0.853973	0.116956	0.576295
H74	H	1.121181	-0.761507	0.000034
C75	C	1.095720	0.150112	0.583502
C76	C	1.099591	0.162598	0.683613
C77	C	1.120010	0.221462	0.716003
C78	C	1.136559	0.267839	0.648282
C79	C	1.132688	0.255354	0.548165
C80	C	1.112269	0.196490	0.515775
H81	H	1.087340	0.128266	0.733750
H82	H	1.122876	0.230705	0.790117
H83	H	1.151675	0.311414	0.672259
H84	H	1.144939	0.289686	0.498028
H85	H	1.109403	0.187248	0.441661
H86	H	0.854341	0.116999	0.423497
C87	C	0.427850	-0.018958	0.082034
C88	C	0.443835	0.002960	0.176060
C89	C	0.419050	-0.030666	0.257697
C90	C	0.378280	-0.086210	0.245309
C91	C	0.362293	-0.108130	0.151280
C92	C	0.387079	-0.074505	0.069643
H93	H	0.474017	0.044079	0.185233
H94	H	0.430884	-0.014438	0.327303
H95	H	0.359933	-0.111101	0.305742
H96	H	0.332111	-0.149250	0.142106
H97	H	0.375244	-0.090732	0.000036
H98	H	0.929757	0.168648	0.577368
H99	H	1.204228	-0.387266	0.000069
H100	H	0.401641	0.153804	-0.088119
H101	H	0.559457	0.088316	-0.146929
C102	C	0.752909	-0.338657	-0.000006
C103	C	0.689810	-0.341226	-0.076642
C104	C	0.606412	-0.301099	-0.076650
C105	C	0.586113	-0.258402	-0.000023
C106	C	0.649213	-0.255831	0.076619
C107	C	0.732611	-0.295958	0.076627
H108	H	0.704835	-0.372835	-0.133371
H109	H	0.559701	-0.303003	-0.133386
H110	H	0.524377	-0.228698	-0.000029
H111	H	0.634188	-0.224223	0.133348
H112	H	0.779322	-0.294055	0.133363
C113	C	1.096624	0.149111	0.413437
C114	C	1.034702	0.184898	0.351218
C115	C	1.055632	0.243092	0.316408
C116	C	1.138483	0.265500	0.343816
C117	C	1.200411	0.229713	0.406038
C118	C	1.179481	0.171518	0.440848
H119	H	0.973365	0.168310	0.330926
H120	H	1.009788	0.269584	0.270347
H121	H	1.153977	0.308579	0.318048
H122	H	1.261747	0.246300	0.426330
H123	H	1.225324	0.145027	0.486909
H124	H	0.930067	0.169068	0.424089
H125	H	1.128547	0.057860	0.423791
C126	C	1.147131	0.047120	0.584733
C127	C	1.204668	0.011692	0.517991
C128	C	1.276504	-0.032432	0.551613
C129	C	1.290803	-0.041130	0.651977
C130	C	1.233264	-0.005701	0.718725
C131	C	1.161429	0.038424	0.685104
H132	H	1.194085	0.018130	0.443690
H133	H	1.319098	-0.058659	0.502201
H134	H	1.343980	-0.073794	0.676866
H135	H	1.243847	-0.012138	0.793026
H136	H	1.118835	0.064650	0.734516
C137	C	0.887320	0.001337	0.586343
C138	C	0.833093	0.041616	0.649849
C139	C	0.749018	0.024772	0.684924
C140	C	0.719171	-0.032351	0.656492
C141	C	0.773398	-0.072634	0.592982
C142	C	0.857473	-0.055790	0.557908
H143	H	0.855187	0.083905	0.670899
H144	H	0.708876	0.054593	0.731938
H145	H	0.656933	-0.044820	0.682456
H146	H	0.751304	-0.114923	0.571933
H147	H	0.897616	-0.085611	0.510894
H148	H	0.844194	-0.736887	0.000026
C149	C	0.882676	0.005279	0.415469
C150	C	0.865768	0.000801	0.315282
C151	C	0.779062	-0.012504	0.282335
C152	C	0.709265	-0.021330	0.349574
C153	C	0.726171	-0.016852	0.449767
C154	C	0.812877	-0.003547	0.482714
H155	H	0.917438	0.007335	0.265502
H156	H	0.766548	-0.015818	0.208165
H157	H	0.645080	-0.031178	0.325184
H158	H	0.674501	-0.023385	0.499547
H159	H	0.825392	-0.000232	0.556884
C160	C	0.587238	-0.017044	-0.081678
C161	C	0.682862	-0.022557	-0.098247
C162	C	0.720795	-0.055394	-0.179988
C163	C	0.663104	-0.082718	-0.245160
C164	C	0.567475	-0.077206	-0.228592
C165	C	0.529542	-0.044369	-0.146851
H166	H	0.725574	-0.002329	-0.050001
H167	H	0.791587	-0.059475	-0.192252
H168	H	0.691185	-0.107026	-0.305670
H169	H	0.524763	-0.097433	-0.276838
H170	H	0.458750	-0.040288	-0.134587
H171	H	1.016688	-0.017738	0.422708
H172	H	0.577922	-0.008349	0.060468
H173	H	0.433249	-0.010110	-0.059692
H174	H	0.416160	0.085686	-0.147271
H175	H	0.544631	0.156043	-0.087364
H176	H	0.558318	0.086945	0.146973
C177	C	0.406373	0.081873	0.169816
C178	C	0.428222	0.106631	0.260328
C179	C	0.400718	0.079116	0.346615
C180	C	0.351365	0.026843	0.342391
C181	C	0.329514	0.002082	0.251876
C182	C	0.357018	0.029597	0.165589
H183	H	0.464758	0.145330	0.263458
H184	H	0.416894	0.097446	0.413621
H185	H	0.331006	0.006475	0.406266
H186	H	0.292978	-0.036617	0.248746
H187	H	0.340842	0.011267	0.098583
C188	C	0.551051	0.171578	0.091493
C189	C	0.605742	0.195954	0.020093
C190	C	0.625959	0.258172	0.026946
C191	C	0.591485	0.296014	0.105199
C192	C	0.536791	0.271638	0.176605
C193	C	0.516573	0.209420	0.169752
H194	H	0.631264	0.167941	-0.037839
H195	H	0.666448	0.276217	-0.025913
H196	H	0.606451	0.342071	0.110272
H197	H	0.511268	0.299651	0.234538
H198	H	0.476085	0.191376	0.222612
C199	C	1.152472	-0.225413	0.000081
C200	C	1.215565	-0.222838	0.076721
C201	C	1.298968	-0.262960	0.076734
C202	C	1.319278	-0.305656	0.000108
C203	C	1.256184	-0.308232	-0.076538
C204	C	1.172780	-0.268110	-0.076551
H205	H	1.200531	-0.191231	0.133449
H206	H	1.345674	-0.261053	0.133473
H207	H	1.381018	-0.335356	0.000118
H208	H	1.271217	-0.339839	-0.133266
H209	H	1.126074	-0.270017	-0.133290
C210	C	1.154659	-0.100676	0.000099
C211	C	1.176363	-0.061714	0.076733
C212	C	1.260913	-0.036508	0.076743
C213	C	1.323757	-0.050264	0.000119
C214	C	1.302054	-0.089229	-0.076521
C215	C	1.217505	-0.114435	-0.076531
H216	H	1.129840	-0.051528	0.133460
H217	H	1.276978	-0.007663	0.133478
H218	H	1.386346	-0.031605	0.000126
H219	H	1.348577	-0.099414	-0.133248
H220	H	1.201439	-0.143279	-0.133266
C221	C	1.223994	-0.505443	0.000063
C222	C	1.287086	-0.502862	0.076702
C223	C	1.370492	-0.542980	0.076721
C224	C	1.390807	-0.585680	0.000100
C225	C	1.327714	-0.588263	-0.076545
C226	C	1.244307	-0.548145	-0.076564
H227	H	1.272049	-0.471251	0.133426
H228	H	1.417198	-0.541067	0.133459
H229	H	1.452550	-0.615377	0.000114
H230	H	1.342750	-0.619873	-0.133269
H231	H	1.197601	-0.550057	-0.133302
C232	C	0.824426	-0.618704	0.000018
C233	C	0.804151	-0.575997	-0.076607
C234	C	0.720749	-0.535874	-0.076606
C235	C	0.657621	-0.538459	0.000020
C236	C	0.677894	-0.581168	0.076651
C237	C	0.761296	-0.621291	0.076650
H238	H	0.850884	-0.574082	-0.133335
H239	H	0.705742	-0.504258	-0.133333
H240	H	0.595882	-0.508758	0.000021
H241	H	0.631161	-0.583083	0.133379
H242	H	0.776303	-0.652907	0.133378
H243	H	0.772666	-0.456841	-0.000012
H244	H	1.123087	-0.653734	0.000045
H245	H	0.853809	-0.190392	0.000076
H246	H	0.855713	-0.082617	0.000070
