data_functionalizedCrystal
_audit_creation_method	'MofGen! by Chris Wilmer'
_symmetry_space_group_name_H-M	'P1'
_symmetry_Int_Tables_number	1
_symmetry_cell_setting	triclinic
loop_
_symmetry_equiv_pos_as_xyz
  x,y,z
_cell_length_a	21.395362
_cell_length_b	19.076808
_cell_length_c	21.395355
_cell_angle_alpha	87.682564
_cell_angle_beta	89.956060
_cell_angle_gamma	92.338508
loop_
_atom_site_label
_atom_site_type_symbol
_atom_site_fract_x
_atom_site_fract_y
_atom_site_fract_z
Zn1	Zn	0.947868	-0.280001	-0.344563
Zn2	Zn	1.281201	0.053332	-0.011230
Zn3	Zn	1.614534	0.386666	0.322103
Zn4	Zn	0.943570	-0.397688	-0.235573
Zn5	Zn	1.276904	-0.064354	0.097760
Zn6	Zn	1.610237	0.268979	0.431093
Zn7	Zn	0.843081	-0.280034	-0.239763
Zn8	Zn	1.176415	0.053300	0.093570
Zn9	Zn	1.509748	0.386633	0.426903
Zn10	Zn	0.838852	-0.397702	-0.340278
Zn11	Zn	1.172185	-0.064369	-0.006944
Zn12	Zn	1.505518	0.268965	0.326389
O13	O	0.893343	-0.338856	-0.290044
O14	O	1.226676	-0.005523	0.043289
O15	O	1.560009	0.327811	0.376622
O16	O	1.034976	-0.295593	-0.330146
O17	O	1.368310	0.037741	0.003188
O18	O	1.701643	0.371074	0.336521
O19	O	0.930212	-0.382088	-0.148451
O20	O	1.263545	-0.048755	0.184882
O21	O	1.596879	0.284579	0.518216
O22	O	0.860550	-0.181533	-0.257213
O23	O	1.193883	0.151801	0.076121
O24	O	1.527217	0.485134	0.409454
O25	O	1.031819	-0.382056	-0.250071
O26	O	1.365152	-0.048723	0.083262
O27	O	1.698486	0.284610	0.416595
O28	O	0.937536	-0.181508	-0.334209
O29	O	1.270869	0.151825	-0.000875
O30	O	1.604203	0.485158	0.332458
O31	O	0.856383	-0.295648	-0.151529
O32	O	1.189717	0.037685	0.181804
O33	O	1.523050	0.371018	0.515137
O34	O	0.754842	-0.295662	-0.253057
O35	O	1.088175	0.037671	0.080277
O36	O	1.421508	0.371004	0.413610
O37	O	0.853341	-0.382081	-0.428524
O38	O	1.186674	-0.048748	-0.095191
O39	O	1.520008	0.284586	0.238142
O40	O	0.751734	-0.382113	-0.326904
O41	O	1.085067	-0.048780	0.006429
O42	O	1.418401	0.284554	0.339763
O43	O	0.933435	-0.295607	-0.431673
O44	O	1.266768	0.037727	-0.098340
O45	O	1.600101	0.371060	0.234994
O46	O	0.926111	-0.496186	-0.245916
O47	O	1.259444	-0.162853	0.087418
O48	O	1.592777	0.170480	0.420751
O49	O	0.849174	-0.496197	-0.322841
O50	O	1.182507	-0.162864	0.010492
O51	O	1.515841	0.170470	0.343825
C52	C	0.730554	-0.338893	-0.289970
C53	C	1.063887	-0.005560	0.043363
C54	C	1.397220	0.327773	0.376696
C55	C	0.660911	-0.338926	-0.289953
C56	C	0.994245	-0.005593	0.043380
C57	C	1.327578	0.327741	0.376714
C58	C	0.886734	-0.521731	-0.283472
C59	C	1.220067	-0.188397	0.049861
C60	C	1.553401	0.144936	0.383194
C61	C	0.883964	-0.599965	-0.280682
C62	C	1.217298	-0.266632	0.052652
C63	C	1.550631	0.066701	0.385985
C64	C	0.626594	-0.384001	-0.328343
C65	C	0.959928	-0.050667	0.004990
C66	C	1.293261	0.282666	0.338323
C67	C	0.561159	-0.383983	-0.328372
C68	C	0.894493	-0.050650	0.004962
C69	C	1.227826	0.282683	0.338295
C70	C	0.530044	-0.338899	-0.289999
C71	C	0.863377	-0.005566	0.043335
C72	C	1.196711	0.327768	0.376668
C73	C	0.564369	-0.293816	-0.251606
C74	C	0.897702	0.039517	0.081727
C75	C	1.231036	0.372851	0.415061
C76	C	0.629803	-0.293829	-0.251583
C77	C	0.963136	0.039504	0.081750
C78	C	1.296469	0.372837	0.415083
C79	C	0.426522	-0.333229	-0.233796
C80	C	0.759855	0.000105	0.099537
C81	C	1.093188	0.333438	0.432870
C82	C	0.361089	-0.333220	-0.233818
C83	C	0.694422	0.000113	0.099515
C84	C	1.027756	0.333447	0.432849
C85	C	0.328225	-0.338853	-0.290069
C86	C	0.661558	-0.005520	0.043264
C87	C	0.994892	0.327814	0.376597
C88	C	0.360801	-0.344510	-0.346301
C89	C	0.694134	-0.011176	-0.012967
C90	C	1.027468	0.322157	0.320366
C91	C	0.426235	-0.344523	-0.346278
C92	C	0.759568	-0.011190	-0.012944
C93	C	1.092901	0.322144	0.320389
C94	C	0.459092	-0.338879	-0.290019
C95	C	0.792426	-0.005546	0.043314
C96	C	1.125759	0.327788	0.376647
C97	C	0.222956	-0.383911	-0.328494
C98	C	0.556289	-0.050578	0.004839
C99	C	0.889623	0.282755	0.338173
C100	C	0.157520	-0.383889	-0.328524
C101	C	0.490854	-0.050556	0.004810
C102	C	0.824187	0.282778	0.338143
C103	C	0.160731	-0.293725	-0.251752
C104	C	0.494064	0.039608	0.081581
C105	C	0.827398	0.372941	0.414915
C106	C	0.226166	-0.293744	-0.251728
C107	C	0.559499	0.039589	0.081605
C108	C	0.892832	0.372923	0.414939
C109	C	0.257274	-0.338841	-0.290098
C110	C	0.590607	-0.005507	0.043235
C111	C	0.923941	0.327826	0.376569
C112	C	0.922715	-0.636647	-0.319491
C113	C	1.256049	-0.303314	0.013843
C114	C	1.589382	0.030020	0.347176
C115	C	0.920110	-0.710157	-0.316870
C116	C	1.253444	-0.376823	0.016464
C117	C	1.586777	-0.043490	0.349797
C118	C	0.878757	-0.746983	-0.275436
C119	C	1.212090	-0.413650	0.057897
C120	C	1.545423	-0.080317	0.391231
C121	C	0.840001	-0.710296	-0.236625
C122	C	1.173335	-0.376963	0.096708
C123	C	1.506668	-0.043630	0.430041
C124	C	0.842604	-0.636788	-0.239250
C125	C	1.175937	-0.303455	0.094083
C126	C	1.509270	0.029879	0.427417
C127	C	0.866676	-0.966837	-0.263287
C128	C	1.200009	-0.633504	0.070046
C129	C	1.533342	-0.300171	0.403379
C130	C	0.864078	-1.040351	-0.260664
C131	C	1.197411	-0.707018	0.072669
C132	C	1.530744	-0.373684	0.406002
C133	C	0.944186	-1.040206	-0.340910
C134	C	1.277519	-0.706873	-0.007577
C135	C	1.610853	-0.373539	0.325757
C136	C	0.946787	-0.966696	-0.343528
C137	C	1.280121	-0.633363	-0.010195
C138	C	1.613454	-0.300030	0.323139
C139	C	0.908030	-0.930016	-0.304720
C140	C	1.241363	-0.596683	0.028614
C141	C	1.574696	-0.263349	0.361947
N142	N	0.876094	-0.822122	-0.272755
N143	N	1.209427	-0.488789	0.060579
N144	N	1.542761	-0.155455	0.393912
N145	N	0.910689	-0.854879	-0.307405
N146	N	1.244023	-0.521545	0.025929
N147	N	1.577356	-0.188212	0.359262
C148	C	1.056767	-0.338819	-0.290119
C149	C	1.390101	-0.005486	0.043214
C150	C	1.723434	0.327847	0.376548
C151	C	1.126409	-0.338803	-0.290151
C152	C	1.459743	-0.005470	0.043182
C153	C	1.793076	0.327863	0.376516
C154	C	0.893395	-0.338842	-0.453468
C155	C	1.226729	-0.005508	-0.120135
C156	C	1.560062	0.327825	0.213198
C157	C	0.893418	-0.338836	-0.523110
C158	C	1.226751	-0.005502	-0.189777
C159	C	1.560084	0.327831	0.143557
C160	C	0.899994	-0.155267	-0.296656
C161	C	1.233328	0.178066	0.036677
C162	C	1.566661	0.511399	0.370011
C163	C	0.902829	-0.077033	-0.299473
C164	C	1.236162	0.256301	0.033860
C165	C	1.569495	0.589634	0.367193
C166	C	0.935121	-0.293807	-0.557464
C167	C	1.268454	0.039527	-0.224130
C168	C	1.601787	0.372860	0.109203
C169	C	0.935121	-0.293776	-0.622900
C170	C	1.268454	0.039557	-0.289567
C171	C	1.601788	0.372890	0.043767
C172	C	0.893424	-0.338788	-0.653980
C173	C	1.226758	-0.005454	-0.320647
C174	C	1.560091	0.327879	0.012687
C175	C	0.851713	-0.383820	-0.619618
C176	C	1.185047	-0.050487	-0.286285
C177	C	1.518380	0.282847	0.047048
C178	C	0.851710	-0.383844	-0.554183
C179	C	1.185043	-0.050511	-0.220850
C180	C	1.518377	0.282823	0.112484
C181	C	0.886187	-0.402166	-0.755375
C182	C	1.219520	-0.068833	-0.422042
C183	C	1.552853	0.264501	-0.088709
C184	C	0.886194	-0.402143	-0.820809
C185	C	1.219528	-0.068810	-0.487476
C186	C	1.552861	0.264524	-0.154142
C187	C	0.893431	-0.338713	-0.855803
C188	C	1.226764	-0.005380	-0.522470
C189	C	1.560097	0.327953	-0.189137
C190	C	0.900673	-0.275304	-0.825356
C191	C	1.234006	0.058029	-0.492023
C192	C	1.567339	0.391362	-0.158689
C193	C	0.900670	-0.275328	-0.759921
C194	C	1.234003	0.058005	-0.426588
C195	C	1.567336	0.391338	-0.093254
C196	C	0.893423	-0.338766	-0.724933
C197	C	1.226756	-0.005433	-0.391600
C198	C	1.560090	0.327900	-0.058266
C199	C	0.935136	-0.293648	-0.961111
C200	C	1.268470	0.039686	-0.627778
C201	C	1.601803	0.373019	-0.294444
C202	C	0.935132	-0.293616	-1.026549
C203	C	1.268466	0.039717	-0.693216
C204	C	1.601799	0.373051	-0.359882
C205	C	0.851728	-0.383666	-1.023265
C206	C	1.185061	-0.050333	-0.689932
C207	C	1.518394	0.283000	-0.356599
C208	C	0.851729	-0.383691	-0.957829
C209	C	1.185062	-0.050358	-0.624496
C210	C	1.518395	0.282975	-0.291163
C211	C	0.893436	-0.338683	-0.926756
C212	C	1.226770	-0.005350	-0.593423
C213	C	1.560103	0.327984	-0.260089
C214	C	0.893328	-0.338819	-0.127258
C215	C	1.226662	-0.005486	0.206075
C216	C	1.559995	0.327847	0.539408
C217	C	0.893434	-0.338627	-0.057624
C218	C	1.226768	-0.005294	0.275709
C219	C	1.560101	0.328039	0.609042
H220	H	0.651919	-0.420721	-0.359588
H221	H	0.985252	-0.087387	-0.026255
H222	H	1.318585	0.245946	0.307079
H223	H	0.334045	-0.349095	-0.392106
H224	H	0.667378	-0.015762	-0.058773
H225	H	1.000711	0.317571	0.274560
F226	F	0.985430	-1.079249	-0.382211
F227	F	1.318763	-0.745916	-0.048878
F228	F	1.652097	-0.412583	0.284456
H229	H	0.539031	-0.257107	-0.220364
H230	H	0.872364	0.076227	0.112970
H231	H	1.205697	0.409560	0.446303
F232	F	0.801359	-0.597749	-0.197945
F233	F	1.134692	-0.264416	0.135389
F234	F	1.468025	0.068918	0.468722
H235	H	0.969082	-0.257156	-0.532168
H236	H	1.302415	0.076177	-0.198835
H237	H	1.635748	0.409510	0.134499
H238	H	0.806328	-0.740287	-0.202892
H239	H	1.139661	-0.406953	0.130441
H240	H	1.472994	-0.073620	0.463775
F241	F	0.878498	-0.469683	-0.718138
F242	F	1.211832	-0.136349	-0.384804
F243	F	1.545165	0.196984	-0.051471
F244	F	0.908374	-0.207846	-0.727519
F245	F	1.241707	0.125487	-0.394186
F246	F	1.575040	0.458821	-0.060852
H247	H	0.453274	-0.328639	-0.187987
H248	H	0.786607	0.004695	0.145347
H249	H	1.119941	0.338028	0.478680
H250	H	0.657744	-0.257122	-0.220321
H251	H	0.991077	0.076211	0.113012
H252	H	1.324410	0.409544	0.446345
H253	H	0.817771	-0.420308	-1.048570
H254	H	1.151104	-0.086975	-0.715237
H255	H	1.484438	0.246358	-0.381904
F256	F	0.256066	-0.431903	-0.369333
F257	F	0.589400	-0.098570	-0.035999
F258	F	0.922733	0.234764	0.297334
H259	H	0.880301	-0.453775	-0.845594
H260	H	1.213634	-0.120441	-0.512261
H261	H	1.546968	0.212892	-0.178927
H262	H	0.817762	-0.420466	-0.644928
H263	H	1.151095	-0.087133	-0.311594
H264	H	1.484428	0.246200	0.021739
H265	H	0.951670	-0.740020	-0.348467
H266	H	1.285004	-0.406686	-0.015134
H267	H	1.618337	-0.073353	0.318199
F268	F	0.990801	-0.927508	-0.387628
F269	F	1.324134	-0.594175	-0.054295
F270	F	1.657468	-0.260841	0.279039
H271	H	0.956393	-0.606668	-0.353228
H272	H	1.289726	-0.273334	-0.019894
H273	H	1.623059	0.059999	0.313439
H274	H	0.830399	-1.070333	-0.226924
H275	H	1.163733	-0.737000	0.106410
H276	H	1.497066	-0.403667	0.439743
H277	H	0.817747	-0.420511	-0.526213
H278	H	1.151081	-0.087178	-0.192879
H279	H	1.484414	0.246155	0.140454
H280	H	0.969079	-0.257104	-0.650876
H281	H	1.302413	0.076229	-0.317543
H282	H	1.635746	0.409562	0.015790
H283	H	0.334570	-0.328619	-0.188031
H284	H	0.667904	0.004715	0.145302
H285	H	1.001237	0.338048	0.478636
H286	H	0.835119	-0.936978	-0.231687
H287	H	1.168452	-0.603645	0.101646
H288	H	1.501785	-0.270311	0.434980
H289	H	0.817773	-0.420363	-0.929858
H290	H	1.151106	-0.087030	-0.596524
H291	H	1.484440	0.246303	-0.263191
F292	F	0.908377	-0.207793	-0.862594
F293	F	1.241711	0.125541	-0.529261
F294	F	1.575044	0.458874	-0.195928
F295	F	0.524629	-0.431959	-0.369234
F296	F	0.857963	-0.098626	-0.035900
F297	F	1.191296	0.234707	0.297433
F298	F	0.979522	-0.245744	-0.928038
F299	F	1.312856	0.087590	-0.594705
F300	F	1.646189	0.420923	-0.261372
H301	H	0.452756	-0.349127	-0.392063
H302	H	0.786089	-0.015793	-0.058730
H303	H	1.119422	0.317540	0.274603
F304	F	0.120998	-0.431862	-0.369390
F305	F	0.454331	-0.098529	-0.036056
F306	F	0.787664	0.234804	0.297277
H307	H	0.135398	-0.257014	-0.220511
H308	H	0.468731	0.076320	0.112822
H309	H	0.802064	0.409653	0.446156
F310	F	0.262690	-0.245771	-0.210866
F311	F	0.596023	0.087563	0.122468
F312	F	0.929356	0.420896	0.455801
F313	F	0.979528	-0.245695	-1.063110
F314	F	1.312861	0.087638	-0.729777
F315	F	1.646195	0.420971	-0.396444
