data_functionalizedCrystal
_audit_creation_method	'MofGen! by Chris Wilmer'
_symmetry_space_group_name_H-M	'P1'
_symmetry_Int_Tables_number	1
_symmetry_cell_setting	triclinic
loop_
_symmetry_equiv_pos_as_xyz
  x,y,z
_cell_length_a	17.699083
_cell_length_b	14.971486
_cell_length_c	13.448316
_cell_angle_alpha	89.998909
_cell_angle_beta	90.006047
_cell_angle_gamma	96.551595
loop_
_atom_site_label
_atom_site_type_symbol
_atom_site_fract_x
_atom_site_fract_y
_atom_site_fract_z
O1	O	-1.004357	0.113109	-0.082663
O2	O	-0.784015	0.127826	-0.082667
O3	O	-0.900091	-0.009753	-0.082672
O4	O	-0.888280	0.250688	-0.082658
O5	O	-0.900077	-0.009761	0.082712
O6	O	-0.784000	0.127818	0.082717
O7	O	-1.004342	0.113101	0.082721
Cu8	Cu	-0.894170	0.120458	0.097820
Cu9	Cu	-0.894187	0.120468	-0.097766
O10	O	-0.888265	0.250680	0.082726
C11	C	-0.755809	0.127295	0.000024
C12	C	-0.671787	0.125713	0.000022
C13	C	-0.899556	-0.043080	0.000016
C14	C	-0.897973	-0.142372	0.000004
C15	C	-0.632310	0.124963	0.090174
C16	C	-0.553364	0.123463	0.090174
C17	C	-0.513896	0.122719	0.000022
C18	C	-0.553379	0.123466	-0.090136
C19	C	-0.632324	0.124960	-0.090136
C20	C	-0.235001	0.117440	-0.090140
C21	C	-0.156050	0.115948	-0.090133
C22	C	-0.156041	0.115942	0.090170
C23	C	-0.234987	0.117436	0.090171
C24	C	-0.274463	0.118179	0.000013
C25	C	-0.360065	0.119804	0.000013
C26	C	-0.428294	0.121100	0.000021
C27	C	-0.032548	0.113627	0.000027
C28	C	-0.116572	0.115192	0.000020
C29	C	-0.888801	0.284007	0.000036
C30	C	-0.890384	0.383298	0.000041
N31	N	-0.894163	0.120451	0.235384
C32	C	-0.822192	0.440758	0.000039
C33	C	-0.823684	0.534053	0.000026
C34	C	-0.893368	0.569885	0.000022
C35	C	-0.961566	0.512418	0.000021
C36	C	-0.960073	0.419125	0.000027
C37	C	-0.964672	0.706870	0.000010
C38	C	-0.966165	0.800168	0.000006
C39	C	-0.828283	0.821797	0.000009
C40	C	-0.826790	0.728504	0.000015
C41	C	-0.894988	0.671043	0.000016
N42	N	-0.894200	0.120469	-0.235330
C43	C	-0.945578	0.059556	0.287422
C44	C	-0.945583	0.059555	0.391525
C45	C	-0.894176	0.120454	0.443589
C46	C	-0.842755	0.181352	0.391543
C47	C	-0.842748	0.181348	0.287442
C48	C	-0.842776	0.181358	0.608523
C49	C	-0.842785	0.181364	0.712632
C50	C	-0.945611	0.059565	0.712607
C51	C	-0.945604	0.059561	0.608505
C52	C	-0.894184	0.120460	0.556467
H53	H	-0.664438	0.125576	0.163586
H54	H	-0.987467	0.009977	0.566116
H55	H	-0.987479	0.009979	0.754982
Cl56	Cl	-1.010212	-0.017004	0.221982
Cl57	Cl	-1.010219	-0.017001	0.456946
Cl58	Cl	-0.778154	0.257924	0.778075
Cl59	Cl	-0.734583	0.395722	0.000052
H60	H	-0.800880	0.230934	0.245073
H61	H	-0.267134	0.118041	-0.163552
Cl62	Cl	-1.050408	0.634634	0.000006
Cl63	Cl	-0.778131	0.257917	0.543108
Cl64	Cl	-0.778124	0.257909	0.456992
H65	H	-0.664465	0.125572	-0.163547
Cl66	Cl	-0.739185	0.683459	0.000027
Cl67	Cl	-0.503737	0.122536	0.203513
H68	H	-1.022908	0.829340	0.000001
Cl69	Cl	-0.503765	0.122497	-0.203471
H70	H	-0.267117	0.118047	0.163582
Cl71	Cl	-0.106434	0.115011	-0.203476
Cl72	Cl	-0.106409	0.115004	0.203514
Cl73	Cl	-1.049170	0.557465	0.000008
H74	H	-0.772754	0.868586	0.000012
H75	H	-0.768155	0.580833	0.000021
H76	H	-1.015602	0.372341	0.000025
