data_functionalizedCrystal
_audit_creation_method	'MofGen! by Chris Wilmer'
_symmetry_space_group_name_H-M	'P1'
_symmetry_Int_Tables_number	1
_symmetry_cell_setting	triclinic
loop_
_symmetry_equiv_pos_as_xyz
  x,y,z
_cell_length_a	13.635800
_cell_length_b	19.590947
_cell_length_c	11.168121
_cell_angle_alpha	85.636548
_cell_angle_beta	71.491504
_cell_angle_gamma	102.205388
loop_
_atom_site_label
_atom_site_type_symbol
_atom_site_fract_x
_atom_site_fract_y
_atom_site_fract_z
V1	V	2.019091	0.217864	-0.176027
O2	O	1.999567	0.213711	0.007098
O3	O	2.007479	0.216379	-0.347723
O4	O	1.991601	0.312879	-0.173916
O5	O	2.015554	0.116543	-0.167912
V6	V	2.259700	0.205744	-0.154052
O7	O	2.152248	0.244449	-0.224229
O8	O	2.351642	0.179159	-0.105850
O9	O	2.159709	0.207229	0.017644
O10	O	2.337923	0.209897	-0.337177
O11	O	2.321935	0.307065	-0.162167
O12	O	2.175587	0.110729	-0.156163
V13	V	2.519091	0.217864	-0.176027
O14	O	2.499567	0.213711	0.007098
O15	O	2.507479	0.216379	-0.347723
O16	O	2.491601	0.312879	-0.173916
O17	O	2.515554	0.116543	-0.167912
V18	V	2.759700	0.205744	-0.154052
O19	O	2.652248	0.244449	-0.224229
O20	O	2.851642	0.179159	-0.105850
O21	O	2.659709	0.207229	0.017644
O22	O	2.837923	0.209897	-0.337177
O23	O	2.821935	0.307065	-0.162167
O24	O	2.675587	0.110729	-0.156163
C25	C	1.933148	0.212944	-0.389560
C26	C	1.964276	0.212364	-0.529928
C27	C	2.065027	0.215419	-0.598639
C28	C	2.097201	0.214820	-0.743717
C29	C	1.912894	0.336038	-0.167850
C30	C	1.931143	0.413714	-0.167261
C31	C	2.031118	0.453761	-0.173322
C32	C	2.048266	0.526746	-0.172768
C33	C	1.965438	0.559682	-0.166178
C34	C	1.865447	0.519624	-0.160109
C35	C	1.848300	0.446640	-0.160650
C36	C	1.940734	0.678996	-0.234834
C37	C	1.957887	0.751979	-0.234301
C38	C	2.018322	0.784788	-0.164503
C39	C	2.061622	0.744607	-0.095255
C40	C	2.044475	0.671623	-0.095796
C41	C	1.984022	0.638820	-0.165590
C42	C	2.136896	0.903974	-0.169962
C43	C	2.154038	0.976959	-0.169400
C44	C	1.971219	0.969837	-0.156754
C45	C	1.954077	0.896853	-0.157303
C46	C	2.036921	0.863926	-0.163913
C47	C	2.065711	0.210662	0.059475
C48	C	2.024203	0.211247	0.199841
C49	C	2.089451	1.087566	-0.162231
C50	C	2.071208	1.009890	-0.162808
C51	C	2.433148	0.212944	-0.389560
C52	C	2.464276	0.212364	-0.529928
C53	C	2.412894	0.336038	-0.167850
C54	C	2.431143	0.413714	-0.167261
C55	C	2.565711	0.210662	0.059475
C56	C	2.524203	0.211247	0.199841
C57	C	2.585965	0.087566	-0.162233
C58	C	2.557335	0.009890	-0.162816
C59	C	2.531123	0.453753	-0.173301
C60	C	2.548280	0.526736	-0.172730
C61	C	2.465458	0.559680	-0.166129
C62	C	2.365470	0.519635	-0.160084
C63	C	2.348312	0.446652	-0.160646
C64	C	2.457924	-0.023036	-0.169403
C65	C	2.431004	-0.096022	-0.169937
C66	C	2.503499	-0.136079	-0.163891
C67	C	2.602917	-0.103149	-0.157299
C68	C	2.629833	-0.030165	-0.156757
C69	C	2.565027	0.215419	-0.598639
C70	C	2.597201	0.214820	-0.743717
H71	H	2.127467	0.218483	-0.550061
H72	H	2.627467	0.218483	-0.550061
H73	H	2.401839	0.209308	-0.578508
Cl74	Cl	1.867869	0.207645	-0.604921
H75	H	1.872671	0.864246	-0.152381
Cl76	Cl	2.390938	0.207204	-0.708978
H77	H	1.891510	0.652288	-0.291665
Cl78	Cl	2.279732	1.027306	-0.177018
H79	H	1.922635	0.784691	-0.290695
H80	H	2.683509	0.217427	-0.802781
Cl81	Cl	1.722608	0.396292	-0.153036
H82	H	2.598573	0.426940	-0.178680
Cl83	Cl	2.230461	0.218851	-0.834902
H84	H	2.481575	-0.195506	-0.164349
H85	H	2.098577	0.426957	-0.178700
Cl86	Cl	1.890938	0.207204	-0.708978
H87	H	2.129682	0.559359	-0.177711
H88	H	2.079730	0.638910	-0.039410
H89	H	2.110836	0.771318	-0.038422
H90	H	2.204351	0.877164	-0.175340
H91	H	1.903777	0.996652	-0.151377
Cl92	Cl	2.261366	0.561063	-0.151803
Cl93	Cl	2.306023	-0.137403	-0.178235
H94	H	2.629703	0.559331	-0.177658
Cl95	Cl	1.761320	0.561028	-0.151821
H96	H	2.398882	0.009571	-0.174326
Cl97	Cl	2.487048	0.651432	-0.165430
H98	H	2.661935	-0.135776	-0.152373
H99	H	2.266897	0.414058	-0.155729
Cl100	Cl	2.754821	0.011220	-0.148495
