data_functionalizedCrystal
_audit_creation_method	'MofGen! by Chris Wilmer'
_symmetry_space_group_name_H-M	'P1'
_symmetry_Int_Tables_number	1
_symmetry_cell_setting	triclinic
loop_
_symmetry_equiv_pos_as_xyz
  x,y,z
_cell_length_a	19.077105
_cell_length_b	11.169416
_cell_length_c	11.169409
_cell_angle_alpha	90.030874
_cell_angle_beta	87.679347
_cell_angle_gamma	92.293056
loop_
_atom_site_label
_atom_site_type_symbol
_atom_site_fract_x
_atom_site_fract_y
_atom_site_fract_z
Zn1	Zn	1.076092	0.551539	-0.752302
Zn2	Zn	1.076028	0.752275	-0.551620
Zn3	Zn	0.958386	0.543533	-0.543570
Zn4	Zn	0.958390	0.744103	-0.744203
O5	O	1.017224	0.647862	-0.647924
O6	O	1.174576	0.584937	-0.732440
O7	O	1.060393	0.724654	-0.382600
O8	O	0.974025	0.376647	-0.571279
O9	O	1.174528	0.732417	-0.584999
O10	O	1.060504	0.382529	-0.724634
O11	O	0.973962	0.571293	-0.376686
O12	O	0.859894	0.563369	-0.563426
O13	O	0.974033	0.718489	-0.913229
O14	O	0.859898	0.710727	-0.710830
O15	O	1.060508	0.577013	-0.919180
O16	O	1.060397	0.919139	-0.577146
O17	O	0.973970	0.913135	-0.718635
C18	C	0.834358	0.635293	-0.635376
C19	C	0.756127	0.629945	-0.630036
C20	C	0.719394	0.704270	-0.704153
C21	C	0.645888	0.699229	-0.699141
C22	C	0.609116	0.619868	-0.620007
C23	C	0.645854	0.545536	-0.545888
C24	C	0.719359	0.550571	-0.550906
C25	C	0.389278	0.596562	-0.596788
C26	C	0.315768	0.591534	-0.591773
C27	C	0.315807	0.745226	-0.745029
C28	C	0.389313	0.750260	-0.750035
C29	C	0.426045	0.675923	-0.675920
N30	N	0.533981	0.614716	-0.614880
N31	N	0.501179	0.681070	-0.681054
C32	C	1.017196	0.959685	-0.647913
C33	C	1.017249	1.093089	-0.647952
C34	C	1.017278	0.647733	-0.960970
C35	C	1.017301	0.647678	-1.094372
C36	C	1.200804	0.660481	-0.660521
C37	C	1.279035	0.665859	-0.665889
C38	C	1.017271	0.334823	-0.647962
C39	C	1.017291	0.201425	-0.647979
C40	C	1.017211	0.647908	-0.336098
C41	C	1.017324	0.647634	-0.202706
H42	H	0.419248	0.814887	-0.814472
H43	H	0.615983	0.759753	-0.759494
Br44	Br	0.265953	0.846111	-0.845603
Br45	Br	0.439119	0.495669	-0.496210
Br46	Br	0.265863	0.483837	-0.484356
H47	H	0.615909	0.480914	-0.481460
Br48	Br	0.769212	0.449692	-0.450322
H49	H	0.749329	0.768897	-0.768589
