data_functionalizedCrystal
_audit_creation_method	'MofGen! by Chris Wilmer'
_symmetry_space_group_name_H-M	'P1'
_symmetry_Int_Tables_number	1
_symmetry_cell_setting	triclinic
loop_
_symmetry_equiv_pos_as_xyz
  x,y,z
_cell_length_a	19.805407
_cell_length_b	19.805404
_cell_length_c	19.805399
_cell_angle_alpha	89.974853
_cell_angle_beta	89.978936
_cell_angle_gamma	90.029747
loop_
_atom_site_label
_atom_site_type_symbol
_atom_site_fract_x
_atom_site_fract_y
_atom_site_fract_z
Zn1	Zn	-1.034715	0.269497	0.382758
Zn2	Zn	-0.534715	0.769497	0.882758
Zn3	Zn	-1.034621	0.382686	0.269575
Zn4	Zn	-0.534621	0.882686	0.769575
Zn5	Zn	-0.921530	0.269514	0.269580
Zn6	Zn	-0.421530	0.769514	0.769580
Zn7	Zn	-0.921485	0.382648	0.382718
Zn8	Zn	-0.421485	0.882648	0.882718
O9	O	-0.978088	0.326086	0.326158
O10	O	-0.478088	0.826086	0.826158
O11	O	-1.129419	0.284521	0.367758
O12	O	-0.629419	0.784521	0.867758
O13	O	-1.019599	0.367696	0.174859
O14	O	-0.519599	0.867696	0.674859
O15	O	-0.936602	0.174795	0.284612
O16	O	-0.436602	0.674795	0.784612
O17	O	-1.129350	0.367680	0.284603
O18	O	-0.629350	0.867680	0.784603
O19	O	-1.019759	0.174783	0.367763
O20	O	-0.519759	0.674783	0.867763
O21	O	-0.936511	0.284549	0.174862
O22	O	-0.436511	0.784549	0.674862
O23	O	-0.826807	0.284512	0.284573
O24	O	-0.326807	0.784512	0.784573
O25	O	-0.936525	0.367615	0.477440
O26	O	-0.436525	0.867615	0.977440
O27	O	-0.826774	0.367631	0.367696
O28	O	-0.326774	0.867631	0.867696
O29	O	-1.019715	0.284484	0.477469
O30	O	-0.519715	0.784484	0.977469
O31	O	-1.019556	0.477397	0.284565
O32	O	-0.519556	0.977397	0.784565
O33	O	-0.936434	0.477369	0.367691
O34	O	-0.436434	0.977369	0.867691
C35	C	-0.802232	0.326070	0.326131
C36	C	-0.302232	0.826070	0.826131
C37	C	-0.727000	0.326079	0.326136
C38	C	-0.227000	0.826079	0.826136
C39	C	-0.977998	0.501942	0.326138
C40	C	-0.477998	1.001942	0.826138
C41	C	-0.978022	0.577174	0.326152
C42	C	-0.478022	1.077174	0.826152
C43	C	-0.691656	0.369424	0.369347
C44	C	-0.191656	0.869424	0.869347
C45	C	-0.620968	0.369424	0.369355
C46	C	-0.120968	0.869424	0.869355
C47	C	-0.585624	0.326082	0.326147
C48	C	-0.085624	0.826082	0.826147
C49	C	-0.620973	0.282733	0.282935
C50	C	-0.120973	0.782733	0.782935
C51	C	-0.691660	0.282730	0.282931
C52	C	-0.191660	0.782730	0.782931
C53	C	-0.335900	0.282743	0.282950
C54	C	0.164100	0.782743	0.782950
C55	C	-0.265207	0.282750	0.282955
C56	C	0.234793	0.782750	0.782955
C57	C	-0.265207	0.369437	0.369373
C58	C	0.234793	0.869437	0.869373
C59	C	-0.335894	0.369434	0.369369
C60	C	0.164106	0.869434	0.869369
C61	C	-0.371237	0.326082	0.326160
C62	C	0.128763	0.826082	0.826160
C63	C	-0.447885	0.326082	0.326153
C64	C	0.052115	0.826082	0.826153
C65	C	-0.508977	0.326085	0.326150
C66	C	-0.008977	0.826085	0.826150
C67	C	-0.154631	0.326098	0.326178
C68	C	0.345369	0.826098	0.826178
C69	C	-0.229862	0.326092	0.326170
C70	C	0.270138	0.826092	0.826170
C71	C	-1.021521	1.038957	0.282993
C72	C	-0.521521	1.538957	0.782993
C73	C	-1.021490	0.968269	0.282977
C74	C	-0.521490	1.468269	0.782977
C75	C	-0.978164	0.932936	0.326214
C76	C	-0.478164	1.432936	0.826214
C77	C	-0.934861	0.968295	0.369465
C78	C	-0.434861	1.468295	0.869465
C79	C	-0.934888	1.038982	0.369477
C80	C	-0.434888	1.538982	0.869477
C81	C	-0.934749	0.683222	0.369418
C82	C	-0.434749	1.183222	0.869418
C83	C	-0.934726	0.612530	0.369404
C84	C	-0.434726	1.112530	0.869404
C85	C	-1.021351	0.612508	0.282919
C86	C	-0.521351	1.112508	0.782919
C87	C	-1.021378	0.683195	0.282930
C88	C	-0.521378	1.183195	0.782930
C89	C	-0.978073	0.718548	0.326178
C90	C	-0.478073	1.218548	0.826178
C91	C	-0.978105	0.795197	0.326194
C92	C	-0.478105	1.295197	0.826194
C93	C	-0.978135	0.856289	0.326203
C94	C	-0.478135	1.356289	0.826203
C95	C	-0.978126	0.326043	0.502700
C96	C	-0.478126	0.826043	1.002700
C97	C	-0.978142	0.326025	0.577932
C98	C	-0.478142	0.826025	1.077932
C99	C	-0.978191	1.149543	0.326201
C100	C	-0.478191	1.649543	0.826201
C101	C	-0.978222	1.074311	0.326242
C102	C	-0.478222	1.574311	0.826242
C103	C	-0.978089	0.326080	0.150302
C104	C	-0.478089	0.826080	0.650302
C105	C	-0.978204	0.325907	0.075070
C106	C	-0.478204	0.825907	0.575070
C107	C	-1.021460	0.282737	0.613293
C108	C	-0.521460	0.782737	1.113293
C109	C	-1.021467	0.282717	0.683981
C110	C	-0.521467	0.782717	1.183981
C111	C	-0.978159	0.325990	0.719308
C112	C	-0.478159	0.825990	1.219308
C113	C	-0.934836	0.369280	0.683943
C114	C	-0.434836	0.869280	1.183943
C115	C	-0.934826	0.369296	0.613256
C116	C	-0.434826	0.869296	1.113256
C117	C	-0.934874	0.369217	0.969016
C118	C	-0.434874	0.869217	1.469016
C119	C	-0.934889	0.369200	1.039708
C120	C	-0.434889	0.869200	1.539708
C121	C	-1.021515	0.282638	1.039742
C122	C	-0.521515	0.782638	1.539742
C123	C	-1.021505	0.282654	0.969055
C124	C	-0.521505	0.782654	1.469055
C125	C	-0.978180	0.325942	0.933696
C126	C	-0.478180	0.825942	1.433696
C127	C	-0.978172	0.325961	0.857047
C128	C	-0.478172	0.825961	1.357047
C129	C	-0.978170	0.325974	0.795955
C130	C	-0.478170	0.825974	1.295955
H131	H	-0.592194	0.404720	0.404541
H132	H	-0.092194	0.904720	0.904541
C133	C	-1.054532	0.168048	0.947331
C134	C	-0.554532	0.668048	1.447331
C135	C	-1.069107	0.235081	0.930229
C136	C	-0.569107	0.735081	1.430229
H137	H	-1.083916	0.138676	0.923360
H138	H	-0.583916	0.638676	1.423360
H139	H	-1.060738	0.161853	0.994485
H140	H	-0.560738	0.661853	1.494485
H141	H	-1.009056	0.158154	0.935734
H142	H	-0.509056	0.658154	1.435734
H143	H	-1.114581	0.244977	0.941830
H144	H	-0.614581	0.744977	1.441830
H145	H	-1.062907	0.241279	0.883064
H146	H	-0.562907	0.741279	1.383064
H147	H	-0.899545	0.404539	0.584466
H148	H	-0.399545	0.904539	1.084466
C149	C	-1.059994	0.244162	1.148116
C150	C	-0.559994	0.744162	1.648116
C151	C	-1.069132	0.235046	1.078611
C152	C	-0.569132	0.735046	1.578611
H153	H	-1.089388	0.214778	1.172109
H154	H	-0.589388	0.714778	1.672109
H155	H	-1.069875	0.289631	1.159693
H156	H	-0.569875	0.789631	1.659693
H157	H	-1.014522	0.234247	1.159684
H158	H	-0.514522	0.734247	1.659684
H159	H	-1.114602	0.244966	1.067042
H160	H	-0.614602	0.744966	1.567042
H161	H	-1.059256	0.189566	1.067030
H162	H	-0.559256	0.689566	1.567030
C163	C	-0.849242	0.454759	1.032579
C164	C	-0.349242	0.954759	1.532579
C165	C	-0.887276	0.416763	1.078541
C166	C	-0.387276	0.916763	1.578541
H167	H	-0.819847	0.484118	1.056554
H168	H	-0.319847	0.984118	1.556554
H169	H	-0.878707	0.480662	1.005010
H170	H	-0.378707	0.980662	1.505010
H171	H	-0.823369	0.425263	1.005008
H172	H	-0.323369	0.925263	1.505008
H173	H	-0.913153	0.446259	1.106109
H174	H	-0.413153	0.946259	1.606109
H175	H	-0.857807	0.390858	1.106122
H176	H	-0.357807	0.890858	1.606122
C177	C	-0.684565	0.197052	0.197498
C178	C	-0.184565	0.697052	0.697498
C179	C	-0.730513	0.235090	0.235426
C180	C	-0.230513	0.735090	0.735426
H181	H	-0.708552	0.167644	0.168167
H182	H	-0.208552	0.667644	0.668167
H183	H	-0.657022	0.171200	0.227033
H184	H	-0.157022	0.671200	0.727033
H185	H	-0.656967	0.226518	0.171561
H186	H	-0.156967	0.726518	0.671561
H187	H	-0.758108	0.205625	0.261366
H188	H	-0.258108	0.705625	0.761366
H189	H	-0.758067	0.260944	0.205887
H190	H	-0.258067	0.760944	0.705887
H191	H	-1.056661	0.711960	0.247725
H192	H	-0.556661	1.211960	0.747725
H193	H	-0.720428	0.404720	0.404529
H194	H	-0.220428	0.904720	0.904529
H195	H	-0.364668	0.404729	0.404551
H196	H	0.135332	0.904729	0.904551
C197	C	-1.107141	1.031828	0.197497
C198	C	-0.607141	1.531828	0.697497
C199	C	-1.069146	1.077792	0.235463
C200	C	-0.569146	1.577792	0.735463
H201	H	-1.136538	1.055803	0.168150
H202	H	-0.636538	1.555803	0.668150
H203	H	-1.133002	1.004219	0.227007
H204	H	-0.633002	1.504219	0.727007
H205	H	-1.077647	1.004298	0.171577
H206	H	-0.577647	1.504298	0.671577
H207	H	-1.098639	1.105318	0.261388
H208	H	-0.598639	1.605318	0.761388
H209	H	-1.043282	1.105413	0.205950
H210	H	-0.543282	1.605413	0.705950
H211	H	-0.899442	0.583763	0.404614
H212	H	-0.399442	1.083763	0.904614
H213	H	-0.236423	0.404733	0.404560
H214	H	0.263577	0.904733	0.904560
C215	C	-1.030926	0.888833	0.191920
C216	C	-0.530926	1.388833	0.691920
C217	C	-1.069088	0.929411	0.235436
C218	C	-0.569088	1.429411	0.735436
H219	H	-1.060313	0.864849	0.162566
H220	H	-0.560313	1.364849	0.662566
H221	H	-1.005125	0.857675	0.217665
H222	H	-0.505125	1.357675	0.717665
H223	H	-1.001465	0.916461	0.166010
H224	H	-0.501465	1.416461	0.666010
H225	H	-1.098546	0.901783	0.261351
H226	H	-0.598546	1.401783	0.761351
H227	H	-1.094900	0.960573	0.209689
H228	H	-0.594900	1.460573	0.709689
C229	C	-0.925384	0.460285	0.889513
C230	C	-0.425384	0.960285	1.389513
C231	C	-0.887251	0.416803	0.930162
C232	C	-0.387251	0.916803	1.430162
H233	H	-0.895980	0.489660	0.865523
H234	H	-0.395980	0.989660	1.365523
H235	H	-0.954860	0.486168	0.917087
H236	H	-0.454860	0.986168	1.417087
H237	H	-0.951167	0.434512	0.858352
H238	H	-0.451167	0.934512	1.358352
H239	H	-0.861473	0.442575	0.961326
H240	H	-0.361473	0.942575	1.461326
H241	H	-0.857764	0.390917	0.902585
H242	H	-0.357764	0.890917	1.402585
H243	H	-0.899633	1.067767	0.404698
H244	H	-0.399633	1.567767	0.904698
H245	H	-0.899580	0.939523	0.404667
H246	H	-0.399580	1.439523	0.904667
C247	C	-0.415422	0.191678	0.273701
C248	C	0.084578	0.691678	0.773701
C249	C	-0.374745	0.235097	0.235451
C250	C	0.125255	0.735097	0.735451
H251	H	-0.439403	0.162261	0.244374
H252	H	0.060597	0.662261	0.744374
H253	H	-0.446584	0.217489	0.299428
H254	H	0.053416	0.717489	0.799428
H255	H	-0.387863	0.165830	0.303234
H256	H	0.112137	0.665830	0.803234
H257	H	-0.402305	0.260949	0.205921
H258	H	0.097695	0.760949	0.705921
H259	H	-0.343580	0.209283	0.209713
H260	H	0.156420	0.709283	0.709713
C261	C	-1.059774	0.504140	0.244483
C262	C	-0.559774	1.004140	0.744483
C263	C	-1.068948	0.573646	0.235371
C264	C	-0.568948	1.073646	0.735371
H265	H	-1.089156	0.480151	0.215128
H266	H	-0.589156	0.980151	0.715128
H267	H	-1.069648	0.492520	0.289962
H268	H	-0.569648	0.992520	0.789962
H269	H	-1.014296	0.492610	0.234528
H270	H	-0.514296	0.992610	0.734528
H271	H	-1.114424	0.585176	0.245331
H272	H	-0.614424	1.085176	0.745331
H273	H	-1.059078	0.585271	0.189882
H274	H	-0.559078	1.085271	0.689882
H275	H	-0.592191	0.247440	0.247758
H276	H	-0.092191	0.747440	0.747758
C277	C	-0.849124	0.676133	0.454910
C278	C	-0.349124	1.176133	0.954910
C279	C	-0.887152	0.722076	0.416960
C280	C	-0.387152	1.222076	0.916960
H281	H	-0.819742	0.700123	0.484264
H282	H	-0.319742	1.200123	0.984264
H283	H	-0.823244	0.648604	0.425389
H284	H	-0.323244	1.148604	0.925389
H285	H	-0.878597	0.648520	0.480821
H286	H	-0.378597	1.148520	0.980821
H287	H	-0.857679	0.749685	0.391044
H288	H	-0.357679	1.249685	0.891044
H289	H	-0.913034	0.749616	0.446484
H290	H	-0.413034	1.249616	0.946484
C291	C	-1.107084	0.197165	0.620434
C292	C	-0.607084	0.697165	1.120434
C293	C	-1.069065	0.235167	0.574465
C294	C	-0.569065	0.735167	1.074465
H295	H	-1.136470	0.167793	0.596463
H296	H	-0.636470	0.667793	1.096463
H297	H	-1.132960	0.226651	0.648001
H298	H	-0.632960	0.726651	1.148001
H299	H	-1.077605	0.171269	0.648005
H300	H	-0.577605	0.671269	1.148005
H301	H	-1.098544	0.261067	0.546897
H302	H	-0.598544	0.761067	1.046897
H303	H	-1.043187	0.205678	0.546886
H304	H	-0.543187	0.705678	1.046886
C305	C	-1.030932	0.191641	0.763476
C306	C	-0.530932	0.691641	1.263476
C307	C	-1.069080	0.235124	0.722843
C308	C	-0.569080	0.735124	1.222843
H309	H	-1.060327	0.162252	0.787462
H310	H	-0.560327	0.662252	1.287462
H311	H	-1.005152	0.217407	0.794634
H312	H	-0.505152	0.717407	1.294634
H313	H	-1.001454	0.165765	0.735887
H314	H	-0.501454	0.665765	1.235887
H315	H	-1.098555	0.261003	0.750433
H316	H	-0.598555	0.761003	1.250433
H317	H	-1.094872	0.209355	0.691682
H318	H	-0.594872	0.709355	1.191682
H319	H	-0.899571	0.404511	0.712711
H320	H	-0.399571	0.904511	1.212711
H321	H	-0.236433	0.247452	0.247771
H322	H	0.263567	0.747452	0.747771
