data_functionalizedCrystal
_audit_creation_method	'MofGen! by Chris Wilmer'
_symmetry_space_group_name_H-M	'P1'
_symmetry_Int_Tables_number	1
_symmetry_cell_setting	triclinic
loop_
_symmetry_equiv_pos_as_xyz
  x,y,z
_cell_length_a	16.120530
_cell_length_b	17.077402
_cell_length_c	17.077396
_cell_angle_alpha	90.030530
_cell_angle_beta	87.083390
_cell_angle_gamma	92.872067
loop_
_atom_site_label
_atom_site_type_symbol
_atom_site_fract_x
_atom_site_fract_y
_atom_site_fract_z
Zn1	Zn	1.274483	0.373438	-0.504606
Zn2	Zn	1.274361	0.504707	-0.373329
Zn3	Zn	1.135067	0.366800	-0.366706
Zn4	Zn	1.135010	0.497998	-0.497908
O5	O	1.204730	0.435736	-0.435637
O6	O	1.391132	0.396437	-0.492767
O7	O	1.255856	0.486443	-0.262602
O8	O	1.153636	0.257837	-0.385030
O9	O	1.391042	0.492880	-0.396319
O10	O	1.256064	0.262714	-0.486344
O11	O	1.153518	0.385124	-0.257736
O12	O	1.018395	0.378618	-0.378535
O13	O	1.153538	0.481445	-0.608645
O14	O	1.018353	0.475009	-0.474929
O15	O	1.256009	0.389932	-0.613566
O16	O	1.255800	0.613661	-0.389824
O17	O	1.153420	0.608731	-0.481351
C18	C	0.988124	0.425365	-0.425287
C19	C	0.895459	0.420948	-0.420877
C20	C	1.204613	0.639678	-0.435598
C21	C	1.204639	0.726929	-0.435611
C22	C	1.204781	0.435681	-0.640384
C23	C	1.204802	0.435657	-0.727635
C24	C	0.725798	0.412864	-0.412833
C25	C	0.684502	0.458666	-0.458498
C26	C	0.590098	0.454168	-0.454023
C27	C	0.820212	0.417361	-0.417308
C28	C	1.422182	0.446147	-0.446029
C29	C	1.514847	0.450584	-0.450457
C30	C	1.258066	1.105224	-0.488466
C31	C	1.258039	1.023242	-0.488448
C32	C	1.204737	0.979783	-0.435655
C33	C	1.151464	1.018310	-0.382871
C34	C	1.151495	1.100290	-0.382885
C35	C	1.151401	0.847437	-0.382846
C36	C	1.151368	0.765450	-0.382832
C37	C	1.257945	0.770389	-0.488409
C38	C	1.257977	0.852369	-0.488423
C39	C	1.204702	0.890890	-0.435640
C40	C	1.204836	1.230997	-0.435687
C41	C	1.204795	1.143745	-0.435687
C42	C	1.258160	0.388002	-0.771189
C43	C	1.258170	0.387976	-0.853170
C44	C	1.204826	0.435610	-0.891596
C45	C	1.151462	0.483267	-0.848036
C46	C	1.151448	0.483288	-0.766056
C47	C	1.151495	0.483222	-1.018907
C48	C	1.151510	0.483202	-1.100893
C49	C	1.258218	0.387909	-1.106021
C50	C	1.258204	0.387930	-1.024041
C51	C	1.204841	0.435589	-0.980487
C52	C	1.204728	0.435737	-0.231689
C53	C	1.204868	0.435547	-0.144447
H54	H	0.720048	0.501255	-0.500956
H55	H	1.301323	0.739020	-0.531386
O56	O	1.309669	0.985734	-0.539755
C57	C	1.262157	0.936062	-0.588154
H58	H	1.198992	0.920828	-0.557398
H59	H	1.252968	0.967187	-0.645883
C60	C	1.385577	0.879047	-0.642359
C61	C	1.307999	0.860332	-0.604582
H62	H	1.413855	0.832334	-0.652497
H63	H	1.417588	0.912514	-0.609754
H64	H	1.377909	0.904986	-0.690463
H65	H	1.315669	0.834403	-0.556476
H66	H	1.275990	0.826858	-0.637180
O67	O	0.683272	0.362127	-0.362202
C68	C	0.597116	0.368872	-0.368961
H69	H	0.585314	0.428931	-0.394018
H70	H	0.572450	0.321211	-0.409699
C71	C	0.566763	0.285727	-0.256693
C72	C	0.552267	0.359496	-0.287462
H73	H	0.539096	0.279940	-0.206422
H74	H	0.624807	0.281180	-0.252141
H75	H	0.546207	0.246018	-0.290649
H76	H	0.572832	0.399203	-0.253512
H77	H	0.494225	0.364049	-0.292007
O78	O	1.309885	1.147522	-0.539646
C79	C	1.363792	1.197490	-0.497582
H80	H	1.334429	1.208440	-0.436672
H81	H	1.425566	1.168799	-0.491947
C82	C	1.414960	1.262586	-0.616334
C83	C	1.378893	1.276041	-0.541525
H84	H	1.424279	1.311039	-0.643441
H85	H	1.378645	1.228920	-0.644674
H86	H	1.466435	1.238675	-0.611627
H87	H	1.327415	1.299943	-0.546233
H88	H	1.415200	1.309713	-0.513187
H89	H	1.108021	0.878798	-0.339862
H90	H	1.108070	0.521988	-1.132177
H91	H	1.301378	0.887752	-0.531414
H92	H	1.107965	0.730070	-0.339841
H93	H	1.108116	1.131653	-0.339907
O94	O	1.099782	0.529563	-0.976511
C95	C	1.147219	0.582551	-0.931365
H96	H	1.210414	0.557887	-0.922127
H97	H	1.156346	0.641152	-0.963378
C98	C	1.023722	0.624880	-0.862633
C99	C	1.101338	0.594584	-0.851281
H100	H	0.995420	0.632306	-0.813235
H101	H	0.991762	0.589183	-0.893050
H102	H	1.031340	0.673711	-0.889313
H103	H	1.093719	0.545749	-0.824611
H104	H	1.133296	0.630273	-0.820857
H105	H	1.301647	0.349147	-0.992758
O106	O	1.099522	0.529451	-0.885318
C107	C	1.016440	0.508336	-0.861301
H108	H	1.012269	0.445431	-0.838585
H109	H	0.994611	0.549386	-0.812658
C110	C	0.965929	0.592052	-0.959360
C111	C	0.960806	0.514789	-0.931466
H112	H	0.931610	0.596035	-1.002640
H113	H	1.021903	0.606280	-0.975539
H114	H	0.947740	0.626252	-0.918817
H115	H	0.979005	0.480592	-0.972006
H116	H	0.904833	0.500555	-0.915296
O117	O	1.099568	0.976174	-0.331623
C118	C	1.016475	0.992283	-0.344768
H119	H	1.014756	1.051706	-0.374864
H120	H	0.988356	0.944800	-0.383760
C121	C	0.968125	0.920765	-0.228833
C122	C	0.966014	0.993753	-0.265792
H123	H	0.936997	0.921668	-0.180118
H124	H	1.024106	0.909909	-0.219978
H125	H	0.944695	0.881204	-0.261334
H126	H	0.989453	1.033311	-0.233295
H127	H	0.910035	1.004615	-0.274639
H128	H	1.301602	0.349215	-0.739909
H129	H	1.301622	0.349172	-0.888628
H130	H	1.301667	0.349103	-1.141487
H131	H	1.107990	0.522086	-0.730595
