data_functionalizedCrystal
_audit_creation_method	'MofGen! by Chris Wilmer'
_symmetry_space_group_name_H-M	'P1'
_symmetry_Int_Tables_number	1
_symmetry_cell_setting	triclinic
loop_
_symmetry_equiv_pos_as_xyz
  x,y,z
_cell_length_a	19.288867
_cell_length_b	15.995292
_cell_length_c	17.766277
_cell_angle_alpha	89.996830
_cell_angle_beta	89.992126
_cell_angle_gamma	83.302842
loop_
_atom_site_label
_atom_site_type_symbol
_atom_site_fract_x
_atom_site_fract_y
_atom_site_fract_z
O1	O	0.921605	0.104462	-0.062563
O2	O	0.719379	0.118551	-0.062569
O3	O	0.826041	-0.010405	-0.062567
O4	O	0.814943	0.233419	-0.062565
O5	O	0.826022	-0.010411	0.062622
O6	O	0.719360	0.118545	0.062619
O7	O	0.921586	0.104456	0.062626
Cu8	Cu	0.820472	0.111500	0.074053
Cu9	Cu	0.820494	0.111508	-0.073997
O10	O	0.814924	0.233412	0.062624
C11	C	0.693492	0.118095	0.000024
C12	C	0.616385	0.116733	0.000021
C13	C	0.060806	0.106928	-0.068210
C14	C	0.133257	0.108203	-0.068213
C15	C	0.169477	0.108840	0.000027
C16	C	0.133242	0.108182	0.068275
C17	C	0.060794	0.106899	0.068276
C18	C	0.278920	0.159911	0.052308
C19	C	0.351366	0.161199	0.052305
C20	C	0.392932	0.112793	0.000027
C21	C	0.362041	0.063110	-0.052259
C22	C	0.289593	0.061827	-0.052258
C23	C	0.248035	0.110231	0.000034
C24	C	0.507718	0.114827	-0.068219
C25	C	0.580170	0.116097	-0.068219
C26	C	0.580153	0.116084	0.068271
C27	C	0.507703	0.114807	0.068269
C28	C	0.471489	0.114182	0.000021
C29	C	0.825580	-0.041602	0.000025
C30	C	0.824226	-0.134550	0.000020
C31	C	0.819248	-0.472270	0.000026
C32	C	0.896233	-0.449247	0.000309
C33	C	0.897697	-0.352577	0.000024
C34	C	0.821718	-0.304723	0.000024
C35	C	0.783239	-0.333675	-0.071464
C36	C	0.782312	-0.430462	-0.071521
C37	C	0.780719	-0.430321	0.070841
C38	C	0.783572	-0.333839	0.071784
C39	C	0.823110	-0.210032	0.000019
C40	C	0.817853	-0.566960	0.000026
C41	C	0.947473	0.104913	0.000031
C42	C	1.024580	0.106274	0.000029
C43	C	0.815385	0.264609	0.000030
C44	C	0.816739	0.357557	0.000030
N45	N	0.820461	0.111494	0.178184
N46	N	0.820510	0.111507	-0.178127
C47	C	0.867706	0.054420	0.217572
C48	C	0.867710	0.054416	0.296373
C49	C	0.820476	0.111501	0.335784
C50	C	0.773221	0.168579	0.296387
C51	C	0.773214	0.168576	0.217586
C52	C	0.811362	0.187793	0.460623
C53	C	0.811374	0.187798	0.539421
C54	C	0.820494	0.111511	0.578831
C55	C	0.829617	0.035216	0.539431
C56	C	0.829610	0.035212	0.460631
C57	C	0.820478	0.111510	0.421230
C58	C	0.867747	0.054428	0.703664
C59	C	0.867746	0.054423	0.782468
C60	C	0.773260	0.168593	0.782480
C61	C	0.773258	0.168591	0.703678
C62	C	0.820505	0.111509	0.664275
H63	H	0.264445	0.021371	-0.094830
Br64	Br	0.011626	0.106013	0.160893
Br65	Br	0.931864	-0.023042	0.650187
Br66	Br	0.826758	-0.475326	-0.160585
H67	H	0.376510	0.201675	0.094863
Br68	Br	0.947905	-0.321052	0.085448
Br69	Br	0.931823	-0.023048	0.164096
H70	H	0.803923	0.249919	0.428542
H71	H	0.734761	0.215057	0.328479
H72	H	0.609665	0.116623	-0.123790
Br73	Br	0.458534	0.113931	0.160884
Br74	Br	0.799001	0.291339	0.592884
H75	H	0.245083	0.199326	0.094887
H76	H	0.734740	0.215053	0.185516
Br77	Br	0.688235	-0.454366	-0.076934
H78	H	0.162738	0.108699	0.123837
Br79	Br	0.686270	-0.453283	0.071646
H80	H	0.925750	-0.478373	-0.050669
Br81	Br	0.011662	0.106076	-0.160831
Br82	Br	0.629303	0.116931	0.160884
Br83	Br	0.458566	0.113976	-0.160838
H84	H	0.906184	0.007938	0.328449
Br85	Br	0.709138	0.246054	0.650216
Br86	Br	0.945684	-0.496098	0.085759
H87	H	0.837044	-0.026905	0.571516
H88	H	0.727329	-0.301597	-0.074122
Br89	Br	0.418442	-0.002583	-0.123217
Br90	Br	0.182432	0.109090	-0.160830
Br91	Br	0.931863	-0.023048	0.835927
H92	H	0.928026	-0.334284	-0.051309
H93	H	0.809975	-0.313713	-0.124664
Br94	Br	0.820846	-0.477645	0.161153
H95	H	0.734798	0.215069	0.814567
H96	H	0.811590	-0.315382	0.124670
H97	H	0.837036	-0.026909	0.428555
H98	H	0.728114	-0.300661	0.076101
