data_functionalizedCrystal
_audit_creation_method	'MofGen! by Chris Wilmer'
_symmetry_space_group_name_H-M	'P1'
_symmetry_Int_Tables_number	1
_symmetry_cell_setting	triclinic
loop_
_symmetry_equiv_pos_as_xyz
  x,y,z
_cell_length_a	9.065215
_cell_length_b	10.654551
_cell_length_c	8.140239
_cell_angle_alpha	89.999303
_cell_angle_beta	89.997810
_cell_angle_gamma	84.750030
loop_
_atom_site_label
_atom_site_type_symbol
_atom_site_fract_x
_atom_site_fract_y
_atom_site_fract_z
O1	O	1.959395	0.184140	-0.136583
O2	O	1.530027	0.199249	-0.136589
O3	O	1.754582	0.008995	-0.136587
O4	O	1.734839	0.374395	-0.136585
O5	O	1.754569	0.008992	0.136640
O6	O	1.530014	0.199247	0.136638
O7	O	1.959382	0.184138	0.136644
Zn8	Zn	1.744696	0.191692	0.180022
Zn9	Zn	1.744713	0.191695	-0.179967
O10	O	1.734827	0.374393	0.136642
C11	C	1.475042	0.197797	0.000023
C12	C	1.311222	0.193458	0.000020
C13	C	1.753126	-0.037810	0.000023
C14	C	1.748788	-0.177271	0.000012
C15	C	1.746760	-0.242789	-0.148921
C16	C	1.742671	-0.373826	-0.148914
C17	C	1.742645	-0.373814	0.148973
C18	C	1.746723	-0.242779	0.148964
C19	C	1.748824	-0.177281	-0.297874
C20	C	1.746798	-0.242800	-0.446819
C21	C	1.742709	-0.373837	-0.446811
C22	C	1.740647	-0.439354	-0.297859
C23	C	2.014367	0.185590	0.000028
C24	C	2.178186	0.189929	0.000020
C25	C	1.736283	0.421197	0.000028
C26	C	1.740621	0.560658	0.000029
N27	N	1.744696	0.191689	0.425704
N28	N	1.744725	0.191688	-0.425649
H29	H	1.752157	-0.070585	-0.297896
H30	H	1.737296	-0.546051	-0.297865
O31	O	1.748431	-0.179032	0.293584
C32	C	1.623244	-0.090444	0.302436
H33	H	1.532872	-0.121027	0.217919
H34	H	1.655174	0.005970	0.262390
C35	C	1.676440	-0.045043	0.584176
C36	C	1.565439	-0.082610	0.480381
H37	H	1.640785	-0.040204	0.693941
H38	H	1.760784	-0.104722	0.578212
H39	H	1.703038	0.035300	0.550784
H40	H	1.538856	-0.162957	0.513760
H41	H	1.481088	-0.022944	0.486354
O42	O	1.740449	-0.437571	0.293553
C43	C	1.610513	-0.500569	0.302484
H44	H	1.567384	-0.515945	0.173167
H45	H	1.522758	-0.441122	0.375977
C46	C	1.698355	-0.610030	0.546475
C47	C	1.645390	-0.628925	0.387646
H48	H	1.719864	-0.689204	0.599013
H49	H	1.785893	-0.567584	0.540463
H50	H	1.625216	-0.560487	0.607698
H51	H	1.718535	-0.678454	0.326419
H52	H	1.557864	-0.671382	0.393649
H53	H	1.748462	-0.189446	-0.568090
H54	H	1.741044	-0.427177	-0.568090
