data_functionalizedCrystal
_audit_creation_method	'MofGen! by Chris Wilmer'
_symmetry_space_group_name_H-M	'P1'
_symmetry_Int_Tables_number	1
_symmetry_cell_setting	triclinic
loop_
_symmetry_equiv_pos_as_xyz
  x,y,z
_cell_length_a	6.817900
_cell_length_b	7.076148
_cell_length_c	14.858572
_cell_angle_alpha	90.598754
_cell_angle_beta	104.524003
_cell_angle_gamma	117.702381
loop_
_atom_site_label
_atom_site_type_symbol
_atom_site_fract_x
_atom_site_fract_y
_atom_site_fract_z
V1	V	-4.115448	-0.296438	-0.289311
V2	V	-3.782114	0.036895	0.044023
V3	V	-3.448781	0.370229	0.377356
O4	O	-4.022266	0.012864	-0.284469
O5	O	-3.688932	0.346197	0.048865
O6	O	-3.355599	0.679530	0.382198
O7	O	-4.142344	-0.586458	-0.286692
O8	O	-3.809011	-0.253125	0.046641
O9	O	-3.475678	0.080209	0.379975
O10	O	-4.071059	-0.292484	-0.415781
O11	O	-3.737726	0.040849	-0.082448
O12	O	-3.404392	0.374183	0.250886
O13	O	-4.094044	-0.283145	-0.154486
O14	O	-3.760711	0.050188	0.178847
O15	O	-3.427378	0.383521	0.512181
V16	V	-4.588799	-0.259370	-0.273262
V17	V	-4.255466	0.073963	0.060071
V18	V	-3.922132	0.407296	0.393404
O19	O	-4.399018	-0.377749	-0.324514
O20	O	-4.065685	-0.044415	0.008819
O21	O	-3.732351	0.288918	0.342153
O22	O	-4.755426	-0.178059	-0.238059
O23	O	-4.422092	0.155274	0.095274
O24	O	-4.088759	0.488607	0.428608
O25	O	-4.338696	0.030650	-0.275881
O26	O	-4.005363	0.363983	0.057452
O27	O	-3.672029	0.697317	0.390786
O28	O	-4.799378	-0.568672	-0.278104
O29	O	-4.466045	-0.235338	0.055229
O30	O	-4.132711	0.097995	0.388563
O31	O	-4.727599	-0.272663	-0.408087
O32	O	-4.394266	0.060670	-0.074753
O33	O	-4.060932	0.394004	0.258580
O34	O	-4.409981	-0.263324	-0.146792
O35	O	-4.076648	0.070009	0.186541
O36	O	-3.743315	0.403343	0.519875
C37	C	-3.914599	-0.282144	-0.446627
C38	C	-3.581266	0.051189	-0.113294
C39	C	-3.247933	0.384523	0.220039
C40	C	-3.960089	-0.280830	-0.550013
C41	C	-3.626755	0.052503	-0.216680
C42	C	-3.293422	0.385836	0.116653
C43	C	-4.138866	0.101321	-0.280608
C44	C	-3.805533	0.434655	0.052725
C45	C	-3.472200	0.767988	0.386058
C46	C	-4.012480	0.342870	-0.281950
C47	C	-3.679146	0.676203	0.051383
C48	C	-3.345813	1.009536	0.384716
C49	C	-4.126582	-0.276030	-0.928592
C50	C	-3.793248	0.057304	-0.595259
C51	C	-3.459915	0.390637	-0.261925
C52	C	-4.080250	-0.277366	-0.823260
C53	C	-3.746916	0.055968	-0.489926
C54	C	-3.413583	0.389301	-0.156593
C55	C	-4.043337	-0.278432	-0.739306
C56	C	-3.710004	0.054901	-0.405973
C57	C	-3.376670	0.388235	-0.072639
C58	C	-3.997001	-0.279764	-0.633967
C59	C	-3.663668	0.053569	-0.300634
C60	C	-3.330335	0.386903	0.032700
C61	C	-4.229784	-0.273671	-0.115940
C62	C	-3.896451	0.059662	0.217393
C63	C	-3.563118	0.392996	0.550726
C64	C	-4.163531	-0.274974	-0.012554
C65	C	-3.830198	0.058360	0.320780
C66	C	-3.496864	0.391693	0.654113
