data_functionalizedCrystal
_audit_creation_method	'MofGen! by Chris Wilmer'
_symmetry_space_group_name_H-M	'P1'
_symmetry_Int_Tables_number	1
_symmetry_cell_setting	triclinic
loop_
_symmetry_equiv_pos_as_xyz
  x,y,z
_cell_length_a	16.109301
_cell_length_b	14.044190
_cell_length_c	14.586319
_cell_angle_alpha	89.991348
_cell_angle_beta	89.999213
_cell_angle_gamma	88.326629
loop_
_atom_site_label
_atom_site_type_symbol
_atom_site_fract_x
_atom_site_fract_y
_atom_site_fract_z
O1	O	1.112198	0.121835	-0.076192
O2	O	1.612198	0.621835	0.423808
O3	O	0.871264	0.136997	-0.076208
O4	O	1.371264	0.636997	0.423792
O5	O	0.988112	-0.008568	-0.076183
O6	O	1.488112	0.491432	0.423817
O7	O	0.995351	0.267399	-0.076218
O8	O	1.495351	0.767399	0.423782
O9	O	0.988103	-0.008570	0.076298
O10	O	1.488103	0.491430	0.576298
O11	O	0.871255	0.136995	0.076273
O12	O	1.371255	0.636995	0.576273
O13	O	1.112189	0.121833	0.076288
O14	O	1.612189	0.621833	0.576288
Cu15	Cu	0.991721	0.129413	0.090203
Cu16	Cu	1.491721	0.629413	0.590203
Cu17	Cu	0.991732	0.129416	-0.090123
Cu18	Cu	1.491732	0.629416	0.409877
O19	O	0.995342	0.267397	0.076263
O20	O	1.495342	0.767397	0.576263
C21	C	0.840239	0.136382	0.000030
C22	C	1.340239	0.636382	0.500030
C23	C	0.747807	0.134540	0.000025
C24	C	1.247807	0.634540	0.500025
C25	C	0.984940	-0.043882	0.000060
C26	C	1.484940	0.456118	0.500060
C27	C	0.975494	-0.149105	0.000068
C28	C	1.475494	0.350895	0.500068
C29	C	0.531644	0.216634	0.000025
C30	C	1.031644	0.716634	0.500025
C31	C	0.444795	0.214896	0.000031
C32	C	0.944795	0.714896	0.500031
C33	C	0.451816	0.042189	0.000050
C34	C	0.951816	0.542189	0.500050
C35	C	0.538664	0.043927	0.000050
C36	C	1.038664	0.543927	0.500050
C37	C	0.578576	0.131153	0.000033
C38	C	1.078576	0.631153	0.500033
C39	C	0.404878	0.127677	0.000039
C40	C	0.904878	0.627677	0.500039
C41	C	0.310712	0.125792	0.000045
C42	C	0.810712	0.625792	0.500045
C43	C	0.672748	0.133038	0.000028
C44	C	1.172748	0.633038	0.500028
C45	C	1.025219	-0.399407	0.000035
C46	C	1.525219	0.100593	0.500035
C47	C	0.958238	-0.341758	0.000037
C48	C	1.458238	0.158242	0.500037
C49	C	0.967842	-0.234556	0.000054
C50	C	1.467842	0.265444	0.500054
C51	C	1.015617	-0.506619	0.000018
C52	C	1.515617	-0.006619	0.500018
C53	C	1.143214	0.122448	0.000048
C54	C	1.643214	0.622448	0.500048
C55	C	1.235646	0.124289	0.000047
C56	C	1.735646	0.624289	0.500047
C57	C	0.998513	0.302712	0.000018
C58	C	1.498513	0.802712	0.500018
C59	C	1.007959	0.407935	0.000004
C60	C	1.507959	0.907935	0.500004
N61	N	0.991720	0.129411	0.217035
N62	N	1.491720	0.629411	0.717035
N63	N	0.991740	0.129411	-0.216955
N64	N	1.491740	0.629411	0.283045
C65	C	1.043480	0.064977	0.452053
C66	C	1.543480	0.564977	0.952053
C67	C	1.043482	0.064974	0.548034
C68	C	1.543482	0.564974	1.048034
C69	C	0.939974	0.193848	0.548021
C70	C	1.439974	0.693848	1.048021
C71	C	0.939968	0.193845	0.452041
C72	C	1.439968	0.693845	0.952041
C73	C	0.991726	0.129411	0.404060
C74	C	1.491726	0.629411	0.904060
C75	C	0.991734	0.129411	0.596020
C76	C	1.491734	0.629411	1.096020
C77	C	0.991736	0.129409	0.700088
C78	C	1.491736	0.629409	1.200088
C79	C	0.991723	0.129411	0.299986
C80	C	1.491723	0.629411	0.799986
H81	H	0.564138	0.287658	0.000018
H82	H	1.064138	0.787658	0.500018
H83	H	0.576877	-0.025686	0.000059
H84	H	1.076877	0.474314	0.500059
H85	H	0.897819	0.246316	0.412963
H86	H	1.397819	0.746316	0.912963
H87	H	0.406587	0.284504	0.000027
H88	H	0.906587	0.784504	0.500027
H89	H	0.419309	-0.028827	0.000069
H90	H	0.919309	0.471173	0.500069
H91	H	1.085625	0.012505	0.587107
H92	H	1.585625	0.512505	1.087107
H93	H	1.089771	-0.368254	0.000049
H94	H	1.589771	0.131746	0.500049
H95	H	0.893681	-0.372913	0.000028
H96	H	1.393681	0.127087	0.500028
Br97	Br	0.869735	0.281294	0.613141
Br98	Br	1.369735	0.781294	1.113141
H99	H	1.085624	0.012509	0.412988
H100	H	1.585624	0.512509	0.912988
