data_functionalizedCrystal
_audit_creation_method	'MofGen! by Chris Wilmer'
_symmetry_space_group_name_H-M	'P1'
_symmetry_Int_Tables_number	1
_symmetry_cell_setting	triclinic
loop_
_symmetry_equiv_pos_as_xyz
  x,y,z
_cell_length_a	10.654554
_cell_length_b	14.044220
_cell_length_c	9.130313
_cell_angle_alpha	90.006686
_cell_angle_beta	90.000868
_cell_angle_gamma	88.837811
loop_
_atom_site_label
_atom_site_type_symbol
_atom_site_fract_x
_atom_site_fract_y
_atom_site_fract_z
O1	O	1.681222	0.133254	0.121809
O2	O	1.317019	0.145943	0.121811
O3	O	1.493654	0.001577	0.121796
O4	O	1.504587	0.277619	0.121825
O5	O	1.493650	0.001570	-0.121803
O6	O	1.317016	0.145935	-0.121787
O7	O	1.681218	0.133246	-0.121790
Cu8	Cu	1.499117	0.139590	-0.144031
Cu9	Cu	1.499121	0.139599	0.144053
O10	O	1.504584	0.277611	-0.121774
C11	C	1.270126	0.145006	0.000012
C12	C	1.130402	0.142216	0.000013
C13	C	0.928172	0.224598	0.000024
C14	C	1.059457	0.227220	0.000025
C15	C	1.070056	0.054584	0.000015
C16	C	0.938773	0.051963	0.000025
C17	C	0.922054	0.324268	0.000024
C18	C	1.053339	0.326890	0.000024
C19	C	1.488866	-0.033772	-0.000004
C20	C	1.474590	-0.139092	-0.000006
C21	C	1.448492	-0.331925	0.000015
C22	C	1.549740	-0.388892	0.000019
C23	C	1.535218	-0.496191	0.000031
C24	C	1.463012	-0.224616	0.000004
C25	C	1.728111	0.134182	0.000013
C26	C	1.867835	0.136972	0.000022
C27	C	1.509371	0.312961	0.000029
C28	C	1.523647	0.418281	0.000040
N29	N	1.499123	0.139598	0.346675
N30	N	1.499123	0.139583	-0.346654
C31	C	1.577509	0.075799	0.423321
C32	C	1.577512	0.075793	0.576657
C33	C	1.420734	0.203389	0.576690
C34	C	1.420738	0.203398	0.423356
C35	C	1.668020	0.002130	0.423303
C36	C	1.668023	0.002124	0.576640
H37	H	1.086615	0.365852	-0.101930
H38	H	1.356922	0.255357	0.360953
H39	H	1.350912	-0.363737	0.000020
H40	H	1.356915	0.255334	0.639141
O41	O	1.666229	-0.351057	-0.000196
C42	C	1.731864	-0.381578	-0.126383
H43	H	1.690071	-0.450486	-0.168426
H44	H	1.835011	-0.394490	-0.098024
H45	H	1.723585	-0.324441	-0.214734
O46	O	1.138832	-0.028053	-0.000183
C47	C	1.109997	-0.081202	-0.126364
H48	H	1.013171	-0.058563	-0.168426
H49	H	1.110352	-0.160254	-0.097992
H50	H	1.183150	-0.067768	-0.214707
H51	H	1.766124	0.018518	0.381702
O52	O	1.779476	0.029728	0.633608
C53	C	1.830929	-0.044320	0.720462
H54	H	1.752751	-0.092746	0.758434
H55	H	1.879512	-0.012671	0.819936
H56	H	1.902127	-0.087420	0.653254
H57	H	1.639423	-0.070831	0.618230
O58	O	1.623397	-0.080116	0.366704
C59	C	1.498963	-0.092546	0.414486
H60	H	1.482389	-0.050582	0.519846
H61	H	1.482856	-0.171345	0.435746
H62	H	1.431025	-0.065765	0.326506
H63	H	0.889652	-0.019390	0.000042
H64	H	0.884085	0.361831	0.101970
H65	H	0.879428	0.354377	-0.105149
H66	H	1.092164	0.358635	0.105209
