data_functionalizedCrystal
_audit_creation_method	'MofGen! by Chris Wilmer'
_symmetry_space_group_name_H-M	'P1'
_symmetry_Int_Tables_number	1
_symmetry_cell_setting	triclinic
loop_
_symmetry_equiv_pos_as_xyz
  x,y,z
_cell_length_a	20.919309
_cell_length_b	17.917603
_cell_length_c	17.917603
_cell_angle_alpha	89.765267
_cell_angle_beta	59.681234
_cell_angle_gamma	54.376365
loop_
_atom_site_label
_atom_site_type_symbol
_atom_site_fract_x
_atom_site_fract_y
_atom_site_fract_z
Zr1	Zr	0.647297	-0.096378	0.781180
O2	O	0.801379	-0.234795	0.656787
O3	O	0.507444	-0.049730	0.815096
O4	O	0.654412	-0.220276	0.813951
O5	O	0.643837	0.065484	0.663632
O6	O	0.643838	-0.213618	0.942722
O7	O	0.654411	-0.064250	0.657932
O8	O	0.380940	0.091458	0.944770
O9	O	0.906735	-0.239591	0.661584
O10	O	0.551806	-0.029960	0.930756
O11	O	0.551806	0.061891	0.838910
O12	O	0.724842	-0.138905	0.837562
O13	O	0.724841	-0.047055	0.745716
Zr14	Zr	0.613568	0.121151	0.995646
Zr15	Zr	0.630433	-0.085759	0.986555
Zr16	Zr	0.630432	0.110533	0.790271
Zr17	Zr	0.815328	-0.104026	0.788831
Zr18	Zr	0.445537	0.128800	0.987995
O19	O	0.753421	0.074503	0.961731
O20	O	0.777400	-0.219697	0.948804
O21	O	0.777399	0.059405	0.669714
O22	O	0.459486	0.259569	1.120040
O23	O	0.483466	-0.034631	1.107113
O24	O	0.483465	0.244471	0.828023
O25	O	0.617028	-0.040711	1.113194
O26	O	0.606453	0.245049	0.962875
O27	O	0.617027	0.238391	0.834104
O28	O	0.606454	0.089023	1.118895
O29	O	0.893330	-0.231151	0.824830
O30	O	0.367535	0.255924	0.951997
O31	O	0.354130	0.264364	1.115242
O32	O	0.367535	0.099898	1.108016
O33	O	0.893330	-0.075125	0.668811
O34	O	0.879925	-0.066684	0.832056
O35	O	0.536024	0.163678	0.939264
O36	O	0.536024	0.071828	1.031111
O37	O	0.709059	-0.037117	0.937916
O38	O	0.709059	0.054733	0.846070
C39	C	0.420251	0.021954	0.878843
C40	C	0.348918	0.025201	0.875595
C41	C	0.651527	-0.000895	0.631520
C42	C	0.658686	-0.005403	0.544333
C43	C	0.609337	0.271200	0.899785
C44	C	0.602178	0.359039	0.903645
C45	C	0.315405	-0.021219	0.922009
C46	C	0.248374	-0.018159	0.918960
C47	C	0.214862	0.031316	0.869490
C48	C	0.248377	0.077742	0.823075
C49	C	0.315401	0.074687	0.826130
C50	C	0.012486	0.042944	0.857872
C51	C	-0.054540	0.045992	0.854817
C52	C	-0.054540	-0.049907	0.950704
C53	C	0.012491	-0.052962	0.953751
C54	C	0.045995	-0.006532	0.907339
C55	C	0.146348	0.034443	0.866370
C56	C	0.114503	-0.009653	0.910466
C57	C	0.840614	0.002820	0.897984
C58	C	0.911947	-0.000427	0.901232
C59	C	0.651528	-0.246427	0.877041
C60	C	0.658687	-0.334266	0.873182
C61	C	0.589101	0.519843	0.910675
C62	C	0.671759	0.504938	0.866154
C63	C	0.664484	0.594414	0.870065
C64	C	0.596375	0.430360	0.906764
C65	C	0.671763	-0.013636	0.384719
C66	C	0.589106	0.038407	0.392100
C67	C	0.596382	0.033826	0.303286
C68	C	0.664489	-0.009057	0.473540
C69	C	0.609338	0.025669	1.145306
C70	C	0.602179	0.030177	1.232493
C71	C	0.399157	0.035236	1.135736
C72	C	0.320664	0.042991	1.219675
C73	C	0.399156	0.280767	0.890215
C74	C	0.320663	0.371853	0.890826
C75	C	0.378062	0.294050	1.147108
C76	C	0.292409	0.389643	1.234906
C77	C	0.882804	-0.269276	0.629719
C78	C	0.968456	-0.364870	0.541920
C79	C	0.861708	-0.010463	0.641091
C80	C	0.940201	-0.018217	0.557152
C81	C	0.861709	-0.255994	0.886612
C82	C	0.940202	-0.347080	0.886000
C83	C	0.292042	-0.006508	1.206709
C84	C	0.218301	0.000758	1.285570
C85	C	0.173178	0.057530	1.377397
C86	C	0.201807	0.107030	1.390361
C87	C	0.275552	0.099757	1.311500
C88	C	0.275563	0.467769	0.943498
C89	C	0.201819	0.553361	0.944070
C90	C	0.173172	0.543036	0.891974
C91	C	0.218280	0.447110	0.839297
C92	C	0.292027	0.361520	0.838720
C93	C	0.252185	0.386591	1.324089
C94	C	0.171715	0.476403	1.406593
C95	C	0.131466	0.569268	1.399912
C96	C	0.171697	0.572318	1.310720
C97	C	0.252170	0.482506	1.228218
C98	C	1.008688	-0.361818	0.452738
C99	C	1.089179	-0.451631	0.370235
C100	C	1.129432	-0.544496	0.376916
C101	C	1.089196	-0.547546	0.466108
C102	C	1.008711	-0.457733	0.548609
C103	C	0.968831	0.031273	0.570117
C104	C	1.042592	0.023983	0.491256
C105	C	1.087717	-0.032792	0.399430
C106	C	1.059085	-0.082288	0.386465
C107	C	0.985330	-0.075003	0.465326
C108	C	0.968825	-0.336722	0.938105
C109	C	1.042566	-0.422298	0.937549
C110	C	1.087689	-0.518231	0.884882
C111	C	1.059060	-0.528586	0.832775
C112	C	0.985315	-0.443011	0.833337
H113	H	0.342692	-0.061512	0.962288
Cl114	Cl	0.348711	0.240943	0.772503
Cl115	Cl	0.302722	0.486361	1.116106
H116	H	0.039754	0.080755	0.820084
H117	H	1.147736	-0.587903	0.884433
H118	H	0.113121	0.612738	0.892452
Cl119	Cl	1.139741	-0.447774	0.258120
H120	H	0.298845	0.140072	1.322071
H121	H	0.194945	0.438718	0.796882
Cl122	Cl	0.958101	-0.245086	0.444314
Cl123	Cl	0.311556	0.480776	1.009000
Cl124	Cl	0.206232	0.139955	0.760899
Cl125	Cl	0.949342	-0.137220	0.449009
H126	H	0.119055	0.074725	0.826091
H127	H	0.747988	-0.061628	0.311703
H128	H	0.165058	0.153252	1.465136
H129	H	1.194968	-0.617619	0.309730
Cl130	Cl	1.115806	-0.649196	0.766559
Cl131	Cl	-0.096666	0.108190	0.792619
H132	H	0.747990	0.424978	0.825097
H133	H	0.138914	0.647940	1.305295
Cl134	Cl	0.348758	-0.077890	1.091279
H135	H	1.095837	-0.128514	0.311690
H136	H	1.065891	0.064294	0.501830
H137	H	0.932095	-0.258617	0.980993
H138	H	1.147772	-0.038715	0.335224
H139	H	1.065867	-0.413847	0.979980
H140	H	0.962020	-0.451459	0.790903
Cl141	Cl	0.145123	0.673942	1.010302
H142	H	0.512878	0.599797	0.951726
H143	H	0.284945	0.310985	1.329547
H144	H	0.221088	-0.055956	0.956755
Cl145	Cl	0.471412	0.112491	0.504836
H146	H	0.195002	-0.039552	1.274996
H147	H	0.138967	0.473902	1.479209
Cl148	Cl	0.054622	-0.115168	1.015937
H149	H	0.113131	0.063444	1.441602
Cl150	Cl	0.030296	0.682167	1.503639
H151	H	1.121981	-0.623167	0.471536
Cl152	Cl	0.958137	-0.461588	0.660720
H153	H	0.932094	0.077511	0.644880
H154	H	-0.081827	-0.087707	0.988491
Cl155	Cl	0.357528	0.133048	0.767781
H156	H	0.141786	-0.049931	0.950748
