data_functionalizedCrystal
_audit_creation_method	'MofGen! by Chris Wilmer'
_symmetry_space_group_name_H-M	'P1'
_symmetry_Int_Tables_number	1
_symmetry_cell_setting	triclinic
loop_
_symmetry_equiv_pos_as_xyz
  x,y,z
_cell_length_a	16.992697
_cell_length_b	22.010155
_cell_length_c	16.992695
_cell_angle_alpha	90.004030
_cell_angle_beta	89.331663
_cell_angle_gamma	89.990748
loop_
_atom_site_label
_atom_site_type_symbol
_atom_site_fract_x
_atom_site_fract_y
_atom_site_fract_z
O1	O	-1.050863	0.050438	0.166918
O2	O	-0.822463	0.050458	0.165086
O3	O	-0.935748	0.050443	0.051802
O4	O	-0.937579	0.050453	0.280202
O5	O	-0.935711	-0.050607	0.051799
O6	O	-0.822427	-0.050592	0.165084
O7	O	-1.050827	-0.050613	0.166915
Cu8	Cu	-0.936624	-0.059829	0.165999
Cu9	Cu	-0.936667	0.059675	0.166002
O10	O	-0.937542	-0.050598	0.280199
C11	C	-0.793085	-0.000064	0.162729
C12	C	-0.705600	-0.000057	0.155700
N13	N	-0.936599	-0.143882	0.165997
C14	C	-0.659609	-0.000054	0.223518
C15	C	-0.577409	-0.000062	0.216909
C16	C	-0.541200	-0.000068	0.142481
C17	C	-0.587197	-0.000073	0.074658
C18	C	-0.669397	-0.000069	0.081268
C19	C	-0.295886	-0.000082	0.115086
C20	C	-0.213681	-0.000084	0.108481
C21	C	-0.203898	-0.000074	0.250733
C22	C	-0.286099	-0.000067	0.257336
C23	C	-0.332089	-0.000075	0.189513
N24	N	-0.457178	-0.000074	0.135724
N25	N	-0.416109	-0.000073	0.196271
C26	C	-0.987402	-0.563664	0.216757
C27	C	-0.987411	-0.627271	0.216756
O28	O	-1.030577	-0.660165	0.259906
N29	N	-0.936681	-0.659089	0.165994
C30	C	-0.885945	-0.627295	0.115225
O31	O	-0.842797	-0.660199	0.072048
C32	C	-0.885940	-0.563689	0.115223
C33	C	-0.936668	-0.531875	0.165993
C34	C	-1.038126	-0.531849	0.267523
C35	C	-1.038116	-0.468246	0.267525
C36	C	-0.987381	-0.436457	0.216761
C37	C	-0.936657	-0.468271	0.165996
C38	C	-0.835208	-0.531897	0.064451
C39	C	-0.835208	-0.468286	0.064453
C40	C	-0.885936	-0.436472	0.115223
C41	C	-0.885913	-0.372879	0.115234
N42	N	-0.936642	-0.341062	0.165996
C43	C	-0.987377	-0.372851	0.216759
C44	C	-0.885959	-0.760873	0.115232
C45	C	-0.885959	-0.824479	0.115238
C46	C	-0.987427	-0.824450	0.216767
C47	C	-0.987422	-0.760843	0.216765
C48	C	-0.936689	-0.729056	0.165994
C49	C	-0.987351	-0.239279	0.216760
C50	C	-0.987333	-0.175670	0.216760
C51	C	-0.885869	-0.175705	0.115228
C52	C	-0.885883	-0.239308	0.115231
C53	C	-0.936630	-0.271094	0.166000
O54	O	-0.842771	-0.339945	0.072103
O55	O	-1.030525	-0.339939	0.259922
C56	C	-0.080205	-0.000086	0.169272
C57	C	-0.167690	-0.000081	0.176299
C58	C	-0.933374	-0.000082	0.022440
C59	C	-0.926345	-0.000081	-0.065044
N60	N	-0.936697	0.143727	0.165998
C61	C	-0.994163	-0.000088	-0.111035
C62	C	-0.987554	-0.000081	-0.193236
C63	C	-0.913126	-0.000073	-0.229444
C64	C	-0.845303	-0.000064	-0.183447
C65	C	-0.851913	-0.000066	-0.101248
C66	C	-0.885732	-0.000062	-0.474758
C67	C	-0.879127	-0.000062	-0.556964
C68	C	-1.021379	-0.000078	-0.566747
C69	C	-1.027982	-0.000083	-0.484545
C70	C	-0.960159	-0.000072	-0.438556
N71	N	-0.906369	-0.000068	-0.313466
N72	N	-0.966917	-0.000072	-0.354535
C73	C	-0.939916	-0.000071	0.309561
C74	C	-0.946945	-0.000068	0.397045
H75	H	-0.539966	-0.000059	0.272134
C76	C	-1.043138	-0.140676	0.272609
C77	C	-1.098947	-0.175648	0.328444
C78	C	-1.154751	-0.140656	0.384290
C79	C	-1.154746	-0.070691	0.384302
C80	C	-1.098935	-0.035715	0.328465
C81	C	-1.043131	-0.070707	0.272619
H82	H	-1.098953	-0.227443	0.328437
H83	H	-1.196066	-0.166548	0.425624
H84	H	-1.196055	-0.044788	0.425642
H85	H	-1.098929	0.016081	0.328472
H86	H	-1.001816	-0.044815	0.231285
C87	C	-1.062153	-0.000094	-0.243829
C88	C	-1.077197	0.052377	-0.301678
C89	C	-1.151799	0.052364	-0.352272
C90	C	-1.211356	-0.000121	-0.345019
C91	C	-1.196313	-0.052596	-0.287168
C92	C	-1.121712	-0.052583	-0.236573
H93	H	-1.033108	0.091233	-0.307049
H94	H	-1.162934	0.091210	-0.395098
H95	H	-1.266581	-0.000131	-0.382472
H96	H	-1.240403	-0.091452	-0.281796
H97	H	-1.110577	-0.091429	-0.193748
H98	H	-1.028674	-0.265152	0.258101
C99	C	-0.779426	-0.566888	0.008588
C100	C	-0.717670	-0.610634	0.042358
C101	C	-0.661893	-0.645626	-0.013514
C102	C	-0.667871	-0.636873	-0.103156
C103	C	-0.729628	-0.593125	-0.136930
C104	C	-0.785406	-0.558133	-0.081058
H105	H	-0.713243	-0.617115	0.108720
H106	H	-0.616176	-0.678011	0.011489
H107	H	-0.626581	-0.662777	-0.144516
H108	H	-0.734056	-0.586644	-0.203293
H109	H	-0.831123	-0.525747	-0.106061
H110	H	-1.076596	-0.000086	-0.604200
C111	C	-0.325926	-0.000063	0.339208
C112	C	-0.275337	-0.000061	0.413809
C113	C	-0.315164	-0.000054	0.495682
C114	C	-0.405580	-0.000047	0.502954
C115	C	-0.456174	-0.000049	0.428351
C116	C	-0.416347	-0.000056	0.346478
H117	H	-0.208401	-0.000066	0.408428
H118	H	-0.277710	-0.000053	0.550908
H119	H	-0.435062	-0.000042	0.563561
H120	H	-0.523110	-0.000044	0.433731
H121	H	-0.453800	-0.000057	0.291251
H122	H	-0.793895	-0.442408	0.023107
C123	C	-0.830079	-0.274314	0.059396
C124	C	-0.836016	-0.265574	-0.030251
C125	C	-0.780217	-0.300578	-0.086090
C126	C	-0.718481	-0.344322	-0.052282
C127	C	-0.712541	-0.353064	0.037370
C128	C	-0.768340	-0.318060	0.093209
H129	H	-0.881719	-0.233191	-0.055283
H130	H	-0.784614	-0.294106	-0.152456
H131	H	-0.677175	-0.370234	-0.093617
H132	H	-0.666838	-0.385447	0.062401
H133	H	-0.763943	-0.324531	0.159575
C134	C	-0.346472	-0.000086	0.040485
C135	C	-0.404339	0.052385	0.025468
C136	C	-0.454931	0.052381	-0.049136
C137	C	-0.447654	-0.000094	-0.108723
C138	C	-0.389784	-0.052569	-0.093708
C139	C	-0.339193	-0.052565	-0.019104
H140	H	-0.409728	0.091234	0.069579
H141	H	-0.497770	0.091228	-0.060251
H142	H	-0.485105	-0.000096	-0.163949
H143	H	-0.384395	-0.091418	-0.137819
H144	H	-0.296353	-0.091411	-0.007989
C145	C	-1.093924	-0.433258	0.323369
C146	C	-1.183574	-0.441997	0.317476
C147	C	-1.239388	-0.407015	0.373322
C148	C	-1.205553	-0.363293	0.435061
C149	C	-1.115899	-0.354552	0.440957
C150	C	-1.060084	-0.389534	0.385111
H151	H	-1.208625	-0.474364	0.271771
H152	H	-1.305756	-0.413486	0.368957
H153	H	-1.246870	-0.337397	0.476402
H154	H	-1.090848	-0.322184	0.486662
H155	H	-0.993716	-0.383063	0.389476
H156	H	-1.054770	-0.000099	-0.081560
C157	C	-1.093939	-0.566808	0.323372
C158	C	-1.183588	-0.558036	0.317492
C159	C	-1.239401	-0.592988	0.373351
C160	C	-1.205565	-0.636711	0.435089
C161	C	-1.115911	-0.645485	0.440972
C162	C	-1.060098	-0.610533	0.385113
H163	H	-1.208639	-0.525667	0.271787
H164	H	-1.305768	-0.586492	0.368996
H165	H	-1.246881	-0.662585	0.476439
H166	H	-1.090860	-0.677854	0.486676
H167	H	-0.993731	-0.617028	0.389468
C168	C	-0.830152	-0.859470	0.059396
C169	C	-0.774348	-0.824494	0.003560
C170	C	-0.718542	-0.859483	-0.052287
C171	C	-0.718540	-0.929448	-0.052300
C172	C	-0.774346	-0.964427	0.003538
C173	C	-0.830152	-0.929439	0.059386
H174	H	-0.774347	-0.772699	0.003568
H175	H	-0.677230	-0.833588	-0.093622
H176	H	-0.677229	-0.955349	-0.093641
H177	H	-0.774347	-1.016223	0.003531
H178	H	-0.871464	-0.955333	0.100720
H179	H	-0.844560	-0.149811	0.073900
H180	H	-0.166444	-0.000069	0.305950
C181	C	-0.811125	-0.000060	-0.424181
C182	C	-0.751552	0.052413	-0.431447
C183	C	-0.676940	0.052412	-0.380867
C184	C	-0.661902	-0.000063	-0.323021
C185	C	-0.721477	-0.052539	-0.315752
C186	C	-0.796089	-0.052538	-0.366332
H187	H	-0.762682	0.091261	-0.474271
H188	H	-0.632838	0.091259	-0.386248
H189	H	-0.606670	-0.000064	-0.285579
H190	H	-0.710346	-0.091387	-0.272929
H191	H	-0.840190	-0.091385	-0.360951
H192	H	-0.689084	-0.000048	0.284125
H193	H	-0.557710	-0.000086	0.014057
H194	H	-0.184203	-0.000088	0.047870
H195	H	-0.706842	-0.000071	0.026043
H196	H	-0.844639	-0.734996	0.073890
H197	H	-1.028729	-0.734944	0.258108
H198	H	-0.784703	-0.000053	-0.212935
H199	H	-1.088588	-0.000091	-0.455071
H200	H	-1.028737	-0.850344	0.258103
H201	H	-0.818516	-0.000064	-0.586442
H202	H	-0.796688	-0.000060	-0.063803
