data_functionalizedCrystal
_audit_creation_method	'MofGen! by Chris Wilmer'
_symmetry_space_group_name_H-M	'P1'
_symmetry_Int_Tables_number	1
_symmetry_cell_setting	triclinic
loop_
_symmetry_equiv_pos_as_xyz
  x,y,z
_cell_length_a	21.395362
_cell_length_b	15.297327
_cell_length_c	21.395355
_cell_angle_alpha	99.659679
_cell_angle_beta	89.956060
_cell_angle_gamma	99.725883
loop_
_atom_site_label
_atom_site_type_symbol
_atom_site_fract_x
_atom_site_fract_y
_atom_site_fract_z
Zn1	Zn	0.914743	-0.358918	-0.397693
Zn2	Zn	0.896524	-0.509774	-0.311034
Zn3	Zn	0.809953	-0.358960	-0.292899
Zn4	Zn	0.791803	-0.509792	-0.415741
O5	O	0.853256	-0.434361	-0.354342
O6	O	1.000007	-0.378904	-0.386234
O7	O	0.885011	-0.489778	-0.220951
O8	O	0.839075	-0.232697	-0.291658
O9	O	0.986621	-0.489737	-0.322566
O10	O	0.916063	-0.232666	-0.368649
O11	O	0.821408	-0.378975	-0.207628
O12	O	0.719864	-0.378993	-0.309158
O13	O	0.808140	-0.489769	-0.501023
O14	O	0.706530	-0.489810	-0.399409
O15	O	0.898464	-0.378922	-0.487764
O16	O	0.867411	-0.636034	-0.340066
O17	O	0.790473	-0.636048	-0.416993
C18	C	0.690462	-0.434409	-0.354275
C19	C	0.620816	-0.434451	-0.354263
C20	C	0.825013	-0.668778	-0.382470
C21	C	0.812988	-0.769063	-0.394524
C22	C	0.581167	-0.492229	-0.401206
C23	C	0.515734	-0.492207	-0.401232
C24	C	0.489952	-0.434416	-0.354304
C25	C	0.529610	-0.376627	-0.307357
C26	C	0.595042	-0.376644	-0.307337
C27	C	0.387100	-0.427148	-0.297026
C28	C	0.321669	-0.427137	-0.297046
C29	C	0.288138	-0.434357	-0.354366
C30	C	0.320045	-0.441608	-0.411670
C31	C	0.385477	-0.441625	-0.411650
C32	C	0.419003	-0.434390	-0.354321
C33	C	0.177539	-0.492115	-0.401340
C34	C	0.112106	-0.492086	-0.401366
C35	C	0.125983	-0.376510	-0.307486
C36	C	0.191415	-0.376534	-0.307465
C37	C	0.217189	-0.434341	-0.354392
C38	C	0.939459	-1.051594	-0.268402
C39	C	0.950757	-0.957372	-0.257073
C40	C	0.916316	-0.910290	-0.291435
C41	C	0.870575	-0.957440	-0.337127
C42	C	0.859272	-1.051671	-0.348454
C43	C	0.836129	-0.910367	-0.371487
C44	C	0.790387	-0.957517	-0.417179
C45	C	0.779087	-1.051739	-0.428503
C46	C	0.813528	-1.098821	-0.394142
C47	C	0.847431	-0.816135	-0.360160
C48	C	0.767244	-0.816212	-0.440212
C49	C	0.755946	-0.910435	-0.451540
C50	C	1.016685	-0.434314	-0.354409
C51	C	1.086328	-0.434294	-0.354438
C52	C	0.853310	-0.434343	-0.517763
C53	C	0.853333	-0.434335	-0.587403
C54	C	0.881626	-0.199029	-0.326118
C55	C	0.893716	-0.098744	-0.314090
C56	C	0.900363	-0.376615	-0.613213
C57	C	0.900367	-0.376576	-0.678643
C58	C	0.853345	-0.434273	-0.718264
C59	C	0.806307	-0.491998	-0.692447
C60	C	0.806301	-0.492029	-0.627017
C61	C	0.838610	-0.515514	-0.831685
C62	C	0.838620	-0.515485	-0.897115
C63	C	0.853361	-0.434178	-0.920074
C64	C	0.868104	-0.352898	-0.877594
C65	C	0.868098	-0.352928	-0.812164
C66	C	0.853346	-0.434246	-0.789213
C67	C	0.900398	-0.376411	-1.016830
C68	C	0.900397	-0.376370	-1.082262
C69	C	0.806339	-0.491801	-1.096065
C70	C	0.806338	-0.491833	-1.030634
C71	C	0.853370	-0.434139	-0.991020
C72	C	0.853246	-0.434314	-0.191548
C73	C	0.853374	-0.434068	-0.121878
H74	H	0.602147	-0.539299	-0.439419
C75	C	0.286578	-0.419154	-0.234010
N76	N	0.260150	-0.413137	-0.186529
H77	H	0.884674	-0.777754	-0.322957
C78	C	0.420572	-0.449600	-0.474684
N79	N	0.447006	-0.455605	-0.522161
C80	C	0.472111	-0.555773	-0.452873
N81	N	0.439256	-0.603653	-0.491768
H82	H	0.925517	-0.833570	-0.282208
H83	H	0.938691	-0.329428	-0.984574
H84	H	0.627326	-0.329591	-0.269110
C85	C	1.001060	-0.905515	-0.206803
N86	N	1.038948	-0.866455	-0.168933
C87	C	0.097627	-0.312939	-0.255865
N88	N	0.076266	-0.265054	-0.216983
C89	C	0.977332	-1.103390	-0.230603
N90	N	1.005859	-1.142405	-0.202129
H91	H	0.292746	-0.447486	-0.458346
C92	C	0.801100	-1.202472	-0.406598
N93	N	0.791740	-1.280543	-0.415978
C94	C	0.705626	-0.962311	-0.501796
N95	N	0.667725	-1.001386	-0.539647
H96	H	0.198525	-0.539180	-0.439553
H97	H	0.079824	-0.539135	-0.439596
H98	H	0.739198	-0.777879	-0.468191
C99	C	0.728765	-1.103601	-0.478761
N100	N	0.690861	-1.142662	-0.516615
C101	C	0.754615	-0.555270	-1.139644
N102	N	0.715655	-0.603076	-1.172472
H103	H	0.768020	-0.538973	-0.724710
H104	H	0.938660	-0.329635	-0.580963
C105	C	0.952109	-0.313082	-0.707041
N106	N	0.991082	-0.265260	-0.728428
H107	H	0.768000	-0.539030	-0.606004
C108	C	0.884307	-0.263521	-0.765440
N109	N	0.896512	-0.196177	-0.730247
C110	C	0.884318	-0.263452	-0.902843
N111	N	0.896531	-0.196084	-0.921864
C112	C	0.952136	-0.312868	-1.110651
N113	N	0.991107	-0.265038	-1.132034
C114	C	0.423977	-0.419208	-0.233965
N115	N	0.451751	-0.413229	-0.186469
C116	C	0.754602	-0.555335	-1.002243
N117	N	0.715631	-0.603165	-0.980859
C118	C	0.822402	-0.604895	-0.943836
N119	N	0.810184	-0.672240	-0.979024
H120	H	0.223698	-0.329489	-0.269237
C121	C	0.822405	-0.604966	-0.806439
N122	N	0.810205	-0.672340	-0.787424
C123	C	0.501249	-0.313056	-0.255736
N124	N	0.479888	-0.265171	-0.216855
