data_functionalizedCrystal
_audit_creation_method	'MofGen! by Chris Wilmer'
_symmetry_space_group_name_H-M	'P1'
_symmetry_Int_Tables_number	1
_symmetry_cell_setting	triclinic
loop_
_symmetry_equiv_pos_as_xyz
  x,y,z
_cell_length_a	16.974800
_cell_length_b	14.519731
_cell_length_c	15.455313
_cell_angle_alpha	92.669259
_cell_angle_beta	90.973911
_cell_angle_gamma	83.539176
loop_
_atom_site_label
_atom_site_type_symbol
_atom_site_fract_x
_atom_site_fract_y
_atom_site_fract_z
O1	O	1.049248	0.117561	0.001549
O2	O	0.819836	0.131644	-0.014563
O3	O	0.940615	-0.009630	-0.006073
O4	O	0.928469	0.258835	-0.006941
O5	O	0.933709	-0.001585	0.137704
O6	O	0.812929	0.139690	0.129214
O7	O	1.042341	0.125606	0.145326
Cu8	Cu	0.927005	0.133383	0.150397
Cu9	Cu	0.935173	0.123868	-0.019635
O10	O	0.921562	0.266881	0.136835
C11	C	0.787022	0.134984	0.055263
C12	C	0.699538	0.132938	0.049119
C13	C	0.654677	0.136360	0.124607
C14	C	0.572477	0.134422	0.118837
C15	C	0.535139	0.129070	0.037578
C16	C	0.580006	0.125645	-0.037916
C17	C	0.662205	0.127575	-0.032145
C18	C	0.289706	0.122818	0.011913
C19	C	0.207501	0.120891	0.006147
C20	C	0.199978	0.129667	0.162901
C21	C	0.282178	0.131603	0.168665
C22	C	0.327038	0.128173	0.093172
N23	N	0.451118	0.127092	0.031677
N24	N	0.411059	0.130144	0.099073
C25	C	0.936593	-0.039967	0.065776
C26	C	0.934887	-0.142348	0.065657
C27	C	0.933501	-0.225494	0.065557
C28	C	0.931770	-0.329804	0.065429
C29	C	0.930396	-0.412944	0.065327
C30	C	0.928665	-0.517261	0.065200
C31	C	1.075155	0.122266	0.075497
C32	C	1.162640	0.124313	0.081636
C33	C	0.925585	0.297218	0.064985
C34	C	0.927290	0.399599	0.065098
N35	N	0.921265	0.140074	0.269990
N36	N	0.940918	0.117169	-0.139227
C37	C	0.972595	0.080078	0.318992
C38	C	0.968262	0.085147	0.409495
C39	C	0.912603	0.150217	0.450995
C40	C	0.861268	0.210216	0.401986
C41	C	0.865598	0.205142	0.311484
C42	C	0.893913	0.172094	0.721262
C43	C	0.889589	0.177165	0.811771
C44	C	0.996582	0.052095	0.819274
C45	C	1.000910	0.047030	0.728771
C46	C	0.949573	0.107026	0.679769
N47	N	0.908174	0.155402	0.543504
N48	N	0.953998	0.101836	0.587262
H49	H	0.535957	0.137193	0.180308
H50	H	1.010057	0.036293	0.449393
H51	H	0.815945	0.263195	0.435779
H52	H	0.852114	0.220947	0.681372
C53	C	1.062169	-0.024505	0.683126
H54	H	1.057412	-0.018914	0.622209
H55	H	1.052855	-0.085271	0.697342
H56	H	1.114051	-0.013432	0.701659
C57	C	1.053040	-0.013903	0.873177
H58	H	1.042488	-0.001570	0.933020
H59	H	1.106357	-0.004552	0.862025
H60	H	1.045095	-0.076313	0.857747
H61	H	0.844262	0.230157	0.845555
C62	C	0.711551	0.123818	-0.115182
H63	H	0.677542	0.120362	-0.164404
H64	H	0.749708	0.070660	-0.115770
H65	H	0.737837	0.178125	-0.116607
H66	H	0.549600	0.121280	-0.104079
C67	C	0.695744	0.142231	0.213994
H68	H	0.657252	0.143978	0.258125
H69	H	0.721726	0.196891	0.219097
H70	H	0.733582	0.089424	0.219912
C71	C	0.323242	0.137513	0.258051
H72	H	0.284751	0.139274	0.302184
H73	H	0.349210	0.192184	0.263123
H74	H	0.361091	0.084721	0.263995
C75	C	0.809139	0.271141	0.257581
H76	H	0.775375	0.310628	0.295257
H77	H	0.777978	0.235880	0.219983
H78	H	0.839235	0.307648	0.224259
H79	H	0.163444	0.132458	0.224364
C80	C	0.166427	0.114999	-0.083240
H81	H	0.111046	0.114352	-0.075861
H82	H	0.187372	0.059782	-0.114077
H83	H	0.175511	0.167247	-0.114919
C84	C	0.339041	0.119056	-0.071127
H85	H	0.305027	0.115603	-0.120346
H86	H	0.377196	0.065898	-0.071719
H87	H	0.365328	0.173363	-0.072554
C88	C	1.033819	0.008499	0.273350
H89	H	1.063762	-0.026512	0.315500
H90	H	1.068360	0.039798	0.240337
H91	H	1.007100	-0.031966	0.236067
