data_functionalizedCrystal
_audit_creation_method	'MofGen! by Chris Wilmer'
_symmetry_space_group_name_H-M	'P1'
_symmetry_Int_Tables_number	1
_symmetry_cell_setting	triclinic
loop_
_symmetry_equiv_pos_as_xyz
  x,y,z
_cell_length_a	29.839134
_cell_length_b	29.839131
_cell_length_c	29.839126
_cell_angle_alpha	89.975848
_cell_angle_beta	89.980151
_cell_angle_gamma	90.021992
loop_
_atom_site_label
_atom_site_type_symbol
_atom_site_fract_x
_atom_site_fract_y
_atom_site_fract_z
Zn1	Zn	0.686753	-0.179121	-0.254008
Zn2	Zn	1.186753	0.320879	0.245992
Zn3	Zn	0.686676	-0.254241	-0.178878
Zn4	Zn	1.186676	0.245759	0.321122
Zn5	Zn	0.611626	-0.179100	-0.178890
Zn6	Zn	1.111626	0.320900	0.321110
Zn7	Zn	0.611584	-0.254199	-0.253979
Zn8	Zn	1.111584	0.245801	0.246021
O9	O	0.649160	-0.216665	-0.216439
O10	O	1.149160	0.283335	0.283561
O11	O	0.749610	-0.189112	-0.244048
O12	O	1.249610	0.310888	0.255952
O13	O	0.676705	-0.244283	-0.116012
O14	O	1.176705	0.255717	0.383988
O15	O	0.621642	-0.116236	-0.188872
O16	O	1.121642	0.383764	0.311128
O17	O	0.749553	-0.244302	-0.188851
O18	O	1.249553	0.255698	0.311149
O19	O	0.676838	-0.116251	-0.244060
O20	O	1.176838	0.383749	0.255940
O21	O	0.621567	-0.189077	-0.116021
O22	O	1.121567	0.310923	0.383979
O23	O	0.548754	-0.189036	-0.188844
O24	O	1.048754	0.310964	0.311156
O25	O	0.621570	-0.244230	-0.316850
O26	O	1.121570	0.255770	0.183150
O27	O	0.548723	-0.244211	-0.244011
O28	O	1.048723	0.255789	0.255989
O29	O	0.676797	-0.189071	-0.316871
O30	O	1.176797	0.310929	0.183129
O31	O	0.676664	-0.317103	-0.188823
O32	O	1.176664	0.182897	0.311177
O33	O	0.621495	-0.317072	-0.243999
O34	O	1.121495	0.182928	0.256001
C35	C	0.532437	-0.216617	-0.216426
C36	C	1.032437	0.283383	0.283574
C37	C	0.482503	-0.216607	-0.216431
C38	C	0.982503	0.283393	0.283569
C39	C	0.125941	-0.187987	-0.245237
C40	C	0.625941	0.312013	0.254763
C41	C	0.313614	-0.187951	-0.245226
C42	C	0.813614	0.312049	0.254774
O43	O	0.337901	-0.163560	-0.269715
O44	O	0.837901	0.336440	0.230285
N45	N	0.337058	-0.216637	-0.216442
N46	N	0.837058	0.283363	0.283558
C47	C	0.313580	-0.245335	-0.187660
C48	C	0.813580	0.254665	0.312340
O49	O	0.337826	-0.269737	-0.163181
O50	O	0.837826	0.230263	0.336819
C51	C	0.125908	-0.245373	-0.187673
C52	C	0.625908	0.254627	0.312327
C53	C	0.102467	-0.216683	-0.216456
C54	C	0.602467	0.283317	0.283544
C55	C	0.102500	-0.159299	-0.274017
C56	C	0.602500	0.340701	0.225983
C57	C	0.055585	-0.159307	-0.274018
C58	C	0.555585	0.340693	0.225982
C59	C	0.032110	-0.188003	-0.245238
C60	C	0.532110	0.311997	0.254762
C61	C	0.055551	-0.216690	-0.216457
C62	C	0.555551	0.283310	0.283543
C63	C	0.102431	-0.274074	-0.158894
C64	C	0.602431	0.225926	0.341106
C65	C	0.055510	-0.274082	-0.158901
C66	C	0.555510	0.225918	0.341099
C67	C	0.032069	-0.245391	-0.187684
C68	C	0.532069	0.254609	0.312316
C69	C	-0.014839	-0.245394	-0.187677
C70	C	0.485161	0.254606	0.312323
N71	N	-0.038282	-0.216708	-0.216461
N72	N	0.461718	0.283292	0.283539
C73	C	-0.014807	-0.188013	-0.245242
C74	C	0.485193	0.311987	0.254758
C75	C	0.412110	-0.245313	-0.187655
C76	C	0.912110	0.254687	0.312345
C77	C	0.459028	-0.245303	-0.187651
C78	C	0.959028	0.254697	0.312349
C79	C	0.459060	-0.187919	-0.245218
C80	C	0.959060	0.312081	0.254782
C81	C	0.412141	-0.187927	-0.245219
C82	C	0.912141	0.312073	0.254781
C83	C	0.388667	-0.216627	-0.216439
C84	C	0.888667	0.283373	0.283561
C85	C	-0.113333	-0.188030	-0.245240
C86	C	0.386667	0.311970	0.254760
C87	C	-0.160253	-0.188039	-0.245237
C88	C	0.339747	0.311961	0.254763
C89	C	-0.160280	-0.245424	-0.187672
C90	C	0.339720	0.254576	0.312328
C91	C	-0.113365	-0.245414	-0.187674
C92	C	0.386635	0.254586	0.312326
C93	C	-0.089892	-0.216716	-0.216461
C94	C	0.410108	0.283284	0.283539
O95	O	-0.039154	-0.269775	-0.163204
O96	O	0.460846	0.230225	0.336796
O97	O	-0.039062	-0.163622	-0.269725
O98	O	0.460938	0.336378	0.230275
C99	C	0.172857	-0.187980	-0.245236
C100	C	0.672857	0.312020	0.254764
C101	C	0.196298	-0.216668	-0.216455
C102	C	0.696298	0.283332	0.283545
C103	C	0.172823	-0.245363	-0.187675
C104	C	0.672823	0.254637	0.312325
C105	C	0.243216	-0.216658	-0.216451
C106	C	0.743216	0.283342	0.283549
C107	C	0.266690	-0.187962	-0.245231
C108	C	0.766690	0.312038	0.254769
C109	C	0.243247	-0.159277	-0.274016
C110	C	0.743247	0.340723	0.225984
C111	C	0.196331	-0.159284	-0.274016
C112	C	0.696331	0.340716	0.225984
C113	C	0.196266	-0.274049	-0.158891
C114	C	0.696266	0.225951	0.341109
C115	C	0.243182	-0.274038	-0.158892
C116	C	0.743182	0.225962	0.341108
C117	C	0.266656	-0.245343	-0.187672
C118	C	0.766656	0.254657	0.312328
C119	C	0.649079	-0.333388	-0.216416
C120	C	1.149079	0.166612	0.283584
C121	C	0.649085	-0.383322	-0.216422
C122	C	1.149085	0.116678	0.283578
C123	C	0.677939	-0.692969	-0.187750
C124	C	1.177939	-0.192969	0.312250
C125	C	0.677994	-0.880642	-0.187767
C126	C	1.177994	-0.380642	0.312233
O127	O	0.702462	-0.904910	-0.163373
O128	O	1.202462	-0.404910	0.336627
N129	N	0.649253	-0.904107	-0.216472
N130	N	1.149253	-0.404107	0.283528
C131	C	0.620498	-0.880651	-0.245177
C132	C	1.120498	-0.380651	0.254823
O133	O	0.596056	-0.904916	-0.269596
O134	O	1.096056	-0.404916	0.230404
C135	C	0.620445	-0.692979	-0.245162
C136	C	1.120445	-0.192979	0.254838
C137	C	0.649185	-0.669516	-0.216452
C138	C	1.149185	-0.169516	0.283548
C139	C	0.706677	-0.669506	-0.159043
C140	C	1.206677	-0.169506	0.340957
C141	C	0.706661	-0.622591	-0.159037
C142	C	1.206661	-0.122591	0.340963
C143	C	0.677907	-0.599138	-0.187738
C144	C	1.177907	-0.099138	0.312262
C145	C	0.649169	-0.622601	-0.216446
C146	C	1.149169	-0.122601	0.283554
C147	C	0.591693	-0.669524	-0.273868
C148	C	1.091693	-0.169524	0.226132
C149	C	0.591683	-0.622603	-0.273863
C150	C	1.091683	-0.122603	0.226137
C151	C	0.620423	-0.599140	-0.245153
C152	C	1.120423	-0.099140	0.254847
C153	C	0.620399	-0.552233	-0.245141
C154	C	1.120399	-0.052233	0.254859
N155	N	0.649141	-0.528768	-0.216437
N156	N	1.149141	-0.028768	0.283563
C157	C	0.677894	-0.552220	-0.187735
C158	C	1.177894	-0.052220	0.312265
C159	C	0.620527	-0.979182	-0.245183
C160	C	1.120527	-0.479182	0.254817
C161	C	0.620540	-1.026100	-0.245186
C162	C	1.120540	-0.526100	0.254814
C163	C	0.678037	-1.026087	-0.187777
C164	C	1.178037	-0.526087	0.312223
C165	C	0.678021	-0.979169	-0.187772
C166	C	1.178021	-0.479169	0.312228
C167	C	0.649268	-0.955717	-0.216478
C168	C	1.149268	-0.455717	0.283522
C169	C	0.677859	-0.453695	-0.187725
C170	C	1.177859	0.046305	0.312275
C171	C	0.677839	-0.406775	-0.187720
C172	C	1.177839	0.093225	0.312280
C173	C	0.620344	-0.406791	-0.245131
C174	C	1.120344	0.093209	0.254869
C175	C	0.620362	-0.453707	-0.245134
C176	C	1.120362	0.046293	0.254866
C177	C	0.649123	-0.477157	-0.216429
C178	C	1.149123	0.022843	0.283571
O179	O	0.595948	-0.527936	-0.269527
O180	O	1.095948	-0.027936	0.230473
O181	O	0.702339	-0.527948	-0.163327
O182	O	1.202339	-0.027948	0.336673
C183	C	0.677955	-0.739885	-0.187756
C184	C	1.177955	-0.239885	0.312244
C185	C	0.649217	-0.763347	-0.216463
C186	C	1.149217	-0.263347	0.283537
C187	C	0.620463	-0.739895	-0.245165
C188	C	1.120463	-0.239895	0.254835
C189	C	0.649229	-0.810265	-0.216467
C190	C	1.149229	-0.310265	0.283533
C191	C	0.677983	-0.833718	-0.187765
C192	C	1.177983	-0.333718	0.312235
C193	C	0.706724	-0.810253	-0.159060
C194	C	1.206724	-0.310253	0.340940
C195	C	0.706708	-0.763337	-0.159054
C196	C	1.206708	-0.263337	0.340946
C197	C	0.591722	-0.763360	-0.273870
C198	C	1.091722	-0.263360	0.226130
C199	C	0.591739	-0.810275	-0.273873
C200	C	1.091739	-0.310275	0.226127
C201	C	0.620493	-0.833728	-0.245171
C202	C	1.120493	-0.333728	0.254829
C203	C	0.766338	-0.216714	-0.216451
C204	C	1.266338	0.283286	0.283549
C205	C	0.816273	-0.216735	-0.216457
C206	C	1.316273	0.283265	0.283543
C207	C	0.649188	-0.216648	-0.333617
C208	C	1.149188	0.283352	0.166383
C209	C	0.649199	-0.216641	-0.383551
C210	C	1.149199	0.283359	0.116449
C211	C	0.649253	-0.099487	-0.216471
C212	C	1.149253	0.400513	0.283529
C213	C	0.649293	-0.049552	-0.216484
C214	C	1.149293	0.450448	0.283516
C215	C	0.620498	-0.187850	-0.693202
C216	C	1.120498	0.312150	-0.193202
C217	C	0.620511	-0.187819	-0.880876
C218	C	1.120511	0.312181	-0.380876
O219	O	0.596085	-0.163385	-0.905147
O220	O	1.096085	0.336615	-0.405147
N221	N	0.649221	-0.216556	-0.904337
N222	N	1.149221	0.283444	-0.404337
C223	C	0.677928	-0.245306	-0.880876
C224	C	1.177928	0.254694	-0.380876
O225	O	0.702345	-0.269751	-0.905138
O226	O	1.202345	0.230249	-0.405138
C227	C	0.677912	-0.245339	-0.693204
C228	C	1.177912	0.254661	-0.193204
C229	C	0.649204	-0.216596	-0.669746
C230	C	1.149204	0.283404	-0.169746
C231	C	0.591791	-0.159111	-0.669744
C232	C	1.091791	0.340889	-0.169744
C233	C	0.591790	-0.159117	-0.622828
C234	C	1.091790	0.340883	-0.122828
C235	C	0.620496	-0.187863	-0.599372
C236	C	1.120496	0.312137	-0.099372
C237	C	0.649202	-0.216603	-0.622830
C238	C	1.149202	0.283397	-0.122830
C239	C	0.706617	-0.274090	-0.669745
C240	C	1.206617	0.225910	-0.169745
C241	C	0.706610	-0.274097	-0.622824
C242	C	1.206610	0.225903	-0.122824
C243	C	0.677901	-0.245354	-0.599365
C244	C	1.177901	0.254646	-0.099365
C245	C	0.677907	-0.245355	-0.552458
C246	C	1.177907	0.254645	-0.052458
N247	N	0.649197	-0.216618	-0.528997
N248	N	1.149197	0.283382	-0.028997
C249	C	0.620491	-0.187872	-0.552454
C250	C	1.120491	0.312128	-0.052454
C251	C	0.677934	-0.245286	-0.979407
C252	C	1.177934	0.254714	-0.479407
C253	C	0.677939	-0.245277	-1.026325
C254	C	1.177939	0.254723	-0.526325
C255	C	0.620521	-0.187791	-1.026321
C256	C	1.120521	0.312209	-0.526321
C257	C	0.620519	-0.187798	-0.979402
C258	C	1.120519	0.312202	-0.479402
C259	C	0.649224	-0.216548	-0.955946
C260	C	1.149224	0.283452	-0.455946
C261	C	0.620491	-0.187887	-0.453928
C262	C	1.120491	0.312113	0.046072
C263	C	0.620494	-0.187895	-0.407008
C264	C	1.120494	0.312105	0.092992
C265	C	0.677910	-0.245382	-0.407016
C266	C	1.177910	0.254618	0.092984
C267	C	0.677909	-0.245373	-0.453932
C268	C	1.177909	0.254627	0.046068
C269	C	0.649196	-0.216624	-0.477386
C270	C	1.149196	0.283376	0.022614
O271	O	0.702316	-0.269780	-0.528158
O272	O	1.202316	0.230220	-0.028158
O273	O	0.596071	-0.163437	-0.528184
O274	O	1.096071	0.336563	-0.028184
C275	C	0.620499	-0.187844	-0.740118
C276	C	1.120499	0.312156	-0.240118
C277	C	0.649206	-0.216584	-0.763577
C278	C	1.149206	0.283416	-0.263577
C279	C	0.677912	-0.245330	-0.740120
C280	C	1.177912	0.254670	-0.240120
C281	C	0.649210	-0.216575	-0.810494
C282	C	1.149210	0.283425	-0.310494
C283	C	0.620505	-0.187829	-0.833951
C284	C	1.120505	0.312171	-0.333951
C285	C	0.591794	-0.159091	-0.810490
C286	C	1.091794	0.340909	-0.310490
C287	C	0.591793	-0.159098	-0.763575
C288	C	1.091793	0.340902	-0.263575
C289	C	0.706622	-0.274067	-0.763581
C290	C	1.206622	0.225933	-0.263581
C291	C	0.706621	-0.274058	-0.810496
C292	C	1.206621	0.225942	-0.310496
C293	C	0.677915	-0.245312	-0.833953
C294	C	1.177915	0.254688	-0.333953
C295	C	0.649158	-0.216650	-0.099716
C296	C	1.149158	0.283350	0.400284
C297	C	0.649233	-0.216531	-0.049782
C298	C	1.149233	0.283469	0.450218
H299	H	-0.094228	-0.164661	-0.268682
H300	H	0.405772	0.335339	0.231318
H301	H	0.568307	-0.744268	-0.297242
H302	H	1.068307	-0.244268	0.202758
O303	O	0.592548	-0.956473	-0.273080
O304	O	1.092548	-0.456473	0.226920
C305	C	0.567193	-0.987251	-0.298420
C306	C	1.067193	-0.487251	0.201580
H307	H	0.565665	-1.020704	-0.280016
H308	H	1.065665	-0.520704	0.219984
H309	H	0.531788	-0.973722	-0.303176
H310	H	1.031788	-0.473722	0.196824
H311	H	0.583624	-0.992214	-0.332556
H312	H	1.083624	-0.492214	0.167444
O313	O	0.125319	-0.131485	-0.302024
O314	O	0.625319	0.368515	0.197976
C315	C	0.152476	-0.157088	-0.330991
C316	C	0.652476	0.342912	0.169009
H317	H	0.138339	-0.192480	-0.333705
H318	H	0.638339	0.307520	0.166295
H319	H	0.153018	-0.140883	-0.365592
H320	H	0.653018	0.359117	0.134408
H321	H	0.188030	-0.158603	-0.317100
H322	H	0.688030	0.341397	0.182900
H323	H	0.036504	-0.135946	-0.297458
H324	H	0.536504	0.364054	0.202542
O325	O	0.592681	-1.048938	-0.273094
O326	O	1.092681	-0.548938	0.226906
C327	C	0.618249	-1.076035	-0.302146
C328	C	1.118249	-0.576035	0.197854
H329	H	0.652305	-1.083054	-0.286332
H330	H	1.152305	-0.583054	0.213668
H331	H	0.599953	-1.109035	-0.308157
H332	H	1.099953	-0.609035	0.191843
H333	H	0.623164	-1.057930	-0.335439
H334	H	1.123164	-0.557930	0.164561
H335	H	0.729994	-0.297496	-0.688837
H336	H	1.229994	0.202504	-0.188837
H337	H	0.596931	-0.387689	-0.268498
H338	H	1.096931	0.112311	0.231502
O339	O	0.481937	-0.160088	-0.273163
O340	O	0.981937	0.339912	0.226837
C341	C	0.528373	-0.166228	-0.266976
C342	C	1.028373	0.333772	0.233024
H343	H	0.534763	-0.200875	-0.252194
H344	H	1.034763	0.299125	0.247806
H345	H	0.546222	-0.163231	-0.300630
H346	H	1.046222	0.336769	0.199370
H347	H	0.541684	-0.139542	-0.243102
H348	H	1.041684	0.360458	0.256898
H349	H	0.730111	-0.744237	-0.135676
H350	H	1.230111	-0.244237	0.364324
O351	O	0.592561	-0.159960	-0.384291
O352	O	1.092561	0.340040	0.115709
C353	C	0.567233	-0.134581	-0.415059
C354	C	1.067233	0.365419	0.084941
H355	H	0.565666	-0.152978	-0.448497
H356	H	1.065666	0.347022	0.051503
H357	H	0.531839	-0.129776	-0.401495
H358	H	1.031839	0.370224	0.098505
H359	H	0.583711	-0.100467	-0.420064
H360	H	1.083711	0.399533	0.079936
O361	O	0.265929	-0.301975	-0.130977
O362	O	0.765929	0.198025	0.369023
C363	C	0.254443	-0.346762	-0.140714
C364	C	0.754443	0.153238	0.359286
H365	H	0.241560	-0.349076	-0.176601
H366	H	0.741560	0.150924	0.323399
H367	H	0.285289	-0.368952	-0.136805
H368	H	0.785289	0.131048	0.363195
H369	H	0.227195	-0.358476	-0.116610
H370	H	0.727195	0.141524	0.383390
O371	O	0.563962	-0.131153	-0.600023
O372	O	1.063962	0.368847	-0.100023
C373	C	0.589553	-0.102155	-0.572888
C374	C	1.089553	0.397845	-0.072888
H375	H	0.624941	-0.099388	-0.587032
H376	H	1.124941	0.400612	-0.087032
H377	H	0.573327	-0.067577	-0.572364
H378	H	1.073327	0.432423	-0.072364
H379	H	0.591083	-0.116050	-0.537325
H380	H	1.091083	0.383950	-0.037325
O381	O	0.389442	-0.160046	-0.273223
O382	O	0.889442	0.339954	0.226777
C383	C	0.420228	-0.134710	-0.298614
C384	C	0.920228	0.365290	0.201386
H385	H	0.453670	-0.153107	-0.300129
H386	H	0.953670	0.346893	0.199871
H387	H	0.406692	-0.129969	-0.334021
H388	H	0.906692	0.370031	0.165979
H389	H	0.425216	-0.100566	-0.282223
H390	H	0.925216	0.399434	0.217777
O391	O	0.481727	-0.273212	-0.159674
O392	O	0.981727	0.226788	0.340326
C393	C	0.450940	-0.298532	-0.134267
C394	C	0.950940	0.201468	0.365733
H395	H	0.417504	-0.300116	-0.152670
H396	H	0.917504	0.199884	0.347330
H397	H	0.464484	-0.333920	-0.129411
H398	H	0.964484	0.166080	0.370589
H399	H	0.445938	-0.282035	-0.100177
H400	H	0.945938	0.217965	0.399823
H401	H	-0.179336	-0.164674	-0.268675
H402	H	0.320664	0.335326	0.231325
O403	O	0.734715	-0.833054	-0.131250
O404	O	1.234715	-0.333054	0.368750
C405	C	0.763713	-0.860159	-0.156871
C406	C	1.263713	-0.360159	0.343129
H407	H	0.766446	-0.845994	-0.192255
H408	H	1.266446	-0.345994	0.307745
H409	H	0.798302	-0.860671	-0.140669
H410	H	1.298302	-0.360671	0.359331
H411	H	0.749839	-0.895728	-0.158408
H412	H	1.249839	-0.395728	0.341592
O413	O	0.706045	-1.048811	-0.159920
O414	O	1.206045	-0.548811	0.340080
C415	C	0.750803	-1.037303	-0.169807
C416	C	1.250803	-0.537303	0.330193
H417	H	0.751693	-1.003230	-0.187080
H418	H	1.251693	-0.503230	0.312920
H419	H	0.770979	-1.035688	-0.137412
H420	H	1.270979	-0.535688	0.362588
H421	H	0.765929	-1.063684	-0.192923
H422	H	1.265929	-0.563684	0.307077
H423	H	0.393002	-0.268685	-0.164217
H424	H	0.893002	0.231315	0.335783
H425	H	0.262368	-0.135910	-0.297448
H426	H	0.762368	0.364090	0.202552
O427	O	0.705845	-0.273151	-0.956575
O428	O	1.205845	0.226849	-0.456575
C429	C	0.734888	-0.247591	-0.929459
C430	C	1.234888	0.252409	-0.429459
H431	H	0.719069	-0.213542	-0.922429
H432	H	1.219069	0.286458	-0.422429
H433	H	0.740896	-0.265902	-0.896466
H434	H	1.240896	0.234098	-0.396466
H435	H	0.768184	-0.242661	-0.947554
H436	H	1.268184	0.257339	-0.447554
O437	O	0.125124	-0.301988	-0.130921
O438	O	0.625124	0.198012	0.369079
C439	C	0.094335	-0.327307	-0.105518
C440	C	0.594335	0.172693	0.394482
H441	H	0.060899	-0.328887	-0.123923
H442	H	0.560899	0.171113	0.376077
H443	H	0.107875	-0.362697	-0.100664
H444	H	0.607875	0.137303	0.399336
H445	H	0.089333	-0.310813	-0.071427
H446	H	0.589333	0.189187	0.428573
O447	O	0.032688	-0.302009	-0.131007
O448	O	0.532688	0.197991	0.368993
C449	C	0.005543	-0.331058	-0.156532
C450	C	0.505543	0.168942	0.343468
H451	H	0.019693	-0.333876	-0.191911
H452	H	0.519693	0.166124	0.308089
H453	H	0.005000	-0.365610	-0.140224
H454	H	0.505000	0.134390	0.359776
H455	H	-0.030012	-0.317177	-0.158103
H456	H	0.469988	0.182823	0.341897
O457	O	0.734536	-0.302041	-0.600109
O458	O	1.234536	0.197959	-0.100109
C459	C	0.759864	-0.327414	-0.630879
C460	C	1.259864	0.172586	-0.130879
H461	H	0.761437	-0.309006	-0.664328
H462	H	1.261437	0.190994	-0.164328
H463	H	0.795256	-0.332229	-0.617334
H464	H	1.295256	0.167771	-0.117334
H465	H	0.743381	-0.361524	-0.635856
H466	H	1.243381	0.138476	-0.135856
O467	O	0.173544	-0.131369	-0.301915
O468	O	0.673544	0.368631	0.198085
C469	C	0.146391	-0.102326	-0.276397
C470	C	0.646391	0.397674	0.223603
H471	H	0.160512	-0.099499	-0.241016
H472	H	0.660512	0.400501	0.258984
H473	H	0.145877	-0.067776	-0.292709
H474	H	0.645877	0.432224	0.207291
H475	H	0.110828	-0.116218	-0.274831
H476	H	0.610828	0.383782	0.225169
O477	O	0.705768	-0.273370	-0.384274
O478	O	1.205768	0.226630	0.115726
C479	C	0.695900	-0.318139	-0.395713
C480	C	1.195900	0.181861	0.104287
H481	H	0.678638	-0.319057	-0.429777
H482	H	1.178638	0.180943	0.070223
H483	H	0.728303	-0.338303	-0.397314
H484	H	1.228303	0.161697	0.102686
H485	H	0.672781	-0.333258	-0.369300
H486	H	1.172781	0.166742	0.130700
H487	H	-0.179402	-0.268786	-0.164238
H488	H	0.320598	0.231214	0.335762
H489	H	0.177158	-0.297417	-0.135454
H490	H	0.677158	0.202583	0.364546
O491	O	-0.090661	-0.273325	-0.159700
O492	O	0.409339	0.226675	0.340300
C493	C	-0.121444	-0.298645	-0.134289
C494	C	0.378556	0.201355	0.365711
H495	H	-0.154884	-0.300224	-0.152686
H496	H	0.345116	0.199776	0.347314
H497	H	-0.107901	-0.334034	-0.129438
H498	H	0.392099	0.165966	0.370562
H499	H	-0.126437	-0.282150	-0.100197
H500	H	0.373563	0.217850	0.399803
O501	O	0.563761	-0.692239	-0.301802
O502	O	1.063761	-0.192239	0.198198
C503	C	0.538378	-0.661469	-0.327123
C504	C	1.038378	-0.161469	0.172877
H505	H	0.556773	-0.628012	-0.328684
H506	H	1.056773	-0.128012	0.171316
H507	H	0.533572	-0.675003	-0.362520
H508	H	1.033572	-0.175003	0.137480
H509	H	0.504265	-0.656509	-0.310643
H510	H	1.004265	-0.156509	0.189357
H511	H	0.701291	-0.268773	-0.473033
H512	H	1.201291	0.231227	0.026967
H513	H	0.568332	-0.829374	-0.297251
H514	H	1.068332	-0.329374	0.202749
O515	O	0.705801	-0.384053	-0.159816
O516	O	1.205801	0.115947	0.340184
C517	C	0.731176	-0.414818	-0.134479
C518	C	1.231176	0.085182	0.365521
H519	H	0.732730	-0.448251	-0.152888
H520	H	1.232730	0.051749	0.347112
H521	H	0.766571	-0.401241	-0.129717
H522	H	1.266571	0.098759	0.370283
H523	H	0.714745	-0.419839	-0.100345
H524	H	1.214745	0.080161	0.399655
H525	H	0.597111	-0.164476	-0.473019
H526	H	1.097111	0.335524	0.026981
O527	O	0.705736	-0.476523	-0.159825
O528	O	1.205736	0.023477	0.340175
C529	C	0.680191	-0.503692	-0.130778
C530	C	1.180191	-0.003692	0.369222
H531	H	0.646137	-0.510738	-0.146588
H532	H	1.146137	-0.010738	0.353412
H533	H	0.698508	-0.536673	-0.124783
H534	H	1.198508	-0.036673	0.375217
H535	H	0.675272	-0.485634	-0.097477
H536	H	1.175272	0.014366	0.402523
H537	H	0.730065	-0.603490	-0.135660
H538	H	1.230065	-0.103490	0.364340
H539	H	0.730094	-0.688597	-0.135670
H540	H	1.230094	-0.188597	0.364330
H541	H	0.568413	-0.135702	-0.688837
H542	H	1.068413	0.364298	-0.188837
H543	H	0.701424	-0.960068	-0.164394
H544	H	1.201424	-0.460068	0.335606
O545	O	0.705845	-0.273236	-1.049040
O546	O	1.205845	0.226764	-0.549040
C547	C	0.731185	-0.298600	-1.018270
C548	C	1.231185	0.201400	-0.518270
H549	H	0.712777	-0.300151	-0.984821
H550	H	1.212777	0.199849	-0.484821
H551	H	0.735951	-0.333997	-1.031815
H552	H	1.235951	0.166003	-0.531815
H553	H	0.765318	-0.282164	-1.013292
H554	H	1.265318	0.217836	-0.513292
O555	O	0.563815	-0.599801	-0.301796
O556	O	1.063815	-0.099801	0.198204
C557	C	0.589367	-0.572620	-0.330824
C558	C	1.089367	-0.072620	0.169176
H559	H	0.624754	-0.586732	-0.333631
H560	H	1.124754	-0.086732	0.166369
H561	H	0.573101	-0.572082	-0.365384
H562	H	1.073101	-0.072082	0.134616
H563	H	0.590910	-0.537068	-0.316932
H564	H	1.090910	-0.037068	0.183068
O565	O	0.592491	-0.476482	-0.273084
O566	O	1.092491	0.023518	0.226916
C567	C	0.602273	-0.464974	-0.317865
C568	C	1.102273	0.035026	0.182135
H569	H	0.638156	-0.452046	-0.320162
H570	H	1.138156	0.047954	0.179838
H571	H	0.598405	-0.495818	-0.340063
H572	H	1.098405	0.004182	0.159937
H573	H	0.578169	-0.437752	-0.329582
H574	H	1.078169	0.062248	0.170418
H575	H	0.597142	-0.164393	-0.960305
H576	H	1.097142	0.335607	-0.460305
H577	H	0.568423	-0.135684	-0.829597
H578	H	1.068423	0.364316	-0.329597
H579	H	0.597149	-0.164383	-1.045427
H580	H	1.097149	0.335617	-0.545427
H581	H	0.568416	-0.135693	-0.744479
H582	H	1.068416	0.364307	-0.244479
H583	H	0.730004	-0.297463	-0.829592
H584	H	1.230004	0.202537	-0.329592
H585	H	0.729996	-0.297478	-0.744487
H586	H	1.229996	0.202522	-0.244487
