data_functionalizedCrystal
_audit_creation_method	'MofGen! by Chris Wilmer'
_symmetry_space_group_name_H-M	'P1'
_symmetry_Int_Tables_number	1
_symmetry_cell_setting	triclinic
loop_
_symmetry_equiv_pos_as_xyz
  x,y,z
_cell_length_a	14.971486
_cell_length_b	10.723024
_cell_length_c	14.048226
_cell_angle_alpha	89.994758
_cell_angle_beta	89.998499
_cell_angle_gamma	84.040999
loop_
_atom_site_label
_atom_site_type_symbol
_atom_site_fract_x
_atom_site_fract_y
_atom_site_fract_z
O1	O	1.187820	0.162616	-0.079049
O2	O	0.927525	0.182090	-0.079074
O3	O	1.063676	-0.009286	-0.079057
O4	O	1.051668	0.353992	-0.079066
O5	O	1.063660	-0.009297	0.079264
O6	O	0.927508	0.182079	0.079247
O7	O	1.187804	0.162605	0.079273
Zn8	Zn	1.057653	0.172340	0.104397
Zn9	Zn	1.057675	0.172355	-0.104198
O10	O	1.051652	0.353981	0.079256
C11	C	0.894187	0.181213	0.000083
C12	C	0.794876	0.178604	0.000073
C13	C	0.738254	0.291032	0.000072
C14	C	0.644941	0.288572	0.000086
C15	C	0.608252	0.173683	0.000095
C16	C	0.664881	0.061246	0.000099
C17	C	0.758192	0.063707	0.000092
C18	C	0.470391	0.056125	0.000112
C19	C	0.377074	0.053663	0.000118
C20	C	0.357141	0.280990	0.000107
C21	C	0.450452	0.283451	0.000100
C22	C	0.507074	0.171013	0.000102
C23	C	1.062794	-0.055782	0.000102
C24	C	1.060180	-0.194309	0.000099
C25	C	0.978965	-0.385217	0.000085
C26	C	0.981665	-0.242042	0.000089
C27	C	1.221141	0.163482	0.000113
C28	C	1.320452	0.166091	0.000117
N29	N	1.057645	0.172329	0.246758
C30	C	1.052534	0.400477	0.000094
C31	C	1.055148	0.539004	0.000092
N32	N	1.057690	0.172356	-0.246559
C33	C	1.117952	0.087623	0.296583
C34	C	1.117958	0.087622	0.396241
C35	C	1.057660	0.172335	0.446071
C36	C	0.997347	0.257045	0.396238
C37	C	0.997337	0.257039	0.296583
C38	C	0.997373	0.257054	0.603953
C39	C	0.997383	0.257062	0.703615
C40	C	1.117994	0.087638	0.703611
C41	C	1.117984	0.087631	0.603955
C42	C	1.057671	0.172344	0.554129
H43	H	0.911742	-0.426337	0.000072
H44	H	0.311034	0.372540	0.000109
C45	C	0.365327	-0.140861	-0.081244
C46	C	0.336740	-0.072621	0.000134
H47	H	0.340428	-0.218826	-0.081230
H48	H	0.345938	-0.094565	-0.136448
H49	H	0.429003	-0.155489	-0.081234
H50	H	0.273063	-0.057985	0.000120
H51	H	0.356124	-0.118927	0.055352
C52	C	0.878162	0.424542	0.613962
C53	C	0.931080	0.350177	0.549182
H54	H	0.837245	0.482038	0.580147
H55	H	0.845673	0.372531	0.652838
H56	H	0.915682	0.469507	0.652826
H57	H	0.893561	0.305204	0.510324
H58	H	0.963572	0.402195	0.510291
H59	H	1.167087	0.018659	0.563383
C60	C	1.136392	-0.082165	0.815678
C61	C	1.184290	-0.005490	0.758370
H62	H	1.177323	-0.139657	0.849480
H63	H	1.100492	-0.031721	0.859616
H64	H	1.098888	-0.127135	0.776799
H65	H	1.221789	0.039487	0.797250
H66	H	1.220206	-0.055941	0.714427
C67	C	0.878129	0.424518	0.306591
C68	C	0.931049	0.350156	0.241811
H69	H	0.837207	0.482009	0.272775
H70	H	0.845645	0.372504	0.345468
H71	H	0.915647	0.469490	0.345451
H72	H	0.893532	0.305177	0.202954
H73	H	0.963536	0.402177	0.202916
H74	H	0.948281	0.326043	0.744182
C75	C	1.136363	-0.082169	0.508312
C76	C	1.184256	-0.005489	0.451002
H77	H	1.177297	-0.139659	0.542112
H78	H	1.100464	-0.031727	0.552252
H79	H	1.098859	-0.127140	0.469434
H80	H	1.221756	0.039489	0.489881
H81	H	1.220172	-0.055937	0.407057
H82	H	0.948247	0.326015	0.436816
C83	C	0.586894	-0.072973	-0.081278
C84	C	0.532637	-0.067464	0.000112
H85	H	0.625325	-0.149265	-0.081277
H86	H	0.550074	-0.069210	-0.136474
H87	H	0.622090	-0.004188	-0.081271
H88	H	0.497436	-0.136244	0.000101
H89	H	0.569462	-0.071239	0.055322
C90	C	0.803921	-0.129284	-0.081300
C91	C	0.820438	-0.059874	0.000086
H92	H	0.842353	-0.205576	-0.081302
H93	H	0.743106	-0.147193	-0.081287
H94	H	0.815117	-0.082161	-0.136505
H95	H	0.809235	-0.106994	0.055291
H96	H	0.881266	-0.041969	0.000082
C97	C	0.749974	0.485560	-0.081322
C98	C	0.778575	0.417326	0.000062
H99	H	0.774860	0.563534	-0.081321
H100	H	0.769366	0.439269	-0.136522
H101	H	0.686296	0.500169	-0.081306
H102	H	0.842252	0.402709	0.000043
H103	H	0.759188	0.463627	0.055276
C104	C	0.528438	0.417679	-0.081307
C105	C	0.582704	0.412158	0.000075
H106	H	0.490014	0.493977	-0.081310
H107	H	0.565253	0.413909	-0.136509
H108	H	0.493235	0.348901	-0.081283
H109	H	0.617913	0.480931	0.000048
H110	H	0.545885	0.415940	0.055291
H111	H	0.916446	-0.176928	0.000090
C112	C	1.151732	-0.357910	-0.081288
C113	C	1.148234	-0.282190	0.000102
H114	H	1.206096	-0.412164	-0.081288
H115	H	1.102131	-0.406414	-0.081285
H116	H	1.149356	-0.306501	-0.136490
H117	H	1.150604	-0.333599	0.055304
H118	H	1.197849	-0.233682	0.000107
C119	C	1.237163	-0.079853	0.306599
C120	C	1.184233	-0.005500	0.241814
H121	H	1.278077	-0.137351	0.272787
H122	H	1.269656	-0.027834	0.345454
H123	H	1.199651	-0.124817	0.345481
H124	H	1.221745	0.039471	0.202936
H125	H	1.151737	-0.057525	0.202942
H126	H	0.480320	0.377003	0.000084
H127	H	0.635002	-0.032298	0.000120
H128	H	1.122371	-0.419876	0.000065
