data_functionalizedCrystal
_audit_creation_method	'MofGen! by Chris Wilmer'
_symmetry_space_group_name_H-M	'P1'
_symmetry_Int_Tables_number	1
_symmetry_cell_setting	triclinic
loop_
_symmetry_equiv_pos_as_xyz
  x,y,z
_cell_length_a	21.295419
_cell_length_b	21.295417
_cell_length_c	16.625539
_cell_angle_alpha	89.969538
_cell_angle_beta	89.982931
_cell_angle_gamma	90.044503
loop_
_atom_site_label
_atom_site_type_symbol
_atom_site_fract_x
_atom_site_fract_y
_atom_site_fract_z
Zn1	Zn	0.962313	-0.250371	-0.455887
Zn2	Zn	1.462313	0.249629	0.044113
Zn3	Zn	0.962230	-0.355641	-0.321045
Zn4	Zn	1.462230	0.144359	0.178955
Zn5	Zn	0.857050	-0.250417	-0.321068
Zn6	Zn	1.357050	0.249583	0.178932
Zn7	Zn	0.857007	-0.355634	-0.455835
Zn8	Zn	1.357007	0.144366	0.044165
O9	O	0.909650	-0.303016	-0.388459
O10	O	1.409650	0.196984	0.111541
O11	O	1.050391	-0.264319	-0.438013
O12	O	1.550391	0.235681	0.061987
O13	O	0.948261	-0.341705	-0.208216
O14	O	1.448261	0.158295	0.291784
O15	O	0.871065	-0.162321	-0.338983
O16	O	1.371065	0.337679	0.161017
O17	O	1.050331	-0.341661	-0.338945
O18	O	1.550331	0.158339	0.161055
O19	O	0.948402	-0.162288	-0.438035
O20	O	1.448402	0.337712	0.061965
O21	O	0.870985	-0.264397	-0.208232
O22	O	1.370985	0.235603	0.291768
O23	O	0.768955	-0.264390	-0.338932
O24	O	1.268955	0.235610	0.161068
O25	O	0.870992	-0.341648	-0.568674
O26	O	1.370992	0.158352	-0.068674
O27	O	0.768923	-0.341692	-0.437945
O28	O	1.268923	0.158308	0.062055
O29	O	0.948360	-0.264312	-0.568713
O30	O	1.448360	0.235688	-0.068713
O31	O	0.948220	-0.443729	-0.338894
O32	O	1.448220	0.056271	0.161106
O33	O	0.870912	-0.443724	-0.437923
O34	O	1.370912	0.056276	0.062077
C35	C	0.746098	-0.303046	-0.388436
C36	C	1.246098	0.196954	0.111564
C37	C	0.676130	-0.303074	-0.388446
C38	C	1.176130	0.196926	0.111554
C39	C	0.643317	-0.262868	-0.440110
C40	C	1.143317	0.237132	0.059890
C41	C	0.577575	-0.262851	-0.440113
C42	C	1.077575	0.237149	0.059887
C43	C	0.544648	-0.303051	-0.388460
C44	C	1.044648	0.196949	0.111540
C45	C	0.577468	-0.343260	-0.336786
C46	C	1.077468	0.156740	0.163214
C47	C	0.643209	-0.343271	-0.336778
C48	C	1.143209	0.156729	0.163222
N49	N	0.441374	-0.358129	-0.382160
N50	N	0.941374	0.141871	0.117840
N51	N	0.378922	-0.358117	-0.382172
N52	N	0.878922	0.141883	0.117828
C53	C	0.346573	-0.303019	-0.388478
C54	C	0.846573	0.196981	0.111522
N55	N	0.379034	-0.247932	-0.394788
N56	N	0.879034	0.252068	0.105212
N57	N	0.441492	-0.247946	-0.394781
N58	N	0.941492	0.252054	0.105219
C59	C	0.473362	-0.303043	-0.388462
C60	C	0.973362	0.196957	0.111538
C61	C	0.242475	-0.262791	-0.440149
C62	C	0.742475	0.237209	0.059851
C63	C	0.176731	-0.262773	-0.440146
C64	C	0.676731	0.237227	0.059854
C65	C	0.176626	-0.343188	-0.336823
C66	C	0.676626	0.156812	0.163177
C67	C	0.242368	-0.343200	-0.336821
C68	C	0.742368	0.156800	0.163179
C69	C	0.275289	-0.303003	-0.388488
C70	C	0.775289	0.196997	0.111512
C71	C	0.909570	-0.466567	-0.388418
C72	C	1.409570	0.033433	0.111582
C73	C	0.909593	-0.536535	-0.388427
C74	C	1.409593	-0.036535	0.111573
C75	C	0.949839	-0.569327	-0.440040
C76	C	1.449839	-0.069327	0.059960
C77	C	0.949861	-0.635070	-0.440060
C78	C	1.449861	-0.135070	0.059940
C79	C	0.909644	-0.668018	-0.388453
C80	C	1.409644	-0.168018	0.111547
C81	C	0.869390	-0.635218	-0.336836
C82	C	1.369390	-0.135218	0.163164
C83	C	0.869365	-0.569477	-0.336824
C84	C	1.369365	-0.069477	0.163176
N85	N	0.904892	-0.771281	-0.317887
N86	N	1.404892	-0.271281	0.182113
N87	N	0.904920	-0.833732	-0.317902
N88	N	1.404920	-0.333732	0.182098
C89	C	0.909717	-0.866093	-0.388489
C90	C	1.409717	-0.366093	0.111511
N91	N	0.914499	-0.833642	-0.459063
N92	N	1.414499	-0.333642	0.040937
N93	N	0.914474	-0.771185	-0.459048
N94	N	1.414474	-0.271185	0.040952
C95	C	0.909667	-0.739303	-0.388461
C96	C	1.409667	-0.239303	0.111539
C97	C	0.949990	-0.970170	-0.440128
C98	C	1.449990	-0.470170	0.059872
C99	C	0.950007	-1.035914	-0.440149
C100	C	1.450007	-0.535914	0.059851
C101	C	0.869540	-1.036061	-0.336918
C102	C	1.369540	-0.536061	0.163082
C103	C	0.869519	-0.970318	-0.336904
C104	C	1.369519	-0.470318	0.163096
C105	C	0.909747	-0.937377	-0.388508
C106	C	1.409747	-0.437377	0.111492
C107	C	1.073840	-0.302986	-0.388482
C108	C	1.573840	0.197014	0.111518
C109	C	1.143808	-0.302973	-0.388492
C110	C	1.643808	0.197027	0.111508
C111	C	0.909681	-0.302974	-0.598768
C112	C	1.409681	0.197026	-0.098768
C113	C	0.909694	-0.302956	-0.688389
C114	C	1.409694	0.197044	-0.188389
C115	C	0.909748	-0.138825	-0.388517
C116	C	1.409748	0.361175	0.111483
C117	C	0.909789	-0.068857	-0.388542
C118	C	1.409789	0.431143	0.111458
C119	C	0.909704	-0.302942	-0.761171
C120	C	1.409704	0.197058	-0.261171
C121	C	0.909719	-0.302919	-0.852480
C122	C	1.409719	0.197081	-0.352480
C123	C	0.909734	-0.302897	-0.925256
C124	C	1.409734	0.197103	-0.425256
C125	C	0.909749	-0.302874	-1.016571
C126	C	1.409749	0.197126	-0.516571
C127	C	0.909655	-0.303012	-0.178968
C128	C	1.409655	0.196988	0.321032
C129	C	0.909764	-0.302852	-0.089347
C130	C	1.409764	0.197148	0.410653
H131	H	0.550655	-0.375991	-0.294729
H132	H	1.050655	0.124009	0.205271
H133	H	0.836591	-0.542777	-0.294793
H134	H	1.336591	-0.042777	0.205207
H135	H	0.269084	-0.375943	-0.294754
H136	H	0.769084	0.124057	0.205246
H137	H	0.149817	-0.375919	-0.294766
H138	H	0.649817	0.124081	0.205234
H139	H	0.836749	-0.943617	-0.294873
H140	H	1.336749	-0.443617	0.205127
C141	C	0.278301	-0.219108	-0.496105
C142	C	0.778301	0.280892	0.003895
C143	C	0.316083	-0.178733	-0.450545
C144	C	0.816083	0.321267	0.049455
C145	C	0.349098	-0.138489	-0.502065
C146	C	0.849098	0.361511	-0.002065
H147	H	0.249411	-0.195097	-0.526890
H148	H	0.749411	0.304903	-0.026890
H149	H	0.303968	-0.243211	-0.531168
H150	H	0.803968	0.256789	-0.031168
H151	H	0.290418	-0.154633	-0.415496
H152	H	0.790418	0.345367	0.084504
H153	H	0.344984	-0.202727	-0.419763
H154	H	0.844984	0.297273	0.080237
H155	H	0.374765	-0.162592	-0.537128
H156	H	0.874765	0.337408	-0.037128
H157	H	0.320204	-0.114482	-0.532847
H158	H	0.820204	0.385518	-0.032847
H159	H	0.374742	-0.111094	-0.471161
H160	H	0.874742	0.388906	0.028839
H161	H	0.550854	-0.230108	-0.482183
H162	H	1.050854	0.269892	0.017817
C163	C	0.993535	-0.533677	-0.496158
C164	C	1.493535	-0.033677	0.003842
C165	C	1.028775	-0.576471	-0.541377
C166	C	1.528775	-0.076471	-0.041377
C167	C	1.069028	-0.543652	-0.593088
C168	C	1.569028	-0.043652	-0.093088
H169	H	1.021023	-0.508013	-0.465430
H170	H	1.521023	-0.008013	0.034570
H171	H	0.969444	-0.508054	-0.531302
H172	H	1.469444	-0.008054	-0.031302
H173	H	1.052865	-0.602083	-0.506236
H174	H	1.552865	-0.102083	-0.006236
H175	H	1.001304	-0.602137	-0.572121
H176	H	1.501304	-0.102137	-0.072121
H177	H	1.044937	-0.518029	-0.628232
H178	H	1.544937	-0.018029	-0.128232
H179	H	1.096512	-0.517989	-0.562354
H180	H	1.596512	-0.017989	-0.062354
H181	H	1.092939	-0.572683	-0.623780
H182	H	1.592939	-0.072683	-0.123780
H183	H	0.669925	-0.376013	-0.294706
H184	H	1.169925	0.123987	0.205294
H185	H	0.150016	-0.230029	-0.482216
H186	H	0.650016	0.269971	0.017784
H187	H	0.982744	-0.943348	-0.482150
H188	H	1.482744	-0.443348	0.017850
H189	H	0.982629	-0.661774	-0.482099
H190	H	1.482629	-0.161774	0.017901
H191	H	0.836790	-1.062886	-0.294904
H192	H	1.336790	-0.562886	0.205096
H193	H	0.836644	-0.662048	-0.294819
H194	H	1.336644	-0.162048	0.205181
C195	C	0.678977	-0.219255	-0.496327
C196	C	1.178977	0.280745	0.003673
C197	C	0.662984	-0.233029	-0.576073
C198	C	1.162984	0.266971	-0.076073
C199	C	0.695815	-0.192858	-0.627879
C200	C	1.195815	0.307142	-0.127879
H201	H	0.722840	-0.224976	-0.489036
H202	H	1.222840	0.275024	0.010964
H203	H	0.668221	-0.176937	-0.484673
H204	H	1.168221	0.323063	0.015327
H205	H	0.673744	-0.275337	-0.587723
H206	H	1.173744	0.224663	-0.087723
H207	H	0.619126	-0.227304	-0.583390
H208	H	1.119126	0.272696	-0.083390
H209	H	0.685060	-0.150540	-0.616225
H210	H	1.185060	0.349460	-0.116225
H211	H	0.739677	-0.198582	-0.620581
H212	H	1.239677	0.301418	-0.120581
H213	H	0.684965	-0.202194	-0.681992
H214	H	1.184965	0.297806	-0.181992
C215	C	0.993777	-1.071406	-0.496218
C216	C	1.493777	-0.571406	0.003782
C217	C	1.029013	-1.028482	-0.541386
C218	C	1.529013	-0.528482	-0.041386
C219	C	1.069348	-1.061155	-0.593036
C220	C	1.569348	-0.561155	-0.093036
H221	H	0.969765	-1.097063	-0.531403
H222	H	1.469765	-0.597063	-0.031403
H223	H	1.021259	-1.097023	-0.465423
H224	H	1.521259	-0.597023	0.034577
H225	H	1.001534	-1.002876	-0.572179
H226	H	1.501534	-0.502876	-0.072179
H227	H	1.053038	-1.002824	-0.506222
H228	H	1.553038	-0.502824	-0.006222
H229	H	1.096830	-1.086772	-0.562241
H230	H	1.596830	-0.586772	-0.062241
H231	H	1.045330	-1.086811	-0.628216
H232	H	1.545330	-0.586811	-0.128216
H233	H	1.093264	-1.032037	-0.623683
H234	H	1.593264	-0.532037	-0.123683
