data_functionalizedCrystal
_audit_creation_method	'MofGen! by Chris Wilmer'
_symmetry_space_group_name_H-M	'P1'
_symmetry_Int_Tables_number	1
_symmetry_cell_setting	triclinic
loop_
_symmetry_equiv_pos_as_xyz
  x,y,z
_cell_length_a	10.489741
_cell_length_b	14.971486
_cell_length_c	9.565339
_cell_angle_alpha	89.997758
_cell_angle_beta	90.007516
_cell_angle_gamma	95.923349
loop_
_atom_site_label
_atom_site_type_symbol
_atom_site_fract_x
_atom_site_fract_y
_atom_site_fract_z
O1	O	0.166225	-1.187894	0.116098
O2	O	0.186130	-0.927607	0.116136
O3	O	-0.009489	-1.063673	0.116108
O4	O	0.361844	-1.051828	0.116126
O5	O	-0.009506	-1.063655	-0.116412
O6	O	0.186113	-0.927589	-0.116384
O7	O	0.166208	-1.187876	-0.116422
Zn8	Zn	0.176158	-1.057729	-0.153320
Zn9	Zn	0.176180	-1.057753	0.153035
O10	O	0.361827	-1.051810	-0.116394
C11	C	-0.057019	-1.062769	-0.000151
C12	C	-0.198617	-1.060093	-0.000148
C13	C	0.185232	-0.894268	-0.000119
C14	C	0.182564	-0.794956	-0.000105
C15	C	0.167106	-1.221215	-0.000164
C16	C	0.169774	-1.320527	-0.000169
C17	C	-0.265755	-0.973518	-0.000125
C18	C	-0.358359	-1.014406	-0.114776
C19	C	-0.358318	-1.014444	0.114471
C20	C	-0.289356	-1.101017	-0.114893
C21	C	-0.289305	-1.101043	0.114456
C22	C	-0.381882	-1.141994	-0.000222
C23	C	0.409357	-1.052713	-0.000132
C24	C	0.550955	-1.055390	-0.000125
N25	N	0.176143	-1.057720	-0.362400
C26	C	0.297485	-0.738385	-0.000101
C27	C	0.294971	-0.645071	-0.000122
C28	C	0.177534	-0.608330	-0.000137
C29	C	0.062604	-0.664909	-0.000145
C30	C	0.065120	-0.758221	-0.000134
C31	C	0.057369	-0.470416	-0.000164
C32	C	0.054853	-0.377098	-0.000172
C33	C	0.287220	-0.357267	-0.000152
C34	C	0.289736	-0.450579	-0.000141
C35	C	0.174805	-0.507151	-0.000147
N36	N	0.176185	-1.057770	0.362114
C37	C	0.085857	-1.120799	0.546440
C38	C	0.060758	-1.039886	0.453188
C39	C	0.201228	-1.138676	0.453296
C40	C	0.150986	-0.976766	0.546400
C41	C	0.291506	-1.075608	0.546516
C42	C	0.266456	-0.994638	0.453307
H43	H	-0.215280	-0.902336	-0.000230
F44	F	-0.014026	-1.190415	0.599894
F45	F	-0.398254	-0.966554	0.241157
F46	F	-0.062381	-0.625804	-0.000169
F47	F	0.366285	-0.924868	0.400192
F48	F	-0.064953	-0.530623	-0.000174
F49	F	-0.447564	-1.235116	-0.000315
H50	H	-0.040774	-0.347187	-0.000186
F51	F	-0.066735	-1.020123	0.399617
F52	F	-0.249270	-1.148894	0.241142
H53	H	0.393115	-0.768291	-0.000088
H54	H	0.222428	-1.207118	0.412397
H55	H	0.380801	-0.311201	-0.000154
H56	H	-0.028461	-0.804281	-0.000136
H57	H	0.385363	-0.480489	-0.000116
H58	H	0.388551	-0.599014	-0.000117
H59	H	0.129676	-0.908307	0.587127
H60	H	-0.388954	-0.977767	-0.211694
F61	F	-0.249625	-1.148849	-0.241726
F62	F	0.418959	-1.095399	0.600145
