data_functionalizedCrystal
_audit_creation_method	'MofGen! by Chris Wilmer'
_symmetry_space_group_name_H-M	'P1'
_symmetry_Int_Tables_number	1
_symmetry_cell_setting	triclinic
loop_
_symmetry_equiv_pos_as_xyz
  x,y,z
_cell_length_a	15.297475
_cell_length_b	25.639239
_cell_length_c	15.296720
_cell_angle_alpha	80.361144
_cell_angle_beta	88.382886
_cell_angle_gamma	80.340538
loop_
_atom_site_label
_atom_site_type_symbol
_atom_site_fract_x
_atom_site_fract_y
_atom_site_fract_z
Zn1	Zn	1.253213	-0.406888	0.726521
Zn2	Zn	1.278441	-0.482170	0.580022
Zn3	Zn	1.132104	-0.377518	0.554767
Zn4	Zn	1.106670	-0.477031	0.701152
O5	O	1.192607	-0.435902	0.640616
O6	O	1.379131	-0.431317	0.728274
O7	O	1.280232	-0.458147	0.454100
O8	O	1.148256	-0.308262	0.577599
O9	O	1.397666	-0.486626	0.620642
O10	O	1.237234	-0.329841	0.703785
O11	O	1.172719	-0.381260	0.435545
O12	O	1.006159	-0.376276	0.552999
O13	O	1.104906	-0.477867	0.827090
O14	O	0.987472	-0.449388	0.660547
O15	O	1.212571	-0.426334	0.845728
O16	O	1.255568	-0.554640	0.596043
O17	O	1.129369	-0.550864	0.685036
C18	C	0.965034	-0.409088	0.601280
C19	C	0.867674	-0.397631	0.584473
C20	C	0.554472	-0.517789	0.760740
C21	C	0.645948	-0.528557	0.776529
C22	C	0.701384	-0.495826	0.728517
C23	C	0.665336	-0.452326	0.664713
C24	C	0.573852	-0.441560	0.648918
C25	C	0.720763	-0.419597	0.616694
C26	C	0.684715	-0.376097	0.552890
C27	C	0.593241	-0.365332	0.537098
C28	C	0.537805	-0.398063	0.585110
C29	C	0.812247	-0.430363	0.632489
C30	C	0.831627	-0.354134	0.520666
C31	C	0.740151	-0.343366	0.504877
C32	C	1.192467	-0.571724	0.640550
C33	C	1.192482	-0.629841	0.640565
C34	C	1.258449	-0.992200	0.594398
C35	C	1.258481	-1.046809	0.594415
O36	O	1.314423	-1.076721	0.555091
N37	N	1.192751	-1.072164	0.640700
C38	C	1.126990	-1.042907	0.686978
O39	O	1.071085	-1.069488	0.726350
C40	C	1.126963	-0.988300	0.686965
C41	C	1.192692	-0.962947	0.640670
C42	C	1.324173	-0.966847	0.548107
C43	C	1.324140	-0.912241	0.548088
C44	C	1.258383	-0.882988	0.594360
C45	C	1.192658	-0.908341	0.640651
C46	C	1.061206	-0.959045	0.733248
C47	C	1.061185	-0.904435	0.733232
C48	C	1.126914	-0.879082	0.686936
C49	C	1.126868	-0.824483	0.686905
N50	N	1.192598	-0.799128	0.640619
C51	C	1.258355	-0.828381	0.594347
C52	C	1.127054	-1.157587	0.687003
C53	C	1.127077	-1.212192	0.687011
C54	C	1.258569	-1.216091	0.594449
C55	C	1.258541	-1.161483	0.594437
C56	C	1.192784	-1.132232	0.640718
C57	C	1.258280	-0.713705	0.594311
C58	C	1.258239	-0.659094	0.594293
C59	C	1.126750	-0.655201	0.686858
C60	C	1.126788	-0.709806	0.686873
C61	C	1.192561	-0.739058	0.640597
O62	O	1.070956	-0.794537	0.726211
O63	O	1.314257	-0.801795	0.554992
C64	C	1.421068	-0.462821	0.680105
C65	C	1.518425	-0.474292	0.696933
C66	C	1.153088	-0.454803	0.869079
C67	C	1.136247	-0.462858	0.966437
C68	C	1.192768	-0.299554	0.640705
C69	C	1.192837	-0.241450	0.640743
C70	C	1.232023	-0.417042	0.413049
C71	C	1.249034	-0.408860	0.315722
C72	C	1.313004	-0.378246	1.279690
C73	C	1.328832	-0.370679	1.188219
C74	C	1.280687	-0.393723	1.132769
C75	C	1.216711	-0.424335	1.168799
C76	C	1.200886	-0.431905	1.260281
C77	C	1.168569	-0.447383	1.113359
C78	C	1.104593	-0.477995	1.149390
C79	C	1.088771	-0.485564	1.240862
C80	C	1.136916	-0.462520	1.296312
C81	C	1.184394	-0.439812	1.021878
C82	C	1.072276	-0.493472	1.002468
C83	C	1.056448	-0.501039	1.093940
H84	H	0.710788	-0.307948	0.452927
H85	H	1.311840	-0.737515	0.556631
H86	H	1.380924	-0.345757	1.158890
O87	O	1.322284	-1.136812	0.549356
C88	C	1.354594	-1.066777	0.433178
C89	C	1.282313	-1.094671	0.484146
H90	H	1.322304	-1.032693	0.380458
H91	H	1.401588	-1.097039	0.400042
H92	H	1.393404	-1.049925	0.481355
H93	H	1.243438	-1.111523	0.436029
H94	H	1.235380	-1.064389	0.517296
O95	O	0.885364	-0.322255	0.474049
C96	C	0.920773	-0.233094	0.436689
C97	C	0.859833	-0.269127	0.489509
H98	H	0.900166	-0.190135	0.449184
H99	H	0.914974	-0.234199	0.362906
H100	H	0.992344	-0.248285	0.458924
H101	H	0.788237	-0.253962	0.467350
H102	H	0.865709	-0.268020	0.563281
H103	H	0.675291	-0.563976	0.828477
H104	H	1.073269	-0.730450	0.724573
H105	H	1.377664	-0.891603	0.510393
H106	H	1.004358	-0.525963	1.123289
H107	H	0.463317	-0.389297	0.572260
H108	H	1.352202	-0.359490	1.324846
O109	O	0.558363	-0.323043	0.475111
C110	C	0.587249	-0.248590	0.365828
C111	C	0.626859	-0.296456	0.436016
H112	H	0.642610	-0.227087	0.334186
H113	H	0.537514	-0.219551	0.398700
H114	H	0.552295	-0.263721	0.312588
H115	H	0.661858	-0.281373	0.489276
H116	H	0.676548	-0.325485	0.403079
O117	O	1.388096	-0.995173	0.503073
C118	C	1.518533	-0.993263	0.411294
C119	C	1.446182	-0.961124	0.462252
H120	H	1.565525	-0.965751	0.378292
H121	H	1.486352	-1.010321	0.358467
H122	H	1.557321	-1.027527	0.459459
H123	H	1.407369	-0.926837	0.414155
H124	H	1.478417	-0.944106	0.515091
H125	H	1.311764	-0.638453	0.556590
O126	O	1.121547	-0.469966	1.385171
C127	C	1.121335	-0.533587	1.520315
C128	C	1.138749	-0.525233	1.419684
H129	H	1.135254	-0.578268	1.548252
H130	H	1.049210	-0.516840	1.533481
H131	H	1.166712	-0.511829	1.553723
H132	H	1.093428	-0.546991	1.386210
H133	H	1.210895	-0.541966	1.406583
H134	H	1.312114	-1.239919	0.556776
O135	O	1.063180	-1.236738	0.732053
C136	C	0.932726	-1.227085	0.823816
C137	C	1.005047	-1.199226	0.772854
H138	H	0.885696	-1.196767	0.856802
H139	H	0.964932	-1.261125	0.876657
H140	H	0.893973	-1.243987	0.775658
H141	H	1.043824	-1.182292	0.820944
H142	H	0.972787	-1.165213	0.720001
H143	H	1.036684	-0.510495	1.270196
H144	H	1.033074	-0.512238	0.957321
H145	H	0.509330	-0.544436	0.799820
O146	O	1.063274	-1.129171	0.732069
C147	C	1.030890	-1.075862	0.848217
C148	C	1.103206	-1.108032	0.797267
H149	H	1.063149	-1.058753	0.900929
H150	H	0.983925	-1.103351	0.881363
H151	H	0.992056	-1.041632	0.800028
H152	H	1.142105	-1.142264	0.845398
H153	H	1.150111	-1.080508	0.764108
H154	H	0.841588	-0.465781	0.684439
H155	H	0.775866	-0.504596	0.741376
H156	H	1.007679	-0.979677	0.770942
H157	H	1.073209	-0.631374	0.724530
H158	H	1.007637	-0.880621	0.770923
H159	H	1.293579	-0.387561	1.058289
O160	O	1.246431	-0.409992	0.986909
C161	C	1.293922	-0.323775	0.966397
C162	C	1.223588	-0.357486	1.006023
H163	H	1.275489	-0.281320	0.981852
H164	H	1.296968	-0.322272	0.891481
H165	H	1.361422	-0.342791	0.996576
H166	H	1.156052	-0.338495	0.975913
H167	H	1.220621	-0.358990	1.080940
