data_functionalizedCrystal
_audit_creation_method	'MofGen! by Chris Wilmer'
_symmetry_space_group_name_H-M	'P1'
_symmetry_Int_Tables_number	1
_symmetry_cell_setting	triclinic
loop_
_symmetry_equiv_pos_as_xyz
  x,y,z
_cell_length_a	18.215407
_cell_length_b	12.759400
_cell_length_c	18.215399
_cell_angle_alpha	89.976139
_cell_angle_beta	89.980167
_cell_angle_gamma	90.015093
loop_
_atom_site_label
_atom_site_type_symbol
_atom_site_fract_x
_atom_site_fract_y
_atom_site_fract_z
Zn1	Zn	1.125124	-0.418265	-0.416137
Zn2	Zn	1.125055	-0.593962	-0.293079
Zn3	Zn	1.002057	-0.418299	-0.293084
Zn4	Zn	1.002045	-0.593903	-0.416104
O5	O	1.063570	-0.506107	-0.354601
O6	O	1.228099	-0.441581	-0.399825
O7	O	1.108715	-0.570699	-0.190096
O8	O	1.018416	-0.271273	-0.309423
O9	O	1.228048	-0.570665	-0.309415
O10	O	1.108833	-0.271248	-0.399829
O11	O	1.018349	-0.441640	-0.190099
O12	O	0.899071	-0.441583	-0.309391
O13	O	1.018396	-0.570566	-0.519093
O14	O	0.899062	-0.570599	-0.399774
O15	O	1.108822	-0.441525	-0.519117
O16	O	1.108703	-0.740975	-0.309383
O17	O	1.018328	-0.740932	-0.399769
C18	C	0.872364	-0.506089	-0.354580
C19	C	0.790565	-0.506107	-0.354588
C20	C	1.063527	-0.779075	-0.354588
C21	C	1.063575	-0.895851	-0.354607
C22	C	0.602386	-0.573391	-0.401591
C23	C	0.525527	-0.573394	-0.401601
C24	C	0.525507	-0.438842	-0.307627
C25	C	0.602364	-0.438835	-0.307622
C26	C	0.640802	-0.506115	-0.354603
C27	C	0.487085	-0.506126	-0.354617
C28	C	0.403752	-0.506129	-0.354627
C29	C	0.724140	-0.506111	-0.354595
C30	C	1.110635	-0.950610	-0.401722
C31	C	1.110676	-1.060334	-0.401742
C32	C	1.016596	-1.060531	-0.307526
C33	C	1.016552	-0.950809	-0.307510
C34	C	1.136983	-1.210176	-0.488580
C35	C	1.184054	-1.264938	-0.535688
C36	C	1.255841	-1.229231	-0.547047
C37	C	1.280573	-1.138763	-0.511287
C38	C	1.233505	-1.084006	-0.464173
C39	C	1.161707	-1.119712	-0.452828
C40	C	0.990253	-0.800965	-0.220672
C41	C	0.943189	-0.746206	-0.173554
C42	C	0.871400	-0.781911	-0.162187
C43	C	0.846672	-0.872383	-0.197934
C44	C	0.893736	-0.927142	-0.245052
C45	C	0.965524	-0.891429	-0.256419
C46	C	1.255523	-0.506126	-0.354623
C47	C	1.337322	-0.506134	-0.354632
C48	C	1.063615	-0.506035	-0.546554
C49	C	1.063634	-0.506004	-0.628353
C50	C	1.063634	-0.232074	-0.354630
C51	C	1.063661	-0.115297	-0.354643
C52	C	1.110736	-0.438749	-0.816561
C53	C	1.110745	-0.438719	-0.893420
C54	C	1.016584	-0.573096	-0.893383
C55	C	1.016572	-0.573120	-0.816526
C56	C	1.063652	-0.505949	-0.778117
C57	C	1.063673	-0.505894	-0.931833
C58	C	1.063682	-0.505861	-1.015166
C59	C	1.063642	-0.505980	-0.694778
C60	C	1.063568	-0.506103	-0.163395
C61	C	1.063691	-0.505838	-0.081596
H62	H	0.494252	-0.628176	-0.439864
H63	H	0.978226	-0.627841	-0.785224
H64	H	1.149084	-0.383996	-0.924717
H65	H	0.633679	-0.628172	-0.439848
H66	H	1.339033	-1.109704	-0.520533
O67	O	0.484050	-0.366312	-0.256931
H68	H	0.424152	-0.377636	-0.264815
H69	H	0.633643	-0.384044	-0.269358
H70	H	1.148923	-0.905866	-0.440072
O71	O	1.260165	-0.986431	-0.425608
H72	H	1.317993	-0.970796	-0.441421
O73	O	1.161509	-0.366301	-0.775129
H74	H	1.148902	-0.283838	-0.789883
H75	H	0.788216	-0.901456	-0.188677
H76	H	1.048706	-0.771874	-0.229933
O77	O	1.306612	-1.288284	-0.597862
H78	H	1.277354	-1.357183	-0.620822
O79	O	0.965807	-0.645546	-0.934809
H80	H	0.973729	-0.634246	-0.994712
H81	H	1.163911	-1.338598	-0.564803
O82	O	1.059558	-1.248705	-0.476309
H83	H	1.050280	-1.320827	-0.509072
O84	O	0.820634	-0.722853	-0.111367
H85	H	0.849886	-0.653943	-0.088416
O86	O	0.965894	-1.119804	-0.256715
H87	H	0.973839	-1.205301	-0.264631
H88	H	0.873596	-1.000809	-0.274159
H89	H	0.963331	-0.672543	-0.144443
