data_functionalizedCrystal
_audit_creation_method	'MofGen! by Chris Wilmer'
_symmetry_space_group_name_H-M	'P1'
_symmetry_Int_Tables_number	1
_symmetry_cell_setting	triclinic
loop_
_symmetry_equiv_pos_as_xyz
  x,y,z
_cell_length_a	9.065218
_cell_length_b	7.681481
_cell_length_c	9.065218
_cell_angle_alpha	95.825496
_cell_angle_beta	85.015885
_cell_angle_gamma	84.191250
loop_
_atom_site_label
_atom_site_type_symbol
_atom_site_fract_x
_atom_site_fract_y
_atom_site_fract_z
O1	O	1.946637	0.146426	0.230140
O2	O	2.446637	0.646426	0.730140
O3	O	1.517352	0.146428	0.247887
O4	O	2.017352	0.646428	0.747887
O5	O	1.740868	0.146423	0.024371
O6	O	2.240868	0.646423	0.524371
O7	O	1.723121	0.146430	0.453656
O8	O	2.223121	0.646430	0.953656
O9	O	1.768378	-0.146435	-0.003204
O10	O	2.268378	0.353565	0.496796
O11	O	1.544862	-0.146431	0.220312
O12	O	2.044862	0.353569	0.720312
O13	O	1.974147	-0.146433	0.202566
O14	O	2.474147	0.353567	0.702566
Zn15	Zn	1.763873	-0.192929	0.207061
Zn16	Zn	2.263873	0.307071	0.707061
Zn17	Zn	1.727627	0.192924	0.243391
Zn18	Zn	2.227627	0.692924	0.743391
O19	O	1.750631	-0.146428	0.426082
O20	O	2.250631	0.353572	0.926082
C21	C	1.476120	-0.000001	0.232394
C22	C	1.976120	0.499999	0.732394
C23	C	1.312277	-0.000000	0.227294
C24	C	1.812277	0.500000	0.727294
N25	N	1.788620	-0.456264	0.182266
N26	N	2.288620	0.043736	0.682266
C27	C	2.015378	0.000000	0.218059
C28	C	2.515378	0.500000	0.718059
C29	C	2.179220	0.000011	0.223159
C30	C	2.679220	0.500011	0.723159
C31	C	1.752917	-0.000003	-0.044403
C32	C	2.252917	0.499997	0.455597
C33	C	1.747817	0.000005	-0.208245
C34	C	2.247817	0.500005	0.291755
N35	N	1.702890	0.456259	0.268175
N36	N	2.202890	0.956259	0.768175
C37	C	1.738581	0.000002	0.494856
C38	C	2.238581	0.500002	0.994856
C39	C	1.743681	0.000005	0.658699
C40	C	2.243681	0.500005	1.158699
H41	H	1.615378	-0.468542	0.355862
H42	H	2.115378	0.031458	0.855862
H43	H	1.876150	-0.531472	0.094584
H44	H	2.376150	-0.031472	0.594584
