data_functionalizedCrystal
_audit_creation_method	'MofGen! by Chris Wilmer'
_symmetry_space_group_name_H-M	'P1'
_symmetry_Int_Tables_number	1
_symmetry_cell_setting	triclinic
loop_
_symmetry_equiv_pos_as_xyz
  x,y,z
_cell_length_a	13.262402
_cell_length_b	19.188924
_cell_length_c	11.804365
_cell_angle_alpha	101.787608
_cell_angle_beta	93.583660
_cell_angle_gamma	83.816596
loop_
_atom_site_label
_atom_site_type_symbol
_atom_site_fract_x
_atom_site_fract_y
_atom_site_fract_z
O1	O	1.321541	0.140695	0.329018
O2	O	1.035795	0.137797	0.236461
O3	O	1.186915	0.038014	0.285425
O4	O	1.170421	0.240478	0.280054
O5	O	1.147131	0.064255	0.470591
O6	O	0.996012	0.164038	0.421627
O7	O	1.281757	0.166935	0.514184
Cu8	Cu	1.135252	0.167882	0.484812
Cu9	Cu	1.182301	0.136850	0.265832
O10	O	1.130638	0.266718	0.465220
C11	C	0.979346	0.148666	0.317203
C12	C	0.870417	0.141947	0.281920
C13	C	0.840928	0.124486	0.164407
C14	C	0.738582	0.118180	0.131258
C15	C	0.665716	0.129330	0.215620
C16	C	0.695206	0.146787	0.333135
C17	C	0.797561	0.153099	0.366287
C18	C	0.622349	0.157944	0.417500
C19	C	0.651838	0.175400	0.535015
C20	C	0.754184	0.181710	0.568161
C21	C	0.827050	0.170560	0.483800
C22	C	0.519994	0.151632	0.384348
C23	C	0.476626	0.180245	0.586228
C24	C	0.578972	0.186551	0.619377
C25	C	1.166489	0.025096	0.377836
C26	C	1.164888	-0.052490	0.377321
C27	C	1.185828	-0.103231	0.276145
C28	C	1.184312	-0.176133	0.275644
C29	C	1.161875	-0.198291	0.376333
C30	C	1.140927	-0.147539	0.477520
C31	C	1.142434	-0.074639	0.478014
N32	N	1.199209	-0.304570	0.468774
N33	N	1.197782	-0.373823	0.468299
C34	C	1.157332	-0.417934	0.374850
N35	N	1.118380	-0.390178	0.281881
N36	N	1.119813	-0.320919	0.282354
C37	C	1.160238	-0.277337	0.375808
C38	C	1.176627	-0.547724	0.273124
C39	C	1.175104	-0.620626	0.272626
C40	C	1.131730	-0.592031	0.474508
C41	C	1.133243	-0.519130	0.475000
C42	C	1.155698	-0.496982	0.374306
C43	C	1.338207	0.156066	0.433439
C44	C	1.447137	0.162784	0.468715
C45	C	1.151063	0.279636	0.372806
C46	C	1.152666	0.357221	0.373315
N47	N	1.102167	0.189709	0.638833
N48	N	1.215393	0.115018	0.111814
C49	C	1.294841	0.062591	1.075210
C50	C	1.319868	0.046076	0.958657
C51	C	1.265445	0.081983	0.878695
C52	C	1.185990	0.134407	0.915298
C53	C	1.160966	0.150928	1.031864
C54	C	1.131570	0.170320	0.835350
C55	C	1.052115	0.222744	0.871952
C56	C	1.027094	0.239261	0.988507
C57	C	1.081518	0.203355	1.068468
C58	C	1.156594	0.153799	0.718784
C59	C	1.022719	0.242136	0.675438
C60	C	0.997692	0.258651	0.791991
H61	H	0.778188	0.195932	0.663850
C62	C	1.354698	0.023102	1.163164
H63	H	1.328410	0.040448	1.237822
H64	H	1.424256	0.031212	1.165248
H65	H	1.348341	-0.026722	1.140692
H66	H	0.495994	0.137419	0.288666
C67	C	0.396488	0.192512	0.679036
H68	H	0.428707	0.203823	0.753769
H69	H	0.363314	0.150333	0.672790
H70	H	0.348006	0.230963	0.667807
H71	H	1.221286	0.111115	0.688993
C72	C	1.053993	0.221523	1.196679
H73	H	1.097788	0.192630	1.239054
H74	H	0.985656	0.212608	1.202764
H75	H	1.061575	0.270540	1.227325
H76	H	1.204109	-0.085203	0.194151
H77	H	0.962405	0.281954	1.018309
H78	H	1.201357	-0.217454	0.193250
C79	C	0.706151	0.098965	0.002004
H80	H	0.764205	0.093219	-0.043490
H81	H	0.659468	0.136216	-0.017625
H82	H	0.674788	0.055589	-0.012621
C83	C	0.962846	0.281638	0.587497
H84	H	0.911953	0.315233	0.625992
H85	H	0.931871	0.248065	0.528845
H86	H	1.007788	0.305998	0.553411
H87	H	1.194905	-0.529690	0.191131
H88	H	1.116200	-0.477815	0.557391
C89	C	0.910303	0.316320	0.832265
H90	H	0.903203	0.321016	0.913136
H91	H	0.848945	0.302798	0.791980
H92	H	0.924863	0.360730	0.816543
H93	H	1.192152	-0.661940	0.190231
H94	H	1.122656	-0.165584	0.559500
H95	H	0.910391	0.175688	0.510784
H96	H	0.602998	0.200765	0.715060
C97	C	1.107042	-0.616396	0.585261
H98	H	1.109146	-0.667080	0.570478
H99	H	1.041167	-0.596051	0.608279
H100	H	1.155594	-0.601098	0.645351
H101	H	0.582383	0.124196	0.188623
H102	H	0.900262	0.115414	0.095733
H103	H	1.285826	0.068534	0.783794
H104	H	1.125378	-0.033323	0.560405
C105	C	1.407254	-0.011589	0.918398
H106	H	1.436076	-0.030614	0.982709
H107	H	1.457754	0.009094	0.886108
H108	H	1.381836	-0.048838	0.861550
