data_functionalizedCrystal
_audit_creation_method	'MofGen! by Chris Wilmer'
_symmetry_space_group_name_H-M	'P1'
_symmetry_Int_Tables_number	1
_symmetry_cell_setting	triclinic
loop_
_symmetry_equiv_pos_as_xyz
  x,y,z
_cell_length_a	16.625547
_cell_length_b	16.625546
_cell_length_c	18.215399
_cell_angle_alpha	90.029595
_cell_angle_beta	90.023440
_cell_angle_gamma	90.022405
loop_
_atom_site_label
_atom_site_type_symbol
_atom_site_fract_x
_atom_site_fract_y
_atom_site_fract_z
Zn1	Zn	1.232669	-0.321008	0.416190
Zn2	Zn	1.732669	0.178992	0.916190
Zn3	Zn	1.232576	-0.455849	0.293121
Zn4	Zn	1.732576	0.044151	0.793121
Zn5	Zn	1.097835	-0.321034	0.293128
Zn6	Zn	1.597835	0.178966	0.793128
Zn7	Zn	1.097802	-0.455802	0.416137
Zn8	Zn	1.597802	0.044198	0.916137
O9	O	1.165220	-0.388423	0.354644
O10	O	1.665220	0.111577	0.854644
O11	O	1.345489	-0.338904	0.399884
O12	O	1.845489	0.161096	0.899884
O13	O	1.214677	-0.437996	0.190138
O14	O	1.714677	0.062004	0.690138
O15	O	1.115774	-0.208198	0.309478
O16	O	1.615774	0.291802	0.809478
O17	O	1.345421	-0.437971	0.309465
O18	O	1.845421	0.062029	0.809465
O19	O	1.214836	-0.208179	0.399891
O20	O	1.714836	0.291821	0.899891
O21	O	1.115683	-0.338948	0.190143
O22	O	1.615683	0.161052	0.690143
O23	O	0.984998	-0.338903	0.309427
O24	O	1.484998	0.161097	0.809427
O25	O	1.115718	-0.437891	0.519128
O26	O	1.615718	0.062109	1.019128
O27	O	0.984974	-0.437916	0.399801
O28	O	1.484974	0.062084	0.899801
O29	O	1.214804	-0.338858	0.519167
O30	O	1.714804	0.161142	1.019167
O31	O	1.214645	-0.568675	0.309414
O32	O	1.714645	-0.068675	0.809414
O33	O	1.115627	-0.568641	0.399794
O34	O	1.615627	-0.068641	0.899794
C35	C	0.955730	-0.388408	0.354609
C36	C	1.455730	0.111592	0.854609
C37	C	0.866108	-0.388420	0.354612
C38	C	1.366108	0.111580	0.854612
C39	C	0.793326	-0.388422	0.354621
C40	C	1.293326	0.111578	0.854621
C41	C	0.702018	-0.388426	0.354639
C42	C	1.202018	0.111574	0.854639
C43	C	0.629241	-0.388434	0.354658
C44	C	1.129241	0.111566	0.854658
C45	C	0.537927	-0.388439	0.354676
C46	C	1.037927	0.111561	0.854676
C47	C	1.165144	-0.597914	0.354613
C48	C	1.665144	-0.097914	0.854613
C49	C	1.165185	-0.687535	0.354625
C50	C	1.665185	-0.187535	0.854625
C51	C	1.165326	-1.015711	0.354701
C52	C	1.665326	-0.515711	0.854701
C53	C	1.165284	-0.924402	0.354682
C54	C	1.665284	-0.424402	0.854682
C55	C	1.165255	-0.851626	0.354663
C56	C	1.665255	-0.351626	0.854663
C57	C	1.165215	-0.760312	0.354644
C58	C	1.665215	-0.260312	0.854644
C59	C	1.375529	-0.388440	0.354679
C60	C	1.875529	0.111560	0.854679
C61	C	1.465150	-0.388447	0.354695
C62	C	1.965150	0.111553	0.854695
C63	C	1.165268	-0.388366	0.546597
C64	C	1.665268	0.111634	1.046597
C65	C	1.165288	-0.388342	0.628396
C66	C	1.665288	0.111658	1.128396
C67	C	1.165319	-0.178114	0.354691
C68	C	1.665319	0.321886	0.854691
C69	C	1.165361	-0.088493	0.354711
C70	C	1.665361	0.411507	0.854711
C71	C	1.165220	-0.388422	0.163438
C72	C	1.665220	0.111578	0.663438
C73	C	1.165356	-0.388219	0.081639
C74	C	1.665356	0.111781	0.581639
C75	C	1.216912	-0.336706	0.893475
C76	C	1.716912	0.163294	1.393475
C77	C	1.216903	-0.336728	0.816616
C78	C	1.716903	0.163272	1.316616
C79	C	1.113729	-0.439861	0.816566
C80	C	1.613729	0.060139	1.316566
C81	C	1.113743	-0.439842	0.893423
C82	C	1.613743	0.060158	1.393423
C83	C	1.165334	-0.388260	0.931876
C84	C	1.665334	0.111740	1.431876
C85	C	1.165310	-0.388301	0.778160
C86	C	1.665310	0.111699	1.278160
C87	C	1.165299	-0.388325	0.694826
C88	C	1.665299	0.111675	1.194826
C89	C	1.165346	-0.388237	1.015215
C90	C	1.665346	0.111763	1.515215
H91	H	1.258920	-0.294704	0.924781
H92	H	1.758920	0.205296	1.424781
H93	H	1.258904	-0.294748	0.785354
H94	H	1.758904	0.205252	1.285354
H95	H	1.071741	-0.481829	0.924690
H96	H	1.571741	0.018171	1.424690
H97	H	1.071725	-0.481856	0.785248
H98	H	1.571725	0.018144	1.285248
