data_functionalizedCrystal
_audit_creation_method	'MofGen! by Chris Wilmer'
_symmetry_space_group_name_H-M	'P1'
_symmetry_Int_Tables_number	1
_symmetry_cell_setting	triclinic
loop_
_symmetry_equiv_pos_as_xyz
  x,y,z
_cell_length_a	10.654545
_cell_length_b	16.109301
_cell_length_c	9.130313
_cell_angle_alpha	90.006634
_cell_angle_beta	90.000033
_cell_angle_gamma	83.972280
loop_
_atom_site_label
_atom_site_type_symbol
_atom_site_fract_x
_atom_site_fract_y
_atom_site_fract_z
O1	O	1.666253	0.116757	0.121790
O2	O	1.300623	0.127887	0.121797
O3	O	1.493482	0.001351	0.121778
O4	O	1.473394	0.243293	0.121808
O5	O	1.493480	0.001344	-0.121821
O6	O	1.300621	0.127880	-0.121802
O7	O	1.666251	0.116751	-0.121809
Cu8	Cu	1.483436	0.122315	-0.144048
Cu9	Cu	1.483438	0.122323	0.144036
O10	O	1.473392	0.243287	-0.121790
C11	C	1.253835	0.127067	-0.000002
C12	C	1.114425	0.124625	-0.000000
C13	C	1.048935	0.123472	-0.132787
C14	C	0.917947	0.121163	-0.132787
C15	C	0.917949	0.121164	0.132798
C16	C	1.048936	0.123467	0.132796
C17	C	1.492668	-0.029632	-0.000022
C18	C	1.490228	-0.121942	-0.000024
C19	C	1.598994	-0.343569	-0.000003
C20	C	1.596692	-0.430303	0.000009
C21	C	1.367871	-0.411787	0.000008
C22	C	1.370175	-0.325054	0.000006
C23	C	1.485740	-0.290948	-0.000007
C24	C	1.481134	-0.464414	0.000007
C25	C	1.478638	-0.558455	0.000020
C26	C	1.488237	-0.196901	-0.000017
C27	C	1.713039	0.117571	-0.000007
C28	C	1.852450	0.120013	0.000001
C29	C	1.474207	0.274270	0.000013
C30	C	1.476646	0.366580	0.000025
N31	N	1.483440	0.122322	0.346658
N32	N	1.483444	0.122310	-0.346671
C33	C	1.568997	0.066403	0.423302
C34	C	1.569003	0.066398	0.576639
C35	C	1.397883	0.178235	0.576675
C36	C	1.397884	0.178242	0.423341
H37	H	0.864631	0.120224	-0.240915
H38	H	1.277943	-0.282208	0.000007
H39	H	1.102252	0.124414	-0.240918
H40	H	1.273782	-0.439567	0.000015
Br41	Br	1.137826	0.125021	0.313020
H42	H	1.693095	-0.315803	-0.000010
Br43	Br	1.685126	-0.009491	0.680653
Br44	Br	1.750402	-0.501715	0.000023
Br45	Br	0.829069	0.119567	0.313013
Br46	Br	1.685111	-0.009488	0.319238
H47	H	1.328213	0.223782	0.360933
Br48	Br	1.281773	0.254123	0.680749
