data_functionalizedCrystal
_audit_creation_method	'MofGen! by Chris Wilmer'
_symmetry_space_group_name_H-M	'P1'
_symmetry_Int_Tables_number	1
_symmetry_cell_setting	triclinic
loop_
_symmetry_equiv_pos_as_xyz
  x,y,z
_cell_length_a	12.759401
_cell_length_b	13.032721
_cell_length_c	13.034356
_cell_angle_alpha	89.133493
_cell_angle_beta	97.201094
_cell_angle_gamma	97.205831
loop_
_atom_site_label
_atom_site_type_symbol
_atom_site_fract_x
_atom_site_fract_y
_atom_site_fract_z
Zn1	Zn	1.644300	-0.335483	0.633444
Zn2	Zn	1.600243	-0.529334	0.483304
Zn3	Zn	1.443838	-0.357380	0.461493
Zn4	Zn	1.449400	-0.507423	0.655226
O5	O	1.534445	-0.432405	0.558367
O6	O	1.785477	-0.361203	0.613540
O7	O	1.558729	-0.524858	0.336498
O8	O	1.486540	-0.210555	0.466059
O9	O	1.753109	-0.503625	0.503232
O10	O	1.633819	-0.194467	0.592390
O11	O	1.443820	-0.398524	0.320474
O12	O	1.297554	-0.377278	0.487180
O13	O	1.496020	-0.466280	0.796248
O14	O	1.301641	-0.487513	0.629514
O15	O	1.639212	-0.339957	0.780245
O16	O	1.564123	-0.670348	0.524353
O17	O	1.453300	-0.654250	0.650664
C18	C	1.261476	-0.432395	0.558345
C19	C	1.144700	-0.432412	0.558363
C20	C	1.091967	-0.489925	0.632386
C21	C	0.982246	-0.489926	0.632406
C22	C	0.977998	-0.374900	0.484372
C23	C	1.087719	-0.374894	0.484357
C24	C	0.845686	-0.511428	0.758337
C25	C	0.792947	-0.568958	0.832353
C26	C	0.819593	-0.667341	0.860704
C27	C	0.898973	-0.708217	0.815027
C28	C	0.951705	-0.650694	0.741004
C29	C	0.925064	-0.552293	0.712671
C30	C	1.224279	-0.353403	0.358426
C31	C	1.277012	-0.295885	0.284397
C32	C	1.250366	-0.197501	0.256036
C33	C	1.170980	-0.156631	0.301696
C34	C	1.118247	-0.214150	0.375724
C35	C	1.144901	-0.312532	0.404087
C36	C	1.504566	-0.699613	0.592261
C37	C	1.491884	-0.813921	0.606796
C38	C	1.541126	-0.872808	0.550827
C39	C	1.528021	-0.990952	0.565848
C40	C	1.808480	-0.432416	0.558389
C41	C	1.925257	-0.432420	0.558399
C42	C	1.573151	-0.398232	0.826605
C43	C	1.589645	-0.383669	0.940912
C44	C	1.564474	-0.164151	0.524362
C45	C	1.577270	-0.049837	0.509871
C46	C	1.495959	-0.466371	0.291162
C47	C	1.479701	-0.480643	0.176819
C48	C	1.543194	-0.424635	1.117936
C49	C	1.526143	-0.439686	0.999793
H50	H	0.920652	-0.788336	0.838109
H51	H	1.412723	-0.539741	1.139766
Cl52	Cl	1.657352	-0.992650	0.418718
Cl53	Cl	1.163598	-0.562229	0.725425
H54	H	1.440028	-0.850971	0.665838
H55	H	1.476161	-1.027997	0.624894
H56	H	1.656634	-0.324574	0.977959
H57	H	1.610178	-0.365545	1.154989
Cl58	Cl	1.422726	-0.530936	0.942601
H59	H	0.931591	-0.328073	0.424118
H60	H	1.016334	-0.683974	0.703814
Cl61	Cl	1.018441	-0.162772	0.433121
H62	H	0.776645	-0.714182	0.920971
Cl63	Cl	0.693163	-0.517569	0.889778
Cl64	Cl	1.137471	-0.032949	0.266035
Cl65	Cl	0.812196	-0.387731	0.722716
H66	H	1.293304	-0.150675	0.195748
Cl67	Cl	1.376800	-0.347274	0.226981
H68	H	1.245989	-0.433513	0.381522
Cl69	Cl	1.621206	-0.815614	0.459681
