data_functionalizedCrystal
_audit_creation_method	'MofGen! by Chris Wilmer'
_symmetry_space_group_name_H-M	'P1'
_symmetry_Int_Tables_number	1
_symmetry_cell_setting	triclinic
loop_
_symmetry_equiv_pos_as_xyz
  x,y,z
_cell_length_a	12.759401
_cell_length_b	12.759399
_cell_length_c	12.759393
_cell_angle_alpha	89.972640
_cell_angle_beta	89.977968
_cell_angle_gamma	90.015072
loop_
_atom_site_label
_atom_site_type_symbol
_atom_site_fract_x
_atom_site_fract_y
_atom_site_fract_z
Zn1	Zn	-1.606265	0.418187	0.594091
Zn2	Zn	-1.606159	0.593904	0.418422
Zn3	Zn	-1.430565	0.418242	0.418421
Zn4	Zn	-1.430557	0.593827	0.594055
O5	O	-1.518386	0.506040	0.506247
O6	O	-1.753272	0.441505	0.570804
O7	O	-1.582825	0.570658	0.271401
O8	O	-1.453920	0.271214	0.441739
O9	O	-1.753194	0.570604	0.441741
O10	O	-1.583006	0.271173	0.570802
O11	O	-1.453817	0.441600	0.271400
O12	O	-1.283543	0.441525	0.441704
O13	O	-1.453906	0.570472	0.741081
O14	O	-1.283537	0.570526	0.570741
O15	O	-1.582998	0.441430	0.741107
O16	O	-1.582817	0.740915	0.441706
O17	O	-1.453803	0.740858	0.570742
C18	C	-1.245419	0.506024	0.506219
C19	C	-1.128642	0.506042	0.506232
C20	C	-1.073805	0.573314	0.573314
C21	C	-0.964081	0.573317	0.573332
C22	C	-0.964041	0.438772	0.439176
C23	C	-1.073764	0.438765	0.439164
C24	C	-0.814184	0.611013	0.697191
C25	C	-0.759343	0.678301	0.764264
C26	C	-0.794941	0.780833	0.780219
C27	C	-0.885379	0.816096	0.729086
C28	C	-0.940215	0.748812	0.662005
C29	C	-0.904618	0.646267	0.646070
C30	C	-1.223662	0.401080	0.315304
C31	C	-1.278500	0.333801	0.248217
C32	C	-1.242904	0.231268	0.232251
C33	C	-1.152462	0.196009	0.283365
C34	C	-1.097624	0.263288	0.350452
C35	C	-1.133228	0.365820	0.366420
C36	C	-1.518326	0.779007	0.506243
C37	C	-1.518396	0.895784	0.506276
C38	C	-0.792420	0.506054	0.506269
C39	C	-0.909196	0.506052	0.506261
C40	C	-1.585652	0.950640	0.439167
C41	C	-1.585721	1.060364	0.439210
C42	C	-1.451271	1.060366	0.573474
C43	C	-1.451208	0.950644	0.573436
C44	C	-1.709732	1.210242	0.401837
C45	C	-1.776978	1.265102	0.334711
C46	C	-1.793141	1.229563	0.232199
C47	C	-1.742042	1.139165	0.196791
C48	C	-1.674789	1.084310	0.263911
C49	C	-1.658646	1.119848	0.366438
C50	C	-1.327195	0.800764	0.610798
C51	C	-1.259935	0.745908	0.677913
C52	C	-1.243762	0.781445	0.780427
C53	C	-1.294841	0.871846	0.815832
C54	C	-1.362101	0.926703	0.748716
C55	C	-1.378276	0.891158	0.646203
C56	C	-1.518463	0.505936	0.780281
C57	C	-1.518495	0.505892	0.897057
C58	C	-1.518479	1.232007	0.506293
C59	C	-1.518529	1.115230	0.506358
C60	C	-1.518371	0.506067	0.233280
C61	C	-1.518542	0.505815	0.116504
C62	C	-1.585740	0.438650	1.061666
C63	C	-1.585720	0.438690	0.951942
C64	C	-1.451294	0.573065	0.951903
C65	C	-1.451320	0.573029	1.061625
C66	C	-1.709602	0.401211	0.802015
C67	C	-1.776792	0.334029	0.747174
C68	C	-1.792965	0.231504	0.782802
C69	C	-1.741934	0.196141	0.873270
C70	C	-1.674737	0.263317	0.928106
C71	C	-1.658584	0.365857	0.892479
C72	C	-1.327436	0.610497	1.211553
C73	C	-1.260233	0.677669	1.266391
C74	C	-1.244049	0.780196	1.230765
C75	C	-1.295061	0.815556	1.140294
C76	C	-1.362264	0.748384	1.085456
C77	C	-1.378450	0.645858	1.121090
H78	H	-0.914350	0.899591	0.742074
O79	O	-1.417194	1.024208	0.786909
H80	H	-1.394065	1.091826	0.737260
O81	O	-1.204839	0.648399	0.639735
H82	H	-1.227396	0.632890	0.557179
H83	H	-1.396566	1.105046	0.628151
H84	H	-1.013847	0.777523	0.620373
O85	O	-1.658132	0.891461	0.366755
H86	H	-1.640186	0.912602	0.284285
H87	H	-1.188990	0.736771	0.835071
H88	H	-0.785198	0.527520	0.684217
H89	H	-1.755200	1.110242	0.113311
O90	O	-0.735791	0.853416	0.852554
H91	H	-0.788117	0.878641	0.917310
O92	O	-1.619688	0.225190	1.025671
H93	H	-1.642869	0.274825	1.093226
O94	O	-0.661809	0.640272	0.819426
H95	H	-0.646277	0.557660	0.797083
O96	O	-1.344640	0.762439	0.500221
H97	H	-1.297806	0.690373	0.486872
O98	O	-1.759372	0.085554	0.911697
H99	H	-1.814678	0.044786	0.858374
O100	O	-1.277410	0.910185	0.926403
H101	H	-1.222069	0.856846	0.967128
O102	O	-1.692314	1.248594	0.512404
H103	H	-1.717121	1.187016	0.568665
H104	H	-1.633188	1.010709	0.235084
H105	H	-0.919346	0.383999	0.384570
H106	H	-1.640476	0.383919	1.106345
H107	H	-1.023987	0.234568	0.392080
O108	O	-1.171558	0.852652	1.289900
H109	H	-1.200947	0.862942	1.371132
H110	H	-1.287558	0.176494	0.177614
O111	O	-1.417305	0.786520	0.987884
H112	H	-1.394772	0.869104	0.972325
O113	O	-1.344893	0.499911	1.249987
H114	H	-1.400203	0.459148	1.196665
O115	O	-1.865441	0.159042	0.723664
H116	H	-1.898211	0.200857	0.654778
H117	H	-1.818341	0.362832	0.673515
H118	H	-1.123467	0.112525	0.270349
O119	O	-1.205187	0.639536	1.363961
H120	H	-1.228351	0.689181	1.431515
O121	O	-1.378779	0.645546	0.892714
H122	H	-1.390039	0.634279	0.807203
O123	O	-1.376050	0.371833	0.193086
H124	H	-1.408194	0.307828	0.143748
O125	O	-1.277613	0.926139	1.101856
H126	H	-1.222322	0.966910	1.155192
H127	H	-1.847895	1.274237	0.177546
H128	H	-1.252660	0.484568	0.328308
H129	H	-1.118484	0.628093	0.627928
H130	H	-1.818582	1.338704	0.363550
H131	H	-1.696450	0.484699	0.773005
