data_functionalizedCrystal
_audit_creation_method	'MofGen! by Chris Wilmer'
_symmetry_space_group_name_H-M	'P1'
_symmetry_Int_Tables_number	1
_symmetry_cell_setting	triclinic
loop_
_symmetry_equiv_pos_as_xyz
  x,y,z
_cell_length_a	16.120530
_cell_length_b	16.120444
_cell_length_c	10.685986
_cell_angle_alpha	88.261534
_cell_angle_beta	91.231987
_cell_angle_gamma	90.168401
loop_
_atom_site_label
_atom_site_type_symbol
_atom_site_fract_x
_atom_site_fract_y
_atom_site_fract_z
Zn1	Zn	1.214549	-0.351248	-0.833525
Zn2	Zn	1.464549	-0.101248	-0.583525
Zn3	Zn	1.714549	0.148752	-0.333525
Zn4	Zn	1.964549	0.398752	-0.083525
Zn5	Zn	1.216937	-0.500918	-0.634174
Zn6	Zn	1.466937	-0.250918	-0.384174
Zn7	Zn	1.716937	-0.000918	-0.134174
Zn8	Zn	1.966937	0.249082	0.115826
Zn9	Zn	1.086048	-0.355949	-0.613045
Zn10	Zn	1.336048	-0.105949	-0.363045
Zn11	Zn	1.586048	0.144051	-0.113045
Zn12	Zn	1.836048	0.394051	0.136955
Zn13	Zn	1.068454	-0.483263	-0.832382
Zn14	Zn	1.318454	-0.233263	-0.582382
Zn15	Zn	1.568454	0.016737	-0.332382
Zn16	Zn	1.818454	0.266737	-0.082382
O17	O	1.146497	-0.422845	-0.728282
O18	O	1.396497	-0.172845	-0.478282
O19	O	1.646497	0.077155	-0.228282
O20	O	1.896497	0.327155	0.021718
O21	O	1.330785	-0.376524	-0.816402
O22	O	1.580785	-0.126524	-0.566402
O23	O	1.830785	0.123476	-0.316402
O24	O	2.080785	0.373476	-0.066402
O25	O	1.207936	-0.491044	-0.456150
O26	O	1.457936	-0.241044	-0.206150
O27	O	1.707936	0.008956	0.043850
O28	O	1.957936	0.258956	0.293850
O29	O	1.109457	-0.239407	-0.633928
O30	O	1.359457	0.010593	-0.383928
O31	O	1.609457	0.260593	-0.133928
O32	O	1.859457	0.510593	0.116072
O33	O	1.332539	-0.486485	-0.669940
O34	O	1.582539	-0.236485	-0.419940
O35	O	1.832539	0.013515	-0.169940
O36	O	2.082539	0.263515	0.080060
O37	O	1.203867	-0.235954	-0.795914
O38	O	1.453867	0.014046	-0.545914
O39	O	1.703867	0.264046	-0.295914
O40	O	1.953867	0.514046	-0.045914
O41	O	1.111773	-0.384536	-0.440626
O42	O	1.361773	-0.134536	-0.190626
O43	O	1.611773	0.115464	0.059374
O44	O	1.861773	0.365464	0.309374
O45	O	0.967795	-0.367416	-0.632820
O46	O	1.217795	-0.117416	-0.382820
O47	O	1.467795	0.132584	-0.132820
O48	O	1.717795	0.382584	0.117180
O49	O	1.079471	-0.456395	-1.007755
O50	O	1.329471	-0.206395	-0.757755
O51	O	1.579471	0.043605	-0.507755
O52	O	1.829471	0.293605	-0.257755
O53	O	0.954869	-0.460953	-0.793965
O54	O	1.204869	-0.210953	-0.543965
O55	O	1.454869	0.039047	-0.293965
O56	O	1.704869	0.289047	-0.043965
O57	O	1.186807	-0.359404	-1.008595
O58	O	1.436807	-0.109404	-0.758595
O59	O	1.686807	0.140596	-0.508595
O60	O	1.936807	0.390596	-0.258595
O61	O	1.190876	-0.614494	-0.668831
O62	O	1.440876	-0.364494	-0.418831
O63	O	1.690876	-0.114494	-0.168831
O64	O	1.940876	0.135506	0.081169
O65	O	1.081786	-0.601523	-0.814453
O66	O	1.331786	-0.351523	-0.564453
O67	O	1.581786	-0.101523	-0.314453
O68	O	1.831786	0.148477	-0.064453
C69	C	0.931275	-0.412779	-0.710976
C70	C	1.181275	-0.162779	-0.460976
C71	C	1.431275	0.087221	-0.210976
C72	C	1.681275	0.337221	0.039024
C73	C	0.839200	-0.408492	-0.703604
C74	C	1.089200	-0.158492	-0.453604
C75	C	1.339200	0.091508	-0.203604
C76	C	1.589200	0.341508	0.046396
C77	C	0.670617	-0.400644	-0.690154
C78	C	0.920617	-0.150644	-0.440154
C79	C	1.170617	0.099356	-0.190154
C80	C	1.420617	0.349356	0.059846
C81	C	0.623209	-0.445101	-0.766505
C82	C	0.873209	-0.195101	-0.516505
C83	C	1.123209	0.054899	-0.266505
C84	C	1.373209	0.304899	-0.016505
C85	C	0.529404	-0.440735	-0.759021
C86	C	0.779404	-0.190735	-0.509021
C87	C	1.029404	0.059265	-0.259021
C88	C	1.279404	0.309265	-0.009021
C89	C	0.764431	-0.405010	-0.697636
C90	C	1.014431	-0.155010	-0.447636
C91	C	1.264431	0.094990	-0.197636
C92	C	1.514431	0.344990	0.052364
C93	C	1.134702	-0.638065	-0.743840
C94	C	1.384702	-0.388065	-0.493840
C95	C	1.634702	-0.138065	-0.243840
C96	C	1.884702	0.111935	0.006160
C97	C	1.129730	-0.730138	-0.750544
C98	C	1.379730	-0.480138	-0.500544
C99	C	1.629730	-0.230138	-0.250544
C100	C	1.879730	0.019862	-0.000544
C101	C	1.172479	-0.946132	-0.693791
C102	C	1.422479	-0.696132	-0.443791
C103	C	1.672479	-0.446132	-0.193791
C104	C	1.922479	-0.196132	0.056209
C105	C	1.120668	-0.898713	-0.762798
C106	C	1.370668	-0.648713	-0.512798
C107	C	1.620668	-0.398713	-0.262798
C108	C	1.870668	-0.148713	-0.012798
C109	C	1.125712	-0.804909	-0.755978
C110	C	1.375712	-0.554909	-0.505978
C111	C	1.625712	-0.304909	-0.255978
C112	C	1.875712	-0.054909	-0.005978
C113	C	1.167436	-1.039944	-0.700609
C114	C	1.417436	-0.789944	-0.450609
C115	C	1.667436	-0.539944	-0.200609
C116	C	1.917436	-0.289944	0.049391
C117	C	1.362559	-0.432950	-0.745655
C118	C	1.612559	-0.182950	-0.495655
C119	C	1.862559	0.067050	-0.245655
C120	C	2.112559	0.317050	0.004345
C121	C	1.454632	-0.437256	-0.753059
C122	C	1.704632	-0.187256	-0.503059
C123	C	1.954632	0.062744	-0.253059
C124	C	2.204632	0.312744	-0.003059
C125	C	1.130910	-0.405406	-1.054879
C126	C	1.380910	-0.155406	-0.804879
C127	C	1.630910	0.094594	-0.554879
C128	C	1.880910	0.344594	-0.304879
C129	C	1.124268	-0.397974	-1.194055
C130	C	1.374268	-0.147974	-0.944055
C131	C	1.624268	0.102026	-0.694055
C132	C	1.874268	0.352026	-0.444055
C133	C	1.158358	-0.206784	-0.712692
C134	C	1.408358	0.043216	-0.462692
C135	C	1.658358	0.293216	-0.212692
C136	C	1.908358	0.543216	0.037308
C137	C	1.163413	-0.114711	-0.706048
C138	C	1.413413	0.135289	-0.456048
C139	C	1.663413	0.385289	-0.206048
C140	C	1.913413	0.635289	0.043952
C141	C	1.162074	-0.440158	-0.402955
C142	C	1.412074	-0.190158	-0.152955
C143	C	1.662074	0.059842	0.097045
C144	C	1.912074	0.309842	0.347045
C145	C	1.168889	-0.447363	-0.263775
C146	C	1.418889	-0.197363	-0.013775
C147	C	1.668889	0.052637	0.236225
C148	C	1.918889	0.302637	0.486225
H149	H	0.653073	-0.486440	-0.837493
H150	H	0.903073	-0.236440	-0.587493
H151	H	1.153073	0.013560	-0.337493
H152	H	1.403073	0.263560	-0.087493
H153	H	1.080989	-0.350006	-1.240838
H154	H	1.330989	-0.100006	-0.990838
H155	H	1.580989	0.149994	-0.740838
H156	H	1.830989	0.399994	-0.490838
H157	H	1.220620	-0.916284	-0.629593
H158	H	1.470620	-0.666284	-0.379593
H159	H	1.720620	-0.416284	-0.129593
H160	H	1.970620	-0.166284	0.120407
H161	H	0.640755	-0.359308	-0.619173
H162	H	0.890755	-0.109308	-0.369173
H163	H	1.140755	0.140692	-0.119173
H164	H	1.390755	0.390692	0.130827
N165	N	1.223198	-0.507528	-1.205071
N166	N	1.473198	-0.257528	-0.955071
N167	N	1.723198	-0.007528	-0.705071
N168	N	1.973198	0.242472	-0.455071
N169	N	1.228705	-0.513675	-1.088303
N170	N	1.478705	-0.263675	-0.838303
N171	N	1.728705	-0.013675	-0.588303
N172	N	1.978705	0.236325	-0.338303
H173	H	1.267062	-0.556164	-1.046841
H174	H	1.517062	-0.306164	-0.796841
H175	H	1.767062	-0.056164	-0.546841
H176	H	2.017062	0.193836	-0.296841
H177	H	1.072522	-0.928564	-0.826999
H178	H	1.322522	-0.678564	-0.576999
H179	H	1.572522	-0.428564	-0.326999
H180	H	1.822522	-0.178564	-0.076999
