data_functionalizedCrystal
_audit_creation_method	'MofGen! by Chris Wilmer'
_symmetry_space_group_name_H-M	'P1'
_symmetry_Int_Tables_number	1
_symmetry_cell_setting	triclinic
loop_
_symmetry_equiv_pos_as_xyz
  x,y,z
_cell_length_a	9.065218
_cell_length_b	13.101039
_cell_length_c	9.065218
_cell_angle_alpha	93.413922
_cell_angle_beta	85.015919
_cell_angle_gamma	86.590257
loop_
_atom_site_label
_atom_site_type_symbol
_atom_site_fract_x
_atom_site_fract_y
_atom_site_fract_z
O1	O	-1.968414	0.085263	-0.208318
O2	O	-1.635081	0.418596	0.125015
O3	O	-1.301748	0.751930	0.458349
O4	O	-1.539129	0.085253	-0.226065
O5	O	-1.205795	0.418586	0.107268
O6	O	-0.872462	0.751920	0.440602
O7	O	-1.762645	0.085256	-0.002549
O8	O	-1.429311	0.418589	0.330784
O9	O	-1.095978	0.751923	0.664117
O10	O	-1.744898	0.085260	-0.431834
O11	O	-1.411565	0.418593	-0.098500
O12	O	-1.078232	0.751927	0.234833
O13	O	-1.746608	-0.085174	-0.018613
O14	O	-1.413275	0.248159	0.314720
O15	O	-1.079941	0.581493	0.648054
O16	O	-1.523092	-0.085177	-0.242129
O17	O	-1.189759	0.248156	0.091204
O18	O	-0.856425	0.581490	0.424538
O19	O	-1.952378	-0.085167	-0.224382
O20	O	-1.619044	0.248166	0.108952
O21	O	-1.285711	0.581499	0.442285
Zn22	Zn	-1.735189	-0.112232	-0.235806
Zn23	Zn	-1.401855	0.221102	0.097527
Zn24	Zn	-1.068522	0.554435	0.430861
Zn25	Zn	-1.756318	0.112317	-0.214641
Zn26	Zn	-1.422984	0.445651	0.118692
Zn27	Zn	-1.089651	0.778984	0.452026
O28	O	-1.728862	-0.085170	-0.447898
O29	O	-1.395528	0.248163	-0.114564
O30	O	-1.062195	0.581496	0.218769
C31	C	-1.476124	0.000037	-0.232392
C32	C	-1.142790	0.333370	0.100942
C33	C	-0.809457	0.666703	0.434275
C34	C	-1.312280	0.000033	-0.227292
C35	C	-0.978947	0.333366	0.106041
C36	C	-0.645614	0.666700	0.439375
N37	N	-1.720780	-0.265480	-0.250250
N38	N	-1.387446	0.067853	0.083084
N39	N	-1.054113	0.401186	0.416417
C40	C	-1.701175	-0.474523	-0.269914
C41	C	-1.367842	-0.141190	0.063419
C42	C	-1.034509	0.192144	0.396752
C43	C	-1.790338	-0.525398	-0.180526
C44	C	-1.457004	-0.192064	0.152807
C45	C	-1.123671	0.141269	0.486141
C46	C	-1.779430	-0.641716	-0.191468
C47	C	-1.446097	-0.308383	0.141866
C48	C	-1.112763	0.024950	0.475199
C49	C	-1.712081	-0.358194	-0.258974
C50	C	-1.378748	-0.024861	0.074359
C51	C	-1.045415	0.308473	0.407692
C52	C	-1.015382	0.000045	-0.218056
C53	C	-0.682049	0.333378	0.115278
C54	C	-0.348716	0.666712	0.448611
C55	C	-1.179225	0.000036	-0.223156
C56	C	-0.845891	0.333370	0.110178
C57	C	-0.512558	0.666703	0.443511
C58	C	-1.752921	0.000043	0.044406
C59	C	-1.419588	0.333376	0.377739
C60	C	-1.086254	0.666709	0.711072
C61	C	-1.747822	0.000047	0.208249
C62	C	-1.414488	0.333381	0.541582
C63	C	-1.081155	0.666714	0.874916
N64	N	-1.770738	0.265566	-0.200186
N65	N	-1.437405	0.598899	0.133148
N66	N	-1.104072	0.932233	0.466481
C67	C	-1.738586	0.000045	-0.494852
C68	C	-1.405252	0.333379	-0.161519
C69	C	-1.071919	0.666712	0.171814
C70	C	-1.743686	0.000047	-0.658695
C71	C	-1.410352	0.333381	-0.325362
C72	C	-1.077019	0.666714	0.007972
H73	H	-1.874865	-0.481594	-0.095782
H74	H	-1.541532	-0.148261	0.237552
H75	H	-1.208199	0.185073	0.570885
H76	H	-1.616655	-0.518321	-0.354655
H77	H	-1.283322	-0.184988	-0.021322
H78	H	-0.949989	0.148345	0.312012
