data_functionalizedCrystal
_audit_creation_method	'MofGen! by Chris Wilmer'
_symmetry_space_group_name_H-M	'P1'
_symmetry_Int_Tables_number	1
_symmetry_cell_setting	triclinic
loop_
_symmetry_equiv_pos_as_xyz
  x,y,z
_cell_length_a	23.096457
_cell_length_b	23.096457
_cell_length_c	20.919320
_cell_angle_alpha	57.442716
_cell_angle_beta	89.996245
_cell_angle_gamma	59.998679
loop_
_atom_site_label
_atom_site_type_symbol
_atom_site_fract_x
_atom_site_fract_y
_atom_site_fract_z
Zr1	Zr	0.554714	0.639876	-0.087405
O2	O	0.458522	0.768161	-0.193767
O3	O	0.584200	0.516792	-0.054804
O4	O	0.579310	0.647373	-0.193776
O5	O	0.467272	0.629853	0.054834
O6	O	0.674592	0.647370	-0.193778
O7	O	0.463412	0.637580	-0.054795
O8	O	0.683340	0.413786	0.054818
O9	O	0.458525	0.863438	-0.193763
O10	O	0.667886	0.565491	-0.040896
O11	O	0.599659	0.559726	0.040920
O12	O	0.593902	0.713468	-0.122702
O13	O	0.525674	0.707703	-0.040886
Zr14	Zr	0.712835	0.627550	0.087436
Zr15	Zr	0.706679	0.639873	-0.087409
Zr16	Zr	0.560871	0.627553	0.087440
Zr17	Zr	0.554719	0.791833	-0.087398
Zr18	Zr	0.712831	0.475593	0.087428
O19	O	0.683349	0.750634	0.054834
O20	O	0.674596	0.768156	-0.193772
O21	O	0.467276	0.750639	0.054840
O22	O	0.809027	0.499265	0.193798
O23	O	0.800274	0.516787	-0.054809
O24	O	0.592954	0.499270	0.193803
O25	O	0.800277	0.637573	-0.054803
O26	O	0.688239	0.620054	0.193807
O27	O	0.592957	0.620056	0.193809
O28	O	0.804137	0.629846	0.054825
O29	O	0.579316	0.863436	-0.193766
O30	O	0.688234	0.403990	0.193796
O31	O	0.809025	0.403988	0.193793
O32	O	0.804131	0.413783	0.054815
O33	O	0.463418	0.853643	-0.054784
O34	O	0.584209	0.853640	-0.054787
O35	O	0.673648	0.553958	0.122733
O36	O	0.741875	0.559723	0.040917
O37	O	0.667890	0.707700	-0.040889
O38	O	0.599663	0.701935	0.040927
C39	C	0.633770	0.443638	0.000006
C40	C	0.633768	0.379129	0.000003
C41	C	0.669377	0.351837	-0.042707
C42	C	0.669384	0.291214	-0.042701
C43	C	0.633768	0.257898	0.000005
C44	C	0.598158	0.285193	0.042725
C45	C	0.598158	0.345808	0.042724
N46	N	0.573154	0.195921	-0.005915
N47	N	0.573155	0.138340	-0.005918
C48	C	0.633767	0.075265	0.000013
N49	N	0.694377	0.071954	0.005932
N50	N	0.694374	0.129543	0.005931
C51	C	0.633765	0.192170	0.000012
C52	C	0.669388	-0.017761	-0.042692
C53	C	0.669397	-0.078389	-0.042680
C54	C	0.598164	-0.084403	0.042740
C55	C	0.598161	-0.023783	0.042733
C56	C	0.633771	0.009538	0.000012
C57	C	0.443691	0.633717	0.000020
C58	C	0.379178	0.633719	0.000022
C59	C	0.346748	0.637982	-0.060378
C60	C	0.286136	0.637974	-0.060378
C61	C	0.257947	0.633721	0.000016
C62	C	0.290387	0.629452	0.060425
C63	C	0.351002	0.629451	0.060428
N64	N	0.140240	0.678787	0.018302
N65	N	0.082657	0.678790	0.018294
C66	C	0.075318	0.633721	0.000012
N67	N	0.127731	0.588661	-0.018279
N68	N	0.185318	0.588662	-0.018275
C69	C	0.192221	0.633721	0.000020
C70	C	-0.022834	0.637975	-0.060391
C71	C	-0.083445	0.637962	-0.060385
C72	C	-0.079197	0.629449	0.060414
C73	C	-0.018583	0.629454	0.060412
C74	C	0.009593	0.633721	0.000005
C75	C	0.823859	0.633709	0.000011
C76	C	0.888372	0.633707	0.000009
C77	C	0.626074	0.649127	-0.218689
C78	C	0.623460	0.654359	-0.292915
C79	C	0.633780	0.823788	0.000025
C80	C	0.633782	0.888298	0.000028
C81	C	0.606699	0.687849	-0.714881
C82	C	0.609160	0.682927	-0.645134
C83	C	0.649015	0.603222	-0.567561
C84	C	0.686405	0.528435	-0.559736
C85	C	0.683940	0.533358	-0.629482
C86	C	0.658386	0.584494	-0.354836
C87	C	0.660850	0.579577	-0.285088
C88	C	0.583603	0.734070	-0.370491
C89	C	0.581145	0.738986	-0.440235
C90	C	0.618533	0.664198	-0.432404
C91	C	0.651532	0.598189	-0.496267
C92	C	0.616010	0.669232	-0.503697
C93	C	0.641475	0.618299	0.218719
C94	C	0.644089	0.613067	0.292946
C95	C	0.823854	0.443634	0.000001
C96	C	0.888365	0.379123	-0.000003
C97	C	0.641470	0.428224	0.218710
C98	C	0.644082	0.358483	0.292933
C99	C	0.831554	0.428220	0.218706
C100	C	0.898679	0.358477	0.292927
C101	C	0.435995	0.839206	-0.218675
C102	C	0.368871	0.908949	-0.292896
C103	C	0.443696	0.823792	0.000029
C104	C	0.379185	0.888303	0.000034
C105	C	0.626079	0.839202	-0.218680
C106	C	0.623467	0.908943	-0.292903
C107	C	0.880038	0.351839	-0.042718
C108	C	0.940647	0.291234	-0.042739
C109	C	1.009581	0.257909	-0.000040
C110	C	1.017907	0.285198	0.042677
C111	C	0.957298	0.345807	0.042692
C112	C	0.683930	0.322720	0.370502
C113	C	0.686382	0.257199	0.440249
C114	C	0.648989	0.227438	0.432426
C115	C	0.609136	0.263207	0.354849
C116	C	0.606681	0.328731	0.285104
C117	C	0.965822	0.328735	0.285075
C118	C	1.028898	0.263213	0.354807
C119	C	1.024830	0.227431	0.432391
C120	C	0.957680	0.257180	0.440241
C121	C	0.894605	0.322704	0.370510
C122	C	0.301728	0.938699	-0.285044
C123	C	0.238652	1.004239	-0.354777
C124	C	0.242720	1.040024	-0.432360
C125	C	0.309870	1.010272	-0.440211
C126	C	0.372944	0.944737	-0.370479
C127	C	0.387511	0.915594	0.042742
C128	C	0.326902	0.976217	0.042743
C129	C	0.257967	1.009545	0.000041
C130	C	0.249642	0.982252	-0.042672
C131	C	0.310250	0.921634	-0.042678
C132	C	0.660868	0.938684	-0.285053
C133	C	0.658428	1.004204	-0.354787
C134	C	0.618583	1.039987	-0.432369
C135	C	0.581181	1.010241	-0.440217
C136	C	0.583625	0.944717	-0.370484
H137	H	0.698382	0.268989	-0.077481
H138	H	0.964088	0.368013	0.077481
H139	H	0.553163	0.794957	-0.376858
H140	H	0.650994	0.174083	0.489224
H141	H	0.698375	0.378963	-0.077491
H142	H	0.693304	0.514668	-0.221923
H143	H	0.583557	0.734127	-0.566859
H144	H	0.193507	1.009396	-0.077438
H145	H	1.074041	0.258056	0.077441
H146	H	0.688832	0.523597	-0.348449
H147	H	0.548739	1.039385	-0.503394
H148	H	0.191355	1.093386	-0.489133
H149	H	0.616598	1.093341	-0.489144
H150	H	0.578715	0.743823	-0.651514
H151	H	0.969148	0.357859	0.221909
H152	H	0.553165	0.920510	-0.376887
H153	H	0.839937	0.346912	0.376914
H154	H	0.578692	0.238965	0.348491
H155	H	0.007820	0.625987	0.109592
H156	H	0.298402	0.909566	-0.221878
H157	H	0.183982	1.028453	-0.348369
H158	H	0.718852	0.463537	-0.496570
H159	H	0.693315	0.909559	-0.221888
H160	H	0.954378	0.228037	0.503419
H161	H	0.548693	0.803890	-0.503395
H162	H	0.574234	0.357841	0.221946
H163	H	0.698399	-0.100614	-0.077456
H164	H	0.313173	1.039416	-0.503387
H165	H	0.369689	0.641453	-0.109563
H166	H	0.823913	0.378973	-0.077499
H167	H	0.427613	0.920515	-0.376882
H168	H	1.083568	0.238999	0.348401
H169	H	0.569160	0.258062	0.077497
H170	H	0.303461	0.899416	-0.077453
H171	H	0.688885	1.028417	-0.348381
H172	H	0.714381	0.346945	0.376888
H173	H	0.569159	0.368029	0.077504
H174	H	0.698386	0.009367	-0.077475
H175	H	0.714385	0.472462	-0.623105
H176	H	0.259727	0.641445	-0.109563
H177	H	0.000110	0.641446	-0.109576
H178	H	1.076195	0.174077	0.489164
H179	H	0.443636	0.888463	0.077520
H180	H	0.333695	0.998428	0.077528
H181	H	1.058926	0.208557	-0.000058
H182	H	0.933854	0.269022	-0.077523
H183	H	0.208622	1.058903	0.000053
H184	H	0.569161	-0.001559	0.077509
H185	H	0.569164	-0.111529	0.077512
H186	H	0.267434	0.625987	0.109600
H187	H	0.377407	0.625980	0.109614
H188	H	-0.109847	0.641428	-0.109568
H189	H	-0.102145	0.625981	0.109590
H190	H	0.718837	0.228084	0.503409
H191	H	0.683984	0.533293	-0.433100
H192	H	0.574248	0.752754	-0.778041
