data_functionalizedCrystal
_audit_creation_method	'MofGen! by Chris Wilmer'
_symmetry_space_group_name_H-M	'P1'
_symmetry_Int_Tables_number	1
_symmetry_cell_setting	triclinic
loop_
_symmetry_equiv_pos_as_xyz
  x,y,z
_cell_length_a	14.519709
_cell_length_b	9.482900
_cell_length_c	11.026607
_cell_angle_alpha	101.400185
_cell_angle_beta	96.133081
_cell_angle_gamma	80.698649
loop_
_atom_site_label
_atom_site_type_symbol
_atom_site_fract_x
_atom_site_fract_y
_atom_site_fract_z
O1	O	1.261291	-0.120696	0.140186
O2	O	0.995906	-0.120740	0.158920
O3	O	1.106603	-0.120716	-0.027148
O4	O	1.150594	-0.120720	0.326254
O5	O	1.084143	0.121071	0.010799
O6	O	0.973446	0.121048	0.196866
O7	O	1.238831	0.121091	0.178133
Cu8	Cu	1.104088	0.143147	0.190964
Cu9	Cu	1.130649	-0.142795	0.146088
O10	O	1.128134	0.121068	0.364200
C11	C	0.950173	0.000148	0.177018
C12	C	0.847362	0.000132	0.174399
N13	N	1.085413	0.344263	0.222527
N14	N	1.149330	-0.343911	0.114516
C15	C	0.470873	0.000198	0.164774
C16	C	0.575623	0.000179	0.167447
C17	C	0.659114	0.000163	0.169586
C18	C	0.763871	0.000147	0.172260
C19	C	1.284565	0.000200	0.160033
C20	C	1.387377	0.000207	0.162652
C21	C	1.087258	0.000174	-0.053403
C22	C	1.063067	0.000165	-0.188171
C23	C	1.125134	0.416471	0.155391
C24	C	1.109604	0.583885	0.181661
C25	C	1.129865	0.000174	-0.261831
C26	C	1.104864	0.000165	-0.401121
C27	C	1.147479	0.000174	0.390455
C28	C	1.171672	0.000174	0.525222
H29	H	1.170633	0.354352	0.078461
H30	H	1.247386	0.000077	-0.434745
O31	O	1.209602	0.573827	0.012600
H32	H	1.269424	0.504475	0.052817
O33	O	1.049327	0.666145	0.283572
H34	H	1.046595	0.784729	0.288222
H35	H	1.039905	0.406383	0.299448
O36	O	1.230141	0.000192	-0.208789
H37	H	1.234041	0.000205	-0.107707
O38	O	1.004584	0.000143	-0.454161
H39	H	0.960609	0.098683	-0.407602
O40	O	0.962790	0.000158	-0.241211
H41	H	0.958887	0.000168	-0.342289
