data_functionalizedCrystal
_audit_creation_method	'MofGen! by Chris Wilmer'
_symmetry_space_group_name_H-M	'P1'
_symmetry_Int_Tables_number	1
_symmetry_cell_setting	triclinic
loop_
_symmetry_equiv_pos_as_xyz
  x,y,z
_cell_length_a	16.625547
_cell_length_b	25.639240
_cell_length_c	25.639243
_cell_angle_alpha	90.013927
_cell_angle_beta	90.010627
_cell_angle_gamma	90.032694
loop_
_atom_site_label
_atom_site_type_symbol
_atom_site_fract_x
_atom_site_fract_y
_atom_site_fract_z
Zn1	Zn	1.232510	-0.208277	0.295653
Zn2	Zn	1.232422	-0.295678	0.208206
Zn3	Zn	1.097705	-0.208258	0.208224
Zn4	Zn	1.097618	-0.295683	0.295603
O5	O	1.165064	-0.251974	0.251921
O6	O	1.345331	-0.219877	0.284066
O7	O	1.214552	-0.284071	0.135043
O8	O	1.115660	-0.135095	0.219850
O9	O	1.345266	-0.284090	0.219820
O10	O	1.214701	-0.135109	0.284083
O11	O	1.115575	-0.219844	0.135056
O12	O	0.984861	-0.219849	0.219801
O13	O	1.115512	-0.284099	0.368775
O14	O	0.984797	-0.284081	0.283999
O15	O	1.214616	-0.219882	0.368811
O16	O	1.214467	-0.368844	0.219771
O17	O	1.115427	-0.368848	0.283981
C18	C	0.955573	-0.251964	0.251897
C19	C	0.865952	-0.251972	0.251899
C20	C	0.793169	-0.251973	0.251905
C21	C	0.701861	-0.251976	0.251918
C22	C	0.629084	-0.251981	0.251931
C23	C	0.537770	-0.251984	0.251944
C24	C	1.164950	-0.387817	0.251881
C25	C	1.164975	-0.445931	0.251880
C26	C	1.216660	-0.806263	0.285428
C27	C	1.216683	-0.860867	0.285439
O28	O	1.260492	-0.889077	0.313920
N29	N	1.165176	-0.888213	0.251972
C30	C	1.113635	-0.860952	0.218496
O31	O	1.069825	-0.889226	0.190031
C32	C	1.113608	-0.806349	0.218488
C33	C	1.165125	-0.779005	0.251954
C34	C	1.268172	-0.778919	0.318891
C35	C	1.268149	-0.724319	0.318880
C36	C	1.216614	-0.697062	0.285405
C37	C	1.165102	-0.724405	0.251942
C38	C	1.062063	-0.779089	0.185016
C39	C	1.062040	-0.724482	0.185011
C40	C	1.113557	-0.697139	0.218476
C41	C	1.113544	-0.642547	0.218456
N42	N	1.165051	-0.615201	0.251923
C43	C	1.216587	-0.642458	0.285398
C44	C	1.113695	-0.975623	0.218515
C45	C	1.113726	-1.030225	0.218520
C46	C	1.216773	-1.030136	0.285463
C47	C	1.216746	-0.975533	0.285456
C48	C	1.165203	-0.948277	0.251982
C49	C	1.216535	-0.527793	0.285371
C50	C	1.216510	-0.473188	0.285355
C51	C	1.113459	-0.473282	0.218413
C52	C	1.113487	-0.527882	0.218427
C53	C	1.165028	-0.555137	0.251910
O54	O	1.069755	-0.614302	0.189991
O55	O	1.260382	-0.614178	0.313863
C56	C	1.375373	-0.251985	0.251947
C57	C	1.464994	-0.251989	0.251957
C58	C	1.165064	-0.251993	0.388294
C59	C	1.165064	-0.252002	0.446408
C60	C	1.165200	-0.115601	0.251974
C61	C	1.165258	-0.057487	0.251996
C62	C	1.216665	-0.218540	0.806796
C63	C	1.216665	-0.218537	0.861401
O64	O	1.260525	-0.190090	0.889658
N65	N	1.165069	-0.251972	0.888691
C66	C	1.113465	-0.285408	0.861374
O67	O	1.069579	-0.313846	0.889601
C68	C	1.113462	-0.285408	0.806771
C69	C	1.165067	-0.251975	0.779483
C70	C	1.268265	-0.185109	0.779509
C71	C	1.268266	-0.185113	0.724908
C72	C	1.216668	-0.218548	0.697595
C73	C	1.165068	-0.251979	0.724883
C74	C	1.061854	-0.318841	0.779455
C75	C	1.061855	-0.318838	0.724848
C76	C	1.113460	-0.285405	0.697561
C77	C	1.113471	-0.285417	0.642969
N78	N	1.165066	-0.251982	0.615679
C79	C	1.216664	-0.218548	0.642992
C80	C	1.113475	-0.285405	0.976045
C81	C	1.113481	-0.285408	1.030647
C82	C	1.216680	-0.218536	1.030670
C83	C	1.216677	-0.218536	0.976066
C84	C	1.165070	-0.251970	0.948754
C85	C	1.216664	-0.218559	0.528327
C86	C	1.216663	-0.218567	0.473721
C87	C	1.113461	-0.285437	0.473704
C88	C	1.113465	-0.285430	0.528304
C89	C	1.165069	-0.251987	0.555614
O90	O	1.069630	-0.313848	0.614677
O91	O	1.260536	-0.190110	0.614759
C92	C	1.165062	-0.251970	1.116079
C93	C	1.165077	-0.251971	1.057965
H94	H	1.258464	-0.450926	0.312606
H95	H	1.071469	-0.312638	1.052860
C96	C	1.273435	-0.181754	1.060724
N97	N	1.316179	-0.154050	1.083363
H98	H	1.071449	-0.312634	0.953811
H99	H	1.019832	-0.346066	0.801663
H100	H	1.258697	-0.191311	0.953852
C101	C	1.057059	-1.060297	0.181701
N102	N	1.014372	-1.082945	0.153971
H103	H	1.258682	-0.191324	0.550556
C104	C	1.056821	-0.557961	0.181611
N105	N	1.014133	-0.580612	0.153884
C106	C	1.005384	-0.809155	0.148204
N107	N	0.962687	-0.831799	0.120477
H108	H	1.310138	-0.801106	0.346153
H109	H	1.258695	-0.953273	0.312706
C110	C	1.005338	-0.694504	0.148186
N111	N	0.962631	-0.671925	0.120447
C112	C	1.056770	-0.443288	0.181595
N113	N	1.014066	-0.420696	0.153867
H114	H	1.310286	-0.157887	0.702695
H115	H	1.071454	-0.312660	0.451456
C116	C	1.273458	-1.060129	0.322290
N117	N	1.316149	-1.082722	0.350027
C118	C	1.056992	-0.945646	0.181687
N119	N	1.014282	-0.923070	0.153949
C120	C	1.273430	-0.181784	0.443708
N121	N	1.316184	-0.154078	0.421104
C122	C	1.325035	-0.148327	0.809544
N123	N	1.367803	-0.120623	0.832163
H124	H	1.019821	-0.346059	0.702614
H125	H	1.258499	-0.549977	0.312639
C126	C	1.324825	-0.694248	0.355693
N127	N	1.367517	-0.671602	0.383422
H128	H	1.071452	-0.312659	0.550523
