data_functionalizedCrystal
_audit_creation_method	'MofGen! by Chris Wilmer'
_symmetry_space_group_name_H-M	'P1'
_symmetry_Int_Tables_number	1
_symmetry_cell_setting	triclinic
loop_
_symmetry_equiv_pos_as_xyz
  x,y,z
_cell_length_a	16.959454
_cell_length_b	15.297475
_cell_length_c	15.299448
_cell_angle_alpha	110.793752
_cell_angle_beta	80.301748
_cell_angle_gamma	99.676721
loop_
_atom_site_label
_atom_site_type_symbol
_atom_site_fract_x
_atom_site_fract_y
_atom_site_fract_z
Zn1	Zn	-0.427425	-1.512869	-0.771526
Zn2	Zn	-0.579092	-1.485835	-0.615999
Zn3	Zn	-0.427401	-1.330417	-0.589153
Zn4	Zn	-0.540024	-1.357310	-0.744610
O5	O	-0.493486	-1.421607	-0.680322
O6	O	-0.463904	-1.639427	-0.773394
O7	O	-0.575311	-1.442650	-0.482290
O8	O	-0.316798	-1.354678	-0.613374
O9	O	-0.575333	-1.619566	-0.659129
O10	O	-0.316815	-1.488725	-0.747363
O11	O	-0.463864	-1.328465	-0.462566
O12	O	-0.425981	-1.203839	-0.587275
O13	O	-0.508747	-1.400514	-0.878329
O14	O	-0.508724	-1.223598	-0.701489
O15	O	-0.426021	-1.514802	-0.898103
O16	O	-0.684516	-1.468727	-0.633030
O17	O	-0.655813	-1.374300	-0.727521
C18	C	-0.463111	-1.179973	-0.638548
C19	C	-0.450133	-1.076605	-0.620700
C20	C	-0.698844	-1.421527	-0.680293
C21	C	-0.786704	-1.421583	-0.680326
C22	C	-0.463029	-1.463673	-0.922906
C23	C	-0.450050	-1.481599	-1.026280
C24	C	-1.143280	-1.372525	-0.729531
C25	C	-1.173109	-1.470966	-0.631252
C26	C	-1.090560	-1.470932	-0.631238
C27	C	-1.034367	-1.421692	-0.680370
C28	C	-1.060723	-1.372487	-0.729516
C29	C	-1.064198	-1.520128	-0.582084
C30	C	-0.981644	-1.520096	-0.582067
C31	C	-0.925450	-1.470861	-0.631206
C32	C	-0.951810	-1.421655	-0.680355
C33	C	-0.895617	-1.372415	-0.729487
C34	C	-0.921976	-1.323213	-0.778643
C35	C	-1.004528	-1.323252	-0.778655
C36	C	-0.842897	-1.470822	-0.631193
C37	C	-0.813060	-1.372377	-0.729472
C38	C	-0.287326	-1.421717	-0.680376
C39	C	-0.199473	-1.421764	-0.680399
C40	C	-0.523979	-1.664185	-0.722259
C41	C	-0.536974	-1.767557	-0.740130
C42	C	-0.586247	-0.826414	-0.807892
C43	C	-0.598447	-0.923533	-0.824659
C44	C	-0.561369	-0.961806	-0.773671
C45	C	-0.512090	-0.902950	-0.705912
C46	C	-0.499894	-0.805820	-0.689138
C47	C	-0.475017	-0.941212	-0.654917
C48	C	-0.425737	-0.882356	-0.587158
C49	C	-0.413543	-0.785237	-0.570388
C50	C	-0.450621	-0.746964	-0.621376
C51	C	-0.487212	-1.038342	-0.671691
C52	C	-0.400860	-1.017749	-0.552937
C53	C	-0.388660	-0.920629	-0.536170
C54	C	-0.400879	-1.549525	-1.085139
C55	C	-0.388674	-1.566360	-1.182263
C56	C	-0.425642	-1.515275	-1.220539
C57	C	-0.474819	-1.447352	-1.161681
C58	C	-0.487020	-1.430511	-1.064547
C59	C	-0.511784	-1.396260	-1.199947
C60	C	-0.560960	-1.328337	-1.141089
C61	C	-0.573160	-1.311500	-1.043964
C62	C	-0.536191	-1.362585	-1.005688
C63	C	-0.499582	-1.413102	-1.297082
C64	C	-0.585723	-1.294087	-1.276489
C65	C	-0.597929	-1.277253	-1.179365
C66	C	-0.523774	-1.379759	-0.438691
C67	C	-0.536553	-1.362013	-0.335348
H68	H	-0.767311	-1.332284	-0.769486
F69	F	-0.862162	-1.270806	-0.830926
H70	H	-1.025998	-1.283194	-0.818673
F71	F	-1.171333	-1.320168	-0.781848
F72	F	-0.574353	-1.065170	-0.791520
F73	F	-0.549181	-1.344673	-0.902316
F74	F	-1.232914	-1.523366	-0.578964
F75	F	-1.124005	-1.572533	-0.529802
F76	F	-0.650263	-1.204964	-1.116713
H77	H	-0.440689	-0.667882	-0.607730
H78	H	-0.960189	-1.560159	-0.542044
F79	F	-0.650893	-0.986164	-0.896769
F80	F	-0.814847	-1.523172	-0.578873
H81	H	-0.373426	-0.737316	-0.515205
F82	F	-0.336214	-0.857980	-0.464059
F83	F	-0.361400	-1.058475	-0.498664
H84	H	-0.459540	-1.468403	-1.344995
H85	H	-0.527336	-1.086254	-0.726862
F86	F	-0.412653	-1.533196	-1.323909
H87	H	-0.615821	-1.252484	-1.307652
F88	F	-0.625718	-0.785672	-0.862133
H89	H	-0.348636	-1.621664	-1.230179
F90	F	-0.625487	-1.239199	-0.981323
F91	F	-0.361516	-1.603860	-1.044392
