data_functionalizedCrystal
_audit_creation_method	'MofGen! by Chris Wilmer'
_symmetry_space_group_name_H-M	'P1'
_symmetry_Int_Tables_number	1
_symmetry_cell_setting	triclinic
loop_
_symmetry_equiv_pos_as_xyz
  x,y,z
_cell_length_a	15.944493
_cell_length_b	12.811434
_cell_length_c	11.892113
_cell_angle_alpha	88.929537
_cell_angle_beta	94.367635
_cell_angle_gamma	83.759888
loop_
_atom_site_label
_atom_site_type_symbol
_atom_site_fract_x
_atom_site_fract_y
_atom_site_fract_z
O1	O	1.119094	0.140148	0.079616
O2	O	0.874508	0.156792	0.077915
O3	O	1.003751	-0.003332	0.094326
O4	O	0.989851	0.300272	0.063206
O5	O	0.994178	-0.015230	-0.092462
O6	O	0.864935	0.144895	-0.108873
O7	O	1.109521	0.128250	-0.107171
Zn8	Zn	0.985709	0.134683	-0.137678
Zn9	Zn	0.998321	0.150359	0.108422
O10	O	0.980278	0.288374	-0.123582
C11	C	0.998480	-0.048131	0.004917
C12	C	0.997025	-0.163891	0.016790
C13	C	0.838428	0.150163	-0.015408
C14	C	0.745183	0.148124	-0.015197
C15	C	1.000188	-0.320566	0.135325
C16	C	1.001559	-0.211798	0.124181
C17	C	0.991123	-0.224761	-0.079466
C18	C	0.989752	-0.333529	-0.068322
C19	C	0.994284	-0.381427	0.039077
C20	C	0.992907	-0.490196	0.050219
C21	C	0.982477	-0.503158	-0.153427
C22	C	0.983848	-0.394390	-0.164570
C23	C	0.509255	0.242376	-0.024858
C24	C	0.454067	0.185683	-0.111749
C25	C	0.574469	0.144345	-0.014812
C26	C	0.463510	0.197390	0.072412
C27	C	0.409566	0.140702	-0.014436
C28	C	0.520506	0.087673	-0.101782
C29	C	0.529956	0.099400	0.082460
C30	C	0.474800	0.042633	-0.004446
C31	C	0.669465	0.146446	-0.015030
C32	C	0.314572	0.138592	-0.014225
C33	C	1.145601	0.134879	-0.013845
C34	C	1.238846	0.136919	-0.014049
C35	C	0.985549	0.333173	-0.034170
C36	C	0.987005	0.448934	-0.046036
N37	N	0.977107	0.123984	-0.305636
C38	C	1.066772	0.235551	-0.553722
C39	C	1.060766	0.228063	-0.671296
C40	C	0.959095	0.101517	-0.658360
C41	C	0.965101	0.109004	-0.540786
C42	C	1.018940	0.176024	-0.488471
C43	C	1.024940	0.183517	-0.370895
C44	C	0.923275	0.056966	-0.357961
C45	C	0.917269	0.049478	-0.475535
N46	N	1.006929	0.161050	0.276380
H47	H	1.003865	-0.359563	0.222773
O48	O	0.550346	0.032473	-0.189686
C49	C	0.672262	-0.027560	-0.288462
C50	C	0.638576	0.035000	-0.188883
H51	H	0.743602	-0.025557	-0.287832
H52	H	0.640314	0.008934	-0.371146
H53	H	0.657807	-0.112446	-0.280081
H54	H	0.653023	0.119893	-0.197155
H55	H	0.670523	-0.001579	-0.106238
H56	H	0.873438	-0.005091	-0.518145
O57	O	0.979293	-0.347776	-0.268866
C58	C	0.902055	-0.220606	-0.400794
C59	C	0.907106	-0.273331	-0.282659
H60	H	0.843707	-0.160391	-0.411975
H61	H	0.897539	-0.282731	-0.467731
H62	H	0.961226	-0.179612	-0.410106
H63	H	0.847951	-0.314322	-0.273237
H64	H	0.911665	-0.211161	-0.215780
H65	H	0.524723	0.326815	-0.033599
O66	O	1.007134	-0.152711	0.217719
C67	C	0.943733	-0.096622	0.387191
C68	C	0.937308	-0.163555	0.281280
H69	H	0.887296	-0.105384	0.438622
H70	H	0.943881	-0.010622	0.360872
H71	H	1.004822	-0.124369	0.440529
H72	H	0.876225	-0.135900	0.227895
H73	H	0.937208	-0.249542	0.307678
O74	O	0.414584	0.229259	-0.209588
C75	C	0.312703	0.365465	-0.296201
C76	C	0.357336	0.316193	-0.185321
H77	H	0.266421	0.435773	-0.276621
H78	H	0.276800	0.304720	-0.342366
H79	H	0.361899	0.392420	-0.351717
H80	H	0.308196	0.289242	-0.129718
H81	H	0.393255	0.376972	-0.139244
H82	H	1.110601	0.290131	-0.511128
H83	H	0.996591	-0.529192	0.137669
O84	O	1.077183	0.248756	-0.320213
C85	C	1.111494	0.426577	-0.302168
C86	C	1.052276	0.352810	-0.359662
H87	H	1.091366	0.510722	-0.334022
H88	H	1.179332	0.401968	-0.322918
H89	H	1.107587	0.421652	-0.206925
H90	H	1.056108	0.357697	-0.454916
H91	H	0.984463	0.377441	-0.338821
H92	H	0.987443	-0.185745	-0.166904
O93	O	0.976612	-0.562357	-0.246858
C94	C	0.896181	-0.680746	-0.353713
C95	C	0.902748	-0.613780	-0.247843
H96	H	0.836457	-0.722322	-0.354556
H97	H	0.953987	-0.741631	-0.352656
H98	H	0.893212	-0.627794	-0.432354
H99	H	0.905691	-0.666649	-0.169146
H100	H	0.844941	-0.552887	-0.248999
O101	O	1.107259	0.285996	-0.734518
C102	C	1.208776	0.412254	-0.734931
C103	C	1.156152	0.346721	-0.663201
H104	H	1.248333	0.461349	-0.677300
H105	H	1.164593	0.466393	-0.795863
H106	H	1.252408	0.357466	-0.784740
H107	H	1.112516	0.401429	-0.613323
H108	H	1.200384	0.292570	-0.602339
O109	O	0.456549	-0.058212	0.005632
C110	C	0.465053	-0.229975	-0.074692
C111	C	0.485759	-0.115799	-0.086250
H112	H	0.488676	-0.276572	-0.148953
H113	H	0.393677	-0.230842	-0.073931
H114	H	0.497532	-0.267057	0.007425
H115	H	0.453337	-0.078648	-0.168360
H116	H	0.557146	-0.115004	-0.086944
O117	O	0.433815	0.252704	0.160326
C118	C	0.467593	0.357026	0.320647
C119	C	0.501330	0.294392	0.221148
H120	H	0.522158	0.390766	0.369835
H121	H	0.437127	0.302882	0.378672
H122	H	0.418495	0.423865	0.287041
H123	H	0.550457	0.227551	0.254653
H124	H	0.531743	0.348605	0.163141
O125	O	0.569491	0.055957	0.180321
C126	C	0.702306	0.008518	0.289312
C127	C	0.657639	0.057706	0.178413
H128	H	0.773579	0.009935	0.287816
H129	H	0.687543	-0.076148	0.298806
H130	H	0.678848	0.055424	0.363457
H131	H	0.681071	0.010883	0.104203
H132	H	0.672400	0.142381	0.169018
H133	H	0.915271	0.046941	-0.700974
H134	H	0.884322	0.008501	-0.304821
