data_functionalizedCrystal
_audit_creation_method	'MofGen! by Chris Wilmer'
_symmetry_space_group_name_H-M	'P1'
_symmetry_Int_Tables_number	1
_symmetry_cell_setting	triclinic
loop_
_symmetry_equiv_pos_as_xyz
  x,y,z
_cell_length_a	13.033293
_cell_length_b	16.120444
_cell_length_c	13.032268
_cell_angle_alpha	80.356652
_cell_angle_beta	90.920818
_cell_angle_gamma	100.431871
loop_
_atom_site_label
_atom_site_type_symbol
_atom_site_fract_x
_atom_site_fract_y
_atom_site_fract_z
Zn1	Zn	1.479894	-0.262707	0.795796
Zn2	Zn	1.493060	-0.384053	0.630435
Zn3	Zn	1.330069	-0.258248	0.601729
Zn4	Zn	1.296822	-0.419254	0.782392
O5	O	1.399961	-0.331066	0.702588
O6	O	1.626468	-0.265939	0.791483
O7	O	1.490862	-0.350767	0.481814
O8	O	1.358348	-0.140674	0.621068
O9	O	1.636141	-0.355091	0.669993
O10	O	1.468423	-0.143950	0.763649
O11	O	1.371114	-0.258339	0.460724
O12	O	1.180831	-0.292471	0.608071
O13	O	1.301683	-0.415085	0.928983
O14	O	1.156404	-0.410762	0.740804
O15	O	1.436185	-0.300071	0.938831
O16	O	1.458624	-0.506888	0.656996
O17	O	1.314450	-0.532750	0.768639
C18	C	1.131065	-0.354953	0.669869
C19	C	1.016026	-0.365195	0.655897
C20	C	0.959932	-0.325741	0.709881
C21	C	0.841033	-0.336326	0.695442
C22	C	1.384383	-0.550458	0.714504
C23	C	1.377809	-0.644311	0.719648
C24	C	1.434289	-0.845131	0.676157
C25	C	1.365823	-0.816133	0.729053
C26	C	1.372494	-0.720522	0.723818
C27	C	1.427620	-0.940750	0.681390
C28	C	1.669907	-0.307086	0.735435
C29	C	1.784942	-0.296867	0.749433
C30	C	1.363757	-0.362002	0.972505
C31	C	1.348329	-0.375185	1.087528
C32	C	1.415625	-0.110816	0.690651
C33	C	1.422300	-0.016959	0.685565
C34	C	1.436088	-0.300183	0.433725
C35	C	1.451734	-0.286744	0.318714
C36	C	1.407999	-0.324156	1.143681
C37	C	1.392055	-0.337781	1.262563
H38	H	0.976025	-0.406807	0.598988
N39	N	1.308728	-0.409007	1.315443
H40	H	1.309143	-0.408640	1.392872
H41	H	1.323044	-0.465745	1.301839
H42	H	1.514623	-0.232962	1.278782
H43	H	0.824938	-0.255245	0.806339
N44	N	1.265006	-0.446408	1.140413
H45	H	1.265421	-0.446041	1.217841
H46	H	1.279323	-0.503146	1.126808
N47	N	1.281540	-0.878356	0.794247
H48	H	1.288659	-0.938826	0.788791
H49	H	1.210855	-0.867776	0.768260
H50	H	0.999934	-0.284124	0.766784
N51	N	1.518558	-0.782913	0.610953
H52	H	1.589292	-0.793409	0.636890
H53	H	1.511340	-0.722470	0.616429
H54	H	1.470886	-0.270379	1.103743
N55	N	0.788067	-0.391446	0.620046
H56	H	0.710637	-0.391192	0.620414
H57	H	0.800489	-0.451941	0.641578
