data_functionalizedCrystal
_audit_creation_method	'MofGen! by Chris Wilmer'
_symmetry_space_group_name_H-M	'P1'
_symmetry_Int_Tables_number	1
_symmetry_cell_setting	triclinic
loop_
_symmetry_equiv_pos_as_xyz
  x,y,z
_cell_length_a	18.101398
_cell_length_b	18.101397
_cell_length_c	12.645323
_cell_angle_alpha	89.967526
_cell_angle_beta	89.986773
_cell_angle_gamma	90.016023
loop_
_atom_site_label
_atom_site_type_symbol
_atom_site_fract_x
_atom_site_fract_y
_atom_site_fract_z
Zn1	Zn	1.132201	-0.294912	-0.599123
Zn2	Zn	1.632201	0.205088	-0.099123
Zn3	Zn	1.132112	-0.418762	-0.421839
Zn4	Zn	1.632112	0.081238	0.078161
Zn5	Zn	1.008353	-0.294929	-0.421897
Zn6	Zn	1.508353	0.205071	0.078103
Zn7	Zn	1.008334	-0.418706	-0.599084
Zn8	Zn	1.508334	0.081294	-0.099084
O9	O	1.070250	-0.356827	-0.510486
O10	O	1.570250	0.143173	-0.010486
O11	O	1.235822	-0.311357	-0.575598
O12	O	1.735822	0.188643	-0.075598
O13	O	1.115666	-0.402366	-0.273500
O14	O	1.615666	0.097634	0.226500
O15	O	1.024826	-0.191294	-0.445446
O16	O	1.524826	0.308706	0.054554
O17	O	1.235757	-0.402349	-0.445349
O18	O	1.735757	0.097651	0.054651
O19	O	1.115817	-0.191281	-0.575654
O20	O	1.615817	0.308719	-0.075654
O21	O	1.024740	-0.311387	-0.273542
O22	O	1.524740	0.188613	0.226458
O23	O	0.904717	-0.311333	-0.445408
O24	O	1.404717	0.188667	0.054592
O25	O	1.024794	-0.402254	-0.747437
O26	O	1.524794	0.097746	-0.247437
O27	O	0.904703	-0.402271	-0.575587
O28	O	1.404703	0.097729	-0.075587
O29	O	1.115799	-0.311303	-0.747465
O30	O	1.615799	0.188697	-0.247465
O31	O	1.115648	-0.522387	-0.445311
O32	O	1.615648	-0.022387	0.054689
O33	O	1.024708	-0.522347	-0.575532
O34	O	1.524708	-0.022347	-0.075532
C35	C	0.877839	-0.356798	-0.510501
C36	C	1.377839	0.143202	-0.010501
C37	C	0.795525	-0.356804	-0.510532
C38	C	1.295525	0.143196	-0.010532
C39	C	0.496434	-0.356847	-0.510488
C40	C	0.996434	0.143153	-0.010488
C41	C	0.527776	-0.414340	-0.591988
C42	C	1.027776	0.085660	-0.091988
C43	C	0.613394	-0.414160	-0.592324
C44	C	1.113394	0.085840	-0.092324
C45	C	0.644817	-0.356826	-0.510510
C46	C	1.144817	0.143174	-0.010510
C47	C	0.613749	-0.278823	-0.541045
C48	C	1.113749	0.221177	-0.041045
C49	C	0.528104	-0.279169	-0.541624
C50	C	1.028104	0.220831	-0.041624
C51	C	0.527981	-0.376670	-0.398255
C52	C	1.027981	0.123330	0.101745
C53	C	0.613631	-0.378381	-0.398855
C54	C	1.113631	0.121619	0.101145
C55	C	0.728676	-0.356809	-0.510520
C56	C	1.228676	0.143191	-0.010520
C57	C	0.412575	-0.356859	-0.510480
C58	C	0.912575	0.143141	-0.010480
C59	C	1.070187	-0.549238	-0.510434
C60	C	1.570187	-0.049238	-0.010434
C61	C	1.070227	-0.631552	-0.510448
C62	C	1.570227	-0.131552	-0.010448
C63	C	1.070322	-0.930643	-0.510545
C64	C	1.570322	-0.430643	-0.010545
C65	C	1.127379	-0.899313	-0.428394
C66	C	1.627379	-0.399313	0.071606
C67	C	1.127577	-0.813694	-0.428606
C68	C	1.627577	-0.313694	0.071394
C69	C	1.070275	-0.782260	-0.510496
C70	C	1.570275	-0.282260	-0.010496
C71	C	1.091436	-0.813267	-0.622232
C72	C	1.591436	-0.313267	-0.122232
C73	C	1.091877	-0.898912	-0.621785
C74	C	1.591877	-0.398912	-0.121785
C75	C	0.991952	-0.899146	-0.481926
C76	C	1.491952	-0.399146	0.018074
C77	C	0.992339	-0.813497	-0.479432
C78	C	1.492339	-0.313497	0.020568
C79	C	1.070247	-0.698401	-0.510475
C80	C	1.570247	-0.198401	-0.010475
C81	C	1.070351	-1.014502	-0.510573
C82	C	1.570351	-0.514502	-0.010573
C83	C	1.263412	-0.356857	-0.510472
C84	C	1.763412	0.143143	-0.010472
C85	C	1.345726	-0.356870	-0.510465
C86	C	1.845726	0.143130	-0.010465
C87	C	1.070305	-0.356770	-0.786991
C88	C	1.570305	0.143230	-0.286991
C89	C	1.070328	-0.356746	-0.904821
C90	C	1.570328	0.143254	-0.404821
C91	C	1.070334	-0.163665	-0.510561
C92	C	1.570334	0.336335	-0.010561
C93	C	1.070369	-0.081351	-0.510592
C94	C	1.570369	0.418649	-0.010592
C95	C	1.012900	-0.413693	-1.072368
C96	C	1.512900	0.086307	-0.572368
C97	C	1.013050	-0.413975	-0.949808
C98	C	1.513050	0.086025	-0.449808
C99	C	1.148358	-0.377932	-0.949319
C100	C	1.648358	0.122068	-0.449319
C101	C	1.148043	-0.378289	-1.071917
C102	C	1.648043	0.121711	-0.571917
C103	C	1.050463	-0.278293	-1.072039
C104	C	1.550463	0.221707	-0.572039
C105	C	1.048722	-0.278763	-0.949433
C106	C	1.548722	0.221237	-0.449433
C107	C	1.070238	-0.356831	-0.235056
C108	C	1.570238	0.143169	0.264944
C109	C	1.070359	-0.356647	-0.117227
C110	C	1.570359	0.143353	0.382773
H111	H	0.506376	-0.432576	-0.370507
H112	H	1.006376	0.067424	0.129493
F113	F	0.641585	-0.327620	-0.315218
F114	F	1.141585	0.172380	0.184782
F115	F	0.973661	-0.257882	-0.911432
F116	F	1.473661	0.242118	-0.411432
F117	F	0.640197	-0.397016	-0.701015
F118	F	1.140197	0.102984	-0.201015
H119	H	0.634399	-0.472003	-0.573185
H120	H	1.134399	0.027997	-0.073185
H121	H	1.025906	-0.471417	-1.103173
H122	H	1.525906	0.028583	-0.603173
H123	H	0.954866	-0.400563	-1.101857
H124	H	1.454866	0.099437	-0.601857
H125	H	1.052140	-0.919634	-0.685102
H126	H	1.552140	-0.419634	-0.185102
H127	H	1.148079	-0.791763	-0.646887
H128	H	1.648079	-0.291763	-0.146887
H129	H	0.955188	-0.400717	-0.919722
H130	H	1.455188	0.099283	-0.419722
F131	F	0.501003	-0.221281	-0.467422
F132	F	1.001003	0.278719	0.032578
H133	H	1.114300	-0.919957	-0.345294
H134	H	1.614300	-0.419957	0.154706
F135	F	0.640171	-0.453411	-0.368759
F136	F	1.140171	0.046589	0.131241
F137	F	0.936385	-0.925630	-0.560131
F138	F	1.436385	-0.425630	-0.060131
H139	H	1.087515	-0.234013	-0.918811
H140	H	1.587515	0.265987	-0.418811
F141	F	0.500839	-0.490193	-0.567260
F142	F	1.000839	0.009807	-0.067260
F143	F	0.502012	-0.257195	-0.648866
F144	F	1.002012	0.242805	-0.148866
H145	H	1.051149	-0.792903	-0.685086
H146	H	1.551149	-0.292903	-0.185086
H147	H	0.947540	-0.792107	-0.534886
H148	H	1.447540	-0.292107	-0.034886
F149	F	1.110233	-0.786295	-0.320326
F150	F	1.610233	-0.286295	0.179674
F151	F	1.030252	-0.489891	-0.911469
F152	F	1.530252	0.010109	-0.411469
F153	F	1.205817	-0.325341	-0.911237
F154	F	1.705817	0.174659	-0.411237
H155	H	0.507712	-0.334792	-0.337530
H156	H	1.007712	0.165208	0.162470
F157	F	1.202844	-0.927375	-0.452856
F158	F	1.702844	-0.427375	0.047144
H159	H	1.185629	-0.793155	-0.447540
H160	H	1.685629	-0.293155	0.052460
F161	F	0.966790	-0.927459	-0.377277
F162	F	1.466790	-0.427459	0.122723
F163	F	1.105163	-0.222740	-1.109958
F164	F	1.605163	0.277260	-0.609958
H165	H	1.149162	-0.918834	-0.646029
H166	H	1.649162	-0.418834	-0.146029
F167	F	0.640354	-0.221312	-0.465881
F168	F	1.140354	0.278688	0.034119
H169	H	0.976383	-0.793239	-0.397203
H170	H	1.476383	-0.293239	0.102797
F171	F	1.170085	-0.453155	-1.109297
F172	F	1.670085	0.046845	-0.609297
H173	H	0.506266	-0.401391	-0.674665
H174	H	1.006266	0.098609	-0.174665
F175	F	1.205866	-0.326305	-1.110709
F176	F	1.705866	0.173695	-0.610709
F177	F	1.170781	-0.452014	-0.909189
F178	F	1.670781	0.047986	-0.409189
F179	F	0.977385	-0.253053	-1.112451
F180	F	1.477385	0.246947	-0.612451
F181	F	0.641803	-0.256449	-0.647121
F182	F	1.141803	0.243551	-0.147121
