data_functionalizedCrystal
_audit_creation_method	'MofGen! by Chris Wilmer'
_symmetry_space_group_name_H-M	'P1'
_symmetry_Int_Tables_number	1
_symmetry_cell_setting	triclinic
loop_
_symmetry_equiv_pos_as_xyz
  x,y,z
_cell_length_a	6.817900
_cell_length_b	11.102183
_cell_length_c	16.255661
_cell_angle_alpha	93.854172
_cell_angle_beta	103.488922
_cell_angle_gamma	108.603876
loop_
_atom_site_label
_atom_site_type_symbol
_atom_site_fract_x
_atom_site_fract_y
_atom_site_fract_z
V1	V	-4.052928	-0.176865	-0.263870
O2	O	-4.013087	0.007443	-0.258848
O3	O	-4.030096	-0.349678	-0.262063
O4	O	-4.004156	-0.174608	-0.378953
O5	O	-4.039207	-0.168839	-0.141149
V6	V	-4.533291	-0.154765	-0.249191
O7	O	-4.321118	-0.225344	-0.296067
O8	O	-4.715299	-0.106287	-0.216994
O9	O	-4.332918	0.018048	-0.250998
O10	O	-4.690529	-0.339073	-0.254213
O11	O	-4.664410	-0.162791	-0.371912
O12	O	-4.358858	-0.157022	-0.134108
C13	C	-3.881328	-0.391791	-0.257900
C14	C	-3.943944	-0.533071	-0.257191
C15	C	-3.858008	-0.496191	-0.102181
C16	C	-3.844453	-0.544123	-0.024346
C17	C	-3.903293	-0.676868	-0.023684
C18	C	-3.975700	-0.761687	-0.100865
C19	C	-3.989255	-0.713754	-0.178700
C20	C	-3.930403	-0.581004	-0.179354
C21	C	-4.075205	-0.750635	-0.333709
C22	C	-4.016351	-0.617889	-0.334372
C23	C	-4.147612	-0.835453	-0.410890
C24	C	-4.161154	-0.787521	-0.488727
C25	C	-4.102306	-0.654766	-0.489386
C26	C	-4.029906	-0.569957	-0.412208
C27	C	-3.848238	-0.168471	-0.407003
C28	C	-3.889814	-0.167769	-0.501085
C29	C	-3.799128	-0.159385	-0.723903
C30	C	-3.971583	-0.267595	-0.793379
C31	C	-3.966003	-0.166453	-0.673333
C32	C	-3.867654	-0.057005	-0.771495
C33	C	-4.039582	-0.165176	-0.839717
C34	C	-4.137955	-0.274759	-0.741578
C35	C	-4.033950	-0.064074	-0.719680
C36	C	-4.206547	-0.172315	-0.789136
C37	C	-3.923611	-0.167190	-0.577484
C38	C	-4.081992	-0.164449	-0.935565
C39	C	-4.145028	0.060155	-0.255158
C40	C	-4.061650	0.201433	-0.255873
C41	C	-4.178118	-0.163163	-0.106053
C42	C	-4.115780	-0.163859	-0.011971
H43	H	-4.113375	-0.615751	-0.552770
O44	O	-3.593385	-0.153253	-0.689979
C45	C	-3.560899	-0.260793	-0.727896
H46	H	-3.722022	-0.341928	-0.754434
H47	H	-3.483642	-0.233140	-0.782158
C48	C	-3.214228	-0.206367	-0.627574
C49	C	-3.412121	-0.306022	-0.660162
H50	H	-3.122448	-0.234264	-0.585794
H51	H	-3.236109	-0.133912	-0.602030
H52	H	-3.149876	-0.183332	-0.672799
H53	H	-3.476482	-0.329044	-0.614939
H54	H	-3.390247	-0.378482	-0.685697
H55	H	-4.059790	0.021975	-0.687572
H56	H	-4.379234	-0.177810	-0.817482
O57	O	-4.273505	-0.384754	-0.725482
C58	C	-4.152856	-0.453337	-0.680345
H59	H	-3.987436	-0.423701	-0.692777
H60	H	-4.134046	-0.430864	-0.608871
C61	C	-4.473100	-0.635046	-0.695525
C62	C	-4.269935	-0.598654	-0.710801
H63	H	-4.545322	-0.724684	-0.714308
H64	H	-4.554386	-0.588839	-0.725932
H65	H	-4.457396	-0.616307	-0.635964
H66	H	-4.285642	-0.617378	-0.770362
H67	H	-4.188654	-0.644867	-0.680404
H68	H	-3.753782	0.034998	-0.785106
H69	H	-3.810033	-0.388098	-0.102711
H70	H	-3.945664	-0.353639	-0.825464
O71	O	-3.890307	-0.723293	0.051971
C72	C	-4.023767	-0.685831	0.094947
H73	H	-4.051250	-0.596742	0.071100
H74	H	-4.184639	-0.767413	0.081764
C75	C	-3.881356	-0.764468	0.221201
C76	C	-3.915097	-0.655041	0.191918
H77	H	-3.814330	-0.745481	0.281018
H78	H	-3.791447	-0.789712	0.192247
H79	H	-4.015427	-0.832443	0.210208
H80	H	-3.781026	-0.587074	0.202901
H81	H	-4.004981	-0.629785	0.220876
H82	H	-4.023632	-0.869774	-0.100320
O83	O	-4.204548	-0.964417	-0.410349
C84	C	-4.073796	-1.012705	-0.448619
H85	H	-4.007010	-0.944919	-0.492923
H86	H	-3.935260	-1.020274	-0.396704
C87	C	-4.290354	-1.230050	-0.446291
C88	C	-4.208341	-1.146800	-0.500711
H89	H	-4.373343	-1.312768	-0.478420
H90	H	-4.378441	-1.197519	-0.420504
H91	H	-4.174891	-1.236342	-0.403032
H92	H	-4.323804	-1.140496	-0.543962
H93	H	-4.120277	-1.179333	-0.526506
H94	H	-3.785499	-0.475050	0.038494
H95	H	-4.220121	-0.856589	-0.551562
H96	H	-3.981955	-0.461865	-0.412736
