data_functionalizedCrystal
_audit_creation_method	'MofGen! by Chris Wilmer'
_symmetry_space_group_name_H-M	'P1'
_symmetry_Int_Tables_number	1
_symmetry_cell_setting	triclinic
loop_
_symmetry_equiv_pos_as_xyz
  x,y,z
_cell_length_a	25.639242
_cell_length_b	29.839131
_cell_length_c	25.639233
_cell_angle_alpha	90.019585
_cell_angle_beta	90.022166
_cell_angle_gamma	90.036947
loop_
_atom_site_label
_atom_site_type_symbol
_atom_site_fract_x
_atom_site_fract_y
_atom_site_fract_z
Zn1	Zn	0.799215	-0.178962	0.295739
Zn2	Zn	1.299215	0.321038	0.795739
Zn3	Zn	0.799134	-0.254076	0.208302
Zn4	Zn	1.299134	0.245924	0.708302
Zn5	Zn	0.711791	-0.178955	0.208303
Zn6	Zn	1.211791	0.321045	0.708303
Zn7	Zn	0.711732	-0.254059	0.295692
Zn8	Zn	1.211732	0.245941	0.795692
O9	O	0.755468	-0.216513	0.252009
O10	O	1.255468	0.283487	0.752009
O11	O	0.872370	-0.188935	0.284160
O12	O	1.372370	0.311065	0.784160
O13	O	0.787539	-0.244115	0.135137
O14	O	1.287539	0.255885	0.635137
O15	O	0.723447	-0.116089	0.219922
O16	O	1.223447	0.383911	0.719922
O17	O	0.872310	-0.244122	0.219920
O18	O	1.372310	0.255878	0.719920
O19	O	0.787677	-0.116094	0.284161
O20	O	1.287677	0.383906	0.784161
O21	O	0.723369	-0.188924	0.135138
O22	O	1.223369	0.311076	0.635138
O23	O	0.638618	-0.188908	0.219876
O24	O	1.138618	0.311092	0.719876
O25	O	0.723346	-0.244093	0.368864
O26	O	1.223346	0.255907	0.868864
O27	O	0.638575	-0.244087	0.284081
O28	O	1.138575	0.255913	0.784081
O29	O	0.787619	-0.188919	0.368898
O30	O	1.287619	0.311081	0.868898
O31	O	0.787482	-0.316941	0.219875
O32	O	1.287482	0.183059	0.719875
O33	O	0.723268	-0.316929	0.284080
O34	O	1.223268	0.183071	0.784080
C35	C	0.619626	-0.216495	0.251974
C36	C	1.119626	0.283505	0.751974
C37	C	0.561512	-0.216499	0.251971
C38	C	1.061512	0.283501	0.751971
C39	C	0.201135	-0.245293	0.285409
C40	C	0.701135	0.254707	0.785409
C41	C	0.146531	-0.245295	0.285417
C42	C	0.646531	0.254705	0.785417
O43	O	0.118282	-0.269755	0.313817
O44	O	0.618282	0.230245	0.813817
N45	N	0.119229	-0.216525	0.252043
N46	N	0.619229	0.283475	0.752043
C47	C	0.146535	-0.187748	0.218663
C48	C	0.646535	0.312252	0.718663
O49	O	0.118299	-0.163276	0.190277
O50	O	0.618299	0.336724	0.690277
C51	C	0.201138	-0.187743	0.218658
C52	C	0.701138	0.312257	0.718658
C53	C	0.228437	-0.216518	0.252030
C54	C	0.728437	0.283482	0.752030
C55	C	0.228434	-0.274065	0.318778
C56	C	0.728434	0.225935	0.818778
C57	C	0.283034	-0.274063	0.318769
C58	C	0.783034	0.225937	0.818769
C59	C	0.310336	-0.245288	0.285390
C60	C	0.810336	0.254712	0.785390
C61	C	0.283037	-0.216516	0.252021
C62	C	0.783037	0.283484	0.752021
C63	C	0.228443	-0.158963	0.185281
C64	C	0.728443	0.341037	0.685281
C65	C	0.283050	-0.158961	0.185279
C66	C	0.783050	0.341039	0.685279
C67	C	0.310349	-0.187736	0.218651
C68	C	0.810349	0.312264	0.718651
C69	C	0.364940	-0.187739	0.218633
C70	C	0.864940	0.312261	0.718633
N71	N	0.392241	-0.216509	0.252006
N72	N	0.892241	0.283491	0.752006
C73	C	0.364939	-0.245283	0.285385
C74	C	0.864939	0.254717	0.785385
C75	C	0.031864	-0.187759	0.218677
C76	C	0.531864	0.312241	0.718677
C77	C	-0.022738	-0.187766	0.218679
C78	C	0.477262	0.312234	0.718679
C79	C	-0.022739	-0.245313	0.285434
C80	C	0.477261	0.254687	0.785434
C81	C	0.031865	-0.245308	0.285429
C82	C	0.531865	0.254692	0.785429
C83	C	0.059166	-0.216529	0.252051
C84	C	0.559166	0.283471	0.752051
C85	C	0.479604	-0.245277	0.285363
C86	C	0.979604	0.254723	0.785363
C87	C	0.534210	-0.245273	0.285350
C88	C	1.034210	0.254727	0.785350
C89	C	0.534206	-0.187724	0.218597
C90	C	1.034206	0.312276	0.718597
C91	C	0.479605	-0.187729	0.218609
C92	C	0.979605	0.312271	0.718609
C93	C	0.452306	-0.216507	0.251996
C94	C	0.952306	0.283493	0.751996
O95	O	0.393223	-0.163290	0.190249
O96	O	0.893223	0.336710	0.690249
O97	O	0.393182	-0.269746	0.313771
O98	O	0.893182	0.230254	0.813771
C99	C	0.755374	-0.333236	0.251983
C100	C	1.255374	0.166764	0.751983
C101	C	0.755381	-0.383170	0.251990
C102	C	1.255381	0.116830	0.751990
C103	C	0.788965	-0.692807	0.218627
C104	C	1.288965	-0.192807	0.718627
C105	C	0.789030	-0.880480	0.218647
C106	C	1.289030	-0.380480	0.718647
O107	O	0.817509	-0.904740	0.190260
O108	O	1.317509	-0.404740	0.690260
N109	N	0.755577	-0.903955	0.252049
N110	N	1.255577	-0.403955	0.752049
C111	C	0.722108	-0.880509	0.285450
C112	C	1.222108	-0.380509	0.785450
O113	O	0.693659	-0.904782	0.313865
O114	O	1.193659	-0.404782	0.813865
C115	C	0.722046	-0.692837	0.285432
C116	C	1.222046	-0.192837	0.785432
C117	C	0.755498	-0.669364	0.252024
C118	C	1.255498	-0.169364	0.752024
C119	C	0.822415	-0.669335	0.185222
C120	C	1.322415	-0.169335	0.685222
C121	C	0.822396	-0.622419	0.185215
C122	C	1.322396	-0.122419	0.685215
C123	C	0.788928	-0.598976	0.218613
C124	C	1.288928	-0.098976	0.718613
C125	C	0.755479	-0.622449	0.252018
C126	C	1.255479	-0.122449	0.752018
C127	C	0.688580	-0.669391	0.318836
C128	C	1.188580	-0.169391	0.818836
C129	C	0.688568	-0.622470	0.318829
C130	C	1.188568	-0.122470	0.818829
C131	C	0.722020	-0.598998	0.285422
C132	C	1.222020	-0.098998	0.785422
C133	C	0.721993	-0.552090	0.285409
C134	C	1.221993	-0.052090	0.785409
N135	N	0.755446	-0.528615	0.252007
N136	N	1.255446	-0.028615	0.752007
C137	C	0.788914	-0.552058	0.218609
C138	C	1.288914	-0.052058	0.718609
C139	C	0.722141	-0.979039	0.285457
C140	C	1.222141	-0.479039	0.785457
C141	C	0.722156	-1.025957	0.285461
C142	C	1.222156	-0.525957	0.785461
C143	C	0.789079	-1.025925	0.218658
C144	C	1.289079	-0.525925	0.718658
C145	C	0.789062	-0.979007	0.218652
C146	C	1.289062	-0.479007	0.718652
C147	C	0.755595	-0.955565	0.252055
C148	C	1.255595	-0.455565	0.752055
C149	C	0.788872	-0.453533	0.218597
C150	C	1.288872	0.046467	0.718597
C151	C	0.788849	-0.406613	0.218592
C152	C	1.288849	0.093387	0.718592
C153	C	0.721928	-0.406649	0.285396
C154	C	1.221928	0.093351	0.785396
C155	C	0.721949	-0.453564	0.285400
C156	C	1.221949	0.046436	0.785400
C157	C	0.755425	-0.477005	0.251999
C158	C	1.255425	0.022995	0.751999
O159	O	0.693533	-0.527802	0.313784
O160	O	1.193533	-0.027802	0.813784
O161	O	0.817366	-0.527777	0.190207
O162	O	1.317366	-0.027777	0.690207
C163	C	0.788984	-0.739723	0.218633
C164	C	1.288984	-0.239723	0.718633
C165	C	0.755535	-0.763195	0.252038
C166	C	1.255535	-0.263195	0.752038
C167	C	0.722067	-0.739752	0.285436
C168	C	1.222067	-0.239752	0.785436
C169	C	0.755549	-0.810113	0.252042
C170	C	1.255549	-0.310113	0.752042
C171	C	0.789017	-0.833556	0.218644
C172	C	1.289017	-0.333556	0.718644
C173	C	0.822470	-0.810081	0.185242
C174	C	1.322470	-0.310081	0.685242
C175	C	0.822451	-0.763166	0.185235
C176	C	1.322451	-0.263166	0.685235
C177	C	0.688614	-0.763227	0.318838
C178	C	1.188614	-0.263227	0.818838
C179	C	0.688635	-0.810143	0.318841
C180	C	1.188635	-0.310143	0.818841
C181	C	0.722102	-0.833585	0.285443
C182	C	1.222102	-0.333585	0.785443
C183	C	0.891841	-0.216531	0.252045
C184	C	1.391841	0.283469	0.752045
C185	C	0.949955	-0.216539	0.252060
C186	C	1.449955	0.283461	0.752060
C187	C	0.755485	-0.216505	0.388382
C188	C	1.255485	0.283495	0.888382
C189	C	0.755492	-0.216502	0.446496
C190	C	1.255492	0.283498	0.946496
C191	C	0.755577	-0.099335	0.252047
C192	C	1.255577	0.400665	0.752047
C193	C	0.755624	-0.049400	0.252063
C194	C	1.255624	0.450600	0.752063
C195	C	0.755482	-0.216488	0.116167
C196	C	1.255482	0.283512	0.616167
C197	C	0.755576	-0.216365	0.058053
C198	C	1.255576	0.283635	0.558053
C199	C	0.789002	-0.187687	0.806883
C200	C	1.289002	0.312313	1.306883
C201	C	0.789008	-0.187675	0.861488
C202	C	1.289008	0.312325	1.361488
O203	O	0.817457	-0.163229	0.889744
O204	O	1.317457	0.336771	1.389744
N205	N	0.755550	-0.216396	0.888779
N206	N	1.255550	0.283604	1.388779
C207	C	0.722079	-0.245129	0.861463
C208	C	1.222079	0.254871	1.361463
O209	O	0.693621	-0.269558	0.889691
O210	O	1.193621	0.230442	1.389691
C211	C	0.722071	-0.245139	0.806860
C212	C	1.222071	0.254861	1.306860
C213	C	0.755535	-0.216419	0.779571
C214	C	1.255535	0.283581	1.279571
C215	C	0.822463	-0.158969	0.779594
C216	C	1.322463	0.341031	1.279594
C217	C	0.822457	-0.158982	0.724994
C218	C	1.322457	0.341018	1.224994
C219	C	0.788990	-0.187714	0.697682
C220	C	1.288990	0.312286	1.197682
C221	C	0.755529	-0.216432	0.724971
C222	C	1.255529	0.283568	1.224971
C223	C	0.688598	-0.273869	0.779545
C224	C	1.188598	0.226131	1.279545
C225	C	0.688592	-0.273876	0.724938
C226	C	1.188592	0.226124	1.224938
C227	C	0.722056	-0.245156	0.697650
C228	C	1.222056	0.254844	1.197650
C229	C	0.722056	-0.245176	0.643058
C230	C	1.222056	0.254824	1.143058
N231	N	0.755514	-0.216455	0.615767
N232	N	1.255514	0.283545	1.115767
C233	C	0.788981	-0.187723	0.643079
C234	C	1.288981	0.312277	1.143079
C235	C	0.722100	-0.245106	0.976134
C236	C	1.222100	0.254894	1.476134
C237	C	0.722110	-0.245099	1.030736
C238	C	1.222110	0.254901	1.530736
C239	C	0.789039	-0.187644	1.030757
C240	C	1.289039	0.312356	1.530757
C241	C	0.789030	-0.187653	0.976153
C242	C	1.289030	0.312347	1.476153
C243	C	0.755558	-0.216384	0.948843
C244	C	1.255558	0.283616	1.448843
C245	C	0.788967	-0.187753	0.528414
C246	C	1.288967	0.312247	1.028414
C247	C	0.788959	-0.187770	0.473808
C248	C	1.288959	0.312230	0.973808
C249	C	0.722029	-0.245223	0.473793
C250	C	1.222029	0.254777	0.973793
C251	C	0.722038	-0.245208	0.528393
C252	C	1.222038	0.254792	1.028393
C253	C	0.755509	-0.216470	0.555702
C254	C	1.255509	0.283530	1.055702
O255	O	0.693620	-0.269609	0.614767
O256	O	1.193620	0.230391	1.114767
O257	O	0.817430	-0.163295	0.614845
O258	O	1.317430	0.336705	1.114845
H259	H	0.556445	-0.164298	0.191419
H260	H	1.056445	0.335702	0.691419
O261	O	0.689561	-0.273170	0.554849
O262	O	1.189561	0.226830	1.054849
C263	C	0.664129	-0.349581	0.571575
C264	C	1.164129	0.150419	1.071575
C265	C	0.700938	-0.317969	0.541576
C266	C	1.200938	0.182031	1.041576
H267	H	0.673321	-0.385807	0.560863
H268	H	1.173321	0.114193	1.060863
H269	H	0.621968	-0.341725	0.560814
H270	H	1.121968	0.158275	1.060814
H271	H	0.669871	-0.344610	0.615290
H272	H	1.169871	0.155390	1.115290
H273	H	0.695243	-0.322922	0.497854
H274	H	1.195243	0.177078	0.997854
H275	H	0.743085	-0.325832	0.552379
H276	H	1.243085	0.174168	1.052379
O277	O	0.309467	-0.302026	0.351240
O278	O	0.809467	0.197974	0.851240
C279	C	0.303683	-0.359121	0.417433
C280	C	0.803683	0.140879	0.917433
C281	C	0.273688	-0.327468	0.380691
C282	C	0.773688	0.172532	0.880691
H283	H	0.274769	-0.379705	0.441246
H284	H	0.774769	0.120295	0.941246
H285	H	0.329258	-0.338551	0.444850
H286	H	0.829258	0.161449	0.944850
H287	H	0.329234	-0.382564	0.393373
H288	H	0.829234	0.117436	0.893373
H289	H	0.248108	-0.304019	0.404709
H290	H	0.748108	0.195981	0.904709
H291	H	0.248145	-0.348066	0.353273
H292	H	0.748145	0.151934	0.853273
O293	O	0.689597	-0.273153	0.447194
O294	O	1.189597	0.226847	0.947194
C295	C	0.682511	-0.333826	0.385544
C296	C	1.182511	0.166174	0.885544
C297	C	0.719300	-0.302221	0.415630
C298	C	1.219300	0.197779	0.915630
H299	H	0.706512	-0.357342	0.360026
H300	H	1.206512	0.142658	0.860026
H301	H	0.655203	-0.313221	0.359939
H302	H	1.155203	0.186779	0.859939
H303	H	0.658578	-0.354336	0.414428
H304	H	1.158578	0.145664	0.914428
H305	H	0.743267	-0.281705	0.386784
H306	H	1.243267	0.218295	0.886784
H307	H	0.746573	-0.322851	0.441243
H308	H	1.246573	0.177149	0.941243
O309	O	0.560646	-0.273240	0.317820
O310	O	1.060646	0.226760	0.817820
C311	C	0.554873	-0.330338	0.384010
C312	C	1.054873	0.169662	0.884010
C313	C	0.524872	-0.298683	0.347274
C314	C	1.024872	0.201317	0.847274
H315	H	0.525962	-0.350924	0.407825
H316	H	1.025962	0.149076	0.907825
H317	H	0.580451	-0.309768	0.411424
H318	H	1.080451	0.190232	0.911424
H319	H	0.580421	-0.353779	0.359945
H320	H	1.080421	0.146221	0.859945
H321	H	0.499294	-0.275236	0.371297
H322	H	0.999294	0.224764	0.871297
H323	H	0.499326	-0.319281	0.319858
H324	H	0.999326	0.180719	0.819858
H325	H	0.457384	-0.268709	0.312552
H326	H	0.957384	0.231291	0.812552
O327	O	0.656074	-0.740408	0.351207
O328	O	1.156074	-0.240408	0.851207
C329	C	0.585429	-0.687522	0.358154
C330	C	1.085429	-0.187522	0.858154
C331	C	0.622261	-0.713326	0.321437
C332	C	1.122261	-0.213326	0.821437
H333	H	0.558075	-0.665627	0.334099
H334	H	1.058075	-0.165627	0.834099
H335	H	0.609372	-0.665494	0.385511
H336	H	1.109372	-0.165494	0.885511
H337	H	0.561549	-0.712371	0.382037
H338	H	1.061549	-0.212371	0.882037
H339	H	0.646149	-0.688509	0.297520
H340	H	1.146149	-0.188509	0.797520
H341	H	0.598288	-0.735361	0.294114
H342	H	1.098288	-0.235361	0.794114
O343	O	0.854977	-0.131037	0.698570
O344	O	1.354977	0.368963	1.198570
C345	C	0.921378	-0.074064	0.704374
C346	C	1.421378	0.425936	1.204374
C347	C	0.884568	-0.105685	0.734358
C348	C	1.384568	0.394315	1.234358
H349	H	0.945319	-0.053566	0.733296
H350	H	1.445319	0.446434	1.233296
H351	H	0.897417	-0.050544	0.678824
H352	H	1.397417	0.449456	1.178824
H353	H	0.948676	-0.094701	0.678799
H354	H	1.448676	0.405299	1.178799
H355	H	0.857262	-0.085085	0.759962
H356	H	1.357262	0.414915	1.259962
H357	H	0.908561	-0.129207	0.759876
H358	H	1.408561	0.370793	1.259876
O359	O	0.821538	-1.048696	0.186155
O360	O	1.321538	-0.548696	0.686155
C361	C	0.847038	-1.063098	0.097271
C362	C	1.347038	-0.563098	0.597271
C363	C	0.810237	-1.037280	0.134004
C364	C	1.310237	-0.537280	0.634004
H365	H	0.837921	-1.053871	0.055099
H366	H	1.337921	-0.553871	0.555099
H367	H	0.841284	-1.100664	0.102991
H368	H	1.341284	-0.600664	0.602991
H369	H	0.889184	-1.053850	0.106536
H370	H	1.389184	-0.553850	0.606536
H371	H	0.768076	-1.046491	0.124762
H372	H	1.268076	-0.546491	0.624762
H373	H	0.816036	-0.999720	0.128277
H374	H	1.316036	-0.499720	0.628277
O375	O	0.058404	-0.273305	0.317775
O376	O	0.558404	0.226695	0.817775
C377	C	0.120037	-0.333947	0.324685
C378	C	0.620037	0.166053	0.824685
C379	C	0.090009	-0.302276	0.287990
C380	C	0.590009	0.197724	0.787990
H381	H	0.145606	-0.357372	0.300619
H382	H	0.645606	0.142628	0.800619
H383	H	0.091162	-0.354546	0.348530
H384	H	0.591162	0.145454	0.848530
H385	H	0.145602	-0.313345	0.352077
H386	H	0.645602	0.186655	0.852077
H387	H	0.064444	-0.322843	0.260566
H388	H	0.564444	0.177157	0.760566
H389	H	0.118912	-0.281676	0.264181
H390	H	0.618912	0.218324	0.764181
H391	H	0.849719	-0.829176	0.158047
H392	H	1.349719	-0.329176	0.658047
O393	O	0.689525	-0.476419	0.317873
O394	O	1.189525	0.023581	0.817873
C395	C	0.682469	-0.529345	0.388487
C396	C	1.182469	-0.029345	0.888487
C397	C	0.719243	-0.503502	0.351732
C398	C	1.219243	-0.003502	0.851732
H399	H	0.706482	-0.551240	0.415879
H400	H	1.206482	-0.051240	0.915879
H401	H	0.655165	-0.551376	0.364487
H402	H	1.155165	-0.051376	0.864487
H403	H	0.658531	-0.504521	0.412331
H404	H	1.158531	-0.004521	0.912331
H405	H	0.743215	-0.528293	0.327881
H406	H	1.243215	-0.028293	0.827881
H407	H	0.746512	-0.481464	0.375763
H408	H	1.246512	0.018536	0.875763
O409	O	0.854998	-0.740437	0.152769
O410	O	1.354998	-0.240437	0.652769
C411	C	0.921356	-0.745375	0.086489
C412	C	1.421356	-0.245375	0.586489
C413	C	0.884529	-0.771166	0.123241
C414	C	1.384529	-0.271166	0.623241
H415	H	0.945233	-0.770208	0.062598
H416	H	1.445233	-0.270208	0.562598
H417	H	0.948708	-0.723391	0.110493
H418	H	1.448708	-0.223391	0.610493
H419	H	0.897358	-0.723427	0.059141
H420	H	1.397358	-0.223427	0.559141
H421	H	0.908485	-0.793139	0.150596
H422	H	1.408485	-0.293139	0.650596
H423	H	0.857175	-0.793122	0.099204
H424	H	1.357175	-0.293122	0.599204
H425	H	0.816279	-0.164266	0.953939
H426	H	1.316279	0.335734	1.453939
O427	O	0.821484	-0.159827	0.447381
O428	O	1.321484	0.340173	0.947381
C429	C	0.887890	-0.102857	0.453175
C430	C	1.387890	0.397143	0.953175
C431	C	0.851077	-0.134472	0.483165
C432	C	1.351077	0.365528	0.983165
H433	H	0.911833	-0.082357	0.482092
H434	H	1.411833	0.417643	0.982092
H435	H	0.863931	-0.079338	0.427620
H436	H	1.363931	0.420662	0.927620
H437	H	0.915186	-0.123499	0.427603
H438	H	1.415186	0.376501	0.927603
H439	H	0.823774	-0.113867	0.508765
H440	H	1.323774	0.386133	1.008765
H441	H	0.875069	-0.157992	0.508686
H442	H	1.375069	0.342008	1.008686
O443	O	-0.049346	-0.273221	0.317846
O444	O	0.450654	0.226779	0.817846
C445	C	-0.133473	-0.298739	0.347415
C446	C	0.366527	0.201261	0.847415
C447	C	-0.103404	-0.267107	0.310694
C448	C	0.396596	0.232893	0.810694
H449	H	-0.177184	-0.293814	0.341638
H450	H	0.322816	0.206186	0.841638
H451	H	-0.122751	-0.290901	0.389602
H452	H	0.377249	0.209099	0.889602
H453	H	-0.122739	-0.334949	0.338166
H454	H	0.377261	0.165051	0.838166
H455	H	-0.114122	-0.230886	0.319897
H456	H	0.385878	0.269114	0.819897
H457	H	-0.114128	-0.274984	0.268519
H458	H	0.385872	0.225016	0.768519
O459	O	0.854901	-0.131008	0.806142
O460	O	1.354901	0.368992	1.306142
C461	C	0.862018	-0.070352	0.867810
C462	C	1.362018	0.429648	1.367810
C463	C	0.825216	-0.101983	0.837776
C464	C	1.325216	0.398017	1.337776
H465	H	0.838033	-0.046883	0.893402
H466	H	1.338033	0.453117	1.393402
H467	H	0.885916	-0.049798	0.838940
H468	H	1.385916	0.450202	1.338940
H469	H	0.889356	-0.090983	0.893353
H470	H	1.389356	0.409017	1.393353
H471	H	0.797846	-0.081386	0.812232
H472	H	1.297846	0.418614	1.312232
H473	H	0.801354	-0.122538	0.866674
H474	H	1.301354	0.377462	1.366674
O475	O	0.656120	-0.832871	0.351345
O476	O	1.156120	-0.332871	0.851345
C477	C	0.589726	-0.827938	0.417588
C478	C	1.089726	-0.327938	0.917588
C479	C	0.626524	-0.802144	0.380811
C480	C	1.126524	-0.302144	0.880811
H481	H	0.565780	-0.803107	0.441413
H482	H	1.065780	-0.303107	0.941413
H483	H	0.613696	-0.849858	0.444992
H484	H	1.113696	-0.349858	0.944992
H485	H	0.562431	-0.849951	0.393556
H486	H	1.062431	-0.349951	0.893556
H487	H	0.653826	-0.780108	0.404801
H488	H	1.153826	-0.280108	0.904801
H489	H	0.602521	-0.780253	0.353406
H490	H	1.102521	-0.280253	0.853406
O491	O	0.854821	-0.599602	0.152710
O492	O	1.354821	-0.099602	0.652710
C493	C	0.861904	-0.546640	0.082136
C494	C	1.361904	-0.046640	0.582136
C495	C	0.825119	-0.572455	0.118907
C496	C	1.325119	-0.072455	0.618907
H497	H	0.837906	-0.524678	0.054804
H498	H	1.337906	-0.024678	0.554804
H499	H	0.885816	-0.571442	0.058234
H500	H	1.385816	-0.071442	0.558234
H501	H	0.889232	-0.524665	0.106178
H502	H	1.389232	-0.024665	0.606178
H503	H	0.797760	-0.594430	0.094906
H504	H	1.297760	-0.094430	0.594906
H505	H	0.801245	-0.547628	0.142811
H506	H	1.301245	-0.047628	0.642811
O507	O	0.821406	-0.159791	0.554960
O508	O	1.321406	0.340209	1.054960
C509	C	0.828519	-0.099135	0.616630
C510	C	1.328519	0.400865	1.116630
C511	C	0.791720	-0.130765	0.586591
C512	C	1.291720	0.369235	1.086591
H513	H	0.804533	-0.075666	0.642219
H514	H	1.304533	0.424334	1.142219
H515	H	0.852422	-0.078582	0.587762
H516	H	1.352422	0.421418	1.087762
H517	H	0.855854	-0.119767	0.642175
H518	H	1.355854	0.380233	1.142175
H519	H	0.764353	-0.110167	0.561045
H520	H	1.264353	0.389833	1.061045
H521	H	0.767853	-0.151319	0.615486
H522	H	1.267853	0.348681	1.115486
H523	H	0.816089	-0.387503	0.191385
H524	H	1.316089	0.112497	0.691385
O525	O	0.058440	-0.159868	0.186219
O526	O	0.558440	0.340132	0.686219
C527	C	0.120024	-0.153732	0.115606
C528	C	0.620024	0.346268	0.615606
C529	C	0.089973	-0.185367	0.152339
C530	C	0.589973	0.314633	0.652339
H531	H	0.145518	-0.174336	0.088197
H532	H	0.645518	0.325664	0.588197
H533	H	0.145651	-0.130273	0.139624
H534	H	0.645651	0.369727	0.639624
H535	H	0.091118	-0.133163	0.091780
H536	H	0.591118	0.366837	0.591780
H537	H	0.118842	-0.205965	0.176172
H538	H	0.618842	0.294035	0.676172
H539	H	0.064338	-0.208796	0.128291
H540	H	0.564338	0.291204	0.628291
H541	H	0.816288	-0.164248	1.053004
H542	H	1.316288	0.335752	1.553004
H543	H	0.694866	-0.268490	1.052950
H544	H	1.194866	0.231510	1.552950
O545	O	0.689573	-0.273066	0.949687
O546	O	1.189573	0.226934	1.449687
C547	C	0.623176	-0.330039	0.955441
C548	C	1.123176	0.169961	1.455441
C549	C	0.659993	-0.298405	0.985453
C550	C	1.159993	0.201595	1.485453
H551	H	0.599243	-0.350527	0.984345
H552	H	1.099243	0.149473	1.484345
H553	H	0.647132	-0.353569	0.929897
H554	H	1.147132	0.146431	1.429897
H555	H	0.595871	-0.309414	0.929857
H556	H	1.095871	0.190586	1.429857
H557	H	0.687306	-0.318994	1.011065
H558	H	1.187306	0.181006	1.511065
H559	H	0.636005	-0.274874	1.010965
H560	H	1.136005	0.225126	1.510965
H561	H	0.661347	-0.297256	0.801754
H562	H	1.161347	0.202744	1.301754
O563	O	0.689640	-1.048686	0.317958
O564	O	1.189640	-0.548686	0.817958
C565	C	0.623241	-1.043753	0.384197
C566	C	1.123241	-0.543753	0.884197
C567	C	0.660046	-1.017959	0.347425
C568	C	1.160046	-0.517959	0.847425
H569	H	0.599297	-1.018922	0.408022
H570	H	1.099297	-0.518922	0.908022
H571	H	0.647208	-1.065677	0.411600
H572	H	1.147208	-0.565677	0.911600
H573	H	0.595946	-1.065762	0.360159
H574	H	1.095946	-0.565762	0.860159
H575	H	0.687348	-0.995926	0.371420
H576	H	1.187348	-0.495926	0.871420
H577	H	0.636047	-0.996064	0.320020
H578	H	1.136047	-0.496064	0.820020
H579	H	0.661328	-0.297268	0.702705
H580	H	1.161328	0.202732	1.202705
H581	H	-0.044960	-0.164338	0.191499
H582	H	0.455040	0.335662	0.691499
H583	H	0.305276	-0.135522	0.158101
H584	H	0.805276	0.364478	0.658101
O585	O	0.201894	-0.301956	0.351260
O586	O	0.701894	0.198044	0.851260
C587	C	0.140263	-0.308114	0.421829
C588	C	0.640263	0.191886	0.921829
C589	C	0.170289	-0.276470	0.385086
C590	C	0.670289	0.223530	0.885086
H591	H	0.114694	-0.287521	0.449179
H592	H	0.614694	0.212479	0.949179
H593	H	0.169138	-0.328666	0.445713
H594	H	0.669138	0.171334	0.945713
H595	H	0.114698	-0.331587	0.397767
H596	H	0.614698	0.168413	0.897767
H597	H	0.195855	-0.252969	0.409108
H598	H	0.695855	0.247031	0.909108
H599	H	0.141385	-0.255949	0.361200
H600	H	0.641385	0.244051	0.861200
O601	O	0.453055	-0.159841	0.186142
O602	O	0.953055	0.340159	0.686142
C603	C	0.391330	-0.153688	0.115615
C604	C	0.891330	0.346312	0.615615
C605	C	0.421372	-0.185330	0.152332
C606	C	0.921372	0.314670	0.652332
H607	H	0.365698	-0.174282	0.088277
H608	H	0.865698	0.325718	0.588277
H609	H	0.420196	-0.133125	0.091716
H610	H	0.920196	0.366875	0.591716
H611	H	0.365827	-0.130224	0.139699
H612	H	0.865827	0.369776	0.639699
H613	H	0.446875	-0.208821	0.128288
H614	H	0.946875	0.291179	0.628288
H615	H	0.392478	-0.205861	0.176232
H616	H	0.892478	0.294139	0.676232
H617	H	0.206226	-0.135532	0.158104
H618	H	0.706226	0.364468	0.658104
O619	O	0.821465	-0.476245	0.186175
O620	O	1.321465	0.023755	0.686175
C621	C	0.910429	-0.490534	0.160909
C622	C	1.410429	0.009466	0.660909
C623	C	0.873579	-0.464779	0.197654
C624	C	1.373579	0.035221	0.697654
H625	H	0.952572	-0.481280	0.170184
H626	H	1.452572	0.018720	0.670184
H627	H	0.901313	-0.481318	0.118733
H628	H	1.401313	0.018682	0.618733
H629	H	0.904681	-0.528099	0.166633
H630	H	1.404681	-0.028099	0.666633
H631	H	0.879307	-0.427207	0.191977
H632	H	1.379307	0.072793	0.691977
H633	H	0.882704	-0.474032	0.239816
H634	H	1.382704	0.025968	0.739816
O635	O	0.821484	-0.956187	0.186147
O636	O	1.321484	-0.456187	0.686147
C637	C	0.828557	-0.903218	0.115578
C638	C	1.328557	-0.403218	0.615578
C639	C	0.791777	-0.929038	0.152349
C640	C	1.291777	-0.429038	0.652349
H641	H	0.804554	-0.881255	0.088251
H642	H	1.304554	-0.381255	0.588251
H643	H	0.852468	-0.928017	0.091671
H644	H	1.352468	-0.428017	0.591671
H645	H	0.855885	-0.881244	0.139620
H646	H	1.355885	-0.381244	0.639620
H647	H	0.764417	-0.951013	0.128348
H648	H	1.264417	-0.451013	0.628348
H649	H	0.767903	-0.904215	0.176258
H650	H	1.267903	-0.404215	0.676258
O651	O	0.689701	-0.956252	0.317960
O652	O	1.189701	-0.456252	0.817960
C653	C	0.682584	-0.903249	0.388524
C654	C	1.182584	-0.403249	0.888524
C655	C	0.719385	-0.929033	0.351758
C656	C	1.219385	-0.429033	0.851758
H657	H	0.706568	-0.881229	0.415852
H658	H	1.206568	-0.381229	0.915852
H659	H	0.658688	-0.928072	0.412431
H660	H	1.158688	-0.428072	0.912431
H661	H	0.655242	-0.881335	0.364479
H662	H	1.155242	-0.381335	0.864479
H663	H	0.746758	-0.950948	0.375763
H664	H	1.246758	-0.450948	0.875763
H665	H	0.743244	-0.904186	0.327849
H666	H	1.243244	-0.404186	0.827849
H667	H	0.849671	-0.688417	0.158025
H668	H	1.349671	-0.188417	0.658025
O669	O	0.656142	-0.692164	0.351367
O670	O	1.156142	-0.192164	0.851367
C671	C	0.630696	-0.706465	0.440284
C672	C	1.130696	-0.206465	0.940284
C673	C	0.667474	-0.680658	0.403498
C674	C	1.167474	-0.180658	0.903498
H675	H	0.639837	-0.697165	0.482439
H676	H	1.139837	-0.197165	0.982439
H677	H	0.636450	-0.744033	0.434606
H678	H	1.136450	-0.244033	0.934606
H679	H	0.588544	-0.697279	0.431033
H680	H	1.088544	-0.197279	0.931033
H681	H	0.709640	-0.689806	0.412726
H682	H	1.209640	-0.189806	0.912726
H683	H	0.661674	-0.643096	0.409183
H684	H	1.161674	-0.143096	0.909183
H685	H	0.661316	-0.603386	0.346032
H686	H	1.161316	-0.103386	0.846032
H687	H	0.694677	-0.387554	0.312587
H688	H	1.194677	0.112446	0.812587
