data_functionalizedCrystal
_audit_creation_method	'MofGen! by Chris Wilmer'
_symmetry_space_group_name_H-M	'P1'
_symmetry_Int_Tables_number	1
_symmetry_cell_setting	triclinic
loop_
_symmetry_equiv_pos_as_xyz
  x,y,z
_cell_length_a	8.559649
_cell_length_b	14.044220
_cell_length_c	7.681481
_cell_angle_alpha	83.732834
_cell_angle_beta	94.913240
_cell_angle_gamma	81.483771
loop_
_atom_site_label
_atom_site_type_symbol
_atom_site_fract_x
_atom_site_fract_y
_atom_site_fract_z
O1	O	2.101908	-0.021858	-0.146399
O2	O	2.435241	0.311476	0.186934
O3	O	2.768574	0.644809	0.520268
O4	O	1.643608	0.026593	-0.146411
O5	O	1.976942	0.359926	0.186922
O6	O	2.310275	0.693259	0.520256
O7	O	1.865881	-0.135117	-0.146388
O8	O	2.199214	0.198216	0.186945
O9	O	2.532547	0.531549	0.520279
O10	O	1.879635	0.139853	-0.146422
O11	O	2.212969	0.473186	0.186911
O12	O	2.546302	0.806519	0.520244
O13	O	1.893233	-0.155061	0.146473
O14	O	2.226566	0.178272	0.479806
O15	O	2.559900	0.511605	0.813139
O16	O	1.670961	0.006649	0.146449
O17	O	2.004294	0.339982	0.479783
O18	O	2.337627	0.673316	0.813116
O19	O	2.129260	-0.041802	0.146461
O20	O	2.462593	0.291532	0.479795
O21	O	2.795927	0.624865	0.813128
Zn22	Zn	1.904453	-0.020743	0.192953
Zn23	Zn	2.237786	0.312590	0.526287
Zn24	Zn	2.571120	0.645924	0.859620
Zn25	Zn	1.868415	0.005534	-0.192903
Zn26	Zn	2.201749	0.338867	0.140430
Zn27	Zn	2.535082	0.672201	0.473764
O28	O	1.906988	0.119909	0.146438
O29	O	2.240321	0.453242	0.479772
O30	O	2.573654	0.786575	0.813105
C31	C	1.598278	0.020293	0.000018
C32	C	1.931611	0.353626	0.333351
C33	C	2.264944	0.686959	0.666684
C34	C	1.422455	0.031222	0.000014
C35	C	1.755788	0.364555	0.333347
C36	C	2.089122	0.697889	0.666680
C37	C	1.873534	-0.179966	0.000043
C38	C	2.206868	0.153368	0.333376
C39	C	2.540201	0.486701	0.666710
C40	C	1.855571	-0.283884	0.000045
C41	C	2.188904	0.049450	0.333378
C42	C	2.522237	0.382783	0.666711
C43	C	1.822727	-0.474153	0.000018
C44	C	2.156060	-0.140819	0.333352
C45	C	2.489393	0.192514	0.666685
C46	C	1.950133	-0.541060	0.000016
C47	C	2.283466	-0.207727	0.333350
C48	C	2.616800	0.125606	0.666683
C49	C	1.931858	-0.646933	0.000002
C50	C	2.265192	-0.313599	0.333335
C51	C	2.598525	0.019734	0.666669
C52	C	1.840999	-0.368270	0.000033
C53	C	2.174333	-0.034937	0.333366
C54	C	2.507666	0.298396	0.666700
C55	C	2.174590	-0.035501	0.000029
C56	C	2.507924	0.297832	0.333362
C57	C	2.841257	0.631165	0.666695
C58	C	2.350412	-0.046430	0.000021
C59	C	2.683745	0.286903	0.333354
C60	C	3.017079	0.620237	0.666688
C61	C	1.899334	0.164757	0.000003
C62	C	2.232667	0.498090	0.333337
C63	C	2.566000	0.831424	0.666670
C64	C	1.917296	0.268676	-0.000010
C65	C	2.250629	0.602009	0.333324
C66	C	2.583963	0.935343	0.666657
N67	N	1.929059	-0.038678	0.456290
N68	N	2.262393	0.294656	0.789624
N69	N	2.595726	0.627989	1.122957
N70	N	1.843820	0.023461	-0.456240
N71	N	2.177154	0.356794	-0.122907
N72	N	2.510487	0.690127	0.210427
H73	H	1.423241	-0.121272	0.000022
H74	H	1.756575	0.212062	0.333355
H75	H	2.089908	0.545395	0.666688
H76	H	1.349615	0.106070	-0.000005
H77	H	1.682949	0.439403	0.333328
H78	H	2.016282	0.772737	0.666662
Cl79	Cl	2.139731	-0.506742	0.000040
Cl80	Cl	2.473064	-0.173409	0.333374
Cl81	Cl	2.806398	0.159924	0.666707
H82	H	1.699936	-0.496383	0.000011
H83	H	2.033269	-0.163049	0.333344
H84	H	2.366603	0.170284	0.666678
Cl85	Cl	1.709475	0.121387	0.427650
Cl86	Cl	2.042808	0.454720	0.760984
Cl87	Cl	2.376142	0.788053	1.094317
H88	H	2.016090	-0.102101	0.531505
H89	H	2.349424	0.231232	0.864838
H90	H	2.682757	0.564565	1.198172
