data_functionalizedCrystal
_audit_creation_method	'MofGen! by Chris Wilmer'
_symmetry_space_group_name_H-M	'P1'
_symmetry_Int_Tables_number	1
_symmetry_cell_setting	triclinic
loop_
_symmetry_equiv_pos_as_xyz
  x,y,z
_cell_length_a	10.654545
_cell_length_b	12.811415
_cell_length_c	9.130313
_cell_angle_alpha	84.564622
_cell_angle_beta	89.996934
_cell_angle_gamma	84.262263
loop_
_atom_site_label
_atom_site_type_symbol
_atom_site_fract_x
_atom_site_fract_y
_atom_site_fract_z
O1	O	1.667077	0.147404	-0.141361
O2	O	1.301525	0.161455	-0.143233
O3	O	1.493497	0.001704	-0.122004
O4	O	1.475105	0.307155	-0.162589
O5	O	1.493484	0.001699	0.121595
O6	O	1.301512	0.161450	0.100367
O7	O	1.667064	0.147399	0.102239
Cu8	Cu	1.484287	0.154424	0.123545
Cu9	Cu	1.484302	0.154430	-0.164539
O10	O	1.475092	0.307151	0.081011
C11	C	1.254726	0.160422	-0.021297
C12	C	1.115298	0.157338	-0.020889
C13	C	1.049794	0.155884	0.112090
C14	C	0.918790	0.152969	0.112478
C15	C	0.918805	0.152967	-0.153107
C16	C	1.049808	0.155874	-0.153492
C17	C	1.492460	-0.037411	0.004989
C18	C	1.489373	-0.153951	0.020464
C19	C	1.483565	-0.372927	-0.216060
C20	C	1.480665	-0.482427	-0.201527
C21	C	1.480664	-0.482453	0.064062
C22	C	1.483564	-0.372953	0.049529
C23	C	1.485016	-0.318194	-0.090537
C24	C	1.487925	-0.208692	-0.105068
C25	C	1.487915	-0.208720	0.160519
C26	C	1.485015	-0.318220	0.175052
C27	C	1.713863	0.148432	-0.019700
C28	C	1.853291	0.151516	-0.020117
C29	C	1.476129	0.346265	-0.045986
C30	C	1.479216	0.462805	-0.061470
N31	N	1.484285	0.154420	0.326169
N32	N	1.484314	0.154426	-0.367161
C33	C	1.569319	0.083712	0.412216
C34	C	1.569331	0.083712	0.565553
C35	C	1.399271	0.225137	0.546780
C36	C	1.399254	0.225131	0.393447
H37	H	1.103143	0.157056	-0.261786
Br38	Br	0.829896	0.150994	0.292959
H39	H	1.103112	0.157076	0.220064
Br40	Br	1.478686	-0.556705	-0.371886
Br41	Br	0.829922	0.150949	-0.333054
Br42	Br	1.489905	-0.134378	-0.295153
Br43	Br	1.283878	0.321101	0.638091
Br44	Br	1.485561	-0.298608	-0.406141
H45	H	1.479471	-0.527056	0.178096
H46	H	1.483828	-0.362819	0.289089
H47	H	1.489102	-0.164145	0.262729
H48	H	1.638555	0.026133	0.357443
H49	H	1.330003	0.282710	0.323381
H50	H	1.638572	0.026134	0.635610
