data_functionalizedCrystal
_audit_creation_method	'MofGen! by Chris Wilmer'
_symmetry_space_group_name_H-M	'P1'
_symmetry_Int_Tables_number	1
_symmetry_cell_setting	triclinic
loop_
_symmetry_equiv_pos_as_xyz
  x,y,z
_cell_length_a	18.101398
_cell_length_b	18.101395
_cell_length_c	14.908308
_cell_angle_alpha	93.264195
_cell_angle_beta	86.727651
_cell_angle_gamma	89.964856
loop_
_atom_site_label
_atom_site_type_symbol
_atom_site_fract_x
_atom_site_fract_y
_atom_site_fract_z
Zn1	Zn	1.107906	0.319030	0.510218
Zn2	Zn	1.607906	0.819030	1.010218
Zn3	Zn	1.114938	0.435737	0.359360
Zn4	Zn	1.614938	0.935737	0.859360
Zn5	Zn	0.991215	0.311909	0.359363
Zn6	Zn	1.491215	0.811909	0.859363
Zn7	Zn	0.984005	0.442826	0.510152
Zn8	Zn	1.484005	0.942826	1.010152
O9	O	1.049516	0.377375	0.434773
O10	O	1.549516	0.877375	0.934773
O11	O	1.212470	0.334525	0.490233
O12	O	1.712470	0.834525	0.990233
O13	O	1.104486	0.413363	0.233120
O14	O	1.604486	0.913363	0.733120
O15	O	1.006768	0.209222	0.379403
O16	O	1.506768	0.709222	0.879403
O17	O	1.217637	0.420268	0.379399
O18	O	1.717637	0.920268	0.879399
O19	O	1.092501	0.214454	0.490236
O20	O	1.592501	0.714454	0.990236
O21	O	1.013587	0.322387	0.233122
O22	O	1.513587	0.822387	0.733122
O23	O	0.886627	0.329262	0.379339
O24	O	1.386627	0.829262	0.879339
O25	O	0.994480	0.432352	0.636401
O26	O	1.494480	0.932352	1.136401
O27	O	0.881330	0.425446	0.490123
O28	O	1.381330	0.925446	0.990123
O29	O	1.085509	0.341399	0.636450
O30	O	1.585509	0.841399	1.136450
O31	O	1.097495	0.540309	0.379334
O32	O	1.597495	1.040309	0.879334
O33	O	1.001299	0.545517	0.490121
O34	O	1.501299	1.045517	0.990121
C35	C	0.857108	0.377351	0.434724
C36	C	1.357108	0.877351	0.934724
C37	C	0.774793	0.377360	0.434725
C38	C	1.274793	0.877360	0.934725
C39	C	1.049397	0.569784	0.434740
C40	C	1.549397	1.069784	0.934740
C41	C	1.049413	0.652099	0.434755
C42	C	1.549413	1.152099	0.934755
C43	C	0.624083	0.377377	0.434765
C44	C	1.124083	0.877377	0.934765
C45	C	0.596032	0.316784	0.365179
C46	C	1.096032	0.816784	0.865179
C47	C	0.510403	0.316579	0.365408
C48	C	1.010403	0.816579	0.865408
C49	C	0.475699	0.377394	0.434804
C50	C	0.975699	0.877394	0.934804
C51	C	0.502330	0.361066	0.529984
C52	C	1.002330	0.861066	1.029984
C53	C	0.587995	0.360622	0.529560
C54	C	1.087995	0.860622	1.029560
C55	C	0.593644	0.454486	0.410011
C56	C	1.093644	0.954486	0.910011
C57	C	0.508091	0.453975	0.407936
C58	C	1.008091	0.953975	0.907936
C59	C	0.391838	0.377405	0.434831
C60	C	0.891838	0.877405	0.934831
C61	C	0.707944	0.377364	0.434744
C62	C	1.207944	0.877364	0.934744
C63	C	1.049481	0.802809	0.434795
C64	C	1.549481	1.302809	0.934795
C65	C	0.988928	0.837469	0.504445
C66	C	1.488928	1.337469	1.004445
C67	C	0.989122	0.923101	0.504741
C68	C	1.489122	1.423101	1.004741
C69	C	1.049548	0.951194	0.434834
C70	C	1.549548	1.451194	0.934834
C71	C	1.126413	0.921225	0.460418
C72	C	1.626413	1.421225	0.960418
C73	C	1.126020	0.835603	0.460902
C74	C	1.626020	1.335603	0.960902
C75	C	1.033875	0.829930	0.339393
C76	C	1.533875	1.329930	0.839393
C77	C	1.032168	0.915607	0.339923
C78	C	1.532168	1.415607	0.839923
C79	C	1.049590	1.035054	0.434854
C80	C	1.549590	1.535054	0.934854
C81	C	1.049444	0.718949	0.434777
C82	C	1.549444	1.218949	0.934777
C83	C	1.242675	0.377400	0.434823
C84	C	1.742675	0.877400	0.934823
C85	C	1.324988	0.377411	0.434844
C86	C	1.824988	0.877411	0.934844
C87	C	1.038406	0.388461	0.670074
C88	C	1.538406	0.888461	1.170074
C89	C	1.033672	0.393185	0.770345
C90	C	1.533672	0.893185	1.270345
C91	C	1.049630	1.184216	0.434833
C92	C	1.549630	1.684216	0.934833
C93	C	1.049617	1.101904	0.434873
C94	C	1.549617	1.601904	0.934873
C95	C	1.060625	0.366280	0.200389
C96	C	1.560625	0.866280	0.700389
C97	C	1.065503	0.361347	0.100118
C98	C	1.565503	0.861347	0.600118
C99	C	1.119562	0.307335	0.958817
C100	C	1.619562	0.807335	1.458817
C101	C	1.115116	0.311771	1.053030
C102	C	1.615116	0.811771	1.553030
C103	C	1.020330	0.406489	1.052987
C104	C	1.520330	0.906489	1.552987
C105	C	1.024776	0.402053	0.958773
C106	C	1.524776	0.902053	1.458773
C107	C	1.074395	0.352475	0.911691
C108	C	1.574395	0.852475	1.411691
C109	C	1.078844	0.348043	0.817476
C110	C	1.578844	0.848043	1.317476
C111	C	0.984055	0.442756	0.817435
C112	C	1.484055	0.942756	1.317435
C113	C	0.979609	0.447192	0.911648
C114	C	1.479609	0.947192	1.411648
H115	H	0.492689	0.326236	0.294844
H116	H	0.992689	0.826236	0.794844
H117	H	0.975622	0.935083	0.320625
H118	H	1.475622	1.435083	0.820625
H119	H	0.607014	0.304401	0.550483
H120	H	1.107014	0.804401	1.050483
H121	H	0.479906	0.305496	0.551277
H122	H	0.979906	0.805496	1.051277
H123	H	1.078029	0.807183	0.287500
H124	H	1.578029	1.307183	0.787500
Br125	Br	0.468768	0.532606	0.486235
Br126	Br	0.968768	1.032606	0.986235
Br127	Br	0.952990	0.473759	1.116899
Br128	Br	1.452990	0.973759	1.616899
H129	H	0.491053	0.466374	0.337888
H130	H	0.991053	0.966374	0.837888
H131	H	1.119247	0.307676	0.779144
H132	H	1.619247	0.807676	1.279144
H133	H	0.489168	0.259356	0.381843
H134	H	0.989168	0.759356	0.881843
H135	H	0.611511	0.499572	0.460694
H136	H	1.111511	0.999572	0.960694
H137	H	0.606194	0.403098	0.583202
H138	H	1.106194	0.903098	1.083202
H139	H	1.139751	0.818874	0.530634
H140	H	1.639751	1.318874	1.030634
H141	H	1.172585	0.939232	0.411260
H142	H	1.672585	1.439232	0.911260
Br143	Br	0.893895	0.956989	0.478100
Br144	Br	1.393895	1.456989	0.978100
Br145	Br	0.893351	0.802003	0.478106
Br146	Br	1.393351	1.302003	0.978106
H147	H	1.172444	0.812553	0.412366
H148	H	1.672444	1.312553	0.912366
H149	H	0.619927	0.326282	0.294381
H150	H	1.119927	0.826282	0.794381
H151	H	1.140495	0.945886	0.529396
H152	H	1.640495	1.445886	1.029396
Br153	Br	1.176415	0.250505	1.116984
Br154	Br	1.676415	0.750505	1.616984
Br155	Br	1.186909	0.240065	0.894916
Br156	Br	1.686909	0.740065	1.394916
H157	H	0.479459	0.404051	0.583267
H158	H	0.979459	0.904051	1.083267
Br159	Br	1.005338	0.807072	0.621600
Br160	Br	1.505338	1.307072	1.121600
Br161	Br	0.912271	0.514470	0.975552
Br162	Br	1.412271	1.014470	1.475552
H163	H	1.073414	0.934407	0.285278
H164	H	1.573414	1.434407	0.785278
H165	H	0.978998	0.807292	0.316051
H166	H	1.478998	1.307292	0.816051
H167	H	0.618438	0.470279	0.341764
H168	H	1.118438	0.970279	0.841764
H169	H	0.616817	0.259875	0.381403
H170	H	1.116817	0.759875	0.881403
Br171	Br	0.922763	0.504032	0.753474
Br172	Br	1.422763	1.004032	1.253474
H173	H	0.999154	0.946886	0.575434
H174	H	1.499154	1.446886	1.075434
