data_functionalizedCrystal
_audit_creation_method	'MofGen! by Chris Wilmer'
_symmetry_space_group_name_H-M	'P1'
_symmetry_Int_Tables_number	1
_symmetry_cell_setting	triclinic
loop_
_symmetry_equiv_pos_as_xyz
  x,y,z
_cell_length_a	15.944551
_cell_length_b	16.098538
_cell_length_c	15.944493
_cell_angle_alpha	87.271722
_cell_angle_beta	83.486891
_cell_angle_gamma	92.734390
loop_
_atom_site_label
_atom_site_type_symbol
_atom_site_fract_x
_atom_site_fract_y
_atom_site_fract_z
O1	O	1.118258	0.069158	0.104587
O2	O	0.873707	0.069178	0.117942
O3	O	1.002686	0.069175	-0.011014
O4	O	0.989278	0.069162	0.233543
O5	O	0.995152	-0.069338	-0.003511
O6	O	0.866172	-0.069335	0.125446
O7	O	1.110724	-0.069354	0.112090
Zn8	Zn	0.987252	-0.091336	0.119959
Zn9	Zn	0.997178	0.091160	0.110073
O10	O	0.981744	-0.069351	0.241046
C11	C	0.838646	-0.000076	0.121139
C12	C	0.745400	-0.000068	0.119476
N13	N	0.980483	-0.215885	0.126706
C14	C	0.530560	-0.000080	0.035570
C15	C	0.473247	0.068212	0.070834
C16	C	0.574675	-0.000078	0.116470
C17	C	0.465841	-0.068350	0.078251
C18	C	0.409762	-0.000091	0.113559
C19	C	0.518592	0.068271	0.151753
C20	C	0.511189	-0.068353	0.159162
C21	C	0.453894	-0.000044	0.194484
C22	C	0.669677	-0.000069	0.118144
C23	C	0.314761	-0.000093	0.111891
C24	C	1.035247	-0.259472	0.071991
C25	C	1.030520	-0.346661	0.076718
C26	C	0.971032	-0.390262	0.136165
C27	C	0.916262	-0.346669	0.190882
C28	C	0.920986	-0.259482	0.186150
C29	C	0.953908	-0.653511	0.153305
C30	C	0.949190	-0.740705	0.158035
C31	C	1.063447	-0.740690	0.043869
C32	C	1.068169	-0.653501	0.039145
C33	C	1.013396	-0.609916	0.093860
C34	C	0.966200	-0.479383	0.141001
C35	C	1.018224	-0.520797	0.089020
C36	C	1.145785	-0.000099	0.108893
C37	C	1.239030	-0.000101	0.110555
C38	C	0.998371	-0.000078	-0.038557
C39	C	0.996729	-0.000068	-0.131807
N40	N	1.003954	0.215709	0.103320
C41	C	1.072648	-0.000089	-0.367565
C42	C	1.035422	0.068207	-0.421833
C43	C	0.993684	-0.000077	-0.302527
C44	C	1.027975	-0.068355	-0.414411
C45	C	0.990749	-0.000091	-0.467436
C46	C	0.956483	0.068276	-0.355570
C47	C	0.949044	-0.068348	-0.348141
C48	C	0.911761	-0.000035	-0.402377
C49	C	0.995378	-0.000069	-0.207528
C50	C	0.989050	-0.000093	-0.562433
C51	C	0.986059	-0.000096	0.268589
C52	C	0.987702	-0.000102	0.361838
H53	H	0.563912	0.000008	-0.031574
H54	H	0.926298	0.126077	-0.329881
C55	C	1.164533	-0.000012	-0.346449
H56	H	1.171745	-0.048561	-0.312314
H57	H	1.176623	0.048049	-0.316691
H58	H	1.201920	0.000512	-0.397320
C59	C	1.068797	-0.146357	-0.449260
H60	H	1.125925	-0.146270	-0.437602
H61	H	1.066983	-0.146071	-0.508617
H62	H	1.038676	-0.194852	-0.423043
C63	C	0.883706	-0.788664	0.223384
H64	H	0.851743	-0.750220	0.255275
H65	H	0.912025	-0.822691	0.260236
H66	H	0.846927	-0.822661	0.194937
H67	H	0.541717	0.126069	0.182813
C68	C	0.409075	0.000001	0.285269
H69	H	0.427221	0.048556	0.311237
H70	H	0.422682	-0.048054	0.316822
H71	H	0.349665	-0.000454	0.283752
H72	H	0.528173	-0.126096	0.196478
C73	C	1.084712	0.146198	-0.465170
H74	H	1.141836	0.146112	-0.453520
H75	H	1.059862	0.194699	-0.444234
H76	H	1.082860	0.145885	-0.524498
C77	C	1.123685	-0.788631	-0.016320
H78	H	1.159793	-0.750176	-0.052399
H79	H	1.091634	-0.822649	-0.049460
H80	H	1.156806	-0.822636	0.015766
H81	H	0.442622	-0.126084	0.047147
C82	C	0.860749	-0.211533	0.246336
H83	H	0.872076	-0.153363	0.234999
H84	H	0.869082	-0.225815	0.303180
H85	H	0.803918	-0.225831	0.237946
H86	H	0.456285	0.125952	0.033489
H87	H	0.909311	-0.618031	0.197857
C88	C	1.100683	-0.211519	0.006598
H89	H	1.132615	-0.249968	-0.025316
H90	H	1.137485	-0.177498	0.034987
H91	H	1.072312	-0.177516	-0.030237
C92	C	1.090769	-0.394602	0.016540
H93	H	1.126882	-0.356148	-0.019533
H94	H	1.058728	-0.428623	-0.016606
H95	H	1.123882	-0.428604	0.048637
C96	C	1.133601	-0.605546	-0.026251
H97	H	1.165535	-0.643993	-0.058166
H98	H	1.170401	-0.571526	0.002140
H99	H	1.105228	-0.571544	-0.063085
H100	H	0.867821	-0.382174	0.239283
C101	C	0.900738	-0.527343	0.206363
H102	H	0.868784	-0.488900	0.238264
H103	H	0.929072	-0.561369	0.243203
H104	H	0.863950	-0.561341	0.177928
H105	H	1.066656	-0.485295	0.040615
C106	C	0.819811	0.000021	-0.423283
H107	H	0.794535	0.048580	-0.403010
H108	H	0.788956	-0.048030	-0.396974
H109	H	0.819221	-0.000434	-0.482771
H110	H	0.912584	-0.126086	-0.316053
