data_functionalizedCrystal
_audit_creation_method	'MofGen! by Chris Wilmer'
_symmetry_space_group_name_H-M	'P1'
_symmetry_Int_Tables_number	1
_symmetry_cell_setting	triclinic
loop_
_symmetry_equiv_pos_as_xyz
  x,y,z
_cell_length_a	14.908571
_cell_length_b	16.120484
_cell_length_c	14.908308
_cell_angle_alpha	95.986071
_cell_angle_beta	90.175053
_cell_angle_gamma	89.787312
loop_
_atom_site_label
_atom_site_type_symbol
_atom_site_fract_x
_atom_site_fract_y
_atom_site_fract_z
Zn1	Zn	1.320097	-0.434923	-0.609960
Zn2	Zn	1.321040	-0.566744	-0.466383
Zn3	Zn	1.179340	-0.418915	-0.450134
Zn4	Zn	1.162126	-0.565754	-0.607984
O5	O	1.245651	-0.496584	-0.533615
O6	O	1.445636	-0.459523	-0.598542
O7	O	1.309843	-0.540849	-0.338080
O8	O	1.204822	-0.304418	-0.465363
O9	O	1.446329	-0.556371	-0.493056
O10	O	1.308235	-0.316179	-0.582786
O11	O	1.205736	-0.432240	-0.326142
O12	O	1.051643	-0.431280	-0.463446
O13	O	1.175482	-0.554684	-0.734394
O14	O	1.038995	-0.539162	-0.579418
O15	O	1.291543	-0.458562	-0.735846
O16	O	1.293150	-0.683233	-0.491140
O17	O	1.176396	-0.682506	-0.595173
C18	C	1.012801	-0.483377	-0.519455
C19	C	0.913184	-0.477748	-0.513419
C20	C	1.233031	-0.713110	-0.544726
C21	C	1.227712	-0.805747	-0.549515
C22	C	0.712871	-0.579666	-0.622692
C23	C	0.619272	-0.574380	-0.617025
C24	C	0.632384	-0.461887	-0.496421
C25	C	0.725983	-0.467173	-0.502089
C26	C	0.766223	-0.526065	-0.565226
C27	C	0.859824	-0.531355	-0.570888
C28	C	0.872935	-0.418858	-0.450290
C29	C	0.779335	-0.413572	-0.444622
C30	C	1.218005	-0.975358	-0.558276
C31	C	1.273456	-1.016980	-0.508979
C32	C	1.268055	-1.111356	-0.513854
C33	C	1.223405	-0.880972	-0.553403
C34	C	1.479410	-0.509843	-0.547832
C35	C	1.579025	-0.515493	-0.553890
C36	C	1.231487	-0.508298	-0.768743
C37	C	1.225451	-0.513290	-0.868941
C38	C	1.258344	-0.279214	-0.522482
C39	C	1.263752	-0.186584	-0.517738
C40	C	1.334963	-0.422560	-1.058735
C41	C	1.329294	-0.427248	-1.152880
C42	C	1.208443	-0.527348	-1.151376
C43	C	1.214111	-0.522661	-1.057231
C44	C	1.277374	-0.470266	-1.010914
C45	C	1.283046	-0.465583	-0.916769
C46	C	1.162191	-0.565679	-0.915266
C47	C	1.156523	-0.570366	-1.009410
C48	C	1.259815	-0.484858	-0.299402
C49	C	1.266038	-0.479641	-0.199204
H50	H	0.892586	-0.579309	-0.622296
C51	C	1.098819	-0.618150	-0.862671
C52	C	1.034455	-0.574819	-0.791832
C53	C	0.971079	-0.627287	-0.739241
C54	C	0.972068	-0.723086	-0.757489
C55	C	1.036435	-0.766422	-0.828331
C56	C	1.099811	-0.713954	-0.880922
H57	H	1.033720	-0.503898	-0.778321
H58	H	0.923431	-0.595206	-0.686799
H59	H	0.925154	-0.761926	-0.718559
H60	H	1.037170	-0.837342	-0.841843
H61	H	1.147459	-0.746034	-0.933364
H62	H	0.575836	-0.618026	-0.663822
C63	C	0.757144	-0.644448	-0.692134
C64	C	0.739221	-0.738077	-0.688692
C65	C	0.783493	-0.802860	-0.758133
C66	C	0.845687	-0.774014	-0.831018
C67	C	0.863613	-0.680381	-0.834463
C68	C	0.819341	-0.615597	-0.765021
H69	H	0.693179	-0.759434	-0.634736
H70	H	0.770223	-0.872174	-0.755583
H71	H	0.878460	-0.821971	-0.882423
H72	H	0.909655	-0.659023	-0.888419
H73	H	0.832611	-0.546283	-0.767572
C74	C	1.086951	-0.628008	-1.060372
C75	C	1.089540	-0.722518	-1.052730
C76	C	1.019975	-0.780167	-1.103693
C77	C	0.947821	-0.743307	-1.162299
C78	C	0.945230	-0.648792	-1.169944
C79	C	1.014795	-0.591143	-1.118980
H80	H	1.142954	-0.749808	-1.009344
H81	H	1.021893	-0.850133	-1.098033
H82	H	0.896325	-0.785982	-1.200025
H83	H	0.891816	-0.621502	-1.213329
H84	H	1.012877	-0.521177	-1.124640
H85	H	0.599604	-0.413934	-0.445024
C86	C	1.343065	-0.969373	-0.447007
C87	C	1.341327	-0.975784	-0.344687
C88	C	1.410931	-0.928175	-0.282713
C89	C	1.482271	-0.874155	-0.323060
C90	C	1.484012	-0.867743	-0.425385
C91	C	1.414409	-0.915352	-0.487359
H92	H	1.288514	-1.015774	-0.314815
H93	H	1.409642	-0.932922	-0.206965
H94	H	1.533796	-0.838912	-0.277184
H95	H	1.536825	-0.827752	-0.455257
H96	H	1.415698	-0.910604	-0.563107
H97	H	0.746559	-0.365621	-0.393220
H98	H	1.166480	-1.010601	-0.604138
H99	H	1.334559	-0.422921	-0.879059
H100	H	1.386478	-0.379902	-1.021024
H101	H	1.376187	-0.388398	-1.191812
H102	H	1.156937	-0.570005	-1.189103
H103	H	0.916384	-0.375214	-0.403494
