data_functionalizedCrystal
_audit_creation_method	'MofGen! by Chris Wilmer'
_symmetry_space_group_name_H-M	'P1'
_symmetry_Int_Tables_number	1
_symmetry_cell_setting	triclinic
loop_
_symmetry_equiv_pos_as_xyz
  x,y,z
_cell_length_a	17.640112
_cell_length_b	18.050589
_cell_length_c	17.639306
_cell_angle_alpha	101.190077
_cell_angle_beta	87.804122
_cell_angle_gamma	101.252307
loop_
_atom_site_label
_atom_site_type_symbol
_atom_site_fract_x
_atom_site_fract_y
_atom_site_fract_z
Zn1	Zn	1.247732	-0.095461	-0.195075
Zn2	Zn	1.747732	0.404539	0.304925
Zn3	Zn	1.221978	-0.200438	-0.068110
Zn4	Zn	1.721978	0.299562	0.431890
Zn5	Zn	1.095083	-0.105261	-0.093729
Zn6	Zn	1.595083	0.394739	0.406271
Zn7	Zn	1.120685	-0.248636	-0.220686
Zn8	Zn	1.620685	0.251364	0.279314
O9	O	1.171370	-0.162449	-0.144400
O10	O	1.671370	0.337551	0.355600
O11	O	1.350592	-0.085113	-0.156793
O12	O	1.850592	0.414887	0.343207
O13	O	1.183652	-0.171742	0.034759
O14	O	1.683652	0.328258	0.534759
O15	O	1.115396	-0.000025	-0.107176
O16	O	1.615396	0.499975	0.392824
O17	O	1.331670	-0.162239	-0.063512
O18	O	1.831670	0.337761	0.436488
O19	O	1.227547	0.007175	-0.181635
O20	O	1.727547	0.507175	0.318365
O21	O	1.090423	-0.101817	0.015937
O22	O	1.590423	0.398183	0.515937
O23	O	0.992204	-0.148553	-0.132010
O24	O	1.492204	0.351447	0.367990
O25	O	1.159031	-0.244387	-0.323556
O26	O	1.659031	0.255613	0.176444
O27	O	1.011014	-0.253890	-0.225284
O28	O	1.511014	0.246110	0.274716
O29	O	1.252372	-0.131849	-0.304740
O30	O	1.752372	0.368151	0.195260
O31	O	1.208478	-0.310767	-0.088346
O32	O	1.708478	0.189233	0.411654
O33	O	1.134058	-0.346178	-0.200443
O34	O	1.634058	0.153822	0.299557
C35	C	0.974053	-0.207515	-0.184207
C36	C	1.474053	0.292485	0.315793
C37	C	0.889643	-0.226816	-0.201254
C38	C	1.389643	0.273184	0.298746
C39	C	0.563035	-0.015814	-0.014898
C40	C	1.063035	0.484186	0.485102
C41	C	0.483721	-0.033967	-0.030927
C42	C	0.983721	0.466033	0.469073
C43	C	0.503329	-0.143759	-0.127887
C44	C	1.003329	0.356241	0.372113
C45	C	0.582646	-0.125614	-0.111869
C46	C	1.082646	0.374386	0.388131
C47	C	0.612492	-0.061641	-0.055373
C48	C	1.112492	0.438359	0.444627
C49	C	0.632103	-0.171441	-0.152344
C50	C	1.132103	0.328559	0.347656
C51	C	0.711413	-0.153299	-0.136324
C52	C	1.211413	0.346701	0.363676
C53	C	0.741265	-0.089331	-0.079829
C54	C	1.241265	0.410669	0.420171
C55	C	0.691802	-0.043500	-0.039353
C56	C	1.191802	0.456500	0.460647
C57	C	0.602254	-0.235417	-0.208835
C58	C	1.102254	0.264583	0.291165
C59	C	0.651712	-0.281243	-0.249310
C60	C	1.151712	0.218757	0.250690
C61	C	0.731024	-0.263099	-0.233294
C62	C	1.231024	0.236901	0.266706
C63	C	0.760876	-0.199131	-0.176799
C64	C	1.260876	0.300869	0.323201
C65	C	0.780487	-0.308930	-0.273770
C66	C	1.280487	0.191070	0.226230
C67	C	0.859797	-0.290789	-0.257750
C68	C	1.359797	0.209211	0.242250
C69	C	0.840186	-0.180989	-0.160779
C70	C	1.340186	0.319011	0.339221
C71	C	1.171275	-0.355420	-0.144406
C72	C	1.671275	0.144580	0.355594
C73	C	1.171310	-0.437962	-0.144420
C74	C	1.671310	0.062038	0.355580
C75	C	1.130887	-0.656682	-0.205350
C76	C	1.630887	-0.156682	0.294650
C77	C	1.098375	-0.699852	-0.139789
C78	C	1.598375	-0.199852	0.360211
C79	C	1.171386	-0.589077	-0.144415
C80	C	1.671386	-0.089077	0.355585
C81	C	1.203937	-0.692981	-0.209976
C82	C	1.703937	-0.192981	0.290024
C83	C	1.171460	-0.735048	-0.144416
C84	C	1.671460	-0.235048	0.355584
C85	C	1.138831	-0.631162	-0.078824
C86	C	1.638831	-0.131162	0.421176
C87	C	1.244434	-0.624287	-0.149052
C88	C	1.744434	-0.124287	0.350948
C89	C	1.211939	-0.667421	-0.083437
C90	C	1.711939	-0.167421	0.416563
C91	C	1.171342	-0.504987	-0.144415
C92	C	1.671342	-0.004987	0.355585
C93	C	1.171503	-0.819135	-0.144408
C94	C	1.671503	-0.319135	0.355592
C95	C	1.369457	-0.117207	-0.104438
C96	C	1.869457	0.382793	0.395562
C97	C	1.453870	-0.097927	-0.087409
C98	C	1.953870	0.402073	0.412591
C99	C	1.211430	-0.192401	-0.342472
C100	C	1.711430	0.307599	0.157528
C101	C	1.228502	-0.205165	-0.426879
C102	C	1.728502	0.294835	0.073121
C103	C	1.171488	0.031278	-0.144406
C104	C	1.671488	0.531278	0.355594
C105	C	1.171539	0.113833	-0.144409
C106	C	1.671539	0.613833	0.355591
C107	C	1.041975	-0.065138	-0.753500
C108	C	1.541975	0.434862	-0.253500
C109	C	1.058033	-0.077144	-0.832809
C110	C	1.558033	0.422856	-0.332809
C111	C	1.155103	-0.149950	-0.813192
C112	C	1.655103	0.350050	-0.313192
C113	C	1.139055	-0.137947	-0.733878
C114	C	1.639055	0.362053	-0.233878
C115	C	1.082490	-0.095542	-0.704039
C116	C	1.582490	0.404458	-0.204039
C117	C	1.179570	-0.168351	-0.684418
C118	C	1.679570	0.331649	-0.184418
C119	C	1.163520	-0.156353	-0.605112
C120	C	1.663520	0.343647	-0.105112
C121	C	1.106956	-0.113951	-0.575267
C122	C	1.606956	0.386049	-0.075267
C123	C	1.066440	-0.083544	-0.624733
C124	C	1.566440	0.416456	-0.124733
C125	C	1.236131	-0.210761	-0.714259
C126	C	1.736131	0.289239	-0.214259
C127	C	1.276646	-0.241164	-0.664799
C128	C	1.776646	0.258836	-0.164799
C129	C	1.260601	-0.229162	-0.585491
C130	C	1.760601	0.270838	-0.085491
C131	C	1.204036	-0.186760	-0.555646
C132	C	1.704036	0.313240	-0.055646
C133	C	1.301117	-0.259569	-0.536024
C134	C	1.801117	0.240431	-0.036024
C135	C	1.285067	-0.247571	-0.456719
C136	C	1.785067	0.252429	0.043281
C137	C	1.187987	-0.174762	-0.476340
C138	C	1.687987	0.325238	0.023660
C139	C	1.131509	-0.132549	0.052911
C140	C	1.631509	0.367451	0.552911
C141	C	1.114584	-0.119543	0.137347
C142	C	1.614584	0.380457	0.637347
H143	H	0.716106	0.008603	0.006640
H144	H	1.216106	0.508603	0.506640
N145	N	0.621219	-0.346595	-0.307007
N146	N	1.121219	0.153405	0.192993
N147	N	0.571527	-0.399957	-0.289151
N148	N	1.071527	0.100043	0.210849
H149	H	0.549992	-0.446112	-0.329901
H150	H	1.049992	0.053888	0.170099
N151	N	1.334443	-0.284460	-0.695267
N152	N	1.834443	0.215540	-0.195267
N153	N	1.370621	-0.311589	-0.651092
N154	N	1.870621	0.188411	-0.151092
H155	H	1.411447	-0.342161	-0.672606
H156	H	1.911447	0.157839	-0.172606
H157	H	1.036637	-0.732629	-0.135872
H158	H	1.536637	-0.232629	0.364128
H159	H	1.141934	-0.140221	-0.452042
H160	H	1.641934	0.359779	0.047958
N161	N	0.984208	-0.021812	-0.722992
N162	N	1.484208	0.478188	-0.222992
N163	N	1.002014	0.038309	-0.673346
N164	N	1.502014	0.538309	-0.173346
H165	H	0.961219	0.068907	-0.651796
H166	H	1.461219	0.568907	-0.151796
H167	H	1.306166	-0.591519	-0.153004
H168	H	1.806166	-0.091519	0.346996
N169	N	1.087846	-0.649964	-0.269943
N170	N	1.587846	-0.149964	0.230057
N171	N	1.107868	-0.675595	-0.337136
N172	N	1.607868	-0.175595	0.162864
H173	H	1.077471	-0.670848	-0.382753
H174	H	1.577471	-0.170848	0.117247
H175	H	1.231437	-0.719933	-0.265420
H176	H	1.731437	-0.219933	0.234580
N177	N	0.870693	-0.115647	-0.103069
N178	N	1.370693	0.384353	0.396931
N179	N	0.941506	-0.099463	-0.088773
N180	N	1.441506	0.400537	0.411227
H181	H	0.963053	-0.053319	-0.048016
H182	H	1.463053	0.446681	0.451984
N183	N	1.008681	-0.040203	-0.594237
N184	N	1.508681	0.459797	-0.094237
N185	N	1.015568	0.028145	-0.602077
N186	N	1.515568	0.528145	-0.102077
H187	H	0.974780	0.058757	-0.580536
H188	H	1.474780	0.558757	-0.080536
N189	N	1.104234	-0.597478	-0.009274
N190	N	1.604234	-0.097478	0.490726
N191	N	1.098588	-0.528233	0.001935
N192	N	1.598588	-0.028233	0.501935
H193	H	1.074148	-0.504443	0.051050
H194	H	1.574148	-0.004443	0.551050
N195	N	1.016635	-0.046082	-0.883323
N196	N	1.516635	0.453918	-0.383323
N197	N	0.966133	-0.008226	-0.856667
N198	N	1.466133	0.491774	-0.356667
H199	H	0.936894	0.013710	-0.892342
H200	H	1.436894	0.513710	-0.392342
H201	H	1.246210	-0.672621	-0.031857
H202	H	1.746210	-0.172621	0.468143
H203	H	0.805844	-0.074562	-0.066785
H204	H	1.305844	0.425438	0.433215
H205	H	1.093885	-0.104189	-0.510692
H206	H	1.593885	0.395811	-0.010692
H207	H	1.201155	-0.184479	-0.837499
H208	H	1.701155	0.315521	-0.337499
N209	N	0.593520	0.049548	0.042798
N210	N	1.093520	0.549548	0.542798
N211	N	0.549357	0.090471	0.078924
N212	N	1.049357	0.590471	0.578924
H213	H	0.570888	0.136633	0.119668
H214	H	1.070888	0.636633	0.619668
H215	H	0.443455	0.003360	0.002031
H216	H	0.943455	0.503360	0.502031
H217	H	0.537675	-0.250185	-0.221876
H218	H	1.037675	0.249815	0.278124
N219	N	0.472824	-0.209103	-0.185587
N220	N	0.972824	0.290897	0.314413
N221	N	0.402011	-0.225296	-0.199883
N222	N	0.902011	0.274704	0.300117
H223	H	0.380467	-0.271446	-0.240636
H224	H	0.880467	0.228554	0.259364
H225	H	1.249198	-0.220526	-0.778836
H226	H	1.749198	0.279474	-0.278836
H227	H	0.756173	-0.361021	-0.319763
H228	H	1.256173	0.138979	0.180237
N229	N	1.358894	-0.302875	-0.566527
N230	N	1.858894	0.197125	-0.066527
N231	N	1.416252	-0.272382	-0.601024
N232	N	1.916252	0.227618	-0.101024
H233	H	1.457059	-0.302967	-0.622569
H234	H	1.957059	0.197033	-0.122569
N235	N	1.326454	-0.278635	-0.406202
N236	N	1.826454	0.221365	0.093798
N237	N	1.376955	-0.316495	-0.432853
N238	N	1.876955	0.183505	0.067147
H239	H	1.406184	-0.338438	-0.397177
H240	H	1.906184	0.161562	0.102823
N241	N	0.910310	-0.337610	-0.299094
N242	N	1.410310	0.162390	0.200906
N243	N	0.883652	-0.394725	-0.349532
N244	N	1.383652	0.105275	0.150468
H245	H	0.919326	-0.427797	-0.378730
H246	H	1.419326	0.072203	0.121270
