data_functionalizedCrystal
_audit_creation_method	'MofGen! by Chris Wilmer'
_symmetry_space_group_name_H-M	'P1'
_symmetry_Int_Tables_number	1
_symmetry_cell_setting	triclinic
loop_
_symmetry_equiv_pos_as_xyz
  x,y,z
_cell_length_a	15.944493
_cell_length_b	15.944551
_cell_length_c	9.130313
_cell_angle_alpha	89.997799
_cell_angle_beta	90.000331
_cell_angle_gamma	83.486891
loop_
_atom_site_label
_atom_site_type_symbol
_atom_site_fract_x
_atom_site_fract_y
_atom_site_fract_z
O1	O	1.114550	0.108096	-0.121783
O2	O	1.614550	0.608096	0.378217
O3	O	0.869993	0.121503	-0.121791
O4	O	1.369993	0.621503	0.378209
O5	O	0.998950	-0.007476	-0.121773
O6	O	1.498950	0.492524	0.378227
O7	O	0.985593	0.237076	-0.121800
O8	O	1.485593	0.737076	0.378200
O9	O	0.998948	-0.007473	0.121825
O10	O	1.498948	0.492527	0.621825
O11	O	0.869992	0.121507	0.121808
O12	O	1.369992	0.621507	0.621808
O13	O	1.114548	0.108100	0.121816
O14	O	1.614548	0.608100	0.621816
Cu15	Cu	0.992270	0.114804	0.144054
Cu16	Cu	1.492270	0.614804	0.644054
Cu17	Cu	0.992272	0.114800	-0.144029
Cu18	Cu	1.492272	0.614800	0.355971
O19	O	0.985592	0.237080	0.121799
O20	O	1.485592	0.737080	0.621799
C21	C	0.838698	0.120957	0.000008
C22	C	1.338698	0.620957	0.500008
C23	C	0.745449	0.119314	0.000005
C24	C	1.245449	0.619314	0.500005
C25	C	0.509689	0.195235	-0.000004
C26	C	1.009689	0.695235	0.499996
C27	C	0.459130	0.154296	0.120114
C28	C	0.959130	0.654296	0.620114
C29	C	0.574728	0.116270	0.000009
C30	C	1.074728	0.616270	0.500009
C31	C	0.459136	0.154274	-0.120055
C32	C	0.959136	0.654274	0.379945
C33	C	0.409819	0.113336	0.000005
C34	C	0.909819	0.613336	0.500005
C35	C	0.525397	0.075352	0.120225
C36	C	1.025397	0.575352	0.620225
C37	C	0.525407	0.075342	-0.120052
C38	C	1.025407	0.575342	0.379948
C39	C	0.474880	0.034345	0.000095
C40	C	0.974880	0.534345	0.500095
C41	C	0.669728	0.117963	0.000012
C42	C	1.169728	0.617963	0.500012
C43	C	0.314821	0.111637	0.000013
C44	C	0.814821	0.611637	0.500013
C45	C	0.998395	-0.038768	0.000026
C46	C	1.498395	0.461232	0.500026
C47	C	0.996732	-0.132014	0.000027
C48	C	1.496732	0.367986	0.500027
C49	C	0.912826	-0.346853	0.000004
C50	C	1.412826	0.153147	0.500004
C51	C	0.951788	-0.407877	0.120114
C52	C	1.451788	0.092123	0.620114
C53	C	0.993725	-0.302739	0.000016
C54	C	1.493725	0.197261	0.500016
C55	C	0.951809	-0.407864	-0.120055
C56	C	1.451809	0.092136	0.379945
C57	C	0.990814	-0.467651	-0.000002
C58	C	1.490814	0.032349	0.499998
C59	C	1.032710	-0.362535	0.120225
C60	C	1.532710	0.137465	0.620225
C61	C	1.032719	-0.362515	-0.120052
C62	C	1.532719	0.137485	0.379948
C63	C	1.071741	-0.423521	0.000087
C64	C	1.571741	0.076479	0.500087
C65	C	0.995399	-0.207737	0.000027
C66	C	1.495399	0.292263	0.500027
C67	C	0.989146	-0.562652	-0.000002
C68	C	1.489146	-0.062652	0.499998
C69	C	1.145844	0.108646	0.000014
C70	C	1.645844	0.608646	0.500014
C71	C	1.239092	0.110289	0.000007
C72	C	1.739092	0.610289	0.500007
C73	C	0.986147	0.268372	-0.000004
C74	C	1.486147	0.768372	0.499996
C75	C	0.987809	0.361617	-0.000015
C76	C	1.487809	0.861617	0.499985
N77	N	0.992275	0.114806	0.346677
N78	N	1.492275	0.614806	0.846677
N79	N	0.992274	0.114791	-0.346652
N80	N	1.492274	0.614791	0.153348
C81	C	1.049391	0.057713	0.423337
C82	C	1.549391	0.557713	0.923337
C83	C	1.049389	0.057703	0.576674
C84	C	1.549389	0.557703	1.076674
C85	C	0.935151	0.171886	0.576678
C86	C	1.435151	0.671886	1.076678
C87	C	0.935150	0.171892	0.423344
C88	C	1.435150	0.671892	0.923344
C89	C	1.106516	0.000627	0.346670
C90	C	1.606516	0.500627	0.846670
C91	C	1.163637	-0.056470	0.423330
C92	C	1.663637	0.443530	0.923330
C93	C	1.163635	-0.056480	0.576667
C94	C	1.663635	0.443520	1.076667
C95	C	1.106511	0.000607	0.653344
C96	C	1.606511	0.500607	1.153344
H97	H	0.554224	0.042026	0.221876
H98	H	1.054224	0.542026	0.721876
H99	H	0.459415	-0.033726	0.000172
H100	H	0.959415	0.466274	0.500172
H101	H	0.917582	-0.427935	-0.221606
H102	H	1.417582	0.072065	0.278394
H103	H	0.554353	0.042018	-0.221598
H104	H	1.054353	0.542018	0.278402
H105	H	0.888640	0.218381	0.360927
H106	H	1.388640	0.718381	0.860927
H107	H	0.888644	0.218365	0.639118
H108	H	1.388644	0.718365	1.139118
H109	H	1.106524	0.000632	0.221816
H110	H	1.606524	0.500632	0.721816
H111	H	1.066908	-0.342393	-0.221599
H112	H	1.566908	0.157607	0.278401
H113	H	1.210141	-0.102953	0.360892
H114	H	1.710141	0.397047	0.860892
H115	H	1.210140	-0.102975	0.639082
H116	H	1.710140	0.397025	1.139082
H117	H	0.845675	-0.313532	0.000122
H118	H	1.345675	0.186468	0.500122
H119	H	0.430199	0.187636	-0.221591
H120	H	0.930199	0.687636	0.278409
H121	H	1.066897	-0.342550	0.221880
H122	H	1.566897	0.157450	0.721880
H123	H	0.525313	0.263254	0.000101
H124	H	1.025313	0.763254	0.500101
H125	H	0.430192	0.187645	0.221655
H126	H	0.930192	0.687645	0.721655
H127	H	1.138950	-0.456694	0.000157
H128	H	1.638950	0.043306	0.500157
H129	H	1.106509	0.000589	0.778201
H130	H	1.606509	0.500589	1.278201
H131	H	0.917570	-0.427977	0.221656
H132	H	1.417570	0.072023	0.721656
