data_functionalizedCrystal
_audit_creation_method	'MofGen! by Chris Wilmer'
_symmetry_space_group_name_H-M	'P1'
_symmetry_Int_Tables_number	1
_symmetry_cell_setting	triclinic
loop_
_symmetry_equiv_pos_as_xyz
  x,y,z
_cell_length_a	12.811457
_cell_length_b	14.044220
_cell_length_c	11.295483
_cell_angle_alpha	94.468632
_cell_angle_beta	91.289320
_cell_angle_gamma	88.595730
loop_
_atom_site_label
_atom_site_type_symbol
_atom_site_fract_x
_atom_site_fract_y
_atom_site_fract_z
O1	O	1.401196	0.131066	0.052290
O2	O	1.099050	0.142861	0.019658
O3	O	1.245587	-0.001070	0.035496
O4	O	1.254659	0.274997	0.036452
O5	O	1.232714	0.011552	0.232155
O6	O	1.086177	0.155483	0.216317
O7	O	1.388324	0.143688	0.248950
Cu8	Cu	1.236075	0.150738	0.250590
Cu9	Cu	1.251298	0.135811	0.018018
O10	O	1.241786	0.287619	0.233112
C11	C	1.053711	0.148124	0.113786
C12	C	0.937795	0.144991	0.101268
C13	C	0.705941	0.152847	0.292166
C14	C	0.597027	0.149903	0.280409
C15	C	0.611052	0.136152	0.065999
C16	C	0.719966	0.139096	0.077756
C17	C	0.767406	0.147445	0.190843
C18	C	0.876322	0.150396	0.202598
C19	C	0.890345	0.136638	-0.011811
C20	C	0.781431	0.133694	-0.023567
C21	C	1.235180	-0.030117	0.133397
C22	C	1.223337	-0.135471	0.132120
C23	C	1.201686	-0.328370	0.129764
C24	C	1.285683	-0.385088	0.138832
C25	C	1.273636	-0.492423	0.137522
C26	C	1.213731	-0.221024	0.131075
C27	C	1.433662	0.138425	0.154819
C28	C	1.549578	0.141557	0.167330
C29	C	1.252193	0.316665	0.135208
C30	C	1.264037	0.422019	0.136478
N31	N	1.225375	0.161236	0.414170
N32	N	1.262005	0.125305	-0.145562
C33	C	1.339023	0.049679	0.675743
C34	C	1.330945	0.057620	0.799533
C35	C	1.201137	0.185053	0.785544
C36	C	1.209215	0.177112	0.661753
C37	C	1.278161	0.109424	0.606857
C38	C	1.286244	0.101489	0.483065
C39	C	1.156431	0.228917	0.469077
C40	C	1.148353	0.236857	0.592867
H41	H	0.546985	0.154307	0.362917
H42	H	0.914945	0.157200	0.294679
C43	C	0.681142	0.166147	0.502921
C44	C	0.758095	0.162024	0.416466
H45	H	0.713342	0.171806	0.579658
H46	H	0.636146	0.219920	0.493572
H47	H	0.641763	0.109499	0.494174
H48	H	0.797470	0.218675	0.425206
H49	H	0.803109	0.108246	0.425818
H50	H	1.366648	-0.353040	0.147497
C51	C	0.450316	0.125521	-0.047211
C52	C	0.558893	0.126969	-0.058298
H53	H	0.418118	0.119857	-0.123949
H54	H	0.432414	0.072658	-0.004788
H55	H	0.426781	0.183078	-0.005394
H56	H	0.582429	0.069409	-0.100107
H57	H	0.576803	0.179837	-0.100739
C58	C	1.016812	0.213362	-0.123428
C59	C	0.957911	0.130700	-0.123196
H60	H	1.058527	0.209695	-0.192188
H61	H	0.971215	0.267695	-0.123864
H62	H	1.060653	0.218745	-0.054396
H63	H	0.914063	0.125321	-0.192225
H64	H	1.003513	0.076352	-0.122771
C65	C	1.374421	-0.103499	0.842597
C66	C	1.397846	-0.008053	0.875254
H67	H	1.415729	-0.144044	0.889341
H68	H	1.302563	-0.113284	0.855292
H69	H	1.389102	-0.117903	0.761013
H70	H	1.383158	0.006352	0.956836
H71	H	1.469720	0.001736	0.862569
H72	H	1.120733	-0.360422	0.121018
H73	H	1.342386	0.046376	0.438371
C74	C	0.970546	0.292966	0.612099
C75	C	1.072569	0.311253	0.653221
H76	H	0.923761	0.338893	0.649364
H77	H	0.966653	0.296796	0.528526
H78	H	0.952028	0.230808	0.630536
H79	H	1.091089	0.373408	0.634775
H80	H	1.076465	0.307431	0.736812
C81	C	1.358784	-0.088101	0.537638
C82	C	1.414826	-0.024692	0.615375
H83	H	1.405591	-0.134003	0.500362
H84	H	1.309091	-0.119656	0.580906
H85	H	1.323677	-0.053644	0.478912
H86	H	1.449927	-0.059148	0.674106
H87	H	1.464538	0.006866	0.572104
H88	H	1.144995	0.240156	0.830255
C89	C	1.112960	0.390042	0.426020
C90	C	1.089527	0.294599	0.393358
H91	H	1.071664	0.430591	0.379269
H92	H	1.098278	0.404445	0.507592
H93	H	1.184829	0.399821	0.413329
H94	H	1.017659	0.284818	0.406058
H95	H	1.104201	0.280191	0.311767
H96	H	0.742791	0.126892	-0.115639
