data_functionalizedCrystal
_audit_creation_method	'MofGen! by Chris Wilmer'
_symmetry_space_group_name_H-M	'P1'
_symmetry_Int_Tables_number	1
_symmetry_cell_setting	triclinic
loop_
_symmetry_equiv_pos_as_xyz
  x,y,z
_cell_length_a	16.992694
_cell_length_b	14.519709
_cell_length_c	16.053802
_cell_angle_alpha	92.569364
_cell_angle_beta	87.249047
_cell_angle_gamma	87.174184
loop_
_atom_site_label
_atom_site_type_symbol
_atom_site_fract_x
_atom_site_fract_y
_atom_site_fract_z
O1	O	1.043963	0.191936	-0.069327
O2	O	1.543963	0.691936	0.430673
O3	O	0.815676	0.189789	-0.069352
O4	O	1.315676	0.689789	0.430648
O5	O	0.935872	0.057059	-0.069332
O6	O	1.435872	0.557059	0.430668
O7	O	0.923768	0.324666	-0.069348
O8	O	1.423768	0.824666	0.430652
O9	O	0.929256	0.064333	0.069526
O10	O	1.429256	0.564333	0.569526
O11	O	0.809060	0.197063	0.069506
O12	O	1.309060	0.697063	0.569506
O13	O	1.037348	0.199210	0.069530
O14	O	1.537348	0.699210	0.569530
Zn15	Zn	0.922154	0.199291	0.091565
Zn16	Zn	1.422154	0.699291	0.591565
Zn17	Zn	0.930870	0.189708	-0.091386
Zn18	Zn	1.430870	0.689708	0.408614
O19	O	0.917152	0.331940	0.069510
O20	O	1.417152	0.831940	0.569510
C21	C	0.783152	0.190666	0.000074
C22	C	1.283152	0.690666	0.500074
C23	C	0.696097	0.182430	0.000065
C24	C	1.196097	0.682430	0.500065
C25	C	0.645968	0.261890	0.000061
C26	C	1.145968	0.761890	0.500061
C27	C	0.564170	0.254147	0.000073
C28	C	1.064170	0.754147	0.500073
C29	C	0.532503	0.166943	0.000083
C30	C	1.032503	0.666943	0.500083
C31	C	0.582638	0.087478	0.000089
C32	C	1.082638	0.587478	0.500089
C33	C	0.664434	0.095222	0.000083
C34	C	1.164434	0.595222	0.500083
C35	C	0.288859	0.134847	0.000107
C36	C	0.788859	0.634847	0.500107
C37	C	0.207056	0.127109	0.000111
C38	C	0.707056	0.627109	0.500111
C39	C	0.188594	0.293779	0.000095
C40	C	0.688594	0.793779	0.500095
C41	C	0.270393	0.301515	0.000084
C42	C	0.770393	0.801515	0.500084
C43	C	0.320520	0.222050	0.000095
C44	C	0.820520	0.722050	0.500095
N45	N	0.448892	0.159027	0.000092
N46	N	0.948892	0.659027	0.500092
N47	N	0.404129	0.229968	0.000092
N48	N	0.904129	0.729968	0.500092
C49	C	0.932000	0.026296	0.000097
C50	C	1.432000	0.526296	0.500097
C51	C	0.930309	-0.076207	0.000098
C52	C	1.430309	0.423793	0.500098
C53	C	0.924087	-0.451551	0.000075
C54	C	1.424087	0.048449	0.500075
C55	C	0.925815	-0.347118	0.000082
C56	C	1.425815	0.152882	0.500082
C57	C	0.927198	-0.263882	0.000087
C58	C	1.427198	0.236118	0.500087
C59	C	0.928926	-0.159443	0.000092
C60	C	1.428926	0.340557	0.500092
C61	C	1.069872	0.198333	0.000103
C62	C	1.569872	0.698333	0.500103
C63	C	1.156927	0.206569	0.000106
C64	C	1.656927	0.706569	0.500106
C65	C	0.921024	0.362703	0.000079
C66	C	1.421024	0.862703	0.500079
C67	C	0.922715	0.465206	0.000073
C68	C	1.422715	0.965206	0.500073
N69	N	0.916210	0.205832	0.216424
N70	N	1.416210	0.705832	0.716424
N71	N	0.936820	0.183161	-0.216246
N72	N	1.436820	0.683161	0.283754
C73	C	0.967373	0.149377	0.260127
C74	C	1.467373	0.649377	0.760127
C75	C	0.963222	0.153962	0.347533
C76	C	1.463222	0.653962	0.847533
C77	C	0.907913	0.215006	0.391235
C78	C	1.407913	0.715006	0.891235
C79	C	0.856746	0.271462	0.347526
C80	C	1.356746	0.771462	0.847526
C81	C	0.860893	0.266872	0.260121
C82	C	1.360893	0.766872	0.760121
C83	C	0.889799	0.235027	0.652641
C84	C	1.389799	0.735027	1.152641
C85	C	0.885658	0.239615	0.740052
C86	C	1.385658	0.739615	1.240052
C87	C	0.992134	0.122113	0.740053
C88	C	1.492134	0.622113	1.240053
C89	C	0.996279	0.117533	0.652646
C90	C	1.496279	0.617533	1.152646
C91	C	0.945109	0.173985	0.608945
C92	C	1.445109	0.673985	1.108945
N93	N	0.903672	0.219695	0.480578
N94	N	1.403672	0.719695	0.980578
N95	N	0.949347	0.169291	0.519604
N96	N	1.449347	0.669291	1.019604
H97	H	0.556847	0.016475	0.000110
H98	H	1.056847	0.516475	0.500110
C99	C	0.833611	0.297255	0.604581
C100	C	1.333611	0.797255	1.104581
N101	N	0.791325	0.344174	0.568380
N102	N	1.291325	0.844174	1.068380
C103	C	0.719576	0.007809	0.000086
C104	C	1.219576	0.507809	0.500086
N105	N	0.761108	-0.058033	0.000089
N106	N	1.261108	0.441967	0.500089
H107	H	0.819230	0.312842	0.224539
H108	H	1.319230	0.812842	0.724539
C109	C	0.795897	0.338602	0.395601
C110	C	1.295897	0.838602	0.895601
N111	N	0.750065	0.389173	0.431810
N112	N	1.250065	0.889173	0.931810
C113	C	0.509030	0.341560	0.000083
C114	C	1.009030	0.841560	0.500083
N115	N	0.467499	0.407405	0.000097
N116	N	0.967499	0.907405	0.500097
C117	C	0.680793	0.357821	0.000051
C118	C	1.180793	0.857821	0.500051
N119	N	0.707021	0.430080	0.000047
N120	N	1.207021	0.930080	0.500047
C121	C	0.305219	0.397447	0.000086
C122	C	0.805219	0.897447	0.500086
N123	N	0.331450	0.469704	0.000089
N124	N	0.831450	0.969704	0.500089
H125	H	0.147771	0.358475	0.000088
H126	H	0.647771	0.858475	0.500088
H127	H	1.033794	0.076151	0.775642
H128	H	1.533794	0.576151	1.275642
C129	C	1.057119	0.050375	0.604581
C130	C	1.557119	0.550375	1.104581
N131	N	1.102946	-0.000209	0.568378
N132	N	1.602946	0.499791	1.068378
C133	C	1.028217	0.082223	0.212063
C134	C	1.528217	0.582223	0.712063
N135	N	1.074044	0.031638	0.175863
N136	N	1.574044	0.531638	0.675863
C137	C	0.824808	0.306768	0.788122
C138	C	1.324808	0.806768	1.288122
N139	N	0.778979	0.357345	0.824329
N140	N	1.278979	0.857345	1.324329
H141	H	0.181277	0.056094	0.000118
H142	H	0.681277	0.556094	0.500118
C143	C	0.343989	0.047432	0.000114
C144	C	0.843989	0.547432	0.500114
N145	N	0.385517	-0.018414	0.000118
N146	N	0.885517	0.481586	0.500118
H147	H	1.004882	0.107992	0.383115
H148	H	1.504882	0.607992	0.883115
