data_functionalizedCrystal
_audit_creation_method	'MofGen! by Chris Wilmer'
_symmetry_space_group_name_H-M	'P1'
_symmetry_Int_Tables_number	1
_symmetry_cell_setting	triclinic
loop_
_symmetry_equiv_pos_as_xyz
  x,y,z
_cell_length_a	6.817900
_cell_length_b	9.514072
_cell_length_c	16.305550
_cell_angle_alpha	91.345430
_cell_angle_beta	103.455250
_cell_angle_gamma	118.843421
loop_
_atom_site_label
_atom_site_type_symbol
_atom_site_fract_x
_atom_site_fract_y
_atom_site_fract_z
V1	V	-4.111542	-0.223563	-0.263696
O2	O	-4.010274	0.009348	-0.257997
O3	O	-4.146313	-0.441947	-0.262547
O4	O	-4.061870	-0.220736	-0.378405
O5	O	-4.095303	-0.213393	-0.141336
V6	V	-4.584558	-0.195632	-0.248982
O7	O	-4.395849	-0.284833	-0.295974
O8	O	-4.750448	-0.134362	-0.216704
O9	O	-4.326580	0.022752	-0.250131
O10	O	-4.803222	-0.428543	-0.254681
O11	O	-4.718194	-0.205802	-0.371342
O12	O	-4.411024	-0.198459	-0.134273
C13	C	-4.011588	-0.495165	-0.258556
C14	C	-4.121296	-0.673700	-0.258381
C15	C	-3.903870	-0.212987	-0.406343
C16	C	-3.945092	-0.212120	-0.500122
C17	C	-4.094898	-0.208764	-0.840858
C18	C	-3.855048	-0.198798	-0.799900
C19	C	-3.812451	-0.200364	-0.702409
C20	C	-4.020575	-0.210428	-0.671815
C21	C	-4.248125	-0.369042	-0.722913
C22	C	-4.289646	-0.368145	-0.820460
C23	C	-4.093423	-0.061383	-0.794576
C24	C	-4.045014	-0.060128	-0.696730
C25	C	-3.978587	-0.211375	-0.576280
C26	C	-4.136900	-0.207829	-0.936394
C27	C	-4.124650	0.075961	-0.254120
C28	C	-3.994181	0.254495	-0.254301
C29	C	-4.232367	-0.206213	-0.106330
C30	C	-4.170381	-0.207072	-0.012550
H31	H	-3.705193	-0.084217	-0.811922
O32	O	-3.764136	-0.656127	-0.250205
C33	C	-3.667994	-0.758738	-0.246410
H34	H	-3.778634	-0.872699	-0.220708
H35	H	-3.482569	-0.692020	-0.202299
H36	H	-3.665033	-0.794466	-0.313150
H37	H	-4.468789	-0.382056	-0.848493
O38	O	-3.929503	0.081856	-0.810146
C39	C	-3.813646	0.051027	-0.863200
H40	H	-3.830417	-0.073115	-0.856884
H41	H	-3.621456	0.148822	-0.843199
H42	H	-3.895376	0.052446	-0.932414
H43	H	-3.642443	-0.086321	-0.667047
O44	O	-3.849861	-0.325258	-0.837925
C45	C	-4.062023	-0.422666	-0.901430
H46	H	-4.204013	-0.403826	-0.886767
H47	H	-4.113188	-0.555962	-0.902494
H48	H	-4.040429	-0.386978	-0.966378
H49	H	-3.879206	0.057192	-0.662003
H50	H	-4.314088	-0.748827	-0.261769
O51	O	-4.436936	-0.384977	-0.700384
C52	C	-4.540220	-0.530908	-0.667102
H53	H	-4.490890	-0.618997	-0.691982
H54	H	-4.737873	-0.587515	-0.688039
H55	H	-4.475419	-0.504217	-0.594376
O56	O	-3.782247	-0.328222	-0.683258
C57	C	-3.955286	-0.432186	-0.645568
H58	H	-4.024166	-0.361009	-0.616476
H59	H	-3.877153	-0.483158	-0.593427
H60	H	-4.104458	-0.536457	-0.696323
H61	H	-4.235270	-0.480644	-0.706433
H62	H	-4.296069	-0.479717	-0.851173
O63	O	-4.219742	-0.057910	-0.671119
C64	C	-4.324171	-0.192826	-0.629893
H65	H	-4.291291	-0.292201	-0.651953
H66	H	-4.519912	-0.241139	-0.646573
H67	H	-4.245759	-0.154239	-0.557819
O68	O	-4.301459	-0.068596	-0.826709
C69	C	-4.447784	-0.206161	-0.890674
H70	H	-4.336874	-0.243730	-0.917567
H71	H	-4.555032	-0.175524	-0.944098
H72	H	-4.569766	-0.310467	-0.862081
