data_functionalizedCrystal
_audit_creation_method	'MofGen! by Chris Wilmer'
_symmetry_space_group_name_H-M	'P1'
_symmetry_Int_Tables_number	1
_symmetry_cell_setting	triclinic
loop_
_symmetry_equiv_pos_as_xyz
  x,y,z
_cell_length_a	18.215407
_cell_length_b	12.827892
_cell_length_c	18.215399
_cell_angle_alpha	90.023838
_cell_angle_beta	90.019833
_cell_angle_gamma	90.015840
loop_
_atom_site_label
_atom_site_type_symbol
_atom_site_fract_x
_atom_site_fract_y
_atom_site_fract_z
Zn1	Zn	1.125121	-0.416031	0.416137
Zn2	Zn	1.458454	-0.082698	0.749470
Zn3	Zn	1.791787	0.250635	1.082804
Zn4	Zn	1.125049	-0.590790	0.293079
Zn5	Zn	1.458383	-0.257457	0.626413
Zn6	Zn	1.791716	0.075876	0.959746
Zn7	Zn	1.002053	-0.416065	0.293084
Zn8	Zn	1.335386	-0.082732	0.626418
Zn9	Zn	1.668720	0.250601	0.959751
Zn10	Zn	1.002039	-0.590732	0.416104
Zn11	Zn	1.335373	-0.257399	0.749438
Zn12	Zn	1.668706	0.075934	1.082771
O13	O	1.063566	-0.503405	0.354601
O14	O	1.396899	-0.170072	0.687935
O15	O	1.730232	0.163262	1.021268
O16	O	1.228095	-0.439223	0.399825
O17	O	1.561429	-0.105890	0.733158
O18	O	1.894762	0.227443	1.066491
O19	O	1.108710	-0.567651	0.190096
O20	O	1.442043	-0.234318	0.523429
O21	O	1.775376	0.099015	0.856762
O22	O	1.018414	-0.269825	0.309423
O23	O	1.351747	0.063508	0.642756
O24	O	1.685080	0.396842	0.976090
O25	O	1.228043	-0.567618	0.309415
O26	O	1.561376	-0.234285	0.642748
O27	O	1.894710	0.099048	0.976082
O28	O	1.108831	-0.269800	0.399829
O29	O	1.442164	0.063534	0.733163
O30	O	1.775498	0.396867	1.066496
O31	O	1.018345	-0.439282	0.190099
O32	O	1.351678	-0.105948	0.523433
O33	O	1.685011	0.227385	0.856766
O34	O	0.899067	-0.439225	0.309392
O35	O	1.232400	-0.105892	0.642725
O36	O	1.565734	0.227441	0.976058
O37	O	1.018390	-0.567519	0.519093
O38	O	1.351724	-0.234186	0.852426
O39	O	1.685057	0.099147	1.185760
O40	O	0.899057	-0.567552	0.399774
O41	O	1.232390	-0.234219	0.733107
O42	O	1.565724	0.099114	1.066441
O43	O	1.108818	-0.439167	0.519117
O44	O	1.442151	-0.105834	0.852450
O45	O	1.775484	0.227500	1.185784
O46	O	1.108696	-0.737019	0.309383
O47	O	1.442030	-0.403685	0.642717
O48	O	1.775363	-0.070352	0.976050
O49	O	1.018321	-0.736976	0.399769
O50	O	1.351655	-0.403643	0.733103
O51	O	1.684988	-0.070309	1.066436
C52	C	0.872359	-0.503387	0.354580
C53	C	1.205693	-0.170054	0.687913
C54	C	1.539026	0.163280	1.021247
C55	C	0.790560	-0.503405	0.354589
C56	C	1.123894	-0.170071	0.687922
C57	C	1.457227	0.163262	1.021255
C58	C	0.602380	-0.570329	0.401592
C59	C	0.935714	-0.236996	0.734925
C60	C	1.269047	0.096337	1.068258
C61	C	0.525522	-0.570333	0.401601
C62	C	0.858855	-0.236999	0.734934
C63	C	1.192188	0.096334	1.068267
C64	C	0.525503	-0.436499	0.307627
C65	C	0.858836	-0.103166	0.640960
C66	C	1.192169	0.230167	0.974294
C67	C	0.602360	-0.436491	0.307622
C68	C	0.935693	-0.103158	0.640955
C69	C	1.269027	0.230175	0.974289
C70	C	0.640797	-0.503413	0.354603
C71	C	0.974130	-0.170079	0.687937
C72	C	1.307464	0.163254	1.021270
C73	C	0.487081	-0.503424	0.354617
C74	C	0.820414	-0.170090	0.687951
C75	C	1.153747	0.163243	1.021284
C76	C	0.403747	-0.503427	0.354627
C77	C	0.737081	-0.170093	0.687960
C78	C	1.070414	0.163240	1.021294
C79	C	0.724136	-0.503408	0.354595
C80	C	1.057469	-0.170075	0.687928
C81	C	1.390803	0.163258	1.021262
C82	C	1.063520	-0.774915	0.354588
C83	C	1.396853	-0.441581	0.687922
C84	C	1.730186	-0.108248	1.021255
C85	C	1.063567	-0.891068	0.354607
C86	C	1.396900	-0.557735	0.687941
C87	C	1.730234	-0.224401	1.021274
C88	C	1.108341	-0.942839	0.309931
C89	C	1.441674	-0.609506	0.643265
C90	C	1.775007	-0.276172	0.976598
C91	C	1.108391	-1.062889	0.309950
C92	C	1.441724	-0.729556	0.643283
C93	C	1.775058	-0.396223	0.976617
C94	C	1.255518	-0.503424	0.354623
C95	C	1.588852	-0.170090	0.687956
C96	C	1.922185	0.163243	1.021290
C97	C	1.337317	-0.503432	0.354632
C98	C	1.670651	-0.170098	0.687965
C99	C	2.003984	0.163235	1.021299
C100	C	1.063610	-0.503333	0.546554
C101	C	1.396944	-0.169999	0.879888
C102	C	1.730277	0.163334	1.213221
C103	C	1.063629	-0.503302	0.628353
C104	C	1.396963	-0.169969	0.961687
C105	C	1.730296	0.163365	1.295020
C106	C	1.063632	-0.230835	0.354630
C107	C	1.396965	0.102499	0.687964
C108	C	1.730298	0.435832	1.021297
C109	C	1.063660	-0.114682	0.354643
C110	C	1.396993	0.218652	0.687976
C111	C	1.730327	0.551985	1.021309
C112	C	1.063563	-0.503401	0.163395
C113	C	1.396897	-0.170068	0.496728
C114	C	1.730230	0.163265	0.830062
C115	C	1.063687	-0.503138	0.081597
C116	C	1.397020	-0.169804	0.414930
C117	C	1.730353	0.163529	0.748263
C118	C	1.110732	-0.436407	0.816561
C119	C	1.444065	-0.103073	1.149894
C120	C	1.777399	0.230260	1.483228
C121	C	1.110741	-0.436376	0.893420
C122	C	1.444074	-0.103043	1.226753
C123	C	1.777407	0.230290	1.560086
C124	C	1.016579	-0.570036	0.893383
C125	C	1.349912	-0.236703	1.226717
C126	C	1.683246	0.096631	1.560050
C127	C	1.016567	-0.570060	0.816526
C128	C	1.349901	-0.236727	1.149859
C129	C	1.683234	0.096606	1.483193
C130	C	1.063648	-0.503247	0.778117
C131	C	1.396981	-0.169914	1.111450
C132	C	1.730314	0.163419	1.444783
C133	C	1.063668	-0.503192	0.931833
C134	C	1.397002	-0.169859	1.265166
C135	C	1.730335	0.163474	1.598500
C136	C	1.063678	-0.503160	1.015167
C137	C	1.397011	-0.169827	1.348500
C138	C	1.730344	0.163507	1.681833
C139	C	1.063638	-0.503278	0.694778
C140	C	1.396971	-0.169945	1.028111
C141	C	1.730304	0.163389	1.361444
H142	H	0.494198	-0.382016	0.269375
H143	H	0.827531	-0.048683	0.602709
H144	H	1.160865	0.284651	0.936042
H145	H	0.978220	-0.624489	0.785224
H146	H	1.311554	-0.291156	1.118557
H147	H	1.644887	0.042177	1.451891
C148	C	0.483267	-0.643956	0.453285
C149	C	0.816600	-0.310623	0.786618
C150	C	1.149934	0.022710	1.119952
N151	N	0.451441	-0.699416	0.492214
N152	N	0.784775	-0.366083	0.825547
N153	N	1.118108	-0.032749	1.158880
H154	H	0.978249	-0.624435	0.924666
H155	H	1.311583	-0.291102	1.257999
H156	H	1.644916	0.042232	1.591332
H157	H	0.633674	-0.624818	0.439849
H158	H	0.967007	-0.291485	0.773182
H159	H	1.300340	0.041848	1.106515
C160	C	1.011871	-1.054544	0.406320
C161	C	1.345204	-0.721211	0.739653
C162	C	1.678538	-0.387877	1.072986
N163	N	0.972865	-1.009241	0.445244
N164	N	1.306198	-0.675907	0.778577
N165	N	1.639531	-0.342574	1.111910
C166	C	0.644621	-0.362874	0.255928
C167	C	0.977954	-0.029541	0.589262
C168	C	1.311287	0.303793	0.922595
N169	N	0.676451	-0.307426	0.216995
N170	N	1.009785	0.025907	0.550329
N171	N	1.343118	0.359240	0.883662
H172	H	1.146721	-1.107412	0.271699
H173	H	1.480054	-0.774078	0.605032
H174	H	1.813388	-0.440745	0.938366
H175	H	1.149066	-0.382000	0.785290
H176	H	1.482399	-0.048667	1.118624
H177	H	1.815733	0.284666	1.451957
H178	H	1.149080	-0.381946	0.924717
H179	H	1.482413	-0.048613	1.258051
H180	H	1.815747	0.284720	1.591384
C181	C	1.160077	-0.882655	0.258237
C182	C	1.493410	-0.549321	0.591571
C183	C	1.826743	-0.215988	0.924904
N184	N	1.199045	-0.837325	0.219299
N185	N	1.532378	-0.503991	0.552632
N186	N	1.865712	-0.170658	0.885966
H187	H	1.025275	-0.935621	0.392873
H188	H	1.358609	-0.602288	0.726206
H189	H	1.691942	-0.268955	1.059540
