data_functionalizedCrystal
_audit_creation_method	'MofGen! by Chris Wilmer'
_symmetry_space_group_name_H-M	'P1'
_symmetry_Int_Tables_number	1
_symmetry_cell_setting	triclinic
loop_
_symmetry_equiv_pos_as_xyz
  x,y,z
_cell_length_a	10.654550
_cell_length_b	14.750779
_cell_length_c	10.654550
_cell_angle_alpha	102.766773
_cell_angle_beta	84.484931
_cell_angle_gamma	77.230523
loop_
_atom_site_label
_atom_site_type_symbol
_atom_site_fract_x
_atom_site_fract_y
_atom_site_fract_z
O1	O	1.640840	0.079755	0.203386
O2	O	1.275355	0.079773	0.220198
O3	O	1.466503	0.079758	0.029051
O4	O	1.449692	0.079771	0.394534
O5	O	1.520538	-0.079897	-0.024978
O6	O	1.329390	-0.079882	0.166169
O7	O	1.694875	-0.079899	0.149357
Zn8	Zn	1.520712	-0.105239	0.149185
Zn9	Zn	1.449518	0.105113	0.220371
O10	O	1.503727	-0.079884	0.340504
C11	C	1.255574	-0.000052	0.191950
C12	C	1.116129	-0.000046	0.188261
N13	N	1.569309	-0.248799	0.100602
C14	C	1.036643	-0.000044	0.300803
C15	C	0.905627	-0.000061	0.297320
C16	C	0.933596	-0.000076	0.068746
C17	C	1.064611	-0.000066	0.072227
C18	C	1.265206	-0.600593	0.404574
C19	C	1.299269	-0.701094	0.370538
C20	C	1.468566	-0.701071	0.201340
C21	C	1.434513	-0.600567	0.235357
C22	C	1.332833	-0.550336	0.336976
C23	C	1.502140	-0.550310	0.167760
C24	C	1.468094	-0.449815	0.201779
C25	C	1.366421	-0.399577	0.303396
C26	C	1.298787	-0.449841	0.370995
C27	C	1.603826	-0.600543	0.066148
C28	C	1.671453	-0.550286	-0.001450
C29	C	1.637401	-0.449789	0.032563
C30	C	1.535728	-0.399551	0.134180
C31	C	1.705034	-0.399525	-0.035036
C32	C	1.670988	-0.299030	-0.001017
C33	C	1.501682	-0.299056	0.168199
C34	C	1.714655	-0.000072	0.177606
C35	C	1.854099	-0.000072	0.181297
C36	C	1.492286	-0.000069	-0.044762
C37	C	1.488594	-0.000067	-0.184204
N38	N	1.400931	0.248672	0.268944
C39	C	1.601137	-0.000072	-0.263692
C40	C	1.597656	-0.000061	-0.394708
C41	C	1.369081	-0.000043	-0.366739
C42	C	1.372560	-0.000048	-0.235723
C43	C	1.477943	-0.000055	0.414318
C44	C	1.481634	-0.000051	0.553762
H45	H	1.078586	-0.000035	0.395282
H46	H	1.182400	-0.559693	0.487313
H47	H	1.274611	-0.000028	-0.408702
O48	O	1.713815	0.000090	-0.213642
C49	C	1.754517	0.082764	-0.226202
H50	H	1.667128	0.140559	-0.234473
H51	H	1.799249	0.110516	-0.136987
H52	H	1.830084	0.064071	-0.317299
H53	H	1.280907	-0.000041	-0.170999
O54	O	1.233376	-0.749876	0.436085
C55	C	1.100562	-0.725317	0.422843
H56	H	1.089721	-0.697684	0.331640
H57	H	1.060053	-0.791416	0.414317
H58	H	1.044515	-0.666994	0.511862
O59	O	1.402761	-0.250212	0.266747
C60	C	1.305034	-0.192074	0.218437
H61	H	1.312325	-0.222361	0.109117
H62	H	1.205272	-0.190944	0.269125
H63	H	1.318481	-0.115906	0.238004
O64	O	1.567261	-0.750018	0.102626
C65	C	1.582837	-0.849495	0.087116
H66	H	1.488056	-0.863236	0.128486
H67	H	1.608917	-0.887686	-0.020795
H68	H	1.664130	-0.878002	0.141113
O69	O	1.736552	-0.250211	-0.066816
C70	C	1.723441	-0.274732	-0.199666
H71	H	1.632278	-0.302398	-0.210636
H72	H	1.714922	-0.208606	-0.240117
H73	H	1.812517	-0.333020	-0.255671
H74	H	1.129333	-0.000070	-0.019425
H75	H	1.338706	-0.317747	0.331097
H76	H	1.754245	-0.591195	-0.084186
H77	H	1.787831	-0.440436	-0.117767
O78	O	1.636704	-0.698164	0.032992
C79	C	1.528647	-0.731757	-0.004994
H80	H	1.459505	-0.673848	-0.037936
H81	H	1.563404	-0.798983	-0.088730
H82	H	1.475657	-0.749602	0.080965
O83	O	1.706891	0.000103	-0.471915
C84	C	1.683730	0.082783	-0.520565
H85	H	1.600366	0.140579	-0.453581
H86	H	1.775378	0.110530	-0.525017
H87	H	1.656718	0.064100	-0.622433
H88	H	0.840915	-0.000062	0.388963
O89	O	1.200150	-0.401078	0.469864
C90	C	1.229933	-0.425646	0.586069
H91	H	1.339838	-0.453265	0.578277
H92	H	1.193648	-0.359554	0.671331
H93	H	1.180397	-0.483982	0.602565
H94	H	0.891635	-0.000099	-0.025727
