data_functionalizedCrystal
_audit_creation_method	'MofGen! by Chris Wilmer'
_symmetry_space_group_name_H-M	'P1'
_symmetry_Int_Tables_number	1
_symmetry_cell_setting	triclinic
loop_
_symmetry_equiv_pos_as_xyz
  x,y,z
_cell_length_a	21.395364
_cell_length_b	14.908178
_cell_length_c	21.395355
_cell_angle_alpha	86.685439
_cell_angle_beta	89.975448
_cell_angle_gamma	93.328811
loop_
_atom_site_label
_atom_site_type_symbol
_atom_site_fract_x
_atom_site_fract_y
_atom_site_fract_z
Zn1	Zn	0.943529	-0.358933	-0.339876
Zn2	Zn	1.443529	0.141067	0.160124
Zn3	Zn	0.937409	-0.509786	-0.229052
Zn4	Zn	1.437409	-0.009786	0.270948
Zn5	Zn	0.838743	-0.358972	-0.235111
Zn6	Zn	1.338743	0.141028	0.264889
Zn7	Zn	0.832690	-0.509802	-0.333791
Zn8	Zn	1.332690	-0.009802	0.166209
O9	O	0.888093	-0.434373	-0.284457
O10	O	1.388093	0.065627	0.215543
O11	O	1.030396	-0.378920	-0.325185
O12	O	1.530396	0.121080	0.174815
O13	O	0.924292	-0.489790	-0.142177
O14	O	1.424292	0.010210	0.357823
O15	O	0.857737	-0.232712	-0.254090
O16	O	1.357737	0.267288	0.245910
O17	O	1.025900	-0.489751	-0.243764
O18	O	1.525900	0.010249	0.256236
O19	O	0.934723	-0.232683	-0.331060
O20	O	1.434723	0.267317	0.168940
O21	O	0.851803	-0.378988	-0.146629
O22	O	1.351803	0.121012	0.353371
O23	O	0.750261	-0.379003	-0.248190
O24	O	1.250261	0.120997	0.251810
O25	O	0.847421	-0.489779	-0.422277
O26	O	1.347421	0.010221	0.077723
O27	O	0.745814	-0.489817	-0.320691
O28	O	1.245814	0.010183	0.179309
O29	O	0.928854	-0.378936	-0.426747
O30	O	1.428854	0.121064	0.073253
O31	O	0.918424	-0.636043	-0.237864
O32	O	1.418424	-0.136043	0.262136
O33	O	0.841487	-0.636055	-0.314816
O34	O	1.341487	-0.136055	0.185184
C35	C	0.725303	-0.434417	-0.284438
C36	C	1.225303	0.065583	0.215562
C37	C	0.655660	-0.434457	-0.284444
C38	C	1.155660	0.065543	0.215556
C39	C	0.625307	-0.376842	-0.326898
C40	C	1.125307	0.123158	0.173102
C41	C	0.559873	-0.376818	-0.326902
C42	C	1.059873	0.123182	0.173098
C43	C	0.524793	-0.434426	-0.284456
C44	C	1.024793	0.065574	0.215544
C45	C	0.555154	-0.492045	-0.241994
C46	C	1.055154	0.007955	0.258006
C47	C	0.620588	-0.492061	-0.241988
C48	C	1.120588	0.007939	0.258012
C49	C	0.417825	-0.515676	-0.276162
C50	C	0.917825	-0.015676	0.223838
C51	C	0.352393	-0.515662	-0.276173
C52	C	0.852393	-0.015662	0.223827
C53	C	0.322975	-0.434376	-0.284472
C54	C	0.822975	0.065624	0.215528
C55	C	0.358997	-0.353102	-0.292774
C56	C	0.858997	0.146898	0.207226
C57	C	0.424431	-0.353118	-0.292768
C58	C	0.924431	0.146882	0.207232
C59	C	0.453842	-0.434414	-0.284458
C60	C	0.953842	0.065586	0.215542
C61	C	0.221670	-0.376730	-0.326933
C62	C	0.721670	0.123270	0.173067
C63	C	0.156235	-0.376704	-0.326932
C64	C	0.656235	0.123296	0.173068
C65	C	0.151517	-0.491939	-0.242027
C66	C	0.651517	0.008061	0.257973
C67	C	0.216952	-0.491956	-0.242025
C68	C	0.716952	0.008044	0.257975
C69	C	0.252024	-0.434353	-0.284481
C70	C	0.752024	0.065647	0.215519
C71	C	0.878651	-0.668785	-0.275036
C72	C	1.378651	-0.168785	0.224964
C73	C	0.874670	-0.769068	-0.271026
C74	C	1.374670	-0.269068	0.228974
C75	C	0.947293	-0.957329	-0.343727
C76	C	1.447293	-0.457329	0.156273
C77	C	0.943554	-1.051553	-0.339962
C78	C	1.443554	-0.551553	0.160038
C79	C	0.863450	-1.051742	-0.259734
C80	C	1.363450	-0.551742	0.240266
C81	C	0.867189	-0.957518	-0.263499
C82	C	1.367189	-0.457518	0.236501
C83	C	0.909112	-0.910315	-0.305496
C84	C	1.409112	-0.410315	0.194504
C85	C	0.912854	-0.816088	-0.309258
C86	C	1.412854	-0.316088	0.190742
C87	C	0.832748	-0.816279	-0.229034
C88	C	1.332748	-0.316279	0.270966
C89	C	0.829009	-0.910504	-0.225269
C90	C	1.329009	-0.410504	0.274731
C91	C	1.051518	-0.434330	-0.284477
C92	C	1.551518	0.065670	0.215523
C93	C	1.121160	-0.434311	-0.284486
C94	C	1.621160	0.065689	0.215514
C95	C	0.888146	-0.434355	-0.447881
C96	C	1.388146	0.065645	0.052119
C97	C	0.888168	-0.434347	-0.517523
C98	C	1.388168	0.065653	-0.017523
C99	C	0.897588	-0.199046	-0.293929
C100	C	1.397588	0.300954	0.206071
C101	C	0.901634	-0.098763	-0.297966
C102	C	1.401634	0.401237	0.202034
C103	C	0.930569	-0.376629	-0.552565
C104	C	1.430569	0.123371	-0.052565
C105	C	0.930569	-0.376590	-0.618002
C106	C	1.430569	0.123410	-0.118002
C107	C	0.888175	-0.434286	-0.648394
C108	C	1.388175	0.065714	-0.148394
C109	C	0.845767	-0.492008	-0.613344
C110	C	1.345767	0.007992	-0.113344
C111	C	0.845763	-0.492039	-0.547909
C112	C	1.345763	0.007961	-0.047909
C113	C	0.879956	-0.515525	-0.748803
C114	C	1.379956	-0.015525	-0.248803
C115	C	0.879964	-0.515495	-0.814238
C116	C	1.379964	-0.015495	-0.314238
C117	C	0.888183	-0.434190	-0.850219
C118	C	1.388183	0.065810	-0.350219
C119	C	0.896407	-0.352912	-0.820758
C120	C	1.396407	0.147088	-0.320758
C121	C	0.896404	-0.352942	-0.755322
C122	C	1.396404	0.147058	-0.255322
C123	C	0.888174	-0.434258	-0.719347
C124	C	1.388174	0.065742	-0.219347
C125	C	0.930587	-0.376425	-0.956215
C126	C	1.430587	0.123575	-0.456215
C127	C	0.930583	-0.376385	-1.021653
C128	C	1.430583	0.123615	-0.521653
C129	C	0.845784	-0.491811	-1.016994
C130	C	1.345784	0.008189	-0.516994
C131	C	0.845784	-0.491843	-0.951557
C132	C	1.345784	0.008157	-0.451557
C133	C	0.888189	-0.434151	-0.921171
C134	C	1.388189	0.065849	-0.421171
C135	C	0.888079	-0.434326	-0.121672
C136	C	1.388079	0.065674	0.378328
C137	C	0.888188	-0.434080	-0.052041
C138	C	1.388188	0.065920	0.447959
H139	H	0.441772	-0.581874	-0.269403
H140	H	0.941772	-0.081874	0.230597
O141	O	0.984737	-1.102257	-0.381197
O142	O	1.484737	-0.602257	0.118803
H143	H	0.954970	-1.145201	-0.411334
H144	H	1.454970	-0.645201	0.088666
O145	O	0.783800	-0.961429	-0.179972
O146	O	1.283800	-0.461429	0.320028
H147	H	0.735331	-0.943428	-0.191387
H148	H	1.235331	-0.443428	0.308613
O149	O	0.905270	-0.265287	-0.723543
O150	O	1.405270	0.234713	-0.223543
H151	H	0.910984	-0.208740	-0.759551
H152	H	1.410984	0.291260	-0.259551
O153	O	0.992512	-0.906412	-0.389018
O154	O	1.492512	-0.406412	0.110982
H155	H	1.026108	-0.863459	-0.362716
H156	H	1.526108	-0.363459	0.137284
H157	H	0.965112	-0.329444	-0.931474
H158	H	1.465112	0.170556	-0.431474
O159	O	0.958070	-0.765173	-0.354553
O160	O	1.458070	-0.265173	0.145447
H161	H	0.991671	-0.722221	-0.328256
H162	H	1.491671	-0.222221	0.171744
H163	H	0.801660	-0.777990	-0.197902
H164	H	1.301660	-0.277990	0.302098
O165	O	0.313539	-0.603314	-0.267222
O166	O	0.813539	-0.103314	0.232778
H167	H	0.283763	-0.601772	-0.224847
H168	H	0.783763	-0.101772	0.275153
H169	H	0.903101	-0.286705	-0.850052
H170	H	1.403101	0.213295	-0.350052
O171	O	0.818244	-1.102660	-0.214431
O172	O	1.318244	-0.602660	0.285569
H173	H	0.822066	-1.176078	-0.218233
H174	H	1.322066	-0.676078	0.281767
O175	O	0.976314	-0.314117	-1.059449
O176	O	1.476314	0.185883	-0.559449
H177	H	0.969187	-0.323775	-1.110056
H178	H	1.469187	0.176225	-0.610056
O179	O	0.976301	-0.314404	-0.519790
O180	O	1.476301	0.185596	-0.019790
H181	H	1.005782	-0.274258	-0.555155
H182	H	1.505782	0.225742	-0.055155
H183	H	0.811260	-0.538778	-1.041739
H184	H	1.311260	-0.038778	-0.541739
H185	H	0.965096	-0.329584	-0.646538
H186	H	1.465096	0.170416	-0.146538
O187	O	0.663138	-0.314711	-0.372684
O188	O	1.163138	0.185289	0.127316
H189	H	0.694803	-0.268762	-0.346536
H190	H	1.194803	0.231238	0.153464
H191	H	0.335047	-0.286911	-0.299533
H192	H	0.835047	0.213089	0.200467
O193	O	0.800036	-0.554072	-0.913756
O194	O	1.300036	-0.054072	-0.413756
H195	H	0.770552	-0.594179	-0.945881
H196	H	1.270552	-0.094179	-0.445881
H197	H	0.250228	-0.329820	-0.361499
H198	H	0.750228	0.170180	0.138501
O199	O	0.871087	-0.603153	-0.846013
O200	O	1.371087	-0.103153	-0.346013
H201	H	0.865356	-0.659693	-0.810002
H202	H	1.365356	-0.159693	-0.310002
H203	H	0.453757	-0.286942	-0.299526
H204	H	0.953757	0.213058	0.200474
O205	O	0.871083	-0.603222	-0.709996
O206	O	1.371083	-0.103222	-0.209996
H207	H	0.865372	-0.659733	-0.741473
H208	H	1.365372	-0.159733	-0.241473
O209	O	0.800039	-0.554237	-0.646118
O210	O	1.300039	-0.054237	-0.146118
H211	H	0.807168	-0.544525	-0.697507
H212	H	1.307168	-0.044525	-0.197507
H213	H	0.811233	-0.539038	-0.519378
H214	H	1.311233	-0.039038	-0.019378
O215	O	0.527122	-0.314681	-0.372697
O216	O	1.027122	0.185319	0.127303
H217	H	0.562503	-0.274634	-0.402221
H218	H	1.062503	0.225366	0.097779
H219	H	0.122956	-0.538844	-0.207468
H220	H	0.622956	-0.038844	0.292532
O221	O	0.123492	-0.314553	-0.372720
O222	O	0.623492	0.185447	0.127280
H223	H	0.135435	-0.330144	-0.421250
H224	H	0.635435	0.169856	0.078750
O225	O	0.249697	-0.554102	-0.196237
O226	O	0.749697	-0.054102	0.303763
H227	H	0.214313	-0.594161	-0.166724
H228	H	0.714313	-0.094161	0.333276
H229	H	0.526589	-0.538948	-0.207435
H230	H	1.026589	-0.038948	0.292565
H231	H	0.645301	-0.538979	-0.207415
H232	H	1.145301	-0.038979	0.292585
