data_functionalizedCrystal
_audit_creation_method	'MofGen! by Chris Wilmer'
_symmetry_space_group_name_H-M	'P1'
_symmetry_Int_Tables_number	1
_symmetry_cell_setting	triclinic
loop_
_symmetry_equiv_pos_as_xyz
  x,y,z
_cell_length_a	8.559649
_cell_length_b	11.026607
_cell_length_c	7.088638
_cell_angle_alpha	82.415764
_cell_angle_beta	95.333776
_cell_angle_gamma	89.182341
loop_
_atom_site_label
_atom_site_type_symbol
_atom_site_fract_x
_atom_site_fract_y
_atom_site_fract_z
O1	O	2.121074	-0.053723	0.158963
O2	O	1.673427	0.007310	0.158972
O3	O	1.860149	-0.196401	0.158961
O4	O	1.934351	0.149988	0.158974
O5	O	1.835166	-0.169139	-0.159027
O6	O	1.648443	0.034573	-0.159017
O7	O	2.096090	-0.026461	-0.159025
Cu8	Cu	1.869985	0.006545	-0.188056
Cu9	Cu	1.899532	-0.025696	0.188003
O10	O	1.909368	0.177251	-0.159015
C11	C	1.602735	0.025567	-0.000021
C12	C	1.429316	0.039335	-0.000018
C13	C	1.833969	-0.226706	-0.000030
C14	C	1.793162	-0.357617	-0.000023
C15	C	1.905837	-0.441924	-0.000022
C16	C	1.863665	-0.577228	-0.000014
C17	C	2.166782	-0.044718	-0.000028
C18	C	2.340203	-0.058487	-0.000019
C19	C	1.935549	0.207555	-0.000019
C20	C	1.976356	0.338465	-0.000014
N21	N	1.849216	0.029220	-0.452555
N22	N	1.920311	-0.048381	0.452502
H23	H	1.735971	-0.605215	0.000001
H24	H	1.993954	-0.128794	-0.465803
N25	N	2.074977	-0.404861	-0.000048
H26	H	2.081127	-0.313456	-0.000063
H27	H	2.119181	-0.428129	-0.117943
H28	H	2.104063	-0.633564	0.000127
H29	H	1.372932	0.133622	-0.000004
N30	N	1.414855	-0.183383	-0.000026
H31	H	1.491185	-0.203670	0.117849
H32	H	1.472570	-0.183371	-0.117986
H33	H	1.775564	0.109620	-0.534241
N34	N	1.624023	-0.394679	-0.000000
H35	H	1.617872	-0.486084	0.000006
H36	H	1.561269	-0.351211	-0.117883
