data_functionalizedCrystal
_audit_creation_method	'MofGen! by Chris Wilmer'
_symmetry_space_group_name_H-M	'P1'
_symmetry_Int_Tables_number	1
_symmetry_cell_setting	triclinic
loop_
_symmetry_equiv_pos_as_xyz
  x,y,z
_cell_length_a	17.038272
_cell_length_b	17.038272
_cell_length_c	16.098538
_cell_angle_alpha	92.930266
_cell_angle_beta	92.920305
_cell_angle_gamma	88.888444
loop_
_atom_site_label
_atom_site_type_symbol
_atom_site_fract_x
_atom_site_fract_y
_atom_site_fract_z
O1	O	0.167266	-1.052033	-0.069152
O2	O	0.500599	-0.718699	0.264181
O3	O	0.833933	-0.385366	0.597514
O4	O	0.164557	-0.824222	-0.069177
O5	O	0.497890	-0.490889	0.264156
O6	O	0.831224	-0.157556	0.597490
O7	O	0.052006	-0.936773	-0.069158
O8	O	0.385339	-0.603440	0.264175
O9	O	0.718673	-0.270106	0.597508
O10	O	0.279817	-0.939482	-0.069171
O11	O	0.613150	-0.606148	0.264162
O12	O	0.946484	-0.272815	0.597496
O13	O	0.058553	-0.930197	0.069354
O14	O	0.391886	-0.596863	0.402687
O15	O	0.725220	-0.263530	0.736020
O16	O	0.171104	-0.817646	0.069335
O17	O	0.504437	-0.484312	0.402668
O18	O	0.837771	-0.150979	0.736002
O19	O	0.173813	-1.045456	0.069359
O20	O	0.507146	-0.712123	0.402693
O21	O	0.840480	-0.378789	0.736026
Zn22	Zn	0.173498	-0.930507	0.091339
Zn23	Zn	0.506831	-0.597173	0.424672
Zn24	Zn	0.840165	-0.263840	0.758006
Zn25	Zn	0.164872	-0.939172	-0.091156
Zn26	Zn	0.498205	-0.605838	0.242177
Zn27	Zn	0.831539	-0.272505	0.575510
O28	O	0.286364	-0.932905	0.069341
O29	O	0.619697	-0.599572	0.402674
O30	O	0.953031	-0.266238	0.736007
C31	C	0.165367	-0.791641	0.000076
C32	C	0.498701	-0.458308	0.333409
C33	C	0.832034	-0.124975	0.666743
C34	C	0.158019	-0.704358	0.000067
C35	C	0.491352	-0.371025	0.333400
C36	C	0.824686	-0.037692	0.666733
N37	N	0.179385	-0.924599	0.215887
N38	N	0.512718	-0.591266	0.549220
N39	N	0.846052	-0.257932	0.882554
C40	C	0.025987	-0.931022	0.000097
C41	C	0.359320	-0.597689	0.333431
C42	C	0.692653	-0.264355	0.666764
C43	C	-0.061297	-0.923674	0.000096
C44	C	0.272036	-0.590341	0.333430
C45	C	0.605370	-0.257007	0.666763
C46	C	-0.106906	-0.991137	0.000104
C47	C	0.226428	-0.657804	0.333438
C48	C	0.559761	-0.324471	0.666771
C49	C	-0.188918	-0.984229	0.000096
C50	C	0.144415	-0.650895	0.333429
C51	C	0.477749	-0.317562	0.666762
C52	C	-0.225320	-0.909856	0.000085
C53	C	0.108014	-0.576523	0.333418
C54	C	0.441347	-0.243189	0.666752
C55	C	-0.179705	-0.842388	0.000074
C56	C	0.153628	-0.509054	0.333408
C57	C	0.486962	-0.175721	0.666741
C58	C	-0.097694	-0.849297	0.000077
C59	C	0.235639	-0.515964	0.333410
C60	C	0.568972	-0.182631	0.666744
C61	C	-0.472708	-0.885446	0.000071
C62	C	-0.139375	-0.552113	0.333404
C63	C	0.193958	-0.218779	0.666738
C64	C	-0.554725	-0.878541	0.000071
C65	C	-0.221391	-0.545208	0.333404
C66	C	0.111942	-0.211875	0.666737
C67	C	-0.563932	-1.020383	0.000091
C68	C	-0.230599	-0.687050	0.333424
C69	C	0.102734	-0.353716	0.666757
C70	C	-0.481920	-1.027286	0.000098
C71	C	-0.148586	-0.693953	0.333432
C72	C	0.184747	-0.360619	0.666765
C73	C	-0.436312	-0.959818	0.000083
C74	C	-0.102979	-0.626485	0.333417
C75	C	0.230354	-0.293151	0.666750
C76	C	-0.309149	-0.902792	0.000079
C77	C	0.024184	-0.569459	0.333412
C78	C	0.357517	-0.236126	0.666745
C79	C	-0.352485	-0.966882	0.000084
C80	C	-0.019151	-0.633549	0.333417
C81	C	0.314182	-0.300216	0.666750
C82	C	0.312383	-0.938656	0.000083
C83	C	0.645716	-0.605323	0.333417
C84	C	0.979050	-0.271990	0.666750
C85	C	0.399666	-0.946005	0.000079
C86	C	0.733000	-0.612671	0.333412
C87	C	1.066333	-0.279338	0.666746
C88	C	0.173002	-1.078037	0.000105
C89	C	0.506336	-0.744704	0.333438
C90	C	0.839669	-0.411370	0.666771
C91	C	0.180351	-1.165320	0.000108
C92	C	0.513684	-0.831987	0.333442
C93	C	0.847017	-0.498654	0.666775
C94	C	0.225482	-0.658749	0.000064
C95	C	0.558816	-0.325416	0.333397
C96	C	0.892149	0.007918	0.666730
C97	C	0.218574	-0.576737	0.000075
C98	C	0.551907	-0.243403	0.333409
C99	C	0.885241	0.089930	0.666742
C100	C	0.144201	-0.540335	0.000085
C101	C	0.477534	-0.207002	0.333418
C102	C	0.810868	0.126332	0.666751
C103	C	0.076733	-0.585950	0.000090
C104	C	0.410066	-0.252617	0.333424
C105	C	0.743399	0.080716	0.666757
C106	C	0.083642	-0.667961	0.000084
C107	C	0.416975	-0.334627	0.333418
C108	C	0.750309	-0.001294	0.666751
C109	C	0.119792	-0.292946	0.000108
C110	C	0.453125	0.040387	0.333442
C111	C	0.786458	0.373721	0.666775
C112	C	0.112887	-0.210929	0.000112
C113	C	0.446220	0.122404	0.333445
C114	C	0.779554	0.455737	0.666778
C115	C	0.254729	-0.201722	0.000098
C116	C	0.588063	0.131612	0.333432
C117	C	0.921396	0.464945	0.666765
C118	C	0.261632	-0.283734	0.000088
C119	C	0.594965	0.049599	0.333421
C120	C	0.928299	0.382932	0.666754
C121	C	0.194164	-0.329342	0.000098
C122	C	0.527497	0.003991	0.333431
C123	C	0.860830	0.337325	0.666764
C124	C	0.137138	-0.456505	0.000094
C125	C	0.470471	-0.123172	0.333427
C126	C	0.803804	0.210161	0.666761
C127	C	0.201228	-0.413170	0.000094
C128	C	0.534561	-0.079837	0.333427
C129	C	0.867895	0.253497	0.666761
N130	N	0.158979	-0.945085	-0.215705
N131	N	0.492312	-0.611752	0.117629
N132	N	0.825646	-0.278419	0.450962
C133	C	0.131633	-0.972390	0.259480
C134	C	0.464966	-0.639057	0.592813
C135	C	0.798300	-0.305723	0.926147
C136	C	0.135759	-0.968265	0.346668
C137	C	0.469093	-0.634932	0.680002
C138	C	0.802426	-0.301598	1.013335
C139	C	0.187642	-0.916352	0.390262
C140	C	0.520975	-0.583019	0.723595
C141	C	0.854308	-0.249686	1.056929
C142	C	0.235395	-0.868556	0.346663
C143	C	0.568729	-0.535223	0.679996
C144	C	0.902062	-0.201889	1.013330
C145	C	0.231265	-0.872678	0.259476
C146	C	0.564598	-0.539344	0.592810
C147	C	0.897931	-0.206011	0.926143
C148	C	0.202602	-0.901410	0.653510
C149	C	0.535935	-0.568077	0.986843
C150	C	0.869269	-0.234744	1.320176
C151	C	0.206731	-0.897294	0.740702
C152	C	0.540064	-0.563961	1.074036
C153	C	0.873398	-0.230628	1.407369
C154	C	0.107093	-0.997003	0.740702
C155	C	0.440427	-0.663669	1.074035
C156	C	0.773760	-0.330336	1.407368
C157	C	0.102971	-1.001123	0.653513
C158	C	0.436304	-0.667789	0.986847
C159	C	0.769637	-0.334456	1.320180
C160	C	0.150721	-0.953324	0.609922
C161	C	0.484055	-0.619990	0.943255
C162	C	0.817388	-0.286657	1.276589
C163	C	0.191862	-0.912136	0.479383
C164	C	0.525196	-0.578803	0.812716
C165	C	0.858529	-0.245470	1.146049
C166	C	0.146496	-0.957536	0.520803
C167	C	0.479830	-0.624203	0.854136
C168	C	0.813163	-0.290869	1.187470
H169	H	-0.077274	-1.051699	0.000118
H170	H	0.256060	-0.718366	0.333452
H171	H	0.589393	-0.385033	0.666785
H172	H	-0.226050	-1.039165	0.000104
H173	H	0.107284	-0.705831	0.333438
H174	H	0.440617	-0.372498	0.666771
Cl175	Cl	-0.016765	-0.540188	0.000107
Cl176	Cl	0.316568	-0.206855	0.333440
Cl177	Cl	0.649902	0.126479	0.666774
Cl178	Cl	-0.415384	-0.800628	0.000050
Cl179	Cl	-0.082051	-0.467295	0.333383
Cl180	Cl	0.251283	-0.133961	0.666717
H181	H	-0.601075	-1.075312	0.000101
H182	H	-0.267741	-0.741978	0.333435
H183	H	0.065592	-0.408645	0.666768
H184	H	0.089389	-1.014666	0.223992
H185	H	0.422722	-0.681333	0.557325
H186	H	0.756055	-0.347999	0.890659
Cl187	Cl	-0.225468	-0.748890	0.000051
Cl188	Cl	0.107866	-0.415557	0.333384
Cl189	Cl	0.441199	-0.082224	0.666717
Cl190	Cl	0.043643	-0.410737	0.000102
Cl191	Cl	0.376976	-0.077403	0.333435
Cl192	Cl	0.710309	0.255930	0.666768
H193	H	0.028706	-0.705095	0.000086
H194	H	0.362039	-0.371762	0.333420
H195	H	0.695373	-0.038429	0.666753
H196	H	0.261782	-0.442811	0.000091
H197	H	0.595116	-0.109478	0.333425
H198	H	0.928449	0.223855	0.666758
H199	H	0.096876	-1.007180	0.382161
H200	H	0.430209	-0.673846	0.715495
H201	H	0.763542	-0.340513	1.048828
H202	H	0.060724	-1.043394	0.618021
H203	H	0.394057	-0.710061	0.951354
H204	H	0.727391	-0.376727	1.284688
Cl205	Cl	0.291296	-0.812591	0.204674
Cl206	Cl	0.624629	-0.479258	0.538008
Cl207	Cl	0.957962	-0.145925	0.871341
H208	H	0.068216	-1.035918	0.776202
H209	H	0.401549	-0.702584	1.109535
H210	H	0.734883	-0.369251	1.442869
Cl211	Cl	0.300616	-0.803289	0.401465
Cl212	Cl	0.633950	-0.469956	0.734798
Cl213	Cl	0.967283	-0.136623	1.068131
Cl214	Cl	0.081272	-1.022793	0.465999
Cl215	Cl	0.414605	-0.689459	0.799332
Cl216	Cl	0.747939	-0.356126	1.132666
Cl217	Cl	-0.040357	-0.764483	0.000064
Cl218	Cl	0.292976	-0.431149	0.333397
Cl219	Cl	0.626309	-0.097816	0.666730
Cl220	Cl	-0.306721	-1.060377	0.000093
Cl221	Cl	0.026612	-0.727043	0.333426
Cl222	Cl	0.359945	-0.393710	0.666759
Cl223	Cl	0.271962	-0.832027	0.795500
Cl224	Cl	0.605296	-0.498694	1.128834
Cl225	Cl	0.938629	-0.165361	1.462167
Cl226	Cl	0.262633	-0.841325	0.598715
Cl227	Cl	0.595967	-0.507991	0.932048
Cl228	Cl	0.929300	-0.174658	1.265381
Cl229	Cl	0.257087	-0.846878	0.534190
Cl230	Cl	0.590420	-0.513544	0.867523
Cl231	Cl	0.923754	-0.180211	1.200857
H232	H	-0.584359	-0.817975	0.000075
H233	H	-0.251026	-0.484641	0.333409
H234	H	0.082307	-0.151308	0.666742
H235	H	-0.452287	-1.087848	0.000107
H236	H	-0.118954	-0.754515	0.333441
H237	H	0.214379	-0.421181	0.666774
H238	H	-0.338796	-0.842238	0.000072
H239	H	-0.005463	-0.508904	0.333405
H240	H	0.327870	-0.175571	0.666738
H241	H	0.286045	-0.688381	0.000056
H242	H	0.619378	-0.355048	0.333389
H243	H	0.952711	-0.021714	0.666722
Cl244	Cl	0.303390	-0.519403	0.000066
Cl245	Cl	0.636723	-0.186070	0.333400
Cl246	Cl	0.970056	0.147264	0.666733
H247	H	0.052321	-0.181294	0.000118
H248	H	0.385654	0.152039	0.333452
H249	H	0.718988	0.485372	0.666785
H250	H	0.322194	-0.313367	0.000070
H251	H	0.655527	0.019966	0.333404
H252	H	0.988860	0.353300	0.666737
H253	H	0.309658	-0.164579	0.000092
H254	H	0.642991	0.168754	0.333425
H255	H	0.976324	0.502088	0.666759
H256	H	0.064854	-0.330070	0.000117
H257	H	0.398187	0.003263	0.333450
H258	H	0.731520	0.336596	0.666784
