data_functionalizedCrystal
_audit_creation_method	'MofGen! by Chris Wilmer'
_symmetry_space_group_name_H-M	'P1'
_symmetry_Int_Tables_number	1
_symmetry_cell_setting	triclinic
loop_
_symmetry_equiv_pos_as_xyz
  x,y,z
_cell_length_a	25.639243
_cell_length_b	25.639239
_cell_length_c	12.759393
_cell_angle_alpha	89.962948
_cell_angle_beta	89.975751
_cell_angle_gamma	90.041410
loop_
_atom_site_label
_atom_site_type_symbol
_atom_site_fract_x
_atom_site_fract_y
_atom_site_fract_z
Zn1	Zn	0.799268	-0.208082	-0.594103
Zn2	Zn	0.799179	-0.295529	-0.418406
Zn3	Zn	0.711832	-0.208113	-0.418424
Zn4	Zn	0.711789	-0.295492	-0.594030
O5	O	0.755517	-0.251804	-0.506241
O6	O	0.872421	-0.219684	-0.570819
O7	O	0.787572	-0.283961	-0.271387
O8	O	0.723485	-0.134944	-0.441767
O9	O	0.872356	-0.283931	-0.441735
O10	O	0.787724	-0.134921	-0.570837
O11	O	0.723399	-0.219737	-0.271401
O12	O	0.638661	-0.219702	-0.441696
O13	O	0.723413	-0.283869	-0.741060
O14	O	0.638630	-0.283899	-0.570712
O15	O	0.787683	-0.219649	-0.741114
O16	O	0.787531	-0.368689	-0.441664
O17	O	0.723327	-0.368662	-0.570694
C18	C	0.619674	-0.251800	-0.506199
C19	C	0.561560	-0.251812	-0.506206
C20	C	0.201226	-0.218403	-0.573566
C21	C	0.146621	-0.218403	-0.573573
O22	O	0.118409	-0.189988	-0.630793
N23	N	0.119278	-0.251803	-0.506269
C24	C	0.146541	-0.285201	-0.438947
O25	O	0.118269	-0.313610	-0.381700
C26	C	0.201145	-0.285198	-0.438936
C27	C	0.228485	-0.251800	-0.506252
C28	C	0.228567	-0.185007	-0.640876
C29	C	0.283167	-0.185009	-0.640870
C30	C	0.310427	-0.218406	-0.573556
C31	C	0.283086	-0.251802	-0.506246
C32	C	0.228407	-0.318594	-0.371610
C33	C	0.283014	-0.318588	-0.371604
C34	C	0.310355	-0.285190	-0.438920
C35	C	0.364946	-0.285200	-0.438927
N36	N	0.392290	-0.251800	-0.506230
C37	C	0.365030	-0.218403	-0.573545
C38	C	0.031871	-0.285203	-0.438974
C39	C	-0.022732	-0.285209	-0.438990
C40	C	-0.022648	-0.218410	-0.573614
C41	C	0.031956	-0.218407	-0.573603
C42	C	0.059214	-0.251804	-0.506278
C43	C	0.479695	-0.218409	-0.573529
C44	C	0.534301	-0.218415	-0.573521
C45	C	0.534212	-0.285211	-0.438893
C46	C	0.479611	-0.285208	-0.438904
C47	C	0.452354	-0.251802	-0.506226
O48	O	0.393193	-0.313599	-0.381732
O49	O	0.393309	-0.189995	-0.630772
C50	C	0.755429	-0.387647	-0.506192
C51	C	0.755439	-0.445761	-0.506207
C52	C	0.789035	-0.806125	-0.439169
C53	C	0.789056	-0.860729	-0.439183
O54	O	0.817529	-0.888967	-0.382132
N55	N	0.755609	-0.888043	-0.506310
C56	C	0.722143	-0.860750	-0.573435
O57	O	0.693696	-0.888996	-0.630534
C58	C	0.722126	-0.806146	-0.573426
C59	C	0.755571	-0.778835	-0.506287
C60	C	0.822479	-0.778814	-0.372036
C61	C	0.822457	-0.724213	-0.372021
C62	C	0.788993	-0.696924	-0.439139
C63	C	0.755550	-0.724235	-0.506271
C64	C	0.688663	-0.778854	-0.640555
C65	C	0.688649	-0.724247	-0.640540
C66	C	0.722095	-0.696936	-0.573401
C67	C	0.722065	-0.642345	-0.573374
N68	N	0.755512	-0.615031	-0.506247
C69	C	0.788976	-0.642321	-0.439129
C70	C	0.722183	-0.975420	-0.573451
C71	C	0.722197	-1.030023	-0.573456
C72	C	0.789110	-1.029998	-0.439205
C73	C	0.789093	-0.975395	-0.439196
C74	C	0.755629	-0.948107	-0.506324
C75	C	0.788929	-0.527656	-0.439102
C76	C	0.788903	-0.473050	-0.439090
C77	C	0.721992	-0.473079	-0.573344
C78	C	0.722015	-0.527680	-0.573353
C79	C	0.755488	-0.554967	-0.506228
O80	O	0.693607	-0.614072	-0.630398
O81	O	0.817423	-0.614067	-0.382050
C82	C	0.891890	-0.251808	-0.506283
C83	C	0.950004	-0.251810	-0.506301
C84	C	0.755553	-0.251751	-0.780274
C85	C	0.755569	-0.251729	-0.897051
C86	C	0.755619	-0.115431	-0.506312
C87	C	0.755663	-0.057317	-0.506342
C88	C	0.789039	-0.218286	-0.951942
C89	C	0.789052	-0.218267	-1.061667
C90	C	0.722122	-0.285138	-1.061598
C91	C	0.722108	-0.285154	-0.951876
C92	C	0.822501	-0.184861	-0.897118
C93	C	0.855974	-0.151416	-0.952009
C94	C	0.855986	-0.151397	-1.061733
C95	C	0.822525	-0.184823	-1.116566
C96	C	0.755510	-0.251819	-0.233273
C97	C	0.755596	-0.251694	-0.116497
H98	H	0.206156	-0.345790	-0.316793
N99	N	0.858576	-0.808242	-0.299641
H100	H	0.879756	-0.782648	-0.257118
H101	H	0.837314	-0.830936	-0.250978
H102	H	0.883238	-0.124161	-1.106423
N103	N	0.822488	-0.184872	-0.778774
H104	H	0.786626	-0.175260	-0.752340
H105	H	0.832087	-0.220750	-0.752400
N106	N	0.686043	-0.321195	-1.120737
H107	H	0.664837	-0.342384	-1.069312
H108	H	0.661869	-0.299906	-1.166272
H109	H	-0.044853	-0.191215	-0.628423
H110	H	0.883213	-0.124199	-0.907358
N111	N	0.822532	-0.184799	-1.234911
H112	H	0.848811	-0.158539	-1.261368
H113	H	0.832102	-0.220679	-1.261242
H114	H	0.694957	-1.052255	-0.628118
N115	N	0.563790	-0.182393	-0.646131
H116	H	0.538232	-0.161236	-0.688772
H117	H	0.586453	-0.158172	-0.603455
N118	N	0.450301	-0.182377	-0.646133
H119	H	0.475914	-0.161224	-0.688766
H120	H	0.427642	-0.203685	-0.694683
N121	N	0.686008	-0.321222	-0.892662
H122	H	0.664816	-0.342398	-0.944040
H123	H	0.707267	-0.345425	-0.847125
H124	H	0.305423	-0.157812	-0.695684
H125	H	0.816327	-0.953162	-0.384526
N126	N	0.686082	-0.945987	-0.645843
H127	H	0.694182	-0.955455	-0.720927
H128	H	0.648749	-0.955549	-0.629357
N129	N	0.199170	-0.148978	-0.713474
H130	H	0.224784	-0.127823	-0.756102
H131	H	0.176512	-0.170284	-0.762030
N132	N	0.061443	-0.182386	-0.646207
H133	H	0.035883	-0.161232	-0.688850
H134	H	0.084102	-0.158161	-0.603528
H135	H	-0.044988	-0.312411	-0.384187
H136	H	0.054061	-0.312403	-0.384153
H137	H	0.816187	-0.549866	-0.384445
N138	N	0.312414	-0.354607	-0.298983
H139	H	0.286805	-0.375762	-0.256345
H140	H	0.335063	-0.378831	-0.341651
H141	H	0.457349	-0.312409	-0.384103
H142	H	0.556417	-0.312403	-0.384089
H143	H	0.816139	-0.450815	-0.384413
H144	H	0.849693	-0.701980	-0.317354
H145	H	0.661426	-0.801081	-0.695222
N146	N	0.825205	-1.059437	-0.366811
H147	H	0.820139	-1.098172	-0.377013
H148	H	0.862539	-1.049849	-0.383234
N149	N	0.652557	-0.694814	-0.712947
H150	H	0.631375	-0.720405	-0.755476
H151	H	0.628362	-0.672202	-0.670133
N152	N	0.685939	-0.557137	-0.645759
H153	H	0.707182	-0.579748	-0.694497
H154	H	0.661737	-0.579807	-0.602951
N155	N	0.685896	-0.443640	-0.645725
H156	H	0.690962	-0.404906	-0.635524
H157	H	0.694018	-0.453144	-0.720779
