data_functionalizedCrystal
_audit_creation_method	'MofGen! by Chris Wilmer'
_symmetry_space_group_name_H-M	'P1'
_symmetry_Int_Tables_number	1
_symmetry_cell_setting	triclinic
loop_
_symmetry_equiv_pos_as_xyz
  x,y,z
_cell_length_a	21.295417
_cell_length_b	17.077404
_cell_length_c	17.077396
_cell_angle_alpha	90.020778
_cell_angle_beta	89.965204
_cell_angle_gamma	89.973080
loop_
_atom_site_label
_atom_site_type_symbol
_atom_site_fract_x
_atom_site_fract_y
_atom_site_fract_z
Zn1	Zn	-0.250659	-1.199994	-0.443895
Zn2	Zn	0.249341	-0.699994	0.056105
Zn3	Zn	-0.355935	-1.199889	-0.312618
Zn4	Zn	0.144065	-0.699889	0.187382
Zn5	Zn	-0.250677	-1.068732	-0.312634
Zn6	Zn	0.249323	-0.568732	0.187366
Zn7	Zn	-0.355888	-1.068676	-0.443833
Zn8	Zn	0.144112	-0.568676	0.056167
O9	O	-0.303290	-1.134323	-0.378245
O10	O	0.196710	-0.634323	0.121755
O11	O	-0.264637	-1.309827	-0.426500
O12	O	0.235363	-0.809827	0.073500
O13	O	-0.342000	-1.182470	-0.202773
O14	O	0.158000	-0.682470	0.297227
O15	O	-0.162586	-1.086211	-0.330079
O16	O	0.337414	-0.586211	0.169921
O17	O	-0.341983	-1.309750	-0.330051
O18	O	0.158017	-0.809750	0.169949
O19	O	-0.162572	-1.182649	-0.426515
O20	O	0.337428	-0.682649	0.073485
O21	O	-0.264668	-1.086109	-0.202785
O22	O	0.235332	-0.586109	0.297215
O23	O	-0.264622	-0.958877	-0.330019
O24	O	0.235378	-0.458877	0.169981
O25	O	-0.341902	-1.086117	-0.553688
O26	O	0.158098	-0.586117	-0.053688
O27	O	-0.341919	-0.958837	-0.426410
O28	O	0.158081	-0.458837	0.073590
O29	O	-0.264591	-1.182595	-0.553734
O30	O	0.235409	-0.682595	-0.053734
O31	O	-0.444019	-1.182417	-0.329991
O32	O	0.055981	-0.682417	0.170009
O33	O	-0.443984	-1.086015	-0.426395
O34	O	0.056016	-0.586015	0.073605
C35	C	-0.303268	-0.930375	-0.378210
C36	C	0.196732	-0.430375	0.121790
C37	C	-0.303273	-0.843125	-0.378214
C38	C	0.196727	-0.343125	0.121786
C39	C	-0.263089	-0.467348	-0.428554
C40	C	0.236911	0.032652	0.071446
C41	C	-0.263086	-0.549328	-0.428548
C42	C	0.236914	-0.049328	0.071452
C43	C	-0.303289	-0.590276	-0.378248
C44	C	0.196711	-0.090276	0.121752
C45	C	-0.343502	-0.549240	-0.327956
C46	C	0.156498	-0.049240	0.172044
C47	C	-0.343507	-0.467261	-0.327967
C48	C	0.156493	0.032739	0.172033
C49	C	-0.343488	-0.720110	-0.327937
C50	C	0.156512	-0.220110	0.172063
C51	C	-0.343482	-0.802094	-0.327925
C52	C	0.156518	-0.302094	0.172075
C53	C	-0.263067	-0.802177	-0.428517
C54	C	0.236933	-0.302177	0.071483
C55	C	-0.263072	-0.720198	-0.428528
C56	C	0.236928	-0.220198	0.071472
C57	C	-0.303284	-0.679167	-0.378235
C58	C	0.196716	-0.179167	0.121765
C59	C	-0.466842	-1.134220	-0.378202
C60	C	0.033158	-0.634220	0.121798
C61	C	-0.536810	-1.134248	-0.378209
C62	C	-0.036810	-0.634248	0.121791
C63	C	-0.569674	-1.184489	-0.328064
C64	C	-0.069674	-0.684489	0.171936
C65	C	-0.635416	-1.184525	-0.328081
C66	C	-0.135416	-0.684525	0.171919
C67	C	-0.668292	-1.134307	-0.378236
C68	C	-0.168292	-0.634307	0.121764
C69	C	-0.635421	-1.084063	-0.428392
C70	C	-0.135421	-0.584063	0.071608
C71	C	-0.569679	-1.084033	-0.428378
C72	C	-0.069679	-0.584033	0.071622
N73	N	-0.771554	-1.065638	-0.384209
N74	N	-0.271554	-0.565638	0.115791
N75	N	-0.834006	-1.065669	-0.384217
N76	N	-0.334006	-0.565669	0.115783
C77	C	-0.866367	-1.134395	-0.378281
C78	C	-0.366367	-0.634395	0.121719
N79	N	-0.833918	-1.203092	-0.372322
N80	N	-0.333918	-0.703092	0.127678
N81	N	-0.771460	-1.203060	-0.372309
N82	N	-0.271460	-0.703060	0.127691
C83	C	-0.739578	-1.134334	-0.378257
C84	C	-0.239578	-0.634334	0.121743
C85	C	-0.970516	-1.184680	-0.328152
C86	C	-0.470516	-0.684680	0.171848
C87	C	-1.036260	-1.184718	-0.328175
C88	C	-0.536260	-0.684718	0.171825
C89	C	-1.036263	-1.084249	-0.428482
C90	C	-0.536263	-0.584249	0.071518
C91	C	-0.970521	-1.084218	-0.428463
C92	C	-0.470521	-0.584218	0.071537
C93	C	-0.937651	-1.134432	-0.378294
C94	C	-0.437651	-0.634432	0.121706
C95	C	-0.139100	-1.134448	-0.378306
C96	C	0.360900	-0.634448	0.121694
C97	C	-0.069132	-1.134501	-0.378332
C98	C	0.430868	-0.634501	0.121668
C99	C	-0.303239	-1.134362	-0.582989
C100	C	0.196761	-0.634362	-0.082989
C101	C	-0.303217	-1.134378	-0.670239
C102	C	0.196783	-0.634378	-0.170239
C103	C	-0.303307	-0.339067	-0.378273
C104	C	0.196693	0.160933	0.121727
C105	C	-0.303297	-0.426317	-0.378265
C106	C	0.196703	0.073683	0.121735
C107	C	-0.343411	-1.184625	-1.046050
C108	C	0.156589	-0.684625	-0.546050
C109	C	-0.343430	-1.184605	-0.964070
C110	C	0.156570	-0.684605	-0.464070
C111	C	-0.303173	-1.134429	-0.923088
C112	C	0.196827	-0.634429	-0.423088
C113	C	-0.262900	-1.084264	-0.964092
C114	C	0.237100	-0.584264	-0.464092
C115	C	-0.262885	-1.084280	-1.046071
C116	C	0.237115	-0.584280	-0.546071
C117	C	-0.262932	-1.084234	-0.793222
C118	C	0.237068	-0.584234	-0.293222
C119	C	-0.262946	-1.084218	-0.711237
C120	C	0.237054	-0.584218	-0.211237
C121	C	-0.343477	-1.184559	-0.711220
C122	C	0.156523	-0.684559	-0.211220
C123	C	-0.343462	-1.184576	-0.793199
C124	C	0.156538	-0.684576	-0.293199
C125	C	-0.303188	-1.134411	-0.834197
C126	C	0.196812	-0.634411	-0.334197
C127	C	-0.303295	-1.134329	-0.174297
C128	C	0.196705	-0.634329	0.325703
C129	C	-0.303140	-1.134465	-0.087048
C130	C	0.196860	-0.634465	0.412952
H131	H	-0.230324	-0.835589	-0.469466
H132	H	0.269676	-0.335589	0.030534
H133	H	-0.376230	-1.225440	-0.930693
H134	H	0.123770	-0.725440	-0.430693
H135	H	-0.376250	-0.433854	-0.287018
H136	H	0.123750	0.066146	0.212982
C137	C	-0.934366	-1.028948	-0.483617
C138	C	-0.434366	-0.528948	0.016383
H139	H	-0.890505	-1.036127	-0.476430
H140	H	-0.390505	-0.536127	0.023570
H141	H	-0.945182	-0.976218	-0.472081
H142	H	-0.445182	-0.476218	0.027919
H143	H	-0.945100	-1.040415	-0.536374
H144	H	-0.445100	-0.540415	-0.036374
H145	H	-0.376190	-1.225488	-1.079411
H146	H	0.123810	-0.725488	-0.579411
H147	H	-0.376239	-0.582586	-0.287005
H148	H	0.123761	-0.082586	0.212995
H149	H	-0.230137	-1.043385	-0.826600
H150	H	0.269863	-0.543385	-0.326600
C151	C	-0.533528	-1.028762	-0.483536
C152	C	-0.033528	-0.528762	0.016464
H153	H	-0.562521	-0.998855	-0.513409
H154	H	-0.062521	-0.498855	-0.013409
H155	H	-0.507837	-1.058755	-0.517760
H156	H	-0.007837	-0.558755	-0.017760
H157	H	-0.507927	-0.994562	-0.453463
H158	H	-0.007927	-0.494562	0.046537
H159	H	-1.063030	-1.043364	-0.469322
H160	H	-0.563030	-0.543364	0.030678
H161	H	-0.376220	-0.835432	-0.286968
H162	H	0.123780	-0.335432	0.213032
C163	C	-0.934354	-1.239921	-0.272981
C164	C	-0.434354	-0.739921	0.227019
H165	H	-0.890494	-1.232702	-0.280148
H166	H	-0.390494	-0.732702	0.219852
H167	H	-0.945085	-1.292660	-0.284527
H168	H	-0.445085	-0.792660	0.215473
H169	H	-0.945170	-1.228470	-0.220227
H170	H	-0.445170	-0.728470	0.279773
C171	C	-0.218867	-0.422312	-0.483888
C172	C	0.281133	0.077688	0.016112
H173	H	-0.194926	-0.458493	-0.513843
H174	H	0.305074	0.041507	-0.013843
H175	H	-0.191409	-0.390329	-0.453935
H176	H	0.308591	0.109671	0.046065
H177	H	-0.242991	-0.390341	-0.518039
H178	H	0.257009	0.109659	-0.018039
H179	H	-1.063017	-1.225635	-0.287342
H180	H	-0.563017	-0.725635	0.212658
H181	H	-0.230347	-0.582732	-0.469501
H182	H	0.269653	-0.082732	0.030499
C183	C	-0.533521	-1.239731	-0.272889
C184	C	-0.033521	-0.739731	0.227111
H185	H	-0.562513	-1.269664	-0.243031
H186	H	-0.062513	-0.769664	0.256969
H187	H	-0.507913	-1.209718	-0.238652
H188	H	-0.007913	-0.709718	0.261348
H189	H	-0.507837	-1.273907	-0.302952
H190	H	-0.007837	-0.773907	0.197048
C191	C	-0.218683	-1.029004	-0.666159
C192	C	0.281317	-0.529004	-0.166159
H193	H	-0.194706	-0.999116	-0.702315
H194	H	0.305294	-0.499116	-0.202315
H195	H	-0.191260	-1.059028	-0.634187
H196	H	0.308740	-0.559028	-0.134187
H197	H	-0.242786	-0.994784	-0.634171
H198	H	0.257214	-0.494784	-0.134171
H199	H	-0.230332	-0.686861	-0.469483
H200	H	0.269668	-0.186861	0.030517
H201	H	-0.230125	-1.043406	-0.930718
H202	H	0.269875	-0.543406	-0.430718
H203	H	-0.376239	-1.225437	-0.826564
H204	H	0.123761	-0.725437	-0.326564
H205	H	-0.662193	-1.043176	-0.469230
H206	H	-0.162193	-0.543176	0.030770
C207	C	-0.218585	-1.029107	-1.091168
C208	C	0.281415	-0.529107	-0.591168
H209	H	-0.194607	-0.999226	-1.055022
H210	H	0.305393	-0.499226	-0.555022
H211	H	-0.242654	-0.994892	-1.123132
H212	H	0.257346	-0.494892	-0.623132
H213	H	-0.191153	-1.059168	-1.123166
H214	H	0.308847	-0.559168	-0.623166
H215	H	-0.376269	-1.225405	-0.677836
H216	H	0.123731	-0.725405	-0.177836
C217	C	-0.671574	-1.239786	-0.272913
C218	C	-0.171574	-0.739786	0.227087
H219	H	-0.642582	-1.269683	-0.243029
H220	H	-0.142582	-0.769683	0.256971
H221	H	-0.697182	-1.273983	-0.302972
H222	H	-0.197182	-0.773983	0.197028
H223	H	-0.697257	-1.209777	-0.238688
H224	H	-0.197257	-0.709777	0.261312
C225	C	-0.387719	-0.674977	-0.272614
C226	C	0.112281	-0.174977	0.227386
H227	H	-0.411657	-0.711104	-0.242650
H228	H	0.088343	-0.211104	0.257350
H229	H	-0.415180	-0.642996	-0.302579
H230	H	0.084820	-0.142996	0.197421
H231	H	-0.363600	-0.642994	-0.238471
H232	H	0.136400	-0.142994	0.261529
