data_functionalizedCrystal
_audit_creation_method	'MofGen! by Chris Wilmer'
_symmetry_space_group_name_H-M	'P1'
_symmetry_Int_Tables_number	1
_symmetry_cell_setting	triclinic
loop_
_symmetry_equiv_pos_as_xyz
  x,y,z
_cell_length_a	17.038272
_cell_length_b	14.519709
_cell_length_c	12.996460
_cell_angle_alpha	89.999966
_cell_angle_beta	89.993697
_cell_angle_gamma	92.604149
loop_
_atom_site_label
_atom_site_type_symbol
_atom_site_fract_x
_atom_site_fract_y
_atom_site_fract_z
O1	O	0.102503	-1.231711	-0.085433
O2	O	0.114573	-0.964158	-0.085465
O3	O	-0.005280	-1.096345	-0.085441
O4	O	0.222356	-1.099525	-0.085457
O5	O	-0.005287	-1.096329	0.085693
O6	O	0.114567	-0.964143	0.085669
O7	O	0.102496	-1.231696	0.085701
Cu8	Cu	0.108531	-1.097918	0.101311
Cu9	Cu	0.108539	-1.097936	-0.101075
O10	O	0.222349	-1.099510	0.085677
C11	C	0.114008	-0.929748	0.000098
C12	C	0.112322	-0.827237	0.000086
C13	C	-0.034416	-1.093444	0.000125
C14	C	-0.121223	-1.084814	0.000124
C15	C	0.103062	-1.266107	0.000135
C16	C	0.104748	-1.368617	0.000141
C17	C	-0.171209	-1.164047	0.000135
C18	C	-0.252773	-1.155933	0.000124
C19	C	-0.284349	-1.068585	0.000110
C20	C	-0.234357	-0.989347	0.000097
C21	C	-0.152795	-0.997462	0.000100
C22	C	-0.530153	-1.039916	0.000093
C23	C	-0.611722	-1.031807	0.000092
C24	C	-0.630132	-1.198394	0.000118
C25	C	-0.548568	-1.206502	0.000127
C26	C	-0.498583	-1.127263	0.000108
C27	C	-0.367720	-1.060289	0.000102
C28	C	-0.415213	-1.135560	0.000109
C29	C	0.251486	-1.102410	0.000108
C30	C	0.338292	-1.111040	0.000103
N31	N	0.108525	-1.097912	0.243658
C32	C	0.106116	-0.451867	0.000134
C33	C	0.107839	-0.556307	0.000120
C34	C	0.109219	-0.639549	0.000109
C35	C	0.110942	-0.743995	0.000098
N36	N	0.108538	-1.097949	-0.243422
C37	C	0.108539	-1.097935	0.663472
C38	C	0.108538	-1.097926	0.546667
C39	C	0.108533	-1.097924	0.453569
C40	C	0.108530	-1.097914	0.336756
H41	H	-0.293468	-1.220453	0.000135
O42	O	-0.518027	-1.291422	0.000098
C43	C	-0.579637	-1.359617	0.000136
H44	H	-0.635074	-1.329424	-0.032278
H45	H	-0.591153	-1.384348	0.082243
C46	C	-0.488403	-1.478575	-0.027142
C47	C	-0.556491	-1.441492	-0.066960
H48	H	-0.474126	-1.529081	-0.068525
H49	H	-0.446895	-1.432631	-0.027163
H50	H	-0.498009	-1.499176	0.041280
H51	H	-0.546882	-1.420881	-0.135376
H52	H	-0.597998	-1.487434	-0.066952
O53	O	-0.398359	-0.975422	-0.000087
C54	C	-0.372806	-0.926727	-0.088708
H55	H	-0.355757	-0.977693	-0.150650
H56	H	-0.319731	-0.879491	-0.068669
C57	C	-0.460562	-0.805899	-0.052830
C58	C	-0.439628	-0.868497	-0.128912
H59	H	-0.501779	-0.769976	-0.077628
H60	H	-0.477776	-0.838703	0.006878
H61	H	-0.416327	-0.766545	-0.036138
H62	H	-0.483860	-0.907857	-0.145593
H63	H	-0.422423	-0.835698	-0.188624
H64	H	-0.670838	-1.262906	0.000131
H65	H	-0.637427	-0.960675	0.000098
H66	H	-0.489465	-0.975394	0.000078
H67	H	-0.145506	-1.235175	0.000152
H68	H	-0.260072	-0.918226	0.000079
H69	H	-0.112096	-0.932942	0.000091
O70	O	-0.384450	-1.220357	-0.000015
C71	C	-0.337830	-1.230051	-0.088658
H72	H	-0.317623	-1.158952	-0.118222
H73	H	-0.373798	-1.268043	-0.150713
C74	C	-0.290432	-1.372687	-0.025411
C75	C	-0.265608	-1.285362	-0.061717
H76	H	-0.245884	-1.406809	-0.008796
H77	H	-0.321843	-1.366158	0.034308
H78	H	-0.320406	-1.404335	-0.077130
H79	H	-0.235643	-1.253711	-0.009995
H80	H	-0.234190	-1.291887	-0.121427
