data_functionalizedCrystal
_audit_creation_method	'MofGen! by Chris Wilmer'
_symmetry_space_group_name_H-M	'P1'
_symmetry_Int_Tables_number	1
_symmetry_cell_setting	triclinic
loop_
_symmetry_equiv_pos_as_xyz
  x,y,z
_cell_length_a	11.792241
_cell_length_b	12.503572
_cell_length_c	11.792241
_cell_angle_alpha	86.452757
_cell_angle_beta	84.193416
_cell_angle_gamma	93.538276
loop_
_atom_site_label
_atom_site_type_symbol
_atom_site_fract_x
_atom_site_fract_y
_atom_site_fract_z
O1	O	1.513406	0.089216	0.149050
O2	O	1.763406	0.339216	0.399050
O3	O	2.013406	0.589216	0.649050
O4	O	2.263406	0.839216	0.899050
O5	O	1.183067	0.089241	0.165081
O6	O	1.433067	0.339241	0.415081
O7	O	1.683067	0.589241	0.665081
O8	O	1.933067	0.839241	0.915081
O9	O	1.356252	0.089221	-0.008105
O10	O	1.606252	0.339221	0.241895
O11	O	1.856252	0.589221	0.491895
O12	O	2.106252	0.839221	0.741895
O13	O	1.340220	0.089237	0.322235
O14	O	1.590220	0.339237	0.572235
O15	O	1.840220	0.589237	0.822235
O16	O	2.090220	0.839237	1.072235
O17	O	1.343228	-0.089420	0.004941
O18	O	1.593228	0.160580	0.254941
O19	O	1.843228	0.410580	0.504941
O20	O	2.093228	0.660580	0.754941
O21	O	1.170042	-0.089399	0.178127
O22	O	1.420042	0.160601	0.428127
O23	O	1.670042	0.410601	0.678127
O24	O	1.920042	0.660601	0.928127
O25	O	1.500381	-0.089424	0.162096
O26	O	1.750381	0.160576	0.412096
O27	O	2.000381	0.410576	0.662096
O28	O	2.250381	0.660576	0.912096
Cu29	Cu	1.334023	-0.105723	0.171303
Cu30	Cu	1.584023	0.144277	0.421303
Cu31	Cu	1.834023	0.394277	0.671303
Cu32	Cu	2.084023	0.644277	0.921303
Cu33	Cu	1.349425	0.105540	0.155874
Cu34	Cu	1.599425	0.355540	0.405874
Cu35	Cu	1.849425	0.605540	0.655874
Cu36	Cu	2.099425	0.855540	0.905874
O37	O	1.327196	-0.089403	0.335281
O38	O	1.577196	0.160597	0.585281
O39	O	1.827196	0.410597	0.835281
O40	O	2.077196	0.660597	1.085281
C41	C	1.134264	-0.000076	0.170596
C42	C	1.384264	0.249924	0.420596
C43	C	1.634264	0.499924	0.670596
C44	C	1.884264	0.749924	0.920596
C45	C	1.008251	-0.000066	0.167581
C46	C	1.258251	0.249934	0.417581
C47	C	1.508251	0.499934	0.667581
C48	C	1.758251	0.749934	0.917581
N49	N	1.323197	-0.254314	0.182154
N50	N	1.573197	-0.004314	0.432154
N51	N	1.823197	0.245686	0.682154
N52	N	2.073197	0.495686	0.932154
C53	C	0.777536	-0.000097	0.162041
C54	C	1.027536	0.249903	0.412041
C55	C	1.277536	0.499903	0.662041
C56	C	1.527536	0.749903	0.912041
C57	C	0.905923	-0.000080	0.165119
C58	C	1.155923	0.249920	0.415119
C59	C	1.405923	0.499920	0.665119
C60	C	1.655923	0.749920	0.915119
C61	C	1.307273	-0.473427	0.198126
C62	C	1.557273	-0.223427	0.448126
C63	C	1.807273	0.026573	0.698126
C64	C	2.057273	0.276573	0.948126
C65	C	1.376180	-0.526763	0.129046
C66	C	1.626180	-0.276763	0.379046
C67	C	1.876180	-0.026763	0.629046
C68	C	2.126180	0.223237	0.879046
C69	C	1.367320	-0.648685	0.137933
C70	C	1.617320	-0.398685	0.387933
C71	C	1.867320	-0.148685	0.637933
C72	C	2.117320	0.101315	0.887933
C73	C	1.316132	-0.351494	0.189240
C74	C	1.566132	-0.101494	0.439240
C75	C	1.816132	0.148506	0.689240
C76	C	2.066132	0.398506	0.939240
C77	C	1.549185	-0.000105	0.156580
C78	C	1.799185	0.249895	0.406580
C79	C	2.049185	0.499895	0.656580
C80	C	2.299185	0.749895	0.906580
C81	C	1.675198	-0.000107	0.159594
C82	C	1.925198	0.249893	0.409594
C83	C	2.175198	0.499893	0.659594
C84	C	2.425198	0.749893	0.909594
C85	C	1.348733	-0.000099	-0.043873
C86	C	1.598733	0.249901	0.206127
C87	C	1.848733	0.499901	0.456127
C88	C	2.098733	0.749901	0.706127
C89	C	1.345718	-0.000098	-0.169886
C90	C	1.595718	0.249902	0.080114
C91	C	1.845718	0.499902	0.330114
C92	C	2.095718	0.749902	0.580114
N93	N	1.360260	0.254131	0.145014
N94	N	1.610260	0.504131	0.395014
N95	N	1.860260	0.754131	0.645014
N96	N	2.110260	1.004131	0.895014
C97	C	1.340177	-0.000079	-0.400600
C98	C	1.590177	0.249921	-0.150600
C99	C	1.840177	0.499921	0.099400
C100	C	2.090177	0.749921	0.349400
C101	C	1.343256	-0.000089	-0.272214
C102	C	1.593256	0.249911	-0.022214
C103	C	1.843256	0.499911	0.227786
C104	C	2.093256	0.749911	0.477786
C105	C	1.334715	-0.000081	0.371049
C106	C	1.584715	0.249919	0.621049
C107	C	1.834715	0.499919	0.871049
C108	C	2.084715	0.749919	1.121049
C109	C	1.337730	-0.000076	0.497062
C110	C	1.587730	0.249924	0.747062
C111	C	1.837730	0.499924	0.997062
C112	C	2.087730	0.749924	1.247062
H113	H	1.241630	-0.519327	0.263938
H114	H	1.491630	-0.269327	0.513938
H115	H	1.741630	-0.019327	0.763938
H116	H	1.991630	0.230673	1.013938
H117	H	1.441829	-0.480857	0.063231
H118	H	1.691829	-0.230857	0.313231
H119	H	1.941829	0.019143	0.563231
H120	H	2.191829	0.269143	0.813231
