data_functionalizedCrystal
_audit_creation_method	'MofGen! by Chris Wilmer'
_symmetry_space_group_name_H-M	'P1'
_symmetry_Int_Tables_number	1
_symmetry_cell_setting	triclinic
loop_
_symmetry_equiv_pos_as_xyz
  x,y,z
_cell_length_a	8.559649
_cell_length_b	14.044190
_cell_length_c	7.088929
_cell_angle_alpha	83.202929
_cell_angle_beta	95.325015
_cell_angle_gamma	81.485221
loop_
_atom_site_label
_atom_site_type_symbol
_atom_site_fract_x
_atom_site_fract_y
_atom_site_fract_z
O1	O	2.100734	-0.021003	-0.158953
O2	O	1.642436	0.027448	-0.158972
O3	O	1.864704	-0.134263	-0.158925
O4	O	1.878467	0.140709	-0.159000
O5	O	1.894402	-0.155918	0.159056
O6	O	1.672134	0.005793	0.159009
O7	O	2.130432	-0.042657	0.159029
Cu8	Cu	1.903995	-0.020409	0.188053
Cu9	Cu	1.868874	0.005200	-0.187997
O10	O	1.908164	0.119054	0.158982
C11	C	1.598279	0.020293	0.000017
C12	C	1.422456	0.031222	0.000011
C13	C	1.873529	-0.179967	0.000071
C14	C	1.855563	-0.283886	0.000087
C15	C	1.950141	-0.541053	0.000016
C16	C	1.822733	-0.474150	0.000024
C17	C	1.841004	-0.368278	0.000059
C18	C	1.931872	-0.646936	-0.000019
C19	C	2.174589	-0.035502	0.000036
C20	C	2.350411	-0.046430	0.000029
C21	C	1.899338	0.164758	-0.000019
C22	C	1.917304	0.268678	-0.000047
N23	N	1.928708	-0.038423	0.452547
N24	N	1.844172	0.023205	-0.452490
H25	H	1.423238	-0.121273	0.000040
H26	H	1.349619	0.106071	-0.000020
H27	H	2.016340	-0.102286	0.534221
O28	O	1.660066	-0.503591	0.000030
H29	H	1.671053	-0.583337	0.000029
H30	H	2.072931	-0.518820	0.000041
O31	O	1.728079	0.107790	0.439356
H32	H	1.730100	0.106286	0.283400
