data_functionalizedCrystal
_audit_creation_method	'MofGen! by Chris Wilmer'
_symmetry_space_group_name_H-M	'P1'
_symmetry_Int_Tables_number	1
_symmetry_cell_setting	triclinic
loop_
_symmetry_equiv_pos_as_xyz
  x,y,z
_cell_length_a	14.519709
_cell_length_b	15.944493
_cell_length_c	12.996460
_cell_angle_alpha	89.994417
_cell_angle_beta	90.000602
_cell_angle_gamma	83.577594
loop_
_atom_site_label
_atom_site_type_symbol
_atom_site_fract_x
_atom_site_fract_y
_atom_site_fract_z
O1	O	1.223653	0.110105	0.085419
O2	O	1.556986	0.443438	0.418752
O3	O	1.890319	0.776771	0.752086
O4	O	0.955150	0.123072	0.085449
O5	O	1.288484	0.456405	0.418782
O6	O	1.621817	0.789738	0.752116
O7	O	1.096762	-0.005679	0.085442
O8	O	1.430095	0.327654	0.418775
O9	O	1.763428	0.660987	0.752108
O10	O	1.082041	0.238856	0.085426
O11	O	1.415375	0.572189	0.418760
O12	O	1.748708	0.905522	0.752093
O13	O	1.096743	-0.005672	-0.085692
O14	O	1.430077	0.327662	0.247641
O15	O	1.763410	0.660995	0.580975
O16	O	0.955132	0.123079	-0.085685
O17	O	1.288465	0.456413	0.247648
O18	O	1.621799	0.789746	0.580982
O19	O	1.223635	0.110112	-0.085715
O20	O	1.556968	0.443446	0.247619
O21	O	1.890301	0.776779	0.580952
Cu22	Cu	1.089382	0.116596	-0.101326
Cu23	Cu	1.422715	0.449930	0.232008
Cu24	Cu	1.756048	0.783263	0.565341
Cu25	Cu	1.089403	0.116588	0.101060
Cu26	Cu	1.422736	0.449921	0.434393
Cu27	Cu	1.756070	0.783254	0.767726
O28	O	1.082023	0.238863	-0.085708
O29	O	1.415357	0.572197	0.247626
O30	O	1.748690	0.905530	0.580959
C31	C	0.920783	0.122471	-0.000114
C32	C	1.254116	0.455804	0.333219
C33	C	1.587449	0.789138	0.666553
C34	C	0.818405	0.120660	-0.000102
C35	C	1.151738	0.453994	0.333231
C36	C	1.485072	0.787327	0.666565
C37	C	1.096151	-0.036971	-0.000121
C38	C	1.429484	0.296362	0.333213
C39	C	1.762817	0.629696	0.666546
C40	C	1.094347	-0.130222	-0.000107
C41	C	1.427680	0.203111	0.333226
C42	C	1.761014	0.536444	0.666559
C43	C	0.443522	0.113994	-0.000148
C44	C	0.776856	0.447327	0.333185
C45	C	1.110189	0.780660	0.666518
C46	C	0.547826	0.115845	-0.000135
C47	C	0.881160	0.449178	0.333198
C48	C	1.214493	0.782511	0.666532
C49	C	0.630960	0.117327	-0.000124
C50	C	0.964294	0.450660	0.333209
C51	C	1.297627	0.783993	0.666543
C52	C	0.735271	0.119178	-0.000113
C53	C	1.068604	0.452512	0.333220
C54	C	1.401938	0.785845	0.666554
C55	C	1.177703	-0.365861	-0.000136
C56	C	1.511036	-0.032528	0.333197
C57	C	1.844369	0.300805	0.666530
C58	C	1.132761	-0.416498	0.084246
C59	C	1.466094	-0.083165	0.417579
C60	C	1.799428	0.250168	0.750913
C61	C	1.091005	-0.300948	-0.000120
C62	C	1.424338	0.032385	0.333214
C63	C	1.757672	0.365718	0.666547
C64	C	1.132723	-0.416467	-0.084478
C65	C	1.466056	-0.083134	0.248855
C66	C	1.799390	0.250200	0.582188
C67	C	1.087783	-0.465863	-0.000136
C68	C	1.421116	-0.132529	0.333197
C69	C	1.754450	0.200804	0.666531
C70	C	1.046087	-0.350357	0.084332
C71	C	1.379420	-0.017024	0.417666
C72	C	1.712753	0.316310	0.750999
C73	C	1.046061	-0.350322	-0.084468
C74	C	1.379394	-0.016989	0.248865
C75	C	1.712728	0.316344	0.582199
C76	C	1.001056	-0.400926	-0.000065
C77	C	1.334389	-0.067593	0.333268
C78	C	1.667723	0.265740	0.666602
C79	C	1.092863	-0.205946	-0.000109
C80	C	1.426197	0.127388	0.333224
C81	C	1.759530	0.460721	0.666557
C82	C	1.085918	-0.560862	-0.000139
C83	C	1.419251	-0.227529	0.333194
C84	C	1.752584	0.105804	0.666528
C85	C	1.258002	0.110713	-0.000150
C86	C	1.591336	0.444046	0.333184
C87	C	1.924669	0.777380	0.666517
C88	C	1.360380	0.112524	-0.000155
C89	C	1.693713	0.445857	0.333178
C90	C	2.027047	0.779190	0.666512
C91	C	1.082634	0.270155	-0.000143
C92	C	1.415967	0.603488	0.333190
C93	C	1.749301	0.936822	0.666524
C94	C	1.084438	0.363406	-0.000149
C95	C	1.417771	0.696740	0.333184
C96	C	1.751104	1.030073	0.666517
N97	N	1.089373	0.116602	-0.243673
N98	N	1.422706	0.449935	0.089661
N99	N	1.756040	0.783269	0.422994
C100	C	1.089377	0.116604	-0.336779
C101	C	1.422711	0.449937	-0.003445
C102	C	1.756044	0.783271	0.329888
C103	C	1.089386	0.116599	-0.453584
C104	C	1.422719	0.449932	-0.120251
C105	C	1.756052	0.783265	0.213083
C106	C	1.089397	0.116589	-0.546682
C107	C	1.422731	0.449923	-0.213349
C108	C	1.756064	0.783256	0.119984
C109	C	1.089407	0.116585	-0.663495
C110	C	1.422741	0.449918	-0.330161
C111	C	1.756074	0.783251	0.003172
N112	N	1.089419	0.116575	0.243407
N113	N	1.422752	0.449909	0.576740
N114	N	1.756086	0.783242	0.910074
H115	H	1.252382	-0.350125	-0.000060
H116	H	1.585715	-0.016791	0.333274
H117	H	1.919049	0.316542	0.666607
C118	C	1.215161	-0.391695	0.239495
C119	C	1.548495	-0.058361	0.572829
C120	C	1.881828	0.274972	0.906162
C121	C	1.182198	-0.455512	0.180538
C122	C	1.515531	-0.122179	0.513871
C123	C	1.848864	0.211155	0.847205
H124	H	1.245691	-0.415781	0.298935
H125	H	1.579024	-0.082447	0.632268
H126	H	1.912357	0.250886	0.965602
H127	H	1.164638	-0.352129	0.259784
H128	H	1.497971	-0.018795	0.593117
H129	H	1.831305	0.314538	0.926450
H130	H	1.257524	-0.363904	0.199754
H131	H	1.590858	-0.030571	0.533087
H132	H	1.924191	0.302762	0.866420
H133	H	1.139829	-0.483298	0.220278
H134	H	1.473163	-0.149965	0.553611
H135	H	1.806496	0.183368	0.886944
H136	H	1.232728	-0.495093	0.160251
H137	H	1.566061	-0.161759	0.493585
H138	H	1.899394	0.171574	0.826918
H139	H	1.169347	-0.445342	-0.155812
H140	H	1.502681	-0.112008	0.177521
H141	H	1.836014	0.221325	0.510854
H142	H	1.009501	-0.321593	0.155747
H143	H	1.342835	0.011740	0.489080
H144	H	1.676168	0.345073	0.822414
C145	C	0.855004	-0.388266	0.088429
C146	C	1.188337	-0.054932	0.421762
C147	C	1.521670	0.278401	0.755095
C148	C	0.900167	-0.421962	0.000004
C149	C	1.233501	-0.088628	0.333338
C150	C	1.566834	0.244705	0.666671
H151	H	0.792723	-0.401259	0.088476
H152	H	1.126056	-0.067925	0.421809
H153	H	1.459389	0.265408	0.755142
H154	H	0.855629	-0.328763	0.088990
H155	H	1.188963	0.004570	0.422323
H156	H	1.522296	0.337903	0.755656
H157	H	0.886024	-0.411936	0.147790
H158	H	1.219357	-0.078602	0.481123
H159	H	1.552690	0.254731	0.814457
H160	H	0.869151	-0.398287	-0.059357
H161	H	1.202485	-0.064953	0.273976
H162	H	1.535818	0.268380	0.607309
H163	H	0.899537	-0.481476	-0.000566
H164	H	1.232870	-0.148142	0.332767
H165	H	1.566203	0.185191	0.666101
C166	C	1.042213	-0.344818	-0.269048
C167	C	1.375546	-0.011484	0.064285
C168	C	1.708879	0.321849	0.397619
C169	C	0.996669	-0.311284	-0.180765
C170	C	1.330003	0.022050	0.152568
C171	C	1.663336	0.355383	0.485902
H172	H	1.011728	-0.320711	-0.328502
H173	H	1.345061	0.012622	0.004831
H174	H	1.678394	0.345955	0.338164
H175	H	1.041175	-0.404269	-0.270083
H176	H	1.374509	-0.070936	0.063250
H177	H	1.707842	0.262398	0.396583
H178	H	1.104621	-0.332202	-0.268437
H179	H	1.437954	0.001132	0.064896
H180	H	1.771287	0.334465	0.398229
H181	H	0.934263	-0.323905	-0.181372
H182	H	1.267597	0.009428	0.151961
H183	H	1.600930	0.342762	0.485295
H184	H	0.997697	-0.251819	-0.179730
H185	H	1.331031	0.081515	0.153603
H186	H	1.664364	0.414848	0.486937
