data_functionalizedCrystal
_audit_creation_method	'MofGen! by Chris Wilmer'
_symmetry_space_group_name_H-M	'P1'
_symmetry_Int_Tables_number	1
_symmetry_cell_setting	triclinic
loop_
_symmetry_equiv_pos_as_xyz
  x,y,z
_cell_length_a	10.723024
_cell_length_b	10.723024
_cell_length_c	7.540329
_cell_angle_alpha	89.997572
_cell_angle_beta	89.997341
_cell_angle_gamma	84.467869
loop_
_atom_site_label
_atom_site_type_symbol
_atom_site_fract_x
_atom_site_fract_y
_atom_site_fract_z
O1	O	1.657186	0.175025	-0.147466
O2	O	2.157186	0.675025	0.352534
O3	O	1.294034	0.191779	-0.147472
O4	O	1.794034	0.691779	0.352528
O5	O	1.483986	0.001826	-0.147462
O6	O	1.983986	0.501826	0.352538
O7	O	1.467233	0.364978	-0.147476
O8	O	1.967233	0.864978	0.352524
O9	O	1.483975	0.001823	0.147503
O10	O	1.983975	0.501823	0.647503
O11	O	1.294022	0.191776	0.147493
O12	O	1.794022	0.691776	0.647493
O13	O	1.657175	0.175023	0.147499
O14	O	2.157175	0.675023	0.647499
Cu15	Cu	1.475597	0.183399	0.174429
Cu16	Cu	1.975597	0.683399	0.674429
Cu17	Cu	1.475611	0.183402	-0.174402
Cu18	Cu	1.975611	0.683402	0.325598
O19	O	1.467222	0.364976	0.147490
O20	O	1.967222	0.864976	0.647490
C21	C	1.247528	0.190558	0.000010
C22	C	1.747528	0.690558	0.500010
C23	C	1.108974	0.186911	0.000008
C24	C	1.608974	0.686911	0.500008
C25	C	1.033991	0.293198	0.000003
C26	C	1.533991	0.793198	0.500003
C27	C	0.890788	0.289431	0.000001
C28	C	1.390788	0.789431	0.500001
C29	C	1.482762	-0.044675	0.000018
C30	C	1.982762	0.455325	0.500018
C31	C	1.479114	-0.183229	0.000012
C32	C	1.979114	0.316771	0.500012
C33	C	1.585401	-0.258212	0.000011
C34	C	2.085401	0.241788	0.500011
C35	C	1.581634	-0.401415	0.000005
C36	C	2.081634	0.098585	0.500005
C37	C	1.703680	0.176243	0.000013
C38	C	2.203680	0.676243	0.500013
C39	C	1.842234	0.179891	0.000004
C40	C	2.342234	0.679891	0.500004
C41	C	1.468447	0.411477	0.000005
C42	C	1.968447	0.911477	0.500005
C43	C	1.472094	0.550031	-0.000000
C44	C	1.972094	1.050031	0.500000
N45	N	1.475597	0.183397	0.419777
N46	N	1.975597	0.683397	0.919777
N47	N	1.475621	0.183395	-0.419750
N48	N	1.975621	0.683395	0.080250
H49	H	1.067152	0.093125	-0.000034
H50	H	1.567152	0.593125	0.499966
H51	H	0.826355	0.380421	-0.000011
H52	H	1.326355	0.880421	0.499989
H53	H	0.906659	0.088896	-0.000003
H54	H	1.406659	0.588896	0.499997
C55	C	1.704559	-0.488449	-0.000006
C56	C	2.204559	0.011551	0.499994
H57	H	1.685901	-0.573279	-0.000025
H58	H	2.185901	-0.073279	0.499975
H59	H	1.751808	-0.472895	0.102850
H60	H	2.251808	0.027105	0.602850
H61	H	1.751801	-0.472880	-0.102884
H62	H	2.251801	0.027120	0.397116
C63	C	1.712103	-0.201726	0.000020
C64	C	2.212103	0.298274	0.500020
H65	H	1.698013	-0.112887	0.000036
H66	H	2.198013	0.387113	0.500036
H67	H	1.758237	-0.228713	-0.102838
H68	H	2.258237	0.271287	0.397162
H69	H	1.758220	-0.228720	0.102897
H70	H	2.258220	0.271280	0.602897
C71	C	1.349160	-0.362948	0.000002
C72	C	1.849160	0.137052	0.500002
H73	H	1.279948	-0.411988	0.000010
H74	H	1.779948	0.088012	0.500010
H75	H	1.345844	-0.311579	-0.102853
H76	H	1.845844	0.188421	0.397147
H77	H	1.345838	-0.311597	0.102882
H78	H	1.845838	0.188403	0.602882
C79	C	1.090477	0.419900	-0.000004
C80	C	1.590477	0.919900	0.499996
H81	H	1.179316	0.405810	-0.000014
H82	H	1.679316	0.905810	0.499986
H83	H	1.063481	0.466029	0.102851
H84	H	1.563481	0.966029	0.602851
H85	H	1.063492	0.466021	-0.102884
H86	H	1.563492	0.966021	0.397116
H87	H	1.385328	-0.225051	-0.000001
H88	H	1.885328	0.274949	0.499999
