data_functionalizedCrystal
_audit_creation_method	'MofGen! by Chris Wilmer'
_symmetry_space_group_name_H-M	'P1'
_symmetry_Int_Tables_number	1
_symmetry_cell_setting	triclinic
loop_
_symmetry_equiv_pos_as_xyz
  x,y,z
_cell_length_a	16.992695
_cell_length_b	9.065215
_cell_length_c	16.053802
_cell_angle_alpha	92.618884
_cell_angle_beta	87.258926
_cell_angle_gamma	87.841460
loop_
_atom_site_label
_atom_site_type_symbol
_atom_site_fract_x
_atom_site_fract_y
_atom_site_fract_z
O1	O	0.111796	1.976917	0.069422
O2	O	0.121237	1.548508	0.069426
O3	O	0.002362	1.760995	0.069418
O4	O	0.230671	1.764431	0.069431
O5	O	0.008878	1.749295	-0.069441
O6	O	0.127753	1.536809	-0.069433
O7	O	0.118312	1.965218	-0.069436
Zn8	Zn	0.124067	1.749156	-0.091481
Zn9	Zn	0.115482	1.764570	0.091471
O10	O	0.237187	1.752731	-0.069428
C11	C	-0.023624	1.750726	-0.000012
C12	C	-0.110762	1.737543	-0.000011
C13	C	0.123588	1.487588	-0.000003
C14	C	0.120876	1.323493	-0.000002
C15	C	0.115961	2.026139	-0.000005
C16	C	0.118672	2.190234	-0.000001
C17	C	-0.160100	1.864748	-0.000013
C18	C	-0.241974	1.852353	-0.000005
C19	C	-0.274510	1.712749	-0.000001
C20	C	-0.225166	1.585534	0.000003
C21	C	-0.143293	1.597932	0.000001
C22	C	-0.518473	1.661366	0.000011
C23	C	-0.600352	1.648978	0.000010
C24	C	-0.617155	1.915798	0.000004
C25	C	-0.535279	1.928183	-0.000004
C26	C	-0.485943	1.800968	0.000005
N27	N	-0.358199	1.700075	0.000004
N28	N	-0.402256	1.813644	0.000006
C29	C	0.263173	1.763000	0.000003
C30	C	0.350310	1.776184	0.000008
N31	N	0.129925	1.738647	-0.216341
C32	C	0.079363	1.829098	-0.260038
C33	C	0.083468	1.821761	-0.347445
C34	C	0.138141	1.723981	-0.391152
C35	C	0.188706	1.633520	-0.347449
C36	C	0.184596	1.640850	-0.260044
C37	C	0.156072	1.691959	-0.652561
C38	C	0.160180	1.684639	-0.739972
C39	C	0.054941	1.872879	-0.739962
C40	C	0.050838	1.880207	-0.652555
C41	C	0.101401	1.789741	-0.608859
N42	N	0.142341	1.716482	-0.480496
N43	N	0.097197	1.797233	-0.519517
N44	N	0.109617	1.775090	0.216331
H45	H	-0.133616	1.978428	-0.000021
H46	H	-0.478312	1.557778	0.000018
C47	C	0.019220	1.936660	-0.211965
C48	C	0.047891	2.058239	-0.151859
C49	C	-0.012255	2.165800	-0.103788
C50	C	-0.101072	2.151782	-0.115824
C51	C	-0.129748	2.030199	-0.175932
C52	C	-0.069601	1.922637	-0.224003
H53	H	0.113643	2.068620	-0.142947
H54	H	0.008973	2.255804	-0.059292
H55	H	-0.145596	2.231406	-0.080239
H56	H	-0.195499	2.019817	-0.184844
H57	H	-0.090829	1.832633	-0.268500
C58	C	-0.296243	1.992286	-0.000010
C59	C	-0.288539	2.097964	-0.072122
C60	C	-0.342806	2.237906	-0.072125
C61	C	-0.404777	2.272171	-0.000015
C62	C	-0.412483	2.166491	0.072102
C63	C	-0.358216	2.026548	0.072105
H64	H	-0.242663	2.072601	-0.125506
H65	H	-0.337102	2.316138	-0.125511
H66	H	-0.444948	2.375765	-0.000018
H67	H	-0.458359	2.191853	0.125486
H68	H	-0.363921	1.948317	0.125491
H69	H	0.042295	1.895412	-0.383023
C70	C	-0.009304	1.987759	-0.604474
C71	C	-0.064929	2.087259	-0.652532
C72	C	-0.125070	2.194814	-0.604448
C73	C	-0.129584	2.202869	-0.508306
C74	C	-0.073957	2.103365	-0.460243
C75	C	-0.013817	1.995810	-0.508327
H76	H	-0.061589	2.081300	-0.723707
H77	H	-0.166248	2.268474	-0.640028
H78	H	-0.174104	2.282488	-0.472712
H79	H	-0.077298	2.109325	-0.389068
H80	H	0.027362	1.922151	-0.472747
C81	C	0.248849	1.525958	-0.395522
C82	C	0.253414	1.517962	-0.491664
C83	C	0.313560	1.410401	-0.539735
C84	C	0.369141	1.310835	-0.491663
C85	C	0.364577	1.318827	-0.395516
C86	C	0.304431	1.426389	-0.347446
H87	H	0.212268	1.591670	-0.527254
H88	H	0.316938	1.404485	-0.610910
H89	H	0.413665	1.231212	-0.527248
H90	H	0.405723	1.245120	-0.359926
H91	H	0.301053	1.432304	-0.276271
H92	H	0.013774	1.946531	-0.775547
H93	H	-0.508796	2.041863	-0.000007
H94	H	-0.657333	2.019369	-0.000002
H95	H	-0.626838	1.535290	0.000000
H96	H	0.204705	1.605010	-0.775554
H97	H	0.197243	1.618301	-0.616990
H98	H	-0.251663	1.471866	0.000012
H99	H	-0.103122	1.494347	0.000003
H100	H	0.225769	1.567193	-0.224466
