data_functionalizedCrystal
_audit_creation_method	'MofGen! by Chris Wilmer'
_symmetry_space_group_name_H-M	'P1'
_symmetry_Int_Tables_number	1
_symmetry_cell_setting	triclinic
loop_
_symmetry_equiv_pos_as_xyz
  x,y,z
_cell_length_a	17.038272
_cell_length_b	11.295483
_cell_length_c	12.837942
_cell_angle_alpha	94.530417
_cell_angle_beta	92.970248
_cell_angle_gamma	85.603548
loop_
_atom_site_label
_atom_site_type_symbol
_atom_site_fract_x
_atom_site_fract_y
_atom_site_fract_z
O1	O	1.059064	-0.098872	0.220045
O2	O	0.831166	-0.098907	0.216445
O3	O	0.940061	-0.098883	0.066897
O4	O	0.950168	-0.098896	0.369593
O5	O	0.930495	0.099165	0.080011
O6	O	0.821600	0.099141	0.229558
O7	O	1.049498	0.099176	0.233159
Cu8	Cu	0.934675	0.117242	0.232556
Cu9	Cu	0.945988	-0.116973	0.217048
O10	O	0.940602	0.099152	0.382707
C11	C	0.797010	0.000112	0.219729
C12	C	0.709489	0.000099	0.209965
N13	N	0.926724	0.281977	0.243463
N14	N	0.953945	-0.281708	0.206133
C15	C	0.666071	0.000096	0.299604
C16	C	0.583834	0.000113	0.290426
C17	C	0.545016	0.000124	0.191605
C18	C	0.588440	0.000131	0.101959
C19	C	0.670675	0.000122	0.111139
C20	C	0.296834	0.000158	0.159173
C21	C	0.214593	0.000162	0.149999
C22	C	0.209992	0.000147	0.338466
C23	C	0.292229	0.000131	0.347638
C24	C	0.335646	0.000144	0.257992
C25	C	0.460957	0.000138	0.182220
C26	C	0.419703	0.000139	0.267378
C27	C	1.083653	0.000154	0.229875
C28	C	1.171175	0.000159	0.239639
C29	C	0.931864	0.000140	0.034532
C30	C	0.921681	0.000136	-0.081443
C31	C	1.011179	0.531285	0.127556
C32	C	1.005176	0.655947	0.135807
C33	C	0.908712	0.655966	0.268210
C34	C	0.914715	0.531304	0.259959
C35	C	0.965951	0.468967	0.189631
C36	C	0.971957	0.344303	0.181386
C37	C	0.875489	0.344324	0.313783
C38	C	0.869487	0.468986	0.322034
C39	C	1.044098	0.000130	-0.311606
C40	C	1.034534	0.000127	-0.420576
C41	C	0.892990	0.000117	-0.408354
C42	C	0.902554	0.000121	-0.299385
C43	C	0.978111	0.000129	-0.251015
C44	C	0.987673	0.000141	-0.142043
C45	C	0.846130	0.000123	-0.129824
C46	C	0.836567	0.000120	-0.238793
C47	C	0.948800	0.000126	0.415072
C48	C	0.958983	0.000122	0.531046
H49	H	0.548486	0.000109	0.363420
H50	H	1.049195	0.000152	-0.102661
H51	H	0.323829	0.000108	0.428106
N52	N	0.814232	0.536217	0.397892
H53	H	0.758523	0.514532	0.379479
H54	H	0.817356	0.624626	0.393671
H55	H	0.838664	0.293571	0.364332
H56	H	0.706025	0.000124	0.038145
N57	N	1.053964	0.723164	0.068865
H58	H	1.087333	0.664753	0.023067
H59	H	1.089241	0.774872	0.115340
H60	H	0.866991	0.706736	0.325462
N61	N	0.163166	0.000135	0.435151
H62	H	0.105180	0.000143	0.414345
H63	H	0.172997	0.073551	0.482767
N64	N	0.172723	0.000167	0.043409
H65	H	0.212705	0.000175	-0.011989
H66	H	0.135161	0.073585	0.040362
H67	H	0.332174	0.000169	0.086176
N68	N	1.066433	0.464023	0.051716
H69	H	1.122145	0.485696	0.070132
H70	H	1.050744	0.485738	-0.021688
N71	N	0.755078	0.000107	-0.290967
H72	H	0.759030	0.000104	-0.369193
H73	H	0.722304	0.073528	-0.264395
N74	N	1.125584	0.000158	-0.259425
H75	H	1.165937	0.000165	-0.314346
H76	H	1.136184	-0.073258	-0.219335
H77	H	0.556828	0.000157	0.021498
H78	H	1.088269	0.000124	-0.469906
N79	N	0.461560	0.000126	0.373964
H80	H	0.492040	0.073538	0.386838
H81	H	0.499074	-0.073344	0.377032
N82	N	0.811504	0.000095	-0.460535
H83	H	0.815463	0.000089	-0.538761
H84	H	0.778725	0.073514	-0.433970
N85	N	0.774954	0.000127	-0.064466
H86	H	0.779309	-0.073286	-0.023836
H87	H	0.725677	0.000168	-0.111713
N88	N	0.707929	0.000074	0.406193
H89	H	0.689073	0.073490	0.450655
H90	H	0.766604	0.000019	0.398324
N91	N	0.419080	0.000154	0.075643
H92	H	0.388598	-0.073256	0.062779
H93	H	0.459102	0.000197	0.020304
H94	H	1.013678	0.293550	0.124125
