data_functionalizedCrystal
_audit_creation_method	'MofGen! by Chris Wilmer'
_symmetry_space_group_name_H-M	'P1'
_symmetry_Int_Tables_number	1
_symmetry_cell_setting	triclinic
loop_
_symmetry_equiv_pos_as_xyz
  x,y,z
_cell_length_a	16.793024
_cell_length_b	16.793047
_cell_length_c	33.586455
_cell_angle_alpha	113.253857
_cell_angle_beta	66.219990
_cell_angle_gamma	112.758327
loop_
_atom_site_label
_atom_site_type_symbol
_atom_site_fract_x
_atom_site_fract_y
_atom_site_fract_z
O1	O	0.005016	-0.570216	-0.583573
O2	O	-0.034529	-0.474528	-0.453458
O3	O	0.114723	-0.474535	-0.528082
O4	O	-0.144235	-0.570209	-0.508949
O5	O	0.108729	-0.346329	-0.530229
O6	O	-0.040523	-0.346322	-0.455605
O7	O	-0.000977	-0.442010	-0.585721
Zn8	Zn	-0.021701	-0.373810	-0.521004
Zn9	Zn	-0.013805	-0.542728	-0.518175
O10	O	-0.150229	-0.442003	-0.511097
C11	C	0.005100	-0.790970	-0.238461
C12	C	0.009223	-0.693065	-0.217557
C13	C	0.003804	-0.645758	-0.241627
C14	C	-0.075059	-0.538459	-0.266316
C15	C	0.049838	-0.422849	-0.250165
C16	C	-0.040584	-0.395375	-0.435637
C17	C	-0.044693	-0.353446	-0.386631
C18	C	-0.039275	-0.401741	-0.363054
C19	C	-0.040566	-0.125547	-0.300731
C20	C	-0.044689	-0.223451	-0.321635
C21	C	-0.039266	-0.270752	-0.297563
C22	C	0.039597	-0.378051	-0.272874
C23	C	-0.085304	-0.493667	-0.289026
C24	C	0.005118	-0.521142	-0.103554
C25	C	0.009231	-0.563064	-0.152559
C26	C	0.003809	-0.514775	-0.176138
C27	C	0.010758	-0.652581	-0.172822
C28	C	0.001010	-0.556371	-0.220792
C29	C	-0.008251	-0.506059	-0.245823
C30	C	-0.046224	-0.263935	-0.366370
C31	C	-0.036476	-0.360146	-0.318399
C32	C	-0.027211	-0.410451	-0.293367
C33	C	0.815184	-0.521162	-0.508596
C34	C	0.415541	-0.125553	-0.528781
C35	C	0.375032	-0.223457	-0.531493
C36	C	0.423813	-0.270761	-0.529101
C37	C	0.149318	-0.395376	-0.530584
C38	C	0.246774	-0.353455	-0.532364
C39	C	0.294574	-0.401748	-0.529976
C40	C	0.548961	-0.790984	-0.510398
C41	C	0.286104	-0.263940	-0.532530
C42	C	0.383336	-0.360149	-0.528302
C43	C	0.432207	-0.407971	-0.525810
C44	C	0.392316	-0.497392	-0.524993
C45	C	0.303554	-0.538991	-0.526667
C46	C	0.254683	-0.491169	-0.529159
C47	C	0.263666	-0.628421	-0.525851
C48	C	0.312537	-0.676243	-0.523359
C49	C	0.401299	-0.634644	-0.521685
C50	C	0.441190	-0.545223	-0.522502
C51	C	0.529952	-0.503624	-0.520828
C52	C	0.578823	-0.551446	-0.518336
C53	C	0.538939	-0.640864	-0.517520
C54	C	0.450177	-0.682463	-0.519194
C55	C	0.587810	-0.688687	-0.515028
C56	C	0.676572	-0.647088	-0.513354
C57	C	0.716463	-0.557666	-0.514172
C58	C	0.667586	-0.509847	-0.516662
C59	C	0.569840	-0.414195	-0.521644
C60	C	0.658602	-0.372596	-0.519970
C61	C	0.707476	-0.420426	-0.517480
C62	C	0.698493	-0.283174	-0.520788
C63	C	0.649622	-0.235352	-0.523280
C64	C	0.560860	-0.276951	-0.524954
C65	C	0.520969	-0.366372	-0.524136
C66	C	0.511989	-0.229129	-0.527446
C67	C	-0.040530	-0.395407	-0.935652
C68	C	0.005063	-0.791004	-0.738448
C69	C	0.009186	-0.693099	-0.717543
C70	C	0.003779	-0.645796	-0.741620
C71	C	0.005077	-0.521171	-0.603544
C72	C	0.009198	-0.563096	-0.652550
C73	C	0.003786	-0.514804	-0.676131
C74	C	-0.040516	-0.125574	-0.800747
C75	C	0.010719	-0.652613	-0.672809
C76	C	0.000994	-0.556406	-0.720789
C77	C	-0.004621	-0.508585	-0.744908
C78	C	-0.007444	-0.419162	-0.724369
C79	C	-0.004651	-0.377560	-0.679711
C80	C	0.000964	-0.425381	-0.655592
C81	C	-0.007471	-0.288129	-0.659174
C82	C	-0.013086	-0.240308	-0.683293
C83	C	-0.015878	-0.281910	-0.727951
C84	C	-0.013056	-0.371333	-0.748490
C85	C	-0.015848	-0.412935	-0.793148
C86	C	-0.021463	-0.365114	-0.817267
C87	C	-0.024282	-0.275694	-0.796731
C88	C	-0.021490	-0.234092	-0.752073
C89	C	-0.029897	-0.227873	-0.820850
C90	C	-0.032690	-0.269476	-0.865508
C91	C	-0.029867	-0.358899	-0.886047
C92	C	-0.024255	-0.406717	-0.861925
C93	C	-0.013028	-0.502367	-0.813685
C94	C	-0.015821	-0.543969	-0.858343
C95	C	-0.021433	-0.496140	-0.882464
C96	C	-0.012998	-0.633392	-0.878882
C97	C	-0.007383	-0.681213	-0.854763
C98	C	-0.004591	-0.639611	-0.810105
C99	C	-0.007414	-0.550188	-0.789566
C100	C	0.001024	-0.687432	-0.785986
O101	O	-0.000965	0.173549	-0.277957
O102	O	-0.040516	-0.085616	-0.325254
O103	O	0.108737	0.059592	-0.327284
O104	O	-0.150219	0.028341	-0.275927
O105	O	0.114753	0.055151	-0.263265
O106	O	-0.034500	-0.090057	-0.261234
O107	O	0.005051	0.169108	-0.213937
Zn108	Zn	-0.013769	0.038820	-0.227421
Zn109	Zn	-0.021696	0.044672	-0.311770
O110	O	-0.144202	0.023900	-0.211907
O111	O	-0.034458	-0.474571	0.046517
O112	O	0.005076	-0.570190	-0.083599
O113	O	-0.144170	-0.570237	-0.008972
O114	O	0.114787	-0.474523	-0.028110
O115	O	-0.150200	-0.442024	-0.011093
O116	O	-0.000954	-0.441976	-0.085720
O117	O	-0.040488	-0.346357	0.044396
Zn118	Zn	-0.021679	-0.373810	-0.020999
Zn119	Zn	-0.013734	-0.542737	-0.018204
O120	O	0.108757	-0.346309	-0.030231
C121	C	-0.850734	0.086244	-0.289716
C122	C	-0.753280	0.087165	-0.312001
C123	C	-0.705462	0.081107	-0.288506
C124	C	-0.599592	0.000085	-0.264184
C125	C	-0.481080	0.121287	-0.283645
C126	C	-0.450996	0.035117	-0.097351
C127	C	-0.410501	0.028587	-0.146852
C128	C	-0.459292	0.034683	-0.169840
C129	C	-0.184802	0.024283	-0.235878
C130	C	-0.282257	0.023363	-0.213592
C131	C	-0.330068	0.029423	-0.237088
C132	C	-0.435938	0.110445	-0.261411
C133	C	-0.554456	-0.010759	-0.241948
C134	C	-0.584541	0.075410	-0.428242
C135	C	-0.625029	0.081943	-0.378743
C136	C	-0.576244	0.075844	-0.355753
C137	C	-0.713963	0.086424	-0.357292
C138	C	-0.616708	0.075351	-0.310510
C139	C	-0.565963	0.065400	-0.286043
C140	C	-0.321573	0.024104	-0.168302
C141	C	-0.418828	0.035176	-0.215083
C142	C	-0.469568	0.045131	-0.239552
O143	O	0.585213	0.169090	-0.504004
O144	O	0.494056	-0.090076	-0.525516
O145	O	0.488081	0.055124	-0.449918
O146	O	0.591189	0.023889	-0.579602
O147	O	0.359978	0.059584	-0.452885
O148	O	0.365953	-0.085616	-0.528483
O149	O	0.457110	0.173550	-0.506971
Zn150	Zn	0.391193	0.044675	-0.518198
Zn151	Zn	0.559974	0.038798	-0.514289
O152	O	0.463086	0.028349	-0.582569
C153	C	0.815354	-0.521094	-0.008709
C154	C	0.717898	-0.563028	-0.006927
C155	C	0.670072	-0.514739	-0.009298
C156	C	0.564182	-0.463204	-0.048354
C157	C	0.445681	-0.498945	0.013847
C158	C	0.415547	-0.125494	-0.028771
C159	C	0.375059	-0.223405	-0.031498
C160	C	0.423859	-0.270708	-0.029121
C161	C	0.149365	-0.395355	-0.030599
C162	C	0.246820	-0.353421	-0.032381
C163	C	0.294640	-0.401713	-0.030008
C164	C	0.400530	-0.453248	0.009048
C165	C	0.519038	-0.417504	-0.053155
C166	C	0.549171	-0.790955	-0.010537
C167	C	0.589653	-0.693047	-0.007809
C168	C	0.540859	-0.645741	-0.010187
C169	C	0.678588	-0.652551	-0.006775
C170	C	0.581317	-0.556344	-0.010973
C171	C	0.530562	-0.506029	-0.015250
C172	C	0.286131	-0.263897	-0.032533
C173	C	0.383402	-0.360104	-0.028335
C174	C	0.434150	-0.410423	-0.024057
O175	O	-0.620614	0.089309	0.052274
O176	O	-0.529507	0.043784	-0.078544
O177	O	-0.523494	0.194833	-0.006033
O178	O	-0.626628	-0.061740	-0.020236
O179	O	-0.395386	0.185419	-0.005549
O180	O	-0.401400	0.034370	-0.078059
O181	O	-0.492507	0.079895	0.052758
Zn182	Zn	-0.426614	0.055638	-0.012574
Zn183	Zn	-0.595401	0.068041	-0.013212
O184	O	-0.498521	-0.071154	-0.019752
C185	C	-0.437537	0.048335	0.402491
C186	C	-0.397043	0.041789	0.352989
C187	C	-0.445822	0.047883	0.329994
C188	C	-0.496646	0.126653	0.277022
C189	C	-0.465894	-0.000633	0.218811
C190	C	-0.837226	0.099430	0.210091
C191	C	-0.739773	0.100339	0.187806
C192	C	-0.691967	0.094287	0.211308
C193	C	-0.571027	0.088563	0.071568
C194	C	-0.611521	0.095108	0.121070
C195	C	-0.562739	0.089011	0.144061
C196	C	-0.511915	0.010241	0.197033
C197	C	-0.542670	0.137531	0.255247
C198	C	-0.171338	0.037467	0.263967
C199	C	-0.268788	0.036555	0.286249
C200	C	-0.316597	0.042611	0.262750
C201	C	-0.308112	0.037305	0.331542
C202	C	-0.405351	0.048369	0.284750
C203	C	-0.456092	0.058317	0.260279
C204	C	-0.700452	0.099593	0.142516
C205	C	-0.603213	0.088528	0.189308
C206	C	-0.552469	0.078578	0.213776
O207	O	-0.040608	-1.085661	-0.825229
O208	O	-0.001018	-0.826491	-0.777938
O209	O	-0.150287	-0.971682	-0.775894
O210	O	0.108661	-0.940470	-0.827272
O211	O	-0.144253	-0.976123	-0.711878
O212	O	0.005016	-0.830932	-0.713922
O213	O	-0.034575	-1.090102	-0.761213
Zn214	Zn	-0.013821	-0.961222	-0.727403
Zn215	Zn	-0.021771	-0.955371	-0.811747
O216	O	0.114695	-0.944911	-0.763256
N217	N	-0.036408	-0.225917	-0.249165
H218	H	-0.093044	-0.205571	-0.229953
H219	H	-0.032473	-0.270126	-0.237035
H220	H	0.088092	-0.309407	-0.275738
N221	N	-0.272989	0.042963	0.213719
H222	H	-0.254681	-0.014669	0.195033
H223	H	-0.317417	0.047774	0.202136
H224	H	-0.365918	0.157102	-0.260160
N225	N	-0.004441	-0.243067	-0.610812
H226	H	-0.061063	-0.222702	-0.591586
H227	H	-0.000406	-0.287147	-0.598635
H228	H	-0.015393	-0.167196	-0.666497
N229	N	-0.438908	0.195583	-0.306476
H230	H	-0.377514	0.230421	-0.301851
H231	H	-0.432090	0.168547	-0.340007
H232	H	0.107243	-0.392097	-0.234140
N233	N	0.000929	-0.417908	-0.153681
H234	H	0.003557	-0.399083	-0.121621
H235	H	0.054288	-0.378256	-0.171349
N236	N	0.713675	-0.417854	-0.010065
H237	H	0.669278	-0.393404	-0.011842
H238	H	0.732002	-0.381050	0.018502
N239	N	0.555199	-0.132282	-0.528329
H240	H	0.556208	-0.126177	-0.557276
H241	H	0.519206	-0.092726	-0.501399
N242	N	0.232636	-0.211038	-0.033911
H243	H	0.169876	-0.250791	-0.034601
H244	H	0.228371	-0.157495	-0.006067
N245	N	0.014255	-0.705442	-0.146439
H246	H	0.015105	-0.665695	-0.114793
H247	H	-0.040708	-0.758996	-0.144665
H248	H	-0.123560	-0.607102	-0.263443
N249	N	0.656929	-0.469049	-0.080516
H250	H	0.674779	-0.435402	-0.103301
H251	H	0.702150	-0.441419	-0.062796
N252	N	-0.480042	0.069795	-0.379469
H253	H	-0.478666	0.014394	-0.406416
H254	H	-0.441949	0.125167	-0.390129
N255	N	0.561218	-0.372934	-0.090855
H256	H	0.622616	-0.383837	-0.109106
H257	H	0.521143	-0.399081	-0.111240
N258	N	0.520065	-0.225876	-0.027405
H259	H	0.538092	-0.161679	-0.028282
H260	H	0.524832	-0.226276	0.001541
H261	H	-0.669612	-0.046576	-0.265443
N262	N	-0.749063	0.080753	-0.239475
H263	H	-0.812932	0.085363	-0.229197
H264	H	-0.750158	0.022962	-0.236296
H265	H	-0.724884	0.094041	0.248327
H266	H	-0.740818	0.102779	0.123104
N267	N	-0.024398	-0.137202	-0.729819
H268	H	-0.079011	-0.133463	-0.702142
H269	H	0.032304	-0.100238	-0.720486
H270	H	0.001650	-0.679613	-0.278166
N271	N	-0.596640	-0.085042	-0.219108
H272	H	-0.658035	-0.119877	-0.223733
H273	H	-0.556562	-0.126895	-0.232732
N274	N	-0.254634	0.033105	0.357257
H275	H	-0.285893	-0.022194	0.368492
H276	H	-0.191880	0.030060	0.336514
N277	N	-0.052742	-0.219944	-0.887831
H278	H	-0.004990	-0.160663	-0.888500
H279	H	-0.052686	-0.257682	-0.919857
H280	H	-0.518447	0.052455	0.347905
N281	N	-0.466541	0.082948	0.120343
H282	H	-0.448507	0.084219	0.088001
H283	H	-0.425007	0.135657	0.136727
N284	N	-0.161329	-0.534401	-0.310263
H285	H	-0.197676	-0.594663	-0.304310
H286	H	-0.201751	-0.492883	-0.296637
H287	H	-0.518563	-0.039000	0.162804
N288	N	-0.423977	-0.078344	0.197889
H289	H	-0.436691	-0.115165	0.167932
H290	H	-0.356507	-0.054321	0.192762
N291	N	-0.555498	0.040722	-0.146122
H292	H	-0.573530	0.039442	-0.113782
H293	H	-0.560259	0.098753	-0.146252
H294	H	-0.037138	-0.474881	-0.380005
H295	H	-0.574318	0.196197	0.271049
H296	H	-0.489994	0.175891	0.311254
N297	N	-0.024460	-0.541195	-0.930830
H298	H	-0.021812	-0.605365	-0.940221
H299	H	-0.082438	-0.540888	-0.933168
H300	H	0.261721	-0.474856	-0.029430
N301	N	-0.049722	-0.211074	-0.392752
H302	H	-0.050566	-0.147757	-0.372868
H303	H	0.005237	-0.209020	-0.420275
N304	N	0.732091	-0.705395	-0.005390
H305	H	0.700907	-0.726894	0.022720
H306	H	0.736308	-0.758980	-0.033215
H307	H	-0.015274	-0.667410	-0.915397
N308	N	0.721883	-0.696625	-0.503664
H309	H	0.686539	-0.708205	-0.473113
H310	H	0.723999	-0.755871	-0.527964
H311	H	0.245727	-0.224039	-0.533582
H312	H	0.182115	-0.525189	-0.530531
H313	H	-0.281187	0.020914	-0.148901
N314	N	-0.004338	-0.778065	-0.877002
H315	H	-0.006973	-0.797243	-0.909083
H316	H	0.053638	-0.784103	-0.877512
H317	H	0.003321	-0.760550	-0.802778
N318	N	0.403513	-0.543508	0.051549
H319	H	0.443532	-0.517373	0.071962
H320	H	0.342112	-0.532597	0.069769
H321	H	0.191099	-0.662437	-0.527221
H322	H	0.330510	-0.448858	0.033327
N323	N	0.444659	-0.690579	-0.011911
H324	H	0.426633	-0.754775	-0.011033
H325	H	0.403123	-0.656692	0.015007
H326	H	0.279916	-0.749353	-0.522691
H327	H	-0.297145	0.029698	-0.274103
N328	N	0.406934	-0.779322	-0.518334
H329	H	0.405888	-0.785485	-0.489393
H330	H	0.343061	-0.798384	-0.519805
N331	N	0.803624	-0.375401	-0.515687
H332	H	0.808403	-0.375638	-0.486708
H333	H	0.845254	-0.409210	-0.542587
N334	N	0.794629	-0.238129	-0.518981
H335	H	0.812558	-0.173962	-0.519881
H336	H	0.799315	-0.238429	-0.489994
N337	N	-0.767448	0.090648	-0.382996
H338	H	-0.728533	0.089588	-0.415182
H339	H	-0.822520	0.037150	-0.383272
H340	H	0.682238	-0.162236	-0.523943
N341	N	0.014204	-0.705473	-0.646423
H342	H	0.015052	-0.665725	-0.614777
H343	H	-0.040761	-0.759025	-0.644650
H344	H	0.003251	-0.391359	-0.619081
