data_functionalizedCrystal
_audit_creation_method	'MofGen! by Chris Wilmer'
_symmetry_space_group_name_H-M	'P1'
_symmetry_Int_Tables_number	1
_symmetry_cell_setting	triclinic
loop_
_symmetry_equiv_pos_as_xyz
  x,y,z
_cell_length_a	19.077115
_cell_length_b	13.031981
_cell_length_c	19.076919
_cell_angle_alpha	84.787276
_cell_angle_beta	90.076897
_cell_angle_gamma	94.612413
loop_
_atom_site_label
_atom_site_type_symbol
_atom_site_fract_x
_atom_site_fract_y
_atom_site_fract_z
Zn1	Zn	1.017313	-0.500549	-0.395918
Zn2	Zn	1.517313	-0.000549	0.104082
Zn3	Zn	1.008341	-0.666908	-0.263626
Zn4	Zn	1.508341	-0.166908	0.236374
Zn5	Zn	0.905665	-0.486688	-0.274945
Zn6	Zn	1.405665	0.013312	0.225055
Zn7	Zn	0.886214	-0.666284	-0.376436
Zn8	Zn	1.386214	-0.166284	0.123564
O9	O	0.954384	-0.580107	-0.327731
O10	O	1.454384	-0.080107	0.172269
O11	O	1.113959	-0.528678	-0.381786
O12	O	1.613959	-0.028678	0.118214
O13	O	0.999107	-0.637462	-0.167289
O14	O	1.499107	-0.137462	0.332711
O15	O	0.932371	-0.343744	-0.303883
O16	O	1.432371	0.156256	0.196117
O17	O	1.107367	-0.650902	-0.284592
O18	O	1.607367	-0.150902	0.215408
O19	O	1.014398	-0.353927	-0.392762
O20	O	1.514398	0.146073	0.107238
O21	O	0.923671	-0.505055	-0.175604
O22	O	1.423671	-0.005055	0.324396
O23	O	0.805249	-0.504450	-0.284991
O24	O	1.305249	-0.004450	0.215009
O25	O	0.899219	-0.649838	-0.476859
O26	O	1.399219	-0.149838	0.023141
O27	O	0.790959	-0.636398	-0.359556
O28	O	1.290959	-0.136398	0.140444
O29	O	0.995537	-0.528073	-0.491173
O30	O	1.495537	-0.028073	0.008827
O31	O	0.980246	-0.811608	-0.265700
O32	O	1.480246	-0.311608	0.234300
O33	O	0.890519	-0.811150	-0.348581
O34	O	1.390519	-0.311150	0.151419
C35	C	0.772736	-0.568853	-0.321388
C36	C	1.272736	-0.068853	0.178612
C37	C	0.695024	-0.564065	-0.318689
C38	C	1.195024	-0.064065	0.181311
C39	C	0.258387	-0.529676	-0.299340
C40	C	0.758387	-0.029676	0.200660
C41	C	0.331405	-0.534181	-0.301879
C42	C	0.831405	-0.034181	0.198121
C43	C	0.360485	-0.605237	-0.341889
C44	C	0.860485	-0.105237	0.158111
C45	C	0.316542	-0.671784	-0.379367
C46	C	0.816542	-0.171784	0.120633
C47	C	0.243525	-0.667273	-0.376831
C48	C	0.743525	-0.167273	0.123169
C49	C	0.578064	-0.626101	-0.353631
C50	C	1.078064	-0.126101	0.146369
C51	C	0.651086	-0.630609	-0.356162
C52	C	1.151086	-0.130609	0.143838
C53	C	0.665945	-0.493005	-0.278676
C54	C	1.165945	0.006995	0.221324
C55	C	0.592926	-0.488504	-0.276140
C56	C	1.092926	0.011496	0.223860
C57	C	0.548990	-0.555048	-0.313621
C58	C	1.048990	-0.055048	0.186379
N59	N	0.435121	-0.609846	-0.344484
N60	N	0.935121	-0.109846	0.155516
N61	N	0.474356	-0.550433	-0.311029
N62	N	0.974356	-0.050433	0.188971
C63	C	0.932317	-0.848922	-0.303814
C64	C	1.432317	-0.348922	0.196186
C65	C	0.922939	-0.963927	-0.293607
C66	C	1.422939	-0.463927	0.206393
C67	C	0.959314	-1.020155	-0.333073
C68	C	1.459314	-0.520155	0.166927
C69	C	0.949623	-1.139019	-0.322525
C70	C	1.449623	-0.639019	0.177475
C71	C	1.136740	-0.591406	-0.334100
C72	C	1.636740	-0.091406	0.165900
C73	C	1.214450	-0.596220	-0.336813
C74	C	1.714450	-0.096220	0.163187
C75	C	0.946209	-0.590432	-0.510094
C76	C	1.446209	-0.090432	-0.010094
C77	C	0.942726	-0.594832	-0.587806
C78	C	1.442726	-0.094832	-0.087806
C79	C	0.976555	-0.310245	-0.351758
C80	C	1.476555	0.189755	0.148242
C81	C	0.986003	-0.195246	-0.361997
C82	C	1.486003	0.304754	0.138003
C83	C	0.991235	-0.533506	-0.631768
C84	C	1.491235	-0.033506	-0.131768
C85	C	0.987953	-0.537635	-0.704787
C86	C	1.487953	-0.037635	-0.204787
C87	C	0.936166	-0.603098	-0.733842
C88	C	1.436166	-0.103098	-0.233842
C89	C	0.887653	-0.664427	-0.689874
C90	C	1.387653	-0.164427	-0.189874
C91	C	0.890931	-0.660291	-0.616857
C92	C	1.390931	-0.160291	-0.116857
C93	C	0.920980	-0.622260	-0.951420
C94	C	1.420980	-0.122260	-0.451420
C95	C	0.917707	-0.626394	-1.024442
C96	C	1.417707	-0.126394	-0.524442
C97	C	1.018007	-0.499600	-1.039351
C98	C	1.518007	0.000400	-0.539351
C99	C	1.021284	-0.495475	-0.966332
C100	C	1.521284	0.004525	-0.466332
C101	C	0.972768	-0.556800	-0.922370
C102	C	1.472768	-0.056800	-0.422370
N103	N	0.932812	-0.607323	-0.808478
N104	N	1.432812	-0.107323	-0.308478
N105	N	0.976119	-0.552568	-0.847735
N106	N	1.476119	-0.052568	-0.347735
C107	C	0.962572	-0.569750	-0.146086
C108	C	1.462572	-0.069750	0.353914
C109	C	0.966215	-0.565067	-0.068405
C110	C	1.466215	-0.065067	0.431595
H111	H	0.569256	-0.430650	-0.243554
H112	H	1.069256	0.069350	0.256446
H113	H	0.340224	-0.729635	-0.411946
H114	H	0.840224	-0.229635	0.088054
N115	N	0.196132	-0.739043	-0.417250
N116	N	0.696132	-0.239043	0.082750
H117	H	0.225631	-0.784744	-0.442979
H118	H	0.725631	-0.284744	0.057021
H119	H	0.163183	-0.783369	-0.383429
H120	H	0.663183	-0.283369	0.116571
H121	H	0.884619	-1.003786	-0.252014
H122	H	1.384619	-0.503786	0.247986
N123	N	1.010070	-0.967359	-0.388172
N124	N	1.510070	-0.467359	0.111828
H125	H	1.059005	-0.988530	-0.377454
H126	H	1.559005	-0.488530	0.122546
H127	H	0.995356	-0.988268	-0.436065
H128	H	1.495356	-0.488268	0.063935
N129	N	1.047095	-0.462906	-0.600433
N130	N	1.547095	0.037094	-0.100433
H131	H	1.077326	-0.424682	-0.639366
H132	H	1.577326	0.075318	-0.139366
H133	H	1.023932	-0.411546	-0.573405
H134	H	1.523932	0.088454	-0.073405
N135	N	0.838615	-0.726445	-0.569438
N136	N	1.338615	-0.226445	-0.069438
H137	H	0.848549	-0.713891	-0.518774
H138	H	1.348549	-0.213891	-0.018774
H139	H	0.789434	-0.707971	-0.581888
H140	H	1.289434	-0.207971	-0.081888
H141	H	0.911300	-1.178874	-0.280929
H142	H	1.411300	-0.678874	0.219071
N143	N	1.036759	-1.142469	-0.417107
N144	N	1.536759	-0.642469	0.082893
H145	H	1.036488	-1.065038	-0.416833
H146	H	1.536488	-0.565038	0.083167
H147	H	1.085666	-1.163722	-0.406356
H148	H	1.585666	-0.663722	0.093644
H149	H	1.027456	-0.487699	-0.740579
H150	H	1.527456	0.012301	-0.240579
N151	N	1.077143	-0.424854	-0.935014
N152	N	1.577143	0.075146	-0.435014
H153	H	1.071780	-0.350983	-0.953931
H154	H	1.571780	0.149017	-0.453931
H155	H	1.071840	-0.431612	-0.882090
H156	H	1.571840	0.068388	-0.382090
N157	N	0.227025	-0.453043	-0.256181
N158	N	0.727025	0.046957	0.243819
H159	H	0.265942	-0.411571	-0.232829
H160	H	0.765942	0.088429	0.267171
H161	H	0.199382	-0.404973	-0.287897
H162	H	0.699382	0.095027	0.212103
H163	H	1.057505	-0.449672	-1.075152
H164	H	1.557505	0.050328	-0.575152
H165	H	0.875533	-0.679703	-1.048095
H166	H	1.375533	-0.179703	-0.548095
H167	H	0.881484	-0.672211	-0.915634
H168	H	1.381484	-0.172211	-0.415634
N169	N	0.831790	-0.735010	-0.721220
N170	N	1.331790	-0.235010	-0.221220
H171	H	0.854897	-0.786434	-0.748243
H172	H	1.354897	-0.286434	-0.248243
H173	H	0.801565	-0.773161	-0.682258
H174	H	1.301565	-0.273161	-0.182258
N175	N	0.378797	-0.462390	-0.261477
N176	N	0.878797	0.037610	0.238523
H177	H	0.349296	-0.416691	-0.235747
H178	H	0.849296	0.083309	0.264253
H179	H	0.407098	-0.504448	-0.226384
H180	H	0.907098	-0.004448	0.273616
H181	H	0.701726	-0.438827	-0.248162
H182	H	1.201726	0.061173	0.251838
H183	H	0.674760	-0.688472	-0.388746
H184	H	1.174760	-0.188472	0.111254
H185	H	0.542299	-0.680289	-0.384148
H186	H	1.042299	-0.180289	0.115852
