data_functionalizedCrystal
_audit_creation_method	'MofGen! by Chris Wilmer'
_symmetry_space_group_name_H-M	'P1'
_symmetry_Int_Tables_number	1
_symmetry_cell_setting	triclinic
loop_
_symmetry_equiv_pos_as_xyz
  x,y,z
_cell_length_a	18.215407
_cell_length_b	16.959454
_cell_length_c	18.215398
_cell_angle_alpha	89.978830
_cell_angle_beta	89.980536
_cell_angle_gamma	90.020523
loop_
_atom_site_label
_atom_site_type_symbol
_atom_site_fract_x
_atom_site_fract_y
_atom_site_fract_z
Zn1	Zn	1.125094	-0.314700	-0.416138
Zn2	Zn	1.625094	0.185300	0.083862
Zn3	Zn	1.125013	-0.446879	-0.293080
Zn4	Zn	1.625013	0.053121	0.206920
Zn5	Zn	1.002027	-0.314720	-0.293085
Zn6	Zn	1.502027	0.185280	0.206915
Zn7	Zn	1.002003	-0.446841	-0.416105
Zn8	Zn	1.502003	0.053159	0.083895
O9	O	1.063534	-0.380785	-0.354602
O10	O	1.563534	0.119215	0.145398
O11	O	1.228067	-0.332241	-0.399825
O12	O	1.728067	0.167759	0.100175
O13	O	1.108676	-0.429373	-0.190097
O14	O	1.608676	0.070627	0.309903
O15	O	1.018396	-0.204106	-0.309424
O16	O	1.518396	0.295894	0.190576
O17	O	1.228008	-0.429353	-0.309416
O18	O	1.728008	0.070647	0.190584
O19	O	1.108813	-0.204092	-0.399830
O20	O	1.608813	0.295908	0.100170
O21	O	1.018318	-0.332276	-0.190100
O22	O	1.518318	0.167724	0.309900
O23	O	0.899040	-0.332239	-0.309392
O24	O	1.399040	0.167761	0.190608
O25	O	1.018354	-0.429288	-0.519094
O26	O	1.518354	0.070712	-0.019094
O27	O	0.899022	-0.429308	-0.399775
O28	O	1.399022	0.070692	0.100225
O29	O	1.108789	-0.332204	-0.519118
O30	O	1.608789	0.167796	-0.019118
O31	O	1.108652	-0.557485	-0.309385
O32	O	1.608652	-0.057485	0.190615
O33	O	1.018276	-0.557457	-0.399770
O34	O	1.518276	-0.057457	0.100230
C35	C	0.872328	-0.380772	-0.354581
C36	C	1.372328	0.119228	0.145419
C37	C	0.790529	-0.380785	-0.354589
C38	C	1.290529	0.119215	0.145411
C39	C	1.063473	-0.586151	-0.354590
C40	C	1.563473	-0.086151	0.145410
C41	C	1.063514	-0.674008	-0.354609
C42	C	1.563514	-0.174008	0.145391
C43	C	0.602345	-0.431408	-0.401593
C44	C	1.102345	0.068592	0.098407
C45	C	0.525486	-0.431411	-0.401602
C46	C	1.025486	0.068589	0.098398
C47	C	0.525476	-0.330176	-0.307628
C48	C	1.025476	0.169824	0.192372
C49	C	0.602333	-0.330171	-0.307623
C50	C	1.102333	0.169829	0.192377
C51	C	0.640766	-0.380791	-0.354604
C52	C	1.140766	0.119209	0.145396
C53	C	0.487050	-0.380799	-0.354618
C54	C	0.987050	0.119201	0.145382
C55	C	0.403716	-0.380802	-0.354628
C56	C	0.903716	0.119198	0.145372
C57	C	0.724105	-0.380788	-0.354596
C58	C	1.224105	0.119212	0.145404
C59	C	1.016544	-1.045499	-0.401661
C60	C	1.516544	-0.545499	0.098339
C61	C	1.110729	-1.045468	-0.307618
C62	C	1.610729	-0.545468	0.192382
C63	C	1.110704	-0.962922	-0.307611
C64	C	1.610704	-0.462922	0.192389
C65	C	1.063597	-0.921661	-0.354629
C66	C	1.563597	-0.421661	0.145371
C67	C	1.016515	-0.962945	-0.401654
C68	C	1.516515	-0.462945	0.098346
C69	C	1.157779	-0.921632	-0.260582
C70	C	1.657779	-0.421632	0.239418
C71	C	1.157755	-0.839081	-0.260573
C72	C	1.657755	-0.339081	0.239427
C73	C	1.110651	-0.797818	-0.307595
C74	C	1.610651	-0.297818	0.192405
C75	C	1.063568	-0.839107	-0.354622
C76	C	1.563568	-0.339107	0.145378
C77	C	1.016461	-0.797846	-0.401640
C78	C	1.516461	-0.297846	0.098360
C79	C	0.969381	-0.839134	-0.448672
C80	C	1.469381	-0.339134	0.051328
C81	C	0.969411	-0.921683	-0.448676
C82	C	1.469411	-0.421683	0.051324
C83	C	1.110621	-0.715269	-0.307591
C84	C	1.610621	-0.215269	0.192409
C85	C	1.016432	-0.715292	-0.401634
C86	C	1.516432	-0.215292	0.098366
C87	C	1.255487	-0.380799	-0.354624
C88	C	1.755487	0.119201	0.145376
C89	C	1.337286	-0.380805	-0.354633
C90	C	1.837286	0.119195	0.145367
C91	C	1.063578	-0.380740	-0.546555
C92	C	1.563578	0.119260	-0.046555
C93	C	1.063596	-0.380720	-0.628354
C94	C	1.563596	0.119280	-0.128354
C95	C	1.063616	-0.174617	-0.354631
C96	C	1.563616	0.325383	0.145369
C97	C	1.063651	-0.086760	-0.354643
C98	C	1.563651	0.413240	0.145357
C99	C	1.110679	-0.431181	-0.893414
C100	C	1.610679	0.068819	-0.393414
C101	C	1.110668	-0.431209	-0.816556
C102	C	1.610668	0.068791	-0.316556
C103	C	1.016569	-0.330107	-0.816542
C104	C	1.516569	0.169893	-0.316542
C105	C	1.016577	-0.330084	-0.893400
C106	C	1.516577	0.169916	-0.393400
C107	C	1.063636	-0.380620	-0.931834
C108	C	1.563636	0.119380	-0.431834
C109	C	1.063617	-0.380670	-0.778118
C110	C	1.563617	0.119330	-0.278118
C111	C	1.063605	-0.380700	-0.694784
C112	C	1.563605	0.119300	-0.194784
C113	C	1.063648	-0.380592	-1.015173
C114	C	1.563648	0.119408	-0.515173
C115	C	1.063533	-0.380773	-0.163396
C116	C	1.563533	0.119227	0.336604
C117	C	1.063657	-0.380570	-0.081597
C118	C	1.563657	0.119430	0.418403
H119	H	0.494208	-0.472627	-0.439866
H120	H	0.994208	0.027373	0.060134
H121	H	0.931081	-0.955307	-0.486966
H122	H	1.431081	-0.455307	0.013034
H123	H	0.494174	-0.288964	-0.269376
H124	H	0.994174	0.211036	0.230624
H125	H	1.148975	-0.472381	-0.785278
H126	H	1.648975	0.027619	-0.285278
C127	C	1.161811	-1.090406	-0.256620
C128	C	1.661811	-0.590406	0.243380
C129	C	1.151755	-1.171536	-0.266687
C130	C	1.651755	-0.671536	0.233313
C131	C	1.198794	-1.212959	-0.219711
C132	C	1.698794	-0.712959	0.280289
H133	H	1.151083	-1.076986	-0.207143
H134	H	1.651083	-0.576986	0.292857
H135	H	1.211274	-1.076900	-0.267413
H136	H	1.711274	-0.576900	0.232587
H137	H	1.102303	-1.185035	-0.255888
H138	H	1.602303	-0.685035	0.244112
H139	H	1.162488	-1.184979	-0.316154
H140	H	1.662488	-0.684979	0.183846
H141	H	1.248258	-1.199454	-0.230505
H142	H	1.748258	-0.699454	0.269495
H143	H	1.188063	-1.199533	-0.170237
H144	H	1.688063	-0.699533	0.329763
H145	H	1.191983	-1.268010	-0.226540
H146	H	1.691983	-0.768010	0.273460
H147	H	1.148949	-0.681656	-0.269295
H148	H	1.648949	-0.181656	0.230705
H149	H	0.978256	-0.288961	-0.785240
H150	H	1.478256	0.211039	-0.285240
C151	C	0.965330	-0.670597	-0.452804
C152	C	1.465330	-0.170597	0.047196
C153	C	0.981312	-0.690641	-0.525633
C154	C	1.481312	-0.190641	-0.025633
C155	C	0.934246	-0.649491	-0.572791
C156	C	1.434246	-0.149491	-0.072791
H157	H	0.972006	-0.615508	-0.446165
H158	H	1.472006	-0.115508	0.053835
H159	H	0.915881	-0.684188	-0.442037
H160	H	1.415881	-0.184188	0.057963
H161	H	1.030748	-0.677044	-0.536397
H162	H	1.530748	-0.177044	-0.036397
H163	H	0.974631	-0.745723	-0.532296
H164	H	1.474631	-0.245723	-0.032296
H165	H	0.884798	-0.663083	-0.562024
H166	H	1.384798	-0.163083	-0.062024
H167	H	0.940927	-0.594405	-0.566145
H168	H	1.440927	-0.094405	-0.066145
H169	H	0.945079	-0.663091	-0.622211
H170	H	1.445079	-0.163091	-0.122211
H171	H	0.931023	-0.805530	-0.486951
H172	H	1.431023	-0.305530	0.013049
C173	C	0.965458	-1.090463	-0.452641
C174	C	1.465458	-0.590463	0.047359
C175	C	0.975550	-1.171588	-0.442577
C176	C	1.475550	-0.671588	0.057423
C177	C	0.928495	-1.213033	-0.489519
C178	C	1.428495	-0.713033	0.010481
H179	H	0.976147	-1.076993	-0.502125
H180	H	1.476147	-0.576993	-0.002125
H181	H	0.915997	-1.077025	-0.441815
H182	H	1.415997	-0.577025	0.058185
H183	H	1.025000	-1.185021	-0.453408
H184	H	1.525000	-0.685021	0.046592
H185	H	0.964856	-1.185081	-0.393102
H186	H	1.464856	-0.685081	0.106898
H187	H	0.879034	-1.199595	-0.478693
H188	H	1.379034	-0.699595	0.021307
H189	H	0.939189	-1.199557	-0.539001
H190	H	1.439189	-0.699557	-0.039001
H191	H	0.935332	-1.268081	-0.482693
H192	H	1.435332	-0.768081	0.017307
C193	C	1.161793	-0.486139	-0.935011
C194	C	1.661793	0.013861	-0.435011
C195	C	1.202973	-0.530439	-0.884910
C196	C	1.702973	-0.030439	-0.384910
C197	C	1.250059	-0.581085	-0.923200
C198	C	1.750059	-0.081085	-0.423200
H199	H	1.193938	-0.455984	-0.965006
H200	H	1.693938	0.044016	-0.465006
H201	H	1.133648	-0.520612	-0.964968
H202	H	1.633648	-0.020612	-0.464968
H203	H	1.231116	-0.495971	-0.854966
H204	H	1.731116	0.004029	-0.354966
H205	H	1.170847	-0.560611	-0.854914
H206	H	1.670847	-0.060611	-0.354914
H207	H	1.221914	-0.615558	-0.953156
H208	H	1.721914	-0.115558	-0.453156
H209	H	1.282200	-0.550924	-0.953193
H210	H	1.782200	-0.050924	-0.453193
H211	H	1.278001	-0.611154	-0.889212
H212	H	1.778001	-0.111154	-0.389212
C213	C	0.965472	-0.275099	-0.934985
C214	C	1.465472	0.224901	-0.434985
C215	C	0.924276	-0.230827	-0.884878
C216	C	1.424276	0.269173	-0.384878
C217	C	0.877197	-0.180164	-0.923160
C218	C	1.377197	0.319836	-0.423160
H219	H	0.933335	-0.305240	-0.964960
H220	H	1.433335	0.194760	-0.464960
H221	H	0.993623	-0.240608	-0.964962
H222	H	1.493623	0.259392	-0.464962
H223	H	0.896127	-0.265313	-0.854914
H224	H	1.396127	0.234687	-0.354914
H225	H	0.956392	-0.200669	-0.854903
H226	H	1.456392	0.299331	-0.354903
H227	H	0.905348	-0.145674	-0.953137
H228	H	1.405348	0.354326	-0.453137
H229	H	0.845066	-0.210312	-0.953133
H230	H	1.345066	0.289688	-0.453133
H231	H	0.849245	-0.150115	-0.889169
H232	H	1.349245	0.349885	-0.389169
H233	H	0.633616	-0.288947	-0.269359
H234	H	1.133616	0.211053	0.230641
C235	C	0.644034	-0.486261	-0.452729
C236	C	1.144034	0.013739	0.047271
C237	C	0.625386	-0.469133	-0.525570
C238	C	1.125386	0.030867	-0.025570
C239	C	0.663781	-0.519639	-0.572700
C240	C	1.163781	-0.019639	-0.072700
H241	H	0.631452	-0.539385	-0.441978
H242	H	1.131452	-0.039385	0.058022
H243	H	0.695318	-0.479003	-0.446047
H244	H	1.195318	0.020997	0.053953
H245	H	0.574114	-0.476397	-0.532249
H246	H	1.074114	0.023603	-0.032249
H247	H	0.637971	-0.416018	-0.536344
H248	H	1.137971	0.083982	-0.036344
H249	H	0.715065	-0.512381	-0.566018
H250	H	1.215065	-0.012381	-0.066018
H251	H	0.651195	-0.572760	-0.561943
H252	H	1.151195	-0.072760	-0.061943
H253	H	0.651139	-0.508020	-0.622128
H254	H	1.151139	-0.008020	-0.122128
C255	C	1.209004	-0.966371	-0.209576
C256	C	1.709004	-0.466371	0.290424
C257	C	1.281822	-0.946261	-0.225612
C258	C	1.781822	-0.446261	0.274388
C259	C	1.329017	-0.987474	-0.178632
C260	C	1.829017	-0.487474	0.321368
H261	H	1.202344	-1.021450	-0.216297
H262	H	1.702344	-0.521450	0.283703
H263	H	1.198289	-0.952876	-0.160104
H264	H	1.698289	-0.452876	0.339896
H265	H	1.292533	-0.959761	-0.275072
H266	H	1.792533	-0.459761	0.224928
H267	H	1.288505	-0.891188	-0.218887
H268	H	1.788505	-0.391188	0.281113
H269	H	1.318302	-0.973979	-0.129160
H270	H	1.818302	-0.473979	0.370840
H271	H	1.322351	-1.042551	-0.185356
H272	H	1.822351	-0.542551	0.314644
H273	H	1.378429	-0.973830	-0.189501
H274	H	1.878429	-0.473830	0.310499
C275	C	1.208831	-0.794360	-0.209399
C276	C	1.708831	-0.294360	0.290601
C277	C	1.192871	-0.814500	-0.136571
C278	C	1.692871	-0.314500	0.363429
C279	C	1.239916	-0.773326	-0.089412
C280	C	1.739916	-0.273326	0.410588
H281	H	1.202119	-0.739275	-0.216028
H282	H	1.702119	-0.239275	0.283972
H283	H	1.258287	-0.807867	-0.220175
H284	H	1.758287	-0.307867	0.279825
H285	H	1.143427	-0.800988	-0.125799
H286	H	1.643427	-0.300988	0.374201
H287	H	1.199587	-0.869578	-0.129918
H288	H	1.699587	-0.369578	0.370082
H289	H	1.289372	-0.786833	-0.100188
H290	H	1.789372	-0.286833	0.399812
H291	H	1.233200	-0.718243	-0.096048
H292	H	1.733200	-0.218243	0.403952
H293	H	1.229098	-0.786991	-0.039994
H294	H	1.729098	-0.286991	0.460006
