data_functionalizedCrystal
_audit_creation_method	'MofGen! by Chris Wilmer'
_symmetry_space_group_name_H-M	'P1'
_symmetry_Int_Tables_number	1
_symmetry_cell_setting	triclinic
loop_
_symmetry_equiv_pos_as_xyz
  x,y,z
_cell_length_a	10.654556
_cell_length_b	14.586319
_cell_length_c	10.654550
_cell_angle_alpha	89.999987
_cell_angle_beta	95.513766
_cell_angle_gamma	90.004235
loop_
_atom_site_label
_atom_site_type_symbol
_atom_site_fract_x
_atom_site_fract_y
_atom_site_fract_z
O1	O	1.667840	0.076205	-0.176428
O2	O	1.302362	0.076215	-0.193226
O3	O	1.493504	0.076204	-0.002088
O4	O	1.476698	0.076216	-0.367566
O5	O	1.493481	-0.076277	-0.002100
O6	O	1.302339	-0.076266	-0.193237
O7	O	1.667816	-0.076275	-0.176440
Cu8	Cu	1.485076	-0.090193	-0.184840
Cu9	Cu	1.485103	0.090133	-0.184826
O10	O	1.476675	-0.076265	-0.367578
C11	C	1.255553	-0.000024	-0.191997
C12	C	1.116110	-0.000021	-0.188302
C13	C	0.919577	0.083089	-0.183093
C14	C	1.050600	0.083095	-0.186557
C15	C	1.050593	-0.083148	-0.186569
C16	C	0.919574	-0.083153	-0.183096
N17	N	1.485065	-0.217025	-0.184848
C18	C	1.561918	-0.452031	-0.261711
C19	C	1.561931	-0.548012	-0.261703
C20	C	1.408268	-0.548023	-0.107936
C21	C	1.408262	-0.452043	-0.107939
C22	C	1.485085	-0.404050	-0.184834
C23	C	1.485104	-0.596011	-0.184822
C24	C	1.485117	-0.700078	-0.184812
C25	C	1.485074	-0.299976	-0.184842
C26	C	1.714626	-0.000034	-0.177669
C27	C	1.854069	-0.000032	-0.181364
C28	C	1.492258	-0.000036	0.044704
C29	C	1.488567	-0.000034	0.184147
N30	N	1.485124	0.216965	-0.184808
C31	C	1.477920	-0.000023	-0.414370
C32	C	1.481612	-0.000018	-0.553813
C33	C	1.601108	-0.000037	0.263630
C34	C	1.597631	-0.000025	0.394651
C35	C	1.369063	-0.000013	0.366693
C36	C	1.372540	-0.000018	0.235675
H37	H	1.103931	0.150780	-0.187963
Cl38	Cl	1.223209	0.000007	0.431481
Cl39	Cl	1.739119	-0.000027	0.494568
H40	H	1.345695	-0.412976	-0.045329
Cl41	Cl	0.837214	-0.187656	-0.180919
Cl42	Cl	1.658527	-0.608327	-0.358352
H43	H	1.345720	-0.587111	-0.045332
Cl44	Cl	1.658505	-0.391699	-0.358369
H45	H	0.866247	0.150772	-0.181681
Cl46	Cl	1.132949	-0.187637	-0.188760
Cl47	Cl	1.746969	-0.000055	0.198857
Cl48	Cl	1.231048	-0.000006	0.135746
