data_functionalizedCrystal
_audit_creation_method	'MofGen! by Chris Wilmer'
_symmetry_space_group_name_H-M	'P1'
_symmetry_Int_Tables_number	1
_symmetry_cell_setting	triclinic
loop_
_symmetry_equiv_pos_as_xyz
  x,y,z
_cell_length_a	14.519709
_cell_length_b	9.065218
_cell_length_c	7.540329
_cell_angle_alpha	89.996962
_cell_angle_beta	89.997398
_cell_angle_gamma	95.651985
loop_
_atom_site_label
_atom_site_type_symbol
_atom_site_fract_x
_atom_site_fract_y
_atom_site_fract_z
O1	O	-0.135225	1.957864	-0.147459
O2	O	0.364775	2.457864	0.352541
O3	O	-0.146317	1.528372	-0.147459
O4	O	0.353683	2.028372	0.352541
O5	O	-0.006616	1.754505	-0.147475
O6	O	0.493384	2.254505	0.352525
O7	O	-0.274926	1.731731	-0.147443
O8	O	0.225074	2.231731	0.352557
O9	O	-0.006614	1.754492	0.147490
O10	O	0.493386	2.254492	0.647490
O11	O	-0.146315	1.528358	0.147506
O12	O	0.353685	2.028358	0.647506
O13	O	-0.135223	1.957851	0.147506
O14	O	0.364777	2.457851	0.647506
Cu15	Cu	-0.140769	1.743103	0.174438
Cu16	Cu	0.359231	2.243103	0.674438
Cu17	Cu	-0.140771	1.743119	-0.174392
Cu18	Cu	0.359229	2.243119	0.325608
O19	O	-0.274924	1.731717	0.147522
O20	O	0.225076	2.231717	0.647522
C21	C	-0.145250	1.473398	0.000023
C22	C	0.354750	1.973398	0.500023
C23	C	-0.142063	1.309615	0.000021
C24	C	0.357937	1.809615	0.500021
C25	C	-0.309293	1.732785	0.000043
C26	C	0.190707	2.232785	0.500043
C27	C	-0.411697	1.735966	0.000055
C28	C	0.088303	2.235966	0.500055
C29	C	-0.786679	1.747675	-0.000015
C30	C	-0.286679	2.247675	0.499985
C31	C	-0.682347	1.744423	0.000005
C32	C	-0.182347	2.244423	0.500005
C33	C	-0.599192	1.741821	0.000022
C34	C	-0.099192	2.241821	0.500022
C35	C	-0.494853	1.738568	0.000039
C36	C	0.005147	2.238568	0.500039
C37	C	0.027752	1.753437	-0.000001
C38	C	0.527752	2.253437	0.499999
C39	C	0.130157	1.750257	-0.000024
C40	C	0.630157	2.250257	0.499976
C41	C	-0.136290	2.012824	0.000020
C42	C	0.363710	2.512824	0.500020
C43	C	-0.139478	2.176607	0.000010
C44	C	0.360522	2.676607	0.500010
N45	N	-0.140767	1.743103	0.419787
N46	N	0.359233	2.243103	0.919787
N47	N	-0.140766	1.743131	-0.419740
N48	N	0.359234	2.243131	0.080260
