data_functionalizedCrystal
_audit_creation_method	'MofGen! by Chris Wilmer'
_symmetry_space_group_name_H-M	'P1'
_symmetry_Int_Tables_number	1
_symmetry_cell_setting	triclinic
loop_
_symmetry_equiv_pos_as_xyz
  x,y,z
_cell_length_a	19.805407
_cell_length_b	18.101395
_cell_length_c	19.805399
_cell_angle_alpha	89.973474
_cell_angle_beta	89.983114
_cell_angle_gamma	90.031104
loop_
_atom_site_label
_atom_site_type_symbol
_atom_site_fract_x
_atom_site_fract_y
_atom_site_fract_z
Zn1	Zn	1.034696	-0.294836	-0.382731
Zn2	Zn	1.034607	-0.418683	-0.269548
Zn3	Zn	0.921516	-0.294860	-0.269556
Zn4	Zn	0.921465	-0.418641	-0.382695
O5	O	0.978071	-0.356755	-0.326132
O6	O	1.129400	-0.311273	-0.367729
O7	O	1.019589	-0.402285	-0.174832
O8	O	0.936588	-0.191224	-0.284587
O9	O	1.129335	-0.402263	-0.284574
O10	O	1.019741	-0.191207	-0.367737
O11	O	0.936501	-0.311313	-0.174838
O12	O	0.826792	-0.311272	-0.284552
O13	O	0.936501	-0.402190	-0.477416
O14	O	0.826755	-0.402213	-0.367674
O15	O	1.019691	-0.311232	-0.477443
O16	O	1.019539	-0.522310	-0.284538
O17	O	0.936414	-0.522279	-0.367667
C18	C	0.802215	-0.356741	-0.326110
C19	C	0.726983	-0.356753	-0.326117
C20	C	0.691637	-0.404177	-0.369329
C21	C	0.620948	-0.404178	-0.369339
C22	C	0.585607	-0.356758	-0.326132
C23	C	0.620958	-0.309329	-0.282919
C24	C	0.691645	-0.309324	-0.282913
C25	C	0.335885	-0.309345	-0.282941
C26	C	0.265193	-0.309355	-0.282948
C27	C	0.265188	-0.404199	-0.369367
C28	C	0.335875	-0.404195	-0.369361
C29	C	0.371220	-0.356763	-0.326150
C30	C	0.447868	-0.356761	-0.326141
C31	C	0.508960	-0.356763	-0.326137
C32	C	0.977980	-0.549166	-0.326112
C33	C	0.978003	-0.631480	-0.326127
C34	C	0.978152	-0.930571	-0.326163
C35	C	0.925973	-0.899257	-0.378595
C36	C	0.925725	-0.813639	-0.378431
C37	C	0.978078	-0.782188	-0.326146
C38	C	0.958771	-0.813338	-0.254811
C39	C	0.958434	-0.898984	-0.255125
C40	C	1.049752	-0.898915	-0.344438
C41	C	1.049331	-0.813264	-0.346002
C42	C	0.978038	-0.698329	-0.326131
C43	C	0.978191	-1.014430	-0.326173
C44	C	1.154613	-0.356770	-0.326155
C45	C	1.229845	-0.356776	-0.326164
C46	C	0.978100	-0.356704	-0.502675
C47	C	0.978113	-0.356682	-0.577907
C48	C	0.978180	-0.163593	-0.326167
C49	C	0.978227	-0.081279	-0.326182
C50	C	0.934862	-0.309308	-0.613254
C51	C	0.934871	-0.309294	-0.683942
C52	C	0.978135	-0.356650	-0.719283
C53	C	1.021389	-0.404029	-0.683931
C54	C	1.021375	-0.404046	-0.613244
C55	C	1.021442	-0.403959	-0.969005
C56	C	1.021454	-0.403937	-1.039697
C57	C	0.934938	-0.309207	-1.039703
C58	C	0.934925	-0.309224	-0.969016
C59	C	0.978175	-0.356606	-0.933670
C60	C	0.978163	-0.356622	-0.857022
C61	C	0.978151	-0.356631	-0.795930
C62	C	0.978080	-0.356753	-0.150276
C63	C	0.978198	-0.356566	-0.075045
H64	H	0.364654	-0.270729	-0.247751
H65	H	1.056600	-0.442617	-0.584466
C66	C	1.008493	-0.785814	-0.200592
N67	N	1.045944	-0.765079	-0.159756
H68	H	0.592173	-0.442797	-0.404525
H69	H	0.364646	-0.442811	-0.404542
C70	C	0.730505	-0.456344	-0.416860
N71	N	0.759779	-0.495635	-0.452664
C72	C	0.887298	-0.257171	-0.722821
N73	N	0.851466	-0.217908	-0.752103
C74	C	0.887725	-0.926062	-0.234216
N75	N	0.834464	-0.946454	-0.218469
H76	H	0.236402	-0.442818	-0.404554
H77	H	0.236420	-0.270735	-0.247765
C78	C	0.887330	-0.257130	-0.930145
N79	N	0.851478	-0.217894	-0.900869
C80	C	0.854015	-0.786044	-0.362127
N81	N	0.799997	-0.765261	-0.349863
C82	C	0.887356	-0.257091	-1.078589
N83	N	0.851519	-0.217838	-1.107877
H84	H	0.592178	-0.270716	-0.247742
H85	H	0.720423	-0.270703	-0.247729
H86	H	0.937804	-0.792575	-0.431325
H87	H	0.994790	-0.919700	-0.214727
H88	H	0.937932	-0.919805	-0.431660
C89	C	1.104630	-0.784339	-0.298170
N90	N	1.146280	-0.762554	-0.262136
C91	C	0.888808	-0.784456	-0.233525
N92	N	0.836109	-0.762705	-0.217496
H93	H	1.056687	-0.442503	-1.068469
C94	C	1.073532	-0.928021	-0.413516
N95	N	1.091435	-0.949944	-0.465549
C96	C	1.069018	-0.785724	-0.416911
N97	N	1.083850	-0.764967	-0.470315
H98	H	1.056612	-0.442591	-0.712711
H99	H	1.088627	-0.919164	-0.306250
C100	C	0.854708	-0.928408	-0.362443
N101	N	0.801031	-0.950364	-0.350272
C102	C	0.887266	-0.257212	-0.574386
N103	N	0.851414	-0.217974	-0.545112
H104	H	1.056652	-0.442548	-0.940235
