data_functionalizedCrystal
_audit_creation_method	'MofGen! by Chris Wilmer'
_symmetry_space_group_name_H-M	'P1'
_symmetry_Int_Tables_number	1
_symmetry_cell_setting	triclinic
loop_
_symmetry_equiv_pos_as_xyz
  x,y,z
_cell_length_a	19.188930
_cell_length_b	14.044220
_cell_length_c	13.101039
_cell_angle_alpha	93.667477
_cell_angle_beta	86.639939
_cell_angle_gamma	88.166828
loop_
_atom_site_label
_atom_site_type_symbol
_atom_site_fract_x
_atom_site_fract_y
_atom_site_fract_z
O1	O	0.937307	0.113041	-0.085551
O2	O	0.735021	0.128972	-0.085481
O3	O	0.833127	-0.016965	-0.085505
O4	O	0.839201	0.258978	-0.085527
O5	O	0.826089	-0.006477	0.084927
O6	O	0.727983	0.139460	0.084950
O7	O	0.930269	0.123529	0.084881
Zn8	Zn	0.828009	0.133160	0.111975
Zn9	Zn	0.837282	0.119341	-0.112576
O10	O	0.832163	0.269466	0.084904
C11	C	0.826950	-0.047024	-0.000288
C12	C	0.819021	-0.152217	-0.000284
C13	C	0.705457	0.133701	-0.000256
C14	C	0.627852	0.132154	-0.000229
C15	C	0.804526	-0.344819	-0.000293
C16	C	0.860762	-0.402686	-0.000316
C17	C	0.852696	-0.509857	-0.000321
C18	C	0.812590	-0.237638	-0.000288
C19	C	0.588454	0.217783	-0.000252
C20	C	0.515537	0.216328	-0.000263
C21	C	0.482021	0.129238	-0.000272
C22	C	0.521427	0.043598	-0.000243
C23	C	0.594343	0.045056	-0.000222
N24	N	0.372142	0.059097	-0.058313
N25	N	0.302875	0.057717	-0.058336
C26	C	0.262331	0.124839	-0.000335
N27	N	0.293671	0.193406	0.057677
N28	N	0.362944	0.194788	0.057695
C29	C	0.402957	0.127647	-0.000295
C30	C	0.143869	0.208896	-0.000368
C31	C	0.070950	0.207437	-0.000373
C32	C	0.076842	0.034705	-0.000363
C33	C	0.149759	0.036166	-0.000348
C34	C	0.183268	0.123264	-0.000355
C35	C	0.959833	0.118800	-0.000346
C36	C	1.037439	0.120346	-0.000380
C37	C	0.838340	0.299525	-0.000315
C38	C	0.846269	0.404717	-0.000326
N39	N	0.821685	0.142590	0.265225
N40	N	0.843610	0.109904	-0.265826
C41	C	0.813083	0.155429	0.474270
C42	C	0.852211	0.097068	0.525136
C43	C	0.847424	0.104212	0.641456
C44	C	0.817868	0.148286	0.357940
H45	H	0.914967	-0.371745	-0.000403
H46	H	0.750328	-0.375762	-0.000277
C47	C	0.472627	0.309201	-0.000243
C48	C	0.401598	0.289281	-0.000238
C49	C	0.362051	0.374812	-0.000207
H50	H	0.485752	0.341332	-0.059663
H51	H	0.480850	0.348599	0.059211
H52	H	0.393380	0.249899	-0.059687
H53	H	0.388453	0.257163	0.059177
H54	H	0.370274	0.414209	0.059247
H55	H	0.375181	0.406937	-0.059628
H56	H	0.313853	0.361308	-0.000194
H57	H	0.615733	0.288704	-0.000260
H58	H	0.889304	0.041740	0.481325
C59	C	0.484915	-0.050865	-0.000308
C60	C	0.412627	-0.033817	-0.000362
C61	C	0.378971	-0.120817	-0.000430
H62	H	0.495519	-0.082527	0.059116
H63	H	0.500509	-0.089778	-0.059758
H64	H	0.397038	0.005081	0.059083
H65	H	0.402002	-0.002169	-0.059781
H66	H	0.394565	-0.159730	-0.059880
H67	H	0.389581	-0.152472	0.058995
H68	H	0.329921	-0.109263	-0.000476
C69	C	0.637001	-0.048023	-0.000258
C70	C	0.592048	-0.124609	-0.000289
C71	C	0.631322	-0.210369	-0.000339
H72	H	0.663107	-0.047523	0.059165
H73	H	0.668025	-0.054753	-0.059709
H74	H	0.561037	-0.117881	0.059157
H75	H	0.565941	-0.125140	-0.059707
H76	H	0.662345	-0.217100	-0.059791
H77	H	0.657426	-0.209860	0.059085
H78	H	0.600828	-0.262344	-0.000370
C79	C	0.763511	0.229092	0.532627
C80	C	0.694987	0.212542	0.506684
C81	C	0.649305	0.280373	0.560446
H82	H	0.775726	0.291268	0.515144
H83	H	0.766782	0.224141	0.604185
H84	H	0.691718	0.217501	0.435142
H85	H	0.682750	0.150379	0.524169
H86	H	0.652576	0.275422	0.632004
H87	H	0.661526	0.342545	0.542959
H88	H	0.602805	0.269148	0.542859
H89	H	0.171153	0.279817	-0.000359
H90	H	0.038873	0.277170	-0.000386
H91	H	0.049557	-0.036210	-0.000434
H92	H	0.181837	-0.033562	-0.000335
