data_functionalizedCrystal
_audit_creation_method	'MofGen! by Chris Wilmer'
_symmetry_space_group_name_H-M	'P1'
_symmetry_Int_Tables_number	1
_symmetry_cell_setting	triclinic
loop_
_symmetry_equiv_pos_as_xyz
  x,y,z
_cell_length_a	19.288840
_cell_length_b	14.853559
_cell_length_c	17.766277
_cell_angle_alpha	89.995835
_cell_angle_beta	89.983415
_cell_angle_gamma	83.378735
loop_
_atom_site_label
_atom_site_type_symbol
_atom_site_fract_x
_atom_site_fract_y
_atom_site_fract_z
O1	O	0.921741	0.112357	-0.062716
O2	O	0.719529	0.127552	-0.062690
O3	O	0.826039	-0.011307	-0.062703
O4	O	0.815230	0.251216	-0.062703
O5	O	0.826020	-0.011314	0.062485
O6	O	0.719510	0.127545	0.062499
O7	O	0.921722	0.112350	0.062472
Cu8	Cu	0.820614	0.119947	0.073916
Cu9	Cu	0.820636	0.119955	-0.074134
O10	O	0.815211	0.251209	0.062485
C11	C	0.693641	0.127063	-0.000092
C12	C	0.616531	0.125607	-0.000082
C13	C	0.580336	0.124911	-0.068324
C14	C	0.507884	0.123533	-0.068334
C15	C	0.471633	0.122832	-0.000097
C16	C	0.507837	0.123533	0.068154
C17	C	0.580286	0.124921	0.068162
C18	C	0.362113	0.067825	0.052172
C19	C	0.289666	0.066432	0.052162
C20	C	0.248175	0.118556	-0.000116
C21	C	0.279142	0.172062	-0.052397
C22	C	0.351591	0.173450	-0.052390
C23	C	0.393074	0.121328	-0.000097
C24	C	0.133419	0.116367	-0.068373
C25	C	0.060966	0.114994	-0.068380
C26	C	0.060920	0.114986	0.068110
C27	C	0.133372	0.116368	0.068115
C28	C	0.169617	0.117054	-0.000129
C29	C	0.825541	-0.044896	-0.000110
C30	C	0.824077	-0.144972	-0.000114
C31	C	0.817874	-0.568107	-0.068354
C32	C	0.817854	-0.568110	0.068132
C33	C	0.819235	-0.474084	0.068132
C34	C	0.819935	-0.427066	-0.000111
C35	C	0.819254	-0.474073	-0.068355
C36	C	0.819910	-0.427069	0.136375
C37	C	0.821291	-0.333038	0.136378
C38	C	0.821996	-0.286019	0.068134
C39	C	0.821315	-0.333032	-0.000113
C40	C	0.822015	-0.286013	-0.068356
C41	C	0.821339	-0.333025	-0.136604
C42	C	0.819959	-0.427054	-0.136600
C43	C	0.823376	-0.191990	0.068129
C44	C	0.823395	-0.191979	-0.068358
C45	C	0.947610	0.112839	-0.000127
C46	C	1.024719	0.114295	-0.000142
C47	C	0.815709	0.284799	-0.000109
C48	C	0.817174	0.384874	-0.000110
N49	N	0.820604	0.119941	0.178046
N50	N	0.820652	0.119955	-0.178264
C51	C	0.867782	0.058484	0.217427
C52	C	0.867786	0.058480	0.296229
C53	C	0.820618	0.119948	0.335647
C54	C	0.773431	0.181409	0.296256
C55	C	0.773424	0.181406	0.217456
C56	C	0.811595	0.202092	0.460486
C57	C	0.811607	0.202097	0.539284
C58	C	0.820637	0.119959	0.578693
C59	C	0.829669	0.037812	0.539294
C60	C	0.829662	0.037808	0.460493
C61	C	0.820621	0.119958	0.421093
C62	C	0.867822	0.058492	0.703520
C63	C	0.867821	0.058487	0.782324
C64	C	0.773470	0.181424	0.782349
C65	C	0.773467	0.181422	0.703547
C66	C	0.820647	0.119957	0.664138
H67	H	0.376801	0.217018	-0.094957
H68	H	0.819408	-0.465339	-0.192163
H69	H	0.817279	-0.606397	0.123692
C70	C	0.233511	0.229406	-0.109904
H71	H	0.185927	0.220927	-0.102417
H72	H	0.247255	0.211072	-0.159445
H73	H	0.239191	0.291601	-0.103315
H74	H	0.162931	0.116936	-0.123942
H75	H	0.823968	-0.153704	-0.123931
H76	H	0.031496	0.114433	-0.123953
H77	H	0.031405	0.114421	0.123670
C78	C	0.173190	0.117121	0.143182
H79	H	0.141226	0.116500	0.183821
H80	H	0.196198	0.170223	0.146023
H81	H	0.206705	0.065093	0.146020
H82	H	0.906237	0.008441	0.671432
C83	C	0.468058	0.122762	-0.143401
H84	H	0.419718	0.121842	-0.133629
H85	H	0.485196	0.070427	-0.171436
H86	H	0.474682	0.175557	-0.171443
H87	H	0.906237	0.008437	0.814388
C88	C	0.839608	-0.052548	0.582629
H89	H	0.844992	-0.101468	0.547879
H90	H	0.799921	-0.057421	0.613386
H91	H	0.880056	-0.054504	0.613351
H92	H	0.906197	0.008433	0.185342
C93	C	0.824118	-0.140281	0.143191
H94	H	0.823505	-0.181751	0.183834
H95	H	0.784185	-0.096551	0.146030
H96	H	0.865135	-0.110651	0.146025
H97	H	0.817326	-0.606389	-0.123919
C98	C	0.839586	-0.052543	0.417154
H99	H	0.845061	-0.101464	0.451903
H100	H	0.879966	-0.054453	0.386312
H101	H	0.799841	-0.057460	0.386517
C102	C	0.255607	0.007563	0.109652
H103	H	0.206519	0.014187	0.102152
H104	H	0.265600	0.026344	0.159199
H105	H	0.273686	-0.054175	0.103060
C106	C	0.407748	0.010469	0.109670
H107	H	0.378932	-0.021609	0.140794
H108	H	0.432202	0.049063	0.139914
H109	H	0.440257	-0.031449	0.083768
H110	H	0.819336	-0.465358	0.191935
H111	H	0.478316	0.122965	0.123713
H112	H	0.609756	0.125488	0.123734
C113	C	0.919685	-0.009120	0.339561
H114	H	0.912929	-0.000316	0.392136
H115	H	0.966046	0.000517	0.326627
H116	H	0.912088	-0.069271	0.326660
C117	C	0.822111	-0.281299	-0.211667
H118	H	0.823032	-0.218568	-0.201889
H119	H	0.781419	-0.289661	-0.239707
H120	H	0.862370	-0.303748	-0.239709
H121	H	0.735063	0.231469	0.814442
H122	H	0.821844	-0.294769	0.191949
H123	H	0.735053	0.231469	0.671481
H124	H	0.804257	0.268986	0.571358
C125	C	0.801666	0.292451	0.417143
H126	H	0.796300	0.341373	0.451892
H127	H	0.761224	0.294419	0.386418
H128	H	0.841362	0.297309	0.386390
C129	C	0.721550	0.249025	0.339612
H130	H	0.728316	0.240232	0.392184
H131	H	0.675186	0.239393	0.326722
H132	H	0.729151	0.309170	0.326686
C133	C	0.721534	0.249019	0.174132
H134	H	0.728286	0.240212	0.121556
H135	H	0.729134	0.309161	0.187041
H136	H	0.675168	0.239384	0.187061
C137	C	0.620201	0.125679	-0.143389
H138	H	0.588262	0.125075	-0.184034
H139	H	0.653722	0.073661	-0.146226
H140	H	0.643205	0.178791	-0.146223
