data_functionalizedCrystal
_audit_creation_method	'MofGen! by Chris Wilmer'
_symmetry_space_group_name_H-M	'P1'
_symmetry_Int_Tables_number	1
_symmetry_cell_setting	triclinic
loop_
_symmetry_equiv_pos_as_xyz
  x,y,z
_cell_length_a	16.625547
_cell_length_b	19.805406
_cell_length_c	19.805399
_cell_angle_alpha	89.985648
_cell_angle_beta	89.977137
_cell_angle_gamma	89.999905
loop_
_atom_site_label
_atom_site_type_symbol
_atom_site_fract_x
_atom_site_fract_y
_atom_site_fract_z
Zn1	Zn	1.232791	-0.269480	-0.382841
Zn2	Zn	1.732791	0.230520	0.117159
Zn3	Zn	1.232752	-0.382668	-0.269679
Zn4	Zn	1.732752	0.117332	0.230321
Zn5	Zn	1.097957	-0.269498	-0.269659
Zn6	Zn	1.597957	0.230502	0.230341
Zn7	Zn	1.097976	-0.382632	-0.382819
Zn8	Zn	1.597976	0.117368	0.117181
O9	O	1.165369	-0.326070	-0.326250
O10	O	1.665369	0.173930	0.173750
O11	O	1.345618	-0.284502	-0.367848
O12	O	1.845618	0.215498	0.132152
O13	O	1.214847	-0.367679	-0.174960
O14	O	1.714847	0.132321	0.325040
O15	O	1.115852	-0.174779	-0.284674
O16	O	1.615852	0.325221	0.215326
O17	O	1.345589	-0.367661	-0.284708
O18	O	1.845589	0.132339	0.215292
O19	O	1.214914	-0.174766	-0.367828
O20	O	1.714914	0.325234	0.132172
O21	O	1.115814	-0.284534	-0.174945
O22	O	1.615814	0.215466	0.325055
O23	O	0.985128	-0.284499	-0.284653
O24	O	1.485128	0.215501	0.215347
O25	O	1.115884	-0.367599	-0.477539
O26	O	1.615884	0.132401	0.022461
O27	O	0.985141	-0.367617	-0.367791
O28	O	1.485141	0.132383	0.132209
O29	O	1.214932	-0.284467	-0.477555
O30	O	1.714932	0.215533	0.022445
O31	O	1.214865	-0.477380	-0.284687
O32	O	1.714865	0.022620	0.215313
O33	O	1.115846	-0.477353	-0.367810
O34	O	1.615846	0.022647	0.132190
C35	C	0.955878	-0.326057	-0.326218
C36	C	1.455878	0.173943	0.173782
C37	C	0.866257	-0.326067	-0.326220
C38	C	1.366257	0.173933	0.173780
C39	C	0.793475	-0.326069	-0.326229
C40	C	1.293475	0.173931	0.173771
C41	C	0.702166	-0.326072	-0.326246
C42	C	1.202166	0.173928	0.173754
C43	C	0.629390	-0.326078	-0.326263
C44	C	1.129390	0.173922	0.173737
C45	C	0.538076	-0.326083	-0.326279
C46	C	1.038076	0.173917	0.173721
C47	C	1.165375	-0.501926	-0.326263
C48	C	1.665375	-0.001926	0.173737
C49	C	1.165451	-0.577158	-0.326291
C50	C	1.665451	-0.077158	0.173709
C51	C	1.165414	-0.326027	-0.502793
C52	C	1.665414	0.173973	-0.002793
C53	C	1.165434	-0.326009	-0.578025
C54	C	1.665434	0.173991	-0.078025
C55	C	1.375678	-0.326083	-0.326282
C56	C	1.875678	0.173917	0.173718
C57	C	1.465299	-0.326089	-0.326296
C58	C	1.965299	0.173911	0.173704
C59	C	1.165385	-0.149527	-0.326251
C60	C	1.665385	0.350473	0.173749
C61	C	1.165392	-0.074295	-0.326252
C62	C	1.665392	0.425705	0.173748
C63	C	1.113822	-0.038957	-0.282960
C64	C	1.613822	0.461043	0.217040
C65	C	1.113827	0.031732	-0.282967
C66	C	1.613827	0.531732	0.217033
C67	C	1.165407	0.067081	-0.326264
C68	C	1.665407	0.567081	0.173736
C69	C	1.216979	0.031738	-0.369561
C70	C	1.716979	0.531738	0.130439
C71	C	1.216969	-0.038950	-0.369557
C72	C	1.716969	0.461050	0.130443
C73	C	1.217018	0.316811	-0.369581
C74	C	1.717018	0.816811	0.130419
C75	C	1.217026	0.387503	-0.369581
C76	C	1.717026	0.887503	0.130419
C77	C	1.113877	0.387492	-0.282992
C78	C	1.613877	0.887492	0.217008
C79	C	1.113867	0.316805	-0.282987
C80	C	1.613867	0.816805	0.217013
C81	C	1.165435	0.281468	-0.326286
C82	C	1.665435	0.781468	0.173714
C83	C	1.165428	0.204820	-0.326279
C84	C	1.665428	0.704820	0.173721
C85	C	1.165419	0.143728	-0.326269
C86	C	1.665419	0.643728	0.173731
C87	C	1.217009	-0.282720	-0.613378
C88	C	1.717009	0.217280	-0.113378
C89	C	1.217017	-0.282700	-0.684067
C90	C	1.717017	0.217300	-0.184067
C91	C	1.165454	-0.325974	-0.719400
C92	C	1.665454	0.174026	-0.219400
C93	C	1.113872	-0.369265	-0.684042
C94	C	1.613872	0.130735	-0.184042
C95	C	1.113861	-0.369280	-0.613355
C96	C	1.613861	0.130720	-0.113355
C97	C	1.113918	-0.369202	-0.969115
C98	C	1.613918	0.130798	-0.469115
C99	C	1.113935	-0.369184	-1.039807
C100	C	1.613935	0.130816	-0.539807
C101	C	1.217074	-0.282621	-1.039827
C102	C	1.717074	0.217379	-0.539827
C103	C	1.217063	-0.282637	-0.969140
C104	C	1.717063	0.217363	-0.469140
C105	C	1.165479	-0.325925	-0.933788
C106	C	1.665479	0.174075	-0.433788
C107	C	1.165470	-0.325945	-0.857139
C108	C	1.665470	0.174055	-0.357139
C109	C	1.165466	-0.325958	-0.796047
C110	C	1.665466	0.174042	-0.296047
C111	C	1.165370	-0.326063	-0.150394
C112	C	1.665370	0.173937	0.349606
C113	C	1.165507	-0.325891	-0.075162
C114	C	1.665507	0.174109	0.424838
H115	H	1.071835	0.060504	-0.247716
H116	H	1.571835	0.560504	0.252284
C117	C	1.273760	0.426389	-0.417211
C118	C	1.773760	0.926389	0.082789
H119	H	1.266385	0.473548	-0.411005
H120	H	1.766385	0.973548	0.088995
H121	H	1.261967	0.414818	-0.462686
H122	H	1.761967	0.914818	0.037314
H123	H	1.327936	0.414798	-0.407314
H124	H	1.827936	0.914798	0.092686
C125	C	1.273747	0.277949	-0.417203
C126	C	1.773747	0.777949	0.082797
H127	H	1.304472	0.309127	-0.442983
H128	H	1.804472	0.809127	0.057017
H129	H	1.242910	0.250383	-0.446690
H130	H	1.742910	0.750383	0.053310
H131	H	1.308872	0.250366	-0.391312
H132	H	1.808872	0.750366	0.108688
C133	C	1.273716	0.070619	-0.417185
C134	C	1.773716	0.570619	0.082815
H135	H	1.266344	0.117780	-0.410983
H136	H	1.766344	0.617780	0.089017
H137	H	1.261929	0.059047	-0.462661
H138	H	1.761929	0.559047	0.037339
H139	H	1.327890	0.059026	-0.407281
H140	H	1.827890	0.559026	0.092719
H141	H	1.071868	0.288027	-0.247728
H142	H	1.571868	0.788027	0.252272
H143	H	1.071886	-0.404496	-0.712816
H144	H	1.571886	0.095504	-0.212816
C145	C	1.057130	-0.416897	-0.574462
C146	C	1.557130	0.083103	-0.074462
H147	H	1.064501	-0.410705	-0.527304
H148	H	1.564501	0.089295	-0.027304
H149	H	1.068924	-0.462374	-0.586046
H150	H	1.568924	0.037626	-0.086046
H151	H	1.002956	-0.406979	-0.586037
H152	H	1.502956	0.093021	-0.086037
H153	H	1.259054	-0.247401	-0.940375
H154	H	1.759054	0.252599	-0.440375
C155	C	1.273700	-0.077822	-0.417174
C156	C	1.773700	0.422178	0.082826
H157	H	1.304427	-0.046646	-0.442956
H158	H	1.804427	0.453354	0.057044
H159	H	1.242862	-0.105389	-0.446659
H160	H	1.742862	0.394611	0.053341
H161	H	1.308824	-0.105403	-0.391281
H162	H	1.808824	0.394597	0.108719
H163	H	1.259001	-0.247483	-0.584615
H164	H	1.759001	0.252517	-0.084615
H165	H	1.071943	-0.404424	-1.068574
H166	H	1.571943	0.095576	-0.568574
C167	C	1.057162	-0.416803	-0.930236
C168	C	1.557162	0.083197	-0.430236
H169	H	1.026456	-0.442571	-0.961406
H170	H	1.526456	0.057429	-0.461406
H171	H	1.022033	-0.390900	-0.902665
H172	H	1.522033	0.109100	-0.402665
H173	H	1.087981	-0.446312	-0.902658
H174	H	1.587981	0.053688	-0.402658
C175	C	1.273811	-0.234999	-1.078717
C176	C	1.773811	0.265001	-0.578717
H177	H	1.266430	-0.241180	-1.125876
H178	H	1.766430	0.258820	-0.625876
H179	H	1.327982	-0.244914	-1.067143
H180	H	1.827982	0.255086	-0.567143
H181	H	1.262011	-0.189522	-1.067129
H182	H	1.762011	0.310478	-0.567129
H183	H	1.071884	0.416271	-0.247737
H184	H	1.571884	0.916271	0.252263
C185	C	1.057082	-0.077835	-0.235335
C186	C	1.557082	0.422165	0.264665
H187	H	1.026364	-0.046662	-0.209558
H188	H	1.526364	0.453338	0.290442
H189	H	1.087910	-0.105420	-0.205845
H190	H	1.587910	0.394580	0.294155
H191	H	1.021950	-0.105399	-0.261225
H192	H	1.521950	0.394601	0.238775
H193	H	1.259017	-0.247451	-0.712849
H194	H	1.759017	0.252549	-0.212849
