data_functionalizedCrystal
_audit_creation_method	'MofGen! by Chris Wilmer'
_symmetry_space_group_name_H-M	'P1'
_symmetry_Int_Tables_number	1
_symmetry_cell_setting	triclinic
loop_
_symmetry_equiv_pos_as_xyz
  x,y,z
_cell_length_a	17.640112
_cell_length_b	21.295417
_cell_length_c	17.639306
_cell_angle_alpha	101.182150
_cell_angle_beta	87.804122
_cell_angle_gamma	101.256239
loop_
_atom_site_label
_atom_site_type_symbol
_atom_site_fract_x
_atom_site_fract_y
_atom_site_fract_z
Zn1	Zn	1.247725	-0.080914	-0.195061
Zn2	Zn	1.581059	0.252419	0.138272
Zn3	Zn	1.914392	0.585753	0.471605
Zn4	Zn	1.221964	-0.169894	-0.068081
Zn5	Zn	1.555297	0.163439	0.265253
Zn6	Zn	1.888630	0.496773	0.598586
Zn7	Zn	1.095076	-0.089221	-0.093713
Zn8	Zn	1.428409	0.244112	0.239620
Zn9	Zn	1.761742	0.577446	0.572953
Zn10	Zn	1.120668	-0.210748	-0.220650
Zn11	Zn	1.454001	0.122585	0.112683
Zn12	Zn	1.787334	0.455919	0.446017
O13	O	1.171358	-0.137694	-0.144376
O14	O	1.504691	0.195639	0.188957
O15	O	1.838025	0.528972	0.522290
O16	O	1.350585	-0.072143	-0.156781
O17	O	1.683919	0.261190	0.176552
O18	O	2.017252	0.594523	0.509886
O19	O	1.183640	-0.145572	0.034784
O20	O	1.516973	0.187762	0.368118
O21	O	1.850307	0.521095	0.701451
O22	O	1.115396	-0.000021	-0.107176
O23	O	1.448729	0.333312	0.226157
O24	O	1.782063	0.666645	0.559491
O25	O	1.331658	-0.137517	-0.063489
O26	O	1.664992	0.195817	0.269844
O27	O	1.998325	0.529150	0.603178
O28	O	1.227547	0.006082	-0.181636
O29	O	1.560881	0.339415	0.151697
O30	O	1.894214	0.672749	0.485031
O31	O	1.090416	-0.086302	0.015952
O32	O	1.423749	0.247032	0.349285
O33	O	1.757083	0.580365	0.682619
O34	O	0.992193	-0.125916	-0.131988
O35	O	1.325526	0.207418	0.201345
O36	O	1.658860	0.540751	0.534679
O37	O	1.159014	-0.207146	-0.323521
O38	O	1.492347	0.126187	0.009813
O39	O	1.825680	0.459521	0.343146
O40	O	1.010995	-0.215201	-0.225248
O41	O	1.344329	0.118132	0.108086
O42	O	1.677662	0.451466	0.441419
O43	O	1.252363	-0.111758	-0.304721
O44	O	1.585696	0.221576	0.028612
O45	O	1.919029	0.554909	0.361946
O46	O	1.208455	-0.263411	-0.088301
O47	O	1.541789	0.069922	0.245032
O48	O	1.875122	0.403255	0.578366
O49	O	1.134034	-0.293426	-0.200393
O50	O	1.467367	0.039907	0.132941
O51	O	1.800700	0.373240	0.466274
C52	C	0.974038	-0.175893	-0.184177
C53	C	1.307371	0.157440	0.149157
C54	C	1.640705	0.490773	0.482490
C55	C	0.889627	-0.192253	-0.201221
C56	C	1.222960	0.141081	0.132112
C57	C	1.556294	0.474414	0.465445
C58	C	0.563034	-0.013405	-0.014896
C59	C	0.896367	0.319929	0.318437
C60	C	1.229700	0.653262	0.651771
C61	C	0.483719	-0.028791	-0.030922
C62	C	0.817052	0.304543	0.302411
C63	C	1.150386	0.637876	0.635744
C64	C	0.503318	-0.121853	-0.127866
C65	C	0.836652	0.211481	0.205467
C66	C	1.169985	0.544814	0.538800
C67	C	0.582637	-0.106473	-0.111851
C68	C	0.915970	0.226861	0.221483
C69	C	1.249303	0.560194	0.554816
C70	C	0.612488	-0.052248	-0.055364
C71	C	0.945821	0.281085	0.277969
C72	C	1.279154	0.614419	0.611302
C73	C	0.632091	-0.145316	-0.152319
C74	C	0.965424	0.188017	0.181015
C75	C	1.298758	0.521351	0.514348
C76	C	0.711402	-0.129939	-0.136301
C77	C	1.044735	0.203394	0.197032
C78	C	1.378069	0.536728	0.530365
C79	C	0.741259	-0.075718	-0.079816
C80	C	1.074592	0.257615	0.253517
C81	C	1.407925	0.590948	0.586851
C82	C	0.691799	-0.036871	-0.039347
C83	C	1.025132	0.296462	0.293986
C84	C	1.358465	0.629796	0.627320
C85	C	0.602238	-0.199543	-0.208801
C86	C	0.935571	0.133790	0.124532
C87	C	1.268904	0.467124	0.457866
C88	C	0.651692	-0.238387	-0.249269
C89	C	0.985025	0.094947	0.084064
C90	C	1.318358	0.428280	0.417397
C91	C	0.731005	-0.223007	-0.233256
C92	C	1.064338	0.110326	0.100077
C93	C	1.397672	0.443660	0.433411
C94	C	0.760862	-0.168786	-0.176771
C95	C	1.094195	0.164547	0.156563
C96	C	1.427529	0.497880	0.489896
C97	C	0.780465	-0.261854	-0.273725
C98	C	1.113798	0.071479	0.059608
C99	C	1.447132	0.404812	0.392942
C100	C	0.859776	-0.246477	-0.257708
C101	C	1.193109	0.086856	0.075626
C102	C	1.526443	0.420190	0.408959
C103	C	0.840173	-0.153409	-0.160753
C104	C	1.173506	0.179924	0.172580
C105	C	1.506840	0.513258	0.505914
C106	C	1.171250	-0.301260	-0.144354
C107	C	1.504583	0.032074	0.188979
C108	C	1.837917	0.365407	0.522312
C109	C	1.171278	-0.371224	-0.144356
C110	C	1.504612	-0.037890	0.188977
C111	C	1.837945	0.295443	0.522310
C112	C	1.210083	-0.388439	-0.086031
C113	C	1.543416	-0.055105	0.247302
C114	C	1.876750	0.278228	0.580635
C115	C	1.210122	-0.454176	-0.086041
C116	C	1.543455	-0.120843	0.247292
C117	C	1.876789	0.212490	0.580626
C118	C	1.171341	-0.502698	-0.144371
C119	C	1.504675	-0.169365	0.188962
C120	C	1.838008	0.163968	0.522296
C121	C	1.132535	-0.485477	-0.202706
C122	C	1.465868	-0.152144	0.130627
C123	C	1.799202	0.181189	0.463960
C124	C	1.132504	-0.419740	-0.202699
C125	C	1.465837	-0.086407	0.130634
C126	C	1.799170	0.246927	0.463968
N127	N	1.106074	-0.619573	-0.163561
N128	N	1.439407	-0.286240	0.169772
N129	N	1.772740	0.047093	0.503106
N130	N	1.106105	-0.682020	-0.163563
N131	N	1.439438	-0.348687	0.169770
N132	N	1.772771	-0.015353	0.503104
C133	C	1.171435	-0.700762	-0.144397
C134	C	1.504769	-0.367429	0.188936
C135	C	1.838102	-0.034095	0.522269
N136	N	1.236732	-0.654696	-0.125214
N137	N	1.570065	-0.321363	0.208119
N138	N	1.903398	0.011970	0.541452
N139	N	1.236699	-0.592243	-0.125209
N140	N	1.570032	-0.258910	0.208125
N141	N	1.903366	0.074423	0.541458
C142	C	1.171372	-0.573981	-0.144386
C143	C	1.504705	-0.240648	0.188948
C144	C	1.838038	0.092686	0.522281
C145	C	1.210286	-0.789256	-0.086079
C146	C	1.543619	-0.455923	0.247254
C147	C	1.876952	-0.122590	0.580587
C148	C	1.210327	-0.854996	-0.086094
C149	C	1.543660	-0.521662	0.247239
C150	C	1.876994	-0.188329	0.580572
C151	C	1.132733	-0.886296	-0.202757
C152	C	1.466066	-0.552963	0.130576
C153	C	1.799399	-0.219630	0.463910
C154	C	1.132699	-0.820557	-0.202745
C155	C	1.466032	-0.487224	0.130589
C156	C	1.799365	-0.153891	0.463922
C157	C	1.171474	-0.772041	-0.144402
C158	C	1.504807	-0.438708	0.188931
C159	C	1.838140	-0.105374	0.522265
C160	C	1.369449	-0.099346	-0.104421
C161	C	1.702782	0.233987	0.228912
C162	C	2.036116	0.567320	0.562245
C163	C	1.453863	-0.083005	-0.087395
C164	C	1.787197	0.250329	0.245938
C165	C	2.120530	0.583662	0.579272
C166	C	1.211417	-0.163082	-0.342445
C167	C	1.544750	0.170251	-0.009111
C168	C	1.878083	0.503584	0.324222
C169	C	1.228487	-0.173901	-0.426850
C170	C	1.561820	0.159432	-0.093516
C171	C	1.895154	0.492765	0.239817
C172	C	1.171491	0.026512	-0.144411
C173	C	1.504824	0.359845	0.188922
C174	C	1.838157	0.693179	0.522256
C175	C	1.171547	0.096487	-0.144426
C176	C	1.504880	0.429820	0.188908
C177	C	1.838214	0.763153	0.522241
C178	C	1.041970	-0.055212	-0.753490
C179	C	1.375304	0.278121	-0.420157
C180	C	1.708637	0.611454	-0.086824
C181	C	1.058028	-0.065388	-0.832798
C182	C	1.391361	0.267945	-0.499465
C183	C	1.724694	0.601278	-0.166131
C184	C	1.155092	-0.127100	-0.813170
C185	C	1.488425	0.206233	-0.479837
C186	C	1.821759	0.539567	-0.146503
C187	C	1.139045	-0.116926	-0.733858
C188	C	1.472378	0.216407	-0.400525
C189	C	1.805712	0.549740	-0.067192
C190	C	1.082483	-0.080983	-0.704025
C191	C	1.415816	0.252351	-0.370692
C192	C	1.749150	0.585684	-0.037359
C193	C	1.179558	-0.142697	-0.684394
C194	C	1.512891	0.190636	-0.351060
C195	C	1.846224	0.523970	-0.017727
C196	C	1.163509	-0.132527	-0.605089
C197	C	1.496843	0.200806	-0.271756
C198	C	1.830176	0.534140	0.061577
C199	C	1.106948	-0.096587	-0.575250
C200	C	1.440281	0.236747	-0.241917
C201	C	1.773615	0.570080	0.091416
C202	C	1.066434	-0.070813	-0.624721
C203	C	1.399768	0.262520	-0.291388
C204	C	1.733101	0.595854	0.041945
C205	C	1.236116	-0.178644	-0.714229
C206	C	1.569449	0.154689	-0.380896
C207	C	1.902783	0.488022	-0.047562
C208	C	1.276629	-0.204415	-0.664764
C209	C	1.609962	0.128919	-0.331431
C210	C	1.943295	0.462252	0.001903
C211	C	1.260584	-0.194241	-0.585458
C212	C	1.593918	0.139092	-0.252124
C213	C	1.927251	0.472426	0.081209
C214	C	1.204023	-0.158301	-0.555619
C215	C	1.537356	0.175033	-0.222285
C216	C	1.870690	0.508366	0.111048
C217	C	1.301098	-0.220015	-0.535987
C218	C	1.634431	0.113318	-0.202654
C219	C	1.967765	0.446652	0.130680
C220	C	1.285049	-0.209845	-0.456683
C221	C	1.618383	0.123488	-0.123349
C222	C	1.951716	0.456822	0.209984
C223	C	1.187974	-0.148131	-0.476315
C224	C	1.521308	0.185203	-0.142981
C225	C	1.854641	0.518536	0.190352
C226	C	1.131499	-0.112351	0.052930
C227	C	1.464832	0.220982	0.386263
C228	C	1.798166	0.554316	0.719597
C229	C	1.114576	-0.101326	0.137364
C230	C	1.447909	0.232007	0.470698
C231	C	1.781242	0.565340	0.804031
H232	H	0.479002	-0.166004	-0.173855
H233	H	0.812335	0.167330	0.159478
H234	H	1.145668	0.500663	0.492811
H235	H	0.995919	-0.025935	-0.729197
H236	H	1.329253	0.307398	-0.395864
H237	H	1.662586	0.640731	-0.062531
H238	H	0.716107	0.007292	0.006639
H239	H	1.049440	0.340625	0.339972
H240	H	1.382774	0.673958	0.673305
Br241	Br	1.262790	-0.477548	-0.006880
Br242	Br	1.596123	-0.144215	0.326453
Br243	Br	1.929456	0.189119	0.659787
H244	H	1.101097	-0.806541	-0.250236
H245	H	1.434430	-0.473207	0.083097
H246	H	1.767763	-0.139874	0.416431
Br247	Br	0.880694	-0.079813	-0.084099
Br248	Br	1.214027	0.253521	0.249234
Br249	Br	1.547361	0.586854	0.582567
H250	H	1.093877	-0.088312	-0.510676
H251	H	1.427210	0.245021	-0.177343
H252	H	1.760544	0.578354	0.155990
Br253	Br	0.416601	0.023927	0.024013
Br254	Br	0.749934	0.357260	0.357347
Br255	Br	1.083268	0.690593	0.690680
H256	H	1.100961	-0.524988	-0.250200
H257	H	1.434295	-0.191655	0.083133
H258	H	1.767628	0.141679	0.416467
H259	H	1.100904	-0.405725	-0.250195
H260	H	1.434237	-0.072392	0.083138
H261	H	1.767570	0.260942	0.416471
H262	H	1.241658	-0.348937	-0.038527
H263	H	1.574991	-0.015604	0.294806
H264	H	1.908325	0.317729	0.628140
H265	H	1.241861	-0.749752	-0.038575
H266	H	1.575195	-0.416419	0.294758
H267	H	1.908528	-0.083085	0.628091
H268	H	1.347145	-0.249286	-0.560291
H269	H	1.680478	0.084048	-0.226957
H270	H	2.013812	0.417381	0.106376
Br271	Br	0.494597	-0.220421	-0.230527
Br272	Br	0.827930	0.112912	0.102806
Br273	Br	1.161264	0.446246	0.436140
Br274	Br	1.111221	-0.099339	-0.435817
Br275	Br	1.444554	0.233995	-0.102483
Br276	Br	1.777888	0.567328	0.230850
Br277	Br	0.603555	0.060192	0.061758
Br278	Br	0.936888	0.393525	0.395091
Br279	Br	1.270222	0.726858	0.728424
Br280	Br	1.263005	-0.878358	-0.006938
Br281	Br	1.596338	-0.545025	0.326396
Br282	Br	1.929672	-0.211691	0.659729
H283	H	1.020384	-0.041536	-0.600428
H284	H	1.353717	0.291797	-0.267095
H285	H	1.687050	0.625131	0.066238
H286	H	1.101161	-0.925802	-0.250253
H287	H	1.434494	-0.592469	0.083080
H288	H	1.767827	-0.259136	0.416414
Br289	Br	1.003064	-0.030385	-0.899924
Br290	Br	1.336397	0.302948	-0.566591
Br291	Br	1.669730	0.636281	-0.233257
Br292	Br	1.231847	-0.175884	-0.853666
Br293	Br	1.565181	0.157450	-0.520333
Br294	Br	1.898514	0.490783	-0.187000
Br295	Br	0.926897	-0.299196	-0.312624
Br296	Br	1.260230	0.034137	0.020709
Br297	Br	1.593563	0.367470	0.354042
Br298	Br	1.340025	-0.244825	-0.389548
Br299	Br	1.673358	0.088508	-0.056214
Br300	Br	2.006691	0.421841	0.277119
H301	H	1.322679	-0.233683	-0.689066
H302	H	1.656012	0.099651	-0.355733
H303	H	1.989346	0.432984	-0.022399
Br304	Br	0.611170	-0.311982	-0.325915
Br305	Br	0.944503	0.021351	0.007418
Br306	Br	1.277837	0.354684	0.340752
Br307	Br	0.739939	-0.335454	-0.350364
Br308	Br	1.073273	-0.002121	-0.017031
Br309	Br	1.406606	0.331213	0.316302
H310	H	1.249183	-0.186921	-0.778804
H311	H	1.582516	0.146412	-0.445470
H312	H	1.915849	0.479745	-0.112137
H313	H	0.805839	-0.063200	-0.066774
H314	H	1.139172	0.270133	0.266559
H315	H	1.472506	0.603466	0.599893
