data_functionalizedCrystal
_audit_creation_method	'MofGen! by Chris Wilmer'
_symmetry_space_group_name_H-M	'P1'
_symmetry_Int_Tables_number	1
_symmetry_cell_setting	triclinic
loop_
_symmetry_equiv_pos_as_xyz
  x,y,z
_cell_length_a	15.944551
_cell_length_b	15.944551
_cell_length_c	15.021413
_cell_angle_alpha	89.996935
_cell_angle_beta	89.997174
_cell_angle_gamma	96.501262
loop_
_atom_site_label
_atom_site_type_symbol
_atom_site_fract_x
_atom_site_fract_y
_atom_site_fract_z
O1	O	1.114529	-0.108321	-0.073941
O2	O	0.869979	-0.121677	-0.073964
O3	O	0.998932	0.007276	-0.073944
O4	O	0.985576	-0.237274	-0.073961
O5	O	0.998912	0.007257	0.074121
O6	O	0.869959	-0.121695	0.074101
O7	O	1.114508	-0.108339	0.074123
Zn8	Zn	0.992230	-0.115020	0.097620
Zn9	Zn	0.992257	-0.114996	-0.097461
O10	O	0.985555	-0.237292	0.074103
C11	C	0.838675	-0.121132	0.000066
C12	C	0.745429	-0.119470	0.000057
C13	C	0.530572	-0.035565	0.000081
C14	C	0.469562	-0.074518	-0.072926
C15	C	0.574703	-0.116462	0.000068
C16	C	0.469564	-0.074556	0.073054
C17	C	0.409790	-0.113551	0.000083
C18	C	0.514921	-0.155438	-0.072998
C19	C	0.514930	-0.155464	0.073047
C20	C	0.453937	-0.194476	0.000023
C21	C	0.669705	-0.118137	0.000059
C22	C	0.314789	-0.111883	0.000085
C23	C	0.998367	0.038561	0.000089
C24	C	0.996705	0.131807	0.000089
C25	C	1.145813	-0.108885	0.000092
C26	C	1.239059	-0.110547	0.000094
C27	C	0.986120	-0.268577	0.000069
C28	C	0.987782	-0.361823	0.000063
N29	N	0.992218	-0.115036	0.230758
C30	C	0.912801	0.346663	0.000069
C31	C	0.951753	0.407672	0.073077
C32	C	0.993698	0.302533	0.000082
C33	C	0.951792	0.407673	-0.072903
C34	C	0.990787	0.467445	0.000071
C35	C	1.032672	0.362313	0.073150
C36	C	1.032700	0.362308	-0.072895
C37	C	1.071711	0.423298	0.000131
C38	C	0.995372	0.207530	0.000089
C39	C	0.989119	0.562446	0.000070
N40	N	0.992276	-0.114973	-0.230598
C41	C	0.932581	-0.174636	0.470432
C42	C	1.008481	-0.190943	0.529772
C43	C	0.992239	-0.115015	0.412365
C44	C	0.916360	-0.098727	0.529766
C45	C	0.992253	-0.114997	0.587789
C46	C	1.068178	-0.131360	0.470398
C47	C	0.976006	-0.039111	0.470387
C48	C	1.051962	-0.055386	0.529701
C49	C	0.992230	-0.115028	0.311307
C50	C	0.992271	-0.114984	0.688844
H51	H	0.535052	-0.189659	0.134767
C52	C	0.541507	-0.201170	-0.155317
C53	C	0.501720	-0.284085	-0.155402
C54	C	0.526201	-0.326238	-0.231213
H55	H	0.525622	-0.172723	-0.207159
H56	H	0.600994	-0.201978	-0.154836
H57	H	0.442247	-0.283273	-0.155892
H58	H	0.517600	-0.312555	-0.103578
H59	H	0.585687	-0.327046	-0.230731
H60	H	0.510315	-0.297784	-0.283049
H61	H	0.499215	-0.382502	-0.231276
C62	C	0.442605	-0.028923	0.155277
C63	C	0.354830	-0.028620	0.154590
C64	C	0.329970	0.013424	0.230308
H65	H	0.458815	-0.057066	0.207181
H66	H	0.469064	0.027545	0.155191
H67	H	0.328380	-0.085077	0.154684
H68	H	0.338599	-0.000472	0.102703
H69	H	0.356429	0.069892	0.230222
H70	H	0.346185	-0.014722	0.282207
H71	H	0.270414	0.013642	0.229848
H72	H	0.917528	0.427772	0.134794
C73	C	0.957826	0.046478	0.435518
C74	C	1.026202	0.081905	0.384285
C75	C	1.009479	0.160751	0.352156
H76	H	0.908377	0.039764	0.399776
H77	H	0.949563	0.082653	0.484225
H78	H	1.034455	0.045738	0.335585
H79	H	1.075659	0.088639	0.420008
H80	H	1.001216	0.196926	0.400863
H81	H	0.960028	0.154030	0.316418
H82	H	1.055872	0.184802	0.317398
H83	H	1.138919	0.456457	0.000178
H84	H	0.852184	-0.084959	0.555847
H85	H	1.066896	0.342185	-0.134615
H86	H	0.420779	-0.261683	-0.000023
C87	C	0.823252	0.302288	0.000336
C88	C	0.781273	0.325133	0.076951
C89	C	0.698786	0.284262	0.077237
H90	H	0.794129	0.318435	-0.050942
H91	H	0.824898	0.242914	-0.000146
H92	H	0.779622	0.384495	0.077425
H93	H	0.810370	0.308986	0.128241
H94	H	0.700432	0.224888	0.076755
H95	H	0.669672	0.300412	0.025956
H96	H	0.670296	0.299750	0.129223
C97	C	1.026944	-0.276517	0.564444
C98	C	1.105815	-0.293967	0.533060
C99	C	1.122839	-0.372795	0.564971
H100	H	1.027392	-0.275814	0.627674
H101	H	0.984544	-0.318860	0.544134
H102	H	1.148203	-0.251635	0.553375
H103	H	1.105387	-0.294687	0.469833
H104	H	1.080440	-0.415138	0.544661
H105	H	1.123284	-0.372085	0.628200
H106	H	1.176351	-0.384648	0.543675
H107	H	0.882181	-0.225096	0.444409
C108	C	0.575110	0.053918	-0.000143
C109	C	0.626188	0.065897	-0.075927
C110	C	0.667242	0.148309	-0.076161
H111	H	0.534349	0.092991	-0.000755
H112	H	0.609086	0.062617	0.051717
H113	H	0.592214	0.057206	-0.127773
H114	H	0.666964	0.026844	-0.075331
H115	H	0.701218	0.157009	-0.024301
H116	H	0.626475	0.187376	-0.076771
H117	H	0.701909	0.156446	-0.127575
C118	C	0.442865	-0.028981	-0.155328
C119	C	0.466992	-0.070679	-0.231591
C120	C	0.442431	-0.028742	-0.307513
H121	H	0.383325	-0.028686	-0.155137
H122	H	0.469394	0.027461	-0.155294
H123	H	0.440461	-0.127106	-0.231624
H124	H	0.526529	-0.070975	-0.231811
H125	H	0.468960	0.027700	-0.307479
H126	H	0.382891	-0.028450	-0.307313
H127	H	0.458805	-0.057024	-0.359266
H128	H	1.066851	0.342314	0.134941
C129	C	1.153678	-0.149921	0.435607
C130	C	1.152645	-0.149800	0.342405
C131	C	1.231375	-0.166938	0.310323
H132	H	1.196187	-0.107872	0.456261
H133	H	1.165269	-0.203690	0.456403
H134	H	1.141063	-0.096038	0.321618
H135	H	1.110153	-0.191849	0.321728
H136	H	1.242967	-0.220707	0.331119
H137	H	1.273878	-0.124887	0.330983
H138	H	1.230682	-0.166866	0.247083
C139	C	1.119437	0.011753	0.564144
C140	C	1.198701	-0.005691	0.533917
C141	C	1.260882	0.056128	0.565640
H142	H	1.108473	0.065568	0.542931
H143	H	1.118821	0.011695	0.627387
H144	H	1.199315	-0.005623	0.470687
H145	H	1.209692	-0.059494	0.555127
H146	H	1.260266	0.056069	0.628884
H147	H	1.249910	0.109939	0.544425
H148	H	1.314670	0.044297	0.545143
C149	C	0.906302	0.434601	-0.155234
C150	C	0.961634	0.490122	-0.205729
C151	C	0.919748	0.514950	-0.281567
H152	H	0.887557	0.386294	-0.189938
H153	H	0.859104	0.462106	-0.137717
H154	H	1.008816	0.462617	-0.223247
H155	H	0.980381	0.538442	-0.171051
H156	H	0.872551	0.542455	-0.264050
H157	H	0.901005	0.466638	-0.316263
H158	H	0.957282	0.552629	-0.315833
