data_functionalizedCrystal
_audit_creation_method	'MofGen! by Chris Wilmer'
_symmetry_space_group_name_H-M	'P1'
_symmetry_Int_Tables_number	1
_symmetry_cell_setting	triclinic
loop_
_symmetry_equiv_pos_as_xyz
  x,y,z
_cell_length_a	15.297327
_cell_length_b	12.827893
_cell_length_c	12.827885
_cell_angle_alpha	89.980538
_cell_angle_beta	99.642560
_cell_angle_gamma	99.706564
loop_
_atom_site_label
_atom_site_type_symbol
_atom_site_fract_x
_atom_site_fract_y
_atom_site_fract_z
Zn1	Zn	-0.359116	1.525604	-0.662774
Zn2	Zn	-0.510001	1.495218	-0.518254
Zn3	Zn	-0.359160	1.350836	-0.488056
Zn4	Zn	-0.509933	1.320565	-0.692940
O5	O	-0.434552	1.423056	-0.590506
O6	O	-0.379141	1.667807	-0.643616
O7	O	-0.490038	1.476017	-0.368021
O8	O	-0.232909	1.399405	-0.485970
O9	O	-0.489995	1.645483	-0.537438
O10	O	-0.232876	1.527806	-0.614334
O11	O	-0.379216	1.369940	-0.345835
O12	O	-0.379151	1.200586	-0.515222
O13	O	-0.489880	1.347812	-0.835165
O14	O	-0.489923	1.178346	-0.665749
O15	O	-0.379075	1.498453	-0.813002
O16	O	-0.636237	1.446664	-0.566689
O17	O	-0.636187	1.318347	-0.695031
C18	C	-0.434535	1.151549	-0.590483
C19	C	-0.434549	1.035393	-0.590502
C20	C	-0.489449	0.972614	-0.664907
C21	C	-0.489465	0.852560	-0.664928
C22	C	-0.668946	1.375952	-0.637433
C23	C	-0.769221	1.355896	-0.657543
C24	C	-1.051857	1.566826	-0.447130
C25	C	-0.957644	1.585669	-0.428230
C26	C	-0.910533	1.528228	-0.485557
C27	C	-0.957645	1.451940	-0.561787
C28	C	-1.051868	1.433090	-0.580683
C29	C	-0.910544	1.394491	-0.619110
C30	C	-0.957656	1.318204	-0.695340
C31	C	-1.051869	1.299357	-0.714233
C32	C	-1.098980	1.356798	-0.656906
C33	C	-0.816322	1.413342	-0.600214
C34	C	-0.816333	1.279605	-0.733766
C35	C	-0.910546	1.260762	-0.752667
C36	C	-0.199243	1.470372	-0.543419
C37	C	-0.098969	1.490535	-0.523353
C38	C	-0.434465	1.423145	-0.863059
C39	C	-0.434428	1.423183	-0.979205
C40	C	-0.434571	1.695622	-0.590530
C41	C	-0.434578	1.811774	-0.590541
C42	C	-0.379550	1.497772	-1.140057
C43	C	-0.379587	1.497735	-1.020014
C44	C	-0.434574	1.423040	-0.319001
C45	C	-0.434358	1.423255	-0.202805
H46	H	-0.387556	1.000263	-0.526821
N47	N	-0.317435	1.582254	-0.948605
H48	H	-0.326276	1.570251	-0.872974
H49	H	-0.331474	1.654082	-0.970450
N50	N	-0.765521	1.495628	-0.518007
H51	H	-0.726371	1.551866	-0.552667
H52	H	-0.726542	1.460915	-0.461736
N53	N	-0.317350	1.582315	-1.186607
H54	H	-0.280778	1.632038	-1.128240
H55	H	-0.354096	1.623258	-1.239250
H56	H	-0.481347	1.359377	-1.033116
H57	H	-0.481311	1.359433	-1.167654
H58	H	-0.777976	1.232829	-0.780445
H59	H	-0.536435	1.007746	-0.728595
H60	H	-0.387578	0.865713	-0.526833
N61	N	-0.551734	0.781112	-0.749307
H62	H	-0.542921	0.705477	-0.737360
H63	H	-0.537782	0.802971	-0.821190
N64	N	-1.102682	1.217079	-0.796453
H65	H	-1.169516	1.213854	-0.799724
H66	H	-1.086278	1.145734	-0.776837
H67	H	-0.948918	1.198648	-0.814733
H68	H	-0.919289	1.647781	-0.366163
N69	N	-0.808918	1.548546	-0.465175
H70	H	-0.786221	1.605590	-0.408187
H71	H	-0.786236	1.572227	-0.532364
N72	N	-1.102666	1.628756	-0.385288
H73	H	-1.169500	1.605231	-0.408821
H74	H	-1.086145	1.706693	-0.398289
H75	H	-1.175696	1.341463	-0.672293
