data_functionalizedCrystal
_audit_creation_method	'MofGen! by Chris Wilmer'
_symmetry_space_group_name_H-M	'P1'
_symmetry_Int_Tables_number	1
_symmetry_cell_setting	triclinic
loop_
_symmetry_equiv_pos_as_xyz
  x,y,z
_cell_length_a	15.944551
_cell_length_b	15.944551
_cell_length_c	13.930277
_cell_angle_alpha	90.005507
_cell_angle_beta	90.002726
_cell_angle_gamma	83.498738
loop_
_atom_site_label
_atom_site_type_symbol
_atom_site_fract_x
_atom_site_fract_y
_atom_site_fract_z
O1	O	1.114528	0.108331	0.079733
O2	O	0.869978	0.121688	0.079757
O3	O	0.998931	-0.007265	0.079736
O4	O	0.985575	0.237284	0.079754
O5	O	0.998913	-0.007268	-0.079926
O6	O	0.869960	0.121685	-0.079905
O7	O	1.114510	0.108329	-0.079929
Zn8	Zn	0.992232	0.115006	-0.105267
Zn9	Zn	0.992256	0.115010	0.105095
O10	O	0.985557	0.237282	-0.079908
C11	C	0.838675	0.121132	-0.000071
C12	C	0.745429	0.119470	-0.000062
C13	C	0.998367	-0.038561	-0.000095
C14	C	0.996705	-0.131807	-0.000096
C15	C	0.530572	0.035565	-0.000087
C16	C	0.469561	0.074529	0.078638
C17	C	0.574703	0.116462	-0.000074
C18	C	0.469566	0.074545	-0.078776
C19	C	0.409790	0.113551	-0.000089
C20	C	0.514920	0.155448	0.078716
C21	C	0.514931	0.155453	-0.078769
C22	C	0.453937	0.194476	-0.000025
C23	C	0.669705	0.118137	-0.000064
C24	C	0.314789	0.111883	-0.000092
C25	C	0.912801	-0.346663	-0.000074
C26	C	0.951754	-0.407682	-0.078801
C27	C	0.993698	-0.302533	-0.000088
C28	C	0.951791	-0.407663	0.078613
C29	C	0.990787	-0.467445	-0.000077
C30	C	1.032674	-0.362323	-0.078880
C31	C	1.032699	-0.362297	0.078605
C32	C	1.071711	-0.423298	-0.000141
C33	C	0.995372	-0.207530	-0.000096
C34	C	0.989119	-0.562446	-0.000076
C35	C	1.145813	0.108885	-0.000099
C36	C	1.239059	0.110547	-0.000102
C37	C	0.986120	0.268577	-0.000074
C38	C	0.987782	0.361823	-0.000068
N39	N	0.992222	0.115003	-0.248833
C40	C	0.935153	0.172088	-0.701093
C41	C	1.049381	0.057926	-0.701081
C42	C	1.049371	0.057923	-0.600585
C43	C	0.992252	0.115004	-0.550339
C44	C	0.935143	0.172089	-0.600588
C45	C	1.106485	0.000845	-0.550329
C46	C	1.106478	0.000841	-0.449827
C47	C	1.049354	0.057919	-0.399578
C48	C	0.992242	0.115005	-0.449834
C49	C	0.935123	0.172087	-0.399587
C50	C	0.878006	0.229169	-0.449840
C51	C	0.878019	0.229167	-0.550339
C52	C	1.049341	0.057922	-0.299079
C53	C	0.935113	0.172088	-0.299082
N54	N	0.992272	0.115006	0.248661
H55	H	0.563905	-0.031573	0.000005
C56	C	1.157208	-0.049845	-0.704383
C57	C	1.169267	-0.061895	-0.605560
H58	H	1.195965	-0.088585	-0.738481
H59	H	1.166330	0.006215	-0.720840
H60	H	1.101150	-0.059007	-0.720848
H61	H	1.225324	-0.052727	-0.589093
H62	H	1.160151	-0.117968	-0.589096
C63	C	0.732617	0.278392	-0.581321
C64	C	0.815243	0.291907	-0.605584
H65	H	0.693865	0.317122	-0.615436
H66	H	0.724435	0.286569	-0.514286
H67	H	0.723512	0.222322	-0.597801
H68	H	0.824350	0.347975	-0.589097
H69	H	0.823429	0.283737	-0.672634
H70	H	0.420779	0.261683	0.000024
C71	C	1.124451	-0.113635	-0.337087
C72	C	1.169156	-0.062093	-0.394711
H73	H	1.163117	-0.152541	-0.303092
H74	H	1.089394	-0.143675	-0.376391
H75	H	1.090532	-0.079643	-0.292686
H76	H	1.203071	-0.096085	-0.439117
H77	H	1.204227	-0.032052	-0.355404
C78	C	0.822405	-0.395695	0.168311
C79	C	0.905599	-0.434775	0.168465
H80	H	0.793888	-0.412427	0.223782
H81	H	0.794216	-0.412001	0.112421
H82	H	0.822693	-0.336151	0.168641
H83	H	0.905311	-0.494320	0.168128
H84	H	0.933795	-0.418474	0.224370
C85	C	0.789748	0.221310	-0.732049
C86	C	0.872370	0.234827	-0.756329
H87	H	0.750990	0.260039	-0.766156
H88	H	0.781577	0.229485	-0.665013
H89	H	0.780643	0.165239	-0.748528
H90	H	0.881478	0.290896	-0.739843
H91	H	0.880545	0.226659	-0.823380
H92	H	1.095849	0.011450	-0.258168
H93	H	0.449458	0.040314	0.145189
H94	H	1.138919	-0.456457	-0.000192
H95	H	1.066893	-0.342166	0.145159
H96	H	0.449472	0.040313	-0.145330
H97	H	0.845652	-0.313356	-0.000146
C98	C	0.947120	-0.410829	-0.251035
C99	C	0.905558	-0.434838	-0.168641
H100	H	0.918592	-0.427588	-0.306494
H101	H	1.003555	-0.437330	-0.251120
H102	H	0.947384	-0.351282	-0.251375
H103	H	0.905299	-0.494385	-0.168297
H104	H	0.849108	-0.408339	-0.168556
C105	C	0.581706	0.271664	0.140929
C106	C	0.541907	0.201600	0.168668
H107	H	0.598371	0.300149	0.196463
H108	H	0.543666	0.308943	0.104143
H109	H	0.630081	0.253413	0.103381
H110	H	0.493527	0.219851	0.206211
H111	H	0.579949	0.164315	0.205470
C112	C	0.519485	0.159114	-0.250975
C113	C	0.542113	0.201601	-0.168612
H114	H	0.536274	0.187597	-0.306445
H115	H	0.460063	0.157953	-0.251943
H116	H	0.546785	0.102980	-0.250403
H117	H	0.514807	0.257733	-0.169181
H118	H	0.601545	0.202771	-0.167644
C119	C	1.079912	-0.247660	-0.168046
C120	C	1.078811	-0.335345	-0.168834
H121	H	1.108388	-0.231006	-0.223583
H122	H	1.108462	-0.231770	-0.112223
H123	H	1.023628	-0.220739	-0.167812
H124	H	1.135095	-0.362267	-0.169060
H125	H	1.050263	-0.351244	-0.224671
C126	C	0.822202	0.284936	-0.309189
C127	C	0.872326	0.234837	-0.243854
H128	H	0.783445	0.323678	-0.275092
H129	H	0.791994	0.249949	-0.348390
H130	H	0.857176	0.315169	-0.348384
H131	H	0.837353	0.204599	-0.204664
H132	H	0.902537	0.269828	-0.204637
H133	H	0.831503	0.275649	-0.408918
H134	H	1.095890	0.011455	-0.741995
