data_functionalizedCrystal
_audit_creation_method	'MofGen! by Chris Wilmer'
_symmetry_space_group_name_H-M	'P1'
_symmetry_Int_Tables_number	1
_symmetry_cell_setting	triclinic
loop_
_symmetry_equiv_pos_as_xyz
  x,y,z
_cell_length_a	10.654558
_cell_length_b	12.837943
_cell_length_c	11.892095
_cell_angle_alpha	94.316318
_cell_angle_beta	93.927822
_cell_angle_gamma	90.341417
loop_
_atom_site_label
_atom_site_type_symbol
_atom_site_fract_x
_atom_site_fract_y
_atom_site_fract_z
O1	O	0.333976	-1.371218	0.093980
O2	O	0.317836	-1.069296	0.093986
O3	O	0.143924	-1.227195	0.093978
O4	O	0.507888	-1.213319	0.093988
O5	O	0.129461	-1.240370	-0.094030
O6	O	0.303373	-1.082471	-0.094022
O7	O	0.319514	-1.384393	-0.094029
Zn8	Zn	0.309147	-1.235524	-0.123876
Zn9	Zn	0.328202	-1.218165	0.123833
O10	O	0.493425	-1.226494	-0.094020
C11	C	0.305152	-1.037223	-0.000017
C12	C	0.288890	-0.922029	-0.000014
N13	N	0.341198	-1.206319	0.292888
C14	C	0.089784	-1.232762	-0.000025
C15	C	-0.049992	-1.229708	-0.000021
C16	C	-0.123546	-1.235453	-0.102503
C17	C	-0.254880	-1.232593	-0.102498
C18	C	-0.239094	-1.218238	0.102479
C19	C	-0.107763	-1.221105	0.102473
C20	C	-0.065775	-1.244056	-0.204997
C21	C	-0.139329	-1.249800	-0.307487
C22	C	-0.270664	-1.246940	-0.307482
C23	C	-0.328444	-1.238335	-0.204988
C24	C	0.547566	-1.220927	-0.000015
C25	C	0.687342	-1.223980	-0.000011
C26	C	0.332198	-1.416465	-0.000023
C27	C	0.348461	-1.531659	-0.000018
C28	C	0.484393	-0.682481	-0.000025
C29	C	0.469119	-0.574245	-0.000023
C30	C	0.243068	-0.597319	-0.000018
C31	C	0.258342	-0.705555	-0.000019
C32	C	0.379009	-0.748132	-0.000021
C33	C	0.394282	-0.856369	-0.000015
C34	C	0.168232	-0.879441	-0.000017
C35	C	0.152958	-0.771205	-0.000015
N36	N	0.296142	-1.247378	-0.292930
C37	C	0.205718	-1.329869	0.529529
C38	C	0.214792	-1.321581	0.647872
C39	C	0.368427	-1.181461	0.647917
C40	C	0.359352	-1.189749	0.529575
C41	C	0.277994	-1.263954	0.470385
C42	C	0.268914	-1.272236	0.352041
C43	C	0.422555	-1.132122	0.352088
C44	C	0.431629	-1.123834	0.470431
H45	H	0.041163	-1.246381	-0.205012
H46	H	-0.330549	-1.251627	-0.390934
N47	N	0.112936	-0.551374	-0.000040
H48	H	0.106923	-0.502087	0.069648
H49	H	0.048554	-0.609439	-0.000085
N50	N	0.456172	-1.101432	0.711767
H51	H	0.545271	-1.115315	0.691192
H52	H	0.450845	-1.106231	0.795689
N53	N	0.117975	-1.409903	0.465684
H54	H	0.123195	-1.405151	0.381740
H55	H	0.028920	-1.395974	0.486348
N56	N	-0.077020	-1.259097	-0.418030
H57	H	0.017340	-1.260038	-0.402485
H58	H	-0.100930	-1.197531	-0.462784
N59	N	0.181178	-1.352278	0.288200
H60	H	0.186393	-1.347528	0.204255
H61	H	0.092122	-1.338359	0.308866
H62	H	0.582644	-0.717148	-0.000025
N63	N	0.519377	-1.043803	0.534273
H64	H	0.514161	-1.048553	0.618218
H65	H	0.494231	-0.971589	0.513588
H66	H	0.492535	-0.891033	-0.000018
H67	H	0.481403	-1.078446	0.303920
N68	N	0.022822	-0.725269	-0.000023
H69	H	0.016813	-0.675988	0.069670
H70	H	-0.041550	-0.783342	-0.000063
H71	H	0.082420	-0.932906	-0.000006
N72	N	-0.470097	-1.235264	-0.204979
H73	H	-0.507930	-1.240215	-0.285454
H74	H	-0.496042	-1.167551	-0.164685
H75	H	-0.047873	-1.216427	0.185922
H76	H	-0.286149	-1.211230	0.185925
H77	H	0.155939	-1.375257	0.696024
H78	H	0.554934	-0.520796	-0.000030
