data_functionalizedCrystal
_audit_creation_method	'MofGen! by Chris Wilmer'
_symmetry_space_group_name_H-M	'P1'
_symmetry_Int_Tables_number	1
_symmetry_cell_setting	triclinic
loop_
_symmetry_equiv_pos_as_xyz
  x,y,z
_cell_length_a	13.897448
_cell_length_b	11.169417
_cell_length_c	13.897433
_cell_angle_alpha	90.046319
_cell_angle_beta	90.068930
_cell_angle_gamma	90.020447
loop_
_atom_site_label
_atom_site_type_symbol
_atom_site_fract_x
_atom_site_fract_y
_atom_site_fract_z
Zn1	Zn	0.383572	-1.835199	-0.545343
Zn2	Zn	0.633572	-1.585199	-0.295343
Zn3	Zn	0.883572	-1.335199	-0.045343
Zn4	Zn	1.133572	-1.085199	0.204657
Zn5	Zn	0.545009	-1.834963	-0.384051
Zn6	Zn	0.795009	-1.584963	-0.134051
Zn7	Zn	1.045009	-1.334963	0.115949
Zn8	Zn	1.295009	-1.084963	0.365949
Zn9	Zn	0.383732	-1.634392	-0.384067
Zn10	Zn	0.633732	-1.384392	-0.134067
Zn11	Zn	0.883732	-1.134392	0.115933
Zn12	Zn	1.133732	-0.884392	0.365933
Zn13	Zn	0.544829	-1.634460	-0.545310
Zn14	Zn	0.794829	-1.384460	-0.295310
Zn15	Zn	1.044829	-1.134460	-0.045310
Zn16	Zn	1.294829	-0.884460	0.204690
O17	O	0.464286	-1.734754	-0.464693
O18	O	0.714286	-1.484754	-0.214693
O19	O	0.964286	-1.234754	0.035307
O20	O	1.214286	-0.984754	0.285307
O21	O	0.404995	-2.003118	-0.523954
O22	O	0.654995	-1.753118	-0.273954
O23	O	0.904995	-1.503118	-0.023954
O24	O	1.154995	-1.253118	0.226046
O25	O	0.523757	-1.808230	-0.249072
O26	O	0.773757	-1.558230	0.000928
O27	O	1.023757	-1.308230	0.250928
O28	O	1.273757	-1.058230	0.500928
O29	O	0.248729	-1.661100	-0.405481
O30	O	0.498729	-1.411100	-0.155481
O31	O	0.748729	-1.161100	0.094519
O32	O	0.998729	-0.911100	0.344519
O33	O	0.523602	-2.002944	-0.405454
O34	O	0.773602	-1.752944	-0.155454
O35	O	1.023602	-1.502944	0.094546
O36	O	1.273602	-1.252944	0.344546
O37	O	0.248612	-1.808632	-0.523970
O38	O	0.498612	-1.558632	-0.273970
O39	O	0.748612	-1.308632	-0.023970
O40	O	0.998612	-1.058632	0.226030
O41	O	0.405268	-1.660871	-0.249083
O42	O	0.655268	-1.410871	0.000917
O43	O	0.905268	-1.160871	0.250917
O44	O	1.155268	-0.910871	0.500917
O45	O	0.405094	-1.466452	-0.405449
O46	O	0.655094	-1.216452	-0.155449
O47	O	0.905094	-0.966452	0.094551
O48	O	1.155094	-0.716452	0.344551
O49	O	0.523296	-1.661216	-0.680297
O50	O	0.773296	-1.411216	-0.430297
O51	O	1.023296	-1.161216	-0.180297
O52	O	1.273296	-0.911216	0.069703
O53	O	0.523451	-1.466502	-0.523914
O54	O	0.773451	-1.216502	-0.273914
O55	O	1.023451	-0.966502	-0.023914
O56	O	1.273451	-0.716502	0.226086
O57	O	0.404821	-1.808698	-0.680321
O58	O	0.654821	-1.558698	-0.430321
O59	O	0.904821	-1.308698	-0.180321
O60	O	1.154821	-1.058698	0.069679
O61	O	0.679967	-1.808296	-0.405422
O62	O	0.929967	-1.558296	-0.155422
O63	O	1.179967	-1.308296	0.094578
O64	O	1.429967	-1.058296	0.344578
O65	O	0.679835	-1.660987	-0.523899
O66	O	0.929835	-1.410987	-0.273899
O67	O	1.179835	-1.160987	-0.023899
O68	O	1.429835	-0.910987	0.226101
C69	C	0.714900	-1.734656	-0.464676
C70	C	0.964900	-1.484656	-0.214676
C71	C	1.214900	-1.234656	0.035324
C72	C	1.464900	-0.984656	0.285324
C73	C	0.822114	-1.734724	-0.464702
C74	C	1.072114	-1.484724	-0.214702
C75	C	1.322114	-1.234724	0.035298
C76	C	1.572114	-0.984724	0.285298
C77	C	0.464271	-1.422929	-0.464681
C78	C	0.714271	-1.172929	-0.214681
C79	C	0.964271	-0.922929	0.035319
C80	C	1.214271	-0.672929	0.285319
C81	C	0.464288	-1.289529	-0.464698
C82	C	0.714288	-1.039529	-0.214698
C83	C	0.964288	-0.789529	0.035302
C84	C	1.214288	-0.539529	0.285302
C85	C	0.464021	-1.734991	-0.716286
C86	C	0.714021	-1.484991	-0.466286
C87	C	0.964021	-1.234991	-0.216286
C88	C	1.214021	-0.984991	0.033714
C89	C	0.463908	-1.735092	-0.823501
C90	C	0.713908	-1.485092	-0.573501
C91	C	0.963908	-1.235092	-0.323501
C92	C	1.213908	-0.985092	-0.073501
C93	C	1.018409	-1.734842	-0.464771
C94	C	1.268409	-1.484842	-0.214771
C95	C	1.518409	-1.234842	0.035229
C96	C	1.768409	-0.984842	0.285229
C97	C	0.909176	-1.734773	-0.464735
C98	C	1.159176	-1.484773	-0.214735
C99	C	1.409176	-1.234773	0.035265
C100	C	1.659176	-0.984773	0.285265
C101	C	1.212692	-1.734875	-0.464742
C102	C	1.462692	-1.484875	-0.214742
C103	C	1.712692	-1.234875	0.035258
C104	C	1.962692	-0.984875	0.285258
C105	C	1.105479	-1.734900	-0.464792
C106	C	1.355479	-1.484900	-0.214792
C107	C	1.605479	-1.234900	0.035208
C108	C	1.855479	-0.984900	0.285208
C109	C	0.464301	-2.047796	-0.464706
C110	C	0.714301	-1.797796	-0.214706
C111	C	0.964301	-1.547796	0.035294
C112	C	1.214301	-1.297796	0.285294
C113	C	0.464307	-2.181196	-0.464712
C114	C	0.714307	-1.931196	-0.214712
C115	C	0.964307	-1.681196	0.035288
C116	C	1.214307	-1.431196	0.285288
C117	C	0.464480	-1.734587	-0.214078
C118	C	0.714480	-1.484587	0.035922
C119	C	0.964480	-1.234587	0.285922
C120	C	1.214480	-0.984587	0.535922
C121	C	0.464321	-1.734718	-0.106865
C122	C	0.714321	-1.484718	0.143135
C123	C	0.964321	-1.234718	0.393135
C124	C	1.214321	-0.984718	0.643135
C125	C	0.464038	-1.734985	0.089430
C126	C	0.714038	-1.484985	0.339430
C127	C	0.964038	-1.234985	0.589430
C128	C	1.214038	-0.984985	0.839430
C129	C	0.464198	-1.734841	-0.019802
C130	C	0.714198	-1.484841	0.230198
C131	C	0.964198	-1.234841	0.480198
C132	C	1.214198	-0.984841	0.730198
