data_functionalizedCrystal
_audit_creation_method	'MofGen! by Chris Wilmer'
_symmetry_space_group_name_H-M	'P1'
_symmetry_Int_Tables_number	1
_symmetry_cell_setting	triclinic
loop_
_symmetry_equiv_pos_as_xyz
  x,y,z
_cell_length_a	14.519709
_cell_length_b	14.519731
_cell_length_c	14.185569
_cell_angle_alpha	76.818244
_cell_angle_beta	103.184626
_cell_angle_gamma	83.684499
loop_
_atom_site_label
_atom_site_type_symbol
_atom_site_fract_x
_atom_site_fract_y
_atom_site_fract_z
O1	O	1.203024	0.141733	-0.083293
O2	O	1.536358	0.475066	0.250041
O3	O	1.869691	0.808400	0.583374
O4	O	0.934541	0.155977	-0.083324
O5	O	1.267874	0.489311	0.250010
O6	O	1.601208	0.822644	0.583343
O7	O	1.075893	0.014616	-0.083298
O8	O	1.409226	0.347949	0.250035
O9	O	1.742560	0.681282	0.583369
O10	O	1.061672	0.283095	-0.083318
O11	O	1.395005	0.616428	0.250015
O12	O	1.728339	0.949762	0.583349
O13	O	1.117650	-0.027139	0.083544
O14	O	1.450983	0.306194	0.416877
O15	O	1.784316	0.639527	0.750211
O16	O	0.976298	0.114222	0.083518
O17	O	1.309631	0.447556	0.416852
O18	O	1.642964	0.780889	0.750185
O19	O	1.244781	0.099978	0.083549
O20	O	1.578114	0.433312	0.416883
O21	O	1.911448	0.766645	0.750216
Cu22	Cu	1.114352	0.103288	0.098768
Cu23	Cu	1.447685	0.436621	0.432101
Cu24	Cu	1.781019	0.769954	0.765435
Cu25	Cu	1.064970	0.152668	-0.098542
Cu26	Cu	1.398303	0.486001	0.234791
Cu27	Cu	1.731637	0.819334	0.568125
O28	O	1.103429	0.241340	0.083524
O29	O	1.436762	0.574673	0.416857
O30	O	1.770095	0.908007	0.750191
C31	C	1.096105	-0.040621	0.000123
C32	C	1.429439	0.292712	0.333456
C33	C	1.762772	0.626045	0.666790
C34	C	1.094109	-0.143002	0.000123
C35	C	1.427443	0.190332	0.333457
C36	C	1.760776	0.523665	0.666790
C37	C	0.921058	0.134437	0.000094
C38	C	1.254392	0.467771	0.333427
C39	C	1.587725	0.801104	0.666760
C40	C	0.818674	0.132452	0.000082
C41	C	1.152007	0.465785	0.333415
C42	C	1.485341	0.799119	0.666749
C43	C	1.092487	-0.226145	0.000121
C44	C	1.425820	0.107188	0.333454
C45	C	1.759154	0.440521	0.666788
C46	C	1.090458	-0.330452	0.000113
C47	C	1.423792	0.002881	0.333446
C48	C	1.757125	0.336215	0.666780
C49	C	1.088848	-0.413589	0.000106
C50	C	1.422182	-0.080256	0.333440
C51	C	1.755515	0.253077	0.666773
C52	C	1.086820	-0.517903	0.000100
C53	C	1.420154	-0.184570	0.333434
C54	C	1.753487	0.148763	0.666767
C55	C	0.443789	0.125121	0.000128
C56	C	0.777123	0.458454	0.333462
C57	C	1.110456	0.791788	0.666795
C58	C	0.548094	0.127157	0.000115
C59	C	0.881427	0.460490	0.333448
C60	C	1.214761	0.793824	0.666782
C61	C	0.631228	0.128787	0.000104
C62	C	0.964562	0.462120	0.333438
C63	C	1.297895	0.795453	0.666771
C64	C	0.735540	0.130822	0.000093
C65	C	1.068873	0.464156	0.333426
C66	C	1.402207	0.797489	0.666760
C67	C	1.258263	0.121519	0.000130
C68	C	1.591596	0.454852	0.333463
C69	C	1.924930	0.788185	0.666797
C70	C	1.360646	0.123506	0.000135
C71	C	1.693979	0.456839	0.333468
C72	C	2.027312	0.790172	0.666802
C73	C	1.083216	0.296577	0.000101
C74	C	1.416549	0.629911	0.333434
C75	C	1.749883	0.963244	0.666767
C76	C	1.085210	0.398959	0.000094
C77	C	1.418544	0.732293	0.333427
C78	C	1.751877	1.065626	0.666760
N79	N	1.149091	0.068556	0.237545
N80	N	1.482425	0.401889	0.570879
N81	N	1.815758	0.735223	0.904212
N82	N	1.030238	0.187392	-0.237319
N83	N	1.363571	0.520726	0.096014
N84	N	1.696904	0.854059	0.429347
C85	C	0.928173	0.289394	0.605155
C86	C	1.261506	0.622728	0.938489
C87	C	1.594840	0.956061	1.271822
C88	C	0.954494	0.263092	0.710182
C89	C	1.287827	0.596425	1.043515
C90	C	1.621161	0.929758	1.376848
C91	C	1.079687	0.137963	0.710165
C92	C	1.413020	0.471296	1.043499
C93	C	1.746354	0.804629	1.376832
C94	C	1.053373	0.164252	0.605137
C95	C	1.386707	0.497585	0.938470
C96	C	1.720040	0.830918	1.271804
C97	C	0.977616	0.239969	0.552640
C98	C	1.310950	0.573302	0.885974
C99	C	1.644283	0.906636	1.219307
C100	C	1.102817	0.114826	0.552622
C101	C	1.436150	0.448160	0.885955
C102	C	1.769484	0.781493	1.219288
C103	C	1.076508	0.141117	0.447602
C104	C	1.409842	0.474450	0.780936
C105	C	1.743175	0.807784	1.114269
C106	C	1.000756	0.216833	0.395098
C107	C	1.334090	0.550166	0.728432
C108	C	1.667423	0.883500	1.061765
C109	C	0.951308	0.266260	0.447621
C110	C	1.284641	0.599593	0.780954
C111	C	1.617975	0.932926	1.114288
C112	C	1.178578	0.039114	0.605120
C113	C	1.511911	0.372447	0.938453
C114	C	1.845245	0.705781	1.271787
C115	C	1.228021	-0.010311	0.552605
C116	C	1.561355	0.323022	0.885938
C117	C	1.894688	0.656355	1.219272
C118	C	1.201709	0.015975	0.447584
C119	C	1.535042	0.349308	0.780917
C120	C	1.868375	0.682641	1.114250
C121	C	1.125957	0.091691	0.395080
C122	C	1.459290	0.425024	0.728413
C123	C	1.792623	0.758357	1.061746
C124	C	1.251157	-0.033452	0.395061
C125	C	1.584490	0.299881	0.728394
C126	C	1.917824	0.633215	1.061728
C127	C	1.224848	-0.007161	0.290042
C128	C	1.558182	0.326172	0.623375
C129	C	1.891515	0.659505	0.956709
C130	C	1.099648	0.117981	0.290061
C131	C	1.432981	0.451315	0.623394
C132	C	1.766315	0.784648	0.956727
H133	H	1.037953	0.179631	0.247316
H134	H	1.371286	0.512965	0.580649
H135	H	1.704619	0.846298	0.913982
Cl136	Cl	1.287011	-0.069296	0.224021
Cl137	Cl	1.620344	0.264037	0.557354
Cl138	Cl	1.953678	0.597371	0.890688
Cl139	Cl	0.967686	0.249889	0.263072
Cl140	Cl	1.301019	0.583222	0.596406
Cl141	Cl	1.634352	0.916556	0.929739
Cl142	Cl	0.856058	0.361440	0.381621
Cl143	Cl	1.189392	0.694774	0.714955
Cl144	Cl	1.522725	1.028107	1.048288
H145	H	1.289706	-0.071959	0.595360
H146	H	1.623039	0.261374	0.928693
H147	H	1.956373	0.594707	1.262026
H148	H	1.312845	-0.095096	0.437818
H149	H	1.646178	0.238238	0.771151
H150	H	1.979512	0.571571	1.104484
H151	H	0.866478	0.351044	0.562411
H152	H	1.199811	0.684378	0.895744
H153	H	1.533144	1.017711	1.229077
Cl154	Cl	1.174924	0.042780	0.776168
Cl155	Cl	1.508257	0.376113	1.109501
Cl156	Cl	1.841590	0.709447	1.442835
Cl157	Cl	0.892327	0.325241	0.776194
Cl158	Cl	1.225660	0.658574	1.109527
Cl159	Cl	1.558993	0.991907	1.442860
H160	H	1.199998	0.017714	0.690634
H161	H	1.533332	0.351047	1.023967
H162	H	1.866665	0.684381	1.357300
