data_functionalizedCrystal
_audit_creation_method	'MofGen! by Chris Wilmer'
_symmetry_space_group_name_H-M	'P1'
_symmetry_Int_Tables_number	1
_symmetry_cell_setting	triclinic
loop_
_symmetry_equiv_pos_as_xyz
  x,y,z
_cell_length_a	27.731994
_cell_length_b	11.792241
_cell_length_c	10.868271
_cell_angle_alpha	89.998441
_cell_angle_beta	89.998228
_cell_angle_gamma	96.593025
loop_
_atom_site_label
_atom_site_type_symbol
_atom_site_fract_x
_atom_site_fract_y
_atom_site_fract_z
O1	O	0.641726	-0.134741	0.102148
O2	O	0.501049	-0.155339	0.102188
O3	O	0.574801	0.020241	0.102158
O4	O	0.567974	-0.310321	0.102178
O5	O	0.574795	0.020235	-0.102486
O6	O	0.501042	-0.155344	-0.102456
O7	O	0.641720	-0.134747	-0.102497
Zn8	Zn	0.571380	-0.145047	-0.134968
Zn9	Zn	0.571389	-0.145039	0.134660
O10	O	0.567967	-0.310327	-0.102467
C11	C	0.483035	-0.154919	-0.000129
C12	C	0.429372	-0.153645	-0.000113
C13	C	0.096603	-0.145629	-0.111713
C14	C	-0.105083	-0.140789	-0.111727
O15	O	-0.131163	-0.140117	-0.206598
N16	N	-0.130298	-0.140184	-0.000176
C17	C	-0.105087	-0.140783	0.111388
O18	O	-0.131161	-0.140146	0.206269
C19	C	0.096598	-0.145615	0.111401
C20	C	0.121810	-0.146231	-0.000158
C21	C	0.121815	-0.146244	-0.223263
C22	C	0.172233	-0.147460	-0.223258
C23	C	0.197439	-0.148062	-0.111704
C24	C	0.172228	-0.147447	-0.000154
C25	C	0.121808	-0.146205	0.222962
C26	C	0.172233	-0.147410	0.222956
C27	C	0.197444	-0.148026	0.111397
C28	C	0.247853	-0.149265	0.111406
N29	N	0.273067	-0.149869	-0.000146
C30	C	0.247861	-0.149267	-0.111701
C31	C	-0.210975	-0.138248	0.111373
C32	C	-0.261397	-0.137042	0.111370
C33	C	-0.261389	-0.137046	-0.111745
C34	C	-0.210967	-0.138260	-0.111741
C35	C	-0.185761	-0.138852	-0.000179
C36	C	0.353743	-0.151823	-0.111682
C37	C	0.404165	-0.153044	-0.111668
C38	C	0.404153	-0.153034	0.111447
C39	C	0.353735	-0.151819	0.111433
C40	C	0.328531	-0.151209	-0.000142
O41	O	0.273964	-0.149925	0.206226
O42	O	0.273945	-0.149879	-0.206568
C43	C	0.046185	-0.144413	-0.111718
C44	C	0.020973	-0.143798	-0.000168
C45	C	0.046180	-0.144400	0.111387
C46	C	-0.029448	-0.142592	-0.000171
C47	C	-0.054655	-0.141991	-0.111725
C48	C	-0.029440	-0.142595	-0.223277
C49	C	0.020978	-0.143811	-0.223272
C50	C	0.020965	-0.143796	0.222938
C51	C	-0.029453	-0.142581	0.222925
C52	C	-0.054660	-0.141979	0.111370
C53	C	0.574369	0.062515	-0.000163
C54	C	0.573085	0.188487	-0.000162
C55	C	0.659733	-0.135167	-0.000177
C56	C	0.713397	-0.136440	-0.000185
C57	C	0.568399	-0.352601	-0.000142
C58	C	0.569683	-0.478573	-0.000136
N59	N	0.571377	-0.145051	-0.318982
C60	C	0.570725	0.419123	-0.000141
C61	C	0.572036	0.290780	-0.000152
C62	C	0.571381	-0.145051	-0.430320
C63	C	0.571387	-0.145041	-0.569998
N64	N	0.571395	-0.145026	0.318674
H65	H	0.101290	-0.145702	0.313806
H66	H	0.192753	-0.147893	0.313806
C67	C	-0.183239	-0.138926	-0.234463
N68	N	-0.162356	-0.139424	-0.326903
H69	H	-0.281921	-0.136559	-0.202578
H70	H	0.424690	-0.153549	-0.202517
H71	H	0.192756	-0.147954	-0.314101
C72	C	0.326001	-0.151154	0.234153
N73	N	0.305115	-0.150644	0.326588
H74	H	0.041501	-0.144312	-0.314115
H75	H	0.101297	-0.145751	-0.314109
C76	C	-0.289124	-0.136374	0.234094
N77	N	-0.310006	-0.135862	0.326533
C78	C	-0.183255	-0.138899	0.234109
N79	N	-0.162378	-0.139391	0.326555
H80	H	0.041484	-0.144282	0.313782
H81	H	0.333227	-0.151337	-0.202537
C82	C	0.431890	-0.153688	0.234151
N83	N	0.452784	-0.154170	0.326572
C84	C	-0.057177	-0.141930	-0.345988
N85	N	-0.078070	-0.141422	-0.438408
H86	H	-0.049976	-0.142089	0.313776
