data_functionalizedCrystal
_audit_creation_method	'MofGen! by Chris Wilmer'
_symmetry_space_group_name_H-M	'P1'
_symmetry_Int_Tables_number	1
_symmetry_cell_setting	triclinic
loop_
_symmetry_equiv_pos_as_xyz
  x,y,z
_cell_length_a	17.638686
_cell_length_b	17.639306
_cell_length_c	17.077402
_cell_angle_alpha	78.816020
_cell_angle_beta	101.210514
_cell_angle_gamma	70.370034
loop_
_atom_site_label
_atom_site_type_symbol
_atom_site_fract_x
_atom_site_fract_y
_atom_site_fract_z
Zn1	Zn	1.353912	-0.720090	0.729354
Zn2	Zn	1.325975	-0.582279	0.827341
Zn3	Zn	1.188275	-0.554511	0.662827
Zn4	Zn	1.216068	-0.692229	0.827268
O5	O	1.271058	-0.637277	0.761697
O6	O	1.465523	-0.725090	0.770224
O7	O	1.284386	-0.463285	0.777707
O8	O	1.210307	-0.576513	0.561825
O9	O	1.444998	-0.623841	0.842215
O10	O	1.332001	-0.698164	0.610702
O11	O	1.183218	-0.442884	0.656839
O12	O	1.076645	-0.549498	0.656768
O13	O	1.257676	-0.811235	0.842090
O14	O	1.097064	-0.650680	0.777582
O15	O	1.358950	-0.831704	0.770153
O16	O	1.311335	-0.596826	0.937158
O17	O	1.230587	-0.677606	0.937104
C18	C	1.056954	-0.594053	0.709948
C19	C	0.965364	-0.575581	0.687834
C20	C	0.717316	-0.777814	0.929922
C21	C	0.631249	-0.760436	0.909130
C22	C	0.609986	-0.655239	0.783210
C23	C	0.696053	-0.672605	0.803994
C24	C	0.749712	-0.733894	0.877350
C25	C	0.728448	-0.628685	0.751422
C26	C	0.814508	-0.646053	0.772202
C27	C	0.868172	-0.707341	0.845554
C28	C	0.835771	-0.751262	0.898130
C29	C	0.674788	-0.567401	0.678063
C30	C	0.707184	-0.523481	0.625491
C31	C	0.793244	-0.540845	0.646273
C32	C	0.846909	-0.602133	0.719625
C33	C	0.825645	-0.496924	0.593697
C34	C	0.911705	-0.514292	0.614477
C35	C	0.932968	-0.619501	0.740405
C36	C	1.314530	-0.852204	0.813534
C37	C	1.333055	-0.943793	0.835624
C38	C	1.130644	-1.191938	0.593668
C39	C	1.148070	-1.278003	0.614446
C40	C	1.253405	-1.299225	0.740293
C41	C	1.235991	-1.213160	0.719523
C42	C	1.174609	-1.159523	0.646211
C43	C	1.279956	-1.180745	0.772066
C44	C	1.262540	-1.094687	0.751300
C45	C	1.201159	-1.041044	0.677992
C46	C	1.157193	-1.073465	0.625445
C47	C	1.341334	-1.234383	0.845381
C48	C	1.385298	-1.201968	0.897924
C49	C	1.367887	-1.115910	0.877155
C50	C	1.306506	-1.062266	0.803847
C51	C	1.411853	-1.083489	0.929702
C52	C	1.394437	-0.997431	0.908937
C53	C	1.289090	-0.976208	0.783082
C54	C	1.485997	-0.680671	0.813649
C55	C	1.577591	-0.699162	0.835788
C56	C	1.270971	-0.637228	0.965618
C57	C	1.271015	-0.637250	1.052881
C58	C	1.227802	-0.423196	0.710017
C59	C	1.209437	-0.331639	0.687745
C60	C	1.271170	-0.637349	0.556990
C61	C	1.271218	-0.637379	0.469756
C62	C	1.313127	-0.595255	1.093900
C63	C	1.313171	-0.595285	1.175895
C64	C	1.271099	-0.637304	1.216868
C65	C	1.228987	-0.679304	1.175844
C66	C	1.228948	-0.679279	1.093852
C67	C	1.229069	-0.679351	1.346740
C68	C	1.229107	-0.679374	1.428737
C69	C	1.313293	-0.595356	1.428783
C70	C	1.313254	-0.595331	1.346791
C71	C	1.271140	-0.637330	1.305773
H72	H	0.566286	-0.605340	0.723482
H73	H	1.430249	-0.971041	0.951714
H74	H	1.347587	-0.561162	1.462186
Cl75	Cl	1.092818	-1.318755	0.548366
Cl76	Cl	0.566598	-0.545570	0.651938
Cl77	Cl	0.952434	-0.459078	0.548386
Cl78	Cl	1.366145	-0.542506	1.295283
H79	H	1.194735	-0.713521	1.209213
H80	H	1.194658	-0.713477	1.060456
H81	H	1.347462	-0.561087	1.209289
H82	H	0.938248	-0.721486	0.862468
H83	H	1.186974	-0.970969	0.661090
Cl84	Cl	0.903233	-0.828304	0.990358
Cl85	Cl	1.330565	-1.366661	0.832456
Cl86	Cl	1.080034	-1.006030	0.533272
Cl87	Cl	0.639721	-0.446439	0.533273
Cl88	Cl	0.784778	-0.854856	1.022150
Cl89	Cl	0.590528	-0.815659	0.975228
Cl90	Cl	1.363230	-1.342573	0.871485
H91	H	1.435273	-1.245651	0.957617
H92	H	1.461824	-1.127172	0.989398
H93	H	1.347382	-0.561034	1.060544
H94	H	1.194867	-0.713608	1.462102
Cl95	Cl	1.053485	-1.124503	0.501496
Cl96	Cl	1.176127	-0.732152	1.295176
H97	H	0.976660	-0.669404	0.800143
H98	H	0.781945	-0.447029	0.533966
H99	H	1.239115	-0.932535	0.723377
