data_functionalizedCrystal
_audit_creation_method	'MofGen! by Chris Wilmer'
_symmetry_space_group_name_H-M	'P1'
_symmetry_Int_Tables_number	1
_symmetry_cell_setting	triclinic
loop_
_symmetry_equiv_pos_as_xyz
  x,y,z
_cell_length_a	14.044191
_cell_length_b	14.044190
_cell_length_c	11.804365
_cell_angle_alpha	102.923601
_cell_angle_beta	77.057282
_cell_angle_gamma	93.191777
loop_
_atom_site_label
_atom_site_type_symbol
_atom_site_fract_x
_atom_site_fract_y
_atom_site_fract_z
O1	O	1.294829	0.212562	-0.098991
O2	O	1.018159	0.204246	-0.099005
O3	O	1.152334	0.070072	-0.098975
O4	O	1.160655	0.346736	-0.099021
O5	O	1.117007	0.105356	0.099073
O6	O	0.982833	0.239531	0.099043
O7	O	1.259503	0.247846	0.099057
Cu8	Cu	1.117942	0.246910	0.117133
Cu9	Cu	1.159720	0.205182	-0.117082
O10	O	1.125328	0.382020	0.099027
C11	C	0.964874	0.218252	0.000017
C12	C	0.858731	0.207404	0.000013
C13	C	0.613274	0.264505	0.000015
C14	C	0.664396	0.187590	0.000026
C15	C	0.772534	0.198617	0.000019
C16	C	0.505126	0.253479	0.000023
C17	C	1.131033	0.052092	0.000052
C18	C	1.120184	-0.054049	0.000062
C19	C	1.177293	-0.299514	0.000018
C20	C	1.100375	-0.248390	0.000023
C21	C	1.111400	-0.140249	0.000045
C22	C	1.166270	-0.407665	-0.000003
C23	C	1.312788	0.233840	0.000032
C24	C	1.418932	0.244687	0.000028
C25	C	1.146629	0.399999	-0.000003
C26	C	1.157479	0.506140	-0.000021
N27	N	1.088565	0.276259	0.281867
N28	N	1.189104	0.175826	-0.281815
C29	C	1.259647	0.105331	0.655854
C30	C	1.281870	0.083124	0.531198
C31	C	1.233545	0.131406	0.468859
C32	C	1.162995	0.201898	0.531189
C33	C	1.140776	0.224112	0.655858
C34	C	1.114674	0.250187	0.468863
C35	C	1.044124	0.320680	0.531193
C36	C	1.021908	0.342890	0.655849
C37	C	1.070232	0.294608	0.718188
C38	C	1.136893	0.227973	0.344194
C39	C	1.018021	0.346755	0.344197
C40	C	0.995799	0.368961	0.468854
H41	H	0.650720	0.338629	-0.000001
H42	H	0.626963	0.113445	-0.000045
H43	H	1.251417	-0.262068	0.000035
H44	H	1.194335	0.170578	0.293456
C45	C	1.000223	-0.298967	0.000029
C46	C	0.989185	-0.408676	0.000025
C47	C	0.889034	-0.459255	0.000043
C48	C	0.799922	-0.400125	0.000065
C49	C	0.810956	-0.290410	0.000070
C50	C	0.911107	-0.239831	0.000052
H51	H	1.055154	-0.452453	0.000008
H52	H	0.880866	-0.540474	0.000039
H53	H	0.725784	-0.437567	0.000078
H54	H	0.744987	-0.246633	0.000086
H55	H	0.919275	-0.158612	0.000055
C56	C	1.257980	0.106974	0.331736
C57	C	1.243065	0.002237	0.263200
C58	C	1.267499	-0.022202	0.126071
C59	C	1.306849	0.058096	0.057477
C60	C	1.321766	0.162841	0.126013
C61	C	1.297332	0.187280	0.263142
H62	H	1.213935	-0.057211	0.313977
H63	H	1.256456	-0.099741	0.075336
H64	H	1.324937	0.040005	-0.044034
H65	H	1.350897	0.222289	0.075236
H66	H	1.308375	0.264819	0.313876
C67	C	1.359464	0.005584	0.462633
C68	C	1.412623	-0.047533	0.531187
C69	C	1.490220	-0.125078	0.462619
C70	C	1.514660	-0.149507	0.325495
C71	C	1.461501	-0.096389	0.256933
C72	C	1.383903	-0.018844	0.325502
H73	H	1.394532	-0.029450	0.632701
H74	H	1.529572	-0.164399	0.513373
H75	H	1.572103	-0.206911	0.274737
H76	H	1.479592	-0.114472	0.155420
H77	H	1.344551	0.020477	0.274747
H78	H	1.298992	0.066031	0.706619
C79	C	0.944309	0.420436	0.724419
C80	C	0.838506	0.406523	0.707308
C81	C	0.760908	0.484068	0.775877
C82	C	0.789114	0.575527	0.861556
C83	C	0.894922	0.589444	0.878671
C84	C	0.972520	0.511899	0.810102
H85	H	0.817623	0.338816	0.643880
H86	H	0.682582	0.473765	0.763207
H87	H	0.731671	0.632931	0.912315
H88	H	0.915806	0.657151	0.942099
H89	H	1.050846	0.522202	0.822771
C90	C	0.964857	0.399869	0.275637
C91	C	0.989293	0.375433	0.138514
C92	C	0.936136	0.428544	0.069945
C93	C	0.858544	0.506092	0.138499
C94	C	0.834104	0.530532	0.275630
C95	C	0.887261	0.477420	0.344199
H96	H	1.046735	0.318024	0.087759
H97	H	0.954228	0.410452	-0.031569
H98	H	0.819194	0.545408	0.087740
H99	H	0.776662	0.587941	0.326384
H100	H	0.869168	0.495513	0.445713
H101	H	1.052136	0.312686	0.819694
H102	H	0.938356	0.426358	0.519619
