data_functionalizedCrystal
_audit_creation_method	'MofGen! by Chris Wilmer'
_symmetry_space_group_name_H-M	'P1'
_symmetry_Int_Tables_number	1
_symmetry_cell_setting	triclinic
loop_
_symmetry_equiv_pos_as_xyz
  x,y,z
_cell_length_a	12.759401
_cell_length_b	16.120484
_cell_length_c	16.120256
_cell_angle_alpha	95.616173
_cell_angle_beta	92.881472
_cell_angle_gamma	92.925560
loop_
_atom_site_label
_atom_site_type_symbol
_atom_site_fract_x
_atom_site_fract_y
_atom_site_fract_z
Zn1	Zn	1.552086	-0.356756	-0.489390
Zn2	Zn	2.052086	0.143244	0.010610
Zn3	Zn	1.551954	-0.489442	-0.356699
Zn4	Zn	2.051954	0.010558	0.143301
Zn5	Zn	1.385776	-0.349689	-0.349642
Zn6	Zn	1.885776	0.150311	0.150358
Zn7	Zn	1.366964	-0.496488	-0.496431
Zn8	Zn	1.866964	0.003512	0.003569
O9	O	1.464195	-0.423094	-0.423040
O10	O	1.964195	0.076906	0.076960
O11	O	1.699088	-0.374366	-0.471795
O12	O	2.199088	0.125634	0.028205
O13	O	1.537727	-0.464997	-0.238800
O14	O	2.037727	0.035003	0.261200
O15	O	1.415765	-0.233661	-0.362280
O16	O	1.915765	0.266339	0.137720
O17	O	1.698991	-0.471850	-0.374308
O18	O	2.198991	0.028150	0.125692
O19	O	1.537952	-0.238853	-0.464952
O20	O	2.037952	0.261147	0.035048
O21	O	1.415637	-0.362321	-0.233615
O22	O	1.915637	0.137679	0.266385
O23	O	1.236260	-0.369153	-0.369107
O24	O	1.736260	0.130847	0.130893
O25	O	1.383704	-0.483859	-0.612459
O26	O	1.883704	0.016141	-0.112459
O27	O	1.222440	-0.477006	-0.476952
O28	O	1.722440	0.022994	0.023048
O29	O	1.519712	-0.381199	-0.607286
O30	O	2.019712	0.118801	-0.107286
O31	O	1.519487	-0.607342	-0.381135
O32	O	2.019487	-0.107342	0.118865
O33	O	1.383576	-0.612519	-0.483795
O34	O	1.883576	-0.112519	0.016205
C35	C	1.191229	-0.423078	-0.423028
C36	C	1.691229	0.076922	0.076972
C37	C	1.074451	-0.423092	-0.423044
C38	C	1.574451	0.076908	0.076956
C39	C	1.012420	-0.479332	-0.479115
C40	C	1.512420	0.020668	0.020885
C41	C	0.902695	-0.479343	-0.479124
C42	C	1.402695	0.020657	0.020876
C43	C	0.917041	-0.366871	-0.366985
C44	C	1.417041	0.133129	0.133015
C45	C	1.026764	-0.366857	-0.366980
C46	C	1.526764	0.133143	0.133020
C47	C	1.004136	-0.544269	-0.543855
C48	C	1.504136	-0.044269	-0.043855
C49	C	0.894411	-0.544280	-0.543865
C50	C	1.394411	-0.044280	-0.043865
C51	C	1.449503	-0.640259	-0.434013
C52	C	1.949503	-0.140259	0.065987
C53	C	1.443312	-0.733165	-0.438735
C54	C	1.943312	-0.233165	0.061265
C55	C	1.432013	-0.903265	-0.447374
C56	C	1.932013	-0.403265	0.052626
C57	C	1.496563	-0.942082	-0.398720
C58	C	1.996563	-0.442082	0.101280
C59	C	1.490277	-1.036732	-0.403527
C60	C	1.990277	-0.536732	0.096473
C61	C	1.438298	-0.808607	-0.442569
C62	C	1.938298	-0.308607	0.057431
C63	C	1.738226	-0.423110	-0.423053
C64	C	2.238226	0.076890	0.076947
C65	C	1.855002	-0.423117	-0.423058
C66	C	2.355002	0.076883	0.076942
C67	C	1.449624	-0.434103	-0.641048
C68	C	1.949624	0.065897	-0.141048
C69	C	1.443415	-0.438795	-0.733950
C70	C	1.943415	0.061205	-0.233950
C71	C	1.478972	-0.205081	-0.412043
C72	C	1.978972	0.294919	0.087957
C73	C	1.485269	-0.112177	-0.407357
C74	C	1.985269	0.387823	0.092643
C75	C	1.496575	-0.398606	-0.942874
C76	C	1.996575	0.101394	-0.442874
C77	C	1.432046	-0.447326	-0.904035
C78	C	1.932046	0.052674	-0.404035
C79	C	1.438373	-0.442578	-0.809391
C80	C	1.938373	0.057422	-0.309391
C81	C	1.490248	-0.403353	-1.037526
C82	C	1.990248	0.096647	-0.537526
C83	C	1.478773	-0.412067	-0.205878
C84	C	1.978773	0.087933	0.294122
C85	C	1.485202	-0.407140	-0.112964
C86	C	1.985202	0.092860	0.387036
H87	H	0.878201	-0.321086	-0.321341
H88	H	1.378201	0.178914	0.178659
H89	H	0.861428	-0.608112	-0.529691
H90	H	1.361428	-0.108112	-0.029691
H91	H	1.556547	-0.904230	-0.353457
H92	H	2.056547	-0.404230	0.146543
O93	O	1.352569	-0.507302	-0.954137
O94	O	1.852569	-0.007302	-0.454137
H95	H	1.367235	-0.572081	-0.940761
H96	H	1.867235	-0.072081	-0.440761
O97	O	1.039409	-0.525754	-0.628478
O98	O	1.539409	-0.025754	-0.128478
H99	H	1.004182	-0.574315	-0.676838
H100	H	1.504182	-0.074315	-0.176838
H101	H	1.035575	-0.604544	-0.523668
H102	H	1.535575	-0.104544	-0.023668
O103	O	1.352554	-0.953392	-0.507326
O104	O	1.852554	-0.453392	-0.007326
H105	H	1.272160	-0.936027	-0.492101
H106	H	1.772160	-0.436027	0.007899
H107	H	1.556568	-0.353334	-0.905046
H108	H	2.056568	0.146666	-0.405046
H109	H	1.077266	-0.321056	-0.321327
H110	H	1.577266	0.178944	0.178673
O111	O	0.845946	-0.517817	-0.623823
O112	O	1.345946	-0.017817	-0.123823
H113	H	0.908985	-0.503783	-0.666210
H114	H	1.408985	-0.003783	-0.166210
