data_functionalizedCrystal
_audit_creation_method	'MofGen! by Chris Wilmer'
_symmetry_space_group_name_H-M	'P1'
_symmetry_Int_Tables_number	1
_symmetry_cell_setting	triclinic
loop_
_symmetry_equiv_pos_as_xyz
  x,y,z
_cell_length_a	15.944493
_cell_length_b	15.944493
_cell_length_c	8.965430
_cell_angle_alpha	90.006294
_cell_angle_beta	89.996758
_cell_angle_gamma	83.475044
loop_
_atom_site_label
_atom_site_type_symbol
_atom_site_fract_x
_atom_site_fract_y
_atom_site_fract_z
O1	O	1.114532	0.108097	-0.124000
O2	O	0.869973	0.121504	-0.124005
O3	O	0.998956	-0.007479	-0.124015
O4	O	0.985549	0.237080	-0.123990
O5	O	0.998945	-0.007470	0.124064
O6	O	0.869962	0.121513	0.124074
O7	O	1.114521	0.108105	0.124079
Cu8	Cu	0.992240	0.114810	0.146728
Cu9	Cu	0.992253	0.114800	-0.146654
O10	O	0.985538	0.237089	0.124089
C11	C	0.838673	0.120961	0.000034
C12	C	0.745424	0.119318	0.000031
C13	C	0.509649	0.195240	0.000037
C14	C	0.459094	0.154302	0.122356
C15	C	0.574704	0.116273	0.000033
C16	C	0.459109	0.154275	-0.122231
C17	C	0.409795	0.113339	0.000029
C18	C	0.525377	0.075357	0.122453
C19	C	0.525396	0.075341	-0.122244
C20	C	0.474873	0.034346	0.000104
C21	C	0.669704	0.117966	0.000037
C22	C	0.314798	0.111640	0.000037
C23	C	0.998403	-0.038769	0.000018
C24	C	0.996760	-0.132018	-0.000001
C25	C	1.072682	-0.367793	0.000029
C26	C	1.031745	-0.418357	-0.122287
C27	C	0.993716	-0.302738	0.000018
C28	C	1.031716	-0.418325	0.122300
C29	C	0.990781	-0.467647	0.000042
C30	C	0.952800	-0.352074	-0.122399
C31	C	0.952783	-0.352038	0.122297
C32	C	0.911788	-0.402569	-0.000049
C33	C	0.995408	-0.207739	0.000003
C34	C	0.989082	-0.562644	0.000046
C35	C	1.145821	0.108649	0.000037
C36	C	1.239069	0.110292	0.000030
C37	C	0.986091	0.268379	0.000053
C38	C	0.987734	0.361627	0.000062
N39	N	0.992238	0.114816	0.353077
N40	N	0.992263	0.114786	-0.353003
C41	C	0.932569	0.174447	0.450388
C42	C	1.008472	0.190735	0.549805
C43	C	0.916367	0.098536	0.549787
C44	C	1.068179	0.131142	0.450306
C45	C	0.976024	0.038910	0.450279
C46	C	1.051981	0.055165	0.549652
H47	H	0.430145	0.187655	0.225771
C48	C	0.957566	-0.046556	0.391717
C49	C	0.884610	-0.036246	0.303641
C50	C	0.867576	-0.114956	0.249649
H51	H	0.949215	-0.082758	0.473211
H52	H	1.003849	-0.070732	0.333316
H53	H	0.838337	-0.012082	0.362039
H54	H	0.892942	-0.000058	0.222125
H55	H	0.913860	-0.139132	0.191248
H56	H	0.859230	-0.151152	0.331152
H57	H	0.818080	-0.107971	0.189872
H58	H	1.102507	0.004721	0.592963
H59	H	0.852194	0.084779	0.593489
C60	C	0.420365	0.198757	-0.259979
C61	C	0.332917	0.195962	-0.258834
C62	C	0.297201	0.236948	-0.385685
H63	H	0.443854	0.171322	-0.346953
H64	H	0.431959	0.255901	-0.259815
H65	H	0.321330	0.138829	-0.259013
H66	H	0.309405	0.223402	-0.171890
H67	H	0.308795	0.294092	-0.385521
H68	H	0.320696	0.209509	-0.472649
H69	H	0.237863	0.235064	-0.384919
C70	C	0.530431	0.285949	0.000507
C71	C	0.496725	0.326921	0.128887
C72	C	0.515864	0.410476	0.129388
H73	H	0.506756	0.314372	-0.085399
H74	H	0.589960	0.286409	-0.000306
H75	H	0.437207	0.326466	0.129686
H76	H	0.520394	0.298523	0.214813
H77	H	0.575393	0.410936	0.128575
H78	H	0.492188	0.438891	0.043477
H79	H	0.493004	0.438284	0.216498
H80	H	1.065099	-0.447313	-0.225696
C81	C	1.076051	-0.456832	0.260366
C82	C	1.035369	-0.421943	0.388145
C83	C	1.076185	-0.457402	0.515349
H84	H	1.133176	-0.445211	0.260420
H85	H	1.074196	-0.516177	0.259935
H86	H	1.037233	-0.362611	0.388577
H87	H	0.978247	-0.433562	0.388140
H88	H	1.074330	-0.516747	0.514917
H89	H	1.133309	-0.445778	0.515387
H90	H	1.048584	-0.433741	0.602061
H91	H	0.554207	0.042032	0.225966
H92	H	0.554353	0.042014	-0.225665
C93	C	0.454308	-0.056434	0.000490
C94	C	0.488148	-0.097377	0.128778
C95	C	0.469209	-0.180998	0.129202
H96	H	0.478011	-0.084784	-0.085480
H97	H	0.394795	-0.057032	-0.000248
H98	H	0.547649	-0.096784	0.129503
H99	H	0.464451	-0.069053	0.214769
H100	H	0.409696	-0.181597	0.128464
H101	H	0.492913	-0.209340	0.043227
H102	H	0.492159	-0.208787	0.216250
C103	C	1.163321	-0.346804	-0.000355
C104	C	1.177025	-0.299093	-0.127331
C105	C	1.260500	-0.279714	-0.127732
H106	H	1.200796	-0.397566	-0.001385
H107	H	1.173170	-0.315244	0.086535
H108	H	1.167185	-0.330653	-0.214198
H109	H	1.139571	-0.248321	-0.126328
H110	H	1.270348	-0.248154	-0.040843
H111	H	1.297967	-0.330481	-0.128758
H112	H	1.269806	-0.247334	-0.213876
C113	C	0.908452	-0.313497	-0.260399
C114	C	0.910589	-0.225957	-0.258855
C115	C	0.869763	-0.190393	-0.385969
H116	H	0.851450	-0.325508	-0.260898
H117	H	0.936323	-0.336735	-0.347182
H118	H	0.882716	-0.202726	-0.172095
H119	H	0.967580	-0.213922	-0.258378
H120	H	0.897634	-0.213631	-0.472752
H121	H	0.812763	-0.202410	-0.386457
H122	H	0.871214	-0.130995	-0.384946
H123	H	1.132366	0.144976	0.406792
C124	C	0.865453	0.241872	0.392333
C125	C	0.882849	0.321194	0.442735
C126	C	0.821052	0.383327	0.389266
H127	H	0.811615	0.230962	0.427820
H128	H	0.865584	0.241129	0.286372
H129	H	0.882710	0.321935	0.548674
H130	H	0.936676	0.332130	0.407252
H131	H	0.821183	0.382584	0.283304
H132	H	0.767218	0.372409	0.424756
H133	H	0.832851	0.437154	0.423444
H134	H	0.843715	-0.418021	-0.000117
H135	H	0.919458	-0.323067	0.225710
H136	H	1.022203	0.254915	0.593521
