data_functionalizedCrystal
_audit_creation_method	'MofGen! by Chris Wilmer'
_symmetry_space_group_name_H-M	'P1'
_symmetry_Int_Tables_number	1
_symmetry_cell_setting	triclinic
loop_
_symmetry_equiv_pos_as_xyz
  x,y,z
_cell_length_a	10.654550
_cell_length_b	17.038272
_cell_length_c	9.730223
_cell_angle_alpha	89.998176
_cell_angle_beta	89.996251
_cell_angle_gamma	87.798229
loop_
_atom_site_label
_atom_site_type_symbol
_atom_site_fract_x
_atom_site_fract_y
_atom_site_fract_z
O1	O	1.678036	0.109875	-0.114405
O2	O	1.313530	0.120343	-0.114384
O3	O	1.493617	0.001281	-0.114383
O4	O	1.497950	0.228936	-0.114406
O5	O	1.493615	0.001284	0.114196
O6	O	1.313528	0.120346	0.114196
O7	O	1.678034	0.109878	0.114175
Zn8	Zn	1.495781	0.115112	0.150477
Zn9	Zn	1.495783	0.115108	-0.150686
O10	O	1.497948	0.228939	0.114174
C11	C	1.266660	0.119576	-0.000091
C12	C	1.127003	0.117276	-0.000082
C13	C	1.054026	0.187378	-0.000109
C14	C	0.922804	0.185212	-0.000132
C15	C	0.937548	0.042837	-0.000108
C16	C	1.068767	0.045004	-0.000075
C17	C	1.045513	0.269577	-0.000129
C18	C	0.914292	0.267411	-0.000152
C19	C	1.489675	-0.027867	-0.000093
C20	C	1.477918	-0.114726	-0.000093
C21	C	1.585862	-0.164237	-0.000098
C22	C	1.574808	-0.245850	-0.000111
C23	C	1.455808	-0.277949	-0.000108
C24	C	1.347856	-0.228431	-0.000107
C25	C	1.358911	-0.146821	-0.000105
C26	C	1.416750	-0.523925	-0.000125
C27	C	1.405702	-0.605542	-0.000123
C28	C	1.632656	-0.622955	-0.000129
C29	C	1.643701	-0.541342	-0.000118
C30	C	1.535749	-0.491831	-0.000124
C31	C	1.444505	-0.361370	-0.000116
C32	C	1.547052	-0.408412	-0.000126
C33	C	1.724905	0.110645	-0.000121
C34	C	1.864562	0.112944	-0.000139
C35	C	1.501889	0.258088	-0.000119
C36	C	1.513646	0.344947	-0.000128
N37	N	1.495788	0.115115	0.356014
N38	N	1.495785	0.115100	-0.356223
C39	C	1.575554	0.062412	0.427940
C40	C	1.575550	0.062402	0.571823
C41	C	1.416010	0.167805	0.571841
C42	C	1.416009	0.167810	0.427961
C43	C	1.667667	0.001561	0.427931
C44	C	1.667663	0.001551	0.571814
H45	H	1.077829	0.301726	0.095534
C46	C	0.951116	0.325185	0.220567
C47	C	0.855736	0.300949	0.133055
H48	H	0.914961	0.345891	0.302797
H49	H	1.005814	0.281567	0.241999
H50	H	0.997244	0.364542	0.176257
H51	H	0.809614	0.261587	0.177362
H52	H	0.801016	0.344572	0.111625
C53	C	1.816405	0.103524	0.412180
C54	C	1.793154	0.027289	0.367695
H55	H	1.893879	0.119409	0.375006
H56	H	1.750475	0.138481	0.382024
H57	H	1.820648	0.104378	0.509683
H58	H	1.788901	0.026436	0.270191
H59	H	1.859100	-0.007677	0.397843
H60	H	0.875436	0.298382	-0.095823
H61	H	1.631874	-0.055271	0.616437
C62	C	1.840554	-0.531057	-0.117630
C63	C	1.774512	-0.506064	-0.000123
H64	H	1.921309	-0.509274	-0.117629
H65	H	1.849413	-0.586740	-0.117625
H66	H	1.795736	-0.514093	-0.197331
H67	H	1.819326	-0.523032	0.079578
H68	H	1.765658	-0.450368	-0.000116
H69	H	1.662708	-0.286159	-0.000112
C70	C	1.846436	-0.043244	0.704467
C71	C	1.799623	0.019644	0.624539
H72	H	1.927901	-0.032075	0.737010
H73	H	1.792126	-0.050693	0.780382
H74	H	1.851049	-0.089612	0.650203
H75	H	1.795002	0.066011	0.678807
H76	H	1.853947	0.027102	0.548613
H77	H	1.128180	-0.012080	-0.000033
C78	C	1.809082	-0.189655	-0.000128
C79	C	1.716672	-0.128958	-0.000110
H80	H	1.889839	-0.167874	-0.000150
H81	H	1.800054	-0.221122	0.079579
H82	H	1.800033	-0.221123	-0.079843
H83	H	1.725715	-0.097493	0.079610
H84	H	1.725704	-0.097477	-0.079826
C85	C	1.182467	-0.580137	-0.000160
C86	C	1.274888	-0.640827	-0.000142
H87	H	1.101714	-0.601923	-0.000181
H88	H	1.191480	-0.548671	0.079548
H89	H	1.191520	-0.548665	-0.079874
H90	H	1.265841	-0.672296	0.079578
H91	H	1.265871	-0.672306	-0.079858
C92	C	1.239687	-0.044940	-0.117607
C93	C	1.240256	-0.092395	-0.000100
H94	H	1.166427	-0.011344	-0.117611
H95	H	1.312133	-0.014147	-0.117598
H96	H	1.240096	-0.077147	-0.197307
H97	H	1.239857	-0.060187	0.079601
H98	H	1.167791	-0.123190	-0.000096
H99	H	1.351046	0.210718	0.369400
H100	H	0.890116	-0.016005	-0.000123
H101	H	1.347615	-0.387514	-0.000111
C102	C	0.996880	0.325911	-0.220872
C103	C	1.096942	0.304913	-0.133347
H104	H	1.028634	0.347728	-0.303112
H105	H	0.951387	0.280636	-0.242285
H106	H	0.942771	0.363619	-0.176583
H107	H	1.151047	0.267200	-0.177633
H108	H	1.142455	0.350194	-0.111937
H109	H	1.720544	-0.663275	-0.000126
C110	C	1.297500	-0.422060	-0.117634
C111	C	1.298085	-0.469514	-0.000125
H112	H	1.224232	-0.388472	-0.117635
H113	H	1.369937	-0.391260	-0.117627
H114	H	1.297915	-0.454268	-0.197333
H115	H	1.297679	-0.437306	0.079575
H116	H	1.225629	-0.500317	-0.000118
C117	C	1.203382	0.212470	0.616163
C118	C	1.328322	0.225725	0.650934
H119	H	1.149248	0.248226	0.664998
H120	H	1.191977	0.220022	0.520191
H121	H	1.184186	0.160174	0.639741
H122	H	1.347522	0.278020	0.627346
H123	H	1.339733	0.218179	0.746927
C124	C	1.151019	-0.238718	-0.117617
C125	C	1.217049	-0.263716	-0.000112
H126	H	1.070267	-0.260505	-0.117619
H127	H	1.142153	-0.183034	-0.117606
H128	H	1.195850	-0.255674	-0.197318
H129	H	1.172222	-0.246755	0.079590
H130	H	1.225910	-0.319411	-0.000110
C131	C	1.609031	-0.128840	0.487137
C132	C	1.631173	-0.079606	0.375205
H133	H	1.586493	-0.178945	0.454583
H134	H	1.682971	-0.134366	0.541357
H135	H	1.542596	-0.106604	0.541371
H136	H	1.697614	-0.101839	0.320976
H137	H	1.557224	-0.074083	0.320963
H138	H	1.643941	-0.382273	-0.000158
