data_functionalizedCrystal
_audit_creation_method	'MofGen! by Chris Wilmer'
_symmetry_space_group_name_H-M	'P1'
_symmetry_Int_Tables_number	1
_symmetry_cell_setting	triclinic
loop_
_symmetry_equiv_pos_as_xyz
  x,y,z
_cell_length_a	23.532355
_cell_length_b	22.610064
_cell_length_c	16.992695
_cell_angle_alpha	90.004106
_cell_angle_beta	93.252139
_cell_angle_gamma	90.002356
loop_
_atom_site_label
_atom_site_type_symbol
_atom_site_fract_x
_atom_site_fract_y
_atom_site_fract_z
O1	O	0.759994	0.049104	-0.094944
O2	O	1.259994	0.549104	0.405056
O3	O	0.594812	0.049123	-0.108753
O4	O	1.094812	0.549123	0.391247
O5	O	0.676741	0.049109	0.012289
O6	O	1.176741	0.549109	0.512289
O7	O	0.678065	0.049118	-0.215986
O8	O	1.178065	0.549118	0.284014
O9	O	0.676726	-0.049260	0.012271
O10	O	1.176726	0.450740	0.512271
O11	O	0.594797	-0.049246	-0.108771
O12	O	1.094797	0.450754	0.391229
O13	O	0.759979	-0.049265	-0.094961
O14	O	1.259979	0.450735	0.405039
Zn15	Zn	0.677386	-0.064874	-0.101869
Zn16	Zn	1.177386	0.435126	0.398131
Zn17	Zn	0.677405	0.064732	-0.101846
Zn18	Zn	1.177405	0.564732	0.398154
O19	O	0.678051	-0.049251	-0.216003
O20	O	1.178051	0.450749	0.283997
C21	C	0.573571	-0.000059	-0.108417
C22	C	1.073571	0.499941	0.391583
C23	C	0.510301	-0.000052	-0.107379
C24	C	1.010301	0.499948	0.392621
C25	C	0.117955	-0.053698	-0.100868
C26	C	0.617955	0.446302	0.399132
C27	C	0.058507	-0.053700	-0.099880
C28	C	0.558507	0.446300	0.400120
O29	O	0.027755	-0.099302	-0.099351
O30	O	0.527755	0.400698	0.400649
N31	N	0.028782	-0.000079	-0.099381
N32	N	0.528782	0.499921	0.400619
C33	C	0.058509	0.053547	-0.099861
C34	C	0.558509	0.553547	0.400139
O35	O	0.027767	0.099156	-0.099345
O36	O	0.527767	0.599156	0.400655
C37	C	0.117957	0.053549	-0.100843
C38	C	0.617957	0.553549	0.399157
C39	C	0.147678	-0.000075	-0.101350
C40	C	0.647678	0.499925	0.398650
C41	C	0.147677	-0.107318	-0.101374
C42	C	0.647677	0.392682	0.398626
C43	C	0.207121	-0.107315	-0.102363
C44	C	0.707121	0.392685	0.397637
C45	C	0.236844	-0.053693	-0.102845
C46	C	0.736844	0.446307	0.397155
C47	C	0.207122	-0.000073	-0.102339
C48	C	0.707122	0.499927	0.397661
C49	C	0.147683	0.107175	-0.101318
C50	C	0.647683	0.607175	0.398682
C51	C	0.207135	0.107172	-0.102299
C52	C	0.707135	0.607172	0.397701
C53	C	0.236856	0.053548	-0.102806
C54	C	0.736856	0.553548	0.397194
C55	C	0.296289	0.053552	-0.103810
C56	C	0.796289	0.553552	0.396190
N57	N	0.326014	-0.000069	-0.104310
N58	N	0.826014	0.499931	0.395690
C59	C	0.296291	-0.053691	-0.103827
C60	C	0.796291	0.446309	0.396173
C61	C	-0.066335	0.053540	-0.097798
C62	C	0.433665	0.553540	0.402202
C63	C	-0.125782	0.053538	-0.096822
C64	C	0.374218	0.553538	0.403178
C65	C	-0.125780	-0.053709	-0.096840
C66	C	0.374220	0.446291	0.403160
C67	C	-0.066332	-0.053708	-0.097821
C68	C	0.433668	0.446292	0.402179
C69	C	-0.036610	-0.000081	-0.098297
C70	C	0.463390	0.499919	0.401703
C71	C	0.421129	-0.053682	-0.105904
C72	C	0.921129	0.446318	0.394096
C73	C	0.480578	-0.053674	-0.106897
C74	C	0.980578	0.446326	0.393103
C75	C	0.480571	0.053573	-0.106875
C76	C	0.980571	0.553573	0.393125
C77	C	0.421127	0.053566	-0.105887
C78	C	0.921127	0.553566	0.394113
C79	C	0.391407	-0.000066	-0.105399
C80	C	0.891407	0.499934	0.394601
O81	O	0.327079	0.099131	-0.104337
O82	O	0.827079	0.599131	0.395663
O83	O	0.327041	-0.099292	-0.104333
O84	O	0.827041	0.400708	0.395667
N85	N	0.677377	-0.153326	-0.101884
N86	N	1.177377	0.346674	0.398116
C87	C	0.713686	-0.561974	-0.048256
C88	C	1.213686	-0.061974	0.451744
C89	C	0.713688	-0.623894	-0.048251
C90	C	1.213688	-0.123894	0.451749
O91	O	0.744535	-0.655918	-0.002666
O92	O	1.244535	-0.155918	0.497334
N93	N	0.677404	-0.654863	-0.101829
N94	N	1.177404	-0.154863	0.398171
C95	C	0.641111	-0.623910	-0.155412
C96	C	1.141111	-0.123910	0.344588
O97	O	0.610248	-0.655938	-0.200984
O98	O	1.110248	-0.155938	0.299016
C99	C	0.641106	-0.561991	-0.155413
C100	C	1.141106	-0.061991	0.344587
C101	C	0.677396	-0.531025	-0.101836
C102	C	1.177396	-0.031025	0.398164
C103	C	0.749973	-0.531007	0.005317
C104	C	1.249973	-0.031007	0.505317
C105	C	0.749971	-0.469092	0.005310
C106	C	1.249971	0.030908	0.505310
C107	C	0.713682	-0.438142	-0.048270
C108	C	1.213682	0.061858	0.451730
C109	C	0.677394	-0.469109	-0.101843
C110	C	1.177394	0.030891	0.398157
C111	C	0.604810	-0.531039	-0.208992
C112	C	1.104810	-0.031039	0.291008
C113	C	0.604808	-0.469116	-0.208988
C114	C	1.104808	0.030884	0.291012
C115	C	0.641098	-0.438149	-0.155411
C116	C	1.141098	0.061851	0.344589
C117	C	0.641103	-0.376244	-0.155430
C118	C	1.141103	0.123756	0.344570
N119	N	0.677387	-0.345274	-0.101851
N120	N	1.177387	0.154726	0.398149
C121	C	0.713676	-0.376224	-0.048271
C122	C	1.213676	0.123776	0.451729
C123	C	0.641124	-0.753943	-0.155404
C124	C	1.141124	-0.253943	0.344596
C125	C	0.641131	-0.815861	-0.155407
C126	C	1.141131	-0.315861	0.344593
C127	C	0.713708	-0.815841	-0.048245
C128	C	1.213708	-0.315841	0.451755
C129	C	0.713703	-0.753922	-0.048246
C130	C	1.213703	-0.253922	0.451754
C131	C	0.677408	-0.722974	-0.101825
C132	C	1.177408	-0.222974	0.398175
C133	C	0.713670	-0.246196	-0.048290
C134	C	1.213670	0.253804	0.451710
C135	C	0.713666	-0.184275	-0.048304
C136	C	1.213666	0.315725	0.451696
C137	C	0.641088	-0.184301	-0.155464
C138	C	1.141088	0.315699	0.344536
C139	C	0.641093	-0.246217	-0.155453
C140	C	1.141093	0.253783	0.344547
C141	C	0.677386	-0.277163	-0.101860
C142	C	1.177386	0.222837	0.398140
O143	O	0.610270	-0.344181	-0.200989
O144	O	1.110270	0.155819	0.299011
O145	O	0.744528	-0.344188	-0.002700
O146	O	1.244528	0.155812	0.497300
C147	C	0.781221	-0.000081	-0.095298
C148	C	1.281221	0.499919	0.404702
C149	C	0.844491	-0.000084	-0.096335
C150	C	1.344491	0.499916	0.403665
C151	C	0.675030	-0.000075	0.041479
C152	C	1.175030	0.499925	0.541479
C153	C	0.669946	-0.000074	0.128482
C154	C	1.169946	0.499926	0.628482
N155	N	0.677419	0.153184	-0.101824
N156	N	1.177419	0.653184	0.398176
C157	C	0.679762	-0.000065	-0.245193
C158	C	1.179762	0.499935	0.254807
C159	C	0.684845	-0.000062	-0.332197
C160	C	1.184845	0.499938	0.167803
C161	C	0.718993	-0.000081	0.179117
C162	C	1.218993	0.499919	0.679117
C163	C	0.714214	-0.000074	0.260865
C164	C	1.214214	0.499926	0.760865
C165	C	0.660387	-0.000066	0.291977
C166	C	1.160387	0.499934	0.791977
C167	C	0.611336	-0.000058	0.241335
C168	C	1.111336	0.499942	0.741335
C169	C	0.616116	-0.000060	0.159589
C170	C	1.116116	0.499940	0.659589
C171	C	0.640574	-0.000056	0.535415
C172	C	1.140574	0.499944	1.035415
C173	C	0.635798	-0.000056	0.617168
C174	C	1.135798	0.499944	1.117168
C175	C	0.738676	-0.000071	0.636693
C176	C	1.238676	0.499929	1.136693
C177	C	0.743452	-0.000076	0.554944
C178	C	1.243452	0.499924	1.054944
C179	C	0.694401	-0.000065	0.504309
C180	C	1.194401	0.499935	1.004309
N181	N	0.655500	-0.000062	0.375536
N182	N	1.155500	0.499938	0.875536
N183	N	0.699288	-0.000065	0.420751
N184	N	1.199288	0.499935	0.920751
H185	H	0.231315	-0.150982	-0.102771
H186	H	0.731315	0.349018	0.397229
H187	H	0.231331	0.150842	-0.102687
H188	H	0.731331	0.650842	0.397313
C189	C	0.789167	-0.435369	0.063630
C190	C	1.289167	0.064631	0.563630
C191	C	0.781333	-0.374517	0.052263
C192	C	1.281333	0.125483	0.552263
C193	C	0.817355	-0.343439	0.106075
C194	C	1.317355	0.156561	0.606075
H195	H	0.780466	-0.445547	0.115829
H196	H	1.280466	0.054453	0.615829
H197	H	0.827622	-0.445383	0.055632
H198	H	1.327622	0.054617	0.555632
H199	H	0.742886	-0.364508	0.060268
H200	H	1.242886	0.135492	0.560268
H201	H	0.790037	-0.364322	0.000075
H202	H	1.290037	0.135678	0.500075
H203	H	0.855810	-0.353452	0.098077
H204	H	1.355810	0.146548	0.598077
H205	H	0.808651	-0.353621	0.158271
H206	H	1.308651	0.146379	0.658271
H207	H	0.812048	-0.302147	0.098365
H208	H	1.312048	0.197853	0.598365
H209	H	0.787283	-0.000083	0.529619
H210	H	1.287283	0.499917	1.029619
H211	H	0.504782	0.097231	-0.107271
H212	H	1.004782	0.597231	0.392729
H213	H	0.778610	-0.000079	0.677928
H214	H	1.278610	0.499921	1.177928
H215	H	0.754153	-0.000081	0.302090
H216	H	1.254153	0.499919	0.802090
C217	C	0.552930	0.000043	0.275220
C218	C	1.052930	0.500043	0.775220
C219	C	0.547195	0.050644	0.321604
C220	C	1.047195	0.550644	0.821604
C221	C	0.493402	0.050751	0.352838
C222	C	0.993402	0.550751	0.852838
H223	H	0.524351	0.000078	0.233436
H224	H	1.024351	0.500078	0.733436
H225	H	0.548915	-0.034243	0.306744
H226	H	1.048915	0.465757	0.806744
H227	H	0.551205	0.084921	0.290082
H228	H	1.051205	0.584921	0.790082
H229	H	0.575762	0.050620	0.363400
H230	H	1.075762	0.550620	0.863400
H231	H	0.489386	0.016466	0.384361
H232	H	0.989386	0.516466	0.884361
H233	H	0.464826	0.050785	0.311048
H234	H	0.964826	0.550785	0.811048
H235	H	0.489505	0.085081	0.384318
H236	H	0.989505	0.585081	0.884318
H237	H	0.591963	-0.000059	0.642495
H238	H	1.091963	0.499941	1.142495
H239	H	0.600634	-0.000047	0.494198
H240	H	1.100634	0.499953	0.994198
C241	C	0.115513	-0.165605	-0.100896
C242	C	0.615513	0.334395	0.399104
C243	C	0.154276	-0.212554	-0.101569
C244	C	0.654276	0.287446	0.398431
C245	C	0.124672	-0.266260	-0.101147
C246	C	0.624672	0.233740	0.398853
H247	H	0.094583	-0.167930	-0.054814
H248	H	0.594583	0.332070	0.445186
H249	H	0.090071	-0.167866	-0.146248
H250	H	0.590071	0.332134	0.353752
H251	H	0.179708	-0.210294	-0.056222
H252	H	0.679708	0.289706	0.443778
H253	H	0.175208	-0.210248	-0.147648
H254	H	0.675208	0.289752	0.352352
H255	H	0.099231	-0.268522	-0.146499
H256	H	0.599231	0.231478	0.353501
H257	H	0.103743	-0.268579	-0.055065
H258	H	0.603743	0.231421	0.444935
H259	H	0.150968	-0.298122	-0.101611
H260	H	0.650968	0.201878	0.398389
H261	H	0.576177	-0.000055	0.118362
H262	H	1.076177	0.499945	0.618362
C263	C	0.115493	0.165442	-0.100881
C264	C	0.615493	0.665442	0.399119
C265	C	0.126628	0.197810	-0.168540
C266	C	0.626628	0.697810	0.331460
C267	C	0.096993	0.251496	-0.168157
C268	C	0.596993	0.751496	0.331843
H269	H	0.075819	0.157857	-0.100264
H270	H	0.575819	0.657857	0.399736
H271	H	0.127522	0.187496	-0.055344
H272	H	0.627522	0.687496	0.444656
H273	H	0.114596	0.175762	-0.214066
H274	H	0.614596	0.675762	0.285934
H275	H	0.166296	0.205411	-0.169172
H276	H	0.666296	0.705411	0.330828
H277	H	0.109021	0.273550	-0.122619
H278	H	0.609021	0.773550	0.377381
H279	H	0.057320	0.243905	-0.167537
H280	H	0.557320	0.743905	0.332463
H281	H	0.104547	0.273467	-0.214058
H282	H	0.604547	0.773467	0.285942
C283	C	0.601790	-0.279869	-0.213716
C284	C	1.101790	0.220131	0.286284
C285	C	0.634292	-0.315413	-0.261491
C286	C	1.134292	0.184587	0.238509
C287	C	0.598101	-0.346410	-0.315174
C288	C	1.098101	0.153590	0.184826
H289	H	0.576796	-0.304068	-0.185780
H290	H	1.076796	0.195932	0.314220
H291	H	0.580190	-0.252583	-0.245672
H292	H	1.080190	0.247417	0.254328
H293	H	0.655882	-0.342697	-0.229539
H294	H	1.155882	0.157303	0.270461
H295	H	0.659284	-0.291230	-0.289444
H296	H	1.159284	0.208770	0.210556
H297	H	0.576501	-0.319124	-0.347130
H298	H	1.076501	0.180876	0.152870
H299	H	0.573109	-0.370605	-0.287232
H300	H	1.073109	0.129395	0.212768
H301	H	0.620149	-0.370526	-0.347601
H302	H	1.120149	0.129474	0.152399
C303	C	0.753089	-0.150762	0.009959
C304	C	1.253089	0.349238	0.509959
C305	C	0.784857	-0.191124	0.056897
C306	C	1.284857	0.308876	0.556897
C307	C	0.821171	-0.160276	0.110583
C308	C	1.321171	0.339724	0.610583
H309	H	0.778121	-0.126607	-0.017974
H310	H	1.278121	0.373393	0.482026
H311	H	0.731138	-0.126619	0.042481
H312	H	1.231138	0.373381	0.542481
H313	H	0.806806	-0.215257	0.024378
H314	H	1.306806	0.284743	0.524378
H315	H	0.759840	-0.215281	0.084847
H316	H	1.259840	0.284719	0.584847
H317	H	0.799220	-0.136133	0.143105
H318	H	1.299220	0.363867	0.643105
H319	H	0.846199	-0.136122	0.082643
H320	H	1.346199	0.363878	0.582643
H321	H	0.842726	-0.187657	0.142441
H322	H	1.342726	0.312343	0.642441
C323	C	0.512745	-0.111960	-0.107402
C324	C	1.012745	0.388040	0.392598
C325	C	0.473988	-0.158919	-0.106744
C326	C	0.973988	0.341081	0.393256
C327	C	0.503598	-0.212618	-0.107197
C328	C	1.003598	0.287382	0.392803
H329	H	0.533671	-0.114273	-0.153489
H330	H	1.033671	0.385727	0.346511
H331	H	0.538191	-0.114223	-0.062055
H332	H	1.038191	0.385777	0.437945
H333	H	0.448552	-0.156657	-0.152086
H334	H	0.948552	0.343343	0.347914
H335	H	0.453061	-0.156625	-0.060660
H336	H	0.953061	0.343375	0.439340
H337	H	0.529044	-0.214881	-0.061850
H338	H	1.029044	0.285119	0.438150
H339	H	0.524523	-0.214925	-0.153284
H340	H	1.024523	0.285075	0.346716
H341	H	0.477306	-0.244486	-0.106743
H342	H	0.977306	0.255514	0.393257
H343	H	0.575259	-0.556243	-0.252618
H344	H	1.075259	-0.056243	0.247382
H345	H	0.396937	-0.097354	-0.105514
H346	H	0.896937	0.402646	0.394486
C347	C	0.565331	-0.435485	-0.267040
C348	C	1.065331	0.064515	0.232960
C349	C	0.528571	-0.399947	-0.225544
C350	C	1.028571	0.100053	0.274456
C351	C	0.492194	-0.368965	-0.278995
C352	C	0.992194	0.131035	0.221005
H353	H	0.587224	-0.411284	-0.299547
H354	H	1.087224	0.088716	0.200453
H355	H	0.543688	-0.462780	-0.298933
H356	H	1.043688	0.037220	0.201067
H357	H	0.550212	-0.372654	-0.193664
H358	H	1.050212	0.127346	0.306336
H359	H	0.506665	-0.424133	-0.193039
H360	H	1.006665	0.075867	0.306961
H361	H	0.470551	-0.396261	-0.310889
H362	H	0.970551	0.103739	0.189111
H363	H	0.514092	-0.344768	-0.311500
H364	H	1.014092	0.155232	0.188500
H365	H	0.467245	-0.344854	-0.250848
H366	H	0.967245	0.155146	0.249152
H367	H	0.611570	-0.728748	-0.199041
H368	H	1.111570	-0.228748	0.300959
H369	H	-0.149991	-0.097372	-0.096445
H370	H	0.350009	0.402628	0.403555
H371	H	0.611543	-0.159093	-0.199090
H372	H	1.111543	0.340907	0.300910
H373	H	-0.149976	0.097205	-0.096422
H374	H	0.350024	0.597205	0.403578
C375	C	-0.034166	-0.111990	-0.098322
C376	C	0.465834	0.388010	0.401678
C377	C	-0.072927	-0.158947	-0.097671
C378	C	0.427073	0.341053	0.402329
C379	C	-0.043319	-0.212647	-0.098119
C380	C	0.456681	0.287353	0.401881
H381	H	-0.013236	-0.114305	-0.144405
H382	H	0.486764	0.385695	0.355595
H383	H	-0.008725	-0.114255	-0.052971
H384	H	0.491275	0.385745	0.447029
H385	H	-0.098358	-0.156683	-0.143018
H386	H	0.401642	0.343317	0.356982
H387	H	-0.093859	-0.156652	-0.051592
H388	H	0.406141	0.343348	0.448408
H389	H	-0.017878	-0.214912	-0.052768
H390	H	0.482122	0.285088	0.447232
H391	H	-0.022390	-0.214956	-0.144202
H392	H	0.477610	0.285044	0.355798
H393	H	-0.069613	-0.244514	-0.097670
H394	H	0.430387	0.255486	0.402330
H395	H	0.762825	-0.000091	0.153793
H396	H	1.262825	0.499909	0.653793
H397	H	-0.042139	0.097211	-0.098193
H398	H	0.457861	0.597211	0.401807
C399	C	0.789346	-0.564526	0.063618
C400	C	1.289346	-0.064526	0.563618
C401	C	0.776622	-0.549445	0.140574
C402	C	1.276622	-0.049445	0.640574
C403	C	0.812892	-0.580300	0.194300
C404	C	1.312892	-0.080300	0.694300
H405	H	0.784196	-0.605849	0.056066
H406	H	1.284196	-0.105849	0.556066
H407	H	0.827733	-0.554354	0.055420
H408	H	1.327733	-0.054354	0.555420
H409	H	0.738244	-0.559621	0.148769
H410	H	1.238244	-0.059621	0.648769
H411	H	0.781776	-0.508128	0.148152
H412	H	1.281776	-0.008128	0.648152
H413	H	0.851279	-0.570128	0.186102
H414	H	1.351279	-0.070128	0.686102
H415	H	0.807739	-0.621621	0.186741
H416	H	1.307739	-0.121621	0.686741
H417	H	0.804268	-0.570068	0.246521
H418	H	1.304268	-0.070068	0.746521
C419	C	0.388958	0.111847	-0.105313
C420	C	0.888958	0.611847	0.394687
C421	C	0.427716	0.158808	-0.105936
C422	C	0.927716	0.658808	0.394064
C423	C	0.398108	0.212505	-0.105394
C424	C	0.898108	0.712505	0.394606
H425	H	0.363498	0.114159	-0.150628
H426	H	0.863498	0.614159	0.349372
H427	H	0.368049	0.114110	-0.059195
H428	H	0.868049	0.614110	0.440805
H429	H	0.448615	0.156546	-0.152050
H430	H	0.948615	0.656546	0.347950
H431	H	0.453177	0.156515	-0.060625
H432	H	0.953177	0.656515	0.439375
H433	H	0.377200	0.214768	-0.059275
H434	H	0.877200	0.714768	0.440725
H435	H	0.372649	0.214811	-0.150709
H436	H	0.872649	0.714811	0.349291
H437	H	0.424401	0.244374	-0.105809
H438	H	0.924401	0.744374	0.394191
H439	H	0.743222	-0.271386	-0.004649
H440	H	1.243222	0.228614	0.495351
H441	H	0.743253	-0.728713	-0.004619
H442	H	1.243253	-0.228713	0.495381
H443	H	0.611586	-0.841070	-0.199043
H444	H	1.111586	-0.341070	0.300957
C445	C	0.753010	-0.849481	0.010025
C446	C	1.253010	-0.349481	0.510025
C447	C	0.720497	-0.885015	0.057797
C448	C	1.220497	-0.385015	0.557797
C449	C	0.756679	-0.916007	0.111487
C450	C	1.256679	-0.416007	0.611487
H451	H	0.778002	-0.873685	-0.017905
H452	H	1.278002	-0.373685	0.482095
H453	H	0.774611	-0.822192	0.041983
H454	H	1.274611	-0.322192	0.541983
H455	H	0.698905	-0.912300	0.025843
H456	H	1.198905	-0.412300	0.525843
H457	H	0.695507	-0.860825	0.085744
H458	H	1.195507	-0.360825	0.585744
H459	H	0.778281	-0.888718	0.143445
H460	H	1.278281	-0.388718	0.643445
H461	H	0.781669	-0.940208	0.083550
H462	H	1.281669	-0.440208	0.583550
H463	H	0.734625	-0.940116	0.143911
H464	H	1.234625	-0.440116	0.643911
