data_functionalizedCrystal
_audit_creation_method	'MofGen! by Chris Wilmer'
_symmetry_space_group_name_H-M	'P1'
_symmetry_Int_Tables_number	1
_symmetry_cell_setting	triclinic
loop_
_symmetry_equiv_pos_as_xyz
  x,y,z
_cell_length_a	9.065215
_cell_length_b	9.065218
_cell_length_c	9.730223
_cell_angle_alpha	89.997438
_cell_angle_beta	89.997253
_cell_angle_gamma	85.015291
loop_
_atom_site_label
_atom_site_type_symbol
_atom_site_fract_x
_atom_site_fract_y
_atom_site_fract_z
O1	O	1.960401	0.216336	-0.114268
O2	O	2.460401	0.716336	0.385732
O3	O	1.531116	0.234087	-0.114273
O4	O	2.031116	0.734087	0.385727
O5	O	1.754632	0.010569	-0.114268
O6	O	2.254632	0.510569	0.385732
O7	O	1.736885	0.439854	-0.114274
O8	O	2.236885	0.939854	0.385726
O9	O	1.754617	0.010563	0.114312
O10	O	2.254617	0.510563	0.614312
O11	O	1.531101	0.234081	0.114306
O12	O	2.031101	0.734081	0.614306
O13	O	1.960387	0.216330	0.114312
O14	O	2.460387	0.716330	0.614312
Zn15	Zn	1.745742	0.225204	0.150601
Zn16	Zn	2.245742	0.725204	0.650601
Zn17	Zn	1.745761	0.225212	-0.150563
Zn18	Zn	2.245761	0.725212	0.349437
O19	O	1.736871	0.439848	0.114306
O20	O	2.236871	0.939848	0.614306
C21	C	1.476122	0.232379	0.000016
C22	C	1.976122	0.732379	0.500016
C23	C	1.312279	0.227281	0.000013
C24	C	1.812279	0.727281	0.500013
C25	C	1.752919	-0.044421	0.000020
C26	C	2.252919	0.455579	0.500020
C27	C	1.747819	-0.208264	0.000013
C28	C	2.247819	0.291736	0.500013
C29	C	2.015381	0.218038	0.000020
C30	C	2.515381	0.718038	0.500020
C31	C	2.179224	0.223136	0.000013
C32	C	2.679224	0.723136	0.500013
C33	C	1.738584	0.494837	0.000016
C34	C	2.238584	0.994837	0.500016
C35	C	1.743683	0.658680	0.000013
C36	C	2.243683	1.158680	0.500013
N37	N	1.745739	0.225198	0.356138
N38	N	2.245739	0.725198	0.856138
N39	N	1.745775	0.225207	-0.356099
N40	N	2.245775	0.725207	0.143901
C41	C	1.844747	0.126266	0.428066
C42	C	2.344747	0.626266	0.928066
C43	C	1.844761	0.126267	0.571949
C44	C	2.344761	0.626267	1.071949
C45	C	1.646757	0.324143	0.571962
C46	C	2.146757	0.824143	1.071962
C47	C	1.646736	0.324134	0.428082
C48	C	2.146736	0.824134	0.928082
H49	H	1.925359	0.045704	0.369492
H50	H	2.425359	0.545704	0.869492
H51	H	1.566106	0.404697	0.369514
H52	H	2.066106	0.904697	0.869514
H53	H	1.925380	0.045707	0.630509
H54	H	2.425380	0.545707	1.130509
H55	H	1.566153	0.404697	0.630554
H56	H	2.066153	0.904697	1.130554
