data_functionalizedCrystal
_audit_creation_method	'MofGen! by Chris Wilmer'
_symmetry_space_group_name_H-M	'P1'
_symmetry_Int_Tables_number	1
_symmetry_cell_setting	triclinic
loop_
_symmetry_equiv_pos_as_xyz
  x,y,z
_cell_length_a	13.032831
_cell_length_b	13.032721
_cell_length_c	21.395355
_cell_angle_alpha	82.834036
_cell_angle_beta	97.194272
_cell_angle_gamma	90.902885
loop_
_atom_site_label
_atom_site_type_symbol
_atom_site_fract_x
_atom_site_fract_y
_atom_site_fract_z
Zn1	Zn	1.520304	-0.609589	0.516229
Zn2	Zn	2.020304	-0.109589	1.016229
Zn3	Zn	1.498335	-0.781529	0.422875
Zn4	Zn	1.998335	-0.281529	0.922875
Zn5	Zn	1.348308	-0.587707	0.396727
Zn6	Zn	1.848308	-0.087707	0.896727
Zn7	Zn	1.326451	-0.759634	0.512884
Zn8	Zn	1.826451	-0.259634	1.012884
O9	O	1.423349	-0.684615	0.462179
O10	O	1.923349	-0.184615	0.962179
O11	O	1.661304	-0.650717	0.516188
O12	O	2.161304	-0.150717	1.016188
O13	O	1.478386	-0.755823	0.331725
O14	O	1.978386	-0.255823	0.831725
O15	O	1.389464	-0.446701	0.403036
O16	O	1.889464	0.053299	0.903036
O17	O	1.645163	-0.777041	0.447601
O18	O	2.145163	-0.277041	0.947601
O19	O	1.515829	-0.462777	0.490834
O20	O	2.015829	0.037223	0.990834
O21	O	1.368162	-0.613423	0.312515
O22	O	1.868162	-0.113423	0.812515
O23	O	1.201494	-0.592194	0.399793
O24	O	1.701494	-0.092194	0.899793
O25	O	1.352214	-0.739725	0.601009
O26	O	1.852214	-0.239725	1.101009
O27	O	1.185436	-0.718508	0.485133
O28	O	1.685436	-0.218508	0.985133
O29	O	1.494636	-0.629487	0.603466
O30	O	1.994636	-0.129487	1.103466
O31	O	1.457193	-0.922534	0.444357
O32	O	1.957193	-0.422534	0.944357
O33	O	1.330911	-0.906448	0.510487
O34	O	1.830911	-0.406448	1.010487
C35	C	1.156149	-0.650601	0.439263
C36	C	1.656149	-0.150601	0.939263
C37	C	1.041837	-0.636075	0.429476
C38	C	1.541837	-0.136075	0.929476
C39	C	0.982943	-0.692196	0.467286
C40	C	1.482943	-0.192196	0.967286
C41	C	0.864794	-0.677184	0.457172
C42	C	1.364794	-0.177184	0.957172
C43	C	1.389324	-0.951808	0.479912
C44	C	1.889324	-0.451808	0.979912
C45	C	1.374862	-1.066127	0.487528
C46	C	1.874862	-0.566127	0.987528
C47	C	1.430952	-1.125025	0.458237
C48	C	1.930952	-0.625025	0.958237
C49	C	1.416006	-1.243180	0.466107
C50	C	1.916006	-0.743180	0.966107
C51	C	1.691593	-0.718762	0.485184
C52	C	2.191593	-0.218762	0.985184
C53	C	1.805902	-0.733313	0.494988
C54	C	2.305902	-0.233313	0.994988
C55	C	1.423437	-0.684605	0.625608
C56	C	1.923437	-0.184605	1.125608
C57	C	1.423475	-0.684601	0.695252
C58	C	1.923475	-0.184601	1.195252
C59	C	1.457535	-0.416381	0.444392
C60	C	1.957535	0.083619	0.944392
C61	C	1.472103	-0.302076	0.436812
C62	C	1.972103	0.197924	0.936812
C63	C	1.423330	-0.684558	0.299385
C64	C	1.923330	-0.184558	0.799385
C65	C	1.423529	-0.684298	0.229740
C66	C	1.923529	-0.184298	0.729740
C67	C	1.497632	-0.627197	0.729245
C68	C	1.997632	-0.127197	1.229245
C69	C	1.497636	-0.627152	0.794677
C70	C	1.997636	-0.127152	1.294677
C71	C	1.423492	-0.684531	0.826116
C72	C	1.923492	-0.184531	1.326116
C73	C	1.349321	-0.741938	0.792114
C74	C	1.849321	-0.241938	1.292114
C75	C	1.349313	-0.741973	0.726682
C76	C	1.849313	-0.241973	1.226682
C77	C	1.403580	-0.776096	0.935241
C78	C	1.903580	-0.276096	1.435241
C79	C	1.403595	-0.776065	1.000672
C80	C	1.903595	-0.276065	1.500672
C81	C	1.423512	-0.684424	1.027930
C82	C	1.923512	-0.184424	1.527930
C83	C	1.443435	-0.592814	0.989750
C84	C	1.943435	-0.092814	1.489750
C85	C	1.443427	-0.592849	0.924318
C86	C	1.943427	-0.092849	1.424318
C87	C	1.423492	-0.684500	0.897066
C88	C	1.923492	-0.184500	1.397066
C89	C	1.497678	-0.626966	1.132873
C90	C	1.997678	-0.126966	1.632873
C91	C	1.497675	-0.626919	1.198306
C92	C	1.997675	-0.126919	1.698306
C93	C	1.349365	-0.741715	1.195742
C94	C	1.849365	-0.241715	1.695742
C95	C	1.349363	-0.741753	1.130309
C96	C	1.849363	-0.241753	1.630309
C97	C	1.423525	-0.684380	1.098879
C98	C	1.923525	-0.184380	1.598879
H99	H	1.019990	-0.751355	0.507147
H100	H	1.519990	-0.251355	1.007147
N101	N	0.992774	-0.557714	0.376672
N102	N	1.492774	-0.057714	0.876672
H103	H	1.020765	-0.486607	0.383180
H104	H	1.520765	0.013393	0.883180
H105	H	0.915335	-0.558193	0.376959
H106	H	1.415335	-0.058193	0.876959
N107	N	0.815740	-0.598816	0.404366
N108	N	1.315740	-0.098816	0.904366
H109	H	0.738292	-0.599204	0.404623
H110	H	1.238292	-0.099204	0.904623
H111	H	0.832405	-0.617085	0.362249
H112	H	1.332405	-0.117085	0.862249
N113	N	1.269392	-0.803688	1.093645
N114	N	1.769392	-0.303688	1.593645
H115	H	1.280637	-0.795004	1.047424
H116	H	1.780637	-0.295004	1.547424
H117	H	1.197983	-0.778329	1.097705
H118	H	1.697983	-0.278329	1.597705
H119	H	1.490041	-1.087980	0.427335
H120	H	1.990041	-0.587980	0.927335
N121	N	1.269335	-0.803905	0.690017
N122	N	1.769335	-0.303905	1.190017
H123	H	1.280585	-0.795223	0.643796
H124	H	1.780585	-0.295223	1.143796
H125	H	1.197926	-0.778543	0.694074
H126	H	1.697926	-0.278543	1.194074
H127	H	1.288986	-0.788423	1.221337
H128	H	1.788986	-0.288423	1.721337
N129	N	0.854948	-0.811695	0.547789
N130	N	1.354948	-0.311695	1.047789
H131	H	0.838362	-0.793486	0.589938
H132	H	1.338362	-0.293486	1.089938
H133	H	0.932381	-0.811282	0.547476
H134	H	1.432381	-0.311282	1.047476
H135	H	1.356921	-1.280224	0.497016
H136	H	1.856921	-0.780224	0.997016
H137	H	1.315781	-1.103176	0.518434
H138	H	1.815781	-0.603176	1.018434
H139	H	1.387088	-0.850667	0.913029
H140	H	1.887088	-0.350667	1.413029
H141	H	1.531197	-1.265034	0.405909
H142	H	2.031197	-0.765034	0.905909
N143	N	1.577615	-0.565317	0.695345
N144	N	2.077615	-0.065317	1.195345
H145	H	1.624594	-0.528944	0.726813
H146	H	2.124594	-0.028944	1.226813
H147	H	1.541817	-0.512408	0.661437
H148	H	2.041817	-0.012408	1.161437
N149	N	1.577621	-0.565235	0.831353
N150	N	2.077621	-0.065235	1.331353
H151	H	1.624599	-0.528895	0.801513
H152	H	2.124599	-0.028895	1.301513
H153	H	1.619875	-0.613149	0.865372
H154	H	2.119875	-0.113149	1.365372
H155	H	1.459655	-0.518192	1.011941
H156	H	1.959655	-0.018192	1.511941
H157	H	1.459646	-0.518257	0.893234
H158	H	1.959646	-0.018257	1.393234
H159	H	1.558059	-0.580244	1.107280
H160	H	2.058059	-0.080244	1.607280
H161	H	1.558061	-0.580168	1.225982
H162	H	2.058061	-0.080168	1.725982
N163	N	1.382115	-0.874867	1.041850
N164	N	1.882115	-0.374867	1.541850
H165	H	1.369484	-0.932923	1.014654
H166	H	1.869484	-0.432923	1.514654
H167	H	1.318943	-0.865301	1.063456
H168	H	1.818943	-0.365301	1.563456
N169	N	1.269336	-0.803808	0.826015
N170	N	1.769336	-0.303808	1.326015
H171	H	1.280592	-0.795074	0.872625
H172	H	1.780592	-0.295074	1.372625
H173	H	1.275964	-0.879301	0.820837
H174	H	1.775964	-0.379301	1.320837
