data_functionalizedCrystal
_audit_creation_method	'MofGen! by Chris Wilmer'
_symmetry_space_group_name_H-M	'P1'
_symmetry_Int_Tables_number	1
_symmetry_cell_setting	triclinic
loop_
_symmetry_equiv_pos_as_xyz
  x,y,z
_cell_length_a	17.077404
_cell_length_b	10.686285
_cell_length_c	17.077396
_cell_angle_alpha	85.608118
_cell_angle_beta	89.980499
_cell_angle_gamma	85.631810
loop_
_atom_site_label
_atom_site_type_symbol
_atom_site_fract_x
_atom_site_fract_y
_atom_site_fract_z
Zn1	Zn	1.224115	-0.502339	-0.419935
Zn2	Zn	1.234129	-0.713359	-0.278625
Zn3	Zn	1.092848	-0.502383	-0.288680
Zn4	Zn	1.102918	-0.713284	-0.409853
O5	O	1.163502	-0.607841	-0.349273
O6	O	1.335290	-0.530344	-0.401201
O7	O	1.215364	-0.685422	-0.170110
O8	O	1.101856	-0.325802	-0.314519
O9	O	1.342648	-0.685379	-0.297382
O10	O	1.198297	-0.325769	-0.410951
O11	O	1.111566	-0.530419	-0.177497
O12	O	0.984337	-0.530347	-0.304743
O13	O	1.119018	-0.685252	-0.521039
O14	O	0.991734	-0.685295	-0.393768
O15	O	1.208061	-0.530271	-0.528447
O16	O	1.225128	-0.889924	-0.287606
O17	O	1.128728	-0.889869	-0.384018
C18	C	0.959553	-0.607818	-0.349253
C19	C	0.872305	-0.607839	-0.349261
C20	C	1.179129	-0.935681	-0.333644
C21	C	1.185885	-1.075932	-0.326983
C22	C	0.835193	-0.688642	-0.395530
C23	C	0.753212	-0.688645	-0.395542
C24	C	0.708346	-0.607850	-0.349281
C25	C	0.745463	-0.527038	-0.303011
C26	C	0.827441	-0.527030	-0.303003
C27	C	0.574594	-0.527063	-0.303028
C28	C	0.492610	-0.527072	-0.303035
C29	C	0.500365	-0.688678	-0.395568
C30	C	0.582344	-0.688670	-0.395560
C31	C	0.619455	-0.607859	-0.349288
C32	C	1.368248	-0.607865	-0.349294
C33	C	1.455498	-0.607875	-0.349303
C34	C	1.163545	-0.607748	-0.554022
C35	C	1.163564	-0.607709	-0.641274
C36	C	1.147836	-0.278722	-0.364981
C37	C	1.141160	-0.138470	-0.371675
C38	C	1.209930	-0.527004	-0.686123
C39	C	1.209937	-0.526962	-0.768105
C40	C	1.163582	-0.607632	-0.805237
C41	C	1.117211	-0.688341	-0.760382
C42	C	1.117200	-0.688375	-0.678402
C43	C	1.117239	-0.688265	-0.931256
C44	C	1.117251	-0.688232	-1.013242
C45	C	1.209976	-0.526851	-1.020959
C46	C	1.209965	-0.526886	-0.938979
C47	C	1.163595	-0.607596	-0.894130
C48	C	1.163500	-0.607843	-0.145325
C49	C	1.163617	-0.607527	-0.058091
H50	H	0.723000	-0.754444	-0.433218
H51	H	1.247695	-0.461247	-0.804617
C52	C	0.631698	-0.777548	-0.446445
C53	C	0.692760	-0.876536	-0.407602
C54	C	0.742114	-0.965413	-0.458489
C55	C	0.730405	-0.955303	-0.548220
C56	C	0.669339	-0.856311	-0.587069
C57	C	0.619986	-0.767433	-0.536181
H58	H	0.701431	-0.884024	-0.341173
H59	H	0.787319	-1.038694	-0.429730
H60	H	0.766939	-1.021096	-0.585890
H61	H	0.660669	-0.848823	-0.653497
H62	H	0.574781	-0.694153	-0.564940
C63	C	0.443243	-0.438176	-0.252171
C64	C	0.447670	-0.294745	-0.265592
C65	C	0.398299	-0.205840	-0.214736
C66	C	0.344501	-0.260367	-0.150459
C67	C	0.340072	-0.403805	-0.137035
C68	C	0.389443	-0.492710	-0.187891
H69	H	0.487496	-0.254375	-0.313176
H70	H	0.401577	-0.099657	-0.224674
H71	H	0.307953	-0.194554	-0.112813
H72	H	0.300246	-0.444176	-0.089451
H73	H	0.386165	-0.598893	-0.177953
H74	H	1.247716	-0.461204	-0.908748
C75	C	0.615422	-0.438169	-0.252134
C76	C	0.597314	-0.294738	-0.265526
C77	C	0.638144	-0.205850	-0.214632
C78	C	0.697082	-0.260392	-0.150346
C79	C	0.715192	-0.403831	-0.136951
C80	C	0.674362	-0.492719	-0.187845
H81	H	0.553683	-0.254355	-0.313117
H82	H	0.624737	-0.099667	-0.224549
H83	H	0.727307	-0.194592	-0.112672
H84	H	0.758824	-0.444213	-0.089361
H85	H	0.687769	-0.598902	-0.177929
C86	C	0.459549	-0.777571	-0.446471
C87	C	0.407894	-0.876568	-0.407640
C88	C	0.367076	-0.965465	-0.458537
C89	C	0.377912	-0.955365	-0.548264
C90	C	0.429569	-0.856363	-0.587100
C91	C	0.470388	-0.767466	-0.536203
H92	H	0.399870	-0.884049	-0.341214
H93	H	0.328835	-1.038753	-0.429788
H94	H	0.347696	-1.021171	-0.585941
H95	H	0.437593	-0.848882	-0.653526
H96	H	0.508628	-0.694179	-0.564952
H97	H	1.079503	-0.753918	-1.043473
C98	C	0.868269	-0.438145	-0.252108
C99	C	0.850159	-0.294715	-0.265503
C100	C	0.890986	-0.205821	-0.214611
C101	C	0.949924	-0.260358	-0.150324
C102	C	0.968037	-0.403795	-0.136926
C103	C	0.927210	-0.492689	-0.187818
H104	H	0.806527	-0.254337	-0.313095
H105	H	0.877577	-0.099639	-0.224529
H106	H	0.980146	-0.194553	-0.112651
H107	H	1.011669	-0.444173	-0.089334
H108	H	0.940619	-0.598871	-0.177899
H109	H	1.247732	-0.461131	-1.057480
H110	H	0.708925	-0.461248	-0.265348
C111	C	1.260922	-0.438263	-0.645281
C112	C	1.247687	-0.294813	-0.663399
C113	C	1.298678	-0.206066	-0.622560
C114	C	1.362904	-0.260771	-0.563603
C115	C	1.376142	-0.404229	-0.545482
C116	C	1.325151	-0.492975	-0.586321
H117	H	1.200140	-0.254311	-0.707045
H118	H	1.288878	-0.099869	-0.635974
H119	H	1.400650	-0.195075	-0.533371
H120	H	1.423688	-0.444731	-0.501836
H121	H	1.334951	-0.599172	-0.572906
H122	H	1.097701	-1.084717	-0.415034
H123	H	1.229342	-1.129693	-0.283617
C124	C	1.066238	-0.777049	-0.881914
C125	C	0.976511	-0.766756	-0.893651
C126	C	0.925519	-0.855543	-0.844305
C127	C	0.964254	-0.954624	-0.783222
C128	C	1.053986	-0.964921	-0.771483
C129	C	1.104978	-0.876134	-0.820828
H130	H	0.947833	-0.693406	-0.938870
H131	H	0.859093	-0.847919	-0.852996
H132	H	0.926506	-1.020349	-0.746694
H133	H	1.082664	-1.038271	-0.726263
H134	H	1.171404	-0.883758	-0.812138
C135	C	0.884542	-0.777519	-0.446420
C136	C	0.938327	-0.722963	-0.510698
C137	C	0.987674	-0.811839	-0.561592
C138	C	0.983235	-0.955272	-0.548207
C139	C	0.929448	-1.009836	-0.483926
C140	C	0.880102	-0.920960	-0.433032
H141	H	0.941614	-0.616778	-0.520609
H142	H	1.027490	-0.771447	-0.609177
H143	H	1.019765	-1.021064	-0.585882
H144	H	0.926161	-1.116020	-0.474015
H145	H	0.840285	-0.961352	-0.385446
H146	H	1.079465	-0.754019	-0.790622
H147	H	1.079435	-0.754081	-0.641887
