data_functionalizedCrystal
_audit_creation_method	'MofGen! by Chris Wilmer'
_symmetry_space_group_name_H-M	'P1'
_symmetry_Int_Tables_number	1
_symmetry_cell_setting	triclinic
loop_
_symmetry_equiv_pos_as_xyz
  x,y,z
_cell_length_a	12.645331
_cell_length_b	12.645330
_cell_length_c	19.076919
_cell_angle_alpha	92.274320
_cell_angle_beta	92.280814
_cell_angle_gamma	90.011625
loop_
_atom_site_label
_atom_site_type_symbol
_atom_site_fract_x
_atom_site_fract_y
_atom_site_fract_z
Zn1	Zn	1.596633	-0.446173	-0.397967
Zn2	Zn	2.096633	0.053827	0.102033
Zn3	Zn	1.603668	-0.616330	-0.280279
Zn4	Zn	2.103668	-0.116330	0.219721
Zn5	Zn	1.426485	-0.439078	-0.280286
Zn6	Zn	1.926485	0.060922	0.219714
Zn7	Zn	1.419347	-0.623389	-0.397934
Zn8	Zn	1.919347	-0.123389	0.102066
O9	O	1.511533	-0.531242	-0.339116
O10	O	2.011533	-0.031242	0.160884
O11	O	1.745913	-0.468759	-0.382367
O12	O	2.245913	0.031241	0.117633
O13	O	1.586095	-0.586894	-0.181790
O14	O	2.086095	-0.086894	0.318210
O15	O	1.449098	-0.291673	-0.295914
O16	O	1.949098	0.208327	0.204086
O17	O	1.751081	-0.593773	-0.295901
O18	O	2.251081	-0.093773	0.204099
O19	O	1.574105	-0.296885	-0.382374
O20	O	2.074105	0.203115	0.117626
O21	O	1.455919	-0.456668	-0.181796
O22	O	1.955919	0.043332	0.318204
O23	O	1.277191	-0.463513	-0.295881
O24	O	1.777191	0.036487	0.204119
O25	O	1.436933	-0.605805	-0.496427
O26	O	1.936933	-0.105805	0.003573
O27	O	1.271947	-0.598925	-0.382316
O28	O	1.771947	-0.098925	0.117684
O29	O	1.567184	-0.475604	-0.496452
O30	O	2.067184	0.024396	0.003548
O31	O	1.579174	-0.765613	-0.295869
O32	O	2.079174	-0.265613	0.204131
O33	O	1.443754	-0.770799	-0.382309
O34	O	1.943754	-0.270799	0.117691
C35	C	1.236104	-0.531216	-0.339096
C36	C	1.736104	-0.031216	0.160904
C37	C	1.118274	-0.531231	-0.339104
C38	C	1.618274	-0.031231	0.160896
C39	C	0.953955	-0.445685	-0.285028
C40	C	1.453955	0.054315	0.214972
C41	C	1.076529	-0.445883	-0.284789
C42	C	1.576529	0.054117	0.215211
C43	C	1.074992	-0.641678	-0.318842
C44	C	1.574992	-0.141678	0.181158
C45	C	0.952416	-0.641206	-0.318473
C46	C	1.452416	-0.141206	0.181527
C47	C	0.946601	-0.507407	-0.413651
C48	C	1.446601	-0.007407	0.086349
C49	C	1.069232	-0.504887	-0.413237
C50	C	1.569232	-0.004887	0.086763
C51	C	1.511481	-0.806671	-0.339100
C52	C	2.011481	-0.306671	0.160900
C53	C	1.511554	-0.924502	-0.339116
C54	C	2.011554	-0.424502	0.160884
C55	C	1.596622	-1.088753	-0.284626
C56	C	2.096622	-0.588753	0.215374
C57	C	1.596880	-0.966200	-0.284759
C58	C	2.096880	-0.466200	0.215241
C59	C	1.537355	-0.973380	-0.413305
C60	C	2.037355	-0.473380	0.086695
C61	C	1.538021	-1.095961	-0.413015
C62	C	2.038021	-0.595961	0.086985
C63	C	1.400609	-1.090678	-0.320149
C64	C	1.900609	-0.590678	0.179851
C65	C	1.401247	-0.967973	-0.318485
C66	C	1.901247	-0.467973	0.181515
C67	C	1.788037	-0.531270	-0.339137
C68	C	2.288037	-0.031270	0.160863
C69	C	1.905866	-0.531281	-0.339146
C70	C	2.405866	-0.031281	0.160854
C71	C	1.500478	-0.542283	-0.522691
C72	C	2.000478	-0.042283	-0.022691
C73	C	1.495767	-0.546988	-0.600919
C74	C	1.995767	-0.046988	-0.100919
C75	C	1.511613	-0.254739	-0.339148
C76	C	2.011613	0.245261	0.160852
C77	C	1.511647	-0.136910	-0.339162
C78	C	2.011647	0.363090	0.160838
C79	C	1.561365	-0.481413	-0.637685
C80	C	2.061365	0.018587	-0.137685
C81	C	1.556925	-0.485830	-0.711189
C82	C	2.056925	0.014170	-0.211189
C83	C	1.486892	-0.555828	-0.747926
C84	C	1.986892	-0.055828	-0.247926
C85	C	1.421287	-0.621405	-0.711155
C86	C	1.921287	-0.121405	-0.211155
C87	C	1.425722	-0.616983	-0.637652
C88	C	1.925722	-0.116983	-0.137652
C89	C	1.466352	-0.576319	-0.967754
C90	C	1.966352	-0.076319	-0.467754
C91	C	1.461924	-0.580739	-1.041262
C92	C	1.961924	-0.080739	-0.541262
C93	C	1.597562	-0.445162	-1.041291
C94	C	2.097562	0.054838	-0.541291
C95	C	1.601995	-0.440750	-0.967787
C96	C	2.101995	0.059250	-0.467787
C97	C	1.536386	-0.506324	-0.931023
C98	C	2.036386	-0.006324	-0.431023
N99	N	1.482355	-0.560347	-0.823059
N100	N	1.982355	-0.060347	-0.323059
N101	N	1.540918	-0.501799	-0.855891
N102	N	2.040918	-0.001799	-0.355891
C103	C	1.522606	-0.520168	-0.156256
C104	C	2.022606	-0.020168	0.343744
C105	C	1.527523	-0.515165	-0.078028
C106	C	2.027523	-0.015165	0.421972
H107	H	1.105853	-0.363842	-0.297490
H108	H	1.605853	0.136158	0.202510
H109	H	1.477153	-0.946761	-0.455027
H110	H	1.977153	-0.446761	0.044973
F111	F	1.643933	-1.134509	-0.434065
F112	F	2.143933	-0.634509	0.065935
F113	F	1.110087	-0.727012	-0.368750
F114	F	1.610087	-0.227012	0.131250
H115	H	0.923722	-0.363386	-0.297591
H116	H	1.423722	0.136614	0.202409
F117	F	1.368807	-1.126999	-0.250671
F118	F	1.868807	-0.626999	0.249329
H119	H	1.659026	-0.383753	-0.937881
H120	H	2.159026	0.116247	-0.437881
F121	F	1.667380	-0.375377	-1.080424
F122	F	2.167380	0.124623	-0.580424
F123	F	1.460311	-1.138068	-0.467932
F124	F	1.960311	-0.638068	0.032068
F125	F	1.704495	-0.928755	-0.301200
F126	F	2.204495	-0.428755	0.198800
F127	F	1.576405	-0.922624	-0.212866
F128	F	2.076405	-0.422624	0.287134
F129	F	1.317926	-1.131739	-0.372065
F130	F	1.817926	-0.631739	0.127935
F131	F	1.119331	-0.669420	-0.248413
F132	F	1.619331	-0.169420	0.251587
H133	H	1.109158	-0.461301	-0.229578
H134	H	1.609158	0.038699	0.270422
F135	F	0.905534	-0.588966	-0.466357
F136	F	1.405534	-0.088966	0.033643
F137	F	1.626781	-0.416072	-0.750315
F138	F	2.126781	0.083928	-0.250315
F139	F	1.635910	-0.406917	-0.598594
F140	F	2.135910	0.093083	-0.098594
F141	F	1.346748	-0.695898	-0.750255
F142	F	1.846748	-0.195898	-0.250255
F143	F	1.387378	-0.655240	-1.080358
F144	F	1.887378	-0.155240	-0.580358
H145	H	1.617442	-0.943585	-0.429678
H146	H	2.117442	-0.443585	0.070322
F147	F	1.375707	-0.925744	-0.247125
F148	F	1.875707	-0.425744	0.252875
H149	H	1.412944	-0.629729	-0.937829
H150	H	1.912944	-0.129729	-0.437829
F151	F	1.106065	-0.398690	-0.433215
F152	F	1.606065	0.101310	0.066785
H153	H	1.372294	-0.670370	-0.607718
H154	H	1.872294	-0.170370	-0.107718
H155	H	0.926438	-0.460914	-0.230141
H156	H	1.426438	0.039086	0.269859
H157	H	0.927076	-0.661980	-0.264006
H158	H	1.427076	-0.161980	0.235994
F159	F	1.576533	-1.123015	-0.212513
F160	F	2.076533	-0.623015	0.287487
H161	H	0.920491	-0.706899	-0.356172
H162	H	1.420491	-0.206899	0.143828
H163	H	0.914580	-0.428512	-0.432078
H164	H	1.414580	0.071488	0.067922
H165	H	1.097318	-0.563044	-0.455716
H166	H	1.597318	-0.063044	0.044284
H167	H	1.334884	-0.939588	-0.355294
H168	H	1.834884	-0.439588	0.144706
F169	F	1.703668	-1.129901	-0.300879
F170	F	2.203668	-0.629901	0.199121
