data_functionalizedCrystal
_audit_creation_method	'MofGen! by Chris Wilmer'
_symmetry_space_group_name_H-M	'P1'
_symmetry_Int_Tables_number	1
_symmetry_cell_setting	triclinic
loop_
_symmetry_equiv_pos_as_xyz
  x,y,z
_cell_length_a	16.109318
_cell_length_b	15.995292
_cell_length_c	15.186229
_cell_angle_alpha	89.999448
_cell_angle_beta	90.000224
_cell_angle_gamma	83.468590
loop_
_atom_site_label
_atom_site_type_symbol
_atom_site_fract_x
_atom_site_fract_y
_atom_site_fract_z
O1	O	1.103128	0.107696	-0.073149
O2	O	0.861069	0.121075	-0.073166
O3	O	0.988741	-0.007507	-0.073158
O4	O	0.975457	0.236278	-0.073157
O5	O	0.988732	-0.007509	0.073299
O6	O	0.861061	0.121073	0.073291
O7	O	1.103120	0.107694	0.073308
Zn8	Zn	0.982089	0.114383	0.096553
Zn9	Zn	0.982100	0.114386	-0.096411
O10	O	0.975448	0.236276	0.073301
C11	C	0.988196	-0.038703	0.000068
C12	C	0.986575	-0.131656	0.000061
C13	C	0.830090	0.120530	0.000060
C14	C	0.737796	0.118897	0.000054
C15	C	0.438726	0.113626	-0.079765
C16	C	0.525448	0.115154	-0.079770
C17	C	0.525457	0.115141	0.079906
C18	C	0.438738	0.113606	0.079910
C19	C	0.395374	0.112853	0.000072
C20	C	0.568815	0.115916	0.000062
C21	C	0.662842	0.117573	0.000057
C22	C	0.301341	0.111195	0.000077
C23	C	0.980616	-0.469393	0.000069
C24	C	1.072766	-0.446100	0.000403
C25	C	1.074517	-0.349425	0.000069
C26	C	0.983573	-0.301838	0.000066
C27	C	0.937507	-0.330928	-0.083569
C28	C	0.936398	-0.427718	-0.083636
C29	C	0.934506	-0.427577	0.082913
C30	C	0.937921	-0.331085	0.084015
C31	C	0.985239	-0.207142	0.000061
C32	C	0.978947	-0.564088	0.000068
C33	C	1.134099	0.108240	0.000080
C34	C	1.226393	0.109872	0.000081
C35	C	0.975993	0.267472	0.000072
C36	C	0.977614	0.360425	0.000073
N37	N	0.982087	0.114381	0.228246
N38	N	0.982108	0.114381	-0.228103
C39	C	1.038639	0.057464	0.453972
C40	C	1.038642	0.057462	0.546162
C41	C	0.925550	0.171301	0.546164
C42	C	0.925544	0.171298	0.453976
C43	C	0.982093	0.114381	0.407882
C44	C	0.982102	0.114382	0.592260
C45	C	0.982104	0.114380	0.692216
C46	C	0.982090	0.114381	0.307920
H47	H	0.560741	0.115782	-0.144782
N48	N	0.394418	0.112855	-0.161306
N49	N	0.338351	0.170986	-0.179115
H50	H	0.307058	0.170440	-0.236706
N51	N	1.119780	-0.325548	0.075266
N52	N	1.128825	-0.249893	0.087882
H53	H	1.160796	-0.233032	0.140991
H54	H	0.560774	0.115756	0.144907
H55	H	0.403440	0.112977	0.144927
H56	H	0.879510	0.217643	0.583702
N57	N	0.851649	-0.445982	-0.088404
N58	N	0.822050	-0.486958	-0.028253
H59	H	0.762199	-0.499858	-0.031624
H60	H	1.108281	-0.474106	0.060381
N61	N	1.117075	-0.482513	-0.074413
N62	N	1.081081	-0.525544	-0.127977
H63	H	1.112372	-0.551262	-0.180818
H64	H	1.110815	-0.331027	-0.059983
H65	H	0.968308	-0.454541	-0.146152
N66	N	0.867769	0.229441	0.406904
N67	N	0.817287	0.280257	0.448067
H68	H	0.776482	0.321317	0.414823
H69	H	0.870584	-0.299046	-0.086681
H70	H	1.084686	0.011115	0.583685
N71	N	0.977651	-0.305768	-0.161641
N72	N	1.040177	-0.266422	-0.155903
H73	H	1.068534	-0.248654	-0.211039
N74	N	0.970716	-0.463044	0.162432
N75	N	1.030953	-0.519579	0.159009
H76	H	1.056534	-0.544631	0.215164
H77	H	0.971464	-0.312528	0.145888
H78	H	0.866677	-0.441553	0.083474
N79	N	0.854668	-0.289660	0.090375
N80	N	0.827501	-0.237682	0.032876
H81	H	0.768707	-0.208409	0.037373
H82	H	1.084684	0.011118	0.416445
