data_functionalizedCrystal
_audit_creation_method	'MofGen! by Chris Wilmer'
_symmetry_space_group_name_H-M	'P1'
_symmetry_Int_Tables_number	1
_symmetry_cell_setting	triclinic
loop_
_symmetry_equiv_pos_as_xyz
  x,y,z
_cell_length_a	12.827893
_cell_length_b	19.121063
_cell_length_c	12.827885
_cell_angle_alpha	92.403785
_cell_angle_beta	89.980538
_cell_angle_gamma	92.468878
loop_
_atom_site_label
_atom_site_type_symbol
_atom_site_fract_x
_atom_site_fract_y
_atom_site_fract_z
Zn1	Zn	1.579838	-0.279578	-0.608539
Zn2	Zn	1.572238	-0.397045	-0.441232
Zn3	Zn	1.405076	-0.279613	-0.433815
Zn4	Zn	1.397574	-0.396992	-0.615928
O5	O	1.488682	-0.338307	-0.524878
O6	O	1.725065	-0.295168	-0.586357
O7	O	1.550023	-0.381504	-0.294014
O8	O	1.434579	-0.181324	-0.450795
O9	O	1.719482	-0.381470	-0.463437
O10	O	1.562975	-0.181298	-0.579165
O11	O	1.427210	-0.295227	-0.288565
O12	O	1.257845	-0.295176	-0.457961
O13	O	1.421793	-0.381381	-0.761182
O14	O	1.252334	-0.381414	-0.591759
O15	O	1.555701	-0.295117	-0.755753
O16	O	1.542749	-0.495322	-0.470602
O17	O	1.414424	-0.495284	-0.598951
C18	C	1.217172	-0.338293	-0.524858
C19	C	1.101019	-0.338305	-0.524875
C20	C	1.046530	-0.381045	-0.590989
C21	C	0.926479	-0.381057	-0.591008
C22	C	1.476976	-0.520787	-0.536406
C23	C	1.472064	-0.598853	-0.541373
C24	C	1.536620	-0.635525	-0.476937
C25	C	1.532006	-0.708876	-0.481614
C26	C	1.462831	-0.745553	-0.550723
C27	C	1.398272	-0.708876	-0.615166
C28	C	1.402892	-0.635526	-0.610493
C29	C	1.445542	-0.967022	-0.568177
C30	C	1.440925	-1.040377	-0.572842
C31	C	1.574661	-1.040372	-0.439292
C32	C	1.579270	-0.967021	-0.434621
C33	C	1.514716	-0.930350	-0.499067
C34	C	1.458111	-0.820530	-0.555503
C35	C	1.519441	-0.855374	-0.494292
C36	C	1.761251	-0.338321	-0.524900
C37	C	1.877403	-0.338327	-0.524909
C38	C	1.488758	-0.338239	-0.797444
C39	C	1.488790	-0.338210	-0.913596
C40	C	1.500461	-0.155115	-0.513328
C41	C	1.505481	-0.077049	-0.508406
C42	C	1.422550	-0.380879	-0.968066
C43	C	1.422582	-0.380850	-1.088115
C44	C	1.488669	-0.338324	-0.253370
C45	C	1.488851	-0.338155	-0.137206
H46	H	1.088758	-0.417624	-0.647580
H47	H	1.365819	-0.417433	-0.925825
H48	H	1.575768	-0.825510	-0.438028
H49	H	1.341952	-0.738744	-0.671440
H50	H	1.592945	-0.605667	-0.420657
H51	H	1.058791	-0.301720	-0.468290
O52	O	0.933118	-0.294648	-0.457274
C53	C	0.864171	-0.254908	-0.395838
H54	H	0.784499	-0.283632	-0.393910
H55	H	0.896228	-0.247369	-0.313067
H56	H	0.856034	-0.201590	-0.430858
H57	H	1.401786	-0.850401	-0.611769
H58	H	1.350325	-0.605668	-0.662965
O59	O	1.355069	-0.424510	-1.144026
C60	C	1.411727	-0.469809	-1.210042
H61	H	1.493714	-0.474176	-1.177367
H62	H	1.370462	-0.523859	-1.214787
H63	H	1.416819	-0.448025	-1.291349
O64	O	1.556367	-0.294531	-1.081237
C65	C	1.499705	-0.249206	-1.015266
H66	H	1.418902	-0.273990	-1.000573
H67	H	1.542782	-0.239854	-0.937885
H68	H	1.491615	-0.197125	-1.053991
H69	H	1.584574	-0.738731	-0.429143
O70	O	1.556578	-0.294579	-0.963816
C71	C	1.618142	-0.254897	-0.889861
H72	H	1.619964	-0.283636	-0.813840
H73	H	1.700938	-0.247419	-0.921014
H74	H	1.583310	-0.201550	-0.874927
H75	H	1.635598	-0.937159	-0.378347
O76	O	0.870441	-0.424647	-0.658500
C77	C	0.763051	-0.414964	-0.643482
H78	H	0.751701	-0.360728	-0.605950
H79	H	0.721227	-0.419769	-0.722018
H80	H	0.729389	-0.456565	-0.590336
O81	O	1.637338	-1.076103	-0.376811
C82	C	1.618417	-1.148708	-0.395735
H83	H	1.583507	-1.158701	-0.476983
H84	H	1.694949	-1.176541	-0.390504
H85	H	1.561499	-1.169592	-0.335023
H86	H	1.392977	-0.937170	-0.620650
O87	O	1.373705	-1.075898	-0.640077
C88	C	1.317701	-1.027803	-0.695943
H89	H	1.363794	-0.975490	-0.696266
H90	H	1.305189	-1.048962	-0.779615
H91	H	1.238837	-1.020067	-0.657123
