data_functionalizedCrystal
_audit_creation_method	'MofGen! by Chris Wilmer'
_symmetry_space_group_name_H-M	'P1'
_symmetry_Int_Tables_number	1
_symmetry_cell_setting	triclinic
loop_
_symmetry_equiv_pos_as_xyz
  x,y,z
_cell_length_a	17.917559
_cell_length_b	23.196402
_cell_length_c	23.196401
_cell_angle_alpha	60.008520
_cell_angle_beta	90.012927
_cell_angle_gamma	57.008855
loop_
_atom_site_label
_atom_site_type_symbol
_atom_site_fract_x
_atom_site_fract_y
_atom_site_fract_z
Zr1	Zr	0.754888	0.577931	-0.049100
O2	O	0.629726	0.707004	-0.145550
O3	O	0.793259	0.454963	-0.019535
O4	O	0.793217	0.575237	-0.139804
O5	O	0.629800	0.586726	0.069592
O6	O	0.922178	0.566167	-0.135270
O7	O	0.629769	0.586730	-0.025280
O8	O	0.922254	0.351019	0.079870
O9	O	0.629724	0.801875	-0.145548
O10	O	0.905864	0.496512	-0.003540
O11	O	0.809644	0.503278	0.063879
O12	O	0.809594	0.644885	-0.077723
O13	O	0.713375	0.651651	-0.010304
Zr14	Zr	0.960616	0.563460	0.109442
Zr15	Zr	0.960566	0.563466	-0.041869
Zr16	Zr	0.754937	0.577925	0.102211
Zr17	Zr	0.754884	0.729239	-0.049097
Zr18	Zr	0.960620	0.412152	0.109439
O19	O	0.922245	0.686429	0.079877
O20	O	0.922175	0.686437	-0.135268
O21	O	0.629796	0.706996	0.069594
O22	O	1.085777	0.434387	0.205892
O23	O	1.085707	0.434395	-0.009253
O24	O	0.793329	0.454954	0.195609
O25	O	1.085704	0.554665	-0.009250
O26	O	0.922287	0.566154	0.200146
O27	O	0.793326	0.575224	0.195612
O28	O	1.085735	0.554661	0.085622
O29	O	0.793211	0.790377	-0.139800
O30	O	0.922293	0.351014	0.200142
O31	O	1.085780	0.339516	0.205890
O32	O	1.085741	0.339521	0.085618
O33	O	0.629763	0.801871	-0.025276
O34	O	0.793250	0.790373	-0.019528
O35	O	0.905910	0.496506	0.138065
O36	O	1.002129	0.489740	0.070646
O37	O	0.905860	0.638114	-0.003537
O38	O	0.809640	0.644880	0.063882
C39	C	0.857757	0.381432	0.030167
C40	C	0.857759	0.317198	0.030166
C41	C	0.907979	-0.149176	-0.005008
C42	C	0.907977	-0.088817	-0.005015
C43	C	0.857753	-0.055104	0.030177
C44	C	0.807507	-0.081737	0.065363
C45	C	0.807503	-0.142089	0.065362
C46	C	0.864951	0.006416	0.092335
C47	C	0.864962	0.066763	0.092338
C48	C	0.857760	0.131044	0.030178
C49	C	0.850566	0.134962	-0.031984
C50	C	0.850562	0.074611	-0.031985
C51	C	0.857751	0.010338	0.030181
C52	C	0.907994	0.223123	-0.005017
C53	C	0.907985	0.283488	-0.005025
C54	C	0.807522	0.290560	0.065359
C55	C	0.807524	0.230203	0.065361
C56	C	0.857766	0.196485	0.030175
C57	C	0.600480	0.588789	0.021125
C58	C	0.513164	0.594930	0.018056
C59	C	0.362183	0.535254	0.047891
C60	C	0.353328	0.606133	0.012453
C61	C	0.442270	0.599898	0.015571
C62	C	0.273234	0.541488	0.044773
C63	C	1.115024	0.552602	0.039216
C64	C	1.202340	0.546461	0.042286
C65	C	0.857690	0.570703	-0.159096
C66	C	0.857669	0.570705	-0.223331
C67	C	0.857747	0.759959	0.030175
C68	C	0.857745	0.824193	0.030176
C69	C	0.807423	0.648152	-0.292227
C70	C	0.807447	0.648152	-0.352581
C71	C	0.857705	0.570701	-0.344036
C72	C	0.907963	0.493244	-0.275128
C73	C	0.907945	0.493246	-0.214775
C74	C	0.850570	0.514573	-0.411605
C75	C	0.850581	0.514574	-0.471958
C76	C	0.857766	0.570690	-0.530182
C77	C	0.864920	0.626821	-0.528052
C78	C	0.864902	0.626823	-0.467699
C79	C	0.857731	0.570690	-0.409474
C80	C	0.807543	0.648142	-0.664523
C81	C	0.807574	0.648138	-0.724877
C82	C	0.908084	0.493228	-0.647422
C83	C	0.908059	0.493234	-0.587070
C84	C	0.857783	0.570693	-0.595625
C85	C	0.857813	0.570688	0.219437
C86	C	0.857834	0.570686	0.283673
C87	C	1.115029	0.363339	0.039213
C88	C	1.202347	0.292964	0.042281
C89	C	0.857819	0.381425	0.219434
C90	C	0.857841	0.317188	0.283668
C91	C	1.115091	0.363332	0.228479
C92	C	1.202429	0.292954	0.295783
C93	C	0.600413	0.778060	-0.168137
C94	C	0.513074	0.848437	-0.235441
C95	C	0.600474	0.778052	0.021129
C96	C	0.513157	0.848427	0.018061
C97	C	0.857685	0.759966	-0.159092
C98	C	0.857662	0.824203	-0.223326
C99	C	1.193103	0.263450	0.004992
C100	C	1.275139	0.197334	0.007861
C101	C	1.366419	0.160729	0.048024
C102	C	1.375661	0.190250	0.085314
C103	C	1.293626	0.256368	0.082441
C104	C	0.908102	0.283488	0.352563
C105	C	0.908119	0.223139	0.412924
C106	C	0.857882	0.196488	0.404387
C107	C	0.807615	0.230195	0.335484
C108	C	0.807593	0.290547	0.275125
C109	C	1.293679	0.256372	0.292198
C110	C	1.375750	0.190253	0.355432
C111	C	1.366571	0.160713	0.422250
C112	C	1.275312	0.197302	0.425833
C113	C	1.193242	0.263424	0.362600
C114	C	0.421825	0.885027	-0.231857
C115	C	0.339753	0.951165	-0.295090
C116	C	0.348933	0.980708	-0.361908
C117	C	0.440192	0.944115	-0.365491
C118	C	0.522261	0.877982	-0.302258
C119	C	0.522401	0.877948	0.055344
C120	C	0.440365	0.944081	0.052458
C121	C	0.349085	0.980687	0.012293
C122	C	0.339843	0.951164	-0.024995
C123	C	0.421878	0.885037	-0.022113
C124	C	0.907910	0.850834	-0.214766
C125	C	0.907907	0.911182	-0.275115
C126	C	0.857651	0.944902	-0.344022
C127	C	0.807402	0.918265	-0.352580
C128	C	0.807411	0.857914	-0.292233
H129	H	0.844703	0.077806	-0.082600
H130	H	0.870766	0.672519	-0.575460
H131	H	0.949055	0.195701	0.469022
H132	H	0.857908	0.147345	0.453541
H133	H	0.265512	0.980979	-0.057697
H134	H	0.948824	0.932863	-0.268132
H135	H	0.949011	0.305180	0.359528
O136	O	1.474114	0.150765	0.128636
H137	H	1.513897	0.081390	0.170878
H138	H	1.301166	0.280390	0.112811
H139	H	0.948834	0.823388	-0.158664
H140	H	0.278950	0.671498	-0.020232
H141	H	0.447909	0.968107	0.082826
O142	O	0.460697	0.448676	0.091166
H143	H	0.500467	0.442402	0.133378
O144	O	0.620689	0.838508	-0.306114
H145	H	0.629020	0.810425	-0.335127
O146	O	0.872715	-0.062913	0.159384
H147	H	0.937899	-0.126542	0.176810
H148	H	0.766668	0.317979	0.219029
H149	H	1.118786	0.293252	-0.027722
O150	O	0.872627	0.687352	-0.465395
H151	H	0.937806	0.649944	-0.419178
O152	O	0.753377	-0.045414	0.103354
H153	H	0.761842	0.001008	0.097461
O154	O	0.241331	0.990612	-0.291218
H155	H	0.248744	0.958939	-0.234131
H156	H	0.948885	-0.067130	-0.033667
H157	H	1.267595	0.173307	-0.022506
O158	O	1.265425	0.165429	0.497906
H159	H	1.188186	0.201974	0.489784
H160	H	0.766713	0.208487	0.328544
O161	O	0.260606	1.051987	0.009210
H162	H	0.282379	1.066347	0.041899
O163	O	0.260411	1.052046	-0.430108
H164	H	0.195421	1.072519	-0.416383
H165	H	0.447655	0.968177	-0.419902
O166	O	0.842879	0.454005	-0.348792
H167	H	0.844099	0.463416	-0.306458
O168	O	1.454898	0.089409	0.051127
H169	H	1.433125	0.075034	0.018453
H170	H	1.301171	0.280413	0.237798
H171	H	0.766488	0.711226	-0.299199
O172	O	0.753242	0.731686	-0.426903
H173	H	0.718274	0.785548	-0.422713
H174	H	1.450050	0.160468	0.352502
H175	H	0.766490	0.836238	-0.299212
H176	H	0.414338	0.861004	-0.052472
O177	O	1.455092	0.089386	0.490450
H178	H	1.520083	0.068908	0.476725
O179	O	0.753334	0.731680	-0.673740
H180	H	0.718410	0.785535	-0.731791
H181	H	0.766595	-0.163771	0.094014
O182	O	0.620848	0.838483	0.098655
H183	H	0.613478	0.870141	0.124082
O184	O	1.094823	0.302862	0.366470
H185	H	1.102238	0.271198	0.423557
O186	O	0.411913	0.853174	-0.159793
H187	H	0.334667	0.889744	-0.167935
H188	H	0.948886	-0.176626	-0.033661
O189	O	0.857633	1.010008	-0.409108
H190	H	0.932447	0.981582	-0.406430
O191	O	0.842789	0.204292	-0.099039
H192	H	0.843986	0.245609	-0.088602
O193	O	0.962164	0.186762	-0.042976
H194	H	0.997082	0.215435	-0.067456
H195	H	0.766485	0.945729	-0.408693
H196	H	0.948888	0.305174	-0.033681
H197	H	0.766661	0.711206	-0.780977
H198	H	0.766623	0.208517	0.094015
O199	O	0.753365	0.326899	0.103331
H200	H	0.761816	0.373332	0.097429
H201	H	0.870828	0.063561	0.142956
H202	H	0.948971	0.430168	-0.530970
O203	O	0.962292	0.409688	-0.638193
H204	H	0.953859	0.422696	-0.691734
H205	H	0.948885	0.430183	-0.268174
O206	O	0.843042	0.453929	-0.474203
H207	H	0.838127	0.414856	-0.423553
H208	H	0.948863	0.430177	-0.158675
