data_functionalizedCrystal
_audit_creation_method	'MofGen! by Chris Wilmer'
_symmetry_space_group_name_H-M	'P1'
_symmetry_Int_Tables_number	1
_symmetry_cell_setting	triclinic
loop_
_symmetry_equiv_pos_as_xyz
  x,y,z
_cell_length_a	16.959455
_cell_length_b	13.897448
_cell_length_c	16.959447
_cell_angle_alpha	89.970550
_cell_angle_beta	89.977004
_cell_angle_gamma	90.014712
loop_
_atom_site_label
_atom_site_type_symbol
_atom_site_fract_x
_atom_site_fract_y
_atom_site_fract_z
Zn1	Zn	1.208417	-0.384072	-0.447042
Zn2	Zn	1.208339	-0.545390	-0.314865
Zn3	Zn	1.076240	-0.384102	-0.314865
Zn4	Zn	1.076216	-0.545318	-0.446990
O5	O	1.142303	-0.464721	-0.380940
O6	O	1.319018	-0.405488	-0.429530
O7	O	1.190793	-0.524038	-0.204254
O8	O	1.093816	-0.249117	-0.332420
O9	O	1.318961	-0.524008	-0.332420
O10	O	1.190926	-0.249094	-0.429530
O11	O	1.093740	-0.405541	-0.204254
O12	O	0.965626	-0.405471	-0.332370
O13	O	1.093775	-0.523885	-0.557608
O14	O	0.965608	-0.523915	-0.429442
O15	O	1.190903	-0.405418	-0.557646
O16	O	1.190770	-0.680362	-0.332370
O17	O	1.093700	-0.680309	-0.429442
C18	C	0.936937	-0.464689	-0.380901
C19	C	0.849080	-0.464699	-0.380902
C20	C	0.477564	-0.526373	-0.330350
C21	C	0.477645	-0.403148	-0.431627
C22	C	0.560191	-0.403133	-0.431608
C23	C	0.601427	-0.464739	-0.380960
C24	C	0.560118	-0.526361	-0.330331
C25	C	0.601507	-0.341519	-0.482242
C26	C	0.684058	-0.341501	-0.482225
C27	C	0.725296	-0.403103	-0.431572
C28	C	0.683981	-0.464727	-0.380941
C29	C	0.725217	-0.526333	-0.330292
C30	C	0.683904	-0.587953	-0.279656
C31	C	0.601355	-0.587963	-0.279678
C32	C	0.807844	-0.403093	-0.431551
C33	C	0.807771	-0.526321	-0.330273
C34	C	1.142245	-0.715335	-0.380918
C35	C	1.142293	-0.822549	-0.380934
C36	C	1.142376	-1.018844	-0.380984
C37	C	1.142328	-0.909611	-0.380959
C38	C	1.348471	-0.464753	-0.380981
C39	C	1.436328	-0.464767	-0.380998
C40	C	1.142345	-0.464640	-0.587109
C41	C	1.142363	-0.464606	-0.674965
C42	C	1.142383	-0.213128	-0.380981
C43	C	1.142416	-0.105914	-0.380998
C44	C	1.091902	-0.402808	-1.046447
C45	C	1.192964	-0.526201	-1.046435
C46	C	1.192950	-0.526223	-0.963889
C47	C	1.142411	-0.464538	-0.922619
C48	C	1.091885	-0.402831	-0.963894
C49	C	1.243470	-0.587937	-0.922608
C50	C	1.243457	-0.587962	-0.840057
C51	C	1.192921	-0.526272	-0.798784
C52	C	1.142394	-0.464561	-0.840065
C53	C	1.091855	-0.402876	-0.798794
C54	C	1.041331	-0.341160	-0.840073
C55	C	1.041349	-0.341140	-0.922622
C56	C	1.192903	-0.526291	-0.716236
C57	C	1.091838	-0.402899	-0.716241
C58	C	1.142306	-0.464731	-0.175574
C59	C	1.142442	-0.464493	-0.087718
H60	H	0.443923	-0.576539	-0.289121
O61	O	1.241932	-0.586371	-0.676223
C62	C	1.224607	-0.682499	-0.696351
H63	H	1.194235	-0.684475	-0.756281
H64	H	1.183944	-0.714985	-0.649876
C65	C	1.338943	-0.738526	-0.626554
C66	C	1.301646	-0.740953	-0.700165
H67	H	1.386463	-0.774586	-0.628903
H68	H	1.350614	-0.673764	-0.612990
H69	H	1.305049	-0.765596	-0.587832
H70	H	1.335536	-0.713873	-0.738883
H71	H	1.289982	-0.805713	-0.713735
H72	H	1.284607	-0.638168	-0.956216
H73	H	1.284596	-0.638216	-0.806454
O74	O	0.847790	-0.586306	-0.281157
C75	C	0.827598	-0.682470	-0.298283
H76	H	0.804942	-0.687438	-0.361426
H77	H	0.779653	-0.707623	-0.255878
C78	C	0.928740	-0.740723	-0.211425
C79	C	0.900919	-0.746827	-0.288980
H80	H	0.973966	-0.780424	-0.205683
H81	H	0.942342	-0.675936	-0.199883
H82	H	0.888779	-0.761682	-0.176096
H83	H	0.940877	-0.725857	-0.324307
H84	H	0.887326	-0.811612	-0.300527
H85	H	0.567926	-0.291368	-0.523482
H86	H	0.717489	-0.638117	-0.238422
H87	H	0.717688	-0.291326	-0.523456
O88	O	0.847890	-0.343295	-0.480844
C89	C	0.827783	-0.364525	-0.559597
H90	H	0.767844	-0.401615	-0.561195
H91	H	0.874255	-0.414155	-0.586132
C92	C	0.897632	-0.225014	-0.605660
C93	C	0.824010	-0.270562	-0.607623
H94	H	0.895308	-0.167055	-0.635286
H95	H	0.911181	-0.210713	-0.552603
H96	H	0.936351	-0.266383	-0.627770
H97	H	0.785295	-0.229199	-0.585504
H98	H	0.810455	-0.284855	-0.660678
H99	H	1.234105	-0.576429	-1.080042
H100	H	0.567711	-0.638130	-0.238452
O101	O	1.042741	-0.342999	-1.086576
C102	C	0.991694	-0.397888	-1.134321
H103	H	0.986781	-0.473867	-1.109430
H104	H	1.016145	-0.401192	-1.196888
C105	C	0.915573	-0.257430	-1.166154
C106	C	0.909534	-0.350747	-1.135579
H107	H	0.864894	-0.228350	-1.166934
H108	H	0.949966	-0.220449	-1.133990
H109	H	0.935952	-0.260196	-1.218290
H110	H	0.889164	-0.347978	-1.083441
H111	H	0.875135	-0.387727	-1.167735
H112	H	0.444066	-0.352997	-0.472867
H113	H	1.050685	-0.352662	-0.682644
O114	O	0.992188	-0.281337	-0.962757
C115	C	0.941143	-0.336237	-1.010496
H116	H	0.936230	-0.412210	-0.985594
H117	H	0.965597	-0.339554	-1.073061
C118	C	0.865023	-0.195786	-1.042352
C119	C	0.858983	-0.289096	-1.011763
H120	H	0.814343	-0.166706	-1.043137
H121	H	0.899414	-0.158797	-1.010192
H122	H	0.885404	-0.198563	-1.094487
H123	H	0.838612	-0.286317	-0.959626
H124	H	0.824586	-0.326083	-1.043915
H125	H	1.000178	-0.290940	-0.806460
