data_functionalizedCrystal
_audit_creation_method	'MofGen! by Chris Wilmer'
_symmetry_space_group_name_H-M	'P1'
_symmetry_Int_Tables_number	1
_symmetry_cell_setting	triclinic
loop_
_symmetry_equiv_pos_as_xyz
  x,y,z
_cell_length_a	10.540539
_cell_length_b	19.188930
_cell_length_c	9.016244
_cell_angle_alpha	90.011088
_cell_angle_beta	90.000957
_cell_angle_gamma	83.835137
loop_
_atom_site_label
_atom_site_type_symbol
_atom_site_fract_x
_atom_site_fract_y
_atom_site_fract_z
O1	O	1.683716	0.098393	0.123289
O2	O	1.314099	0.107663	0.123309
O3	O	1.509574	0.001443	0.123270
O4	O	1.488241	0.204612	0.123329
O5	O	1.509563	0.001437	-0.123411
O6	O	1.314088	0.107657	-0.123371
O7	O	1.683705	0.098387	-0.123392
Cu8	Cu	1.498896	0.103021	-0.145905
Cu9	Cu	1.498909	0.103029	0.145823
O10	O	1.488230	0.204606	-0.123352
C11	C	1.266806	0.106965	-0.000029
C12	C	1.125904	0.104885	-0.000023
C13	C	1.508878	-0.024575	-0.000075
C14	C	1.506804	-0.102094	-0.000088
C15	C	0.944233	0.025184	-0.000622
C16	C	1.090805	0.027292	-0.000050
C17	C	1.063414	0.142229	0.140849
C18	C	0.916928	0.139581	0.140951
C19	C	0.916393	0.141153	-0.139570
C20	C	1.063359	0.141867	-0.141417
C21	C	1.621502	-0.146253	-0.000101
C22	C	1.619554	-0.219090	-0.000077
C23	C	1.502901	-0.247764	-0.000070
C24	C	1.388187	-0.203595	-0.000048
C25	C	1.390139	-0.130760	-0.000057
N26	N	1.413730	-0.356366	-0.084015
N27	N	1.411884	-0.425556	-0.084010
C28	C	1.497014	-0.467212	-0.000039
N29	N	1.584079	-0.437064	0.083907
N30	N	1.585929	-0.367867	0.083895
C31	C	1.500772	-0.326741	-0.000059
C32	C	1.609608	-0.590350	-0.000025
C33	C	1.607655	-0.663188	0.000008
C34	C	1.376285	-0.647691	0.000023
C35	C	1.378241	-0.574855	0.000004
C36	C	1.494906	-0.546189	-0.000026
C37	C	1.730998	0.099085	-0.000050
C38	C	1.871901	0.101165	-0.000047
C39	C	1.488927	0.230625	-0.000004
C40	C	1.491000	0.308143	0.000018
N41	N	1.498896	0.103016	-0.351092
C42	C	1.603520	0.046202	-0.414037
C43	C	1.603902	0.046359	-0.585928
C44	C	1.526887	0.176108	-0.586541
C45	C	1.527624	0.175768	-0.414597
C46	C	1.365990	0.087406	-0.414478
C47	C	1.366904	0.085763	-0.586435
N48	N	1.498918	0.103029	0.351009
H49	H	1.134062	-0.002092	-0.101034
Br50	Br	0.835625	0.234564	-0.141130
Br51	Br	1.779832	-0.107352	-0.000101
Br52	Br	1.135352	0.099003	0.315571
H53	H	1.452674	0.219446	-0.627385
Br54	Br	1.768325	0.063156	-0.654487
H55	H	1.587389	-0.007933	-0.628154
H56	H	1.712958	-0.255051	-0.000082
H57	H	1.284841	-0.538899	0.000007
H58	H	1.624523	0.189379	-0.374482
H59	H	1.281303	-0.671037	0.000036
Br60	Br	1.229871	-0.242508	-0.000019
H61	H	1.296735	-0.094804	-0.000047
Br62	Br	0.895007	-0.025695	0.166785
Br63	Br	1.101648	0.236158	-0.155567
H64	H	0.889331	0.111985	0.246239
Br65	Br	1.406409	0.248942	-0.345183
Br66	Br	1.686542	0.199319	-0.658295
Br67	Br	1.231178	0.150153	-0.657961
Br68	Br	1.331467	-0.003839	-0.654506
H69	H	1.587303	-0.008270	-0.372687
Br70	Br	1.236240	0.156443	-0.346631
Br71	Br	0.897703	-0.025914	-0.169013
Br72	Br	1.161435	-0.021800	0.168820
Br73	Br	1.767934	-0.551441	-0.000081
Br74	Br	0.834920	0.232588	0.151634
Br75	Br	1.320797	0.000393	-0.342257
Br76	Br	1.763331	-0.723121	0.000006
Br77	Br	1.132449	0.096317	-0.315120
Br78	Br	1.098614	0.237197	0.149654
Br79	Br	0.864736	0.099293	-0.317545
H80	H	1.701609	0.056127	-0.370799
