data_functionalizedCrystal
_audit_creation_method	'MofGen! by Chris Wilmer'
_symmetry_space_group_name_H-M	'P1'
_symmetry_Int_Tables_number	1
_symmetry_cell_setting	triclinic
loop_
_symmetry_equiv_pos_as_xyz
  x,y,z
_cell_length_a	15.944545
_cell_length_b	22.010155
_cell_length_c	15.944551
_cell_angle_alpha	90.003301
_cell_angle_beta	96.502545
_cell_angle_gamma	90.005679
loop_
_atom_site_label
_atom_site_type_symbol
_atom_site_fract_x
_atom_site_fract_y
_atom_site_fract_z
O1	O	1.114534	0.050487	-0.108295
O2	O	1.614534	0.550487	0.391705
O3	O	0.869983	0.050497	-0.121657
O4	O	1.369983	0.550497	0.378343
O5	O	0.998937	0.050486	0.007299
O6	O	1.498937	0.550486	0.507299
O7	O	0.985580	0.050498	-0.237251
O8	O	1.485580	0.550498	0.262749
O9	O	0.998913	-0.050564	0.007279
O10	O	1.498913	0.449436	0.507279
O11	O	0.869960	-0.050553	-0.121676
O12	O	1.369960	0.449447	0.378324
O13	O	1.114510	-0.050563	-0.108315
O14	O	1.614510	0.449437	0.391685
Cu15	Cu	0.992233	-0.059785	-0.114997
Cu16	Cu	1.492233	0.440215	0.385003
Cu17	Cu	0.992261	0.059719	-0.114974
Cu18	Cu	1.492261	0.559719	0.385026
O19	O	0.985557	-0.050552	-0.237270
O20	O	1.485557	0.449448	0.262730
C21	C	0.838677	-0.000027	-0.121113
C22	C	1.338677	0.499973	0.378887
C23	C	0.745431	-0.000023	-0.119453
C24	C	1.245431	0.499977	0.380547
C25	C	0.474798	-0.000034	-0.034559
C26	C	0.974798	0.499966	0.465441
C27	C	0.525368	-0.049856	-0.075497
C28	C	1.025368	0.450144	0.424503
C29	C	0.409787	-0.000034	-0.113532
C30	C	0.909787	0.499966	0.386468
C31	C	0.525372	0.049771	-0.075500
C32	C	1.025372	0.549771	0.424500
C33	C	0.574701	-0.000028	-0.116437
C34	C	1.074701	0.499972	0.383563
C35	C	0.459129	-0.049898	-0.154449
C36	C	0.959129	0.450102	0.345551
C37	C	0.459129	0.049775	-0.154440
C38	C	0.959129	0.549775	0.345560
C39	C	0.509667	-0.000060	-0.195436
C40	C	1.009667	0.499940	0.304564
C41	C	0.314785	-0.000038	-0.111856
C42	C	0.814785	0.499962	0.388144
C43	C	0.669700	-0.000028	-0.118119
C44	C	1.169700	0.499972	0.381881
N45	N	0.992219	-0.143837	-0.115013
N46	N	1.492219	0.356163	0.384987
C47	C	1.049364	-0.563622	-0.057881
C48	C	1.549364	-0.063622	0.442119
C49	C	1.049368	-0.627229	-0.057875
C50	C	1.549368	-0.127229	0.442125
O51	O	1.097921	-0.660125	-0.009310
O52	O	1.597921	-0.160125	0.490690
N53	N	0.992260	-0.659045	-0.114957
N54	N	1.492260	-0.159045	0.385043
C55	C	0.935138	-0.627249	-0.172042
C56	C	1.435138	-0.127249	0.327958
O57	O	0.886563	-0.660151	-0.220594
O58	O	1.386563	-0.160151	0.279406
C59	C	0.935131	-0.563643	-0.172043
C60	C	1.435131	-0.063643	0.327957
C61	C	0.992249	-0.531830	-0.114964
C62	C	1.492249	-0.031830	0.385036
C63	C	1.106477	-0.531809	-0.000805
C64	C	1.606477	-0.031809	0.499195
C65	C	1.106474	-0.468206	-0.000812
C66	C	1.606474	0.031794	0.499188
C67	C	1.049358	-0.436415	-0.057895
C68	C	1.549358	0.063585	0.442105
C69	C	0.992246	-0.468227	-0.114971
C70	C	1.492246	0.031773	0.385029
C71	C	0.878006	-0.531848	-0.229124
C72	C	1.378006	-0.031848	0.270876
C73	C	0.878004	-0.468237	-0.229120
C74	C	1.378004	0.031763	0.270880
C75	C	0.935121	-0.436425	-0.172040
C76	C	1.435121	0.063575	0.327960
C77	C	0.935127	-0.372833	-0.172060
C78	C	1.435127	0.127167	0.327940
N79	N	0.992236	-0.341018	-0.114979
N80	N	1.492236	0.158982	0.385021
C81	C	1.049351	-0.372809	-0.057896
C82	C	1.549351	0.127191	0.442104
C83	C	0.935157	-0.760827	-0.172035
C84	C	1.435157	-0.260827	0.327965
C85	C	0.935168	-0.824432	-0.172038
C86	C	1.435168	-0.324432	0.327962
C87	C	1.049397	-0.824408	-0.057870
C88	C	1.549397	-0.324408	0.442130
C89	C	1.049389	-0.760801	-0.057871
C90	C	1.549389	-0.260801	0.442129
C91	C	0.992265	-0.729011	-0.114953
C92	C	1.492265	-0.229011	0.385047
C93	C	1.049341	-0.239237	-0.057916
C94	C	1.549341	0.260763	0.442084
C95	C	1.049335	-0.175628	-0.057930
C96	C	1.549335	0.324372	0.442070
C97	C	0.935103	-0.175658	-0.172095
C98	C	1.435103	0.324342	0.327905
C99	C	0.935112	-0.239262	-0.172084
C100	C	1.435112	0.260738	0.327916
C101	C	0.992234	-0.271050	-0.114987
C102	C	1.492234	0.228950	0.385013
O103	O	0.886597	-0.339897	-0.220598
O104	O	1.386597	0.160103	0.279402
O105	O	1.097911	-0.339899	-0.009345
O106	O	1.597911	0.160101	0.490655
C107	C	1.145816	-0.000038	-0.108859
C108	C	1.645816	0.499962	0.391141
C109	C	1.239062	-0.000038	-0.110519
C110	C	1.739062	0.499962	0.389481
C111	C	0.998370	-0.000039	0.038583
C112	C	1.498370	0.499961	0.538583
C113	C	0.996708	-0.000039	0.131829
C114	C	1.496708	0.499961	0.631829
N115	N	0.992281	0.143771	-0.114952
N116	N	1.492281	0.643771	0.385048
C117	C	0.986123	-0.000026	-0.268555
C118	C	1.486123	0.499974	0.231445
C119	C	0.987785	-0.000022	-0.361801
C120	C	1.487785	0.499978	0.138199
C121	C	0.912803	-0.000027	0.346684
C122	C	1.412803	0.499973	0.846684
C123	C	0.951754	-0.049853	0.407693
C124	C	1.451754	0.450147	0.907693
C125	C	0.993701	-0.000034	0.302555
C126	C	1.493701	0.499966	0.802555
C127	C	0.951797	0.049775	0.407695
C128	C	1.451797	0.549775	0.907695
C129	C	0.990790	-0.000027	0.467468
C130	C	1.490790	0.499973	0.967468
C131	C	1.032674	-0.049901	0.362335
C132	C	1.532674	0.450099	0.862335
C133	C	1.032705	0.049771	0.362331
C134	C	1.532705	0.549771	0.862331
C135	C	1.071715	-0.000066	0.423322
C136	C	1.571715	0.499934	0.923322
C137	C	0.995375	-0.000039	0.207553
C138	C	1.495375	0.499961	0.707553
C139	C	0.989122	-0.000027	0.562469
C140	C	1.489122	0.499973	1.062469
H141	H	0.554299	0.091890	-0.042126
H142	H	1.054299	0.591890	0.457874
Br143	Br	1.183989	-0.425040	0.076660
Br144	Br	1.683989	0.074960	0.576660
H145	H	0.430310	-0.092064	-0.187785
H146	H	0.930310	0.407936	0.312215
H147	H	1.066902	0.091894	0.342210
H148	H	1.566902	0.591894	0.842210
Br149	Br	1.089645	-0.120186	0.329012
Br150	Br	1.589645	0.379814	0.829012
Br151	Br	1.126860	-0.132458	0.019537
Br152	Br	1.626860	0.367542	0.519537
Br153	Br	0.410896	0.119988	-0.209969
Br154	Br	0.910896	0.619988	0.290031
Br155	Br	0.573569	-0.120068	-0.019926
Br156	Br	1.073569	0.379932	0.480074
Br157	Br	1.183730	-0.000113	0.478595
Br158	Br	1.683730	0.499887	0.978595
Br159	Br	0.857604	-0.282433	-0.249563
Br160	Br	1.357604	0.217567	0.250437
H161	H	1.152987	-0.557688	0.045682
H162	H	1.652987	-0.057688	0.545682
H163	H	0.525158	-0.000086	-0.263501
H164	H	1.025158	0.499914	0.236499
Br165	Br	0.894759	0.119977	0.441196
Br166	Br	1.394759	0.619977	0.941196
H167	H	1.095854	-0.265112	-0.011421
H168	H	1.595854	0.234888	0.488579
H169	H	0.888603	-0.149764	-0.218574
H170	H	1.388603	0.350236	0.281426
Br171	Br	1.126909	-0.717635	0.019597
Br172	Br	1.626909	-0.217635	0.519597
H173	H	0.459145	-0.000085	0.033453
H174	H	0.959145	0.499915	0.533453
H175	H	0.888666	-0.850329	-0.218527
H176	H	1.388666	-0.350329	0.281473
Br177	Br	1.126911	-0.867566	0.019600
Br178	Br	1.626911	-0.367566	0.519600
Br179	Br	0.800469	-0.425098	-0.306590
Br180	Br	1.300469	0.074902	0.193410
Br181	Br	0.857629	-0.717689	-0.249516
Br182	Br	1.357629	-0.217689	0.250484
Br183	Br	0.800886	-0.000100	0.291168
Br184	Br	1.300886	0.499900	0.791168
H185	H	0.831496	-0.557741	-0.275603
H186	H	1.331496	-0.057741	0.224397
Br187	Br	0.894713	-0.120059	0.441192
Br188	Br	1.394713	0.379941	0.941192
