data_functionalizedCrystal
_audit_creation_method	'MofGen! by Chris Wilmer'
_symmetry_space_group_name_H-M	'P1'
_symmetry_Int_Tables_number	1
_symmetry_cell_setting	triclinic
loop_
_symmetry_equiv_pos_as_xyz
  x,y,z
_cell_length_a	12.645331
_cell_length_b	18.050589
_cell_length_c	12.645323
_cell_angle_alpha	89.974557
_cell_angle_beta	89.977324
_cell_angle_gamma	90.027200
loop_
_atom_site_label
_atom_site_type_symbol
_atom_site_fract_x
_atom_site_fract_y
_atom_site_fract_z
Zn1	Zn	1.620654	-0.295674	-0.599442
Zn2	Zn	1.620503	-0.419873	-0.422180
Zn3	Zn	1.443368	-0.295699	-0.422186
Zn4	Zn	1.443317	-0.419824	-0.599396
O5	O	1.531961	-0.357767	-0.510801
O6	O	1.768981	-0.312159	-0.575945
O7	O	1.596964	-0.403432	-0.273834
O8	O	1.466970	-0.191771	-0.445722
O9	O	1.768870	-0.403407	-0.445711
O10	O	1.597221	-0.191753	-0.575951
O11	O	1.466824	-0.312202	-0.273838
O12	O	1.295014	-0.312155	-0.445677
O13	O	1.466883	-0.403325	-0.747749
O14	O	1.294977	-0.403349	-0.575872
O15	O	1.597172	-0.312112	-0.747783
O16	O	1.596914	-0.523791	-0.445666
O17	O	1.466737	-0.523755	-0.575866
C18	C	1.256531	-0.357750	-0.510770
C19	C	1.138701	-0.357760	-0.510783
C20	C	0.971125	-0.300126	-0.429329
C21	C	1.093685	-0.300275	-0.428970
C22	C	1.094160	-0.435993	-0.480267
C23	C	0.971562	-0.435678	-0.479711
C24	C	0.971557	-0.337906	-0.623067
C25	C	1.094163	-0.336158	-0.622443
C26	C	1.531833	-0.550720	-0.510784
C27	C	1.531875	-0.633265	-0.510811
C28	C	1.461154	-0.832724	-0.581589
C29	C	1.435307	-0.882166	-0.484854
C30	C	1.531979	-0.784396	-0.510825
C31	C	1.557878	-0.882035	-0.607571
C32	C	1.532078	-0.930381	-0.510847
C33	C	1.506082	-0.832751	-0.414039
C34	C	1.628697	-0.832616	-0.536821
C35	C	1.602887	-0.882036	-0.440020
C36	C	1.531919	-0.700297	-0.510814
C37	C	1.532137	-1.014477	-0.510847
C38	C	1.808466	-0.357786	-0.510832
C39	C	1.926296	-0.357793	-0.510846
C40	C	1.532039	-0.357710	-0.787307
C41	C	1.532072	-0.357686	-0.905137
C42	C	1.532118	-0.164062	-0.510842
C43	C	1.532185	-0.081516	-0.510859
C44	C	1.449855	-0.414797	-1.072679
C45	C	1.450070	-0.415080	-0.950119
C46	C	1.643766	-0.378927	-0.949656
C47	C	1.643315	-0.379285	-1.072254
C48	C	1.503651	-0.279014	-1.072336
C49	C	1.501159	-0.279485	-0.949729
C50	C	1.531944	-0.357771	-0.235371
C51	C	1.532116	-0.357586	-0.117542
H52	H	1.401172	-0.811071	-0.641347
H53	H	1.353563	-0.903947	-0.462887
H54	H	0.942911	-0.452544	-0.397672
H55	H	1.484121	-0.811191	-0.332209
C56	C	1.475577	-0.493776	-0.910614
C57	C	1.581136	-0.530608	-0.940930
C58	C	1.606683	-0.609315	-0.901478
C59	C	1.526672	-0.651190	-0.831709
C60	C	1.421106	-0.614359	-0.801389
C61	C	1.395558	-0.535652	-0.840841
H62	H	1.640372	-0.499609	-0.992581
H63	H	1.684831	-0.636579	-0.923923
H64	H	1.545583	-0.709454	-0.802504
H65	H	1.361870	-0.645359	-0.749738
H66	H	1.317411	-0.508388	-0.818396
C67	C	1.576194	-0.218855	-0.908373
C68	C	1.585494	-0.204607	-0.788677
C69	C	1.660543	-0.143980	-0.747322
C70	C	1.726291	-0.097602	-0.825663
C71	C	1.716993	-0.111849	-0.945366
C72	C	1.641945	-0.172476	-0.986721
H73	H	1.536822	-0.238940	-0.730678
H74	H	1.667425	-0.133434	-0.658710
H75	H	1.781846	-0.052723	-0.795049
H76	H	1.765666	-0.077516	-1.003365
H77	H	1.635062	-0.183022	-1.075333
H78	H	0.941905	-0.480100	-0.536495
H79	H	0.942567	-0.379909	-0.683804
H80	H	1.124811	-0.453148	-0.399108
H81	H	1.662823	-0.903551	-0.380117
H82	H	1.710423	-0.810837	-0.558835
H83	H	1.706683	-0.339424	-1.101934
H84	H	1.124810	-0.375097	-0.686428
C85	C	1.587426	-0.911283	-0.718084
C86	C	1.509704	-0.961210	-0.778977
C87	C	1.539243	-0.990455	-0.889491
C88	C	1.646503	-0.969774	-0.939112
C89	C	1.724232	-0.919845	-0.878219
C90	C	1.694694	-0.890600	-0.767705
H91	H	1.430297	-0.976521	-0.742245
H92	H	1.481702	-1.027416	-0.934569
H93	H	1.668370	-0.991424	-1.020922
H94	H	1.803639	-0.904534	-0.914951
H95	H	1.752234	-0.853639	-0.722627
C96	C	1.338180	-0.397110	-0.909458
C97	C	1.319877	-0.328632	-0.839219
C98	C	1.207981	-0.310658	-0.798570
C99	C	1.114389	-0.361162	-0.828159
C100	C	1.132689	-0.429644	-0.898401
C101	C	1.244585	-0.447618	-0.939051
H102	H	1.389162	-0.291242	-0.817312
H103	H	1.194435	-0.259963	-0.746571
H104	H	1.031557	-0.347857	-0.798068
H105	H	1.063404	-0.467034	-0.920309
H106	H	1.258131	-0.498313	-0.991049
C107	C	1.337627	-0.397008	-1.112487
C108	C	1.286770	-0.321654	-1.086659
C109	C	1.174541	-0.303861	-1.126476
C110	C	1.113168	-0.361420	-1.192122
C111	C	1.164025	-0.436779	-1.217954
C112	C	1.276254	-0.454573	-1.178137
H113	H	1.332202	-0.279041	-1.038061
H114	H	1.136894	-0.248075	-1.107354
H115	H	1.030090	-0.348248	-1.221598
H116	H	1.118593	-0.479392	-1.266552
H117	H	1.313901	-0.510358	-1.197259
C118	C	1.675912	-0.456874	-1.110930
C119	C	1.774803	-0.466268	-1.180745
C120	C	1.807401	-0.543856	-1.219423
C121	C	1.741108	-0.612052	-1.188285
C122	C	1.642210	-0.602661	-1.118467
C123	C	1.609612	-0.525072	-1.079789
H124	H	1.823883	-0.415783	-1.203799
H125	H	1.880612	-0.550808	-1.271107
H126	H	1.765239	-0.669488	-1.216917
H127	H	1.593131	-0.653145	-1.095413
H128	H	1.536401	-0.518120	-1.028105
C129	C	1.474982	-0.492999	-1.114307
C130	C	1.569788	-0.505085	-1.188786
C131	C	1.594919	-0.583286	-1.230415
C132	C	1.525244	-0.649402	-1.197565
C133	C	1.430432	-0.637318	-1.123082
C134	C	1.405301	-0.559117	-1.081453
H135	H	1.621372	-0.456140	-1.213107
H136	H	1.665106	-0.592230	-1.285552
H137	H	1.543847	-0.707291	-1.228381
H138	H	1.378848	-0.686263	-1.098760
H139	H	1.335114	-0.550173	-1.026315
H140	H	1.706699	-0.338575	-0.920522
H141	H	1.668310	-0.435763	-0.918967
C142	C	1.133553	-0.495595	-0.557948
C143	C	1.252952	-0.509860	-0.570524
C144	C	1.292348	-0.569460	-0.648208
C145	C	1.212346	-0.614796	-0.713315
C146	C	1.092941	-0.600532	-0.700741
C147	C	1.053544	-0.540932	-0.623058
H148	H	1.312180	-0.476299	-0.522326
H149	H	1.380740	-0.580019	-0.657515
H150	H	1.241510	-0.658915	-0.770821
H151	H	1.033712	-0.634093	-0.748939
H152	H	0.965152	-0.530373	-0.613750
H153	H	1.423623	-0.259652	-1.103240
H154	H	1.418962	-0.263466	-0.920630
C155	C	1.133487	-0.258381	-0.653533
C156	C	1.205700	-0.214667	-0.577920
C157	C	1.245027	-0.136888	-0.609004
C158	C	1.212140	-0.102823	-0.715701
C159	C	1.139923	-0.146537	-0.791321
C160	C	1.100596	-0.224316	-0.760237
H161	H	1.230048	-0.239883	-0.498930
H162	H	1.298487	-0.104528	-0.553025
H163	H	1.241252	-0.045246	-0.738712
H164	H	1.115574	-0.121320	-0.870311
H165	H	1.047136	-0.256676	-0.816217
C166	C	1.584585	-0.221427	-1.111532
C167	C	1.676054	-0.245531	-1.184192
C168	C	1.756992	-0.187952	-1.223394
C169	C	1.746460	-0.106269	-1.189934
C170	C	1.654987	-0.082161	-1.117270
C171	C	1.574050	-0.139740	-1.078068
H172	H	1.683854	-0.306001	-1.208965
H173	H	1.824707	-0.205799	-1.277185
H174	H	1.806375	-0.063645	-1.218954
H175	H	1.647187	-0.021690	-1.092497
H176	H	1.506335	-0.121893	-1.024277
H177	H	0.941676	-0.241938	-0.448251
H178	H	1.123801	-0.242262	-0.448097
H179	H	0.940274	-0.313125	-0.346658
H180	H	1.122959	-0.313420	-0.345809
H181	H	0.940675	-0.281854	-0.650819
