data_functionalizedCrystal
_audit_creation_method	'MofGen! by Chris Wilmer'
_symmetry_space_group_name_H-M	'P1'
_symmetry_Int_Tables_number	1
_symmetry_cell_setting	triclinic
loop_
_symmetry_equiv_pos_as_xyz
  x,y,z
_cell_length_a	19.121102
_cell_length_b	19.121725
_cell_length_c	16.120297
_cell_angle_alpha	95.429393
_cell_angle_beta	90.563713
_cell_angle_gamma	85.251956
loop_
_atom_site_label
_atom_site_type_symbol
_atom_site_fract_x
_atom_site_fract_y
_atom_site_fract_z
Zn1	Zn	1.065372	-0.348321	-0.542902
Zn2	Zn	1.565372	0.151679	-0.042902
Zn3	Zn	1.075753	-0.460518	-0.409697
Zn4	Zn	1.575753	0.039482	0.090303
Zn5	Zn	0.953673	-0.337348	-0.397301
Zn6	Zn	1.453673	0.162652	0.102699
Zn7	Zn	0.952686	-0.460911	-0.542859
Zn8	Zn	1.452686	0.039089	-0.042859
O9	O	1.011871	-0.401775	-0.473190
O10	O	1.511871	0.098225	0.026810
O11	O	1.165000	-0.367632	-0.530438
O12	O	1.665000	0.132368	-0.030438
O13	O	1.064317	-0.439423	-0.291390
O14	O	1.564317	0.060577	0.208610
O15	O	0.964559	-0.240138	-0.411446
O16	O	1.464559	0.259862	0.088554
O17	O	1.172627	-0.450063	-0.432573
O18	O	1.672627	0.049937	0.067427
O19	O	1.046623	-0.248199	-0.518419
O20	O	1.546623	0.251801	-0.018419
O21	O	0.974626	-0.348930	-0.282283
O22	O	1.474626	0.151070	0.217717
O23	O	0.855292	-0.349311	-0.411404
O24	O	1.355292	0.150689	0.088596
O25	O	0.962875	-0.450732	-0.659527
O26	O	1.462875	0.049268	-0.159527
O27	O	0.854566	-0.440092	-0.518344
O28	O	1.354566	0.059908	-0.018344
O29	O	1.045666	-0.368013	-0.659560
O30	O	1.545666	0.131987	-0.159560
O31	O	1.063360	-0.559236	-0.432531
O32	O	1.563360	-0.059236	0.067469
O33	O	0.972942	-0.559525	-0.530364
O34	O	1.472942	-0.059525	-0.030364
C35	C	0.829453	-0.393554	-0.463524
C36	C	1.329453	0.106446	0.036476
C37	C	0.751414	-0.390055	-0.459410
C38	C	1.251414	0.109945	0.040590
C39	C	0.714398	-0.435741	-0.513075
C40	C	1.214398	0.064259	-0.013075
C41	C	0.641071	-0.432444	-0.509213
C42	C	1.141071	0.067556	-0.009213
C43	C	0.604763	-0.383465	-0.451681
C44	C	1.104763	0.116535	0.048319
C45	C	0.641784	-0.337774	-0.398014
C46	C	1.141784	0.162226	0.101986
C47	C	0.715109	-0.341068	-0.401881
C48	C	1.215109	0.158932	0.098119
C49	C	0.383386	-0.371148	-0.437228
C50	C	0.883386	0.128852	0.062772
C51	C	0.310056	-0.367859	-0.433363
C52	C	0.810056	0.132141	0.066637
C53	C	0.309349	-0.462528	-0.544564
C54	C	0.809349	0.037472	-0.044564
C55	C	0.382675	-0.465821	-0.548423
C56	C	0.882675	0.034179	-0.048423
C57	C	0.419690	-0.420128	-0.494758
C58	C	0.919690	0.079872	0.005242
C59	C	0.529811	-0.380095	-0.447730
C60	C	1.029811	0.119905	0.052270
C61	C	0.494640	-0.423495	-0.498714
C62	C	0.994640	0.076505	0.001286
C63	C	1.019189	-0.584965	-0.482807
C64	C	1.519189	-0.084965	0.017193
C65	C	1.022382	-0.663339	-0.486952
C66	C	1.522382	-0.163339	0.013048
C67	C	0.981198	-0.696025	-0.433173
C68	C	1.481198	-0.196025	0.066827
C69	C	0.984206	-0.769666	-0.437072
C70	C	1.484206	-0.269666	0.062928
C71	C	1.028394	-0.810620	-0.494755
C72	C	1.528394	-0.310620	0.005245
C73	C	1.069583	-0.777929	-0.548537
C74	C	1.569583	-0.277929	-0.048537
C75	C	1.066578	-0.704289	-0.544634
C76	C	1.566578	-0.204289	-0.044634
C77	C	1.039605	-1.033171	-0.509327
C78	C	1.539605	-0.533171	-0.009327
C79	C	1.042604	-1.106815	-0.513228
C80	C	1.542604	-0.606815	-0.013228
C81	C	0.957228	-1.098547	-0.401761
C82	C	1.457228	-0.598547	0.098239
C83	C	0.954224	-1.024906	-0.397866
C84	C	1.454224	-0.524906	0.102134
C85	C	0.995416	-0.992222	-0.451645
C86	C	1.495416	-0.492222	0.048355
C87	C	1.031468	-0.885893	-0.498744
C88	C	1.531468	-0.385893	0.001256
C89	C	0.992345	-0.916950	-0.447651
C90	C	1.492345	-0.416950	0.052349
C91	C	1.195001	-0.410028	-0.482893
C92	C	1.695001	0.089972	0.017107
C93	C	1.273040	-0.413545	-0.487029
C94	C	1.773040	0.086455	0.012971
C95	C	1.003002	-0.410640	-0.690639
C96	C	1.503002	0.089360	-0.190639
C97	C	0.999223	-0.414418	-0.783302
C98	C	1.499223	0.085582	-0.283302
C99	C	1.004543	-0.217870	-0.463554
C100	C	1.504543	0.282130	0.036446
C101	C	1.001420	-0.139501	-0.459448
C102	C	1.501420	0.360499	0.040552
C103	C	0.992297	-0.421299	-0.952958
C104	C	1.492297	0.078701	-0.452958
C105	C	1.031575	-0.382045	-0.994270
C106	C	1.531575	0.117955	-0.494270
C107	C	1.027721	-0.385873	-1.088672
C108	C	1.527721	0.114127	-0.588672
C109	C	0.996150	-0.417472	-0.858547
C110	C	1.496150	0.082528	-0.358547
C111	C	1.020744	-0.392894	-0.256586
C112	C	1.520744	0.107106	0.243414
C113	C	1.024651	-0.388924	-0.163920
C114	C	1.524651	0.111076	0.336080
H115	H	0.412233	-0.505707	-0.595269
H116	H	0.912233	-0.005707	-0.095269
Cl117	Cl	0.540286	-0.485066	-0.571037
Cl118	Cl	1.040286	0.014934	-0.071037
Cl119	Cl	0.761644	-0.283631	-0.334415
Cl120	Cl	1.261644	0.216369	0.165585
H121	H	1.105565	-0.811279	-0.595501
H122	H	1.605565	-0.311279	-0.095501
H123	H	1.078578	-1.140158	-0.560216
H124	H	1.578578	-0.640158	-0.060216
H125	H	1.068097	-0.345562	-0.958739
H126	H	1.568097	0.154438	-0.458739
Cl127	Cl	0.936798	-0.865465	-0.375135
Cl128	Cl	1.436798	-0.365465	0.124865
H129	H	0.500241	-0.340217	-0.400886
H130	H	1.000241	0.159783	0.099114
Cl131	Cl	0.594540	-0.489880	-0.576681
Cl132	Cl	1.094540	0.010120	-0.076681
Cl133	Cl	0.935916	-0.477626	-1.007811
Cl134	Cl	1.435916	0.022374	-0.507811
Cl135	Cl	0.264412	-0.306285	-0.361026
Cl136	Cl	0.764412	0.193715	0.138974
Cl137	Cl	0.262812	-0.519968	-0.612023
Cl138	Cl	0.762812	-0.019968	-0.112023
H139	H	0.918243	-0.991563	-0.350895
H140	H	1.418243	-0.491563	0.149105
Cl141	Cl	1.087015	-0.937383	-0.571261
Cl142	Cl	1.587015	-0.437383	-0.071261
Cl143	Cl	0.760036	-0.497321	-0.585401
Cl144	Cl	1.260036	0.002679	-0.085401
Cl145	Cl	0.429909	-0.313703	-0.369766
Cl146	Cl	0.929909	0.186297	0.130234
H147	H	1.100116	-0.677677	-0.588426
H148	H	1.600116	-0.177677	-0.088426
Cl149	Cl	0.596138	-0.276195	-0.325693
Cl150	Cl	1.096138	0.223805	0.174307
Cl151	Cl	0.932428	-0.810754	-0.369461
Cl152	Cl	1.432428	-0.310754	0.130539
H153	H	0.945212	-0.662685	-0.386204
H154	H	1.445212	-0.162685	0.113796
H155	H	0.923693	-1.125167	-0.357977
H156	H	1.423693	-0.625167	0.142023
H157	H	1.073143	-1.006565	-0.553117
H158	H	1.573143	-0.506565	-0.053117
