data_functionalizedCrystal
_audit_creation_method	'MofGen! by Chris Wilmer'
_symmetry_space_group_name_H-M	'P1'
_symmetry_Int_Tables_number	1
_symmetry_cell_setting	triclinic
loop_
_symmetry_equiv_pos_as_xyz
  x,y,z
_cell_length_a	16.959454
_cell_length_b	12.759401
_cell_length_c	12.759393
_cell_angle_alpha	90.020086
_cell_angle_beta	89.970996
_cell_angle_gamma	89.981716
loop_
_atom_site_label
_atom_site_type_symbol
_atom_site_fract_x
_atom_site_fract_y
_atom_site_fract_z
Zn1	Zn	-0.314686	-1.606222	-0.594016
Zn2	Zn	0.185314	-1.106222	-0.094016
Zn3	Zn	-0.446884	-1.606098	-0.418339
Zn4	Zn	0.053116	-1.106098	0.081661
Zn5	Zn	-0.314719	-1.430522	-0.418352
Zn6	Zn	0.185281	-0.930522	0.081648
Zn7	Zn	-0.446822	-1.430496	-0.593977
Zn8	Zn	0.053178	-0.930496	-0.093977
O9	O	-0.380778	-1.518335	-0.506171
O10	O	0.119222	-1.018335	-0.006171
O11	O	-0.332234	-1.753227	-0.570723
O12	O	0.167766	-1.253227	-0.070723
O13	O	-0.429391	-1.582767	-0.271319
O14	O	0.070609	-1.082767	0.228681
O15	O	-0.204104	-1.453892	-0.441676
O16	O	0.295896	-0.953892	0.058324
O17	O	-0.429359	-1.753136	-0.441653
O18	O	0.070641	-1.253136	0.058347
O19	O	-0.204080	-1.582978	-0.570736
O20	O	0.295920	-1.082978	-0.070736
O21	O	-0.332290	-1.453772	-0.271329
O22	O	0.167710	-0.953772	0.228671
O23	O	-0.332231	-1.283498	-0.441639
O24	O	0.167769	-0.783498	0.058361
O25	O	-0.429255	-1.453848	-0.741003
O26	O	0.070745	-0.953848	-0.241003
O27	O	-0.429287	-1.283479	-0.570669
O28	O	0.070713	-0.783479	-0.070669
O29	O	-0.332175	-1.582953	-0.741032
O30	O	0.167825	-1.082953	-0.241032
O31	O	-0.557486	-1.582741	-0.441615
O32	O	-0.057486	-1.082741	0.058385
O33	O	-0.557441	-1.453727	-0.570656
O34	O	-0.057441	-0.953727	-0.070656
C35	C	-0.380756	-1.245367	-0.506152
C36	C	0.119244	-0.745367	-0.006152
C37	C	-0.380766	-1.128591	-0.506169
C38	C	0.119234	-0.628591	-0.006169
C39	C	-0.330283	-1.073777	-0.573478
C40	C	0.169717	-0.573777	-0.073478
C41	C	-0.330288	-0.964053	-0.573483
C42	C	0.169712	-0.464053	-0.073483
C43	C	-0.431266	-0.963966	-0.438867
C44	C	0.068734	-0.463966	0.061133
C45	C	-0.431256	-1.073688	-0.438857
C46	C	0.068744	-0.573688	0.061143
C47	C	-0.586144	-1.518247	-0.506153
C48	C	-0.086144	-1.018247	-0.006153
C49	C	-0.674001	-1.518305	-0.506181
C50	C	-0.174001	-1.018305	-0.006181
C51	C	-1.045483	-1.451255	-0.573355
C52	C	-0.545483	-0.951255	-0.073355
C53	C	-1.045470	-1.585707	-0.439094
C54	C	-0.545470	-1.085707	0.060906
C55	C	-0.962924	-1.585671	-0.439084
C56	C	-0.462924	-1.085671	0.060916
C57	C	-0.921654	-1.518424	-0.506210
C58	C	-0.421654	-1.018424	-0.006210
C59	C	-0.962929	-1.451214	-0.573345
C60	C	-0.462929	-0.951214	-0.073345
C61	C	-0.921642	-1.652872	-0.371942
C62	C	-0.421642	-1.152872	0.128058
C63	C	-0.839091	-1.652837	-0.371929
C64	C	-0.339091	-1.152837	0.128071
C65	C	-0.797819	-1.585595	-0.439061
C66	C	-0.297819	-1.085595	0.060939
C67	C	-0.839100	-1.518383	-0.506200
C68	C	-0.339100	-1.018383	-0.006200
C69	C	-0.797830	-1.451136	-0.573326
C70	C	-0.297830	-0.951136	-0.073326
C71	C	-0.839109	-1.383928	-0.640471
C72	C	-0.339109	-0.883928	-0.140471
C73	C	-0.921657	-1.383971	-0.640477
C74	C	-0.421657	-0.883971	-0.140477
C75	C	-0.715271	-1.585552	-0.439055
C76	C	-0.215271	-1.085552	0.060945
C77	C	-0.715276	-1.451095	-0.573316
C78	C	-0.215276	-0.951095	-0.073316
C79	C	-0.174610	-1.518452	-0.506212
C80	C	0.325390	-1.018452	-0.006212
C81	C	-0.086753	-1.518502	-0.506229
C82	C	0.413247	-1.018502	-0.006229
C83	C	-0.380704	-1.518411	-0.780204
C84	C	0.119296	-1.018411	-0.280204
C85	C	-0.380673	-1.518444	-0.896981
C86	C	0.119327	-1.018444	-0.396981
C87	C	-0.380793	-0.792368	-0.506187
C88	C	0.119207	-0.292368	-0.006187
C89	C	-0.380780	-0.909145	-0.506184
C90	C	0.119220	-0.409145	-0.006184
C91	C	-0.431175	-1.585639	-1.061573
C92	C	0.068825	-1.085639	-0.561573
C93	C	-0.431212	-1.585613	-0.951849
C94	C	0.068788	-1.085613	-0.451849
C95	C	-0.330099	-1.451287	-0.951843
C96	C	0.169901	-0.951287	-0.451843
C97	C	-0.330066	-1.451309	-1.061565
C98	C	0.169934	-0.951309	-0.561565
C99	C	-0.380794	-1.518319	-0.233204
C100	C	0.119206	-1.018319	0.266796
C101	C	-0.380603	-1.518490	-0.116427
C102	C	0.119397	-1.018490	0.383573
H103	H	-0.289168	-1.118475	-0.628284
H104	H	0.210832	-0.618475	-0.128284
Br105	Br	-1.101479	-1.676965	-0.347997
Br106	Br	-0.601479	-1.176965	0.152003
Br107	Br	-0.499760	-1.676812	-1.136027
Br108	Br	0.000240	-1.176812	-0.636027
Br109	Br	-0.261769	-0.889666	-0.664831
Br110	Br	0.238231	-0.389666	-0.164831
H111	H	-0.288953	-1.396592	-0.907160
H112	H	0.211047	-0.896592	-0.407160
H113	H	-0.288883	-1.396623	-1.106228
H114	H	0.211117	-0.896623	-0.606228
Br115	Br	-0.499786	-0.889449	-0.347522
Br116	Br	0.000214	-0.389449	0.152478
Br117	Br	-0.499763	-1.148086	-0.347487
Br118	Br	0.000237	-0.648086	0.152513
Br119	Br	-0.659273	-1.359835	-0.664430
Br120	Br	-0.159273	-0.859835	-0.164430
Br121	Br	-0.783090	-1.292660	-0.731559
Br122	Br	-0.283090	-0.792660	-0.231559
H123	H	-0.681665	-1.640267	-0.384381
H124	H	-0.181665	-1.140267	0.115619
H125	H	-0.955274	-1.329253	-0.695142
H126	H	-0.455274	-0.829253	-0.195142
Br127	Br	-0.499851	-1.676744	-0.877408
Br128	Br	0.000149	-1.176744	-0.377408
H129	H	-1.079096	-1.396539	-0.628026
H130	H	-0.579096	-0.896539	-0.128026
H131	H	-0.805487	-1.707562	-0.317257
H132	H	-0.305487	-1.207562	0.182743
Br133	Br	-0.977654	-1.744135	-0.280853
Br134	Br	-0.477654	-1.244135	0.219147
