data_functionalizedCrystal
_audit_creation_method	'MofGen! by Chris Wilmer'
_symmetry_space_group_name_H-M	'P1'
_symmetry_Int_Tables_number	1
_symmetry_cell_setting	triclinic
loop_
_symmetry_equiv_pos_as_xyz
  x,y,z
_cell_length_a	13.032831
_cell_length_b	13.032721
_cell_length_c	13.033109
_cell_angle_alpha	105.143326
_cell_angle_beta	76.665514
_cell_angle_gamma	90.902885
loop_
_atom_site_label
_atom_site_type_symbol
_atom_site_fract_x
_atom_site_fract_y
_atom_site_fract_z
Zn1	Zn	1.617278	-0.734630	-0.889163
Zn2	Zn	1.577772	-0.883958	-0.728367
Zn3	Zn	1.422834	-0.683803	-0.683331
Zn4	Zn	1.422798	-0.883866	-0.883401
O5	O	1.510171	-0.796564	-0.796066
O6	O	1.758271	-0.775749	-0.889093
O7	O	1.540701	-0.836174	-0.571370
O8	O	1.465176	-0.544325	-0.694198
O9	O	1.729246	-0.885459	-0.770957
O10	O	1.608033	-0.581667	-0.845422
O11	O	1.426868	-0.689121	-0.538281
O12	O	1.276596	-0.689032	-0.688611
O13	O	1.465114	-0.885302	-1.035189
O14	O	1.276569	-0.836017	-0.835602
O15	O	1.607998	-0.775660	-1.039422
O16	O	1.540666	-1.030166	-0.765370
O17	O	1.426807	-1.030099	-0.879272
C18	C	1.238666	-0.757000	-0.756595
C19	C	1.122515	-0.740103	-0.739737
C20	C	1.070723	-0.805383	-0.804863
C21	C	0.950675	-0.787921	-0.787442
C22	C	1.479477	-1.068053	-0.826610
C23	C	1.466445	-1.184217	-0.839728
C24	C	1.517033	-1.236020	-0.789276
C25	C	1.503565	-1.356081	-0.802832
C26	C	1.782736	-0.836284	-0.835691
C27	C	1.898886	-0.853210	-0.852577
C28	C	1.540959	-0.836140	-1.077559
C29	C	1.554079	-0.853005	-1.197515
C30	C	1.541015	-0.524022	-0.765429
C31	C	1.554159	-0.407881	-0.752374
C32	C	1.503607	-0.787765	-1.234624
C33	C	1.517166	-0.805195	-1.358604
C34	C	1.479570	-0.757075	-0.515667
C35	C	1.466686	-0.739946	-0.395708
H36	H	0.943417	-0.922027	-0.921242
C37	C	1.589109	-0.898085	-1.439668
H38	H	1.588791	-0.897609	-1.512362
H39	H	1.563876	-0.963493	-1.426923
H40	H	1.659057	-0.890443	-1.429741
C41	C	1.431671	-0.694877	-1.153557
H42	H	1.432001	-0.695343	-1.080863
H43	H	1.361728	-0.702503	-1.163483
H44	H	1.456921	-0.629468	-1.166304
H45	H	1.413430	-0.671185	-1.335696
C46	C	1.626019	-0.945891	-1.278582
H47	H	1.625701	-0.945415	-1.351276
H48	H	1.600786	-1.011299	-1.265837
H49	H	1.695967	-0.938249	-1.268655
C50	C	0.890528	-0.694945	-0.694693
H51	H	0.817732	-0.695408	-0.695149
H52	H	0.918037	-0.629575	-0.705280
H53	H	0.898695	-0.702508	-0.626426
C54	C	1.062364	-0.647132	-0.646994
H55	H	0.989568	-0.647595	-0.647449
H56	H	1.089872	-0.581762	-0.657581
H57	H	1.070530	-0.654695	-0.578726
C58	C	1.130871	-0.898351	-0.897614
H59	H	1.082811	-0.937038	-0.936219
H60	H	1.163785	-0.944151	-0.867506
H61	H	1.183114	-0.871212	-0.946354
C62	C	1.589011	-1.175869	-0.717368
H63	H	1.588615	-1.103064	-0.717685
H64	H	1.658966	-1.206095	-0.745417
H65	H	1.563844	-1.181327	-0.644626
H66	H	1.450286	-1.400612	-0.856070
H67	H	1.607447	-1.363354	-0.699145
H68	H	1.413170	-1.228752	-0.892962
