data_functionalizedCrystal
_audit_creation_method	'MofGen! by Chris Wilmer'
_symmetry_space_group_name_H-M	'P1'
_symmetry_Int_Tables_number	1
_symmetry_cell_setting	triclinic
loop_
_symmetry_equiv_pos_as_xyz
  x,y,z
_cell_length_a	18.215407
_cell_length_b	19.121063
_cell_length_c	18.215398
_cell_angle_alpha	92.412350
_cell_angle_beta	89.983470
_cell_angle_gamma	92.466335
loop_
_atom_site_label
_atom_site_type_symbol
_atom_site_fract_x
_atom_site_fract_y
_atom_site_fract_z
Zn1	Zn	1.112553	-0.279686	-0.428542
Zn2	Zn	1.612553	0.220314	0.071458
Zn3	Zn	1.107206	-0.397136	-0.310718
Zn4	Zn	1.607206	0.102864	0.189282
Zn5	Zn	0.989486	-0.279698	-0.305496
Zn6	Zn	1.489486	0.220302	0.194504
Zn7	Zn	0.984197	-0.397096	-0.433748
Zn8	Zn	1.484197	0.102904	0.066252
O9	O	1.048361	-0.338404	-0.369626
O10	O	1.548361	0.161596	0.130374
O11	O	1.214828	-0.295278	-0.412920
O12	O	1.714828	0.204722	0.087080
O13	O	1.091566	-0.381579	-0.207042
O14	O	1.591566	0.118421	0.292958
O15	O	1.010262	-0.181412	-0.317455
O16	O	1.510262	0.318588	0.182545
O17	O	1.210899	-0.381568	-0.326355
O18	O	1.710899	0.118432	0.173645
O19	O	1.100679	-0.181403	-0.407856
O20	O	1.600679	0.318597	0.092144
O21	O	1.005077	-0.295298	-0.203206
O22	O	1.505077	0.204702	0.296794
O23	O	0.885801	-0.295259	-0.322502
O24	O	1.385801	0.204741	0.177498
O25	O	1.001248	-0.381500	-0.536041
O26	O	1.501248	0.118500	-0.036041
O27	O	0.881915	-0.381511	-0.416728
O28	O	1.381915	0.118489	0.083272
O29	O	1.095551	-0.295239	-0.532216
O30	O	1.595551	0.204761	-0.032216
O31	O	1.086438	-0.495416	-0.331403
O32	O	1.586438	0.004584	0.168597
O33	O	0.996064	-0.495386	-0.421792
O34	O	1.496064	0.004614	0.078208
C35	C	0.857155	-0.338383	-0.369614
C36	C	1.357155	0.161617	0.130386
C37	C	0.775356	-0.338390	-0.369627
C38	C	1.275356	0.161610	0.130373
C39	C	1.040117	-0.520885	-0.377745
C40	C	1.540117	-0.020885	0.122255
C41	C	1.036658	-0.598951	-0.381242
C42	C	1.536658	-0.098951	0.118758
C43	C	0.508291	-0.383389	-0.418628
C44	C	1.008291	0.116611	0.081372
C45	C	0.585150	-0.383383	-0.418624
C46	C	1.085150	0.116617	0.081376
C47	C	0.589171	-0.293435	-0.320638
C48	C	1.089171	0.206565	0.179362
C49	C	0.512313	-0.293445	-0.320639
C50	C	1.012313	0.206555	0.179361
C51	C	0.471875	-0.338421	-0.369638
C52	C	0.971875	0.161579	0.130362
C53	C	0.625592	-0.338405	-0.369633
C54	C	1.125592	0.161595	0.130367
C55	C	0.708926	-0.338398	-0.369629
C56	C	1.208926	0.161602	0.130371
C57	C	0.388536	-0.338429	-0.369642
C58	C	0.888536	0.161571	0.130358
C59	C	1.082122	-0.635619	-0.335864
C60	C	1.582122	-0.135619	0.164136
C61	C	1.078873	-0.708970	-0.339158
C62	C	1.578873	-0.208970	0.160842
C63	C	1.030155	-0.745652	-0.387827
C64	C	1.530155	-0.245652	0.112173
C65	C	0.984689	-0.708980	-0.433211
C66	C	1.484689	-0.208980	0.066789
C67	C	0.987942	-0.635630	-0.429920
C68	C	1.487942	-0.135630	0.070080
C69	C	1.017979	-0.967122	-0.400119
C70	C	1.517979	-0.467122	0.099881
C71	C	1.014728	-1.040477	-0.403405
C72	C	1.514728	-0.540477	0.096595
C73	C	1.108913	-1.040463	-0.309352
C74	C	1.608913	-0.540463	0.190648
C75	C	1.112159	-0.967111	-0.306063
C76	C	1.612159	-0.467111	0.193937
C77	C	1.066696	-0.930445	-0.351449
C78	C	1.566696	-0.430445	0.148551
C79	C	1.026831	-0.820629	-0.391194
C80	C	1.526831	-0.320629	0.108806
C81	C	1.070024	-0.855469	-0.348086
C82	C	1.570024	-0.355469	0.151914
C83	C	1.240313	-0.338426	-0.369639
C84	C	1.740313	0.161574	0.130361
C85	C	1.322111	-0.338436	-0.369644
C86	C	1.822111	0.161564	0.130356
C87	C	1.048406	-0.338364	-0.561577
C88	C	1.548406	0.161636	-0.061577
C89	C	1.048426	-0.338347	-0.643376
C90	C	1.548426	0.161653	-0.143376
C91	C	1.056657	-0.155211	-0.361492
C92	C	1.556657	0.344789	0.138508
C93	C	1.060192	-0.077145	-0.358026
C94	C	1.560192	0.422855	0.141974
C95	C	1.093498	-0.383187	-0.910432
C96	C	1.593498	0.116813	-0.410432
C97	C	1.093485	-0.383211	-0.833574
C98	C	1.593485	0.116789	-0.333574
C99	C	1.003415	-0.293371	-0.829562
C100	C	1.503415	0.206629	-0.329562
C101	C	1.003424	-0.293351	-0.906419
C102	C	1.503424	0.206649	-0.406419
C103	C	1.048470	-0.338258	-0.946851
C104	C	1.548470	0.161742	-0.446851
C105	C	1.048448	-0.338302	-0.793137
C106	C	1.548448	0.161698	-0.293137
C107	C	1.048435	-0.338328	-0.709805
C108	C	1.548435	0.161672	-0.209805
C109	C	1.048482	-0.338233	-1.030189
C110	C	1.548482	0.161767	-0.530189
C111	C	1.048360	-0.338394	-0.178420
C112	C	1.548360	0.161606	0.321580
C113	C	1.048492	-0.338213	-0.096613
C114	C	1.548492	0.161787	0.403387
H115	H	0.614796	-0.420002	-0.458517
H116	H	1.114796	0.079998	0.041483
H117	H	0.987163	-0.850504	-0.430819
H118	H	1.487163	-0.350504	0.069181
H119	H	0.482663	-0.256825	-0.280741
H120	H	0.982663	0.243175	0.219259
H121	H	0.622105	-0.256816	-0.280745
H122	H	1.122105	0.243184	0.219255
H123	H	1.145928	-1.070324	-0.272402
H124	H	1.645928	-0.570324	0.227598
H125	H	1.130152	-0.419797	-0.803924
H126	H	1.630152	0.080203	-0.303924
N127	N	1.131885	-0.598163	-0.286138
N128	N	1.631885	-0.098163	0.213862
N129	N	1.172474	-0.630914	-0.245626
N130	N	1.672474	-0.130914	0.254374
H131	H	1.207621	-0.604463	-0.210506
H132	H	1.707621	-0.104463	0.289494
N133	N	0.466984	-0.429346	-0.468662
N134	N	0.966984	0.070654	0.031338
N135	N	0.422079	-0.474076	-0.444681
N136	N	0.922079	0.025924	0.055319
H137	H	0.392907	-0.506537	-0.480016
H138	H	0.892907	-0.006537	0.019984
N139	N	0.957417	-0.247482	-0.788270
N140	N	1.457417	0.252518	-0.288270
N141	N	0.917222	-0.207365	-0.820800
N142	N	1.417222	0.292635	-0.320800
H143	H	0.884738	-0.174951	-0.791639
H144	H	1.384738	0.325049	-0.291639
N145	N	1.125330	-0.746414	-0.292810
N146	N	1.625330	-0.246414	0.207190
N147	N	1.168827	-0.713654	-0.249362
N148	N	1.668827	-0.213654	0.250638
H149	H	1.201644	-0.740097	-0.216630
H150	H	1.701644	-0.240097	0.283370
N151	N	0.964951	-1.077938	-0.453120
N152	N	1.464951	-0.577938	0.046880
N153	N	0.924360	-1.045193	-0.493636
N154	N	1.424360	-0.545193	0.006364
H155	H	0.889203	-1.071649	-0.528744
H156	H	1.389203	-0.571649	-0.028744
H157	H	0.980960	-0.937274	-0.437073
H158	H	1.480960	-0.437274	0.062927
N159	N	0.941499	-0.598161	-0.476261
N160	N	1.441499	-0.098161	0.023739
N161	N	0.944410	-0.532671	-0.473317
N162	N	1.444410	-0.032671	0.026683
H163	H	0.911611	-0.506208	-0.506048
H164	H	1.411611	-0.006208	-0.006048
N165	N	0.934935	-0.746458	-0.482928
N166	N	1.434935	-0.246458	0.017072
N167	N	0.932036	-0.811948	-0.485861
N168	N	1.432036	-0.311948	0.014139
H169	H	0.896896	-0.838418	-0.520974
H170	H	1.396896	-0.338418	-0.020974
H171	H	1.151829	-0.937246	-0.266432
H172	H	1.651829	-0.437246	0.233568
H173	H	0.966753	-0.256763	-0.936072
H174	H	1.466753	0.243237	-0.436072
N175	N	1.119775	-0.817992	-0.298369
N176	N	1.619775	-0.317992	0.201631
N177	N	1.095711	-0.777109	-0.249624
N178	N	1.595711	-0.277109	0.250376
H179	H	1.130845	-0.750635	-0.214509
H180	H	1.630845	-0.250635	0.285491
H181	H	1.130176	-0.419753	-0.943350
H182	H	1.630176	0.080247	-0.443350
