data_functionalizedCrystal
_audit_creation_method	'MofGen! by Chris Wilmer'
_symmetry_space_group_name_H-M	'P1'
_symmetry_Int_Tables_number	1
_symmetry_cell_setting	triclinic
loop_
_symmetry_equiv_pos_as_xyz
  x,y,z
_cell_length_a	14.519709
_cell_length_b	8.559649
_cell_length_c	7.088929
_cell_angle_alpha	84.674985
_cell_angle_beta	83.763835
_cell_angle_gamma	103.270595
loop_
_atom_site_label
_atom_site_type_symbol
_atom_site_fract_x
_atom_site_fract_y
_atom_site_fract_z
O1	O	-0.020642	-2.103670	-0.158956
O2	O	0.026977	-1.638600	-0.158968
O3	O	-0.131957	-1.883467	-0.158944
O4	O	0.138292	-1.858803	-0.158979
O5	O	-0.153240	-1.916191	0.159034
O6	O	0.005694	-1.671324	0.159010
O7	O	-0.041925	-2.136393	0.159023
Cu8	Cu	-0.020059	-1.906847	0.188050
Cu9	Cu	0.005111	-1.868147	-0.187996
O10	O	0.117009	-1.891526	0.158999
C11	C	0.019944	-1.595443	0.000020
C12	C	0.030686	-1.418093	0.000015
C13	C	-0.176876	-1.898680	0.000045
C14	C	-0.279010	-1.895236	0.000046
C15	C	-0.034892	-2.179551	0.000031
C16	C	-0.045633	-2.356899	0.000022
C17	C	-0.652993	-1.882552	-0.000004
C18	C	-0.548938	-1.886074	0.000011
C19	C	-0.466005	-1.888894	0.000023
C20	C	-0.361944	-1.892417	0.000034
C21	C	0.161928	-1.876313	0.000005
C22	C	0.264063	-1.879756	-0.000008
N23	N	-0.037763	-1.934078	0.452541
N24	N	0.022807	-1.840929	-0.452487
H25	H	0.104249	-1.334795	-0.000005
H26	H	0.085574	-1.744390	0.465858
O27	O	-0.133454	-1.456013	-0.000050
C28	C	-0.202259	-1.363521	0.000006
H29	H	-0.166101	-1.232995	-0.060198
H30	H	-0.237655	-1.367341	0.152560
C31	C	-0.322857	-1.593962	-0.050740
C32	C	-0.278448	-1.433650	-0.124699
H33	H	-0.369857	-1.637223	-0.127656
H34	H	-0.276503	-1.656278	-0.050771
H35	H	-0.352346	-1.597124	0.076387
H36	H	-0.248950	-1.430493	-0.251813
H37	H	-0.324799	-1.371335	-0.124692
O38	O	-0.112757	-2.049172	0.549744
C39	C	-0.198911	-2.017708	0.501026
H40	H	-0.184748	-1.941257	0.355651
H41	H	-0.229224	-1.949547	0.613663
C42	C	-0.288601	-2.272586	0.670583
C43	C	-0.271207	-2.178699	0.492023
H44	H	-0.333199	-2.371891	0.665038
H45	H	-0.230558	-2.293782	0.703413
H46	H	-0.313858	-2.215767	0.764429
H47	H	-0.245940	-2.235510	0.398186
H48	H	-0.329248	-2.157516	0.459178
