data_functionalizedCrystal
_audit_creation_method	'MofGen! by Chris Wilmer'
_symmetry_space_group_name_H-M	'P1'
_symmetry_Int_Tables_number	1
_symmetry_cell_setting	triclinic
loop_
_symmetry_equiv_pos_as_xyz
  x,y,z
_cell_length_a	19.805407
_cell_length_b	12.594509
_cell_length_c	19.805405
_cell_angle_alpha	89.965297
_cell_angle_beta	90.026410
_cell_angle_gamma	89.978040
loop_
_atom_site_label
_atom_site_type_symbol
_atom_site_fract_x
_atom_site_fract_y
_atom_site_fract_z
Zn1	Zn	1.034752	-0.601830	-0.269443
Zn2	Zn	1.534752	-0.101830	0.230557
Zn3	Zn	1.034662	-0.423831	-0.382642
Zn4	Zn	1.534662	0.076169	0.117358
Zn5	Zn	0.921562	-0.423857	-0.269472
Zn6	Zn	1.421562	0.076143	0.230528
Zn7	Zn	0.921530	-0.601760	-0.382595
Zn8	Zn	1.421530	-0.101760	0.117405
O9	O	0.978126	-0.512820	-0.326038
O10	O	1.478126	-0.012820	0.173962
O11	O	1.129456	-0.578237	-0.284466
O12	O	1.629456	-0.078237	0.215534
O13	O	1.019634	-0.274889	-0.367661
O14	O	1.519634	0.225111	0.132339
O15	O	0.936627	-0.447506	-0.174752
O16	O	1.436627	0.052494	0.325248
O17	O	1.129390	-0.447462	-0.367633
O18	O	1.629390	0.052538	0.132367
O19	O	1.019788	-0.578262	-0.174730
O20	O	1.519788	-0.078262	0.325270
O21	O	0.936540	-0.274908	-0.284516
O22	O	1.436540	0.225092	0.215484
O23	O	0.826841	-0.447437	-0.284471
O24	O	1.326841	0.052563	0.215529
O25	O	0.936573	-0.750715	-0.367553
O26	O	1.436573	-0.250715	0.132447
O27	O	0.826817	-0.578142	-0.367582
O28	O	1.326817	-0.078142	0.132418
O29	O	1.019757	-0.750767	-0.284421
O30	O	1.519757	-0.250767	0.215579
O31	O	1.019604	-0.447394	-0.477352
O32	O	1.519604	0.052606	0.022648
O33	O	0.936486	-0.578117	-0.477318
O34	O	1.436486	-0.078117	0.022682
C35	C	0.802270	-0.512785	-0.326025
C36	C	1.302270	-0.012785	0.173975
C37	C	0.727038	-0.512796	-0.326036
C38	C	1.227038	-0.012796	0.173964
C39	C	0.691700	-0.580743	-0.369377
C40	C	1.191700	-0.080743	0.130623
C41	C	0.621011	-0.580758	-0.369378
C42	C	1.121011	-0.080758	0.130622
C43	C	0.585663	-0.512820	-0.326041
C44	C	1.085663	-0.012820	0.173959
C45	C	0.621006	-0.444869	-0.282695
C46	C	1.121006	0.055131	0.217305
C47	C	0.691693	-0.444860	-0.282691
C48	C	1.191693	0.055140	0.217309
C49	C	0.335933	-0.444904	-0.282710
C50	C	0.835933	0.055096	0.217290
C51	C	0.265241	-0.444916	-0.282719
C52	C	0.765241	0.055084	0.217281
C53	C	0.265251	-0.580802	-0.369397
C54	C	0.765251	-0.080802	0.130603
C55	C	0.335938	-0.580793	-0.369393
C56	C	0.835938	-0.080793	0.130607
C57	C	0.371275	-0.512847	-0.326045
C58	C	0.871275	-0.012847	0.173955
C59	C	0.447924	-0.512833	-0.326043
C60	C	0.947924	-0.012833	0.173957
C61	C	0.509015	-0.512827	-0.326046
C62	C	1.009015	-0.012827	0.173954
C63	C	0.978172	-0.790441	-0.325979
C64	C	1.478172	-0.290441	0.174021
C65	C	0.978191	-0.908746	-0.325953
C66	C	1.478191	-0.408746	0.174047
C67	C	0.932961	-0.977971	-0.371144
C68	C	1.432961	-0.477971	0.128856
C69	C	0.994719	-1.048760	-0.387681
C70	C	1.494719	-0.548760	0.112319
C71	C	0.916482	-1.048757	-0.309375
C72	C	1.416482	-0.548757	0.190625
C73	C	1.039980	-0.977976	-0.342524
C74	C	1.539980	-0.477976	0.157476
C75	C	0.961702	-0.977967	-0.264189
C76	C	1.461702	-0.477967	0.235811
C77	C	1.023502	-1.048724	-0.280703
C78	C	1.523502	-0.548724	0.219297
C79	C	1.154669	-0.512855	-0.326051
C80	C	1.654669	-0.012855	0.173949
C81	C	1.229901	-0.512870	-0.326057
C82	C	1.729901	-0.012870	0.173943
C83	C	0.978050	-0.512768	-0.501894
C84	C	1.478050	-0.012768	-0.001894
C85	C	0.978079	-0.512782	-0.577126
C86	C	1.478079	-0.012782	-0.077126
C87	C	0.978120	-0.236279	-0.326048
C88	C	1.478120	0.263721	0.173952
C89	C	0.978232	-0.117974	-0.325883
C90	C	1.478232	0.382026	0.174117
C91	C	1.021401	-0.444785	-0.612466
C92	C	1.521401	0.055215	-0.112466
C93	C	1.021429	-0.444809	-0.683154
C94	C	1.521429	0.055191	-0.183154
C95	C	0.978133	-0.512824	-0.718502
C96	C	1.478133	-0.012824	-0.218502
C97	C	0.934810	-0.580828	-0.683157
C98	C	1.434810	-0.080828	-0.183157
C99	C	0.934785	-0.580809	-0.612470
C100	C	1.434785	-0.080809	-0.112470
C101	C	0.934910	-0.580907	-0.968230
C102	C	1.434910	-0.080907	-0.468230
C103	C	0.934936	-0.580918	-1.038922
C104	C	1.434936	-0.080918	-0.538922
C105	C	1.021554	-0.444907	-1.038914
C106	C	1.521554	0.055093	-0.538914
C107	C	1.021529	-0.444888	-0.968227
C108	C	1.521529	0.055112	-0.468227
C109	C	0.978209	-0.512895	-0.932889
C110	C	1.478209	-0.012895	-0.432889
C111	C	0.978179	-0.512870	-0.856240
C112	C	1.478179	-0.012870	-0.356240
C113	C	0.978159	-0.512844	-0.795149
C114	C	1.478159	-0.012844	-0.295149
C115	C	0.978221	-0.512895	-0.149495
C116	C	1.478221	-0.012895	0.350505
C117	C	0.978262	-0.512926	-0.074263
C118	C	1.478262	-0.012926	0.425737
H119	H	0.720475	-0.636063	-0.404669
H120	H	1.220475	-0.136063	0.095331
H121	H	1.056655	-0.389395	-0.583690
H122	H	1.556655	0.110605	-0.083690
H123	H	0.899560	-0.636212	-0.711943
H124	H	1.399560	-0.136212	-0.211943
H125	H	1.008688	-1.079856	-0.439884
H126	H	1.508688	-0.579856	0.060116
H127	H	1.061812	-1.079594	-0.242457
H128	H	1.561812	-0.579594	0.257543
H129	H	0.592220	-0.389557	-0.247407
H130	H	1.092220	0.110443	0.252593
F131	F	0.888853	-0.653314	-1.076541
F132	F	1.388853	-0.153314	-0.576541
F133	F	0.888803	-0.653285	-0.930630
F134	F	1.388803	-0.153285	-0.430630
F135	F	1.108233	-0.937513	-0.360896
F136	F	1.608233	-0.437513	0.139104
H137	H	0.894742	-0.946906	-0.409419
H138	H	1.394742	-0.446906	0.090581
H139	H	0.720465	-0.389536	-0.247395
H140	H	1.220465	0.110464	0.252605
F141	F	0.583404	-0.653078	-0.415507
F142	F	1.083404	-0.153078	0.084493
F143	F	0.943420	-0.937289	-0.195974
F144	F	1.443420	-0.437289	0.304026
H145	H	0.864278	-1.079848	-0.295382
H146	H	1.364278	-0.579848	0.204618
H147	H	0.364696	-0.389570	-0.247419
H148	H	0.864696	0.110430	0.252581
H149	H	0.364715	-0.636112	-0.404685
H150	H	0.864715	-0.136112	0.095315
H151	H	1.056830	-0.389536	-1.067695
H152	H	1.556830	0.110464	-0.567695
H153	H	1.056706	-0.389439	-0.711924
H154	H	1.556706	0.110561	-0.211924
H155	H	1.056783	-0.389500	-0.939449
H156	H	1.556783	0.110500	-0.439449
F157	F	0.888678	-0.653183	-0.574859
F158	F	1.388678	-0.153183	-0.074859
H159	H	0.236462	-0.389592	-0.247425
H160	H	0.736462	0.110408	0.252575
F161	F	0.227637	-0.653118	-0.415532
F162	F	0.727637	-0.153118	0.084468
