data_functionalizedCrystal
_audit_creation_method	'MofGen! by Chris Wilmer'
_symmetry_space_group_name_H-M	'P1'
_symmetry_Int_Tables_number	1
_symmetry_cell_setting	triclinic
loop_
_symmetry_equiv_pos_as_xyz
  x,y,z
_cell_length_a	14.395555
_cell_length_b	14.628931
_cell_length_c	14.628931
_cell_angle_alpha	60.000028
_cell_angle_beta	90.001754
_cell_angle_gamma	59.999451
loop_
_atom_site_label
_atom_site_type_symbol
_atom_site_fract_x
_atom_site_fract_y
_atom_site_fract_z
Zr1	Zr	0.894912	1.000540	-0.119916
O2	O	0.746582	1.191253	-0.265885
O3	O	0.940384	0.809833	-0.075168
O4	O	0.940384	1.000538	-0.265874
O5	O	0.746582	1.000548	0.075253
O6	O	1.093258	1.000531	-0.265866
O7	O	0.746582	1.000547	-0.075179
O8	O	1.093258	0.659394	0.075272
O9	O	0.746581	1.341685	-0.265885
O10	O	1.073865	0.888267	-0.056078
O11	O	0.959776	0.888272	0.056181
O12	O	0.959776	1.112803	-0.168350
O13	O	0.845688	1.112809	-0.056091
Zr14	Zr	1.138728	1.000530	0.120018
Zr15	Zr	1.138729	1.000530	-0.119903
Zr16	Zr	0.894912	1.000541	0.120005
Zr17	Zr	0.894912	1.240462	-0.119916
Zr18	Zr	1.138729	0.760608	0.120019
O19	O	1.093257	1.191238	0.075271
O20	O	1.093257	1.191237	-0.265866
O21	O	0.746581	1.191254	0.075252
O22	O	1.287059	0.809818	0.265987
O23	O	1.287060	0.809817	-0.075150
O24	O	0.940383	0.809834	0.265969
O25	O	1.287059	1.000523	-0.075151
O26	O	1.093257	1.000533	0.265976
O27	O	0.940383	1.000540	0.265968
O28	O	1.287059	1.000524	0.075281
O29	O	0.940383	1.341676	-0.265875
O30	O	1.093258	0.659395	0.265977
O31	O	1.287059	0.659386	0.265987
O32	O	1.287060	0.659385	0.075282
O33	O	0.746581	1.341685	-0.075180
O34	O	0.940383	1.341677	-0.075169
O35	O	1.073864	0.888267	0.168453
O36	O	1.187953	0.888262	0.056193
O37	O	1.073864	1.112799	-0.056079
O38	O	0.959776	1.112804	0.056181
C39	C	1.016821	0.700430	0.000052
C40	C	1.016821	0.598576	0.000052
C41	C	0.711843	1.000549	0.000035
C42	C	0.608337	1.000554	0.000030
C43	C	1.096858	0.369141	0.078814
C44	C	1.096859	0.474410	0.078816
C45	C	0.485542	1.122981	-0.061176
C46	C	0.454706	1.061779	-0.105532
C47	C	0.454749	1.061750	0.044378
C48	C	0.578865	0.939351	-0.044388
C49	C	0.578904	0.939340	0.105581
C50	C	0.548142	0.878049	0.061251
C51	C	1.321798	1.000522	0.000067
C52	C	1.425304	1.000517	0.000073
C53	C	1.016821	1.000534	-0.300054
C54	C	1.016821	1.000534	-0.401906
C55	C	1.016820	1.300641	0.000051
C56	C	1.016820	1.402494	0.000050
C57	C	0.960225	1.111919	-0.503010
C58	C	0.960224	1.111922	-0.608282
C59	C	1.016820	1.000536	0.300156
C60	C	1.016820	1.000537	0.402009
C61	C	1.321798	0.700416	0.000068
C62	C	1.425305	0.598558	0.000073
C63	C	1.016821	0.700430	0.300157
C64	C	1.016821	0.598578	0.402010
C65	C	1.321798	0.700417	0.300173
C66	C	1.425304	0.598559	0.402031
C67	C	0.711843	1.300654	-0.300070
C68	C	0.608336	1.402511	-0.401929
C69	C	0.711842	1.300655	0.000035
C70	C	0.608336	1.402513	0.000029
C71	C	1.016820	1.300640	-0.300054
C72	C	1.016820	1.402493	-0.401907
C73	C	1.414856	0.553149	-0.055618
C74	C	1.521835	0.447874	-0.055614
C75	C	1.073416	0.553166	0.503113
C76	C	1.073417	0.447896	0.608385
C77	C	1.528047	0.553145	0.391754
C78	C	1.635027	0.447870	0.497029
H79	H	1.165384	0.262652	0.146241
H80	H	1.513450	0.559500	0.047752
Cl81	Cl	0.942003	0.538293	0.388685
H82	H	1.633348	0.441502	0.047774
H83	H	1.536810	0.592206	0.305020
H84	H	0.968372	0.441535	0.511365
Cl85	Cl	1.771105	0.387571	0.483705
H86	H	1.416544	0.559506	0.488767
H87	H	0.911778	1.207278	-0.511633
Cl88	Cl	0.911026	0.566903	-0.104069
H89	H	1.065270	0.905171	-0.511262
H90	H	0.460098	1.226504	-0.113015
Cl91	Cl	0.372075	1.141662	-0.243318
H92	H	1.121864	0.592227	0.511736
Cl93	Cl	1.148237	0.387599	0.742292
H94	H	0.573799	0.774441	0.113017
Cl95	Cl	1.508287	0.387581	-0.129225
Cl96	Cl	1.091639	0.853299	-0.388581
Cl97	Cl	1.202655	0.430581	0.182937
H98	H	1.326711	0.592216	-0.103306
Cl99	Cl	0.661223	0.859555	-0.102459
Cl100	Cl	0.661532	0.859523	0.243340
H101	H	0.948292	0.626967	-0.067382
Cl102	Cl	0.885404	1.259160	-0.742189
Cl103	Cl	1.488499	0.462746	0.611456
Cl104	Cl	0.372140	1.141671	0.102259
