data_functionalizedCrystal
_audit_creation_method	'MofGen! by Chris Wilmer'
_symmetry_space_group_name_H-M	'P1'
_symmetry_Int_Tables_number	1
_symmetry_cell_setting	triclinic
loop_
_symmetry_equiv_pos_as_xyz
  x,y,z
_cell_length_a	19.805407
_cell_length_b	19.805405
_cell_length_c	19.805399
_cell_angle_alpha	89.970699
_cell_angle_beta	89.978936
_cell_angle_gamma	90.025395
loop_
_atom_site_label
_atom_site_type_symbol
_atom_site_fract_x
_atom_site_fract_y
_atom_site_fract_z
Zn1	Zn	-1.034736	0.269497	0.382738
Zn2	Zn	-1.034651	0.382686	0.269547
Zn3	Zn	-0.921550	0.269514	0.269560
Zn4	Zn	-0.921514	0.382648	0.382691
O5	O	-0.978113	0.326086	0.326134
O6	O	-1.129441	0.284521	0.367738
O7	O	-1.019627	0.367696	0.174832
O8	O	-0.936616	0.174795	0.284599
O9	O	-1.129378	0.367680	0.284576
O10	O	-1.019772	0.174783	0.367751
O11	O	-0.936533	0.284549	0.174842
O12	O	-0.826829	0.284512	0.284553
O13	O	-0.936553	0.367615	0.477414
O14	O	-0.826802	0.367631	0.367669
O15	O	-1.019737	0.284484	0.477449
O16	O	-1.019592	0.477397	0.284530
O17	O	-0.936471	0.477369	0.367656
C18	C	-0.802257	0.326070	0.326108
C19	C	-0.727025	0.326079	0.326112
C20	C	-0.978036	0.501942	0.326101
C21	C	-0.978066	0.577174	0.326110
C22	C	-0.691684	0.369424	0.369320
C23	C	-0.620996	0.369424	0.369328
C24	C	-0.585649	0.326082	0.326124
C25	C	-0.620994	0.282733	0.282914
C26	C	-0.691681	0.282730	0.282910
C27	C	-0.335921	0.282743	0.282929
C28	C	-0.265229	0.282750	0.282935
C29	C	-0.265235	0.369437	0.369346
C30	C	-0.335922	0.369434	0.369343
C31	C	-0.371262	0.326082	0.326136
C32	C	-0.447910	0.326082	0.326129
C33	C	-0.509002	0.326085	0.326127
C34	C	-0.154655	0.326098	0.326154
C35	C	-0.229887	0.326092	0.326146
C36	C	-0.978151	0.326043	0.502677
C37	C	-0.978167	0.326025	0.577909
C38	C	-0.978207	0.149543	0.326182
C39	C	-0.978248	0.074311	0.326202
C40	C	-1.021389	0.612510	0.282871
C41	C	-1.021418	0.683199	0.282886
C42	C	-0.978119	0.718550	0.326137
C43	C	-0.934794	0.683208	0.369380
C44	C	-0.934769	0.612521	0.369368
C45	C	-0.934894	0.968282	0.369430
C46	C	-0.934921	1.038974	0.369438
C47	C	-1.021542	1.038959	0.282949
C48	C	-1.021517	0.968272	0.282936
C49	C	-0.978195	0.932937	0.326182
C50	C	-0.978166	0.856289	0.326166
C51	C	-0.978145	0.795197	0.326150
C52	C	-0.978114	0.326080	0.150278
C53	C	-0.978229	0.325907	0.075046
C54	C	-1.021481	0.282737	0.613272
C55	C	-1.021488	0.282717	0.683961
C56	C	-0.978184	0.325990	0.719285
C57	C	-0.934864	0.369280	0.683916
C58	C	-0.934854	0.369296	0.613229
C59	C	-0.934902	0.369217	0.968989
C60	C	-0.934917	0.369200	1.039682
C61	C	-1.021536	0.282638	1.039722
C62	C	-1.021527	0.282654	0.969034
C63	C	-0.978205	0.325942	0.933672
C64	C	-0.978197	0.325961	0.857024
C65	C	-0.978194	0.325974	0.795932
H66	H	-0.592225	0.404720	0.404511
O67	O	-0.370153	0.411557	0.411375
C68	C	-0.362697	0.497566	0.497063
C69	C	-0.323849	0.449887	0.449504
H70	H	-0.325277	0.528578	0.527893
H71	H	-0.395799	0.466567	0.532554
H72	H	-0.395783	0.532886	0.465912
H73	H	-0.290726	0.414557	0.480601
H74	H	-0.290789	0.480928	0.414012
H75	H	-1.056773	0.939491	0.247716
O76	O	-0.586733	0.240663	0.240853
C77	C	-0.565035	0.207683	0.125780
C78	C	-0.603888	0.255357	0.173340
H79	H	-0.578880	0.219555	0.071185
H80	H	-0.578971	0.153109	0.137710
H81	H	-0.508446	0.215121	0.133239
H82	H	-0.660486	0.247979	0.165907
H83	H	-0.589896	0.309914	0.161398
H84	H	-0.899576	0.404539	0.584437
O85	O	-0.230801	0.411481	0.411303
C86	C	-0.121908	0.449937	0.449584
C87	C	-0.160817	0.402277	0.402050
H88	H	-0.065319	0.442523	0.442110
H89	H	-0.135786	0.438124	0.504197
H90	H	-0.135820	0.504490	0.437602
H91	H	-0.146926	0.347708	0.413971
H92	H	-0.146935	0.414149	0.347451
O93	O	-0.726089	0.240722	0.240903
C94	C	-0.805835	0.231496	0.149509
C95	C	-0.766923	0.279149	0.197048
H96	H	-0.838847	0.262545	0.114031
H97	H	-0.839001	0.196155	0.180611
H98	H	-0.768420	0.200503	0.118659
H99	H	-0.804289	0.310185	0.227908
H100	H	-0.733746	0.314445	0.165907
O101	O	-0.230997	0.240578	0.240946
C102	C	-0.238446	0.154615	0.155212
C103	C	-0.277298	0.202324	0.202738
H104	H	-0.275863	0.123683	0.124298
H105	H	-0.205395	0.119226	0.186326
H106	H	-0.205307	0.185655	0.119793
H107	H	-0.310473	0.171338	0.238166
H108	H	-0.310305	0.237714	0.171582
H109	H	-1.056820	1.067737	0.247739
O110	O	-0.892641	0.717471	0.411363
C111	C	-0.777494	0.739195	0.444087
C112	C	-0.825159	0.700343	0.396511
H113	H	-0.722924	0.725372	0.432088
H114	H	-0.789288	0.725237	0.498685
H115	H	-0.784985	0.795784	0.436681
H116	H	-0.817694	0.643745	0.403857
H117	H	-0.813352	0.714357	0.341931
O118	O	-0.892776	0.933886	0.411336
C119	C	-0.801333	0.854174	0.420334
C120	C	-0.849003	0.893079	0.372799
H121	H	-0.765921	0.821184	0.389195
H122	H	-0.832336	0.820986	0.455741
H123	H	-0.770418	0.891594	0.451261
H124	H	-0.879927	0.855709	0.341828
H125	H	-0.817960	0.926277	0.337437
H126	H	-0.899602	0.404511	0.712682
H127	H	-0.899637	0.404475	0.940206
H128	H	-0.899492	0.583751	0.404578
H129	H	-1.056809	0.247389	1.068522
O130	O	-0.892841	1.073210	0.411522
C131	C	-0.806898	1.065770	0.497290
C132	C	-0.854527	1.026913	0.449680
H133	H	-0.775898	1.028355	0.528143
H134	H	-0.837936	1.098798	0.532756
H135	H	-0.771563	1.098930	0.466176
H136	H	-0.889871	0.993716	0.480738
H137	H	-0.823446	0.993927	0.414212
O138	O	-0.892781	0.411256	1.073892
C139	C	-0.806883	0.497139	1.066397
C140	C	-0.854551	0.449537	1.027570
H141	H	-0.775972	0.528113	1.028963
H142	H	-0.771473	0.466081	1.099475
H143	H	-0.837954	0.532499	1.099504
H144	H	-0.823535	0.414168	0.994426
H145	H	-0.889962	0.480638	0.994534
H146	H	-0.364686	0.247448	0.247742
O147	O	-1.063570	0.240637	0.579067
C148	C	-1.149515	0.154801	0.586575
C149	C	-1.101873	0.202436	0.625394
H150	H	-1.180505	0.123913	0.624014
H151	H	-1.118487	0.119368	0.553503
H152	H	-1.184857	0.185897	0.553462
H153	H	-1.066522	0.171395	0.658544
H154	H	-1.132943	0.237870	0.658424
O155	O	-1.063466	0.240589	0.718338
C156	C	-1.072627	0.149199	0.798186
C157	C	-1.025012	0.196864	0.759288
H158	H	-1.041556	0.113845	0.831314
H159	H	-1.103561	0.118228	0.760822
H160	H	-1.108023	0.180274	0.831255
H161	H	-0.989575	0.165841	0.726218
H162	H	-0.994125	0.227837	0.796689
H163	H	-1.056792	0.247419	0.940277
H164	H	-1.056644	0.583732	0.247649
H165	H	-1.056695	0.711966	0.247677
O166	O	-0.725912	0.411548	0.411353
C167	C	-0.718450	0.497557	0.497041
C168	C	-0.679605	0.449876	0.449481
H169	H	-0.681027	0.528567	0.527870
H170	H	-0.751552	0.466558	0.532533
H171	H	-0.751535	0.532878	0.465891
H172	H	-0.646483	0.414544	0.480577
H173	H	-0.646545	0.480916	0.413988
