data_functionalizedCrystal
_audit_creation_method	'MofGen! by Chris Wilmer'
_symmetry_space_group_name_H-M	'P1'
_symmetry_Int_Tables_number	1
_symmetry_cell_setting	triclinic
loop_
_symmetry_equiv_pos_as_xyz
  x,y,z
_cell_length_a	14.446369
_cell_length_b	14.446369
_cell_length_c	14.560438
_cell_angle_alpha	60.001796
_cell_angle_beta	89.999525
_cell_angle_gamma	59.995450
loop_
_atom_site_label
_atom_site_type_symbol
_atom_site_fract_x
_atom_site_fract_y
_atom_site_fract_z
Zr1	Zr	-0.121533	1.013263	0.884760
O2	O	-0.269350	1.206388	0.738112
O3	O	-0.076213	0.820143	0.929714
O4	O	-0.269343	1.013272	0.929712
O5	O	0.076117	1.013250	0.738117
O6	O	-0.269344	1.013275	1.080850
O7	O	-0.076221	1.013258	0.738114
O8	O	0.076130	0.667801	1.080853
O9	O	-0.269357	1.358724	0.738114
O10	O	-0.056893	0.899576	1.061680
O11	O	0.056795	0.899568	0.948889
O12	O	-0.170590	1.126954	0.948887
O13	O	-0.056902	1.126945	0.836097
Zr14	Zr	0.121425	1.013254	1.125812
Zr15	Zr	-0.121535	1.013267	1.125808
Zr16	Zr	0.121427	1.013250	0.884764
Zr17	Zr	-0.121544	1.256221	0.884762
Zr18	Zr	0.121436	0.770296	1.125810
O19	O	0.076105	1.206375	1.080858
O20	O	-0.269353	1.206394	1.080852
O21	O	0.076108	1.206369	0.738119
O22	O	0.269242	0.820129	1.272459
O23	O	-0.076216	0.820148	1.272453
O24	O	0.269245	0.820124	0.929720
O25	O	-0.076225	1.013267	1.272455
O26	O	0.269235	1.013245	1.080860
O27	O	0.269236	1.013243	0.929721
O28	O	0.076113	1.013259	1.272457
O29	O	-0.269359	1.358727	0.929715
O30	O	0.269251	0.667790	1.080857
O31	O	0.269249	0.667794	1.272458
O32	O	0.076128	0.667804	1.272454
O33	O	-0.076236	1.358713	0.738117
O34	O	-0.076238	1.358717	0.929718
O35	O	0.170482	0.899564	1.061684
O36	O	0.056794	0.899572	1.174475
O37	O	-0.056903	1.126949	1.061682
O38	O	0.056785	1.126941	0.948891
C39	C	-0.000040	0.709355	1.005283
C40	C	-0.000035	0.606213	1.005282
C41	C	0.071996	0.459199	0.934486
C42	C	0.071705	0.566818	0.934101
C43	C	-0.123577	0.655215	0.953385
C44	C	-0.123203	0.547983	0.952853
C45	C	0.050411	0.372755	1.128025
C46	C	0.052932	0.478905	1.127845
C47	C	-0.303960	1.013275	1.005280
C48	C	-0.407103	1.013281	1.005278
C49	C	-0.625478	1.156673	0.933797
C50	C	-0.518246	1.156770	0.934098
C51	C	-0.410424	0.942052	1.127839
C52	C	-0.518193	0.942962	1.127455
C53	C	-0.516828	0.940006	0.955214
C54	C	-0.410859	0.942708	0.952726
C55	C	0.303852	1.013242	1.005291
C56	C	0.406995	1.013236	1.005293
C57	C	-0.000052	1.013254	0.703771
C58	C	-0.000051	1.013252	0.601440
C59	C	-0.000068	1.317162	1.005288
C60	C	-0.000073	1.420304	1.005289
C61	C	0.059294	0.894566	0.612238
C62	C	0.059294	0.894572	0.516084
C63	C	-0.059403	1.131961	0.398335
C64	C	-0.059397	1.131954	0.494489
C65	C	-0.000056	1.013264	1.306800
C66	C	-0.000057	1.013266	1.409131
C67	C	-0.000042	0.709361	1.306797
C68	C	-0.000038	0.606220	1.409128
C69	C	0.303866	0.709339	1.005289
C70	C	0.407014	0.606191	1.005289
C71	C	0.303864	0.709344	1.306803
C72	C	0.407011	0.606198	1.409135
C73	C	-0.303972	1.317174	0.703769
C74	C	-0.407119	1.420320	0.601436
C75	C	-0.000066	1.317157	0.703774
C76	C	-0.000070	1.420297	0.601444
C77	C	-0.303974	1.317179	1.005283
C78	C	-0.407122	1.420326	1.005282
C79	C	-0.059377	0.557764	1.398328
C80	C	-0.059377	0.460861	1.494482
C81	C	0.059309	0.460874	1.612232
C82	C	0.059302	0.557782	1.516079
C83	C	0.514816	0.557728	1.064167
C84	C	0.611730	0.460819	1.064155
C85	C	0.493026	0.460841	0.946387
C86	C	0.396114	0.557755	0.946393
C87	C	0.396128	0.557742	1.516087
C88	C	0.493050	0.460834	1.612235
C89	C	0.611733	0.460843	1.494466
C90	C	0.514812	0.557756	1.398320
H91	H	0.036706	0.655620	0.843568
C92	C	-0.303930	0.801281	1.015771
H93	H	-0.255383	0.783340	1.075237
H94	H	-0.265307	0.791068	0.965166
H95	H	-0.325137	0.742172	1.045832
C96	C	0.526783	0.611059	1.280667
H97	H	0.604865	0.568317	1.287995
H98	H	0.491435	0.702556	1.240713
H99	H	0.491444	0.595166	1.240716
C100	C	0.124565	0.611103	1.527953
H101	H	0.116047	0.675768	1.455369
H102	H	0.202646	0.541543	1.567903
H103	H	0.095238	0.648924	1.567895
C104	C	0.124601	0.407573	1.729874
H105	H	0.159935	0.450318	1.722532
H106	H	0.180763	0.316077	1.769823
H107	H	0.073379	0.423462	1.769837
H108	H	0.162677	0.530104	0.968912
C109	C	-0.520443	1.232307	0.812182
H110	H	-0.454764	1.232475	0.812203
H111	H	-0.586268	1.319869	0.770927
H112	H	-0.521642	1.191172	0.778202
H113	H	-0.408285	0.991524	1.168212
C114	C	0.195194	0.339141	0.981248
H115	H	0.203785	0.264216	1.044368
H116	H	0.245141	0.354266	1.003544
H117	H	0.212656	0.324855	0.924682
C118	C	-0.177785	0.602949	0.830846
H119	H	-0.199973	0.690473	0.782071
H120	H	-0.242500	0.601495	0.825290
H121	H	-0.124538	0.550800	0.809896
H122	H	-0.489375	0.834340	1.007042
H123	H	0.523697	0.597166	1.112119
H124	H	0.699505	0.421366	1.112097
H125	H	-0.107708	0.597212	1.311247
C126	C	0.481045	0.407544	0.881620
H127	H	0.554202	0.342873	0.890059
H128	H	0.440774	0.477115	0.804160
H129	H	0.440780	0.369735	0.910707
H130	H	0.107620	0.797925	0.524886
H131	H	-0.164267	0.747524	0.863932
H132	H	0.037290	0.494961	0.844486
C133	C	0.124578	0.764004	0.729881
H134	H	0.116076	0.780993	0.785603
H135	H	0.202653	0.715232	0.738313
H136	H	0.095264	0.715243	0.738310
H137	H	-0.107721	1.228604	0.311246
H138	H	-0.107720	1.228608	0.485688
H139	H	-0.566853	0.985900	0.866332
C140	C	-0.304684	0.799532	1.202932
H141	H	-0.257456	0.782164	1.160103
H142	H	-0.327312	0.741756	1.230782
H143	H	-0.264034	0.786759	1.264231
C144	C	-0.124643	0.407557	1.482599
H145	H	-0.159976	0.450280	1.405131
H146	H	-0.180805	0.423446	1.517654
H147	H	-0.073404	0.316053	1.517665
H148	H	0.308331	0.597217	0.898443
H149	H	0.308355	0.597183	1.524898
C150	C	0.730312	0.407540	1.482578
H151	H	0.786477	0.342872	1.555156
H152	H	0.738811	0.477110	1.442628
H153	H	0.738808	0.369728	1.442628
H154	H	-0.179595	0.684005	1.002478
C155	C	-0.199691	0.518317	1.018004
H156	H	-0.230862	0.571802	1.044672
H157	H	-0.156121	0.428760	1.079966
H158	H	-0.259299	0.536121	0.969550
C159	C	0.171442	0.246158	1.186576
H160	H	0.192317	0.221117	1.136709
H161	H	0.173929	0.178405	1.252230
H162	H	0.222756	0.260868	1.206885
H163	H	0.143946	0.439300	1.166616
H164	H	0.484181	0.421385	1.699317
H165	H	0.005901	0.500411	1.185044
H166	H	-0.679432	1.212964	0.843314
C167	C	-0.020151	0.337655	1.199632
H168	H	-0.080079	0.351875	1.155007
H169	H	-0.050865	0.391183	1.226285
H170	H	0.026961	0.248236	1.261768
H171	H	-0.520702	1.213014	0.968834
C172	C	-0.586217	1.011357	1.181603
H173	H	-0.547861	1.038331	1.203622
H174	H	-0.593275	0.952241	1.245803
H175	H	-0.659481	1.085720	1.128773
H176	H	-0.491535	0.837724	1.183619
C177	C	-0.411568	1.012866	0.830747
H178	H	-0.409575	1.084862	0.811917
H179	H	-0.478509	1.043581	0.781265
H180	H	-0.347038	0.953440	0.823813
H181	H	-0.680461	1.212693	0.968209
