data_functionalizedCrystal
_audit_creation_method	'MofGen! by Chris Wilmer'
_symmetry_space_group_name_H-M	'P1'
_symmetry_Int_Tables_number	1
_symmetry_cell_setting	triclinic
loop_
_symmetry_equiv_pos_as_xyz
  x,y,z
_cell_length_a	15.944499
_cell_length_b	23.532357
_cell_length_c	15.021413
_cell_angle_alpha	89.998468
_cell_angle_beta	89.990095
_cell_angle_gamma	83.152950
loop_
_atom_site_label
_atom_site_type_symbol
_atom_site_fract_x
_atom_site_fract_y
_atom_site_fract_z
O1	O	1.113919	0.073304	-0.074096
O2	O	0.869284	0.082390	-0.074088
O3	O	0.999000	-0.005059	-0.074074
O4	O	0.984203	0.160753	-0.074110
O5	O	0.998980	-0.005046	0.073990
O6	O	0.869264	0.082403	0.073976
O7	O	1.113898	0.073316	0.073968
Zn8	Zn	0.991578	0.077862	0.097480
Zn9	Zn	0.991605	0.077845	-0.097601
O10	O	0.984182	0.160766	0.073954
C11	C	0.837982	0.082025	-0.000054
C12	C	0.744744	0.080909	-0.000050
C13	C	0.452766	0.131715	-0.000075
C14	C	0.514035	0.105299	-0.073074
C15	C	0.409143	0.076857	-0.000070
C16	C	0.514001	0.105296	0.072906
C17	C	0.574034	0.078851	-0.000059
C18	C	0.469183	0.050426	-0.073130
C19	C	0.469143	0.050431	0.072916
C20	C	0.530394	0.023975	-0.000101
C21	C	0.314152	0.075710	-0.000077
C22	C	0.669023	0.079994	-0.000058
C23	C	0.998620	-0.026271	-0.000039
C24	C	0.997507	-0.089493	-0.000031
C25	C	0.990532	-0.481538	-0.080788
C26	C	0.989474	-0.540941	-0.080793
O27	O	0.988908	-0.571665	-0.149434
N28	N	0.988938	-0.570647	-0.000085
C29	C	0.989452	-0.540947	0.080634
O30	O	0.988898	-0.571669	0.149283
C31	C	0.990504	-0.481544	0.080638
C32	C	0.991048	-0.451841	-0.000076
C33	C	0.991076	-0.451835	-0.161496
C34	C	0.992135	-0.392436	-0.161490
C35	C	0.992651	-0.362739	-0.080778
C36	C	0.992107	-0.392442	-0.000070
C37	C	0.991011	-0.451843	0.161356
C38	C	0.992062	-0.392436	0.161354
C39	C	0.992607	-0.362734	0.080640
C40	C	0.993683	-0.303346	0.080648
N41	N	0.994219	-0.273640	-0.000061
C42	C	0.993703	-0.303336	-0.080774
C43	C	0.987242	-0.665696	0.080619
C44	C	0.986196	-0.725099	0.080616
C45	C	0.986217	-0.725089	-0.080812
C46	C	0.987268	-0.665686	-0.080808
C47	C	0.987777	-0.635990	-0.000089
C48	C	0.995928	-0.178594	-0.080756
C49	C	0.996991	-0.119190	-0.080744
C50	C	0.996966	-0.119204	0.080684
C51	C	0.995907	-0.178604	0.080672
C52	C	0.995386	-0.208297	-0.000055
O53	O	0.994246	-0.272584	0.149253
O54	O	0.994245	-0.272606	-0.149411
C55	C	1.145200	0.073682	-0.000068
C56	C	1.238439	0.074797	-0.000078
C57	C	0.984563	0.181977	-0.000083
C58	C	0.985675	0.245200	-0.000097
N59	N	0.991565	0.077872	0.230618
N60	N	0.991624	0.077830	-0.230738
C61	C	0.931576	0.118290	0.470295
C62	C	1.007382	0.129337	0.529624
C63	C	0.991587	0.077858	0.412225
C64	C	0.915801	0.066824	0.529638
C65	C	0.991601	0.077846	0.587649
C66	C	1.067431	0.088931	0.470247
C67	C	0.975801	0.026395	0.470256
C68	C	1.051662	0.037421	0.529558
C69	C	0.991578	0.077867	0.311168
C70	C	0.991619	0.077837	0.688704
H71	H	0.563968	-0.021592	-0.000130
H72	H	0.851705	0.057497	0.555728
Br73	Br	0.992751	-0.352138	0.270907
H74	H	0.880877	0.152510	0.444274
Br75	Br	1.174289	0.104561	0.426956
Br76	Br	0.547117	0.143992	0.175761
Br77	Br	0.990269	-0.492138	0.270904
Br78	Br	0.997735	-0.078883	-0.190291
H79	H	0.995499	-0.202763	-0.146492
Br80	Br	0.436243	0.011772	-0.176102
H81	H	0.995472	-0.202789	0.146396
H82	H	0.449219	0.027253	0.134643
H83	H	1.102473	0.003221	0.555416
Br84	Br	0.953487	-0.046112	0.426755
Br85	Br	0.396551	0.207594	-0.000203
Br86	Br	0.547199	0.143960	-0.175957
Br87	Br	0.992868	-0.352134	-0.271037
Br88	Br	0.990374	-0.492126	-0.271050
Br89	Br	0.988007	-0.625382	-0.190352
Br90	Br	0.985512	-0.765402	-0.190352
Br91	Br	0.985477	-0.765404	0.190161
Br92	Br	0.987938	-0.625401	0.190177
H93	H	0.997390	-0.095015	0.146398
H94	H	1.020747	0.172852	0.555701
