data_functionalizedCrystal
_audit_creation_method	'MofGen! by Chris Wilmer'
_symmetry_space_group_name_H-M	'P1'
_symmetry_Int_Tables_number	1
_symmetry_cell_setting	triclinic
loop_
_symmetry_equiv_pos_as_xyz
  x,y,z
_cell_length_a	19.188929
_cell_length_b	10.908937
_cell_length_c	10.065875
_cell_angle_alpha	83.441416
_cell_angle_beta	81.262107
_cell_angle_gamma	108.384631
loop_
_atom_site_label
_atom_site_type_symbol
_atom_site_fract_x
_atom_site_fract_y
_atom_site_fract_z
O1	O	0.120345	1.723295	-0.113442
O2	O	0.065793	1.349134	-0.113477
O3	O	0.195951	1.546998	-0.113375
O4	O	-0.009813	1.525431	-0.113545
O5	O	0.171049	1.509267	0.113594
O6	O	0.040891	1.311403	0.113492
O7	O	0.095443	1.685565	0.113527
Zn8	Zn	0.064214	1.492493	0.149545
Zn9	Zn	0.097022	1.542205	-0.149496
O10	O	-0.034715	1.487700	0.113424
C11	C	0.048244	1.282399	0.000004
C12	C	0.033061	1.139764	-0.000005
C13	C	0.072777	0.943644	0.000004
C14	C	0.088468	1.091062	0.000034
C15	C	-0.048193	1.507269	-0.000082
C16	C	-0.125450	1.509379	-0.000147
C17	C	-0.183664	1.393266	-0.000130
C18	C	-0.256265	1.395233	-0.000099
C19	C	-0.270652	1.513315	-0.000058
C20	C	-0.212425	1.629444	-0.000082
C21	C	-0.139824	1.627476	-0.000127
N22	N	-0.376775	1.590723	0.077279
N23	N	-0.445745	1.592584	0.077325
C24	C	-0.489393	1.519252	0.000074
N25	N	-0.461472	1.443967	-0.077207
N26	N	-0.392497	1.442101	-0.077246
C27	C	-0.349373	1.515462	-0.000010
C28	C	-0.626331	1.405265	0.000122
C29	C	-0.698932	1.407238	0.000145
C30	C	-0.655091	1.641451	0.000176
C31	C	-0.582491	1.639476	0.000140
C32	C	-0.568116	1.521379	0.000119
C33	C	0.209429	1.527430	0.000129
C34	C	0.286687	1.525322	0.000184
C35	C	0.112992	1.752300	0.000042
C36	C	0.128176	1.894936	0.000042
N37	N	0.041824	1.458576	0.353633
N38	N	0.119419	1.576132	-0.353584
C39	C	0.089236	1.530396	0.421450
C40	C	0.072000	1.504302	0.578603
H41	H	0.187222	0.962375	0.000089
N42	N	-0.611640	1.284637	0.000121
N43	N	-0.644886	1.190549	0.095796
H44	H	-0.634512	1.105355	0.095800
H45	H	-0.303673	1.300676	-0.000083
N46	N	-0.168984	1.272633	-0.000143
N47	N	-0.202229	1.178541	0.095527
H48	H	-0.191860	1.093342	0.095517
H49	H	-0.224141	1.725592	-0.000073
H50	H	0.172775	1.656939	0.588137
N51	N	-0.758390	1.288615	0.000148
N52	N	-0.745540	1.183188	0.000128
H53	H	-0.787533	1.099407	0.000130
H54	H	-0.092424	1.722033	-0.000142
N55	N	0.005074	1.402904	0.651702
N56	N	0.009163	1.309959	0.731482
H57	H	-0.038102	1.238345	0.783110
H58	H	-0.666793	1.737612	0.000111
N59	N	-0.523031	1.758096	0.000124
N60	N	-0.535881	1.863522	0.000153
H61	H	-0.493887	1.947305	0.000137
H62	H	0.142589	1.611198	0.363167
H63	H	-0.011525	1.377765	0.411917
N64	N	-0.001300	0.859049	-0.000037
N65	N	-0.054027	0.847504	0.095609
H66	H	-0.106347	0.787759	0.095583
N67	N	0.162543	1.175641	0.000134
N68	N	0.194271	1.155347	0.095848
H69	H	0.246586	1.215082	0.095922
N70	N	-0.041014	1.055164	-0.000069
N71	N	-0.053658	0.935529	-0.000087
H72	H	-0.105974	0.875777	-0.000126
