data_functionalizedCrystal
_audit_creation_method	'MofGen! by Chris Wilmer'
_symmetry_space_group_name_H-M	'P1'
_symmetry_Int_Tables_number	1
_symmetry_cell_setting	triclinic
loop_
_symmetry_equiv_pos_as_xyz
  x,y,z
_cell_length_a	8.559649
_cell_length_b	8.559649
_cell_length_c	7.088929
_cell_angle_alpha	84.655815
_cell_angle_beta	95.325015
_cell_angle_gamma	69.778664
loop_
_atom_site_label
_atom_site_type_symbol
_atom_site_fract_x
_atom_site_fract_y
_atom_site_fract_z
O1	O	2.108185	-0.036318	-0.158958
O2	O	1.632699	0.047464	-0.158965
O3	O	1.912333	-0.232170	-0.158959
O4	O	1.828551	0.243315	-0.158964
O5	O	1.949712	-0.269616	0.159017
O6	O	1.670079	0.010018	0.159011
O7	O	2.145564	-0.073764	0.159018
Cu8	Cu	1.911235	-0.035292	0.188048
Cu9	Cu	1.867029	0.008992	-0.187995
O10	O	1.865931	0.205870	0.159012
C11	C	1.591080	0.035090	0.000022
C12	C	1.411380	0.053990	0.000019
C13	C	1.937372	-0.311201	0.000026
C14	C	1.956269	-0.490899	0.000015
C15	C	2.187183	-0.061390	0.000027
C16	C	2.366881	-0.080288	0.000017
C17	C	1.840892	0.284902	0.000023
C18	C	1.821992	0.464601	0.000021
N19	N	1.942338	-0.066441	0.452537
N20	N	1.835940	0.040127	-0.452484
H21	H	1.311991	0.183419	0.000007
O22	O	1.485328	-0.234686	-0.000319
C23	C	1.581923	-0.477417	-0.164992
C24	C	1.447679	-0.302565	-0.164871
H25	H	1.551513	-0.532364	-0.297998
H26	H	1.710619	-0.465749	-0.165114
H27	H	1.582960	-0.563639	-0.031859
H28	H	1.446489	-0.216249	-0.297981
H29	H	1.319047	-0.314364	-0.164650
H30	H	2.052625	-0.176874	0.534195
O31	O	2.110757	-0.609435	0.000361
C32	C	2.392243	-0.744765	0.165037
C33	C	2.217359	-0.610496	0.164907
H34	H	2.478490	-0.745643	0.298037
H35	H	2.380610	-0.873493	0.165173
H36	H	2.447132	-0.714478	0.031898
H37	H	2.162372	-0.640626	0.298022
H38	H	2.229100	-0.481809	0.164671
H39	H	1.725671	0.150562	0.465867
O40	O	1.667592	-0.416952	0.000346
C41	C	1.424818	-0.320377	0.165002
C42	C	1.599673	-0.454622	0.164896
H43	H	1.369839	-0.350805	0.298006
H44	H	1.436484	-0.191680	0.165112
H45	H	1.338630	-0.319323	0.031867
H46	H	1.685956	-0.455829	0.298008
H47	H	1.587876	-0.583256	0.164686
