data_functionalizedCrystal
_audit_creation_method	'MofGen! by Chris Wilmer'
_symmetry_space_group_name_H-M	'P1'
_symmetry_Int_Tables_number	1
_symmetry_cell_setting	triclinic
loop_
_symmetry_equiv_pos_as_xyz
  x,y,z
_cell_length_a	23.532407
_cell_length_b	16.992695
_cell_length_c	16.053919
_cell_angle_alpha	92.708997
_cell_angle_beta	92.896230
_cell_angle_gamma	86.758450
loop_
_atom_site_label
_atom_site_type_symbol
_atom_site_fract_x
_atom_site_fract_y
_atom_site_fract_z
O1	O	-0.762252	-0.098061	-0.069324
O2	O	-0.597073	-0.111829	-0.069349
O3	O	-0.679000	0.009193	-0.069330
O4	O	-0.680325	-0.219083	-0.069343
O5	O	-0.674443	0.015029	0.069526
O6	O	-0.592516	-0.105993	0.069507
O7	O	-0.757695	-0.092225	0.069532
Zn8	Zn	-0.674382	-0.098182	0.091566
Zn9	Zn	-0.680386	-0.105872	-0.091383
O10	O	-0.675768	-0.213247	0.069513
C11	C	-0.573561	-0.108561	0.000076
C12	C	-0.510292	-0.107507	0.000067
C13	C	-0.675018	0.041310	0.000098
C14	C	-0.669935	0.128315	0.000097
C15	C	-0.781207	-0.095493	0.000105
C16	C	-0.844476	-0.096547	0.000109
C17	C	-0.114414	-0.172512	0.000101
C18	C	-0.054965	-0.171533	0.000106
O19	O	-0.021210	-0.231794	0.000133
N20	N	-0.028768	-0.099586	0.000109
C21	C	-0.062024	-0.028613	0.000115
O22	O	-0.034283	0.032674	0.000119
C23	C	-0.121471	-0.029593	0.000116
C24	C	-0.147665	-0.101545	0.000105
C25	C	-0.140607	-0.244459	0.000091
C26	C	-0.200052	-0.245438	0.000084
C27	C	-0.233303	-0.174470	0.000088
C28	C	-0.207110	-0.102524	0.000098
C29	C	-0.154726	0.041379	0.000128
C30	C	-0.214177	0.040393	0.000129
C31	C	-0.240370	-0.031559	0.000118
C32	C	-0.299806	-0.032536	0.000095
N33	N	-0.326002	-0.104483	0.000092
C34	C	-0.292751	-0.175450	0.000088
C35	C	0.062821	-0.026560	0.000115
C36	C	0.122267	-0.025580	0.000108
C37	C	0.129322	-0.168500	0.000101
C38	C	0.069874	-0.169480	0.000102
C39	C	0.036624	-0.098508	0.000112
C40	C	-0.417590	-0.177501	0.000074
C41	C	-0.477041	-0.178474	0.000063
C42	C	-0.484091	-0.035554	0.000075
C43	C	-0.424645	-0.034581	0.000081
C44	C	-0.391396	-0.105561	0.000083
O45	O	-0.333597	0.027693	0.000071
O46	O	-0.320500	-0.236726	0.000096
C47	C	-0.679750	-0.245364	0.000083
C48	C	-0.684834	-0.332369	0.000079
N49	N	-0.670288	-0.092934	0.216424
C50	C	-0.718981	0.178937	0.000105
C51	C	-0.714202	0.260686	0.000096
C52	C	-0.660375	0.291811	0.000085
C53	C	-0.611326	0.241182	0.000075
C54	C	-0.616106	0.159434	0.000077
C55	C	-0.640564	0.535254	0.000071
C56	C	-0.635788	0.617008	0.000071
C57	C	-0.738664	0.636507	0.000091
C58	C	-0.743439	0.554757	0.000098
C59	C	-0.694390	0.504135	0.000083
N60	N	-0.655489	0.375372	0.000079
N61	N	-0.699277	0.420576	0.000084
N62	N	-0.684484	-0.111114	-0.216241
C63	C	-0.649227	-0.065667	0.740046
C64	C	-0.652088	-0.069369	0.652640
C65	C	-0.690204	-0.118522	0.608950
C66	C	-0.725466	-0.163971	0.652669
C67	C	-0.722607	-0.160265	0.740073
C68	C	-0.702691	-0.134676	0.347547
C69	C	-0.705546	-0.138381	0.260137
C70	C	-0.632168	-0.043777	0.260115
C71	C	-0.629310	-0.040078	0.347520
C72	C	-0.664574	-0.085524	0.391232
N73	N	-0.693129	-0.122309	0.519608
N74	N	-0.661652	-0.081732	0.480572
H75	H	-0.498364	-0.237069	0.000054
O76	O	-0.519960	0.040987	0.000079
H77	H	-0.508387	0.077817	0.056678
H78	H	-0.618185	-0.025645	0.775612
O79	O	0.165191	-0.245047	0.000111
H80	H	0.210929	-0.232271	0.000124
H81	H	0.143588	0.033010	0.000104
O82	O	-0.777040	0.145376	0.000111
H83	H	-0.779827	0.110987	0.056711
H84	H	-0.756504	-0.203990	0.617090
O85	O	-0.563207	0.104828	0.000078
H86	H	-0.524974	0.140203	0.000079
O87	O	-0.381732	-0.254056	0.000069
H88	H	-0.409942	-0.304243	0.000052
H89	H	-0.600624	0.494047	0.000059
O90	O	-0.791563	0.691110	0.000104
H91	H	-0.829794	0.655733	0.000118
H92	H	-0.731405	-0.171682	0.383127
O93	O	-0.594169	0.005267	0.212946
H94	H	-0.566583	-0.034187	0.173115
H95	H	-0.623379	-0.032358	0.617053
H96	H	-0.598273	-0.000051	0.383087
O97	O	-0.228300	-0.323042	0.000097
H98	H	-0.195183	-0.372218	0.000109
O99	O	0.026960	0.049995	0.000120
H100	H	-0.002150	0.050591	-0.056471
H101	H	-0.736584	-0.178414	0.224567
O102	O	-0.104752	-0.321012	0.000088
H103	H	-0.059010	-0.308259	0.000095
H104	H	-0.133410	0.099970	0.000138
H105	H	0.048552	-0.228070	0.000097
H106	H	-0.241247	0.098189	0.000138
O107	O	-0.396388	0.043021	0.000090
H108	H	-0.429499	0.092204	0.000095
O109	O	-0.760632	-0.209285	0.787228
H110	H	-0.787613	-0.244094	0.742165
H111	H	-0.754140	0.301901	0.000105
H112	H	-0.787270	0.529422	0.000107
H113	H	-0.591953	0.642347	0.000076
O114	O	-0.553268	0.274746	0.000072
H115	H	-0.558182	0.340096	0.000084
