data_functionalizedCrystal
_audit_creation_method	'MofGen! by Chris Wilmer'
_symmetry_space_group_name_H-M	'P1'
_symmetry_Int_Tables_number	1
_symmetry_cell_setting	triclinic
loop_
_symmetry_equiv_pos_as_xyz
  x,y,z
_cell_length_a	15.500227
_cell_length_b	15.995350
_cell_length_c	15.995350
_cell_angle_alpha	83.492375
_cell_angle_beta	92.830391
_cell_angle_gamma	87.159127
loop_
_atom_site_label
_atom_site_type_symbol
_atom_site_fract_x
_atom_site_fract_y
_atom_site_fract_z
O1	O	0.071866	-1.114876	-0.104044
O2	O	0.571866	-0.614876	0.395956
O3	O	0.071884	-0.871102	-0.117370
O4	O	0.571884	-0.371102	0.382630
O5	O	0.071874	-0.999653	0.011181
O6	O	0.571874	-0.499653	0.511181
O7	O	0.071876	-0.986325	-0.232595
O8	O	0.571876	-0.486325	0.267405
O9	O	-0.072014	-0.991852	0.003410
O10	O	0.427986	-0.491852	0.503410
O11	O	-0.072004	-0.863301	-0.125140
O12	O	0.427996	-0.363301	0.374860
O13	O	-0.072022	-1.107075	-0.111814
O14	O	0.427978	-0.607075	0.388186
Cu15	Cu	-0.085151	-0.984476	-0.119187
Cu16	Cu	0.414849	-0.484476	0.380813
Cu17	Cu	0.085013	-0.993701	-0.109998
Cu18	Cu	0.585013	-0.493701	0.390002
O19	O	-0.072012	-0.978525	-0.240365
O20	O	0.427988	-0.478525	0.259635
C21	C	-0.000058	-0.836007	-0.120704
C22	C	0.499942	-0.336007	0.379296
C23	C	-0.000051	-0.743057	-0.119052
C24	C	0.499949	-0.243057	0.380948
C25	C	-0.000069	-0.995201	0.038490
C26	C	0.499931	-0.495201	0.538490
C27	C	-0.000064	-0.993550	0.131441
C28	C	0.499936	-0.493550	0.631441
N29	N	-0.204836	-0.977993	-0.125649
N30	N	0.295164	-0.477993	0.374351
C31	C	-0.250116	-1.032484	-0.071198
C32	C	0.249884	-0.532484	0.428802
C33	C	-0.340689	-1.027589	-0.076093
C34	C	0.159311	-0.527589	0.423907
C35	C	-0.385979	-0.968207	-0.135445
C36	C	0.114021	-0.468207	0.364555
C37	C	-0.340692	-0.913711	-0.189898
C38	C	0.159308	-0.413711	0.310102
C39	C	-0.250121	-0.918602	-0.184998
C40	C	0.249879	-0.418602	0.315002
C41	C	-0.659444	-0.950586	-0.153082
C42	C	-0.159444	-0.450586	0.346918
C43	C	-0.750022	-0.945700	-0.157980
C44	C	-0.250022	-0.445700	0.342020
C45	C	-0.750013	-1.059578	-0.044173
C46	C	-0.250013	-0.559578	0.455827
C47	C	-0.659440	-1.064467	-0.039282
C48	C	-0.159440	-0.564467	0.460718
C49	C	-0.614161	-1.009968	-0.093732
C50	C	-0.114161	-0.509968	0.406268
C51	C	-0.478559	-0.963204	-0.140452
C52	C	0.021441	-0.463204	0.359548
C53	C	-0.521583	-1.014968	-0.088721
C54	C	-0.021583	-0.514968	0.411279
N55	N	0.204698	-1.000190	-0.103528
N56	N	0.704698	-0.500190	0.396472
C57	C	-0.000078	-1.142171	-0.108480
C58	C	0.499922	-0.642171	0.391520
C59	C	-0.000079	-1.235121	-0.110132
C60	C	0.499921	-0.735121	0.389868
C61	C	-0.000069	-0.405308	-0.113121
C62	C	0.499931	0.094692	0.386879
C63	C	-0.000391	-0.452725	-0.021586
C64	C	0.499609	0.047275	0.478414
C65	C	-0.000061	-0.549433	-0.023221
C66	C	0.499939	-0.049433	0.476779
C67	C	-0.000061	-0.572869	-0.116063
C68	C	0.499939	-0.072869	0.383937
C69	C	0.082103	-0.536237	-0.156782
C70	C	0.582103	-0.036237	0.343218
C71	C	0.082166	-0.439604	-0.154479
C72	C	0.582166	0.060396	0.345521
C73	C	-0.081462	-0.430394	-0.165207
C74	C	0.418538	0.069606	0.334793
C75	C	-0.082542	-0.527281	-0.165243
C76	C	0.417458	-0.027281	0.334757
C77	C	-0.000053	-0.667567	-0.117730
C78	C	0.499947	-0.167567	0.382270
C79	C	-0.000071	-0.310610	-0.111456
C80	C	0.499929	0.189390	0.388544
C81	C	-0.000068	-0.982976	-0.267674
C82	C	0.499932	-0.482976	0.232326
C83	C	-0.000067	-0.984628	-0.360625
C84	C	0.499933	-0.484628	0.139375
C85	C	-0.000066	-0.987618	0.469188
C86	C	0.499934	-0.487618	0.969188
C87	C	0.000263	-0.896083	0.421772
C88	C	0.500263	-0.396083	0.921772
C89	C	-0.000061	-0.897718	0.325064
C90	C	0.499939	-0.397718	0.825064
C91	C	-0.000064	-0.990560	0.301628
C92	C	0.499936	-0.490560	0.801628
C93	C	-0.082233	-1.031262	0.338268
C94	C	0.417767	-0.531262	0.838268
C95	C	-0.082302	-1.028958	0.434900
C96	C	0.417698	-0.528958	0.934900
C97	C	0.081326	-1.039721	0.444094
C98	C	0.581326	-0.539721	0.944094
C99	C	0.082412	-1.039758	0.347208
C100	C	0.582412	-0.539758	0.847208
C101	C	-0.000066	-0.992228	0.206930
C102	C	0.499934	-0.492228	0.706930
C103	C	-0.000070	-0.985952	0.563886
C104	C	0.499930	-0.485952	1.063886
H105	H	-0.213247	-1.080842	-0.022871
H106	H	0.286753	-0.580842	0.477129
C107	C	-0.082215	-0.387442	-0.256436
C108	C	0.417785	0.112558	0.243564
N109	N	-0.082777	-0.355086	-0.325147
N110	N	0.417223	0.144914	0.174853
H111	H	0.143251	-0.567926	-0.122117
H112	H	0.643251	-0.067926	0.377883
H113	H	-0.484705	-1.063314	-0.040394
H114	H	0.015295	-0.563314	0.459606
C115	C	0.165462	-1.003841	0.476382
C116	C	0.665462	-0.503841	0.976382
N117	N	0.228830	-0.976807	0.500699
N118	N	0.728830	-0.476807	1.000699
H119	H	-0.622567	-1.112821	0.009047
H120	H	-0.122567	-0.612821	0.509047
C121	C	-0.799827	-1.119516	0.015726
C122	C	-0.299827	-0.619516	0.515726
N123	N	-0.837348	-1.164660	0.060847
N124	N	-0.337348	-0.664660	0.560847
H125	H	-0.086032	-1.095972	0.466947
H126	H	0.413968	-0.595972	0.966947
C127	C	-0.799839	-0.880370	-0.223271
C128	C	-0.299839	-0.380370	0.276729
N129	N	-0.837361	-0.831166	-0.272447
N130	N	-0.337361	-0.331166	0.227553
H131	H	-0.515441	-0.914855	-0.188778
H132	H	-0.015441	-0.414855	0.311222
C133	C	-0.165598	-0.398099	-0.129309
C134	C	0.334402	0.101901	0.370691
N135	N	-0.228965	-0.373777	-0.102262
N136	N	0.271035	0.126223	0.397738
C137	C	0.079862	-0.850957	0.451115
C138	C	0.579862	-0.350957	0.951115
N139	N	0.139817	-0.816965	0.473224
N140	N	0.639817	-0.316965	0.973224
C141	C	0.078761	-0.430534	0.031908
C142	C	0.578761	0.069466	0.531908
N143	N	0.138379	-0.413816	0.072198
N144	N	0.638379	0.086184	0.572198
C145	C	0.086237	-0.555547	-0.248705
C146	C	0.586237	-0.055547	0.251295
N147	N	0.089349	-0.570094	-0.317942
N148	N	0.589349	-0.070094	0.182058
H149	H	-0.143326	-0.551303	-0.135562
H150	H	0.356674	-0.051303	0.364438
C151	C	-0.609649	-0.890743	-0.213089
C152	C	-0.109649	-0.390743	0.286911
N153	N	-0.572140	-0.845705	-0.258328
N154	N	-0.072140	-0.345705	0.241672
C155	C	-0.079627	-0.583529	0.020443
C156	C	0.420373	-0.083529	0.520443
N157	N	-0.139556	-0.609206	0.053337
N158	N	0.360444	-0.109206	0.553337
C159	C	0.089108	-1.131591	0.326823
C160	C	0.589108	-0.631591	0.826823
N161	N	0.094144	-1.200763	0.311473
N162	N	0.594144	-0.700763	0.811473
C163	C	0.087222	-0.396310	-0.245009
C164	C	0.587222	0.103690	0.254991
N165	N	0.091039	-0.363705	-0.313195
N166	N	0.591039	0.136295	0.186805
H167	H	-0.059059	-0.858785	0.294014
H168	H	0.440941	-0.358785	0.794014
H169	H	-0.377556	-1.071959	-0.031754
H170	H	0.122444	-0.571959	0.468246
H171	H	-0.143722	-0.992700	0.449885
H172	H	0.356278	-0.492700	0.949885
H173	H	-0.377572	-0.865357	-0.238221
H174	H	0.122428	-0.365357	0.261779
H175	H	-0.213254	-0.874229	-0.229338
H176	H	0.286746	-0.374229	0.270662
H177	H	0.143586	-0.424626	-0.118232
H178	H	0.643586	0.075374	0.381768
C179	C	-0.089258	-0.547688	-0.257067
C180	C	0.410742	-0.047688	0.242933
N181	N	-0.094314	-0.563064	-0.326230
N182	N	0.405686	-0.063064	0.173770
C183	C	0.079509	-0.854071	0.290961
C184	C	0.579509	-0.354071	0.790961
N185	N	0.139441	-0.821190	0.265278
N186	N	0.639441	-0.321190	0.765278
H187	H	-0.058329	-0.856477	0.438202
H188	H	0.441671	-0.356477	0.938202
H189	H	0.143198	-1.010038	0.323242
H190	H	0.643198	-0.510038	0.823242
C191	C	-0.079992	-0.423378	0.023556
C192	C	0.420008	0.076622	0.523556
N193	N	-0.139949	-0.401267	0.057558
N194	N	0.360051	0.098733	0.557558
C195	C	-0.086379	-1.123179	0.318945
C196	C	0.413621	-0.623179	0.818945
N197	N	-0.089503	-1.192409	0.304383
N198	N	0.410497	-0.692409	0.804383
C199	C	0.079649	-0.591392	0.029357
C200	C	0.579649	-0.091392	0.529357
N201	N	0.139691	-0.622996	0.068960
N202	N	0.639691	-0.122996	0.568960
C203	C	-0.164839	-0.984409	0.295473
C204	C	0.335161	-0.484409	0.795473
N205	N	-0.227056	-0.949114	0.263241
N206	N	0.272944	-0.449114	0.763241
H207	H	0.081876	-1.107251	0.475885
H208	H	0.581876	-0.607251	0.975885
