data_functionalizedCrystal
_audit_creation_method	'MofGen! by Chris Wilmer'
_symmetry_space_group_name_H-M	'P1'
_symmetry_Int_Tables_number	1
_symmetry_cell_setting	triclinic
loop_
_symmetry_equiv_pos_as_xyz
  x,y,z
_cell_length_a	11.026607
_cell_length_b	13.330367
_cell_length_c	10.967829
_cell_angle_alpha	102.132491
_cell_angle_beta	96.380563
_cell_angle_gamma	90.006834
loop_
_atom_site_label
_atom_site_type_symbol
_atom_site_fract_x
_atom_site_fract_y
_atom_site_fract_z
O1	O	1.614540	0.173925	0.523516
O2	O	2.114540	0.673925	1.023516
O3	O	1.260736	0.163621	0.463904
O4	O	1.760736	0.663621	0.963904
O5	O	1.445795	0.137683	0.313892
O6	O	1.945795	0.637683	0.813892
O7	O	1.429482	0.199863	0.673528
O8	O	1.929482	0.699863	1.173528
O9	O	1.445768	-0.029166	0.313881
O10	O	1.945768	0.470834	0.813881
O11	O	1.260709	-0.003228	0.463893
O12	O	1.760709	0.496772	0.963893
O13	O	1.614513	0.007076	0.523506
O14	O	2.114513	0.507076	1.023506
Cu15	Cu	1.437609	-0.013311	0.493699
Cu16	Cu	1.937609	0.486689	0.993699
Cu17	Cu	1.437641	0.184008	0.493711
Cu18	Cu	1.937641	0.684008	0.993711
O19	O	1.429455	0.033014	0.673518
O20	O	1.929455	0.533014	1.173518
C21	C	1.215420	0.078295	0.452901
C22	C	1.715420	0.578295	0.952901
C23	C	1.080432	0.072629	0.420117
C24	C	1.580432	0.572629	0.920117
N25	N	1.437595	-0.152093	0.493691
N26	N	1.937595	0.347907	0.993691
C27	C	1.007383	0.088280	0.510639
C28	C	1.507383	0.588280	1.010639
C29	C	0.867865	0.082423	0.476757
C30	C	1.367865	0.582423	0.976757
C31	C	1.355693	-0.613233	0.560102
C32	C	1.855693	-0.113233	1.060102
C33	C	1.519621	-0.636161	0.427317
C34	C	2.019621	-0.136161	0.927317
C35	C	1.519607	-0.531144	0.427310
C36	C	2.019607	-0.031144	0.927310
C37	C	1.437636	-0.467166	0.493702
C38	C	1.937636	0.032834	0.993702
C39	C	1.355679	-0.508206	0.560100
C40	C	1.855679	-0.008206	1.060100
C41	C	1.601571	-0.490094	0.360924
C42	C	2.101571	0.009906	0.860924
C43	C	1.601562	-0.385071	0.360915
C44	C	2.101562	0.114929	0.860915
C45	C	1.519584	-0.321092	0.427300
C46	C	2.019584	0.178908	0.927300
C47	C	1.437623	-0.362138	0.493700
C48	C	1.937623	0.137862	0.993700
C49	C	1.355652	-0.298161	0.560091
C50	C	1.855652	0.201839	1.060091
C51	C	1.273683	-0.339206	0.626485
C52	C	1.773683	0.160794	1.126485
C53	C	1.273701	-0.444227	0.626485
C54	C	1.773701	0.055773	1.126485
C55	C	1.519566	-0.216071	0.427300
C56	C	2.019566	0.283929	0.927300
C57	C	1.355638	-0.193133	0.560089
C58	C	1.855638	0.306867	1.060089
C59	C	1.659829	0.092404	0.534508
C60	C	2.159829	0.592404	1.034508
C61	C	1.794817	0.098077	0.567292
C62	C	2.294817	0.598077	1.067292
C63	C	1.444592	0.046177	0.267130
C64	C	1.944592	0.546177	0.767130
C65	C	1.441035	0.022094	0.127806
C66	C	1.941035	0.522094	0.627806
N67	N	1.437664	0.322789	0.493710
N68	N	1.937664	0.822789	0.993710
C69	C	1.439463	0.097792	0.065702
C70	C	1.939463	0.597792	0.565702
C71	C	1.435786	0.072903	-0.078296
C72	C	1.935786	0.572903	0.421704
C73	C	1.430657	0.124523	0.720280
C74	C	1.930657	0.624523	1.220280
C75	C	1.434215	0.148611	0.859604
C76	C	1.934215	0.648611	1.359604
H77	H	0.827123	0.064712	0.374168
H78	H	1.327123	0.564712	0.874168
H79	H	0.835558	0.115808	0.669882
H80	H	1.335558	0.615808	1.169882
O81	O	1.061343	0.111764	0.646526
O82	O	1.561343	0.611764	1.146526
H83	H	1.030577	0.187924	0.693726
H84	H	1.530577	0.687924	1.193726
H85	H	1.206967	-0.477653	0.680541
H86	H	1.706967	0.022347	1.180541
O87	O	1.689949	-0.340810	0.289286
O88	O	2.189949	0.159190	0.789286
H89	H	1.749476	-0.281549	0.355208
H90	H	2.249476	0.218451	0.855208
O91	O	1.026477	0.049134	0.284228
O92	O	1.526477	0.549134	0.784228
H93	H	0.925361	0.048227	0.278941
H94	H	1.425361	0.548227	0.778941
H95	H	1.434402	-0.010335	-0.131729
H96	H	1.934402	0.489665	0.368271
H97	H	1.440834	0.181024	0.119139
H98	H	1.940834	0.681024	0.619139
O99	O	1.608037	-0.705155	0.355718
O100	O	2.108037	-0.205155	0.855718
H101	H	1.556365	-0.765512	0.283426
H102	H	2.056365	-0.265512	0.783426
O103	O	1.439218	-0.088158	0.057026
O104	O	1.939218	0.411842	0.557026
H105	H	1.357127	-0.128759	0.074601
H106	H	1.857127	0.371241	0.574601
O107	O	1.267292	-0.657491	0.631719
O108	O	1.767292	-0.157491	1.131719
H109	H	1.281072	-0.741266	0.620577
H110	H	1.781072	-0.241266	1.120577
O111	O	1.436041	0.258875	-0.069639
O112	O	1.936041	0.758875	0.430361
H113	H	1.438651	0.261123	0.032360
H114	H	1.938651	0.761123	0.532360
O115	O	1.267229	-0.124127	0.631702
O116	O	1.767229	0.375873	1.131702
H117	H	1.210246	-0.170314	0.677873
H118	H	1.710246	0.329686	1.177873
H119	H	1.586309	-0.182655	0.373250
H120	H	2.086309	0.317345	0.873250
O121	O	1.185261	-0.270191	0.698066
O122	O	1.685261	0.229809	1.198066
H123	H	1.236931	-0.209824	0.770346
H124	H	1.736931	0.290176	1.270346
H125	H	1.668316	-0.542186	0.306877
H126	H	2.168316	-0.042186	0.806877
