data_functionalizedCrystal
_audit_creation_method	'MofGen! by Chris Wilmer'
_symmetry_space_group_name_H-M	'P1'
_symmetry_Int_Tables_number	1
_symmetry_cell_setting	triclinic
loop_
_symmetry_equiv_pos_as_xyz
  x,y,z
_cell_length_a	17.699097
_cell_length_b	15.995292
_cell_length_c	16.176319
_cell_angle_alpha	89.996390
_cell_angle_beta	89.988988
_cell_angle_gamma	83.378524
loop_
_atom_site_label
_atom_site_type_symbol
_atom_site_fract_x
_atom_site_fract_y
_atom_site_fract_z
O1	O	1.004229	0.105941	-0.068809
O2	O	0.783872	0.119706	-0.068795
O3	O	0.900097	-0.009079	-0.068804
O4	O	0.888004	0.234726	-0.068801
O5	O	0.900081	-0.009088	0.068689
O6	O	0.783856	0.119698	0.068698
O7	O	1.004213	0.105933	0.068684
Cu8	Cu	0.894033	0.112815	0.081245
Cu9	Cu	0.894052	0.112824	-0.081357
O10	O	0.887988	0.234718	0.068693
C11	C	0.755666	0.119207	-0.000047
C12	C	0.671647	0.117721	-0.000042
C13	C	0.155924	0.108621	-0.075023
C14	C	0.234870	0.110011	-0.075019
C15	C	0.274328	0.110703	-0.000068
C16	C	0.234837	0.109997	0.074884
C17	C	0.155893	0.108601	0.074879
C18	C	0.553209	0.115625	0.074906
C19	C	0.632159	0.117023	0.074905
C20	C	0.632186	0.117035	-0.074992
C21	C	0.553242	0.115640	-0.074997
C22	C	0.513759	0.114929	-0.000046
C23	C	0.428156	0.113420	-0.000051
C24	C	0.359928	0.112218	-0.000061
C25	C	0.899597	-0.040278	-0.000059
C26	C	0.898121	-0.133228	-0.000066
C27	C	0.892696	-0.470956	-0.000058
C28	C	0.976584	-0.447810	0.000244
C29	C	0.978179	-0.351137	-0.000069
C30	C	0.895388	-0.303405	-0.000061
C31	C	0.853457	-0.332419	-0.078571
C32	C	0.852447	-0.429207	-0.078634
C33	C	0.850716	-0.429070	0.077722
C34	C	0.853825	-0.332584	0.078756
C35	C	0.896905	-0.208712	-0.000066
C36	C	0.891177	-0.565649	-0.000058
C37	C	1.032418	0.106432	-0.000066
C38	C	1.116438	0.107917	-0.000077
C39	C	0.888488	0.265917	-0.000054
C40	C	0.889963	0.358867	-0.000053
N41	N	0.894025	0.112807	0.195610
N42	N	0.894065	0.112825	-0.195722
C43	C	0.945505	0.055804	0.238871
C44	C	0.945509	0.055803	0.325418
C45	C	0.894036	0.112810	0.368703
C46	C	0.842550	0.169816	0.325437
C47	C	0.842543	0.169812	0.238891
C48	C	0.842576	0.169831	0.674465
C49	C	0.842589	0.169832	0.761016
C50	C	0.945542	0.055823	0.760991
C51	C	0.945535	0.055819	0.674446
C52	C	0.894047	0.112821	0.631187
C53	C	0.894042	0.112821	0.537343
C54	C	0.894043	0.112816	0.462545
H55	H	0.664283	0.117586	0.135943
N56	N	0.885514	-0.466559	0.156553
H57	H	0.845681	-0.492819	0.189176
H58	H	0.928854	-0.511050	0.142576
H59	H	0.664344	0.117611	-0.136021
H60	H	0.521073	0.115034	0.135936
N61	N	0.770980	-0.448329	-0.083358
H62	H	0.735882	-0.393904	-0.085394
H63	H	0.763820	-0.482282	-0.134822
H64	H	0.884357	-0.314082	0.136837
H65	H	0.266971	0.110555	0.135910
N66	N	0.113304	0.107836	0.155714
H67	H	0.150347	0.107899	0.203194
H68	H	0.074763	0.159440	0.159233
H69	H	0.881500	-0.456077	-0.137327
H70	H	0.793395	-0.299495	0.083504
H71	H	0.800655	0.216246	0.639250
H72	H	0.987463	0.009406	0.796222
N73	N	0.787036	0.231301	0.372126
H74	H	0.795736	0.290717	0.357053
H75	H	0.733347	0.221655	0.357068
H76	H	0.987423	0.009386	0.203634
N77	N	0.510681	0.114890	-0.155834
H78	H	0.518280	0.167018	-0.188604
H79	H	0.530593	0.063213	-0.188532
H80	H	1.011018	-0.332181	0.056209
N81	N	1.019412	-0.484975	0.074825
H82	H	0.984855	-0.517180	0.109141
H83	H	1.064907	-0.524322	0.056027
N84	N	0.892050	-0.305930	-0.155971
H85	H	0.910637	-0.357392	-0.189647
H86	H	0.854654	-0.267493	-0.189701
H87	H	0.788968	-0.442938	0.078256
H88	H	1.008746	-0.476888	-0.055747
N89	N	1.021952	-0.326830	-0.074750
H90	H	1.040281	-0.378945	-0.107598
H91	H	0.987748	-0.286847	-0.110462
N92	N	0.277464	0.110781	-0.155849
H93	H	0.316362	0.059474	-0.159192
H94	H	0.240442	0.110168	-0.203287
H95	H	0.987427	0.009387	0.360640
N96	N	0.787060	0.231310	0.807706
H97	H	0.815970	0.268353	0.843600
H98	H	0.754452	0.267361	0.767118
N99	N	0.772758	-0.290048	-0.082432
H100	H	0.773203	-0.227014	-0.084936
H101	H	0.746935	-0.309686	-0.133377
N102	N	1.001048	-0.005664	0.627754
H103	H	1.054763	0.003905	0.642794
H104	H	0.992280	-0.065054	0.642840
N105	N	0.113367	0.107881	-0.155864
H106	H	0.150364	0.108536	-0.203340
H107	H	0.086758	0.055415	-0.159132
N108	N	0.787015	0.231289	0.192227
H109	H	0.754408	0.267404	0.232779
H110	H	0.815974	0.268268	0.156303
