data_functionalizedCrystal
_audit_creation_method	'MofGen! by Chris Wilmer'
_symmetry_space_group_name_H-M	'P1'
_symmetry_Int_Tables_number	1
_symmetry_cell_setting	triclinic
loop_
_symmetry_equiv_pos_as_xyz
  x,y,z
_cell_length_a	16.625547
_cell_length_b	21.295417
_cell_length_c	16.625527
_cell_angle_alpha	89.910215
_cell_angle_beta	89.935872
_cell_angle_gamma	90.029639
loop_
_atom_site_label
_atom_site_type_symbol
_atom_site_fract_x
_atom_site_fract_y
_atom_site_fract_z
Zn1	Zn	1.232953	-0.250252	-0.455979
Zn2	Zn	1.566286	0.083081	-0.122646
Zn3	Zn	1.899620	0.416415	0.210687
Zn4	Zn	1.232747	-0.355631	-0.321137
Zn5	Zn	1.566080	-0.022298	0.012197
Zn6	Zn	1.899413	0.311036	0.345530
Zn7	Zn	1.098022	-0.250379	-0.321150
Zn8	Zn	1.431356	0.082954	0.012184
Zn9	Zn	1.764689	0.416287	0.345517
Zn10	Zn	1.098068	-0.355487	-0.455917
Zn11	Zn	1.431402	-0.022154	-0.122584
Zn12	Zn	1.764735	0.311179	0.210750
O13	O	1.165448	-0.302937	-0.388546
O14	O	1.498781	0.030396	-0.055212
O15	O	1.832114	0.363729	0.278121
O16	O	1.345758	-0.264238	-0.438113
O17	O	1.679091	0.069096	-0.104780
O18	O	2.012425	0.402429	0.228554
O19	O	1.214770	-0.341783	-0.208306
O20	O	1.548103	-0.008449	0.125028
O21	O	1.881436	0.324884	0.458361
O22	O	1.115988	-0.162273	-0.339066
O23	O	1.449322	0.171060	-0.005733
O24	O	1.782655	0.504394	0.327600
O25	O	1.345606	-0.341659	-0.339045
O26	O	1.678940	-0.008326	-0.005711
O27	O	2.012273	0.325008	0.327622
O28	O	1.215121	-0.162179	-0.438125
O29	O	1.548455	0.171154	-0.104792
O30	O	1.881788	0.504487	0.228541
O31	O	1.115788	-0.264455	-0.208315
O32	O	1.449121	0.068878	0.125018
O33	O	1.782455	0.402212	0.458351
O34	O	0.985196	-0.264315	-0.339006
O35	O	1.318529	0.069018	-0.005673
O36	O	1.651863	0.402351	0.327661
O37	O	1.116067	-0.341414	-0.568758
O38	O	1.449400	-0.008081	-0.235425
O39	O	1.782733	0.325253	0.097909
O40	O	0.985230	-0.341538	-0.438019
O41	O	1.318563	-0.008204	-0.104686
O42	O	1.651896	0.325129	0.228648
O43	O	1.215166	-0.264098	-0.568804
O44	O	1.548499	0.069235	-0.235470
O45	O	1.881833	0.402569	0.097863
O46	O	1.214814	-0.443701	-0.338984
O47	O	1.548147	-0.110368	-0.005651
O48	O	1.881481	0.222965	0.327682
O49	O	1.115866	-0.443596	-0.438007
O50	O	1.449200	-0.110262	-0.104673
O51	O	1.782533	0.223071	0.228660
C52	C	0.955957	-0.302925	-0.388508
C53	C	1.289290	0.030408	-0.055174
C54	C	1.622623	0.363741	0.278159
C55	C	0.866336	-0.302935	-0.388510
C56	C	1.199669	0.030398	-0.055177
C57	C	1.533002	0.363732	0.278156
C58	C	0.793553	-0.302936	-0.388520
C59	C	1.126886	0.030397	-0.055187
C60	C	1.460220	0.363730	0.278146
C61	C	0.702245	-0.302940	-0.388541
C62	C	1.035578	0.030394	-0.055207
C63	C	1.368911	0.363727	0.278126
C64	C	0.629468	-0.302945	-0.388561
C65	C	0.962802	0.030388	-0.055228
C66	C	1.296135	0.363721	0.278106
C67	C	0.538154	-0.302950	-0.388580
C68	C	0.871487	0.030384	-0.055247
C69	C	1.204821	0.363717	0.278086
C70	C	1.165345	-0.466489	-0.388505
C71	C	1.498678	-0.133156	-0.055172
C72	C	1.832011	0.200178	0.278162
C73	C	1.165375	-0.536457	-0.388514
C74	C	1.498708	-0.203124	-0.055181
C75	C	1.832041	0.130210	0.278152
C76	C	1.216964	-0.569218	-0.440131
C77	C	1.550297	-0.235884	-0.106798
C78	C	1.883630	0.097449	0.226536
C79	C	1.216992	-0.634960	-0.440151
C80	C	1.550325	-0.301627	-0.106818
C81	C	1.883659	0.031706	0.226516
C82	C	1.165440	-0.667940	-0.388540
C83	C	1.498773	-0.334606	-0.055206
C84	C	1.832107	-0.001273	0.278127
C85	C	1.113841	-0.635171	-0.336919
C86	C	1.447174	-0.301838	-0.003586
C87	C	1.780507	0.031496	0.329747
C88	C	1.113808	-0.569430	-0.336907
C89	C	1.447141	-0.236096	-0.003573
C90	C	1.780475	0.097237	0.329760
N91	N	1.159300	-0.771258	-0.317974
N92	N	1.492633	-0.437925	0.015359
N93	N	1.825967	-0.104592	0.348693
N94	N	1.159336	-0.833710	-0.317988
N95	N	1.492669	-0.500377	0.015345
N96	N	1.826002	-0.167043	0.348678
C97	C	1.165534	-0.866014	-0.388576
C98	C	1.498867	-0.532681	-0.055243
C99	C	1.832201	-0.199348	0.278090
N100	N	1.171711	-0.833508	-0.459151
N101	N	1.505044	-0.500175	-0.125817
N102	N	1.838378	-0.166841	0.207516
N103	N	1.171679	-0.771051	-0.459136
N104	N	1.505013	-0.437717	-0.125802
N105	N	1.838346	-0.104384	0.207531
C106	C	1.165469	-0.739225	-0.388548
C107	C	1.498803	-0.405892	-0.055215
C108	C	1.832136	-0.072558	0.278118
C109	C	1.217157	-0.970060	-0.440219
C110	C	1.550490	-0.636727	-0.106886
C111	C	1.883824	-0.303394	0.226448
C112	C	1.217180	-1.035804	-0.440240
C113	C	1.550513	-0.702471	-0.106907
C114	C	1.883846	-0.369137	0.226427
C115	C	1.114033	-1.036014	-0.337001
C116	C	1.447366	-0.702680	-0.003668
C117	C	1.780699	-0.369347	0.329665
C118	C	1.114006	-0.970271	-0.336987
C119	C	1.447339	-0.636938	-0.003654
C120	C	1.780672	-0.303604	0.329679
C121	C	1.165572	-0.937299	-0.388595
C122	C	1.498905	-0.603965	-0.055262
C123	C	1.832239	-0.270632	0.278072
C124	C	1.375756	-0.302950	-0.388584
C125	C	1.709090	0.030383	-0.055251
C126	C	2.042423	0.363717	0.278082
C127	C	1.465378	-0.302955	-0.388601
C128	C	1.798711	0.030378	-0.055268
C129	C	2.132044	0.363711	0.278066
C130	C	1.165644	-0.302726	-0.598855
C131	C	1.498978	0.030608	-0.265522
C132	C	1.832311	0.363941	0.067811
C133	C	1.165728	-0.302636	-0.688477
C134	C	1.499062	0.030698	-0.355143
C135	C	1.832395	0.364031	-0.021810
C136	C	1.165573	-0.138747	-0.388604
C137	C	1.498906	0.194586	-0.055271
C138	C	1.832239	0.527920	0.278062
C139	C	1.165626	-0.068779	-0.388629
C140	C	1.498959	0.264554	-0.055296
C141	C	1.832293	0.597888	0.278037
C142	C	1.165298	-0.303103	-0.179054
C143	C	1.498631	0.030231	0.154279
C144	C	1.831965	0.363564	0.487612
C145	C	1.165370	-0.303016	-0.089434
C146	C	1.498704	0.030318	0.243900
C147	C	1.832037	0.363651	0.577233
C148	C	1.165670	-0.302707	0.238741
C149	C	1.499003	0.030626	0.572075
C150	C	1.832336	0.363960	0.905408
C151	C	1.165589	-0.302795	0.147433
C152	C	1.498922	0.030538	0.480766
C153	C	1.832255	0.363872	0.814100
C154	C	1.165520	-0.302862	0.074657
C155	C	1.498853	0.030472	0.407990
C156	C	1.832186	0.363805	0.741323
C157	C	1.165439	-0.302949	-0.016657
C158	C	1.498773	0.030385	0.316676
C159	C	1.832106	0.363718	0.650009
H160	H	1.258950	-0.542373	-0.482155
H161	H	1.592283	-0.209040	-0.148822
H162	H	1.925617	0.124293	0.184512
H163	H	1.071865	-0.662027	-0.294899
H164	H	1.405198	-0.328694	0.038434
H165	H	1.738532	0.004640	0.371768
H166	H	1.259143	-0.943213	-0.482244
H167	H	1.592476	-0.609880	-0.148910
H168	H	1.925810	-0.276546	0.184423
H169	H	1.071797	-0.542755	-0.294873
H170	H	1.405130	-0.209422	0.038460
H171	H	1.738464	0.123911	0.371793
H172	H	1.259189	-1.062477	-0.482276
H173	H	1.592523	-0.729143	-0.148943
H174	H	1.925856	-0.395810	0.184390
H175	H	1.258995	-0.661639	-0.482193
H176	H	1.592329	-0.328306	-0.148860
H177	H	1.925662	0.005027	0.184474
H178	H	1.072053	-1.062865	-0.294983
H179	H	1.405386	-0.729531	0.038350
H180	H	1.738719	-0.396198	0.371683
H181	H	1.072000	-0.943596	-0.294952
H182	H	1.405334	-0.610262	0.038381
H183	H	1.738667	-0.276929	0.371714
