data_functionalizedCrystal
_audit_creation_method	'MofGen! by Chris Wilmer'
_symmetry_space_group_name_H-M	'P1'
_symmetry_Int_Tables_number	1
_symmetry_cell_setting	triclinic
loop_
_symmetry_equiv_pos_as_xyz
  x,y,z
_cell_length_a	10.654550
_cell_length_b	9.130313
_cell_length_c	10.654550
_cell_angle_alpha	90.005090
_cell_angle_beta	84.484931
_cell_angle_gamma	89.997243
loop_
_atom_site_label
_atom_site_type_symbol
_atom_site_fract_x
_atom_site_fract_y
_atom_site_fract_z
O1	O	1.667834	0.121690	0.176401
O2	O	1.302355	0.121716	0.193207
O3	O	1.493498	0.121693	0.002064
O4	O	1.476691	0.121713	0.367543
O5	O	1.493496	-0.121906	0.002055
O6	O	1.302353	-0.121882	0.193197
O7	O	1.667832	-0.121909	0.176391
Cu8	Cu	1.485093	-0.144138	0.184793
Cu9	Cu	1.485095	0.143946	0.184805
O10	O	1.476690	-0.121886	0.367534
C11	C	1.255556	-0.000080	0.191968
C12	C	1.116113	-0.000070	0.188276
N13	N	1.485100	-0.346761	0.184785
N14	N	1.485097	0.346568	0.184803
C15	C	1.036628	-0.000068	0.300818
C16	C	0.905607	-0.000093	0.297341
C17	C	0.933570	-0.000117	0.068772
C18	C	1.064588	-0.000101	0.072250
C19	C	1.714631	-0.000110	0.177630
C20	C	1.854074	-0.000110	0.181322
C21	C	1.492263	-0.000105	-0.044738
C22	C	1.488571	-0.000103	-0.184181
C23	C	1.569895	0.423210	0.100333
C24	C	1.569900	0.576547	0.100327
C25	C	1.400298	0.576587	0.269264
C26	C	1.400300	0.423253	0.269276
C27	C	1.601112	-0.000111	-0.263667
C28	C	1.597636	-0.000092	-0.394688
C29	C	1.369066	-0.000065	-0.366725
C30	C	1.372544	-0.000073	-0.235706
C31	C	1.477925	-0.000084	0.414336
C32	C	1.481617	-0.000077	0.553779
H33	H	1.078574	-0.000053	0.395294
C34	C	1.243064	0.000258	-0.422602
C35	C	1.174980	0.125610	-0.382312
C36	C	1.058908	0.125964	-0.433772
H37	H	1.196521	-0.084586	-0.395430
H38	H	1.257059	0.000337	-0.512021
H39	H	1.160982	0.125517	-0.292912
H40	H	1.221485	0.210474	-0.409483
H41	H	1.072902	0.126043	-0.523191
H42	H	1.012376	0.041114	-0.406596
H43	H	1.012703	0.211019	-0.406453
C44	C	1.727116	0.000179	-0.207793
C45	C	1.795199	0.125524	-0.248058
C46	C	1.911274	0.125858	-0.196603
H47	H	1.773658	-0.084669	-0.234983
H48	H	1.713124	0.000254	-0.118373
H49	H	1.809195	0.125436	-0.337459
H50	H	1.748695	0.210393	-0.220869
H51	H	1.897282	0.125933	-0.107183
H52	H	1.957805	0.041004	-0.223797
H53	H	1.957478	0.210909	-0.223906
C54	C	1.308374	0.659773	0.361167
C55	C	1.329595	0.622533	0.484840
C56	C	1.244947	0.699147	0.569534
H57	H	1.224429	0.634705	0.346760
H58	H	1.320522	0.762084	0.349145
H59	H	1.317438	0.520245	0.496857
H60	H	1.413523	0.647605	0.499287
H61	H	1.257094	0.801458	0.557512
H62	H	1.161007	0.674073	0.555115
H63	H	1.259341	0.673901	0.653455
H64	H	1.689279	-0.000096	-0.459401
H65	H	0.840894	-0.000095	0.388984
H66	H	0.891602	-0.000151	-0.025693
H67	H	1.129309	-0.000107	-0.019401
H68	H	1.280893	-0.000062	-0.170985
C69	C	1.662020	0.659493	0.008472
C70	C	1.736256	0.559510	-0.065518
C71	C	1.821123	0.635865	-0.150162
H72	H	1.714717	0.719318	0.054091
H73	H	1.616527	0.719270	-0.044396
H74	H	1.781745	0.499758	-0.012658
H75	H	1.683593	0.499681	-0.111165
H76	H	1.775631	0.695643	-0.203030
H77	H	1.873812	0.695688	-0.104533
H78	H	1.871495	0.568039	-0.200382
H79	H	1.331246	0.360847	0.338067
H80	H	1.638944	0.360777	0.031552
