data_functionalizedCrystal
_audit_creation_method	'MofGen! by Chris Wilmer'
_symmetry_space_group_name_H-M	'P1'
_symmetry_Int_Tables_number	1
_symmetry_cell_setting	triclinic
loop_
_symmetry_equiv_pos_as_xyz
  x,y,z
_cell_length_a	16.109301
_cell_length_b	19.188930
_cell_length_c	15.186229
_cell_angle_alpha	89.991143
_cell_angle_beta	89.999362
_cell_angle_gamma	83.303131
loop_
_atom_site_label
_atom_site_type_symbol
_atom_site_fract_x
_atom_site_fract_y
_atom_site_fract_z
O1	O	1.102833	0.089744	-0.073183
O2	O	1.436167	0.423077	0.260150
O3	O	1.769500	0.756411	0.593484
O4	O	0.860734	0.100912	-0.073198
O5	O	1.194068	0.434246	0.260135
O6	O	1.527401	0.767579	0.593468
O7	O	0.988770	-0.006311	-0.073173
O8	O	1.322104	0.327022	0.260160
O9	O	1.655437	0.660355	0.593494
O10	O	0.974797	0.196967	-0.073208
O11	O	1.308131	0.530301	0.260125
O12	O	1.641464	0.863634	0.593458
O13	O	0.988762	-0.006313	0.073284
O14	O	1.322095	0.327021	0.406618
O15	O	1.655428	0.660354	0.739951
O16	O	0.860726	0.100911	0.073259
O17	O	1.194059	0.434244	0.406592
O18	O	1.527392	0.767578	0.739926
O19	O	1.102825	0.089742	0.073274
O20	O	1.436158	0.423076	0.406608
O21	O	1.769491	0.756409	0.739941
Zn22	Zn	0.981774	0.095326	0.096520
Zn23	Zn	1.315107	0.428660	0.429853
Zn24	Zn	1.648441	0.761993	0.763187
Zn25	Zn	0.981785	0.095328	-0.096444
Zn26	Zn	1.315118	0.428662	0.236889
Zn27	Zn	1.648452	0.761995	0.570223
O28	O	0.974789	0.196966	0.073249
O29	O	1.308122	0.530299	0.406582
O30	O	1.641455	0.863633	0.739916
C31	C	0.829757	0.100459	0.000029
C32	C	1.163090	0.433793	0.333362
C33	C	1.496423	0.767126	0.666695
C34	C	0.737466	0.099103	0.000024
C35	C	1.070799	0.432436	0.333357
C36	C	1.404132	0.765770	0.666690
C37	C	0.988313	-0.032324	0.000058
C38	C	1.321647	0.301009	0.333391
C39	C	1.654980	0.634343	0.666725
C40	C	0.986955	-0.109832	0.000066
C41	C	1.320288	0.223502	0.333399
C42	C	1.653622	0.556835	0.666732
C43	C	0.514993	0.159573	0.000023
C44	C	0.848326	0.492907	0.333357
C45	C	1.181660	0.826240	0.666690
C46	C	0.428277	0.158294	0.000029
C47	C	0.761610	0.491627	0.333363
C48	C	1.094944	0.824960	0.666696
C49	C	0.448573	0.031076	0.000048
C50	C	0.781906	0.364410	0.333381
C51	C	1.115239	0.697743	0.666714
C52	C	0.535287	0.032357	0.000048
C53	C	0.868621	0.365690	0.333381
C54	C	1.201954	0.699024	0.666715
C55	C	0.568495	0.096608	0.000031
C56	C	0.901828	0.429941	0.333365
C57	C	1.235161	0.763274	0.666698
C58	C	0.395064	0.094047	0.000037
C59	C	0.728398	0.427380	0.333370
C60	C	1.061731	0.760714	0.666704
C61	C	0.301043	0.092659	0.000043
C62	C	0.634376	0.425992	0.333377
C63	C	0.967709	0.759326	0.666710
C64	C	0.662522	0.097996	0.000027
C65	C	0.995856	0.431329	0.333360
C66	C	1.329189	0.764663	0.666693
C67	C	1.062082	-0.154580	0.000075
C68	C	1.395416	0.178753	0.333408
C69	C	1.728749	0.512087	0.666741
C70	C	1.060806	-0.227407	0.000060
C71	C	1.394140	0.105927	0.333394
C72	C	1.727473	0.439260	0.666727
C73	C	0.984399	-0.255482	0.000055
C74	C	1.317732	0.077851	0.333388
C75	C	1.651065	0.411185	0.666722
C76	C	0.909261	-0.210724	0.000041
C77	C	1.242595	0.122610	0.333374
C78	C	1.575928	0.455943	0.666708
C79	C	0.910540	-0.137899	0.000046
C80	C	1.243873	0.195435	0.333380
C81	C	1.577206	0.528768	0.666713
N82	N	0.925991	-0.363624	0.049893
N83	N	1.259324	-0.030291	0.383227
N84	N	1.592658	0.303043	0.716560
N85	N	0.924782	-0.432805	0.049890
N86	N	1.258115	-0.099472	0.383224
N87	N	1.591449	0.233861	0.716557
C88	C	0.980543	-0.474900	0.000037
C89	C	1.313876	-0.141566	0.333370
C90	C	1.647209	0.191767	0.666704
N91	N	1.037571	-0.445200	-0.049802
N92	N	1.370904	-0.111867	0.283531
N93	N	1.704238	0.221466	0.616865
N94	N	1.038783	-0.376013	-0.049795
N95	N	1.372116	-0.042679	0.283538
N96	N	1.705449	0.290654	0.616872
C97	C	0.983004	-0.334448	0.000049
C98	C	1.316337	-0.001114	0.333382
C99	C	1.649671	0.332219	0.666715
C100	C	1.054292	-0.598616	0.000029
C101	C	1.387625	-0.265282	0.333363
C102	C	1.720958	0.068051	0.666696
C103	C	1.053012	-0.671443	0.000010
C104	C	1.386346	-0.338110	0.333343
C105	C	1.719679	-0.004777	0.666676
C106	C	0.901465	-0.654759	-0.000001
C107	C	1.234799	-0.321425	0.333332
C108	C	1.568132	0.011908	0.666666
C109	C	0.902747	-0.581933	0.000010
C110	C	1.236080	-0.248599	0.333343
C111	C	1.569413	0.084734	0.666676
C112	C	0.979162	-0.553866	0.000029
C113	C	1.312495	-0.220532	0.333362
C114	C	1.645829	0.112801	0.666696
C115	C	1.133802	0.090196	0.000045
C116	C	1.467136	0.423529	0.333379
C117	C	1.800469	0.756862	0.666712
C118	C	1.226093	0.091552	0.000045
C119	C	1.559427	0.424885	0.333378
C120	C	1.892760	0.758219	0.666711
C121	C	0.975246	0.222979	0.000016
C122	C	1.308579	0.556312	0.333349
C123	C	1.641912	0.889645	0.666683
C124	C	0.976604	0.300486	0.000003
C125	C	1.309937	0.633820	0.333336
C126	C	1.643271	0.967153	0.666669
N127	N	0.981772	0.095325	0.228213
N128	N	1.315106	0.428658	0.561546
N129	N	1.648439	0.761991	0.894879
N130	N	0.981793	0.095325	-0.228137
N131	N	1.315127	0.428658	0.105197
N132	N	1.648460	0.761991	0.438530
C133	C	1.038486	0.047862	0.453947
C134	C	1.371819	0.381195	0.787280
C135	C	1.705152	0.714529	1.120613
C136	C	1.038488	0.047860	0.546136
C137	C	1.371822	0.381194	0.879470
C138	C	1.705155	0.714527	1.212803
C139	C	0.925074	0.142790	0.546123
C140	C	1.258407	0.476123	0.879456
C141	C	1.591740	0.809456	1.212790
C142	C	0.925068	0.142787	0.453935
C143	C	1.258401	0.476121	0.787268
C144	C	1.591734	0.809454	1.120602
C145	C	0.981779	0.095324	0.407849
C146	C	1.315112	0.428658	0.741183
C147	C	1.648445	0.761991	1.074516
C148	C	0.981787	0.095325	0.592227
C149	C	1.315120	0.428658	0.925560
C150	C	1.648454	0.761992	1.258893
C151	C	0.981790	0.095323	0.692183
C152	C	1.315123	0.428657	1.025516
C153	C	1.648456	0.761990	1.358850
C154	C	0.981775	0.095325	0.307887
C155	C	1.315109	0.428658	0.641220
C156	C	1.648442	0.761991	0.974553
H157	H	0.542027	0.211890	0.000016
H158	H	0.875361	0.545224	0.333350
H159	H	1.208694	0.878557	0.666683
F160	F	1.098840	-0.002654	0.404902
F161	F	1.432174	0.330679	0.738236
F162	F	1.765507	0.664013	1.071569
F163	F	0.371339	0.225311	0.000022
F164	F	0.704673	0.558644	0.333355
F165	F	1.038006	0.891977	0.666689
F166	F	0.413223	-0.037300	0.000061
F167	F	0.746556	0.296034	0.333395
F168	F	1.079890	0.629367	0.666728
H169	H	1.084664	0.009211	0.583666
H170	H	1.417997	0.342545	0.917000
H171	H	1.751330	0.675878	1.250333
F172	F	0.592232	-0.034663	0.000062
F173	F	0.925565	0.298670	0.333396
F174	F	1.258898	0.632003	0.666729
H175	H	1.124306	-0.131733	0.000087
H176	H	1.457639	0.201600	0.333421
H177	H	1.790972	0.534934	0.666754
F178	F	1.140770	-0.275040	0.000069
F179	F	1.474104	0.058293	0.333402
F180	F	1.807437	0.391627	0.666735
F181	F	0.827943	-0.240604	0.000030
F182	F	1.161276	0.092729	0.333363
F183	F	1.494610	0.426062	0.666696
F184	F	0.830575	-0.090272	0.000036
F185	F	1.163909	0.243061	0.333370
F186	F	1.497242	0.576395	0.666703
F187	F	1.132978	-0.719069	0.000013
F188	F	1.466311	-0.385736	0.333347
F189	F	1.799644	-0.052402	0.666680
F190	F	0.864723	0.193302	0.595177
F191	F	1.198056	0.526636	0.928510
F192	F	1.531390	0.859969	1.261843
F193	F	1.135618	-0.568742	0.000054
F194	F	1.468952	-0.235409	0.333387
F195	F	1.802285	0.097924	0.666721
F196	F	0.822785	-0.534306	0.000004
F197	F	1.156118	-0.200973	0.333337
F198	F	1.489451	0.132361	0.666671
F199	F	0.820146	-0.684633	-0.000011
F200	F	1.153479	-0.351300	0.333322
F201	F	1.486812	-0.017967	0.666655
F202	F	0.864706	0.193303	0.404871
F203	F	1.198039	0.526636	0.738204
F204	F	1.531373	0.859970	1.071537
