data_functionalizedCrystal
_audit_creation_method	'MofGen! by Chris Wilmer'
_symmetry_space_group_name_H-M	'P1'
_symmetry_Int_Tables_number	1
_symmetry_cell_setting	triclinic
loop_
_symmetry_equiv_pos_as_xyz
  x,y,z
_cell_length_a	18.101397
_cell_length_b	18.101398
_cell_length_c	14.908308
_cell_angle_alpha	93.282710
_cell_angle_beta	86.734538
_cell_angle_gamma	89.981658
loop_
_atom_site_label
_atom_site_type_symbol
_atom_site_fract_x
_atom_site_fract_y
_atom_site_fract_z
Zn1	Zn	-0.319002	-1.108015	0.509975
Zn2	Zn	0.180998	-0.608015	1.009975
Zn3	Zn	-0.435709	-1.115084	0.359116
Zn4	Zn	0.064291	-0.615084	0.859116
Zn5	Zn	-0.311884	-0.991321	0.359145
Zn6	Zn	0.188116	-0.491321	0.859145
Zn7	Zn	-0.442802	-0.984151	0.509936
Zn8	Zn	0.057198	-0.484151	1.009936
O9	O	-0.377349	-1.049643	0.434543
O10	O	0.122651	-0.549643	0.934543
O11	O	-0.334494	-1.212586	0.489966
O12	O	0.165506	-0.712586	0.989966
O13	O	-0.413335	-1.104625	0.232878
O14	O	0.086665	-0.604625	0.732878
O15	O	-0.209196	-1.006843	0.379181
O16	O	0.290804	-0.506843	0.879181
O17	O	-0.420238	-1.217779	0.379131
O18	O	0.079762	-0.717779	0.879131
O19	O	-0.214426	-1.092578	0.489995
O20	O	0.285574	-0.592578	0.989995
O21	O	-0.322362	-1.013697	0.232899
O22	O	0.177638	-0.513697	0.732899
O23	O	-0.329240	-0.886737	0.379144
O24	O	0.170760	-0.386737	0.879144
O25	O	-0.432327	-0.994623	0.636183
O26	O	0.067673	-0.494623	1.136183
O27	O	-0.425424	-0.881470	0.489930
O28	O	0.074576	-0.381470	0.989930
O29	O	-0.341372	-1.085626	0.636211
O30	O	0.158628	-0.585626	1.136211
O31	O	-0.540281	-1.097673	0.379094
O32	O	-0.040281	-0.597673	0.879094
O33	O	-0.545492	-1.001477	0.489902
O34	O	-0.045492	-0.501477	0.989902
C35	C	-0.377330	-0.857233	0.434537
C36	C	0.122670	-0.357233	0.934537
C37	C	-0.377340	-0.774918	0.434555
C38	C	0.122660	-0.274918	0.934555
C39	C	-0.377355	-0.624209	0.434554
C40	C	0.122645	-0.124209	0.934554
C41	C	-0.437955	-0.589571	0.504149
C42	C	0.062045	-0.089571	1.004149
C43	C	-0.438178	-0.503963	0.503943
C44	C	0.061822	-0.003963	1.003943
C45	C	-0.377370	-0.475827	0.434554
C46	C	0.122630	0.024173	0.934554
C47	C	-0.393691	-0.511394	0.339364
C48	C	0.106309	-0.011394	0.839364
C49	C	-0.394117	-0.597020	0.339767
C50	C	0.105883	-0.097020	0.839767
C51	C	-0.300253	-0.591499	0.459316
C52	C	0.199747	-0.091499	0.959316
C53	C	-0.300782	-0.505750	0.461413
C54	C	0.199218	-0.005750	0.961413
C55	C	-0.377377	-0.391968	0.434548
C56	C	0.122623	0.108032	0.934548
C57	C	-0.377350	-0.708069	0.434553
C58	C	0.122650	-0.208069	0.934553
C59	C	-0.569758	-1.049583	0.434510
C60	C	-0.069758	-0.549583	0.934510
C61	C	-0.652073	-1.049624	0.434526
C62	C	-0.152073	-0.549624	0.934526
C63	C	-0.802783	-1.049668	0.434557
C64	C	-0.302783	-0.549668	0.934557
C65	C	-0.830830	-1.110245	0.364908
C66	C	-0.330830	-0.610245	0.864908
C67	C	-0.916436	-1.110114	0.364651
C68	C	-0.416436	-0.610114	0.864651
C69	C	-0.951167	-1.049712	0.434587
C70	C	-0.451167	-0.549712	0.934587
C71	C	-0.918937	-0.972822	0.409005
C72	C	-0.418937	-0.472822	0.909005
C73	C	-0.833268	-0.973152	0.408482
C74	C	-0.333268	-0.473152	0.908482
C75	C	-0.838794	-1.065299	0.529970
C76	C	-0.338794	-0.565299	1.029970
C77	C	-0.924420	-1.067071	0.529479
C78	C	-0.424420	-0.567071	1.029479
C79	C	-1.035027	-1.049732	0.434606
C80	C	-0.535027	-0.549732	0.934606
C81	C	-0.718922	-1.049643	0.434536
C82	C	-0.218922	-0.549643	0.934536
C83	C	-0.184190	-1.049722	0.434595
C84	C	0.315810	-0.549722	0.934595
C85	C	-0.101877	-1.049755	0.434618
C86	C	0.398123	-0.549755	0.934618
C87	C	-0.388435	-1.038536	0.669846
C88	C	0.111565	-0.538536	1.169846
C89	C	-0.393159	-1.033803	0.770118
C90	C	0.106841	-0.533803	1.270118
C91	C	-0.377371	-0.242804	0.434550
C92	C	0.122629	0.257196	0.934550
C93	C	-0.377385	-0.325118	0.434552
C94	C	0.122615	0.174882	0.934552
C95	C	-0.366253	-1.060749	0.200156
C96	C	0.133747	-0.560749	0.700156
C97	C	-0.361320	-1.065625	0.099884
C98	C	0.138680	-0.565625	0.599884
C99	C	-0.307307	-1.119668	0.958570
C100	C	0.192693	-0.619668	1.458570
C101	C	-0.311743	-1.115224	1.052785
C102	C	0.188257	-0.615224	1.552785
C103	C	-0.406463	-1.020466	1.052763
C104	C	0.093537	-0.520466	1.552763
C105	C	-0.402027	-1.024911	0.958548
C106	C	0.097973	-0.524911	1.458548
C107	C	-0.352448	-1.074514	0.911455
C108	C	0.147552	-0.574514	1.411455
C109	C	-0.348016	-1.078962	0.817239
C110	C	0.151984	-0.578962	1.317239
C111	C	-0.442731	-0.984202	0.817219
C112	C	0.057269	-0.484202	1.317219
C113	C	-0.447168	-0.979757	0.911433
C114	C	0.052832	-0.479757	1.411433
H115	H	-0.350710	-0.493564	0.286086
H116	H	0.149290	0.006436	0.786086
Br117	Br	-0.473735	-0.953145	1.116690
Br118	Br	0.026265	-0.453145	1.616690
Br119	Br	-0.964376	-0.998346	0.620594
Br120	Br	-0.464376	-0.498346	1.120594
H121	H	-0.941619	-0.926666	0.458184
H122	H	-0.441619	-0.426666	0.958184
Br123	Br	-0.323318	-0.635815	0.250349
Br124	Br	0.176682	-0.135815	0.750349
Br125	Br	-0.533569	-0.471066	0.476591
Br126	Br	-0.033569	0.028934	0.976591
H127	H	-0.255162	-0.614169	0.408632
H128	H	0.244838	-0.114169	0.908632
H129	H	-0.479490	-0.947436	0.778848
H130	H	0.020510	-0.447436	1.278848
H131	H	-0.937177	-0.958755	0.340041
H132	H	-0.437177	-0.458755	0.840041
H133	H	-0.450333	-0.617965	0.318838
H134	H	0.049667	-0.117965	0.818838
Br135	Br	-0.486318	-0.477290	0.303878
Br136	Br	0.013682	0.022710	0.803878
H137	H	-0.933631	-1.100122	0.293963
H138	H	-0.433631	-0.600122	0.793963
H139	H	-0.266942	-1.160061	0.920226
H140	H	0.233058	-0.660061	1.420226
Br141	Br	-0.222152	-0.473798	0.383164
Br142	Br	0.277848	0.026202	0.883164
Br143	Br	-0.514447	-0.912439	0.975353
Br144	Br	-0.014447	-0.412439	1.475353
H145	H	-0.428527	-0.479622	0.574513
H146	H	0.071473	0.020378	1.074513
H147	H	-0.428465	-0.606835	0.574938
H148	H	0.071535	-0.106835	1.074938
Br149	Br	-0.804560	-1.156752	0.568826
Br150	Br	-0.304560	-0.656752	1.068826
Br151	Br	-0.797675	-1.205799	0.391222
Br152	Br	-0.297675	-0.705799	0.891222
H153	H	-0.274983	-1.151991	1.091142
H154	H	0.225017	-0.651991	1.591142
H155	H	-0.284455	-0.609888	0.527559
H156	H	0.215545	-0.109888	1.027559
H157	H	-0.938162	-1.167265	0.380630
H158	H	-0.438162	-0.667265	0.880630
Br159	Br	-0.532801	-0.626688	0.477108
Br160	Br	-0.032801	-0.126688	0.977108
Br161	Br	-0.959732	-1.161340	0.561650
Br162	Br	-0.459732	-0.661340	1.061650
Br163	Br	-0.789500	-1.093813	0.247742
Br164	Br	-0.289500	-0.593813	0.747742
H165	H	-0.810045	-0.959404	0.338744
H166	H	-0.310045	-0.459404	0.838744
Br167	Br	-0.280119	-0.466393	0.578176
Br168	Br	0.219881	0.033607	1.078176
H169	H	-0.814833	-0.926713	0.457019
H170	H	-0.314833	-0.426713	0.957019
Br171	Br	-0.809086	-0.991686	0.616465
Br172	Br	-0.309086	-0.491686	1.116465
Br173	Br	-0.280736	-1.146284	0.753327
Br174	Br	0.219264	-0.646284	1.253327
