data_functionalizedCrystal
_audit_creation_method	'MofGen! by Chris Wilmer'
_symmetry_space_group_name_H-M	'P1'
_symmetry_Int_Tables_number	1
_symmetry_cell_setting	triclinic
loop_
_symmetry_equiv_pos_as_xyz
  x,y,z
_cell_length_a	19.188931
_cell_length_b	11.792241
_cell_length_c	10.868271
_cell_angle_alpha	90.005281
_cell_angle_beta	89.997213
_cell_angle_gamma	96.330902
loop_
_atom_site_label
_atom_site_type_symbol
_atom_site_fract_x
_atom_site_fract_y
_atom_site_fract_z
O1	O	0.926947	-0.141694	-0.102278
O2	O	1.426947	0.358306	0.397722
O3	O	0.723744	-0.160769	-0.102291
O4	O	1.223744	0.339231	0.397709
O5	O	0.830277	0.014013	-0.102276
O6	O	1.330277	0.514013	0.397724
O7	O	0.820414	-0.316476	-0.102293
O8	O	1.320414	0.183524	0.397707
O9	O	0.830268	0.014020	0.102369
O10	O	1.330268	0.514020	0.602369
O11	O	0.723735	-0.160762	0.102354
O12	O	1.223735	0.339238	0.602354
O13	O	0.926938	-0.141688	0.102366
O14	O	1.426938	0.358312	0.602366
Zn15	Zn	0.825335	-0.151224	0.134852
Zn16	Zn	1.325335	0.348776	0.634852
Zn17	Zn	0.825347	-0.151233	-0.134776
Zn18	Zn	1.325347	0.348767	0.365224
O19	O	0.820405	-0.316469	0.102351
O20	O	1.320405	0.183531	0.602351
C21	C	0.697725	-0.160148	0.000030
C22	C	1.197725	0.339852	0.500030
C23	C	0.620210	-0.158293	0.000026
C24	C	1.120210	0.341707	0.500026
C25	C	0.829653	0.056298	0.000046
C26	C	1.329653	0.556298	0.500046
C27	C	0.827798	0.182284	0.000045
C28	C	1.327798	0.682284	0.500045
C29	C	0.952957	-0.142309	0.000043
C30	C	1.452957	0.357691	0.500043
C31	C	1.030472	-0.144163	0.000039
C32	C	1.530472	0.355837	0.500039
C33	C	1.074815	-0.041607	0.000034
C34	C	1.574815	0.458393	0.500034
C35	C	1.147649	-0.043349	0.000041
C36	C	1.647649	0.456651	0.500041
C37	C	1.176136	-0.147653	0.000029
C38	C	1.676136	0.352347	0.500029
C39	C	1.131783	-0.250222	0.000041
C40	C	1.631783	0.249778	0.500041
C41	C	1.058951	-0.248477	0.000046
C42	C	1.558951	0.251523	0.500046
N43	N	1.284586	-0.227383	-0.069640
N44	N	1.784586	0.272617	0.430360
N45	N	1.353774	-0.229033	-0.069648
N46	N	1.853774	0.270967	0.430352
C47	C	1.395575	-0.152916	0.000016
C48	C	1.895575	0.347084	0.500016
N49	N	1.365576	-0.075069	0.069673
N50	N	1.865576	0.424931	0.569673
N51	N	1.296382	-0.073415	0.069675
N52	N	1.796382	0.426585	0.569675
C53	C	1.255110	-0.149556	0.000024
C54	C	1.755110	0.350444	0.500024
C55	C	1.518893	-0.052242	0.000021
C56	C	2.018893	0.447758	0.500021
C57	C	1.591728	-0.053988	0.000036
C58	C	2.091728	0.446012	0.500036
C59	C	1.575861	-0.260865	0.000023
C60	C	2.075861	0.239135	0.500023
C61	C	1.503027	-0.259116	0.000021
C62	C	2.003027	0.240884	0.500021
C63	C	1.474548	-0.154801	0.000014
C64	C	1.974548	0.345199	0.500014
C65	C	0.821029	-0.358754	0.000027
C66	C	1.321029	0.141246	0.500027
C67	C	0.822884	-0.484740	0.000020
C68	C	1.322884	0.015260	0.500020
N69	N	0.825332	-0.151217	0.318866
N70	N	1.325332	0.348783	0.818866
C71	C	0.824389	0.412945	0.000024
C72	C	1.324389	0.912945	0.500024
C73	C	0.826283	0.284588	0.000035
C74	C	1.326283	0.784588	0.500035
N75	N	0.825355	-0.151230	-0.318790
N76	N	1.325355	0.348770	0.181210
C77	C	0.825343	-0.151230	0.569872
C78	C	1.325343	0.348770	1.069872
C79	C	0.825335	-0.151226	0.430194
C80	C	1.325335	0.348774	0.930194
H81	H	1.183760	0.040167	0.000033
H82	H	1.683760	0.540167	0.500033
C83	C	1.640507	0.058833	0.000030
C84	C	2.140507	0.558833	0.500030
C85	C	1.637032	0.144421	0.106289
C86	C	2.137032	0.644421	0.606289
C87	C	1.685813	0.257245	0.106282
C88	C	2.185813	0.757245	0.606282
C89	C	1.738068	0.284480	0.000016
C90	C	2.238068	0.784480	0.500016
C91	C	1.741545	0.198889	-0.106251
C92	C	2.241545	0.698889	0.393749
C93	C	1.692765	0.086066	-0.106244
C94	C	2.192765	0.586066	0.393756
H95	H	1.598348	0.124262	0.184960
H96	H	2.098348	0.624262	0.684960
H97	H	1.683238	0.320605	0.184948
H98	H	2.183238	0.820605	0.684948
H99	H	1.774178	0.367999	0.000010
H100	H	2.274178	0.867999	0.500010
H101	H	1.780229	0.219048	-0.184922
H102	H	2.280229	0.719048	0.315078
H103	H	1.695339	0.022706	-0.184910
H104	H	2.195339	0.522706	0.315090
H105	H	1.154983	-0.335147	0.000034
H106	H	1.654983	0.164853	0.500034
H107	H	1.466922	-0.342628	0.000017
H108	H	1.966922	0.157372	0.500017
H109	H	1.022847	-0.331994	0.000051
H110	H	1.522847	0.168006	0.500051
C111	C	1.487560	0.062499	0.000037
C112	C	1.987560	0.562499	0.500037
C113	C	1.536341	0.175314	0.000057
C114	C	2.036341	0.675314	0.500057
C115	C	1.505010	0.290055	0.000078
C116	C	2.005010	0.790055	0.500078
C117	C	1.424898	0.291980	0.000077
C118	C	1.924898	0.791980	0.500077
C119	C	1.376112	0.179160	0.000057
C120	C	1.876112	0.679160	0.500057
C121	C	1.407443	0.064420	0.000037
C122	C	1.907443	0.564420	0.500037
H123	H	1.595648	0.173893	0.000058
H124	H	2.095648	0.673893	0.500058
H125	H	1.541124	0.373571	0.000093
H126	H	2.041124	0.873571	0.500093
H127	H	1.401704	0.376918	0.000092
H128	H	1.901704	0.876918	0.500092
H129	H	1.316804	0.180582	0.000057
H130	H	1.816804	0.680582	0.500057
H131	H	1.371328	-0.019097	0.000022
H132	H	1.871328	0.480903	0.500022
H133	H	1.051633	0.043334	0.000033
H134	H	1.551633	0.543334	0.500033
H135	H	1.599054	-0.345791	0.000021
H136	H	2.099054	0.154209	0.500021
