data_functionalizedCrystal
_audit_creation_method	'MofGen! by Chris Wilmer'
_symmetry_space_group_name_H-M	'P1'
_symmetry_Int_Tables_number	1
_symmetry_cell_setting	triclinic
loop_
_symmetry_equiv_pos_as_xyz
  x,y,z
_cell_length_a	16.109295
_cell_length_b	10.065875
_cell_length_c	16.109296
_cell_angle_alpha	98.793159
_cell_angle_beta	83.459379
_cell_angle_gamma	81.258551
loop_
_atom_site_label
_atom_site_type_symbol
_atom_site_fract_x
_atom_site_fract_y
_atom_site_fract_z
O1	O	-1.115289	0.113381	-0.094633
O2	O	-0.615289	0.613381	0.405367
O3	O	-0.873228	0.113402	-0.107935
O4	O	-0.373228	0.613402	0.392065
O5	O	-1.000912	0.113405	0.019749
O6	O	-0.500912	0.613405	0.519749
O7	O	-0.987606	0.113378	-0.222317
O8	O	-0.487606	0.613378	0.277683
O9	O	-0.976564	-0.113584	-0.004696
O10	O	-0.476564	0.386416	0.495304
O11	O	-0.848881	-0.113588	-0.132380
O12	O	-0.348881	0.386412	0.367620
O13	O	-1.090942	-0.113608	-0.119078
O14	O	-0.590942	0.386392	0.380922
Zn15	Zn	-0.966046	-0.149638	-0.129610
Zn16	Zn	-0.466046	0.350362	0.370390
Zn17	Zn	-0.998124	0.149431	-0.097403
Zn18	Zn	-0.498124	0.649431	0.402597
O19	O	-0.963258	-0.113612	-0.246762
O20	O	-0.463258	0.386388	0.253238
C21	C	-0.830080	-0.000090	-0.119619
C22	C	-0.330080	0.499910	0.380381
C23	C	-0.737785	-0.000081	-0.118005
C24	C	-0.237785	0.499919	0.381995
N25	N	-0.944159	-0.353744	-0.151591
N26	N	-0.444159	0.146256	0.348409
C27	C	-0.515509	-0.000104	-0.190020
C28	C	-0.015509	0.499896	0.309980
C29	C	-0.428787	-0.000112	-0.188498
C30	C	0.071213	0.499888	0.311502
C31	C	-0.448667	-0.000089	-0.037006
C32	C	0.051333	0.499911	0.462994
C33	C	-0.535386	-0.000091	-0.038530
C34	C	-0.035386	0.499909	0.461470
C35	C	-0.568805	-0.000091	-0.115038
C36	C	-0.068805	0.499909	0.384962
C37	C	-0.395365	-0.000098	-0.111993
C38	C	0.104635	0.499902	0.388007
C39	C	-0.301337	-0.000106	-0.110343
C40	C	0.198663	0.499894	0.389657
C41	C	-0.662838	-0.000085	-0.116689
C42	C	-0.162838	0.499915	0.383311
C43	C	-0.990504	-0.421521	-0.105045
C44	C	-0.490504	0.078479	0.394955
C45	C	-0.973666	-0.578689	-0.121968
C46	C	-0.473666	-0.078689	0.378032
C47	C	-0.134090	-0.000112	-0.107398
C48	C	0.365910	0.499888	0.392602
C49	C	-0.226384	-0.000108	-0.109026
C50	C	0.273616	0.499892	0.390974
C51	C	-0.988201	-0.000083	0.038502
C52	C	-0.488201	0.499917	0.538502
C53	C	-0.986589	-0.000063	0.130800
C54	C	-0.486589	0.499937	0.630800
N55	N	-1.020018	0.353537	-0.075416
N56	N	-0.520018	0.853537	0.424584
C57	C	-0.994594	0.123652	0.443192
C58	C	-0.494594	0.623652	0.943192
C59	C	-0.996122	0.123658	0.356473
C60	C	-0.496122	0.623658	0.856473
C61	C	-0.969589	-0.123818	0.329807
C62	C	-0.469589	0.376182	0.829807
C63	C	-0.968067	-0.123823	0.416525
C64	C	-0.468067	0.376177	0.916525
C65	C	-0.980565	-0.000084	0.473216
C66	C	-0.480565	0.499916	0.973216
C67	C	-0.983615	-0.000073	0.299778
C68	C	-0.483615	0.499927	0.799778
C69	C	-0.985272	-0.000067	0.205753
C70	C	-0.485272	0.499933	0.705753
C71	C	-0.978910	-0.000089	0.567247
C72	C	-0.478910	0.499911	1.067247
C73	C	-0.975972	-0.000111	0.734487
C74	C	-0.475972	0.499889	1.234487
C75	C	-0.977592	-0.000093	0.642194
C76	C	-0.477592	0.499907	1.142194
H77	H	-0.542714	-0.000114	-0.252319
H78	H	-0.042714	0.499886	0.247681
H79	H	-0.385396	-0.000125	-0.249556
H80	H	0.114604	0.499875	0.250444
H81	H	-0.421445	-0.000097	0.025284
H82	H	0.078555	0.499903	0.525284
H83	H	-0.578781	-0.000084	0.022533
H84	H	-0.078781	0.499916	0.522533
H85	H	-1.007546	0.224416	0.332033
H86	H	-0.507546	0.724416	0.832033
H87	H	-1.042645	-0.363196	-0.052663
H88	H	-0.542645	0.136804	0.447337
F89	F	-0.905501	-0.654917	-0.190431
F90	F	-0.405501	-0.154917	0.309569
F91	F	-0.956284	-0.255502	0.269466
F92	F	-0.456284	0.244498	0.769466
F93	F	-1.088318	-0.570238	-0.007087
F94	F	-0.588318	-0.070238	0.492913
F95	F	-0.875997	-0.429977	-0.220050
F96	F	-0.375997	0.070023	0.279950
F97	F	-1.007899	0.255346	0.503524
F98	F	-0.507899	0.755346	1.003524
H99	H	-0.956645	-0.224590	0.440970
H100	H	-0.456645	0.275410	0.940970
