data_functionalizedCrystal
_audit_creation_method	'MofGen! by Chris Wilmer'
_symmetry_space_group_name_H-M	'P1'
_symmetry_Int_Tables_number	1
_symmetry_cell_setting	triclinic
loop_
_symmetry_equiv_pos_as_xyz
  x,y,z
_cell_length_a	14.044220
_cell_length_b	26.210047
_cell_length_c	14.044190
_cell_angle_alpha	89.999837
_cell_angle_beta	93.190328
_cell_angle_gamma	90.004879
loop_
_atom_site_label
_atom_site_type_symbol
_atom_site_fract_x
_atom_site_fract_y
_atom_site_fract_z
O1	O	1.277180	0.042385	0.230155
O2	O	1.000509	0.042398	0.221850
O3	O	1.134688	0.042382	0.087666
O4	O	1.143001	0.042401	0.364339
O5	O	1.134662	-0.042477	0.087687
O6	O	1.000482	-0.042460	0.221870
O7	O	1.277154	-0.042473	0.230176
Cu8	Cu	1.138816	-0.050215	0.226025
Cu9	Cu	1.138847	0.050140	0.226001
O10	O	1.142975	-0.042457	0.364359
C11	C	0.964874	-0.000030	0.218224
C12	C	0.858731	-0.000026	0.207380
N13	N	1.138801	-0.120799	0.226042
C14	C	0.664392	-0.000037	0.187553
C15	C	0.613264	-0.000034	0.264468
C16	C	0.505128	-0.000040	0.253436
C17	C	0.772539	-0.000031	0.198583
C18	C	1.198256	-0.473320	0.166598
C19	C	1.198276	-0.686979	0.166587
O20	O	1.248791	-0.714607	0.116047
N21	N	1.138850	-0.713693	0.225980
C22	C	1.079411	-0.686989	0.285376
O23	O	1.028859	-0.714614	0.335886
C24	C	1.079387	-0.473331	0.285382
C25	C	1.138823	-0.446620	0.225992
C26	C	1.257688	-0.446609	0.107212
C27	C	1.257686	-0.393197	0.107220
C28	C	1.198253	-0.366497	0.166613
C29	C	1.138822	-0.393209	0.225999
C30	C	1.019943	-0.446629	0.344772
C31	C	1.019940	-0.393211	0.344766
C32	C	1.079377	-0.366499	0.285376
C33	C	1.079387	-0.313097	0.285399
N34	N	1.138813	-0.286383	0.226006
C35	C	1.198246	-0.313083	0.166613
C36	C	1.079429	-0.799162	0.285370
C37	C	1.079436	-0.852576	0.285370
C38	C	1.198301	-0.852562	0.166579
C39	C	1.198298	-0.799147	0.166585
C40	C	1.138855	-0.772448	0.225977
C41	C	1.198238	-0.200915	0.166633
C42	C	1.198234	-0.147499	0.166649
C43	C	1.079366	-0.147518	0.285435
C44	C	1.079373	-0.200929	0.285424
C45	C	1.138812	-0.227627	0.226015
O46	O	1.028891	-0.285436	0.335905
O47	O	1.248775	-0.285449	0.116095
C48	C	1.198258	-0.526731	0.166591
C49	C	1.138827	-0.553443	0.225977
C50	C	1.079394	-0.526743	0.285370
C51	C	1.138834	-0.606857	0.225977
C52	C	1.198267	-0.633557	0.166584
C53	C	1.257693	-0.606843	0.107191
C54	C	1.257691	-0.553432	0.107198
C55	C	1.019968	-0.553457	0.344764
C56	C	1.019975	-0.606868	0.344752
C57	C	1.079408	-0.633569	0.285359
C58	C	1.312789	-0.000044	0.233801
C59	C	1.418932	-0.000045	0.244646
C60	C	1.131039	-0.000049	0.052054
C61	C	1.120191	-0.000053	-0.054089
N62	N	1.138869	0.120724	0.225977
C63	C	1.177292	-0.000035	-0.299547
C64	C	1.100375	-0.000035	-0.248422
C65	C	1.111404	-0.000045	-0.140285
C66	C	1.166265	-0.000026	-0.407694
C67	C	1.146624	-0.000025	0.399971
C68	C	1.157472	-0.000018	0.506114
H69	H	0.650706	-0.000026	0.338602
Br70	Br	1.300844	-0.000048	-0.237142
Br71	Br	0.601991	-0.000048	0.063998
H72	H	0.971543	-0.468370	0.393132
Br73	Br	0.998786	-0.888822	0.365991
H74	H	1.246638	-0.125752	0.118286
H75	H	1.246637	-0.222646	0.118256
Br76	Br	1.278965	-0.762902	0.085981
Br77	Br	1.338356	-0.643089	0.026591
H78	H	1.306081	-0.371452	0.058856
Br79	Br	1.338356	-0.482835	0.026595
Br80	Br	1.278959	-0.888809	0.085975
H81	H	1.031022	-0.777427	0.333736
Br82	Br	0.976815	-0.000028	-0.310824
Br83	Br	0.939301	-0.517228	0.425375
Br84	Br	0.939258	-0.356980	0.425370
Br85	Br	0.939310	-0.643114	0.425367
Br86	Br	0.998721	-0.237179	0.366041
H87	H	1.030979	-0.125770	0.333795
H88	H	1.306090	-0.531687	0.058837
