data_functionalizedCrystal
_audit_creation_method	'MofGen! by Chris Wilmer'
_symmetry_space_group_name_H-M	'P1'
_symmetry_Int_Tables_number	1
_symmetry_cell_setting	triclinic
loop_
_symmetry_equiv_pos_as_xyz
  x,y,z
_cell_length_a	19.188933
_cell_length_b	17.666332
_cell_length_c	15.995350
_cell_angle_alpha	90.004241
_cell_angle_beta	83.318972
_cell_angle_gamma	90.007939
loop_
_atom_site_label
_atom_site_type_symbol
_atom_site_fract_x
_atom_site_fract_y
_atom_site_fract_z
O1	O	0.926415	0.062919	0.104543
O2	O	0.723140	0.062926	0.118613
O3	O	0.830334	0.062922	-0.010330
O4	O	0.819221	0.062924	0.233486
O5	O	0.830315	-0.062975	-0.010337
O6	O	0.723121	-0.062971	0.118606
O7	O	0.926396	-0.062977	0.104536
Cu8	Cu	0.824757	-0.074469	0.111570
Cu9	Cu	0.824779	0.074418	0.111578
O10	O	0.819202	-0.062973	0.233479
C11	C	0.697118	-0.000021	0.118154
C12	C	0.619610	-0.000019	0.116785
C13	C	0.066340	0.068599	0.107021
C14	C	0.139168	0.068602	0.108302
C15	C	0.175576	-0.000024	0.108942
C16	C	0.139153	-0.068658	0.108281
C17	C	0.066328	-0.068659	0.106991
N18	N	0.284715	-0.051105	0.158610
N19	N	0.353896	-0.051099	0.159836
C20	C	0.394995	-0.000025	0.112825
N21	N	0.364298	0.051055	0.064552
N22	N	0.295111	0.051052	0.063329
C23	C	0.254543	-0.000030	0.110340
C24	C	0.510377	0.068608	0.114870
C25	C	0.583207	0.068608	0.116146
C26	C	0.583190	-0.068654	0.116133
C27	C	0.510363	-0.068652	0.114849
C28	C	0.473960	-0.000019	0.114222
N29	N	0.824746	-0.179189	0.111564
C30	C	0.872227	-0.218800	0.054496
C31	C	0.872231	-0.298048	0.054492
C32	C	0.824761	-0.337681	0.111571
C33	C	0.777271	-0.298060	0.168643
C34	C	0.777264	-0.218814	0.168640
N35	N	0.815874	-0.462099	0.185691
N36	N	0.815885	-0.537379	0.185692
C37	C	0.824779	-0.576445	0.111582
N38	N	0.833676	-0.537386	0.037470
N39	N	0.833669	-0.462099	0.037470
C40	C	0.824763	-0.423610	0.111580
C41	C	0.872267	-0.701986	0.054505
C42	C	0.872267	-0.781235	0.054500
C43	C	0.777310	-0.781245	0.168658
C44	C	0.777307	-0.701998	0.168656
C45	C	0.824790	-0.662373	0.111580
C46	C	0.952418	-0.000028	0.104995
C47	C	1.029926	-0.000026	0.106364
C48	C	0.829865	-0.000025	-0.041527
C49	C	0.828488	-0.000021	-0.134472
N50	N	0.824795	0.179138	0.111578
C51	C	0.823541	-0.000023	-0.472201
C52	C	0.747199	0.000262	-0.424488
C53	C	0.748577	-0.000022	-0.327803
C54	C	0.825995	-0.000022	-0.304650
C55	C	0.863638	-0.071915	-0.345869
C56	C	0.861721	-0.071975	-0.442497
C57	C	0.863319	0.071193	-0.442854
C58	C	0.863301	0.072143	-0.345908
C59	C	0.827385	-0.000023	-0.209957
C60	C	0.822153	-0.000027	-0.566894
C61	C	0.819671	-0.000025	0.264675
C62	C	0.821048	-0.000024	0.357621
H63	H	0.612855	0.124493	0.116674
Cl64	Cl	0.628955	-0.154928	0.116925
H65	H	0.168822	0.124487	0.108841
Cl66	Cl	0.184923	-0.154931	0.109082
Cl67	Cl	0.464580	-0.154929	0.114037
Cl68	Cl	0.020547	-0.154938	0.106169
Cl69	Cl	0.700097	0.079861	-0.452921
H70	H	0.910889	-0.186540	0.008020
Cl71	Cl	0.464612	0.154887	0.114075
Cl72	Cl	0.951452	-0.076047	-0.324383
Cl73	Cl	0.948252	-0.077021	-0.492606
Cl74	Cl	0.931928	-0.347854	-0.017257
Cl75	Cl	0.717591	-0.347882	0.240396
H76	H	0.738598	-0.186561	0.215113
H77	H	0.738646	-0.669744	0.215130
Cl78	Cl	0.823249	-0.154518	-0.301912
Cl79	Cl	0.950467	0.078852	-0.322506
Cl80	Cl	0.931956	-0.652170	-0.017251
H81	H	0.835779	0.125328	-0.318556
Cl82	Cl	0.931958	-0.831036	-0.017254
Cl83	Cl	0.717627	-0.831064	0.240408
H84	H	0.718986	0.051514	-0.299270
Cl85	Cl	0.700155	-0.078656	-0.454929
Cl86	Cl	0.950220	0.071943	-0.492209
H87	H	0.718771	-0.051644	-0.299832
H88	H	0.834255	-0.125716	-0.460701
H89	H	0.838367	0.125684	-0.463299
H90	H	0.036706	0.124486	0.106507
