data_functionalizedCrystal
_audit_creation_method	'MofGen! by Chris Wilmer'
_symmetry_space_group_name_H-M	'P1'
_symmetry_Int_Tables_number	1
_symmetry_cell_setting	triclinic
loop_
_symmetry_equiv_pos_as_xyz
  x,y,z
_cell_length_a	19.805407
_cell_length_b	16.120484
_cell_length_c	19.805398
_cell_angle_alpha	92.869693
_cell_angle_beta	89.986879
_cell_angle_gamma	92.925608
loop_
_atom_site_label
_atom_site_type_symbol
_atom_site_fract_x
_atom_site_fract_y
_atom_site_fract_z
Zn1	Zn	1.021031	-0.331919	-0.396377
Zn2	Zn	1.521031	0.168081	0.103623
Zn3	Zn	1.015220	-0.471340	-0.288925
Zn4	Zn	1.515220	0.028660	0.211075
Zn5	Zn	0.907857	-0.331944	-0.283202
Zn6	Zn	1.407857	0.168056	0.216798
Zn7	Zn	0.902073	-0.471293	-0.402070
Zn8	Zn	1.402073	0.028707	0.097930
O9	O	0.961545	-0.401624	-0.342643
O10	O	1.461545	0.098376	0.157357
O11	O	1.114976	-0.350422	-0.382135
O12	O	1.614976	0.149578	0.117865
O13	O	1.000967	-0.452879	-0.193451
O14	O	1.500967	0.047121	0.306549
O15	O	0.927723	-0.215275	-0.293438
O16	O	1.427723	0.284725	0.206562
O17	O	1.110707	-0.452854	-0.303191
O18	O	1.610707	0.047146	0.196809
O19	O	1.010871	-0.215256	-0.376586
O20	O	1.510871	0.284744	0.123414
O21	O	0.922088	-0.350466	-0.189246
O22	O	1.422088	0.149534	0.310754
O23	O	0.812374	-0.350420	-0.298958
O24	O	1.312374	0.149580	0.201042
O25	O	0.917864	-0.452774	-0.496030
O26	O	1.417864	0.047226	0.003970
O27	O	0.808124	-0.452799	-0.386289
O28	O	1.308124	0.047201	0.113711
O29	O	1.005262	-0.350377	-0.491847
O30	O	1.505262	0.149623	0.008153
O31	O	0.995358	-0.587999	-0.308711
O32	O	1.495358	-0.087999	0.191289
O33	O	0.912229	-0.587965	-0.391838
O34	O	1.412229	-0.087965	0.108162
C35	C	0.785690	-0.401608	-0.342621
C36	C	1.285690	0.098392	0.157379
C37	C	0.710457	-0.401621	-0.342628
C38	C	1.210457	0.098379	0.157372
C39	C	0.952554	-0.618232	-0.351529
C40	C	1.452554	-0.118232	0.148471
C41	C	0.948769	-0.710898	-0.355352
C42	C	1.448769	-0.210898	0.144648
C43	C	0.672915	-0.455010	-0.388035
C44	C	1.172915	0.044990	0.111965
C45	C	0.602226	-0.455011	-0.388044
C46	C	1.102226	0.044989	0.111956
C47	C	0.569081	-0.401628	-0.342644
C48	C	1.069081	0.098372	0.157356
C49	C	0.606629	-0.348233	-0.297235
C50	C	1.106629	0.151767	0.202765
C51	C	0.677317	-0.348228	-0.297229
C52	C	1.177317	0.151772	0.202771
C53	C	0.321555	-0.348251	-0.297258
C54	C	0.821555	0.151749	0.202742
C55	C	0.250863	-0.348262	-0.297266
C56	C	0.750863	0.151738	0.202734
C57	C	0.246465	-0.455035	-0.388073
C58	C	0.746465	0.044965	0.111927
C59	C	0.317152	-0.455030	-0.388068
C60	C	0.817152	0.044970	0.111932
C61	C	0.354694	-0.401632	-0.342661
C62	C	0.854694	0.098368	0.157339
C63	C	0.431342	-0.401630	-0.342652
C64	C	0.931342	0.098370	0.157348
C65	C	0.492434	-0.401633	-0.342649
C66	C	0.992434	0.098367	0.157351
C67	C	0.941863	-0.880560	-0.362347
C68	C	1.441863	-0.380560	0.137653
C69	C	0.981349	-0.921847	-0.322951
C70	C	1.481349	-0.421847	0.177049
C71	C	0.977506	-1.016253	-0.326843
C72	C	1.477506	-0.516253	0.173157
C73	C	0.945704	-0.786146	-0.358456
C74	C	1.445704	-0.286146	0.141544
C75	C	1.138087	-0.401640	-0.342666
C76	C	1.638087	0.098360	0.157334
C77	C	1.213319	-0.401648	-0.342676
C78	C	1.713319	0.098352	0.157324
C79	C	0.961566	-0.401567	-0.519184
C80	C	1.461566	0.098433	-0.019184
C81	C	0.961574	-0.401543	-0.594415
C82	C	1.461574	0.098457	-0.094415
C83	C	0.970590	-0.184170	-0.333739
C84	C	1.470590	0.315830	0.166261
C85	C	0.974445	-0.091503	-0.329944
C86	C	1.474445	0.408497	0.170056
C87	C	1.002759	-0.454737	-1.058388
C88	C	1.502759	0.045263	-0.558388
C89	C	1.002739	-0.454760	-0.987700
C90	C	1.502739	0.045240	-0.487700
C91	C	0.961662	-0.401449	-0.950173
C92	C	1.461662	0.098551	-0.450173
C93	C	0.920597	-0.348119	-0.983337
C94	C	1.420597	0.151881	-0.483337
C95	C	0.920614	-0.348101	-1.054024
C96	C	1.420614	0.151899	-0.554024
C97	C	0.920529	-0.348190	-0.698267
C98	C	1.420529	0.151810	-0.198267
C99	C	0.920517	-0.348210	-0.627576
C100	C	1.420517	0.151790	-0.127576
C101	C	1.002654	-0.454849	-0.631943
C102	C	1.502654	0.045151	-0.131943
C103	C	1.002671	-0.454831	-0.702630
C104	C	1.502671	0.045169	-0.202630
C105	C	0.961604	-0.401504	-0.735788
C106	C	1.461604	0.098496	-0.235788
C107	C	0.961624	-0.401481	-0.812435
C108	C	1.461624	0.098519	-0.312435
C109	C	0.961645	-0.401467	-0.873527
C110	C	1.461645	0.098533	-0.373527
C111	C	0.961566	-0.401620	-0.166787
C112	C	1.461566	0.098380	0.333213
C113	C	0.961698	-0.401409	-0.091547
C114	C	1.461698	0.098591	0.408453
H115	H	0.699896	-0.498484	-0.425004
H116	H	1.199896	0.001516	0.074996
H117	H	0.707884	-0.304749	-0.260257
H118	H	1.207884	0.195251	0.239743
Br119	Br	0.561649	-0.275774	-0.235624
Br120	Br	1.061649	0.224226	0.264376
Br121	Br	0.864889	-0.275721	-1.099027
Br122	Br	1.364889	0.224279	-0.599027
H123	H	1.018039	-0.886293	-0.286299
H124	H	1.518039	-0.386293	0.213701
H125	H	0.344135	-0.498503	-0.425036
H126	H	0.844135	0.001497	0.074964
H127	H	0.905174	-0.916112	-0.398995
H128	H	1.405174	-0.416112	0.101005
Br129	Br	1.058515	-0.527084	-1.109310
Br130	Br	1.558515	-0.027084	-0.609310
Br131	Br	0.195511	-0.527506	-0.449696
Br132	Br	0.695511	-0.027506	0.050304
Br133	Br	1.058466	-0.527138	-0.942700
Br134	Br	1.558466	-0.027138	-0.442700
H135	H	1.036122	-0.498239	-0.733181
H136	H	1.536122	0.001761	-0.233181
H137	H	1.036091	-0.498273	-0.604937
H138	H	1.536091	0.001727	-0.104937
H139	H	0.887065	-0.304796	-0.597023
H140	H	1.387065	0.195204	-0.097023
Br141	Br	0.864858	-0.275756	-0.932408
Br142	Br	1.364858	0.224244	-0.432408
Br143	Br	0.551278	-0.527469	-0.449672
Br144	Br	1.051278	-0.027469	0.050328
Br145	Br	0.205881	-0.275808	-0.235646
Br146	Br	0.705881	0.224192	0.264354
H147	H	0.887088	-0.304769	-0.725256
H148	H	1.387088	0.195231	-0.225256
H149	H	0.352113	-0.304778	-0.260280
H150	H	0.852113	0.195222	0.239720
