data_functionalizedCrystal
_audit_creation_method	'MofGen! by Chris Wilmer'
_symmetry_space_group_name_H-M	'P1'
_symmetry_Int_Tables_number	1
_symmetry_cell_setting	triclinic
loop_
_symmetry_equiv_pos_as_xyz
  x,y,z
_cell_length_a	14.044191
_cell_length_b	10.540539
_cell_length_c	12.503572
_cell_angle_alpha	93.560877
_cell_angle_beta	86.162165
_cell_angle_gamma	88.858634
loop_
_atom_site_label
_atom_site_type_symbol
_atom_site_fract_x
_atom_site_fract_y
_atom_site_fract_z
O1	O	1.265199	0.299579	-0.089259
O2	O	0.989155	0.288517	-0.089273
O3	O	1.133475	0.109979	-0.089264
O4	O	1.120879	0.478118	-0.089267
O5	O	1.122621	0.123430	0.089377
O6	O	0.978301	0.301969	0.089368
O7	O	1.254345	0.313030	0.089382
Cu8	Cu	1.115332	0.308728	0.105687
Cu9	Cu	1.128168	0.292820	-0.105577
O10	O	1.110026	0.491569	0.089374
C11	C	0.948381	0.290404	0.000046
C12	C	0.843058	0.275970	0.000041
C13	C	0.593285	0.351949	0.000051
C14	C	0.650221	0.249604	0.000050
C15	C	0.757525	0.264278	0.000045
C16	C	0.485971	0.337277	0.000056
C17	C	1.127103	0.069306	0.000054
C18	C	1.124278	-0.071929	0.000049
C19	C	1.016013	-0.266338	-0.000358
C20	C	1.018853	-0.119399	0.000044
C21	C	1.168815	-0.120774	0.102064
C22	C	1.165211	-0.267676	0.102150
C23	C	1.179698	-0.283274	-0.100999
C24	C	1.180751	-0.136295	-0.102347
C25	C	1.295119	0.311144	0.000061
C26	C	1.400443	0.325577	0.000060
C27	C	1.116397	0.532242	0.000053
C28	C	1.119223	0.673476	0.000052
N29	N	1.106311	0.319917	0.254279
N30	N	1.137196	0.281622	-0.254169
C31	C	1.093041	0.336386	0.473393
C32	C	1.150463	0.265156	0.526724
C33	C	1.143080	0.274320	0.648646
C34	C	1.100424	0.327224	0.351459
H35	H	0.625127	0.450581	0.000046
F36	F	1.116722	-0.062284	0.201290
H37	H	0.974202	-0.076194	0.073291
F38	F	1.021542	0.425088	0.533394
F39	F	0.972481	-0.076184	-0.095540
H40	H	0.618383	0.150958	-0.000025
F41	F	1.263942	-0.319899	0.108215
F42	F	1.141234	-0.336623	-0.202064
F43	F	0.967386	-0.316422	-0.095981
F44	F	0.955897	-0.304606	0.094462
F45	F	1.222255	0.176864	0.466721
H46	H	1.123083	-0.293925	0.178405
F47	F	1.269708	-0.080950	0.107031
F48	F	1.138604	-0.094593	-0.201005
F49	F	1.281705	-0.095077	-0.110401
F50	F	1.279282	-0.335004	-0.101893
