data_functionalizedCrystal
_audit_creation_method	'MofGen! by Chris Wilmer'
_symmetry_space_group_name_H-M	'P1'
_symmetry_Int_Tables_number	1
_symmetry_cell_setting	triclinic
loop_
_symmetry_equiv_pos_as_xyz
  x,y,z
_cell_length_a	28.938199
_cell_length_b	28.937346
_cell_length_c	28.934044
_cell_angle_alpha	60.005004
_cell_angle_beta	60.009897
_cell_angle_gamma	59.994060
loop_
_atom_site_label
_atom_site_type_symbol
_atom_site_fract_x
_atom_site_fract_y
_atom_site_fract_z
O1	O	0.064043	-0.675186	0.564597
O2	O	0.564043	-0.175186	1.064597
O3	O	0.024124	-0.525682	0.454913
O4	O	0.524124	-0.025682	0.954913
O5	O	0.118795	-0.620275	0.454833
O6	O	0.618795	-0.120275	0.954833
O7	O	-0.030629	-0.580593	0.564678
O8	O	0.469371	-0.080593	1.064678
O9	O	0.150204	-0.588870	0.486157
O10	O	0.650204	-0.088870	0.986157
O11	O	0.055533	-0.494276	0.486238
O12	O	0.555533	0.005724	0.986238
O13	O	0.095452	-0.643780	0.595921
O14	O	0.595452	-0.143780	1.095921
Cu15	Cu	0.078360	-0.566161	0.543940
Cu16	Cu	0.578360	-0.066161	1.043940
Cu17	Cu	0.041215	-0.603301	0.506895
Cu18	Cu	0.541215	-0.103301	1.006895
O19	O	0.000780	-0.549187	0.596002
O20	O	0.500780	-0.049187	1.096002
N21	N	0.104487	-0.540042	0.569998
N22	N	0.604487	-0.040042	1.069998
N23	N	0.015094	-0.629425	0.480837
N24	N	0.515094	-0.129425	0.980837
C25	C	0.165467	-0.323909	0.630915
C26	C	0.665467	0.176091	1.130915
C27	C	0.165587	-0.479117	0.786068
C28	C	0.665587	0.020883	1.286068
C29	C	0.165481	-0.479095	0.630906
C30	C	0.665481	0.020905	1.130906
C31	C	0.320696	-0.479083	0.630835
C32	C	0.820696	0.020917	1.130835
C33	C	0.182557	-0.375118	0.647971
C34	C	0.682557	0.124882	1.147971
C35	C	0.182626	-0.462038	0.734858
C36	C	0.682626	0.037962	1.234858
C37	C	0.269485	-0.462018	0.647928
C38	C	0.769485	0.037982	1.147928
C39	C	0.182566	-0.462025	0.647966
C40	C	0.682566	0.037975	1.147966
C41	C	0.143714	-0.258726	0.609206
C42	C	0.643714	0.241274	1.109206
C43	C	0.143738	-0.500820	0.609192
C44	C	0.643738	-0.000820	1.109192
C45	C	0.204309	-0.440300	0.669680
C46	C	0.704309	0.059700	1.169680
C47	C	0.415481	-0.462740	0.580919
C48	C	0.915481	0.037260	1.080919
C49	C	0.474732	-0.482485	0.561145
C50	C	0.974732	0.017515	1.061145
C51	C	0.474757	-0.578356	0.597704
C52	C	0.974757	-0.078356	1.097704
C53	C	0.415508	-0.558609	0.617479
C54	C	0.915508	-0.058609	1.117479
C55	C	0.157989	-0.229089	0.550957
C56	C	0.657989	0.270911	1.050957
C57	C	0.138212	-0.169834	0.531225
C58	C	0.638212	0.330166	1.031225
C59	C	0.089890	-0.169857	0.627992
C60	C	0.589890	0.330143	1.127992
C61	C	0.109667	-0.229112	0.647725
C62	C	0.609667	0.270888	1.147725
C63	C	0.085482	-0.486515	0.623535
C64	C	0.585482	0.013485	1.123535
C65	C	0.065722	-0.506265	0.603789
C66	C	0.565722	-0.006265	1.103789
C67	C	0.162467	-0.554625	0.555370
C68	C	0.662467	-0.054625	1.055370
C69	C	0.182230	-0.534875	0.575110
C70	C	0.682230	-0.034875	1.075110
C71	C	0.085661	-0.486557	0.880902
C72	C	0.585661	0.013443	1.380902
C73	C	0.065952	-0.506323	0.940155
C74	C	0.565952	-0.006323	1.440155
C75	C	0.162734	-0.554693	0.940102
C76	C	0.662734	-0.054693	1.440102
C77	C	0.182441	-0.534928	0.880847
C78	C	0.682441	-0.034928	1.380847
C79	C	0.143904	-0.500859	0.851249
C80	C	0.643904	-0.000859	1.351249
C81	C	0.385871	-0.500801	0.609083
C82	C	0.885871	-0.000801	1.109083
C83	C	-0.110907	-0.668480	0.441278
C84	C	0.389093	-0.168480	0.941278
C85	C	-0.024049	-0.668588	0.441475
C86	C	0.475951	-0.168588	0.941475
C87	C	-0.045729	-0.690282	0.419668
C88	C	0.454271	-0.190282	0.919668
C89	C	-0.062146	-0.785032	0.469507
C90	C	0.437854	-0.285032	0.969507
C91	C	-0.042446	-0.844287	0.489286
C92	C	0.457554	-0.344287	0.989286
C93	C	0.053426	-0.844399	0.452899
C94	C	0.553426	-0.344399	0.952899
C95	C	0.033725	-0.785144	0.433120
C96	C	0.533725	-0.285144	0.933120
C97	C	-0.140617	-0.682751	0.499509
C98	C	0.359383	-0.182751	0.999509
C99	C	-0.199867	-0.662928	0.519152
C100	C	0.300133	-0.162928	1.019152
C101	C	-0.199694	-0.614571	0.422330
C102	C	0.300306	-0.114571	0.922330
C103	C	-0.140443	-0.634393	0.402687
C104	C	0.359557	-0.134393	0.902687
C105	C	-0.038320	-0.610337	0.427144
C106	C	0.461680	-0.110337	0.927144
C107	C	-0.018610	-0.590621	0.446974
C108	C	0.481390	-0.090621	0.946974
C109	C	0.029642	-0.687402	0.495454
C110	C	0.529642	-0.187402	0.995454
C111	C	0.009933	-0.707121	0.475630
C112	C	0.509933	-0.207121	0.975630
C113	C	-0.038148	-0.610347	0.324832
C114	C	0.461852	-0.110347	0.824832
C115	C	-0.018301	-0.590634	0.265579
C116	C	0.481699	-0.090634	0.765579
C117	C	0.030035	-0.687421	0.265643
C118	C	0.530035	-0.187421	0.765643
C119	C	0.010190	-0.707133	0.324897
C120	C	0.510190	-0.207133	0.824897
C121	C	-0.023903	-0.668595	0.354491
C122	C	0.476097	-0.168595	0.854491
C123	C	-0.024062	-0.755463	0.441426
C124	C	0.475938	-0.255463	0.941426
N125	N	0.503527	-0.540005	0.569810
N126	N	1.003527	-0.040005	1.069810
O127	O	0.684453	-0.545211	0.434650
O128	O	1.184453	-0.045211	0.934650
O129	O	0.684643	-0.655237	0.584005
O130	O	1.184643	-0.155237	1.084005
O131	O	0.684567	-0.654986	0.489282
O132	O	1.184567	-0.154986	0.989282
O133	O	0.684529	-0.545462	0.529373
O134	O	1.184529	-0.045462	1.029373
O135	O	0.590438	-0.623674	0.520735
O136	O	1.090438	-0.123674	1.020735
O137	O	0.590513	-0.623924	0.615457
O138	O	1.090513	-0.123924	1.115457
O139	O	0.590323	-0.513899	0.466102
O140	O	1.090323	-0.013899	0.966102
Cu141	Cu	0.581823	-0.566053	0.543652
Cu142	Cu	1.081823	-0.066053	1.043652
Cu143	Cu	0.693143	-0.603083	0.506456
Cu144	Cu	1.193143	-0.103083	1.006456
O145	O	0.590399	-0.514149	0.560825
O146	O	1.090399	-0.014149	1.060825
N147	N	0.771439	-0.629131	0.480292
N148	N	1.271439	-0.129131	0.980292
N149	N	0.104456	-0.141061	0.570015
N150	N	0.604456	0.358939	1.070015
O151	O	-0.030629	0.039964	0.564688
O152	O	0.469371	0.539964	1.064688
O153	O	0.118732	0.039984	0.454661
O154	O	0.618732	0.539984	0.954661
O155	O	0.023980	0.039958	0.454946
O156	O	0.523980	0.539958	0.954946
O157	O	0.064123	0.039990	0.564403
O158	O	0.564123	0.539990	1.064403
O159	O	0.055392	-0.054179	0.486321
O160	O	0.555392	0.445821	0.986321
O161	O	0.150144	-0.054153	0.486036
O162	O	0.650144	0.445847	0.986036
O163	O	0.000784	-0.054173	0.596063
O164	O	0.500784	0.445827	1.096063
Cu165	Cu	0.078332	-0.062759	0.543914
Cu166	Cu	0.578332	0.437241	1.043914
Cu167	Cu	0.041183	0.048570	0.506810
Cu168	Cu	0.541183	0.548570	1.006810
O169	O	0.095535	-0.054147	0.595778
O170	O	0.595535	0.445853	1.095778
N171	N	0.015053	0.126872	0.480710
N172	N	0.515053	0.626872	0.980710
N173	N	0.104760	-0.540096	0.968910
N174	N	0.604760	-0.040096	1.468910
O175	O	0.099447	-0.675167	1.149923
O176	O	0.599447	-0.175167	1.649923
O177	O	-0.010552	-0.525757	1.149951
O178	O	0.489448	-0.025757	1.649951
O179	O	-0.010297	-0.620493	1.149918
O180	O	0.489703	-0.120493	1.649918
O181	O	0.099192	-0.580431	1.149956
O182	O	0.599192	-0.080431	1.649956
O183	O	0.021064	-0.589100	1.055785
O184	O	0.521064	-0.089100	1.555785
O185	O	0.020809	-0.494365	1.055818
O186	O	0.520809	0.005635	1.555818
O187	O	0.130808	-0.643774	1.055790
O188	O	0.630808	-0.143774	1.555790
Cu189	Cu	0.078672	-0.566203	1.047209
Cu190	Cu	0.578672	-0.066203	1.547209
Cu191	Cu	0.041584	-0.603328	1.158532
Cu192	Cu	0.541584	-0.103328	1.658532
O193	O	0.130553	-0.549038	1.055823
O194	O	0.630553	-0.049038	1.555823
N195	N	0.015495	-0.629442	1.236831
N196	N	0.515495	-0.129442	1.736831
C197	C	0.036087	-0.491140	0.455465
C198	C	0.536087	0.008860	0.955465
C199	C	0.153325	-0.608283	0.455364
C200	C	0.653325	-0.108283	0.955364
C201	C	0.083488	-0.678322	0.595370
C202	C	0.583488	-0.178322	1.095370
C203	C	-0.033750	-0.561180	0.595470
C204	C	0.466250	-0.061180	1.095470
C205	C	0.637601	-0.654732	0.618548
C206	C	1.137601	-0.154732	1.118548
C207	C	0.637509	-0.654422	0.501245
C208	C	1.137509	-0.154422	1.001245
C209	C	0.637362	-0.514403	0.431560
C210	C	1.137362	-0.014403	0.931560
C211	C	0.637458	-0.514713	0.548862
C212	C	1.137458	-0.014713	1.048862
C213	C	0.153215	-0.006966	0.455158
C214	C	0.653215	0.493034	0.955158
C215	C	0.035916	-0.007114	0.455550
C216	C	0.535916	0.492886	0.955550
C217	C	-0.033739	-0.007106	0.595527
C218	C	0.466261	0.492894	1.095527
C219	C	0.083600	-0.007076	0.595174
C220	C	0.583600	0.492924	1.095174
C221	C	-0.010020	-0.491238	1.102888
C222	C	0.489980	0.008762	1.602888
C223	C	-0.009698	-0.608550	1.102828
C224	C	0.490302	-0.108550	1.602828
C225	C	0.130276	-0.678293	1.102853
C226	C	0.630276	-0.178293	1.602853
C227	C	0.129961	-0.560974	1.102892
C228	C	0.629961	-0.060974	1.602892
H229	H	0.054276	-0.458811	0.856808
H230	H	0.554276	0.041189	1.356808
H231	H	-0.224058	-0.674545	0.566571
H232	H	0.275942	-0.174545	1.066571
H233	H	-0.044554	-0.448327	1.102896
H234	H	0.455446	0.051673	1.602896
O235	O	0.025978	-0.439884	0.414379
O236	O	0.525978	0.060116	0.914379
C237	C	0.053320	-0.356688	0.352521
C238	C	0.553320	0.143312	0.852521
C239	C	0.064821	-0.414719	0.399057
C240	C	0.564821	0.085281	0.899057
H241	H	0.084725	-0.336330	0.340111
H242	H	0.584725	0.163670	0.840111
H243	H	0.008373	-0.328203	0.369035
H244	H	0.508373	0.171797	0.869035
H245	H	0.058370	-0.362590	0.313934
H246	H	0.558370	0.137410	0.813934
H247	H	0.059803	-0.408870	0.437660
H248	H	0.559803	0.091130	0.937660
H249	H	0.109763	-0.443184	0.382498
H250	H	0.609763	0.056816	0.882498
O251	O	-0.111985	-0.715918	0.537048
O252	O	0.388015	-0.215918	1.037048
C253	C	-0.093985	-0.803129	0.613751
C254	C	0.406015	-0.303129	1.113751
C255	C	-0.126455	-0.765616	0.571277
C256	C	0.373545	-0.265616	1.071277
H257	H	-0.105663	-0.843324	0.641429
H258	H	0.394337	-0.343324	1.141429
H259	H	-0.105680	-0.779035	0.641541
H260	H	0.394320	-0.279035	1.141541
H261	H	-0.046536	-0.814816	0.589695
H262	H	0.453464	-0.314816	1.089695
H263	H	-0.173911	-0.753919	0.595287
H264	H	0.326089	-0.253919	1.095287
H265	H	-0.114713	-0.789731	0.543488
H266	H	0.385287	-0.289731	1.043488
H267	H	0.164358	-0.552401	1.102897
H268	H	0.664358	-0.052401	1.602897
O269	O	-0.084870	-0.007209	0.636786
O270	O	0.415130	0.492791	1.136786
C271	C	-0.135377	-0.055956	0.731202
C272	C	0.364623	0.444044	1.231202
C273	C	-0.077436	-0.055919	0.684523
C274	C	0.422564	0.444081	1.184523
H275	H	-0.129385	-0.095328	0.769814
H276	H	0.370615	0.404672	1.269814
H277	H	-0.163941	-0.056003	0.714853
H278	H	0.336059	0.443997	1.214853
H279	H	-0.155698	-0.016537	0.743509
H280	H	0.344302	0.483463	1.243509
H281	H	-0.057066	-0.095331	0.672196
H282	H	0.442934	0.404669	1.172196
H283	H	-0.048912	-0.055843	0.700898
H284	H	0.451088	0.444157	1.200898
H285	H	0.018524	-0.494668	0.964293
H286	H	0.518524	0.005332	1.464293
H287	H	0.637525	-0.688829	0.492664
H288	H	1.137525	-0.188829	0.992664
H289	H	0.027318	-0.007118	0.421162
H290	H	0.527318	0.492882	0.921162
O291	O	0.093662	-0.729514	0.636520
O292	O	0.593662	-0.229514	1.136520
C293	C	0.098850	-0.780187	0.730822
C294	C	0.598850	-0.280187	1.230822
C295	C	0.087327	-0.722178	0.684264
C296	C	0.587327	-0.222178	1.184264
H297	H	0.093721	-0.774275	0.769438
H298	H	0.593721	-0.274275	1.269438
H299	H	0.143821	-0.808648	0.714331
H300	H	0.643821	-0.308648	1.214331
H301	H	0.067498	-0.800582	0.743176
H302	H	0.567498	-0.300582	1.243176
H303	H	0.118643	-0.701734	0.671889
H304	H	0.618643	-0.201734	1.171889
H305	H	0.042341	-0.693757	0.700779
H306	H	0.542341	-0.193757	1.200779
H307	H	0.637300	-0.479859	0.388668
H308	H	1.137300	0.020141	0.888668
O309	O	-0.050647	-0.618839	1.102741
O310	O	0.449353	-0.118839	1.602741
C311	C	-0.076517	-0.686064	1.102675
C312	C	0.423483	-0.186064	1.602675
C313	C	-0.030088	-0.674484	1.102760
C314	C	0.469912	-0.174484	1.602760
H315	H	-0.059916	-0.731056	1.102702
H316	H	0.440084	-0.231056	1.602702
H317	H	-0.088861	-0.654749	1.063258
H318	H	0.411139	-0.154749	1.563258
H319	H	-0.115165	-0.680969	1.142047
H320	H	0.384835	-0.180969	1.642047
H321	H	0.008591	-0.679586	1.063415
H322	H	0.508591	-0.179586	1.563415
H323	H	-0.017791	-0.705797	1.142203
H324	H	0.482209	-0.205797	1.642203
O325	O	0.204480	-0.618375	0.414159
O326	O	0.704480	-0.118375	0.914159
C327	C	0.255050	-0.623428	0.319810
C328	C	0.755050	-0.123428	0.819810
C329	C	0.197083	-0.611998	0.366431
C330	C	0.697083	-0.111998	0.866431
H331	H	0.249088	-0.618265	0.281207
H332	H	0.749088	-0.118265	0.781207
H333	H	0.283565	-0.668393	0.336237
H334	H	0.783565	-0.168393	0.836237
H335	H	0.275410	-0.592047	0.307460
H336	H	0.775410	-0.092047	0.807460
H337	H	0.176674	-0.643343	0.378802
H338	H	0.676674	-0.143343	0.878802
H339	H	0.168609	-0.567017	0.349979
H340	H	0.668609	-0.067017	0.849979
H341	H	0.196022	-0.006699	0.420530
H342	H	0.696022	0.493301	0.920530
O343	O	0.200246	-0.587800	0.968766
O344	O	0.700246	-0.087800	1.468766
C345	C	0.298320	-0.633669	0.962459
C346	C	0.798320	-0.133669	1.462459
C347	C	0.255901	-0.596175	0.929926
C348	C	0.755901	-0.096175	1.429926
H349	H	0.343326	-0.640442	0.931071
H350	H	0.843326	-0.140442	1.431071
H351	H	0.291555	-0.676318	0.990175
H352	H	0.791555	-0.176318	1.490175
H353	H	0.291477	-0.611970	0.990220
H354	H	0.791477	-0.111970	1.490220
H355	H	0.262718	-0.617824	0.902134
H356	H	0.762718	-0.117824	1.402134
H357	H	0.262676	-0.553528	0.902246
H358	H	0.762676	-0.053528	1.402246
O359	O	0.239017	-0.548889	0.852018
O360	O	0.739017	-0.048889	1.352018
C361	C	0.317438	-0.594437	0.785064
C362	C	0.817438	-0.094437	1.285064
C363	C	0.253363	-0.578675	0.817685
C364	C	0.753363	-0.078675	1.317685
H365	H	0.329055	-0.618512	0.757289
H366	H	0.829055	-0.118512	1.257289
H367	H	0.341622	-0.622211	0.816375
H368	H	0.841622	-0.122211	1.316375
H369	H	0.329066	-0.554217	0.757350
H370	H	0.829066	-0.054217	1.257350
H371	H	0.241683	-0.618864	0.845400
H372	H	0.741683	-0.118864	1.345400
H373	H	0.229215	-0.550880	0.786344
H374	H	0.729215	-0.050880	1.286344
O375	O	0.637418	-0.473719	0.559194
O376	O	1.137418	0.026281	1.059194
C377	C	0.637496	-0.447839	0.626417
C378	C	1.137496	0.052161	1.126417
C379	C	0.637528	-0.494310	0.614797
C380	C	1.137528	0.005690	1.114797
H381	H	0.637597	-0.464473	0.671367
H382	H	1.137597	0.035527	1.171367
H383	H	0.598063	-0.409222	0.621430
H384	H	1.098063	0.090778	1.121430
H385	H	0.676849	-0.435427	0.595036
H386	H	1.176849	0.064573	1.095036
H387	H	0.598201	-0.506770	0.646167
H388	H	1.098201	-0.006770	1.146167
H389	H	0.676987	-0.532896	0.619765
H390	H	1.176987	-0.032896	1.119765
O391	O	-0.084971	-0.550992	0.636570
O392	O	0.415029	-0.050992	1.136570
C393	C	-0.178187	-0.483941	0.662733
C394	C	0.321813	0.016059	1.162733
C395	C	-0.120202	-0.495399	0.616141
C396	C	0.379798	0.004601	1.116141
H397	H	-0.206691	-0.438999	0.646229
H398	H	0.293309	0.061001	1.146229
H399	H	-0.172287	-0.489005	0.701329
H400	H	0.327713	0.010995	1.201329
H401	H	-0.198522	-0.515358	0.675122
H402	H	0.301478	-0.015358	1.175122
H403	H	-0.099834	-0.463993	0.603703
H404	H	0.400166	0.036007	1.103703
H405	H	-0.126138	-0.490354	0.577575
H406	H	0.373862	0.009646	1.077575
O407	O	0.093909	-0.007175	0.636221
O408	O	0.593909	0.492825	1.136221
C409	C	0.151407	-0.055925	0.695687
C410	C	0.651407	0.444075	1.195687
C411	C	0.139786	-0.055887	0.649208
C412	C	0.639786	0.444113	1.149208
H413	H	0.188506	-0.095298	0.706193
H414	H	0.688506	0.404702	1.206193
H415	H	0.112190	-0.055969	0.735254
H416	H	0.612190	0.444031	1.235254
H417	H	0.162152	-0.016508	0.679994
H418	H	0.662152	0.483492	1.179994
H419	H	0.129055	-0.095297	0.664848
H420	H	0.629055	0.404703	1.164848
H421	H	0.179012	-0.055813	0.609651
H422	H	0.679012	0.444187	1.109651
O423	O	0.048014	-0.453417	0.656611
O424	O	0.548014	0.046583	1.156611
C425	C	-0.050033	-0.407555	0.702574
C426	C	0.449967	0.092445	1.202574
C427	C	-0.007662	-0.445033	0.665099
C428	C	0.492338	0.054967	1.165099
H429	H	-0.095056	-0.400775	0.709459
H430	H	0.404944	0.099225	1.209459
H431	H	-0.043263	-0.364908	0.680874
H432	H	0.456737	0.135092	1.180874
H433	H	-0.043143	-0.429272	0.745171
H434	H	0.456857	0.070728	1.245171
H435	H	-0.014526	-0.423366	0.622496
H436	H	0.485474	0.076634	1.122496
H437	H	-0.014442	-0.487678	0.686844
H438	H	0.485558	0.012322	1.186844
O439	O	0.199939	-0.587684	0.522251
O440	O	0.699939	-0.087684	1.022251
C441	C	0.297987	-0.633599	0.476341
C442	C	0.797987	-0.133599	0.976341
C443	C	0.255615	-0.596147	0.513841
C444	C	0.755615	-0.096147	1.013841
H445	H	0.343010	-0.640463	0.469540
H446	H	0.843010	-0.140463	0.969540
H447	H	0.291172	-0.611889	0.433707
H448	H	0.791172	-0.111889	0.933707
H449	H	0.291141	-0.676209	0.498048
H450	H	0.791141	-0.176209	0.998048
H451	H	0.262435	-0.553531	0.492183
H452	H	0.762435	-0.053531	0.992183
H453	H	0.262441	-0.617901	0.556473
H454	H	0.762441	-0.117901	1.056473
H455	H	0.164813	-0.721202	1.102837
H456	H	0.664813	-0.221202	1.602837
H457	H	0.229667	-0.546519	0.563426
H458	H	0.729667	-0.046519	1.063426
O459	O	0.386834	-0.595658	0.644805
O460	O	0.886834	-0.095658	1.144805
C461	C	0.393122	-0.692839	0.679006
C462	C	0.893122	-0.192839	1.179006
C463	C	0.425664	-0.650940	0.648038
C464	C	0.925664	-0.150940	1.148038
H465	H	0.424501	-0.737546	0.681640
H466	H	0.924501	-0.237546	1.181640
H467	H	0.365376	-0.680991	0.654796
H468	H	0.865376	-0.180991	1.154796
H469	H	0.365390	-0.691001	0.723547
H470	H	0.865390	-0.191001	1.223547
H471	H	0.453426	-0.652756	0.603497
H472	H	0.953426	-0.152756	1.103497
H473	H	0.453374	-0.662802	0.672291
H474	H	0.953374	-0.162802	1.172291
H475	H	0.018285	-0.494604	0.615454
H476	H	0.518285	0.005396	1.115454
O477	O	0.637688	-0.695888	0.669744
O478	O	1.137688	-0.195888	1.169744
C479	C	0.637736	-0.722191	0.762979
C480	C	1.137736	-0.222191	1.262979
C481	C	0.637651	-0.675537	0.705022
C482	C	1.137651	-0.175537	1.205022
H483	H	0.637693	-0.705750	0.791523
H484	H	1.137693	-0.205750	1.291523
H485	H	0.677159	-0.760779	0.757039
H486	H	1.177159	-0.260779	1.257039
H487	H	0.598373	-0.734572	0.783297
H488	H	1.098373	-0.234572	1.283297
H489	H	0.676987	-0.663107	0.684673
H490	H	1.176987	-0.163107	1.184673
H491	H	0.598201	-0.636979	0.711000
H492	H	1.098201	-0.136979	1.211000
H493	H	0.498884	-0.625426	0.604536
H494	H	0.998884	-0.125426	1.104536
H495	H	0.498841	-0.451490	0.538213
H496	H	0.998841	0.048510	1.038213
H497	H	0.391352	-0.415667	0.574082
H498	H	0.891352	0.084333	1.074082
H499	H	0.149834	-0.145702	0.483792
H500	H	0.649834	0.354298	0.983792
O501	O	0.190977	-0.257829	0.513517
O502	O	0.690977	0.242171	1.013517
C503	C	0.198509	-0.275920	0.436846
C504	C	0.698509	0.224080	0.936846
C505	C	0.161086	-0.243345	0.479223
C506	C	0.661086	0.256655	0.979223
H507	H	0.174361	-0.264213	0.409101
H508	H	0.674361	0.235787	0.909101
H509	H	0.210182	-0.323369	0.460926
H510	H	0.710182	0.176631	0.960926
H511	H	0.238710	-0.264264	0.409113
H512	H	0.738710	0.235736	0.909113
H513	H	0.120861	-0.254953	0.506968
H514	H	0.620861	0.245047	1.006968
H515	H	0.149458	-0.195904	0.455109
H516	H	0.649458	0.304096	0.955109
O517	O	0.056888	-0.141151	0.665465
O518	O	0.556888	0.358849	1.165465
C519	C	0.049390	-0.123012	0.742088
C520	C	0.549390	0.376988	1.242088
C521	C	0.086819	-0.155562	0.699689
C522	C	0.586819	0.344438	1.199689
H523	H	0.073579	-0.134642	0.769762
H524	H	0.573579	0.365358	1.269762
H525	H	0.009202	-0.134687	0.769890
H526	H	0.509202	0.365313	1.269890
H527	H	0.037688	-0.075572	0.717970
H528	H	0.537688	0.424428	1.217970
H529	H	0.098564	-0.203010	0.723762
H530	H	0.598564	0.296990	1.223762
H531	H	0.126980	-0.143840	0.671888
H532	H	0.626980	0.356160	1.171888
O533	O	0.095916	-0.257947	0.704298
O534	O	0.595916	0.242053	1.204298
C535	C	0.130059	-0.324778	0.782711
C536	C	0.630059	0.175222	1.282711
C537	C	0.145704	-0.292177	0.718628
C538	C	0.645704	0.207823	1.218628
H539	H	0.170303	-0.352451	0.794318
H540	H	0.670303	0.147549	1.294318
H541	H	0.105967	-0.352578	0.794448
H542	H	0.605967	0.147422	1.294448
H543	H	0.102317	-0.293402	0.806816
H544	H	0.602317	0.206598	1.306816
H545	H	0.173464	-0.323511	0.694479
H546	H	0.673464	0.176489	1.194479
H547	H	0.169767	-0.264368	0.706934
H548	H	0.669767	0.235632	1.206934
H549	H	-0.065911	-0.578960	0.348925
H550	H	0.434089	-0.078960	0.848925
O551	O	-0.032222	-0.534030	0.236862
O552	O	0.467778	-0.034030	0.736862
C553	C	-0.082244	-0.440112	0.243059
C554	C	0.417756	0.059888	0.743059
C555	C	-0.066533	-0.504199	0.275652
C556	C	0.433467	-0.004199	0.775652
H557	H	-0.109977	-0.415976	0.274406
H558	H	0.390023	0.084024	0.774406
H559	H	-0.106341	-0.428397	0.215261
H560	H	0.393659	0.071603	0.715261
H561	H	-0.042005	-0.428520	0.215372
H562	H	0.457995	0.071480	0.715372
H563	H	-0.106743	-0.515837	0.303369
H564	H	0.393257	-0.015837	0.803369
H565	H	-0.042414	-0.515880	0.303414
H566	H	0.457586	-0.015880	0.803414
H567	H	0.057785	-0.718806	0.241554
H568	H	0.557785	-0.218806	0.741554
H569	H	0.021795	-0.754566	0.349042
H570	H	0.521795	-0.254566	0.849042
H571	H	-0.065985	-0.578958	0.399332
H572	H	0.434015	-0.078958	0.899332
H573	H	-0.030233	-0.543188	0.435308
H574	H	0.469767	-0.043188	0.935308
H575	H	0.021552	-0.754553	0.487300
H576	H	0.521552	-0.254553	0.987300
O577	O	0.062627	-0.724911	0.528642
O578	O	0.562627	-0.224911	1.028642
C579	C	0.108437	-0.822990	0.574603
C580	C	0.608437	-0.322990	1.074603
C581	C	0.071067	-0.780572	0.537022
C582	C	0.571067	-0.280572	1.037022
H583	H	0.115282	-0.868001	0.581380
H584	H	0.615282	-0.368001	1.081380
H585	H	0.086676	-0.816182	0.617242
H586	H	0.586676	-0.316182	1.117242
H587	H	0.151057	-0.816185	0.552974
H588	H	0.651057	-0.316185	1.052974
H589	H	0.028441	-0.787352	0.558601
H590	H	0.528441	-0.287352	1.058601
H591	H	0.092873	-0.787391	0.494385
H592	H	0.592873	-0.287391	0.994385
O593	O	0.070786	-0.756482	0.405784
O594	O	0.570786	-0.256482	0.905784
C595	C	0.152984	-0.738432	0.326021
C596	C	0.652984	-0.238432	0.826021
C597	C	0.111061	-0.770937	0.356930
C598	C	0.611061	-0.270937	0.856930
H599	H	0.185550	-0.750098	0.286510
H600	H	0.685550	-0.250098	0.786510
H601	H	0.175447	-0.750113	0.355313
H602	H	0.675447	-0.250113	0.855313
H603	H	0.128963	-0.690985	0.313338
H604	H	0.628963	-0.190985	0.813338
H605	H	0.135040	-0.818391	0.369616
H606	H	0.635040	-0.318391	0.869616
H607	H	0.088599	-0.759209	0.327619
H608	H	0.588599	-0.259209	0.827619
O609	O	-0.079530	-0.872924	0.516641
O610	O	0.420470	-0.372924	1.016641
C611	C	-0.176719	-0.866562	0.550771
C612	C	0.323281	-0.366562	1.050771
C613	C	-0.134779	-0.834059	0.519750
C614	C	0.365221	-0.334059	1.019750
H615	H	-0.221396	-0.835154	0.553284
H616	H	0.278604	-0.335154	1.053284
H617	H	-0.174977	-0.894239	0.595355
H618	H	0.325023	-0.394239	1.095355
H619	H	-0.164824	-0.894363	0.526601
H620	H	0.335176	-0.394363	1.026601
H621	H	-0.146645	-0.806227	0.543873
H622	H	0.353355	-0.306227	1.043873
H623	H	-0.136528	-0.806418	0.475164
H624	H	0.363472	-0.306418	0.975164
O625	O	0.109543	-0.873260	0.444936
O626	O	0.609543	-0.373260	0.944936
C627	C	0.181119	-0.940244	0.488744
C628	C	0.681119	-0.440244	0.988744
C629	C	0.117554	-0.907586	0.497845
C630	C	0.617554	-0.407586	0.997845
H631	H	0.187615	-0.968013	0.531512
H632	H	0.687615	-0.468013	1.031512
H633	H	0.204980	-0.908956	0.465307
H634	H	0.704980	-0.408956	0.965307
H635	H	0.197818	-0.967970	0.462664
H636	H	0.697818	-0.467970	0.962664
H637	H	0.100804	-0.879859	0.523938
H638	H	0.600804	-0.379859	1.023938
H639	H	0.093731	-0.938905	0.521257
H640	H	0.593731	-0.438905	1.021257
H641	H	-0.223743	-0.586821	0.390905
H642	H	0.276257	-0.086821	0.890905
O643	O	-0.118254	-0.756132	0.477467
O644	O	0.381746	-0.256132	0.977467
C645	C	-0.189821	-0.689193	0.433638
C646	C	0.310179	-0.189193	0.933638
C647	C	-0.126262	-0.721883	0.424549
C648	C	0.373738	-0.221883	0.924549
H649	H	-0.196316	-0.661505	0.390861
H650	H	0.303684	-0.161505	0.890861
H651	H	-0.206550	-0.661400	0.459658
H652	H	0.293450	-0.161400	0.959658
H653	H	-0.213655	-0.720511	0.457129
H654	H	0.286345	-0.220511	0.957129
H655	H	-0.102381	-0.690607	0.401042
H656	H	0.397619	-0.190607	0.901042
H657	H	-0.109576	-0.749686	0.398551
H658	H	0.390424	-0.249686	0.898551
H659	H	-0.116252	-0.622767	0.355267
H660	H	0.383748	-0.122767	0.855267
