data_functionalizedCrystal
_audit_creation_method	'MofGen! by Chris Wilmer'
_symmetry_space_group_name_H-M	'P1'
_symmetry_Int_Tables_number	1
_symmetry_cell_setting	triclinic
loop_
_symmetry_equiv_pos_as_xyz
  x,y,z
_cell_length_a	12.645330
_cell_length_b	12.759401
_cell_length_c	12.759393
_cell_angle_alpha	90.020120
_cell_angle_beta	89.969952
_cell_angle_gamma	89.986338
loop_
_atom_site_label
_atom_site_type_symbol
_atom_site_fract_x
_atom_site_fract_y
_atom_site_fract_z
Zn1	Zn	-0.422091	-1.606234	-0.594038
Zn2	Zn	0.077909	-1.106234	-0.094038
Zn3	Zn	-0.599395	-1.606119	-0.418363
Zn4	Zn	-0.099395	-1.106119	0.081637
Zn5	Zn	-0.422133	-1.430536	-0.418372
Zn6	Zn	0.077867	-0.930536	0.081628
Zn7	Zn	-0.599300	-1.430515	-0.593999
Zn8	Zn	-0.099300	-0.930515	-0.093999
O9	O	-0.510730	-1.518351	-0.506193
O10	O	-0.010730	-1.018351	-0.006193
O11	O	-0.445632	-1.753239	-0.570746
O12	O	0.054368	-1.253239	-0.070746
O13	O	-0.575938	-1.582788	-0.271343
O14	O	-0.075938	-1.082788	0.228657
O15	O	-0.273780	-1.453899	-0.441695
O16	O	0.226220	-0.953899	0.058305
O17	O	-0.575897	-1.753155	-0.441678
O18	O	-0.075897	-1.253155	0.058322
O19	O	-0.273749	-1.582983	-0.570756
O20	O	0.226251	-1.082983	-0.070756
O21	O	-0.445705	-1.453788	-0.271350
O22	O	0.054295	-0.953788	0.228650
O23	O	-0.445613	-1.283512	-0.441657
O24	O	0.054387	-0.783512	0.058343
O25	O	-0.575736	-1.453864	-0.741025
O26	O	-0.075736	-0.953864	-0.241025
O27	O	-0.575777	-1.283497	-0.570690
O28	O	-0.075777	-0.783497	-0.070690
O29	O	-0.445541	-1.582964	-0.741054
O30	O	0.054459	-1.082964	-0.241054
O31	O	-0.747730	-1.582768	-0.441641
O32	O	-0.247730	-1.082768	0.058359
O33	O	-0.747660	-1.453753	-0.570680
O34	O	-0.247660	-0.953753	-0.070680
C35	C	-0.510690	-1.245383	-0.506171
C36	C	-0.010690	-0.745383	-0.006171
C37	C	-0.510699	-1.128607	-0.506187
C38	C	-0.010699	-0.628607	-0.006187
C39	C	-0.442995	-1.073782	-0.573495
C40	C	0.057005	-0.573782	-0.073495
C41	C	-0.443009	-0.964058	-0.573498
C42	C	0.056991	-0.464058	-0.073498
C43	C	-0.578440	-0.963993	-0.438883
C44	C	-0.078440	-0.463993	0.061117
C45	C	-0.578420	-1.073715	-0.438874
C46	C	-0.078420	-0.573715	0.061126
C47	C	-0.364808	-1.073818	-0.651217
C48	C	0.135192	-0.573818	-0.151217
C49	C	-0.364823	-0.964094	-0.651221
C50	C	0.135177	-0.464094	-0.151221
C51	C	-0.786160	-1.518274	-0.506178
C52	C	-0.286160	-1.018274	-0.006178
C53	C	-0.903990	-1.518337	-0.506207
C54	C	-0.403990	-1.018337	-0.006207
C55	C	-1.071554	-1.437509	-0.587636
C56	C	-0.571554	-0.937509	-0.087636
C57	C	-0.948995	-1.437095	-0.587374
C58	C	-0.448995	-0.937095	-0.087374
C59	C	-0.948592	-1.488364	-0.395485
C60	C	-0.448592	-0.988364	0.104515
C61	C	-1.071190	-1.487871	-0.395979
C62	C	-0.571190	-0.987871	0.104021
C63	C	-1.071084	-1.629634	-0.534602
C64	C	-0.571084	-1.129634	-0.034602
C65	C	-0.948477	-1.628952	-0.537024
C66	C	-0.448477	-1.128952	-0.037024
C67	C	-0.234225	-1.518456	-0.506231
C68	C	0.265775	-1.018456	-0.006231
C69	C	-0.116394	-1.518501	-0.506247
C70	C	0.383606	-1.018501	-0.006247
C71	C	-0.510623	-1.518424	-0.780226
C72	C	-0.010623	-1.018424	-0.280226
C73	C	-0.510577	-1.518456	-0.897003
C74	C	-0.010577	-1.018456	-0.397003
C75	C	-0.510757	-0.792384	-0.506209
C76	C	-0.010757	-0.292384	-0.006209
C77	C	-0.510734	-0.909161	-0.506198
C78	C	-0.010734	-0.409161	-0.006198
C79	C	-0.442778	-1.585687	-0.951882
C80	C	0.057222	-1.085687	-0.451882
C81	C	-0.442740	-1.585712	-1.061606
C82	C	0.057260	-1.085712	-0.561606
C83	C	-0.578309	-1.451271	-1.061563
C84	C	-0.078309	-0.951271	-0.561563
C85	C	-0.578341	-1.451242	-0.951841
C86	C	-0.078341	-0.951242	-0.451841
C87	C	-0.364512	-1.663309	-0.951907
C88	C	0.135488	-1.163309	-0.451907
C89	C	-0.364474	-1.663334	-1.061631
C90	C	0.135526	-1.163334	-0.561631
C91	C	-0.510760	-1.518338	-0.233226
C92	C	-0.010760	-1.018338	0.266774
C93	C	-0.510507	-1.518510	-0.116449
C94	C	-0.010507	-1.018510	0.383551
H95	H	-0.633541	-1.118350	-0.384056
H96	H	-0.133541	-0.618350	0.115944
H97	H	-0.386468	-1.744703	-1.091413
H98	H	0.113532	-1.244703	-0.591413
H99	H	-0.386914	-0.934348	-0.732557
H100	H	0.113086	-0.434348	-0.232557
H101	H	-0.394306	-1.107882	-0.728457
H102	H	0.105694	-0.607882	-0.228457
H103	H	-0.282412	-1.641544	-0.922149
H104	H	0.217588	-1.141544	-0.422149
H105	H	-0.919443	-1.545485	-0.333187
H106	H	-0.419443	-1.045485	0.166813
Cl107	Cl	-0.901334	-1.364242	-0.357726
Cl108	Cl	-0.401334	-0.864242	0.142274
Cl109	Cl	-1.115876	-1.722802	-0.443098
Cl110	Cl	-0.615876	-1.222802	0.056902
H111	H	-0.282673	-1.103589	-0.629562
H112	H	0.217327	-0.603589	-0.129562
Cl113	Cl	-0.244097	-1.618241	-1.114203
Cl114	Cl	0.255903	-1.118241	-0.614203
H115	H	-0.393949	-1.740579	-0.917874
H116	H	0.106051	-1.240579	-0.417874
H117	H	-0.633577	-0.919287	-0.384080
H118	H	-0.133577	-0.419287	0.115920
H119	H	-0.919756	-1.354706	-0.568589
H120	H	-0.419756	-0.854706	-0.068589
H121	H	-0.286796	-0.930056	-0.622219
H122	H	0.213204	-0.430056	-0.122219
H123	H	-0.633477	-1.396546	-1.106226
H124	H	-0.133477	-0.896546	-0.606226
H125	H	-0.918834	-1.455848	-0.669474
H126	H	-0.418834	-0.955848	-0.169474
Cl127	Cl	-0.903463	-1.663856	-0.662832
Cl128	Cl	-0.403463	-1.163856	-0.162832
Cl129	Cl	-1.116958	-1.466188	-0.714812
Cl130	Cl	-0.616958	-0.966188	-0.214812
H131	H	-1.100857	-1.544302	-0.333270
H132	H	-0.600857	-1.044302	0.166730
Cl133	Cl	-1.119278	-1.311104	-0.559027
Cl134	Cl	-0.619278	-0.811104	-0.059027
Cl135	Cl	-1.118693	-1.671848	-0.657139
Cl136	Cl	-0.618693	-1.171848	-0.157139
H137	H	-0.633546	-1.396492	-0.907163
H138	H	-0.133546	-0.896492	-0.407163
Cl139	Cl	-0.901164	-1.727031	-0.452172
Cl140	Cl	-0.401164	-1.227031	0.047828
Cl141	Cl	-1.115487	-1.362445	-0.358894
Cl142	Cl	-0.615487	-0.862445	0.141106
