data_functionalizedCrystal
_audit_creation_method	'MofGen! by Chris Wilmer'
_symmetry_space_group_name_H-M	'P1'
_symmetry_Int_Tables_number	1
_symmetry_cell_setting	triclinic
loop_
_symmetry_equiv_pos_as_xyz
  x,y,z
_cell_length_a	6.817900
_cell_length_b	23.288450
_cell_length_c	16.255661
_cell_angle_alpha	86.265074
_cell_angle_beta	76.511078
_cell_angle_gamma	106.195923
loop_
_atom_site_label
_atom_site_type_symbol
_atom_site_fract_x
_atom_site_fract_y
_atom_site_fract_z
V1	V	-4.039206	-0.083035	0.262157
O2	O	-4.013665	0.003494	0.258920
O3	O	-4.002966	-0.164168	0.258677
O4	O	-3.990609	-0.081976	0.377262
O5	O	-4.026107	-0.079267	0.139514
V6	V	-4.521284	-0.072660	0.247693
O7	O	-4.303634	-0.105795	0.293885
O8	O	-4.707053	-0.049900	0.215964
O9	O	-4.334318	0.008473	0.251172
O10	O	-4.664222	-0.159189	0.250929
O11	O	-4.651780	-0.076428	0.370335
O12	O	-4.346675	-0.073719	0.132587
C13	C	-3.850931	-0.183939	0.254106
C14	C	-3.902586	-0.250268	0.252028
C15	C	-3.835167	-0.079094	0.405372
C16	C	-3.876797	-0.078765	0.499460
C17	C	-4.149709	0.028242	0.255742
C18	C	-4.075941	0.095815	0.257876
C19	C	-3.836812	-0.407359	0.242718
C20	C	-3.925503	-0.440808	0.173716
C21	C	-3.997266	-0.371712	0.248265
C22	C	-4.000640	-0.456450	0.313573
C23	C	-4.088711	-0.489022	0.244633
C24	C	-4.085247	-0.404281	0.179233
C25	C	-4.160387	-0.419926	0.319152
C26	C	-4.249194	-0.453357	0.250137
C27	C	-3.944581	-0.304133	0.250356
C28	C	-4.141406	-0.556600	0.242536
V29	V	-4.215475	0.205752	0.253606
O30	O	-4.158521	0.293801	0.248309
O31	O	-4.211231	0.121240	0.254730
O32	O	-4.198233	0.203408	0.373349
O33	O	-4.171610	0.211064	0.128869
V34	V	-4.656855	0.233093	0.215969
O35	O	-4.478011	0.190918	0.274501
O36	O	-4.813468	0.263301	0.174073
O37	O	-4.453286	0.309983	0.225258
O38	O	-4.823109	0.149054	0.215790
O39	O	-4.810021	0.231790	0.335230
O40	O	-4.466285	0.227815	0.106639
C41	C	-4.165459	-0.076602	0.104473
C42	C	-4.103067	-0.076929	0.010384
C43	C	-4.275126	0.323912	0.237807
C44	C	-4.183401	0.389529	0.240871
C45	C	-4.059369	0.200627	0.409192
C46	C	-4.121219	0.200938	0.503295
C47	C	-3.786762	-0.074829	0.722360
C48	C	-3.950822	-0.125631	0.790787
C49	C	-3.953089	-0.078147	0.671721
C50	C	-3.863232	-0.026763	0.770943
C51	C	-4.026767	-0.077547	0.838117
C52	C	-4.116638	-0.128995	0.738918
C53	C	-4.028979	-0.030082	0.719059
C54	C	-4.193178	-0.080899	0.787467
C55	C	-3.910640	-0.078493	0.575865
C56	C	-4.069234	-0.077206	0.933973
C57	C	-4.291708	0.219099	0.086496
C58	C	-4.210527	0.218082	-0.006640
C59	C	-4.322415	0.204189	0.543421
C60	C	-4.380546	0.204490	0.631839
C61	C	-4.237484	0.201535	0.680130
C62	C	-4.036269	0.198285	0.639998
C63	C	-3.978135	0.197988	0.551581
C64	C	-4.014267	0.208598	-0.037907
C65	C	-3.937954	0.207647	-0.125417
C66	C	-4.057911	0.216177	-0.181657
C67	C	-4.254186	0.225664	-0.150385
C68	C	-4.330489	0.226619	-0.062878
H69	H	-3.826741	-0.450289	0.112206
C70	C	-4.293697	-0.407090	0.402247
C71	C	-4.273791	-0.431388	0.489346
C72	C	-4.407087	-0.418552	0.572448
C73	C	-4.560289	-0.381417	0.568451
C74	C	-4.580201	-0.357116	0.481348
C75	C	-4.446906	-0.369953	0.398246
H76	H	-4.160376	-0.458880	0.492308
H77	H	-4.392345	-0.436541	0.636927
H78	H	-4.658962	-0.371914	0.629968
H79	H	-4.693616	-0.329624	0.478387
H80	H	-4.461647	-0.351963	0.333767
H81	H	-3.995691	0.215438	-0.252917
C82	C	-3.878926	0.195029	0.693129
C83	C	-3.806541	0.246440	0.744623
C84	C	-3.649210	0.243179	0.797759
C85	C	-3.564264	0.188507	0.799401
C86	C	-3.636648	0.137092	0.747906
C87	C	-3.793979	0.140353	0.694770
H88	H	-3.869424	0.286915	0.743408
H89	H	-3.595627	0.281241	0.835879
H90	H	-3.447798	0.186093	0.838736
H91	H	-3.573765	0.096617	0.749120
H92	H	-3.847561	0.102292	0.656650
C93	C	-4.072898	0.024493	0.676798
C94	C	-4.146608	0.069728	0.731844
C95	C	-4.190499	0.124309	0.689578
C96	C	-4.160680	0.133654	0.592268
C97	C	-4.086965	0.088417	0.537216
C98	C	-4.043074	0.033836	0.579482
H99	H	-4.168686	0.062812	0.803884
H100	H	-4.245068	0.157796	0.730331
H101	H	-4.193170	0.174058	0.560980
H102	H	-4.064887	0.095333	0.465176
H103	H	-3.988506	0.000349	0.538729
H104	H	-3.756498	0.016431	0.785445
H105	H	-4.351835	0.232610	-0.196190
C106	C	-3.906793	-0.180201	0.833016
C107	C	-3.739282	-0.170187	0.884211
C108	C	-3.695233	-0.224754	0.926435
C109	C	-3.818695	-0.289334	0.917464
C110	C	-3.986216	-0.299351	0.866267
C111	C	-4.030266	-0.244784	0.824043
H112	H	-3.647879	-0.122378	0.890854
H113	H	-3.571222	-0.217338	0.964335
H114	H	-3.786087	-0.329728	0.948721
H115	H	-4.077620	-0.347160	0.859624
H116	H	-4.154277	-0.252200	0.786144
C117	C	-4.132843	-0.373698	0.102470
C118	C	-4.092307	-0.304863	0.090223
C119	C	-4.139899	-0.274279	0.013462
C120	C	-4.228025	-0.312530	-0.051051
C121	C	-4.268565	-0.381368	-0.038806
C122	C	-4.220974	-0.411952	0.037955
H123	H	-4.027067	-0.276545	0.137981
H124	H	-4.109888	-0.223320	0.004398
H125	H	-4.263255	-0.289890	-0.107874
H126	H	-4.333806	-0.409687	-0.086564
H127	H	-4.250985	-0.462911	0.047020
C128	C	-3.952968	-0.487125	0.390241
C129	C	-3.726170	-0.469476	0.400994
C130	C	-3.678478	-0.500147	0.477657
C131	C	-3.857584	-0.548466	0.543568
C132	C	-4.084397	-0.566117	0.532818
C133	C	-4.132089	-0.535446	0.456155
H134	H	-3.593571	-0.433705	0.352200
H135	H	-3.510575	-0.487080	0.485615
H136	H	-3.822280	-0.571171	0.600319
H137	H	-4.216996	-0.601888	0.581611
H138	H	-4.299992	-0.548513	0.448197
H139	H	-3.614631	-0.072328	0.693931
H140	H	-4.223362	-0.172247	0.724558
C141	C	-3.882282	0.199218	0.023947
C142	C	-3.808973	0.248835	0.077982
C143	C	-3.676967	0.239459	0.139830
C144	C	-3.618271	0.180467	0.147642
C145	C	-3.691581	0.130846	0.093605
C146	C	-3.823586	0.140222	0.031758
H147	H	-3.852423	0.292508	0.072201
H148	H	-3.622699	0.276192	0.179831
H149	H	-3.520552	0.173526	0.193425
H150	H	-3.648130	0.087173	0.099387
H151	H	-3.877855	0.103489	-0.008244
H152	H	-3.661960	-0.387257	0.239515
H153	H	-4.544395	0.207134	0.664502
H154	H	-4.490307	0.234339	-0.037428
H155	H	-4.365438	-0.083479	0.815760
H156	H	-4.424035	-0.473340	0.253239
H157	H	-4.284847	0.201777	0.752124
H158	H	-4.438932	0.206594	0.504114
H159	H	-3.814304	0.195338	0.518919
H160	H	-3.778135	0.199921	-0.150864
