data_functionalizedCrystal
_audit_creation_method	'MofGen! by Chris Wilmer'
_symmetry_space_group_name_H-M	'P1'
_symmetry_Int_Tables_number	1
_symmetry_cell_setting	triclinic
loop_
_symmetry_equiv_pos_as_xyz
  x,y,z
_cell_length_a	19.805407
_cell_length_b	12.594516
_cell_length_c	12.594517
_cell_angle_alpha	89.999530
_cell_angle_beta	90.003252
_cell_angle_gamma	90.016053
loop_
_atom_site_label
_atom_site_type_symbol
_atom_site_fract_x
_atom_site_fract_y
_atom_site_fract_z
Zn1	Zn	1.034675	-0.423990	0.601893
Zn2	Zn	1.034643	-0.601918	0.423920
Zn3	Zn	0.921522	-0.423954	0.423920
Zn4	Zn	0.921474	-0.601927	0.601848
O5	O	0.978079	-0.512947	0.512895
O6	O	1.129388	-0.447604	0.578303
O7	O	1.019644	-0.578291	0.274975
O8	O	0.936566	-0.275013	0.447546
O9	O	1.129364	-0.578327	0.447548
O10	O	1.019699	-0.275040	0.578302
O11	O	0.936535	-0.447541	0.274974
O12	O	0.826799	-0.447551	0.447503
O13	O	0.936484	-0.578343	0.750800
O14	O	0.826764	-0.578307	0.578227
O15	O	1.019652	-0.447613	0.750832
O16	O	1.019597	-0.750865	0.447505
O17	O	0.936452	-0.750872	0.578228
C18	C	0.802223	-0.512927	0.512861
C19	C	0.726991	-0.512944	0.512871
C20	C	0.978034	-0.789488	0.512885
C21	C	0.978077	-0.907794	0.512916
C22	C	0.691646	-0.581131	0.580829
C23	C	0.620957	-0.581133	0.580844
C24	C	0.585615	-0.512952	0.512895
C25	C	0.620965	-0.444757	0.444935
C26	C	0.691652	-0.444751	0.444926
C27	C	0.335892	-0.444781	0.444970
C28	C	0.265199	-0.444795	0.444982
C29	C	0.265197	-0.581163	0.580888
C30	C	0.335884	-0.581156	0.580879
C31	C	0.371228	-0.512958	0.512923
C32	C	0.447876	-0.512955	0.512909
C33	C	0.508968	-0.512959	0.512903
C34	C	0.932850	-0.977089	0.583966
C35	C	0.916379	-1.047909	0.486843
C36	C	0.994610	-1.047772	0.610056
C37	C	0.961573	-0.977055	0.415741
C38	C	1.039833	-0.976912	0.539020
C39	C	1.023385	-1.047700	0.441830
C40	C	1.154621	-0.512968	0.512930
C41	C	1.229853	-0.512977	0.512945
C42	C	0.978066	-0.512983	0.790516
C43	C	0.978061	-0.512998	0.908822
C44	C	0.978142	-0.235326	0.512929
C45	C	0.978168	-0.117021	0.512943
C46	C	0.932825	-0.584075	1.048821
C47	C	0.916291	-0.486979	0.978015
C48	C	0.994564	-0.610084	0.978055
C49	C	0.961490	-0.415810	1.048802
C50	C	1.039792	-0.538981	1.048848
C51	C	1.023282	-0.441818	0.978075
C52	C	0.978077	-0.512945	1.236354
C53	C	0.978055	-0.512958	1.118049
H54	H	0.720416	-0.636655	0.636157
Cl55	Cl	0.220760	-0.666899	0.666321
Cl56	Cl	0.939841	-0.288984	1.096573
H57	H	0.864084	-0.464978	0.946902
H58	H	0.864196	-1.079118	0.464786
Cl59	Cl	1.082498	-1.095272	0.348980
Cl60	Cl	0.873698	-0.929213	0.676599
H61	H	0.592183	-0.636659	0.636181
H62	H	1.091983	-0.561010	1.079984
Cl63	Cl	1.120382	-0.928727	0.573145
H64	H	1.008526	-0.692206	0.946980
Cl65	Cl	0.380310	-0.666876	0.666300
Cl66	Cl	1.016142	-1.095735	0.736870
H67	H	1.061535	-0.381625	0.947208
H68	H	0.947566	-0.946122	0.333580
H69	H	0.236426	-0.389267	0.389650
H70	H	0.364660	-0.389258	0.389628
Cl71	Cl	0.576534	-0.359036	0.359520
H72	H	0.720429	-0.389220	0.389593
Cl73	Cl	0.873723	-0.676784	1.096788
