data_functionalizedCrystal
_audit_creation_method	'MofGen! by Chris Wilmer'
_symmetry_space_group_name_H-M	'P1'
_symmetry_Int_Tables_number	1
_symmetry_cell_setting	triclinic
loop_
_symmetry_equiv_pos_as_xyz
  x,y,z
_cell_length_a	6.817900
_cell_length_b	16.417823
_cell_length_c	16.418042
_cell_angle_alpha	95.403474
_cell_angle_beta	103.389568
_cell_angle_gamma	103.385419
loop_
_atom_site_label
_atom_site_type_symbol
_atom_site_fract_x
_atom_site_fract_y
_atom_site_fract_z
V1	V	-4.025072	-0.116566	-0.261445
O2	O	-4.013115	0.004901	-0.256170
O3	O	-3.976121	-0.230458	-0.259944
O4	O	-3.976152	-0.115081	-0.375340
O5	O	-4.013084	-0.111275	-0.139976
V6	V	-4.508838	-0.102001	-0.246882
O7	O	-4.285796	-0.148516	-0.293392
O8	O	-4.698311	-0.070051	-0.214935
O9	O	-4.334582	0.011890	-0.248383
O10	O	-4.638192	-0.223468	-0.252157
O11	O	-4.638223	-0.107293	-0.368351
O12	O	-4.334551	-0.103487	-0.132987
C13	C	-3.821005	-0.258212	-0.255893
C14	C	-3.862266	-0.351322	-0.255425
C15	C	-3.956214	-0.640884	-0.177216
C16	C	-3.917418	-0.553395	-0.177643
C17	C	-3.997069	-0.577696	-0.331119
C18	C	-4.035849	-0.665183	-0.330692
C19	C	-4.015430	-0.696774	-0.253738
C20	C	-3.937853	-0.521798	-0.254592
C21	C	-3.895789	-0.426939	-0.255055
C22	C	-4.057493	-0.791639	-0.253274
C23	C	-3.821044	-0.111036	-0.403091
C24	C	-3.862327	-0.110575	-0.496202
C25	C	-4.139334	-0.113691	-0.714696
C26	C	-4.178105	-0.113251	-0.802182
C27	C	-3.813932	-0.104872	-0.793619
C28	C	-3.775161	-0.105306	-0.706133
C29	C	-3.937871	-0.109720	-0.666675
C30	C	-4.015413	-0.108845	-0.841647
C31	C	-4.057448	-0.108368	-0.936503
C32	C	-3.895833	-0.110196	-0.571812
C33	C	-4.153040	0.039640	-0.252431
C34	C	-4.091017	0.132749	-0.252905
C35	C	-4.153002	-0.107534	-0.105231
C36	C	-4.090957	-0.107991	-0.012119
H37	H	-4.084063	-0.710692	-0.393008
H38	H	-4.271825	-0.117284	-0.682572
H39	H	-3.869198	-0.507891	-0.115331
O40	O	-4.373950	-0.117153	-0.848711
C41	C	-4.509222	-0.121120	-0.795117
H42	H	-4.442034	-0.146854	-0.735722
H43	H	-4.526034	-0.054920	-0.776427
C44	C	-4.807558	-0.148508	-0.915001
C45	C	-4.725045	-0.180122	-0.842054
H46	H	-4.940692	-0.184900	-0.943954
H47	H	-4.716423	-0.145833	-0.951109
H48	H	-4.821550	-0.093342	-0.899416
H49	H	-4.711031	-0.235282	-0.857640
H50	H	-4.816184	-0.182808	-0.805950
O51	O	-4.016596	-0.547040	-0.405883
C52	C	-3.877346	-0.571764	-0.448488
H53	H	-3.743782	-0.585863	-0.400686
H54	H	-3.963800	-0.631043	-0.496987
C55	C	-3.952919	-0.482335	-0.552797
C56	C	-3.788864	-0.499645	-0.494084
H57	H	-3.898345	-0.437851	-0.580927
H58	H	-4.046740	-0.465680	-0.524096
H59	H	-4.024950	-0.531740	-0.593205
H60	H	-3.716853	-0.450244	-0.453672
H61	H	-3.695028	-0.516290	-0.522780
O62	O	-3.579572	-0.101462	-0.659355
C63	C	-3.580270	-0.102833	-0.573684
H64	H	-3.717561	-0.079800	-0.561180
H65	H	-3.595825	-0.170308	-0.559383
C66	C	-3.205942	-0.072587	-0.531670
C67	C	-3.374554	-0.044291	-0.516311
H68	H	-3.079044	-0.036479	-0.496278
H69	H	-3.205470	-0.071666	-0.589389
H70	H	-3.218932	-0.128816	-0.519753
H71	H	-3.361576	0.011933	-0.528238
H72	H	-3.375019	-0.045201	-0.458593
O73	O	-3.936178	-0.671429	-0.102389
C74	C	-3.875639	-0.603334	-0.034943
H75	H	-3.796435	-0.543049	-0.056289
H76	H	-4.019515	-0.594054	-0.015084
C77	C	-3.819429	-0.696965	0.066960
C78	C	-3.722133	-0.622923	0.040744
H79	H	-3.724747	-0.709049	0.113649
H80	H	-3.860223	-0.742843	0.021521
H81	H	-3.939322	-0.689223	0.083503
H82	H	-3.602259	-0.630671	0.024191
H83	H	-3.681316	-0.577047	0.086182
O84	O	-3.656002	-0.100482	-0.832030
C85	C	-3.629653	-0.027064	-0.870815
H86	H	-3.780933	-0.006328	-0.883787
H87	H	-3.498350	0.025888	-0.826901
C88	C	-3.388081	-0.071875	-0.939047
C89	C	-3.573892	-0.046411	-0.954986
H90	H	-3.353675	-0.083807	-0.990966
H91	H	-3.405825	-0.121337	-0.912915
H92	H	-3.278684	-0.027744	-0.902450
H93	H	-3.683290	-0.090545	-0.991573
H94	H	-3.556164	0.003043	-0.981126
