data_functionalizedCrystal
_audit_creation_method	'MofGen! by Chris Wilmer'
_symmetry_space_group_name_H-M	'P1'
_symmetry_Int_Tables_number	1
_symmetry_cell_setting	triclinic
loop_
_symmetry_equiv_pos_as_xyz
  x,y,z
_cell_length_a	9.065218
_cell_length_b	14.519709
_cell_length_c	13.596369
_cell_angle_alpha	89.993066
_cell_angle_beta	89.994623
_cell_angle_gamma	84.348015
loop_
_atom_site_label
_atom_site_type_symbol
_atom_site_fract_x
_atom_site_fract_y
_atom_site_fract_z
O1	O	1.957869	0.135228	-0.081796
O2	O	2.291202	0.468562	0.251537
O3	O	2.624535	0.801895	0.584870
O4	O	1.528376	0.146320	-0.081798
O5	O	1.861709	0.479653	0.251535
O6	O	2.195043	0.812987	0.584869
O7	O	1.754510	0.006619	-0.081788
O8	O	2.087843	0.339952	0.251545
O9	O	2.421177	0.673286	0.584878
O10	O	1.731735	0.274929	-0.081806
O11	O	2.065068	0.608263	0.251527
O12	O	2.398402	0.941596	0.584861
O13	O	1.754487	0.006611	0.081795
O14	O	2.087821	0.339945	0.415128
O15	O	2.421154	0.673278	0.748461
O16	O	1.528354	0.146312	0.081785
O17	O	1.861687	0.479646	0.415118
O18	O	2.195020	0.812979	0.748452
O19	O	1.957846	0.135221	0.081786
O20	O	2.291180	0.468554	0.415120
O21	O	2.624513	0.801887	0.748453
Zn22	Zn	1.743096	0.140765	0.107758
Zn23	Zn	2.076430	0.474099	0.441091
Zn24	Zn	2.409763	0.807432	0.774425
Zn25	Zn	1.743126	0.140775	-0.107770
Zn26	Zn	2.076459	0.474109	0.225564
Zn27	Zn	2.409793	0.807442	0.558897
O28	O	1.731713	0.274922	0.081777
O29	O	2.065046	0.608255	0.415110
O30	O	2.398379	0.941588	0.748443
C31	C	1.473398	0.145250	-0.000007
C32	C	1.806732	0.478584	0.333327
C33	C	2.140065	0.811917	0.666660
C34	C	1.309615	0.142063	-0.000007
C35	C	1.642948	0.475396	0.333326
C36	C	1.976282	0.808729	0.666660
C37	C	1.753437	-0.027752	0.000003
C38	C	2.086770	0.305581	0.333337
C39	C	2.420104	0.638914	0.666670
C40	C	1.750257	-0.130157	0.000004
C41	C	2.083590	0.203176	0.333337
C42	C	2.416923	0.536510	0.666670
C43	C	1.738547	-0.505138	-0.000022
C44	C	2.071881	-0.171805	0.333312
C45	C	2.405214	0.161528	0.666645
C46	C	1.741799	-0.400807	-0.000014
C47	C	2.075132	-0.067473	0.333319
C48	C	2.408466	0.265860	0.666652
C49	C	1.744402	-0.317651	-0.000008
C50	C	2.077735	0.015682	0.333325
C51	C	2.411068	0.349016	0.666659
C52	C	1.747654	-0.213313	-0.000003
C53	C	2.080987	0.120021	0.333331
C54	C	2.414321	0.453354	0.666664
C55	C	2.012824	0.136290	-0.000007
C56	C	2.346157	0.469624	0.333326
C57	C	2.679491	0.802957	0.666660
C58	C	2.176607	0.139478	-0.000013
C59	C	2.509941	0.472811	0.333320
C60	C	2.843274	0.806144	0.666653
C61	C	1.732785	0.309293	-0.000017
C62	C	2.066119	0.642626	0.333316
C63	C	2.399452	0.975960	0.666650
C64	C	1.735966	0.411697	-0.000024
C65	C	2.069299	0.745031	0.333309
C66	C	2.402632	1.078364	0.666643
N67	N	1.743087	0.140758	0.254850
N68	N	2.076420	0.474091	0.588183
N69	N	2.409753	0.807425	0.921516
N70	N	1.743147	0.140775	-0.254861
N71	N	2.076481	0.474109	0.078472
N72	N	2.409814	0.807442	0.411805
C73	C	1.743124	0.140776	0.656141
C74	C	2.076457	0.474110	0.989474
C75	C	2.409791	0.807443	1.322807
C76	C	1.743109	0.140774	0.544489
C77	C	2.076443	0.474108	0.877823
C78	C	2.409776	0.807441	1.211156
C79	C	1.743106	0.140768	0.455499
C80	C	2.076439	0.474101	0.788832
C81	C	2.409773	0.807434	1.122165
C82	C	1.743090	0.140764	0.343840
C83	C	2.076423	0.474098	0.677174
C84	C	2.409757	0.807431	1.010507
