data_functionalizedCrystal
_audit_creation_method	'MofGen! by Chris Wilmer'
_symmetry_space_group_name_H-M	'P1'
_symmetry_Int_Tables_number	1
_symmetry_cell_setting	triclinic
loop_
_symmetry_equiv_pos_as_xyz
  x,y,z
_cell_length_a	17.699077
_cell_length_b	17.699083
_cell_length_c	16.176319
_cell_angle_alpha	89.992304
_cell_angle_beta	89.993140
_cell_angle_gamma	83.281795
loop_
_atom_site_label
_atom_site_type_symbol
_atom_site_fract_x
_atom_site_fract_y
_atom_site_fract_z
O1	O	1.004082	0.095692	-0.068737
O2	O	1.504082	0.595692	0.431263
O3	O	0.783703	0.108149	-0.068741
O4	O	1.283703	0.608149	0.431259
O5	O	0.900118	-0.008269	-0.068732
O6	O	1.400118	0.491731	0.431268
O7	O	0.887666	0.212110	-0.068747
O8	O	1.387666	0.712110	0.431253
O9	O	0.900102	-0.008277	0.068761
O10	O	1.400102	0.491723	0.568761
O11	O	0.783687	0.108141	0.068752
O12	O	1.283687	0.608141	0.568752
O13	O	1.004066	0.095684	0.068756
O14	O	1.504066	0.595684	0.568756
Cu15	Cu	0.893875	0.101912	0.081308
Cu16	Cu	1.393875	0.601912	0.581308
Cu17	Cu	0.893894	0.101921	-0.081294
Cu18	Cu	1.393894	0.601921	0.418706
O19	O	0.887650	0.212102	0.068746
O20	O	1.387650	0.712102	0.568746
C21	C	0.755498	0.107700	0.000005
C22	C	1.255498	0.607700	0.500005
C23	C	0.671479	0.106363	0.000003
C24	C	1.171479	0.606363	0.500003
C25	C	0.632003	0.105729	0.074952
C26	C	1.132003	0.605729	0.574952
C27	C	0.553061	0.104461	0.074953
C28	C	1.053061	0.604461	0.574953
C29	C	0.513595	0.103832	0.000004
C30	C	1.013595	0.603832	0.500004
C31	C	0.553077	0.104464	-0.074950
C32	C	1.053077	0.604464	0.425050
C33	C	0.632019	0.105726	-0.074950
C34	C	1.132019	0.605726	0.425050
C35	C	0.234714	0.099370	-0.074951
C36	C	0.734714	0.599370	0.425049
C37	C	0.155766	0.098110	-0.074945
C38	C	0.655766	0.598110	0.425055
C39	C	0.155755	0.098105	0.074952
C40	C	0.655755	0.598105	0.574952
C41	C	0.234697	0.099367	0.074951
C42	C	0.734697	0.599367	0.574951
C43	C	0.274173	0.099995	-0.000002
C44	C	0.774173	0.599995	0.499998
C45	C	0.359772	0.101369	-0.000002
C46	C	0.859772	0.601369	0.499998
C47	C	0.427997	0.102464	0.000004
C48	C	0.927997	0.602464	0.500004
C49	C	0.899664	-0.036470	0.000015
C50	C	1.399664	0.463530	0.500015
C51	C	0.898326	-0.120488	0.000015
C52	C	1.398326	0.379512	0.500015
C53	C	0.966659	-0.169110	0.000018
C54	C	1.466659	0.330890	0.500018
C55	C	0.965397	-0.248054	0.000010
C56	C	1.465397	0.251946	0.500010
C57	C	0.895800	-0.278373	0.000006
C58	C	1.395800	0.221627	0.500006
C59	C	0.827461	-0.229744	0.000001
C60	C	1.327461	0.270256	0.500001
C61	C	0.828724	-0.150803	0.000003
C62	C	1.328724	0.349197	0.500003
C63	C	0.822366	-0.548107	-0.000005
C64	C	1.322366	-0.048107	0.499995
C65	C	0.821108	-0.627055	-0.000004
C66	C	1.321108	-0.127055	0.499996
C67	C	0.959039	-0.645358	0.000002
C68	C	1.459039	-0.145358	0.500002
C69	C	0.960302	-0.566417	0.000003
C70	C	1.460302	-0.066417	0.500003
C71	C	0.891963	-0.517795	-0.000006
C72	C	1.391963	-0.017795	0.499994
C73	C	0.893333	-0.432196	0.000000
C74	C	1.393333	0.067804	0.500000
C75	C	0.894430	-0.363971	0.000006
C76	C	1.394430	0.136029	0.500006
C77	C	1.032271	0.096133	0.000008
C78	C	1.532271	0.596133	0.500008
C79	C	1.116289	0.097470	0.000004
C80	C	1.616289	0.597470	0.500004
C81	C	0.888104	0.240303	-0.000002
C82	C	1.388104	0.740303	0.499998
C83	C	0.889443	0.324321	-0.000008
C84	C	1.389443	0.824321	0.499992
N85	N	0.893867	0.101906	0.195673
N86	N	1.393867	0.601906	0.695673
N87	N	0.893907	0.101921	-0.195659
N88	N	1.393907	0.601921	0.304341
C89	C	0.945431	0.050377	0.238942
C90	C	1.445431	0.550377	0.738942
C91	C	0.945435	0.050376	0.325489
C92	C	1.445435	0.550376	0.825489
C93	C	0.893878	0.101908	0.368766
C94	C	1.393878	0.601908	0.868766
C95	C	0.842308	0.153439	0.325491
C96	C	1.342308	0.653439	0.825491
C97	C	0.842301	0.153436	0.238946
C98	C	1.342301	0.653436	0.738946
C99	C	0.842334	0.153454	0.674520
C100	C	1.342334	0.653454	1.174520
C101	C	0.842346	0.153455	0.761071
C102	C	1.342346	0.653455	1.261071
C103	C	0.945468	0.050393	0.761063
C104	C	1.445468	0.550393	1.261063
C105	C	0.945461	0.050390	0.674517
C106	C	1.445461	0.550390	1.174517
C107	C	0.893889	0.101918	0.631250
C108	C	1.393889	0.601918	1.131250
C109	C	0.893884	0.101918	0.537406
C110	C	1.393884	0.601918	1.037406
C111	C	0.893885	0.101913	0.462608
C112	C	1.393885	0.601913	0.962608
H113	H	0.664159	0.106244	-0.135981
H114	H	1.164159	0.606244	0.364019
C115	C	0.684885	-0.601037	-0.000034
C116	C	1.184885	-0.101037	0.499966
C117	C	0.744602	-0.660383	-0.000019
C118	C	1.244602	-0.160383	0.499981
H119	H	0.637657	-0.621614	-0.000048
H120	H	1.137657	-0.121614	0.499952
H121	H	0.688231	-0.570633	0.047911
H122	H	1.188231	-0.070633	0.547911
H123	H	0.688262	-0.570621	-0.047983
H124	H	1.188262	-0.070621	0.452017
H125	H	0.741228	-0.690795	0.047934
H126	H	1.241228	-0.190795	0.547934
H127	H	0.741254	-0.690800	-0.047969
H128	H	1.241254	-0.190800	0.452031
C129	C	0.797605	0.284522	0.352113
C130	C	1.297605	0.784522	0.852113
C131	C	0.785629	0.210084	0.373055
C132	C	1.285629	0.710084	0.873055
H133	H	0.762609	0.319493	0.381472
H134	H	1.262609	0.819493	0.881472
H135	H	0.848093	0.292678	0.366290
H136	H	1.348093	0.792678	0.866290
H137	H	0.790223	0.291882	0.294375
H138	H	1.290223	0.791882	0.794375
H139	H	0.793017	0.202723	0.430792
H140	H	1.293017	0.702723	0.930792
H141	H	0.735129	0.201926	0.358883
H142	H	1.235129	0.701926	0.858883
H143	H	0.664130	0.106247	0.135984
H144	H	1.164130	0.606247	0.635984
C145	C	0.455628	0.168059	0.161905
C146	C	0.955628	0.668059	0.661905
C147	C	0.509661	0.103756	0.157333
C148	C	1.009661	0.603756	0.657333
H149	H	0.428832	0.167616	0.212763
H150	H	0.928832	0.667616	0.712763
H151	H	0.480564	0.212667	0.158799
H152	H	0.980564	0.712667	0.658799
H153	H	0.420836	0.167495	0.117261
H154	H	0.920836	0.667495	0.617261
H155	H	0.544457	0.104323	0.201975
H156	H	1.044457	0.604323	0.701975
H157	H	0.484724	0.059137	0.160448
H158	H	0.984724	0.559137	0.660448
C159	C	0.709517	-0.238444	-0.070691
C160	C	1.209517	0.261556	0.429309
C161	C	0.750960	-0.263072	-0.000007
C162	C	1.250960	0.236928	0.499993
H163	H	0.662290	-0.259023	-0.070696
H164	H	1.162290	0.240977	0.429304
H165	H	0.700489	-0.184477	-0.070685
H166	H	1.200489	0.315523	0.429315
H167	H	0.737663	-0.255142	-0.118630
H168	H	1.237663	0.244858	0.381370
H169	H	0.722816	-0.246369	0.047932
H170	H	1.222816	0.253631	0.547932
H171	H	0.759985	-0.317050	-0.000006
H172	H	1.259985	0.182950	0.499994
H173	H	0.773080	-0.111214	0.000001
H174	H	1.273080	0.388786	0.500001
C175	C	0.140082	0.032675	0.202736
C176	C	0.640082	0.532675	0.702736
C177	C	0.112365	0.097405	0.157347
C178	C	0.612365	0.597405	0.657347
H179	H	0.113298	0.032249	0.253604
H180	H	0.613298	0.532249	0.753604
H181	H	0.132998	-0.011643	0.171948
H182	H	0.632998	0.488357	0.671948
H183	H	0.192745	0.033528	0.213451
H184	H	0.692745	0.533528	0.713451
H185	H	0.059703	0.096549	0.146626
H186	H	0.559703	0.596549	0.646626
H187	H	0.119442	0.141734	0.188142
H188	H	0.619442	0.641734	0.688142
H189	H	0.766721	-0.508528	-0.000013
H190	H	1.266721	-0.008528	0.499987
H191	H	0.123635	0.097597	-0.135981
H192	H	0.623635	0.597597	0.364019
C193	C	0.561022	0.104598	-0.223122
C194	C	1.061022	0.604598	0.276878
C195	C	0.509698	0.103776	-0.157336
C196	C	1.009698	0.603776	0.342664
H197	H	0.534242	0.104172	-0.273984
H198	H	1.034242	0.604172	0.226016
H199	H	0.585957	0.149204	-0.220004
H200	H	1.085957	0.649204	0.279996
H201	H	0.597667	0.060966	-0.219997
H202	H	1.097667	0.560966	0.280003
H203	H	0.473056	0.147412	-0.160457
H204	H	0.973056	0.647412	0.339543
H205	H	0.484750	0.059165	-0.160455
H206	H	0.984750	0.559165	0.339545
H207	H	1.023333	-0.144431	0.000026
H208	H	1.523333	0.355569	0.500026
H209	H	1.014683	-0.684956	0.000005
H210	H	1.514683	-0.184956	0.500005
C211	C	1.023481	-0.453532	0.000009
C212	C	1.523481	0.046468	0.500009
C213	C	1.036804	-0.533090	0.000006
C214	C	1.536804	-0.033090	0.500006
H215	H	1.070712	-0.432960	0.000013
H216	H	1.570712	0.067040	0.500013
H217	H	0.995360	-0.436834	-0.047934
H218	H	1.495360	0.063166	0.452066
H219	H	0.995346	-0.436847	0.047960
H220	H	1.495346	0.063153	0.547960
H221	H	1.064934	-0.549775	-0.047948
H222	H	1.564934	-0.049775	0.452052
H223	H	1.064937	-0.549794	0.047955
H224	H	1.564937	-0.049794	0.547955
C225	C	1.101865	-0.258217	0.000037
C226	C	1.601865	0.241783	0.500037
C227	C	1.040512	-0.301500	0.000022
C228	C	1.540512	0.198500	0.500022
H229	H	1.148239	-0.291214	0.000050
H230	H	1.648239	0.208786	0.500050
H231	H	1.099500	-0.227042	-0.047907
H232	H	1.599500	0.272958	0.452093
H233	H	1.099470	-0.227049	0.047987
H234	H	1.599470	0.272951	0.547987
H235	H	1.042903	-0.332664	-0.047931
H236	H	1.542903	0.167336	0.452069
H237	H	1.042878	-0.332687	0.047971
H238	H	1.542878	0.167313	0.547971
C239	C	1.047361	-0.051503	0.247635
C240	C	1.547361	0.448497	0.747635
C241	C	1.002105	-0.006272	0.191376
C242	C	1.502105	0.493728	0.691376
H243	H	1.082345	-0.086480	0.218270
H244	H	1.582345	0.413520	0.718270
H245	H	1.074527	-0.020031	0.281376
H246	H	1.574527	0.479969	0.781376
H247	H	1.015902	-0.078683	0.281406
H248	H	1.515902	0.421317	0.781406
H249	H	1.033563	0.020913	0.157609
H250	H	1.533563	0.520913	0.657609
H251	H	0.974936	-0.037748	0.157621
H252	H	1.474936	0.462252	0.657621
H253	H	0.800359	0.195420	0.796306
H254	H	1.300359	0.695420	1.296306
C255	C	0.962079	-0.052658	0.422819
C256	C	1.462079	0.447342	0.922819
C257	C	1.002122	-0.006266	0.373043
C258	C	1.502122	0.493734	0.873043
H259	H	0.997078	-0.087631	0.452171
H260	H	1.497078	0.412369	0.952171
H261	H	0.931382	-0.021973	0.460980
H262	H	1.431382	0.478027	0.960980
H263	H	0.930628	-0.079842	0.389060
H264	H	1.430628	0.420158	0.889060
H265	H	1.033569	0.020923	0.406804
H266	H	1.533569	0.520923	0.906804
H267	H	1.032831	-0.036955	0.334878
H268	H	1.532831	0.463045	0.834878
C269	C	0.226783	0.099250	-0.223120
C270	C	0.726783	0.599250	0.276880
C271	C	0.278098	0.100064	-0.157339
C272	C	0.778098	0.600064	0.342661
H273	H	0.253570	0.099682	-0.273984
H274	H	0.753570	0.599682	0.226016
H275	H	0.201847	0.054643	-0.219995
H276	H	0.701847	0.554643	0.280005
H277	H	0.190137	0.142882	-0.219998
H278	H	0.690137	0.642882	0.280002
H279	H	0.314740	0.056429	-0.160457
H280	H	0.814740	0.556429	0.339543
H281	H	0.303046	0.144675	-0.160466
H282	H	0.803046	0.644675	0.339534
C283	C	1.047391	-0.051491	0.683204
C284	C	1.547391	0.448509	1.183204
C285	C	1.002132	-0.006258	0.626948
C286	C	1.502132	0.493742	1.126948
H287	H	1.082372	-0.086468	0.653835
H288	H	1.582372	0.413532	1.153835
H289	H	1.074560	-0.020021	0.716943
H290	H	1.574560	0.479979	1.216943
H291	H	1.015933	-0.078672	0.716976
H292	H	1.515933	0.421328	1.216976
H293	H	1.033589	0.020926	0.593180
H294	H	1.533589	0.520926	1.093180
H295	H	0.974961	-0.037733	0.593194
H296	H	1.474961	0.462267	1.093194
H297	H	0.987459	0.008434	0.796300
H298	H	1.487459	0.508434	1.296300
H299	H	0.800343	0.195411	0.639299
H300	H	1.300343	0.695411	1.139299
H301	H	0.800311	0.195395	0.203718
H302	H	1.300311	0.695395	0.703718
H303	H	0.266826	0.099883	0.135982
H304	H	0.766826	0.599883	0.635982
