data_functionalizedCrystal
_audit_creation_method	'MofGen! by Chris Wilmer'
_symmetry_space_group_name_H-M	'P1'
_symmetry_Int_Tables_number	1
_symmetry_cell_setting	triclinic
loop_
_symmetry_equiv_pos_as_xyz
  x,y,z
_cell_length_a	19.288864
_cell_length_b	10.654550
_cell_length_c	17.766277
_cell_angle_alpha	89.994852
_cell_angle_beta	89.976791
_cell_angle_gamma	83.810575
loop_
_atom_site_label
_atom_site_type_symbol
_atom_site_fract_x
_atom_site_fract_y
_atom_site_fract_z
O1	O	0.922379	0.156657	-0.062834
O2	O	0.720257	0.177789	-0.062782
O3	O	0.825965	-0.015616	-0.062807
O4	O	0.816670	0.350062	-0.062810
O5	O	0.825946	-0.015625	0.062382
O6	O	0.720238	0.177780	0.062406
O7	O	0.922360	0.156647	0.062355
Cu8	Cu	0.821297	0.167212	0.073811
Cu9	Cu	0.821319	0.167224	-0.074239
O10	O	0.816652	0.350052	0.062379
C11	C	0.694366	0.177105	-0.000181
C12	C	0.617249	0.175063	-0.000162
C13	C	0.573296	0.288545	-0.000175
C14	C	0.500836	0.286627	-0.000183
C15	C	0.472333	0.171222	-0.000193
C16	C	0.516296	0.057725	-0.000176
C17	C	0.588754	0.059646	-0.000160
C18	C	0.363484	0.080503	-0.044077
C19	C	0.291027	0.078587	-0.044098
C20	C	0.248849	0.165292	-0.000239
C21	C	0.279135	0.253934	0.043630
C22	C	0.351593	0.255855	0.043646
C23	C	0.393766	0.169126	-0.000210
C24	C	0.126326	0.276702	-0.000260
C25	C	0.053865	0.274779	-0.000263
C26	C	0.069327	0.045875	-0.000264
C27	C	0.141786	0.047800	-0.000253
C28	C	0.170281	0.163217	-0.000254
C29	C	0.825273	-0.062404	-0.000213
C30	C	0.823231	-0.201803	-0.000215
C31	C	0.885471	-0.282621	-0.000229
C32	C	0.883548	-0.413601	-0.000234
C33	C	0.757141	-0.382932	-0.000208
C34	C	0.759065	-0.251955	-0.000208
C35	C	0.949637	-0.232470	-0.000235
C36	C	1.011882	-0.313290	-0.000248
C37	C	1.009959	-0.444269	-0.000253
C38	C	0.945792	-0.494429	-0.000245
C39	C	0.948250	0.157332	-0.000248
C40	C	1.025367	0.159373	-0.000273
C41	C	0.817344	0.396840	-0.000216
C42	C	0.819385	0.536240	-0.000219
N43	N	0.821287	0.167203	0.177941
N44	N	0.821335	0.167223	-0.178369
C45	C	0.868110	0.081606	0.217318
C46	C	0.868114	0.081600	0.296119
C47	C	0.821301	0.167213	0.335542
C48	C	0.774469	0.252818	0.296156
C49	C	0.774462	0.252813	0.217356
C50	C	0.812752	0.281634	0.460380
C51	C	0.812764	0.281641	0.539179
C52	C	0.821320	0.167229	0.578588
C53	C	0.829879	0.052804	0.539189
C54	C	0.829871	0.052799	0.460389
C55	C	0.821304	0.167228	0.420988
C56	C	0.868150	0.081617	0.703410
C57	C	0.868149	0.081610	0.782214
C58	C	0.774508	0.252839	0.782249
C59	C	0.774506	0.252835	0.703447
C60	C	0.821330	0.167226	0.664033
H61	H	0.493084	-0.036239	-0.000195
O62	O	0.913614	-0.001683	0.179148
C63	C	1.006521	-0.171462	0.187433
C64	C	0.955016	-0.077224	0.230755
H65	H	1.040018	-0.232544	0.229138
H66	H	0.976268	-0.234153	0.150586
H67	H	1.041442	-0.117383	0.150494
H68	H	0.920083	-0.131200	0.267735
H69	H	0.985313	-0.014534	0.267555
O70	O	0.698561	-0.173565	-0.000295
C71	C	0.591146	-0.107202	-0.065156
C72	C	0.659633	-0.196072	-0.065138
H73	H	0.559660	-0.125349	-0.117584
H74	H	0.559540	-0.125402	-0.012794
H75	H	0.603564	-0.004988	-0.065125
H76	H	0.647278	-0.298318	-0.065196
H77	H	0.691220	-0.177763	-0.117495
H78	H	0.704899	-0.423784	-0.000200
H79	H	0.177574	-0.044609	-0.000247
O80	O	0.458230	0.396983	-0.000235
C81	C	0.450536	0.624225	-0.000211
C82	C	0.498864	0.499342	-0.000166
H83	H	0.483369	0.707014	-0.000140
H84	H	0.416273	0.629120	-0.052625
H85	H	0.416178	0.628984	0.052157
H86	H	0.533265	0.494499	-0.052499
H87	H	0.533080	0.494499	0.052282
H88	H	0.906244	0.011893	0.328185
O89	O	0.380904	0.341994	0.086332
C90	C	0.361470	0.515751	0.173318
C91	C	0.328186	0.418252	0.125022
H92	H	0.318862	0.577448	0.204599
H93	H	0.398864	0.464597	0.215693
H94	H	0.391329	0.577446	0.135367
H95	H	0.298291	0.356529	0.162912
H96	H	0.290830	0.469485	0.082640
H97	H	0.596492	0.382526	-0.000177
O98	O	0.913738	-0.001339	0.665109
C99	C	1.008498	-0.028379	0.576141
C100	C	0.956895	0.065682	0.619463
H101	H	1.043394	0.025770	0.539214
H102	H	1.042009	-0.089498	0.617819
H103	H	0.978255	-0.091058	0.539276
H104	H	0.987082	0.128443	0.656329
H105	H	0.923385	0.126712	0.577745
O106	O	1.074227	-0.264628	-0.000394
C107	C	1.182881	-0.250811	-0.065254
C108	C	1.112292	-0.305977	-0.065190
H109	H	1.213683	-0.284242	-0.117628
H110	H	1.173607	-0.143311	-0.065297
H111	H	1.213634	-0.284114	-0.012848
H112	H	1.081503	-0.272771	-0.117587
H113	H	1.121616	-0.413472	-0.065108
O114	O	0.838155	-0.058457	0.422233
C115	C	0.855164	-0.285431	0.430548
C116	C	0.845777	-0.159525	0.473853
H117	H	0.861343	-0.367176	0.472264
H118	H	0.807489	-0.293666	0.393705
H119	H	0.903662	-0.288649	0.393606
H120	H	0.797304	-0.156220	0.510835
H121	H	0.893487	-0.151341	0.510648
H122	H	0.244795	0.324537	0.079345
O123	O	0.804541	0.392705	0.422016
C124	C	0.854164	0.528534	0.333039
C125	C	0.863544	0.402704	0.376427
H126	H	0.901866	0.536672	0.296182
H127	H	0.805673	0.531840	0.296121
H128	H	0.848023	0.610296	0.374742
H129	H	0.869715	0.320872	0.334778
H130	H	0.912023	0.399509	0.413356
H131	H	0.836845	-0.040361	0.571274
H132	H	0.266373	0.006415	-0.079822
H133	H	0.906276	0.011899	0.814274
O134	O	0.728937	0.335881	0.820500
C135	C	0.608525	0.410074	0.844631
C136	C	0.660061	0.315941	0.801275
H137	H	0.552828	0.394003	0.829092
H138	H	0.616509	0.395377	0.907726
H139	H	0.618092	0.510604	0.829133
H140	H	0.650525	0.215374	0.816710
H141	H	0.652065	0.330748	0.738191
H142	H	0.018079	0.367194	-0.000269
H143	H	0.736380	0.322542	0.671385
O144	O	0.804413	0.392898	0.577332
C145	C	0.787470	0.619873	0.569004
C146	C	0.796904	0.493964	0.525706
H147	H	0.781411	0.701619	0.527283
H148	H	0.738938	0.623240	0.605905
H149	H	0.835133	0.627970	0.605887
H150	H	0.749280	0.485784	0.488782
H151	H	0.845464	0.490651	0.488852
H152	H	0.951210	-0.125822	-0.000229
O153	O	0.728967	0.335812	0.334532
C154	C	0.634226	0.362980	0.423519
C155	C	0.685732	0.268855	0.380120
H156	H	0.599247	0.308882	0.460376
H157	H	0.664478	0.425566	0.460439
H158	H	0.600788	0.424187	0.381823
H159	H	0.719183	0.207564	0.421762
H160	H	0.655438	0.206356	0.343189
O161	O	0.728953	0.336094	0.179219
C162	C	0.636047	0.505874	0.187570
C163	C	0.687557	0.411644	0.230855
H164	H	0.602555	0.566963	0.229299
H165	H	0.666296	0.568559	0.150679
H166	H	0.601122	0.451788	0.150677
H167	H	0.722495	0.465627	0.267789
H168	H	0.657265	0.348960	0.267698
O169	O	0.404348	-0.003774	-0.086759
C170	C	0.408497	-0.177920	-0.173758
C171	C	0.362138	-0.082538	-0.125470
H172	H	0.374390	-0.241644	-0.205056
H173	H	0.438905	-0.124965	-0.216118
H174	H	0.446527	-0.237824	-0.135799
H175	H	0.324067	-0.022609	-0.163369
H176	H	0.331778	-0.135571	-0.083104
H177	H	1.060642	-0.510069	-0.000271
H178	H	0.046120	-0.048091	-0.000320
O179	O	0.154047	0.388778	-0.000382
C180	C	0.226954	0.523768	-0.065191
C181	C	0.195595	0.396814	-0.065158
H182	H	0.260564	0.530295	-0.117548
H183	H	0.183118	0.604605	-0.065241
H184	H	0.260434	0.530356	-0.012769
H185	H	0.162123	0.390103	-0.117571
H186	H	0.239464	0.316038	-0.065069
H187	H	0.944232	-0.601083	-0.000257
H188	H	0.624542	-0.032767	-0.000150
