data_functionalizedCrystal
_audit_creation_method	'MofGen! by Chris Wilmer'
_symmetry_space_group_name_H-M	'P1'
_symmetry_Int_Tables_number	1
_symmetry_cell_setting	triclinic
loop_
_symmetry_equiv_pos_as_xyz
  x,y,z
_cell_length_a	16.109301
_cell_length_b	19.288865
_cell_length_c	17.766277
_cell_angle_alpha	90.011603
_cell_angle_beta	89.993359
_cell_angle_gamma	96.701136
loop_
_atom_site_label
_atom_site_type_symbol
_atom_site_fract_x
_atom_site_fract_y
_atom_site_fract_z
O1	O	1.102832	-0.089282	-0.062555
O2	O	0.860732	-0.100392	-0.062569
O3	O	0.988778	0.006277	-0.062547
O4	O	0.974787	-0.195951	-0.062577
O5	O	0.988755	0.006282	0.062642
O6	O	0.860710	-0.100387	0.062620
O7	O	1.102810	-0.089276	0.062633
Cu8	Cu	0.981758	-0.094831	0.074057
Cu9	Cu	0.981784	-0.094838	-0.073993
O10	O	0.974764	-0.195945	0.062611
C11	C	0.829748	-0.099940	0.000024
C12	C	0.737457	-0.098590	0.000020
C13	C	0.988316	0.032157	0.000050
C14	C	0.986965	0.109264	0.000056
N15	N	0.981745	-0.094826	0.178188
C16	C	0.514979	-0.158748	0.000020
C17	C	0.428263	-0.157475	0.000025
C18	C	0.448570	-0.030916	0.000041
C19	C	0.535284	-0.032190	0.000041
C20	C	0.568486	-0.096108	0.000027
C21	C	0.395056	-0.093561	0.000031
C22	C	0.301034	-0.092180	0.000037
C23	C	0.662513	-0.097489	0.000023
C24	C	1.133794	-0.089729	0.000039
C25	C	1.226085	-0.091078	0.000038
C26	C	0.975226	-0.221825	0.000013
C27	C	0.976577	-0.298932	0.000002
C28	C	1.062096	0.153781	0.000064
C29	C	1.060827	0.226231	0.000052
C30	C	0.984421	0.254161	0.000047
C31	C	0.909280	0.209634	0.000036
C32	C	0.910552	0.137185	0.000040
C33	C	0.924350	0.362593	0.043895
C34	C	0.923082	0.435041	0.043895
C35	C	0.980496	0.477616	0.000030
C36	C	1.039193	0.447735	-0.043825
C37	C	1.040465	0.375287	-0.043821
C38	C	0.983034	0.332718	0.000042
C39	C	1.054256	0.600692	0.000024
C40	C	1.052983	0.673143	0.000007
C41	C	0.901434	0.656544	-0.000002
C42	C	0.902709	0.584095	0.000008
C43	C	0.979122	0.556173	0.000024
N44	N	0.981803	-0.094837	-0.178123
C45	C	1.038462	-0.047616	0.217584
C46	C	1.038467	-0.047613	0.296386
C47	C	0.981763	-0.094832	0.335788
C48	C	0.925035	-0.142045	0.296382
C49	C	0.925026	-0.142042	0.217582
C50	C	0.970632	-0.158093	0.460616
C51	C	0.970647	-0.158096	0.539415
C52	C	0.981785	-0.094840	0.578834
C53	C	0.992926	-0.031577	0.539445
C54	C	0.992917	-0.031575	0.460645
C55	C	0.981765	-0.094840	0.421234
C56	C	1.038510	-0.047623	0.703677
C57	C	1.038509	-0.047619	0.782480
C58	C	0.925081	-0.142057	0.782475
C59	C	0.925078	-0.142055	0.703673
C60	C	0.981797	-0.094839	0.664279
H61	H	0.542008	-0.210794	0.000014
H62	H	0.384700	-0.208483	0.000020
Cl63	Cl	1.147443	0.729109	0.000012
H64	H	1.084691	-0.009174	0.671601
Cl65	Cl	0.406824	0.049434	0.000054
Cl66	Cl	1.109811	0.011740	0.832010
Cl67	Cl	1.006913	0.047952	0.411130
H68	H	0.578853	0.018823	0.000049
Cl69	Cl	1.158158	0.118683	0.000063
H70	H	1.122009	0.262483	0.000055
Cl71	Cl	0.852167	0.309078	0.099047
H72	H	0.847071	0.232379	0.000030
H73	H	1.088256	0.350962	-0.079530
Cl74	Cl	1.111375	0.501250	-0.098975
H75	H	1.116476	0.577957	0.000034
H76	H	0.878898	-0.180500	0.671594
Cl77	Cl	0.805381	0.691649	-0.000012
H78	H	0.875283	0.459363	0.079601
Cl79	Cl	0.816093	0.081218	0.000031
Cl80	Cl	0.853790	-0.201412	0.832003
H81	H	1.084654	-0.009168	0.328469
H82	H	0.841529	0.547848	0.000005
Cl83	Cl	1.109759	0.011743	0.168061
H84	H	1.001995	0.019932	0.571539
H85	H	0.961580	-0.209609	0.571480
H86	H	0.961548	-0.209607	0.428527
H87	H	0.878865	-0.180490	0.328467
Cl88	Cl	0.853721	-0.201397	0.168051
