data_functionalizedCrystal
_audit_creation_method	'MofGen! by Chris Wilmer'
_symmetry_space_group_name_H-M	'P1'
_symmetry_Int_Tables_number	1
_symmetry_cell_setting	triclinic
loop_
_symmetry_equiv_pos_as_xyz
  x,y,z
_cell_length_a	11.792241
_cell_length_b	10.489741
_cell_length_c	10.268362
_cell_angle_alpha	89.995004
_cell_angle_beta	89.999626
_cell_angle_gamma	84.366295
loop_
_atom_site_label
_atom_site_type_symbol
_atom_site_fract_x
_atom_site_fract_y
_atom_site_fract_z
O1	O	1.507380	0.174833	-0.108173
O2	O	1.757380	0.424833	0.141827
O3	O	2.007380	0.674833	0.391827
O4	O	2.257380	0.924833	0.641827
O5	O	1.177088	0.192851	-0.108203
O6	O	1.427088	0.442851	0.141797
O7	O	1.677088	0.692851	0.391797
O8	O	1.927088	0.942851	0.641797
O9	O	1.349750	-0.001782	-0.108180
O10	O	1.599750	0.248218	0.141820
O11	O	1.849750	0.498218	0.391820
O12	O	2.099750	0.748218	0.641820
O13	O	1.334719	0.369465	-0.108197
O14	O	1.584719	0.619465	0.141803
O15	O	1.834719	0.869465	0.391803
O16	O	2.084719	1.119465	0.641803
O17	O	1.349735	-0.001790	0.108421
O18	O	1.599735	0.248210	0.358421
O19	O	1.849735	0.498210	0.608421
O20	O	2.099735	0.748210	0.858421
O21	O	1.177073	0.192843	0.108397
O22	O	1.427073	0.442843	0.358397
O23	O	1.677073	0.692843	0.608397
O24	O	1.927073	0.942843	0.858397
O25	O	1.507365	0.174825	0.108428
O26	O	1.757365	0.424825	0.358428
O27	O	2.007365	0.674825	0.608428
O28	O	2.257365	0.924825	0.858428
Cu29	Cu	1.342218	0.183833	0.128190
Cu30	Cu	1.592218	0.433833	0.378190
Cu31	Cu	1.842218	0.683833	0.628190
Cu32	Cu	2.092218	0.933833	0.878190
Cu33	Cu	1.342236	0.183843	-0.127965
Cu34	Cu	1.592236	0.433843	0.122035
Cu35	Cu	1.842236	0.683843	0.372035
Cu36	Cu	2.092236	0.933843	0.622035
O37	O	1.334703	0.369457	0.108404
O38	O	1.584703	0.619457	0.358404
O39	O	1.834703	0.869457	0.608404
O40	O	2.084703	1.119457	0.858404
C41	C	1.134786	0.191715	0.000093
C42	C	1.384786	0.441715	0.250093
C43	C	1.634786	0.691715	0.500093
C44	C	1.884786	0.941715	0.750093
C45	C	1.008764	0.188327	0.000082
C46	C	1.258764	0.438327	0.250082
C47	C	1.508764	0.688327	0.500082
C48	C	1.758764	0.938327	0.750082
C49	C	0.778035	0.182098	0.000120
C50	C	1.028035	0.432098	0.250120
C51	C	1.278035	0.682098	0.500120
C52	C	1.528035	0.932098	0.750120
C53	C	0.906429	0.185559	0.000099
C54	C	1.156429	0.435559	0.250099
C55	C	1.406429	0.685559	0.500099
C56	C	1.656429	0.935559	0.750099
C57	C	1.348607	-0.049314	0.000120
C58	C	1.598607	0.200686	0.250120
C59	C	1.848607	0.450686	0.500120
C60	C	2.098607	0.700686	0.750120
C61	C	1.345210	-0.190931	0.000117
C62	C	1.595210	0.059069	0.250117
C63	C	1.845210	0.309069	0.500117
C64	C	2.095210	0.559069	0.750117
C65	C	1.235351	-0.258697	0.000098
C66	C	1.485351	-0.008697	0.250098
C67	C	1.735351	0.241303	0.500098
C68	C	1.985351	0.491303	0.750098
C69	C	1.287240	-0.351001	0.106898
C70	C	1.537240	-0.101001	0.356898
C71	C	1.787240	0.148999	0.606898
C72	C	2.037240	0.398999	0.856898
C73	C	1.287281	-0.350967	-0.106654
C74	C	1.537281	-0.100967	0.143346
C75	C	1.787281	0.149033	0.393346
C76	C	2.037281	0.399033	0.643346
C77	C	1.397145	-0.281370	0.107005
C78	C	1.647145	-0.031370	0.357005
C79	C	1.897145	0.218630	0.607005
C80	C	2.147145	0.468630	0.857005
C81	C	1.397171	-0.281327	-0.106642
C82	C	1.647171	-0.031327	0.143358
C83	C	1.897171	0.218673	0.393358
C84	C	2.147171	0.468673	0.643358
C85	C	1.449140	-0.373603	0.000184
C86	C	1.699140	-0.123603	0.250184
C87	C	1.949140	0.126397	0.500184
C88	C	2.199140	0.376397	0.750184
C89	C	1.549667	0.175960	0.000128
C90	C	1.799667	0.425960	0.250128
C91	C	2.049667	0.675960	0.500128
C92	C	2.299667	0.925960	0.750128
C93	C	1.675690	0.179348	0.000131
C94	C	1.925690	0.429348	0.250131
C95	C	2.175690	0.679348	0.500131
C96	C	2.425690	0.929348	0.750131
C97	C	1.335846	0.416989	0.000102
C98	C	1.585846	0.666989	0.250102
C99	C	1.835846	0.916989	0.500102
C100	C	2.085846	1.166989	0.750102
C101	C	1.339243	0.558607	0.000096
C102	C	1.589243	0.808607	0.250096
C103	C	1.839243	1.058607	0.500096
C104	C	2.089243	1.308607	0.750096
N105	N	1.342213	0.183825	0.308356
N106	N	1.592213	0.433825	0.558356
N107	N	1.842213	0.683825	0.808356
N108	N	2.092213	0.933825	1.058356
N109	N	1.342249	0.183840	-0.308131
N110	N	1.592249	0.433840	-0.058131
N111	N	1.842249	0.683840	0.191869
N112	N	2.092249	0.933840	0.441869
C113	C	1.342230	0.183840	0.574026
C114	C	1.592230	0.433840	0.824026
C115	C	1.842230	0.683840	1.074026
C116	C	2.092230	0.933840	1.324026
C117	C	1.342217	0.183836	0.426188
C118	C	1.592217	0.433836	0.676188
C119	C	1.842217	0.683836	0.926188
C120	C	2.092217	0.933836	1.176188
H121	H	1.145025	-0.208738	0.000197
H122	H	1.395025	0.041262	0.250197
H123	H	1.645025	0.291262	0.500197
H124	H	1.895025	0.541262	0.750197
F125	F	1.457846	-0.241287	0.225154
F126	F	1.707846	0.008713	0.475154
F127	F	1.957846	0.258713	0.725154
F128	F	2.207846	0.508713	0.975154
H129	H	1.240749	-0.381857	0.197181
H130	H	1.490749	-0.131857	0.447181
H131	H	1.740749	0.118143	0.697181
H132	H	1.990749	0.368143	0.947181
H133	H	1.539547	-0.423335	0.000252
H134	H	1.789547	-0.173335	0.250252
H135	H	2.039547	0.076665	0.500252
H136	H	2.289547	0.326665	0.750252
F137	F	1.457887	-0.240949	-0.224655
F138	F	1.707887	0.009051	0.025345
F139	F	1.957887	0.259051	0.275345
F140	F	2.207887	0.509051	0.525345
F141	F	1.226506	-0.391256	-0.224665
F142	F	1.476506	-0.141256	0.025335
F143	F	1.726506	0.108744	0.275335
F144	F	1.976506	0.358744	0.525335
