data_functionalizedCrystal
_audit_creation_method	'MofGen! by Chris Wilmer'
_symmetry_space_group_name_H-M	'P1'
_symmetry_Int_Tables_number	1
_symmetry_cell_setting	triclinic
loop_
_symmetry_equiv_pos_as_xyz
  x,y,z
_cell_length_a	10.654550
_cell_length_b	16.992695
_cell_length_c	9.730223
_cell_angle_alpha	89.995280
_cell_angle_beta	89.999957
_cell_angle_gamma	87.576577
loop_
_atom_site_label
_atom_site_type_symbol
_atom_site_fract_x
_atom_site_fract_y
_atom_site_fract_z
O1	O	1.677361	0.110190	-0.114188
O2	O	1.312790	0.120688	-0.114214
O3	O	1.493614	0.001288	-0.114190
O4	O	1.496537	0.229590	-0.114212
O5	O	1.493601	0.001285	0.114390
O6	O	1.312777	0.120685	0.114366
O7	O	1.677349	0.110187	0.114391
Zn8	Zn	1.495061	0.115435	0.150671
Zn9	Zn	1.495078	0.115439	-0.150493
O10	O	1.496525	0.229586	0.114368
C11	C	1.265919	0.119916	0.000073
C12	C	1.126277	0.117609	0.000064
C13	C	1.052866	0.187910	0.000061
C14	C	0.921658	0.185738	0.000085
C15	C	0.937282	0.042959	0.000109
C16	C	1.068488	0.045132	0.000095
C17	C	1.489848	-0.027946	0.000099
C18	C	1.478628	-0.115051	0.000098
C19	C	1.586879	-0.164703	0.000107
C20	C	1.576330	-0.246547	0.000093
C21	C	1.457529	-0.278738	0.000080
C22	C	1.349270	-0.229080	0.000067
C23	C	1.359820	-0.147237	0.000071
C24	C	1.413802	-0.522573	0.000058
C25	C	1.403260	-0.604422	0.000059
C26	C	1.630321	-0.621884	0.000082
C27	C	1.640861	-0.540039	0.000094
C28	C	1.532602	-0.490388	0.000074
N29	N	1.446743	-0.362395	0.000071
N30	N	1.543389	-0.406733	0.000074
C31	C	1.724220	0.110959	0.000102
C32	C	1.863862	0.113265	0.000102
C33	C	1.500291	0.258821	0.000075
C34	C	1.511510	0.345926	0.000068
N35	N	1.495059	0.115432	0.356207
N36	N	1.495089	0.115437	-0.356030
C37	C	1.575159	0.062584	0.428144
C38	C	1.575171	0.062584	0.572026
C39	C	1.414980	0.168287	0.572024
C40	C	1.414962	0.168282	0.428144
H41	H	1.128262	-0.012119	0.000101
H42	H	1.640376	0.019549	0.369576
H43	H	0.890215	-0.016050	0.000142
O44	O	1.653102	0.011221	0.641692
C45	C	1.811936	-0.093652	0.626500
C46	C	1.723764	-0.035509	0.547435
H47	H	1.869071	-0.131459	0.550329
H48	H	1.878189	-0.059453	0.693810
H49	H	1.753749	-0.133126	0.693913
H50	H	1.781850	0.003980	0.479948
H51	H	1.657507	-0.069756	0.480213
H52	H	1.683620	-0.138501	0.000126
H53	H	1.306513	-0.630628	0.000070
O54	O	1.337004	0.219546	0.641848
C55	C	1.123142	0.264274	0.685839
C56	C	1.211305	0.206165	0.606705
H57	H	1.021497	0.253487	0.657432
H58	H	1.136807	0.255200	0.801047
H59	H	1.145870	0.327200	0.657548
H60	H	1.188631	0.143216	0.634880
H61	H	1.197623	0.215308	0.491516
O62	O	1.681613	-0.294666	0.000172
C63	C	1.907939	-0.303349	0.000135
C64	C	1.788804	-0.248765	0.000077
H65	H	1.994633	-0.266260	0.000029
H66	H	1.908751	-0.342093	0.095816
H67	H	1.908621	-0.342113	-0.095505
H68	H	1.788042	-0.209952	0.095652
H69	H	1.788038	-0.210074	-0.095667
O70	O	0.850534	0.254102	0.000017
C71	C	0.848892	0.395948	0.000066
C72	C	0.929588	0.318583	0.000109
H73	H	0.912773	0.448101	0.000170
H74	H	0.787090	0.398554	-0.095607
H75	H	0.787056	0.398460	0.095714
H76	H	0.991497	0.316019	-0.095473
H77	H	0.991307	0.316009	0.095846
O78	O	1.337285	0.219733	0.358320
C79	C	1.277274	0.355718	0.314326
C80	C	1.365341	0.297544	0.393461
H81	H	1.299908	0.418640	0.342730
H82	H	1.291022	0.346703	0.199118
H83	H	1.175623	0.344869	0.342617
H84	H	1.467026	0.308358	0.365285
H85	H	1.351485	0.306573	0.508650
H86	H	1.099913	0.246926	0.000046
H87	H	1.737601	-0.513836	0.000105
H88	H	1.718458	-0.662318	0.000096
H89	H	1.252539	-0.255296	0.000048
O90	O	1.308516	-0.474462	0.000118
C91	C	1.082189	-0.465787	0.000039
C92	C	1.201328	-0.520367	-0.000003
H93	H	0.995499	-0.502879	-0.000089
H94	H	1.081360	-0.427055	0.095724
H95	H	1.081518	-0.427011	-0.095597
H96	H	1.202079	-0.559192	0.095567
H97	H	1.202112	-0.559046	-0.095752
O98	O	1.254538	-0.099115	0.000124
C99	C	1.028212	-0.090428	0.000007
C100	C	1.147344	-0.145015	-0.000009
H101	H	0.941516	-0.127515	-0.000130
H102	H	1.027375	-0.051692	0.095687
H103	H	1.027559	-0.051656	-0.095634
H104	H	1.148076	-0.183835	0.095566
H105	H	1.148135	-0.183697	-0.095753
