data_functionalizedCrystal
_audit_creation_method	'MofGen! by Chris Wilmer'
_symmetry_space_group_name_H-M	'P1'
_symmetry_Int_Tables_number	1
_symmetry_cell_setting	triclinic
loop_
_symmetry_equiv_pos_as_xyz
  x,y,z
_cell_length_a	8.597187
_cell_length_b	15.944564
_cell_length_c	7.681481
_cell_angle_alpha	95.744026
_cell_angle_beta	88.166928
_cell_angle_gamma	95.576266
loop_
_atom_site_label
_atom_site_type_symbol
_atom_site_fract_x
_atom_site_fract_y
_atom_site_fract_z
O1	O	2.036357	-0.149731	-0.455374
O2	O	1.586334	-0.155696	-0.387105
O3	O	1.823626	-0.030640	-0.423086
O4	O	1.799065	-0.274787	-0.419393
O5	O	1.852833	-0.015212	-0.134657
O6	O	1.615541	-0.140268	-0.098676
O7	O	2.065563	-0.134303	-0.166945
Zn8	Zn	1.845189	-0.134836	-0.087016
Zn9	Zn	1.806708	-0.155163	-0.467034
O10	O	1.828271	-0.259359	-0.130964
C11	C	1.543350	-0.146481	-0.234154
C12	C	1.371757	-0.142001	-0.208122
C13	C	1.837206	0.008385	-0.278715
C14	C	1.834140	0.101681	-0.278248
C15	C	1.679717	0.319071	-0.254844
C16	C	1.765812	0.386517	-0.123507
C17	C	1.828590	0.272496	-0.277419
C18	C	1.737052	0.371289	-0.407881
C19	C	1.823218	0.437495	-0.276623
C20	C	1.914738	0.338720	-0.145970
C21	C	1.885944	0.323479	-0.430469
C22	C	1.972150	0.390908	-0.299113
C23	C	1.831681	0.177444	-0.277875
C24	C	1.820140	0.532546	-0.276156
C25	C	2.108547	-0.143517	-0.319900
C26	C	2.280139	-0.147999	-0.345943
C27	C	1.814670	0.701616	-0.275333
C28	C	1.817673	0.608316	-0.275796
N29	N	1.871463	-0.120962	0.172334
N30	N	1.780447	-0.169030	-0.726386
H31	H	1.715020	0.414091	0.006275
N32	N	1.350107	-0.159336	-0.528629
H33	H	1.403794	-0.213281	-0.543803
H34	H	1.428753	-0.109578	-0.547469
H35	H	1.556167	0.287801	-0.235958
N36	N	1.994555	-0.055977	0.253275
H37	H	2.052511	-0.025373	0.158239
H38	H	2.070552	-0.085239	0.318208
N39	N	2.014227	0.319410	0.000819
H40	H	2.015642	0.256090	-0.000360
H41	H	1.969228	0.343006	0.116486
H42	H	1.687538	-0.218092	0.212505
H43	H	2.095831	0.422039	-0.317794
N44	N	1.637496	0.390744	-0.554485
H45	H	1.703451	0.425780	-0.636848
H46	H	1.548800	0.423370	-0.504051
N47	N	1.301870	-0.130309	-0.025465
H48	H	1.185125	-0.128493	-0.032151
H49	H	1.349687	-0.075450	0.036510
H50	H	1.936681	0.295884	-0.560249
