data_functionalizedCrystal
_audit_creation_method	'MofGen! by Chris Wilmer'
_symmetry_space_group_name_H-M	'P1'
_symmetry_Int_Tables_number	1
_symmetry_cell_setting	triclinic
loop_
_symmetry_equiv_pos_as_xyz
  x,y,z
_cell_length_a	12.837932
_cell_length_b	12.837943
_cell_length_c	11.892095
_cell_angle_alpha	85.689237
_cell_angle_beta	85.694680
_cell_angle_gamma	85.170678
loop_
_atom_site_label
_atom_site_type_symbol
_atom_site_fract_x
_atom_site_fract_y
_atom_site_fract_z
O1	O	-0.266111	1.408368	-0.093974
O2	O	-0.252668	1.105235	-0.093980
O3	O	-0.107822	1.250079	-0.093978
O4	O	-0.410957	1.263524	-0.093976
O5	O	-0.119879	1.238000	0.094030
O6	O	-0.264724	1.093156	0.094027
O7	O	-0.278168	1.396289	0.094034
Zn8	Zn	-0.273360	1.242805	0.123881
Zn9	Zn	-0.257475	1.258719	-0.123827
O10	O	-0.423013	1.251445	0.094032
C11	C	-0.254154	1.060126	0.000023
C12	C	-0.240610	0.943711	0.000020
C13	C	-0.074781	1.239498	0.000023
C14	C	0.041634	1.225953	0.000015
C15	C	-0.276681	1.441398	0.000028
C16	C	-0.290225	1.557813	0.000024
C17	C	-0.456054	1.262026	0.000028
C18	C	-0.572469	1.275571	0.000029
C19	C	0.202660	1.112740	0.000014
C20	C	0.093278	1.125461	0.000013
C21	C	0.099382	1.313732	0.000016
C22	C	0.208764	1.301012	0.000017
C23	C	0.260400	1.200512	0.000018
C24	C	0.369784	1.187793	0.000028
C25	C	0.375886	1.376063	0.000023
C26	C	0.266503	1.388784	0.000021
N27	N	-0.284201	1.231951	0.292935
C28	C	-0.127396	1.782686	0.000034
C29	C	-0.140117	1.892068	0.000030
C30	C	-0.328388	1.885963	0.000018
C31	C	-0.315667	1.776580	0.000023
C32	C	-0.215168	1.724946	0.000029
C33	C	-0.202447	1.615561	0.000025
C34	C	-0.390717	1.609458	0.000022
C35	C	-0.403438	1.718840	0.000018
N36	N	-0.246627	1.269580	-0.292881
C37	C	-0.171130	1.345098	0.529584
C38	C	-0.178716	1.337520	0.647926
C39	C	-0.306953	1.209212	0.647962
C40	C	-0.299367	1.216790	0.529620
C41	C	-0.231455	1.284737	0.470436
C42	C	-0.223875	1.292320	0.352092
C43	C	-0.352105	1.164006	0.352130
C44	C	-0.359691	1.156428	0.470472
H45	H	0.411823	1.105960	0.000039
H46	H	0.422909	1.447534	0.000028
H47	H	-0.485262	1.760896	0.000017
O48	O	-0.476094	1.553530	-0.000030
C49	C	-0.567521	1.622563	-0.000008
H50	H	-0.546708	1.703716	-0.035598
H51	H	-0.626179	1.592332	-0.054596
H52	H	-0.603608	1.627463	0.090187
O53	O	0.037067	1.040269	0.000162
C54	C	-0.032615	1.035721	0.097546
H55	H	-0.048435	1.117271	0.130011
H56	H	-0.109419	1.006232	0.075644
H57	H	0.003661	0.979984	0.165727
H58	H	-0.168580	1.347648	0.303904
H59	H	0.244701	1.030909	0.000036
H60	H	-0.115841	1.400431	0.481395
H61	H	0.057317	1.395549	0.000086
O62	O	-0.372897	1.143297	0.705640
C63	C	-0.366627	1.149531	0.822773
H64	H	-0.336800	1.227861	0.838912
H65	H	-0.447628	1.142834	0.867765
H66	H	-0.310387	1.082942	0.856362
O67	O	-0.425518	1.090365	0.528096
C68	C	-0.367428	1.015840	0.596538
H69	H	-0.290784	1.048303	0.614251
H70	H	-0.414810	0.998270	0.679764
H71	H	-0.349716	0.940687	0.550947
H72	H	0.224447	1.470607	0.000025
O73	O	-0.054811	1.948125	-0.000171
C74	C	0.011825	1.929482	-0.097523
H75	H	-0.035389	1.901994	-0.165581
H76	H	0.048257	2.004898	-0.130210
H77	H	0.076491	1.866480	-0.075503
H78	H	-0.401229	1.114859	0.303958
H79	H	-0.129593	1.386671	0.696082
H80	H	-0.120615	1.573522	0.000026
O81	O	-0.029839	1.732396	0.000184
C82	C	-0.023081	1.663075	0.097571
H83	H	-0.104987	1.641954	0.130038
H84	H	0.027108	1.588855	0.075672
H85	H	0.014101	1.702360	0.165750
H86	H	-0.410211	1.928023	0.000024
