data_functionalizedCrystal
_audit_creation_method	'MofGen! by Chris Wilmer'
_symmetry_space_group_name_H-M	'P1'
_symmetry_Int_Tables_number	1
_symmetry_cell_setting	triclinic
loop_
_symmetry_equiv_pos_as_xyz
  x,y,z
_cell_length_a	10.723024
_cell_length_b	10.540539
_cell_length_c	9.198806
_cell_angle_alpha	89.998955
_cell_angle_beta	89.996352
_cell_angle_gamma	84.496680
loop_
_atom_site_label
_atom_site_type_symbol
_atom_site_fract_x
_atom_site_fract_y
_atom_site_fract_z
O1	O	1.657276	0.178046	-0.120876
O2	O	1.294132	0.195088	-0.120880
O3	O	1.483989	0.001856	-0.120876
O4	O	1.467419	0.371278	-0.120880
O5	O	1.483974	0.001856	0.120909
O6	O	1.294117	0.195088	0.120905
O7	O	1.657261	0.178045	0.120909
Cu8	Cu	1.475688	0.186567	0.142984
Cu9	Cu	1.475706	0.186567	-0.142955
O10	O	1.467404	0.371277	0.120905
C11	C	1.247624	0.193848	0.000012
C12	C	1.109068	0.190137	0.000010
C13	C	1.034139	0.298260	0.000008
C14	C	0.890934	0.294427	0.000006
C15	C	1.482739	-0.045446	0.000014
C16	C	1.479021	-0.186392	0.000006
C17	C	1.336563	-0.369746	-0.000538
C18	C	1.340332	-0.223130	0.000006
C19	C	1.545756	-0.248085	0.138078
C20	C	1.541023	-0.394627	0.138194
C21	C	1.543861	-0.395146	-0.136760
C22	C	1.545138	-0.248164	-0.138586
C23	C	1.703769	0.179286	0.000014
C24	C	1.842325	0.182997	0.000007
C25	C	1.468654	0.418580	0.000012
C26	C	1.472372	0.559526	0.000011
N27	N	1.475684	0.186565	0.344098
N28	N	1.475719	0.186558	-0.344069
C29	C	1.555399	0.105075	0.416297
C30	C	1.555419	0.105071	0.583709
H31	H	0.906704	0.090430	-0.000001
H32	H	1.407446	0.256325	0.406225
H33	H	1.640766	-0.442646	0.144459
N34	N	1.270783	-0.166661	-0.131103
H35	H	1.329643	-0.120551	-0.193242
H36	H	1.237407	-0.237077	-0.189649
N37	N	1.270292	-0.167776	0.131338
H38	H	1.272450	-0.072194	0.132237
H39	H	1.180466	-0.188891	0.127014
H40	H	1.498980	-0.426675	-0.241410
N41	N	0.805656	0.417042	0.000064
H42	H	0.857777	0.491930	0.000081
H43	H	0.751026	0.420589	-0.089554
N44	N	1.484326	-0.191648	0.274184
H45	H	1.527923	-0.231958	0.362438
H46	H	1.490719	-0.096682	0.275624
H47	H	1.491690	-0.422801	0.241405
H48	H	1.067199	0.094732	-0.000026
N49	N	1.680681	-0.218595	0.144864
H50	H	1.699889	-0.164825	0.058299
H51	H	1.694992	-0.170490	0.237390
N52	N	1.645756	0.012627	0.334020
H53	H	1.632921	0.025721	0.226089
H54	H	1.734512	0.027808	0.360509
H55	H	1.623671	0.035308	0.645797
N56	N	1.480536	-0.193911	-0.273884
H57	H	1.484916	-0.098651	-0.276643
H58	H	1.523503	-0.234085	-0.362592
N59	N	1.676559	-0.457748	-0.137993
H60	H	1.691107	-0.509906	-0.229591
H61	H	1.737025	-0.390003	-0.134713
N62	N	1.385305	0.278987	0.573723
H63	H	1.433698	0.335437	0.510559
H64	H	1.329538	0.229993	0.510667
N65	N	1.263987	-0.407589	-0.131684
H66	H	1.318432	-0.470951	-0.192017
H67	H	1.186916	-0.447581	-0.098615
N68	N	1.264273	-0.409699	0.129884
H69	H	1.187536	-0.449938	0.096179
H70	H	1.319205	-0.473375	0.189265
N71	N	1.679083	-0.216168	-0.149634
H72	H	1.690796	-0.168762	-0.243315
H73	H	1.698805	-0.160974	-0.064507
N74	N	1.089583	0.424643	0.000017
H75	H	1.184025	0.409466	0.000019
H76	H	1.060849	0.474509	-0.089618
