data_functionalizedCrystal
_audit_creation_method	'MofGen! by Chris Wilmer'
_symmetry_space_group_name_H-M	'P1'
_symmetry_Int_Tables_number	1
_symmetry_cell_setting	triclinic
loop_
_symmetry_equiv_pos_as_xyz
  x,y,z
_cell_length_a	10.489741
_cell_length_b	10.489716
_cell_length_c	17.766277
_cell_angle_alpha	89.997726
_cell_angle_beta	89.993348
_cell_angle_gamma	84.534155
loop_
_atom_site_label
_atom_site_type_symbol
_atom_site_fract_x
_atom_site_fract_y
_atom_site_fract_z
O1	O	1.694047	0.179972	-0.062540
O2	O	1.322849	0.196865	-0.062551
O3	O	1.516911	0.002819	-0.062548
O4	O	1.499985	0.374018	-0.062543
O5	O	1.516876	0.002808	0.062640
O6	O	1.322815	0.196855	0.062637
O7	O	1.694012	0.179962	0.062648
Cu8	Cu	1.508410	0.188407	0.074073
Cu9	Cu	1.508451	0.188419	-0.073976
O10	O	1.499951	0.374008	0.062645
C11	C	1.275301	0.195584	0.000041
C12	C	1.133672	0.191767	0.000037
C13	C	1.065542	0.068301	0.000042
C14	C	0.973427	0.126630	-0.061680
C15	C	0.973427	0.126649	0.061746
C16	C	1.043422	0.250147	-0.061736
C17	C	1.043431	0.250149	0.061745
C18	C	0.951344	0.308568	0.000008
C19	C	1.515622	-0.044719	0.000044
C20	C	1.511817	-0.186350	0.000037
C21	C	1.630822	-0.284024	0.000047
C22	C	1.567954	-0.361379	-0.061677
C23	C	1.567892	-0.361353	0.061749
C24	C	1.448999	-0.261840	-0.061739
C25	C	1.448955	-0.261809	0.061743
C26	C	1.386000	-0.339115	0.000003
C27	C	1.741561	0.181243	0.000054
C28	C	1.883190	0.185060	0.000053
C29	C	1.501240	0.421545	0.000052
C30	C	1.505044	0.563176	0.000054
N31	N	1.508391	0.188398	0.178204
N32	N	1.508481	0.188419	-0.178107
C33	C	1.594350	0.102517	0.217592
C34	C	1.594357	0.102511	0.296394
C35	C	1.508418	0.188408	0.335804
C36	C	1.422443	0.274296	0.296407
C37	C	1.422429	0.274290	0.217606
C38	C	1.492761	0.304430	0.460644
C39	C	1.492784	0.304437	0.539442
C40	C	1.508452	0.188424	0.578851
C41	C	1.524125	0.072400	0.539450
C42	C	1.524112	0.072394	0.460650
C43	C	1.508422	0.188423	0.421250
C44	C	1.594424	0.102530	0.703685
C45	C	1.594422	0.102522	0.782488
C46	C	1.422514	0.274318	0.782499
C47	C	1.422509	0.274314	0.703698
C48	C	1.508471	0.188422	0.664295
H49	H	1.115241	-0.033196	-0.000036
H50	H	1.398748	-0.218295	0.113926
H51	H	1.734335	-0.259347	-0.000012
H52	H	1.398804	-0.218532	-0.113980
F53	F	0.932916	0.058357	-0.129889
F54	F	0.932926	0.058335	0.129952
H55	H	1.074260	0.302351	-0.113976
F56	F	1.685832	0.011099	0.175659
F57	F	1.330976	0.365710	0.338350
F58	F	1.331043	0.365728	0.824439
F59	F	0.886727	0.441370	-0.000032
F60	F	1.083990	0.318371	0.129957
F61	F	1.330937	0.365701	0.175685
F62	F	1.633633	-0.418228	-0.129882
F63	F	1.250600	-0.371052	-0.000042
F64	F	1.633566	-0.418178	0.129955
F65	F	1.540810	-0.051079	0.581385
H66	H	1.664357	0.032574	0.328470
H67	H	1.536870	-0.022076	0.428574
H68	H	1.664415	0.032587	0.671602
H69	H	1.664416	0.032581	0.814559
F70	F	1.331026	0.365726	0.661774
F71	F	1.476112	0.427919	0.581368
F72	F	1.476177	0.427918	0.418710
