data_functionalizedCrystal
_audit_creation_method	'MofGen! by Chris Wilmer'
_symmetry_space_group_name_H-M	'P1'
_symmetry_Int_Tables_number	1
_symmetry_cell_setting	triclinic
loop_
_symmetry_equiv_pos_as_xyz
  x,y,z
_cell_length_a	12.759401
_cell_length_b	16.625545
_cell_length_c	12.759393
_cell_angle_alpha	89.967043
_cell_angle_beta	90.020938
_cell_angle_gamma	89.974438
loop_
_atom_site_label
_atom_site_type_symbol
_atom_site_fract_x
_atom_site_fract_y
_atom_site_fract_z
Zn1	Zn	1.606198	0.320930	0.594002
Zn2	Zn	2.106198	0.820930	1.094002
Zn3	Zn	1.606061	0.455784	0.418315
Zn4	Zn	2.106061	0.955784	0.918315
Zn5	Zn	1.430497	0.320973	0.418337
Zn6	Zn	1.930497	0.820973	0.918337
Zn7	Zn	1.430460	0.455728	0.593952
Zn8	Zn	1.930460	0.955728	1.093952
O9	O	1.518304	0.388354	0.506152
O10	O	2.018304	0.888354	1.006152
O11	O	1.753201	0.338824	0.570708
O12	O	2.253201	0.838824	1.070708
O13	O	1.582730	0.437943	0.271297
O14	O	2.082730	0.937943	0.771297
O15	O	1.453877	0.208135	0.441670
O16	O	1.953877	0.708135	0.941670
O17	O	1.753100	0.437901	0.441632
O18	O	2.253100	0.937901	0.941632
O19	O	1.582964	0.208103	0.570730
O20	O	2.082964	0.708103	1.070730
O21	O	1.453744	0.338897	0.271313
O22	O	1.953744	0.838897	0.771313
O23	O	1.283471	0.338843	0.441621
O24	O	1.783471	0.838843	0.941621
O25	O	1.453814	0.437805	0.740980
O26	O	1.953814	0.937805	1.240980
O27	O	1.283444	0.437847	0.570645
O28	O	1.783444	0.937847	1.070645
O29	O	1.582928	0.338770	0.741017
O30	O	2.082928	0.838770	1.241017
O31	O	1.582694	0.568609	0.441583
O32	O	2.082694	1.068609	0.941583
O33	O	1.453681	0.568568	0.570623
O34	O	1.953681	1.068568	1.070623
C35	C	1.245337	0.388344	0.506131
C36	C	1.745337	0.888344	1.006131
C37	C	1.128560	0.388359	0.506147
C38	C	1.628560	0.888359	1.006147
C39	C	1.073711	0.439989	0.573223
C40	C	1.573711	0.939989	1.073223
C41	C	0.963987	0.439992	0.573244
C42	C	1.463987	0.939992	1.073244
C43	C	0.963970	0.336733	0.439103
C44	C	1.463970	0.836733	0.939103
C45	C	1.073692	0.336726	0.439088
C46	C	1.573692	0.836726	0.939088
C47	C	1.518197	0.597844	0.506118
C48	C	2.018197	1.097844	1.006118
C49	C	1.518247	0.687466	0.506139
C50	C	2.018247	1.187466	1.006139
C51	C	1.518419	1.015641	0.506264
C52	C	2.018419	1.515641	1.006264
C53	C	1.518368	0.924333	0.506232
C54	C	2.018368	1.424333	1.006232
C55	C	1.518332	0.851556	0.506201
C56	C	2.018332	1.351556	1.006201
C57	C	1.518283	0.760242	0.506170
C58	C	2.018283	1.260242	1.006170
C59	C	1.792337	0.388364	0.506173
C60	C	2.292337	0.888364	1.006173
C61	C	1.909114	0.388369	0.506182
C62	C	2.409114	0.888369	1.006182
C63	C	1.518383	0.388276	0.780185
C64	C	2.018383	0.888276	1.280185
C65	C	1.518416	0.388243	0.896962
C66	C	2.018416	0.888243	1.396962
C67	C	1.518431	1.178045	0.506221
C68	C	2.018431	1.678045	1.006221
C69	C	1.518462	1.088423	0.506282
C70	C	2.018462	1.588423	1.006282
C71	C	1.518286	0.388372	0.233184
C72	C	2.018286	0.888372	0.733184
C73	C	1.518456	0.388178	0.116408
C74	C	2.018456	0.888178	0.616408
C75	C	1.585651	0.336667	0.951845
C76	C	2.085651	0.836667	1.451845
C77	C	1.585669	0.336632	1.061569
C78	C	2.085669	0.836632	1.561569
C79	C	1.451214	0.439757	1.061517
C80	C	1.951214	0.939757	1.561517
C81	C	1.451192	0.439787	0.951795
C82	C	1.951192	0.939787	1.451795
H83	H	0.919283	0.294697	0.384504
H84	H	1.419283	0.794697	0.884504
N85	N	1.654293	0.284011	0.895816
N86	N	2.154293	0.784011	1.395816
N87	N	1.654264	0.284041	0.797851
N88	N	2.154264	0.784041	1.297851
H89	H	1.702741	0.246850	0.758282
H90	H	2.202741	0.746850	1.258282
N91	N	1.382553	0.492413	1.117520
N92	N	1.882553	0.992413	1.617520
N93	N	1.389451	0.566819	1.105244
N94	N	1.889451	1.066819	1.605244
H95	H	1.340952	0.604009	1.144790
H96	H	1.840952	1.104009	1.644790
N97	N	0.907964	0.492748	0.641741
N98	N	1.407964	0.992748	1.141741
N99	N	0.846699	0.544098	0.604660
N100	N	1.346699	1.044098	1.104660
H101	H	0.807133	0.581360	0.653038
H102	H	1.307133	1.081360	1.153038
H103	H	1.118382	0.482029	0.627830
H104	H	1.618382	0.982029	1.127830
N105	N	1.129710	0.283974	0.370568
N106	N	1.629710	0.783974	0.870568
N107	N	1.080711	0.237881	0.310696
N108	N	1.580711	0.737881	0.810696
H109	H	1.120273	0.200623	0.262308
H110	H	1.620273	0.700623	0.762308
H111	H	1.640416	0.294633	1.106250
H112	H	2.140416	0.794633	1.606250
N113	N	1.382495	0.492473	0.895743
N114	N	1.882495	0.992473	1.395743
N115	N	1.322483	0.538492	0.944711
N116	N	1.822483	1.038492	1.444711
H117	H	1.273964	0.575698	0.905124
H118	H	1.773964	1.075698	1.405124
