data_functionalizedCrystal
_audit_creation_method	'MofGen! by Chris Wilmer'
_symmetry_space_group_name_H-M	'P1'
_symmetry_Int_Tables_number	1
_symmetry_cell_setting	triclinic
loop_
_symmetry_equiv_pos_as_xyz
  x,y,z
_cell_length_a	23.532361
_cell_length_b	23.532407
_cell_length_c	22.610064
_cell_angle_alpha	89.999397
_cell_angle_beta	89.996103
_cell_angle_gamma	82.839173
loop_
_atom_site_label
_atom_site_type_symbol
_atom_site_fract_x
_atom_site_fract_y
_atom_site_fract_z
O1	O	0.755281	0.069001	-0.049131
O2	O	0.589414	0.079032	-0.049146
O3	O	0.677349	-0.008916	-0.049127
O4	O	0.667345	0.156949	-0.049150
O5	O	0.677333	-0.008903	0.049242
O6	O	0.589398	0.079045	0.049223
O7	O	0.755265	0.069014	0.049238
Zn8	Zn	0.672329	0.074031	0.064849
Zn9	Zn	0.672350	0.074014	-0.064757
O10	O	0.667330	0.156962	0.049219
C11	C	0.568189	0.078787	0.000037
C12	C	0.504971	0.078032	0.000031
C13	C	0.677086	-0.030126	0.000059
C14	C	0.676320	-0.093343	0.000063
C15	C	0.231736	0.074721	-0.053586
C16	C	0.291135	0.075436	-0.053587
O17	O	0.321868	0.075780	-0.099189
N18	N	0.320832	0.075804	0.000034
C19	C	0.291128	0.075452	0.053660
O20	O	0.321842	0.075830	0.099269
C21	C	0.231730	0.074733	0.053661
C22	C	0.202035	0.074370	0.000036
C23	C	0.202041	0.074358	-0.107206
C24	C	0.142645	0.073644	-0.107204
C25	C	0.112944	0.073294	-0.053582
C26	C	0.142639	0.073657	0.000038
C27	C	0.202026	0.074376	0.107287
C28	C	0.142624	0.073656	0.107283
C29	C	0.112929	0.073294	0.053658
C30	C	0.053542	0.072592	0.053662
N31	N	0.023845	0.072224	0.000041
C32	C	0.053546	0.072575	-0.053581
C33	C	0.415868	0.076961	0.053654
C34	C	0.475264	0.077684	0.053654
C35	C	0.475268	0.077667	-0.053594
C36	C	0.415870	0.076948	-0.053593
C37	C	0.386171	0.076593	0.000033
C38	C	-0.071190	0.071076	-0.053573
C39	C	-0.130591	0.070365	-0.053567
C40	C	-0.130589	0.070378	0.053680
C41	C	-0.071193	0.071093	0.053674
C42	C	-0.041495	0.071440	0.000043
O43	O	0.022772	0.072245	0.099240
O44	O	0.022825	0.072189	-0.099182
C45	C	0.723555	-0.492454	0.000035
C46	C	0.722844	-0.551854	0.000030
O47	O	0.766630	-0.588606	0.000013
N48	N	0.670566	-0.574471	0.000026
C49	C	0.618997	-0.537685	0.000020
O50	O	0.574465	-0.562377	0.000016
C51	C	0.619709	-0.478286	0.000021
C52	C	0.671990	-0.455672	0.000031
C53	C	0.775832	-0.469839	0.000045
C54	C	0.776543	-0.410443	0.000050
C55	C	0.724977	-0.373662	0.000046
C56	C	0.672701	-0.396276	0.000037
C57	C	0.568140	-0.441501	0.000011
C58	C	0.568857	-0.382099	0.000011
C59	C	0.621137	-0.359485	0.000021
C60	C	0.621847	-0.300099	0.000038
N61	N	0.674124	-0.277481	0.000043
C62	C	0.725690	-0.314263	0.000047
C63	C	0.617505	-0.662427	0.000019
C64	C	0.616793	-0.721825	0.000023
C65	C	0.720640	-0.735990	0.000032
C66	C	0.721352	-0.676591	0.000032
C67	C	0.669783	-0.639810	0.000023
C68	C	0.727179	-0.189526	0.000059
C69	C	0.727886	-0.130124	0.000067
C70	C	0.624039	-0.115965	0.000055
C71	C	0.623332	-0.175361	0.000050
C72	C	0.674907	-0.212141	0.000050
O73	O	0.578083	-0.263312	0.000054
O74	O	0.770214	-0.289562	0.000043
C75	C	0.776489	0.069258	0.000054
C76	C	0.839708	0.070014	0.000055
C77	C	0.667592	0.178171	0.000032
C78	C	0.668358	0.241388	0.000023
N79	N	0.672319	0.074042	0.153301
N80	N	0.672364	0.073998	-0.153209
C81	C	0.711289	0.035077	0.561951
C82	C	0.711292	0.035073	0.623871
O83	O	0.744401	0.001951	0.655897
N84	N	0.672349	0.074002	0.654838
C85	C	0.633397	0.112935	0.623883
O86	O	0.600273	0.146047	0.655909
C87	C	0.633392	0.112936	0.561964
C88	C	0.672341	0.074007	0.531000
C89	C	0.750235	-0.003849	0.530986
C90	C	0.750232	-0.003844	0.469071
C91	C	0.711284	0.035087	0.438120
C92	C	0.672339	0.074013	0.469084
C93	C	0.594438	0.151865	0.531009
C94	C	0.594435	0.151863	0.469086
C95	C	0.633385	0.112934	0.438122
C96	C	0.633388	0.112948	0.376217
N97	N	0.672331	0.074018	0.345250
C98	C	0.711279	0.035088	0.376201
C99	C	0.633410	0.112929	0.753916
C100	C	0.633418	0.112932	0.815834
C101	C	0.711312	0.035068	0.815818
C102	C	0.711307	0.035069	0.753899
C103	C	0.672353	0.074000	0.722949
C104	C	0.711272	0.035102	0.246173
C105	C	0.711267	0.035112	0.184252
C106	C	0.633371	0.112973	0.184274
C107	C	0.633377	0.112965	0.246190
C108	C	0.672330	0.074024	0.277138
O109	O	0.600295	0.146051	0.344152
O110	O	0.744393	0.001976	0.344167
H111	H	-0.154766	0.070071	-0.097237
H112	H	0.226194	0.074669	0.150954
H113	H	0.526862	-0.352154	0.000002
H114	H	0.742989	0.003392	0.271365
H115	H	0.817825	-0.499782	0.000046
H116	H	0.562713	0.183564	0.443890
H117	H	0.562721	0.183564	0.556212
Br118	Br	-0.030893	0.071594	0.126451
H119	H	0.391696	0.076653	-0.097259
Br120	Br	0.580524	0.165805	0.288211
H121	H	0.743022	0.003370	0.728691
Br122	Br	0.764170	-0.017766	0.857836
H123	H	0.601662	0.144671	0.159064
Br124	Br	0.792306	-0.645907	0.000047
H125	H	0.601708	0.144637	0.841041
Br126	Br	-0.030894	0.071547	-0.126360
H127	H	0.525567	-0.459902	-0.000001
H128	H	0.781946	-0.035544	0.443863
Br129	Br	0.790622	-0.785919	0.000035
Br130	Br	0.552379	-0.206053	0.000050
Br131	Br	0.580543	0.165772	0.711918
Br132	Br	0.545837	-0.752508	0.000023
Br133	Br	0.797174	-0.239433	0.000058
H134	H	0.819115	-0.392037	0.000056
Br135	Br	0.554061	-0.066036	0.000050
Br136	Br	0.102354	0.073148	-0.179985
H137	H	0.226217	0.074642	-0.150874
H138	H	0.575509	-0.632483	0.000016
H139	H	0.770461	-0.111716	0.000077
H140	H	0.499461	0.077952	-0.097256
H141	H	0.781951	-0.035554	0.556182
Br142	Br	0.764132	-0.017721	0.142232
Br143	Br	0.375567	0.076485	0.126439
H144	H	0.499436	0.077988	0.097321
H145	H	-0.154783	0.070095	0.097338
Br146	Br	0.102322	0.073168	0.180065
