data_functionalizedCrystal
_audit_creation_method	'MofGen! by Chris Wilmer'
_symmetry_space_group_name_H-M	'P1'
_symmetry_Int_Tables_number	1
_symmetry_cell_setting	triclinic
loop_
_symmetry_equiv_pos_as_xyz
  x,y,z
_cell_length_a	15.538117
_cell_length_b	14.519731
_cell_length_c	14.185197
_cell_angle_alpha	104.749384
_cell_angle_beta	108.246113
_cell_angle_gamma	65.481371
loop_
_atom_site_label
_atom_site_type_symbol
_atom_site_fract_x
_atom_site_fract_y
_atom_site_fract_z
O1	O	-1.230294	0.311609	0.083414
O2	O	-0.730294	0.811609	0.583414
O3	O	-0.956222	0.205193	0.083421
O4	O	-0.456222	0.705193	0.583421
O5	O	-1.100519	0.395075	0.083397
O6	O	-0.600519	0.895075	0.583397
O7	O	-1.085997	0.121726	0.083438
O8	O	-0.585997	0.621726	0.583438
O9	O	-1.138683	0.370506	-0.083441
O10	O	-0.638683	0.870506	0.416559
O11	O	-0.994386	0.180623	-0.083417
O12	O	-0.494386	0.680623	0.416583
O13	O	-1.268459	0.287039	-0.083425
O14	O	-0.768459	0.787039	0.416575
Cu15	Cu	-1.134907	0.231588	-0.098655
Cu16	Cu	-0.634907	0.731588	0.401345
Cu17	Cu	-1.089773	0.260644	0.098651
Cu18	Cu	-0.589773	0.760644	0.598651
O19	O	-1.124162	0.097157	-0.083401
O20	O	-0.624162	0.597157	0.416599
C21	C	-0.940228	0.181774	0.000003
C22	C	-0.440228	0.681774	0.500003
C23	C	-0.835713	0.148611	0.000005
C24	C	-0.335713	0.648611	0.500005
C25	C	-1.118922	0.416921	-0.000025
C26	C	-0.618922	0.916921	0.499975
C27	C	-1.116886	0.518615	-0.000034
C28	C	-0.616886	1.018615	0.499966
C29	C	-0.547351	0.478107	-0.000033
C30	C	-0.047351	0.978107	0.499967
C31	C	-0.449139	0.446921	-0.000028
C32	C	0.050861	0.946921	0.499972
C33	C	-0.426999	0.271501	-0.000003
C34	C	0.073001	0.771501	0.499997
C35	C	-0.525212	0.302671	-0.000012
C36	C	-0.025212	0.802671	0.499988
C37	C	-0.585380	0.405975	-0.000026
C38	C	-0.085380	0.905975	0.499974
C39	C	-0.563242	0.230540	-0.000005
C40	C	-0.063242	0.730540	0.499995
C41	C	-0.661445	0.261709	-0.000009
C42	C	-0.161445	0.761709	0.499991
C43	C	-0.721618	0.365009	-0.000020
C44	C	-0.221618	0.865009	0.499980
C45	C	-0.683583	0.437144	-0.000030
C46	C	-0.183583	0.937144	0.499970
C47	C	-0.503070	0.127237	0.000016
C48	C	-0.003070	0.627237	0.500016
C49	C	-0.541100	0.055106	0.000023
C50	C	-0.041100	0.555106	0.500023
C51	C	-0.639307	0.086273	0.000012
C52	C	-0.139307	0.586273	0.500012
C53	C	-0.699480	0.189573	0.000001
C54	C	-0.199480	0.689573	0.500001
C55	C	-0.677342	0.014138	0.000022
C56	C	-0.177342	0.514138	0.500022
C57	C	-0.775545	0.045306	0.000018
C58	C	-0.275545	0.545306	0.500018
C59	C	-0.797683	0.220742	-0.000002
C60	C	-0.297683	0.720742	0.499998
C61	C	-1.115232	0.601201	-0.000039
C62	C	-0.615232	1.101201	0.499961
C63	C	-1.113163	0.704814	-0.000040
C64	C	-0.613163	1.204814	0.499960
C65	C	-1.111521	0.787401	-0.000040
C66	C	-0.611521	1.287401	0.499960
C67	C	-1.109453	0.891020	-0.000043
C68	C	-0.609453	1.391020	0.499957
C69	C	-0.284453	0.310462	-0.000007
C70	C	0.215547	0.810462	0.499993
C71	C	-0.388971	0.343640	-0.000011
C72	C	0.111029	0.843640	0.499989
C73	C	-1.105763	1.075308	0.000003
C74	C	-0.605763	1.575308	0.500003
C75	C	-1.107811	0.973607	-0.000043
C76	C	-0.607811	1.473607	0.499957
N77	N	-1.166659	0.211154	-0.237429
N78	N	-0.666659	0.711154	0.262571
C79	C	-0.964800	0.341115	-0.605057
C80	C	-0.464800	0.841115	-0.105057
C81	C	-0.988839	0.325639	-0.710081
C82	C	-0.488839	0.825639	-0.210081
C83	C	-1.103210	0.252000	-0.710055
C84	C	-0.603210	0.752000	-0.210055
C85	C	-1.079183	0.267474	-0.605028
C86	C	-0.579183	0.767474	-0.105028
C87	C	-1.009978	0.312031	-0.552538
C88	C	-0.509978	0.812031	-0.052538
C89	C	-1.124361	0.238390	-0.552509
C90	C	-0.624361	0.738390	-0.052509
C91	C	-1.100333	0.253858	-0.447492
C92	C	-0.600333	0.753858	0.052508
C93	C	-1.031127	0.298411	-0.394994
C94	C	-0.531127	0.798411	0.105006
C95	C	-0.985949	0.327499	-0.447521
C96	C	-0.485949	0.827499	0.052479
C97	C	-1.193561	0.193827	-0.605002
C98	C	-0.693561	0.693827	-0.105002
C99	C	-1.238738	0.164743	-0.552483
C100	C	-0.738738	0.664743	-0.052483
C101	C	-1.214716	0.180218	-0.447464
C102	C	-0.714716	0.680218	0.052536
C103	C	-1.145510	0.224770	-0.394966
C104	C	-0.645510	0.724770	0.105034
C105	C	-1.259893	0.151129	-0.394937
C106	C	-0.759893	0.651129	0.105063
C107	C	-1.235865	0.166597	-0.289920
C108	C	-0.735865	0.666597	0.210080
C109	C	-1.121482	0.240238	-0.289948
C110	C	-0.621482	0.740238	0.210052
N111	N	-1.058028	0.281088	0.237426
N112	N	-0.558028	0.781088	0.737426
H113	H	-0.846677	0.304861	-0.000020
H114	H	-0.346677	0.804861	0.499980
Br115	Br	-0.459434	-0.085086	0.000052
Br116	Br	0.040566	0.414914	0.500052
Br117	Br	-1.226168	0.172828	-0.747527
Br118	Br	-0.726168	0.672828	-0.247527
H119	H	-0.596345	0.562226	-0.000050
H120	H	-0.096345	1.062226	0.499950
Br121	Br	-1.027595	0.300758	-0.218701
Br122	Br	-0.527595	0.800758	0.281299
Br123	Br	-0.595670	-0.126052	0.000064
Br124	Br	-0.095670	0.373948	0.500064
Br125	Br	-1.332650	0.104263	-0.623729
Br126	Br	-0.832650	0.604263	-0.123729
H127	H	-0.377997	0.187391	0.000013
H128	H	0.122003	0.687391	0.500013
Br129	Br	-0.892062	0.388019	-0.376273
Br130	Br	-0.392062	0.888019	0.123727
H131	H	-0.418180	0.505668	-0.000033
H132	H	0.081820	1.005668	0.499967
Br133	Br	-1.353795	0.090638	-0.466186
Br134	Br	-0.853795	0.590638	0.033814
Br135	Br	-0.854894	0.407315	-0.000015
Br136	Br	-0.354894	0.907315	0.499985
Br137	Br	-0.369792	0.084936	0.000025
Br138	Br	0.130208	0.584936	0.500025
H139	H	-0.732578	0.521264	-0.000047
H140	H	-0.232578	1.021264	0.499953
Br141	Br	-0.827161	-0.052585	0.000034
Br142	Br	-0.327161	0.447415	0.500034
Br143	Br	-0.870913	0.401634	-0.533810
Br144	Br	-0.370913	0.901634	-0.033810
Br145	Br	-0.927517	0.365112	-0.781355
Br146	Br	-0.427517	0.865112	-0.281355
H147	H	-1.011560	0.310998	-0.309482
H148	H	-0.511560	0.810998	0.190518
Br149	Br	-1.297189	0.127142	-0.218637
Br150	Br	-0.797189	0.627142	0.281363
H151	H	-1.159555	0.215718	-0.752807
H152	H	-0.659555	0.715718	-0.252807
