data_functionalizedCrystal
_audit_creation_method	'MofGen! by Chris Wilmer'
_symmetry_space_group_name_H-M	'P1'
_symmetry_Int_Tables_number	1
_symmetry_cell_setting	triclinic
loop_
_symmetry_equiv_pos_as_xyz
  x,y,z
_cell_length_a	18.050591
_cell_length_b	18.050589
_cell_length_c	12.759387
_cell_angle_alpha	90.029785
_cell_angle_beta	89.971092
_cell_angle_gamma	89.969296
loop_
_atom_site_label
_atom_site_type_symbol
_atom_site_fract_x
_atom_site_fract_y
_atom_site_fract_z
Zn1	Zn	1.135318	0.295699	-0.594248
Zn2	Zn	1.135197	0.419908	-0.418571
Zn3	Zn	1.011120	0.295728	-0.418559
Zn4	Zn	1.011071	0.419843	-0.594185
O5	O	1.073176	0.357795	-0.506391
O6	O	1.239226	0.312191	-0.570976
O7	O	1.118708	0.403474	-0.271548
O8	O	1.027666	0.191799	-0.441886
O9	O	1.239138	0.403447	-0.441907
O10	O	1.118913	0.191779	-0.570964
O11	O	1.027549	0.312240	-0.271539
O12	O	0.907189	0.312177	-0.441824
O13	O	1.027583	0.403336	-0.741214
O14	O	0.907153	0.403364	-0.570856
O15	O	1.118866	0.312128	-0.741261
O16	O	1.118661	0.523824	-0.441846
O17	O	1.027466	0.523777	-0.570868
C18	C	0.880224	0.357767	-0.506333
C19	C	0.797678	0.357773	-0.506333
C20	C	1.073065	0.550747	-0.506374
C21	C	1.073085	0.633293	-0.506402
C22	C	1.073232	0.357722	-0.780424
C23	C	1.073256	0.357691	-0.897201
C24	C	0.598226	0.308128	-0.436327
C25	C	0.548796	0.375868	-0.410480
C26	C	0.646548	0.357796	-0.506380
C27	C	0.548896	0.290079	-0.532225
C28	C	0.500563	0.357811	-0.506424
C29	C	0.598205	0.425571	-0.480483
C30	C	0.598310	0.339737	-0.602273
C31	C	0.548903	0.407523	-0.576462
C32	C	0.730646	0.357786	-0.506352
C33	C	0.416466	0.357829	-0.506452
C34	C	1.266882	0.357823	-0.506450
C35	C	1.349428	0.357835	-0.506475
C36	C	1.023519	0.832744	-0.576541
C37	C	1.005407	0.882191	-0.480669
C38	C	1.073141	0.784423	-0.506417
C39	C	1.091274	0.882058	-0.602301
C40	C	1.073194	0.930408	-0.506439
C41	C	1.054993	0.832782	-0.410494
C42	C	1.140891	0.832645	-0.532190
C43	C	1.122804	0.882069	-0.436252
C44	C	1.073109	0.700325	-0.506405
C45	C	1.073226	1.014505	-0.506440
C46	C	1.073280	1.164089	-0.506432
C47	C	1.073252	1.081543	-0.506452
C48	C	1.168316	0.262722	-0.897269
C49	C	1.215857	0.215227	-0.952164
C50	C	1.215875	0.215200	-1.061886
C51	C	1.168346	0.262672	-1.116715
C52	C	1.120805	0.310167	-1.061820
C53	C	1.120794	0.310191	-0.952096
C54	C	1.025743	0.405131	-1.061752
C55	C	1.025727	0.405163	-0.952030
C56	C	0.978214	0.452603	-1.116582
C57	C	0.930676	0.500103	-1.061687
C58	C	0.930660	0.500129	-0.951958
C59	C	0.978187	0.452658	-0.897136
C60	C	1.073163	0.357814	-0.233423
C61	C	1.073283	0.357635	-0.116647
H62	H	0.527048	0.391154	-0.329404
O63	O	1.109594	0.907757	-0.699074
C64	C	1.121711	0.847416	-0.767183
H65	H	1.136447	0.796150	-0.719383
H66	H	1.069279	0.836276	-0.814395
C67	C	1.167769	0.928772	-0.901084
C68	C	1.185874	0.865807	-0.842376
H69	H	1.207345	0.940116	-0.947471
H70	H	1.159603	0.969425	-0.855200
H71	H	1.124074	0.919480	-0.940418
H72	H	1.229562	0.875103	-0.803033
H73	H	1.194049	0.825155	-0.888255
H74	H	1.198147	0.810868	-0.554015
O75	O	0.624193	0.258083	-0.365660
C76	C	0.702296	0.258295	-0.367227
H77	H	0.722514	0.280431	-0.445856
H78	H	0.723873	0.295200	-0.301459
C79	C	0.706319	0.151581	-0.254995
C80	C	0.731151	0.178764	-0.351571
H81	H	0.724120	0.102524	-0.245332
H82	H	0.653700	0.151440	-0.253935
H83	H	0.724302	0.182343	-0.200199
H84	H	0.713161	0.148008	-0.406365
H85	H	0.783769	0.178899	-0.352639
O86	O	1.261948	0.168984	-1.115263
C87	C	1.219711	0.121009	-1.178748
H88	H	1.161220	0.116413	-1.145655
H89	H	1.217145	0.143956	-1.261894
C90	C	1.327893	0.049458	-1.221126
C91	C	1.256055	0.043809	-1.180476
H92	H	1.350313	0.001838	-1.222197
H93	H	1.356350	0.081781	-1.178358
H94	H	1.325744	0.068583	-1.290411
H95	H	1.258205	0.024693	-1.111188
H96	H	1.227599	0.011481	-1.223232
H97	H	0.978229	0.452575	-1.205923
O98	O	0.973342	0.807024	-0.647200
C99	C	0.937765	0.867348	-0.696112
H100	H	0.941610	0.918237	-0.643449
H101	H	0.965866	0.879469	-0.774278
C102	C	0.851030	0.785627	-0.779773
C103	C	0.855746	0.848127	-0.715087
H104	H	0.800437	0.773770	-0.791483
H105	H	0.874999	0.744985	-0.746823
H106	H	0.874451	0.795736	-0.844904
H107	H	0.832333	0.838015	-0.649953
H108	H	0.831770	0.888768	-0.748026
H109	H	0.948138	0.903970	-0.458890
O110	O	0.523346	0.457749	-0.647170
C111	C	0.583785	0.493211	-0.695960
H112	H	0.634578	0.489270	-0.643194
H113	H	0.596017	0.465088	-0.774102
C114	C	0.502280	0.580102	-0.779782
C115	C	0.564664	0.575267	-0.714970
H116	H	0.490485	0.630717	-0.791514
H117	H	0.461561	0.556209	-0.746915
H118	H	0.512482	0.556662	-0.844894
H119	H	0.554458	0.598699	-0.649856
H120	H	0.605381	0.599166	-0.747827
H121	H	0.620075	0.324430	-0.683324
H122	H	1.168358	0.262639	-1.206056
H123	H	1.168313	0.262746	-0.807928
O124	O	1.036618	0.806949	-0.313813
C125	C	1.036799	0.728843	-0.314973
H126	H	1.028502	0.708369	-0.398681
H127	H	1.092078	0.707661	-0.283845
C128	C	0.983725	0.724941	-0.142404
C129	C	0.973527	0.699794	-0.245214
H130	H	0.944698	0.707021	-0.099370
H131	H	0.983605	0.777562	-0.141620
H132	H	1.029792	0.707287	-0.116478
H133	H	0.927465	0.717455	-0.271142
H134	H	0.973638	0.647174	-0.246000
O135	O	0.884548	0.546315	-1.114830
C136	C	0.900731	0.620346	-1.088038
H137	H	0.929269	0.621916	-1.008385
H138	H	0.938902	0.645348	-1.149806
C139	C	0.793247	0.663388	-1.180761
C140	C	0.828292	0.665317	-1.082926
H141	H	0.748564	0.691131	-1.177611
H142	H	0.782345	0.613513	-1.198815
H143	H	0.825064	0.684222	-1.232224
H144	H	0.796479	0.644475	-1.031467
H145	H	0.839187	0.715190	-1.064862
H146	H	0.527197	0.232814	-0.554030
H147	H	1.164790	0.903591	-0.376891
H148	H	1.254553	0.176575	-0.907510
O149	O	0.884502	0.546198	-0.898474
C150	C	0.894691	0.536061	-0.789873
H151	H	0.919058	0.478759	-0.774906
H152	H	0.934198	0.580132	-0.758745
C153	C	0.789607	0.613241	-0.751889
C154	C	0.819529	0.542859	-0.733507
H155	H	0.743245	0.617437	-0.717118
H156	H	0.782744	0.620073	-0.825056
H157	H	0.822537	0.649958	-0.725949
H158	H	0.786604	0.506144	-0.759459
H159	H	0.826385	0.536021	-0.660343
O160	O	0.624055	0.493866	-0.454283
C161	C	0.702162	0.493030	-0.454560
H162	H	0.722626	0.433837	-0.443008
H163	H	0.723337	0.515148	-0.532699
C164	C	0.706098	0.614898	-0.379103
C165	C	0.731233	0.542198	-0.364906
H166	H	0.724031	0.645230	-0.323803
H167	H	0.653476	0.615463	-0.378919
H168	H	0.723746	0.633320	-0.444222
H169	H	0.713577	0.523775	-0.299795
H170	H	0.783852	0.541631	-0.365076
H171	H	0.978182	0.452678	-0.807794
