data_functionalizedCrystal
_audit_creation_method	'MofGen! by Chris Wilmer'
_symmetry_space_group_name_H-M	'P1'
_symmetry_Int_Tables_number	1
_symmetry_cell_setting	triclinic
loop_
_symmetry_equiv_pos_as_xyz
  x,y,z
_cell_length_a	23.532355
_cell_length_b	16.992695
_cell_length_c	16.053802
_cell_angle_alpha	87.258926
_cell_angle_beta	87.441319
_cell_angle_gamma	93.252139
loop_
_atom_site_label
_atom_site_type_symbol
_atom_site_fract_x
_atom_site_fract_y
_atom_site_fract_z
O1	O	0.762239	-0.091640	-0.069316
O2	O	1.262239	0.408360	0.430684
O3	O	0.597057	-0.105449	-0.069342
O4	O	1.097057	0.394551	0.430658
O5	O	0.678985	0.015593	-0.069323
O6	O	1.178985	0.515593	0.430677
O7	O	0.680310	-0.212681	-0.069336
O8	O	1.180310	0.287319	0.430664
O9	O	0.674475	0.008957	0.069535
O10	O	1.174475	0.508957	0.569535
O11	O	0.592546	-0.112084	0.069516
O12	O	1.092546	0.387916	0.569516
O13	O	0.757728	-0.098275	0.069542
O14	O	1.257728	0.401725	0.569542
Zn15	Zn	0.674421	-0.106233	0.091575
Zn16	Zn	1.174421	0.393767	0.591575
Zn17	Zn	0.680364	-0.097491	-0.091376
Zn18	Zn	1.180364	0.402509	0.408624
O19	O	0.675799	-0.219317	0.069522
O20	O	1.175799	0.280683	0.569522
C21	C	0.573568	-0.108421	0.000083
C22	C	1.073568	0.391579	0.500083
C23	C	0.510298	-0.107383	0.000073
C24	C	1.010298	0.392617	0.500073
C25	C	0.115501	-0.104480	0.075800
C26	C	0.615501	0.395520	0.575800
C27	C	0.056052	-0.103493	0.075803
C28	C	0.556052	0.396507	0.575803
O29	O	0.023216	-0.106032	0.140175
O30	O	0.523216	0.393968	0.640175
N31	N	0.028778	-0.099386	0.000112
N32	N	0.528778	0.400614	0.500112
C33	C	0.060957	-0.096259	-0.075587
C34	C	0.560957	0.403741	0.424413
O35	O	0.032299	-0.092675	-0.139968
O36	O	0.532299	0.407325	0.360032
C37	C	0.120404	-0.097241	-0.075590
C38	C	0.620404	0.402759	0.424410
C39	C	0.147675	-0.101355	0.000106
C40	C	0.647675	0.398645	0.500106
C41	C	0.142772	-0.108594	0.151490
C42	C	0.642772	0.391406	0.651490
C43	C	0.202216	-0.109582	0.151486
C44	C	0.702216	0.390418	0.651486
C45	C	0.234390	-0.106457	0.075793
C46	C	0.734390	0.393543	0.575793
C47	C	0.207119	-0.102344	0.000103
C48	C	0.707119	0.397656	0.500103
C49	C	0.152582	-0.094108	-0.151288
C50	C	0.652582	0.405892	0.348712
C51	C	0.212033	-0.095089	-0.151284
C52	C	0.712033	0.404911	0.348716
C53	C	0.239304	-0.099204	-0.075588
C54	C	0.739304	0.400796	0.424412
C55	C	0.298737	-0.100208	-0.075594
C56	C	0.798737	0.399792	0.424406
N57	N	0.326011	-0.104314	0.000097
N58	N	0.826011	0.395686	0.500097
C59	C	0.293837	-0.107439	0.075790
C60	C	0.793837	0.392561	0.575790
C61	C	-0.063888	-0.094197	-0.075576
C62	C	0.436112	0.405803	0.424424
C63	C	-0.123334	-0.093220	-0.075575
C64	C	0.376666	0.406780	0.424425
C65	C	-0.128235	-0.100453	0.075816
C66	C	0.371765	0.399547	0.575816
C67	C	-0.068787	-0.101434	0.075814
C68	C	0.431213	0.398566	0.575814
C69	C	-0.036614	-0.098303	0.000115
C70	C	0.463386	0.401697	0.500115
C71	C	0.418675	-0.109516	0.075777
C72	C	0.918675	0.390484	0.575777
C73	C	0.478125	-0.110507	0.075767
C74	C	0.978125	0.389493	0.575767
C75	C	0.483020	-0.103271	-0.075623
C76	C	0.983020	0.396729	0.424377
C77	C	0.423575	-0.102283	-0.075614
C78	C	0.923575	0.397717	0.424386
C79	C	0.391404	-0.105403	0.000093
C80	C	0.891404	0.394597	0.500093
O81	O	0.331610	-0.097668	-0.139933
O82	O	0.831610	0.402332	0.360067
O83	O	0.322503	-0.111012	0.140160
O84	O	0.822503	0.388988	0.640160
C85	C	0.675026	0.041474	0.000106
C86	C	1.175026	0.541474	0.500106
C87	C	0.669943	0.128477	0.000105
C88	C	1.169943	0.628477	0.500105
C89	C	0.781217	-0.095303	0.000115
C90	C	1.281217	0.404697	0.500115
C91	C	0.844487	-0.096341	0.000119
C92	C	1.344487	0.403659	0.500119
C93	C	0.679759	-0.245198	0.000092
C94	C	1.179759	0.254802	0.500092
C95	C	0.684842	-0.332201	0.000087
C96	C	1.184842	0.167799	0.500087
N97	N	0.670369	-0.112199	0.216435
N98	N	1.170369	0.387801	0.716435
C99	C	0.718990	0.179112	0.000114
C100	C	1.218990	0.679112	0.500114
C101	C	0.714210	0.260860	0.000105
C102	C	1.214210	0.760860	0.500105
C103	C	0.660384	0.291972	0.000094
C104	C	1.160384	0.791972	0.500094
C105	C	0.611333	0.241331	0.000082
C106	C	1.111333	0.741331	0.500082
C107	C	0.616113	0.159585	0.000085
C108	C	1.116113	0.659585	0.500085
C109	C	0.640572	0.535412	0.000079
C110	C	1.140572	1.035412	0.500079
C111	C	0.635795	0.617165	0.000079
C112	C	1.135795	1.117165	0.500079
C113	C	0.738673	0.636688	0.000100
C114	C	1.238673	1.136688	0.500100
C115	C	0.743448	0.554939	0.000108
C116	C	1.243448	1.054939	0.500108
C117	C	0.694398	0.504305	0.000092
C118	C	1.194398	1.004305	0.500092
N119	N	0.655497	0.375532	0.000087
N120	N	1.155497	0.875532	0.500087
N121	N	0.699285	0.420747	0.000092
N122	N	1.199285	0.920747	0.500092
N123	N	0.684420	-0.091519	-0.216235
N124	N	1.184420	0.408481	0.283765
C125	C	0.705244	-0.060714	0.260137
C126	C	1.205244	0.439286	0.760137
C127	C	0.702415	-0.064894	0.347543
C128	C	1.202415	0.435106	0.847543
C129	C	0.664714	-0.120564	0.391245
C130	C	1.164714	0.379436	0.891245
C131	C	0.629835	-0.172051	0.347537
C132	C	1.129835	0.327949	0.847537
C133	C	0.632661	-0.167867	0.260132
C134	C	1.132661	0.332133	0.760132
C135	C	0.652368	-0.138822	0.652652
C136	C	1.152368	0.361178	1.152652
C137	C	0.649545	-0.143004	0.740063
C138	C	1.149545	0.356996	1.240063
C139	C	0.722125	-0.035845	0.740063
C140	C	1.222125	0.464155	1.240063
C141	C	0.724950	-0.031669	0.652657
C142	C	1.224950	0.468331	1.152657
C143	C	0.690069	-0.083153	0.608956
C144	C	1.190069	0.416847	1.108956
N145	N	0.661823	-0.124840	0.480588
N146	N	1.161823	0.375160	0.980588
N147	N	0.692958	-0.078873	0.519614
N148	N	1.192958	0.421127	1.019614
H149	H	-0.145533	-0.089883	-0.137214
H150	H	0.354467	0.410117	0.362786
O151	O	0.577737	0.650726	0.000072
O152	O	1.077737	1.150726	0.500072
H153	H	0.574942	0.690215	-0.056518
H154	H	1.074942	1.190215	0.443482
H155	H	0.735947	-0.015385	0.224561
H156	H	1.235947	0.484615	0.724561
O157	O	-0.162901	-0.103862	0.157499
O158	O	0.337099	0.396138	0.657499
H159	H	-0.155276	-0.159232	0.193735
H160	H	0.344724	0.340768	0.693735
H161	H	0.787280	0.529614	0.000117
H162	H	1.287280	1.029614	0.500117
O163	O	-0.029187	-0.090834	-0.157227
O164	O	0.470813	0.409166	0.342773
H165	H	-0.058145	-0.087822	-0.209853
H166	H	0.441855	0.412178	0.290147
O167	O	0.123179	-0.089629	-0.232932
O168	O	0.623179	0.410371	0.267068
H169	H	0.155549	-0.087598	-0.285558
H170	H	0.655549	0.412402	0.214442
H171	H	0.576174	0.118358	0.000078
H172	H	1.076174	0.618358	0.500078
H173	H	0.754149	0.302084	0.000114
H174	H	1.254149	0.802084	0.500114
H175	H	0.599135	-0.217377	0.383124
H176	H	1.099135	0.282623	0.883124
O177	O	0.231630	-0.114015	0.233127
O178	O	0.731630	0.385985	0.733127
H179	H	0.255943	-0.168071	0.236745
H180	H	0.755943	0.331929	0.736745
H181	H	0.604262	-0.209790	0.224551
H182	H	1.104262	0.290210	0.724551
H183	H	0.500325	-0.113861	0.137410
H184	H	1.000325	0.386139	0.637410
O185	O	0.777049	0.145565	0.000121
O186	O	1.277049	0.645565	0.500121
H187	H	0.779855	0.106093	0.056722
H188	H	1.279855	0.606093	0.556722
O189	O	0.246735	-0.091717	-0.232932
O190	O	0.746735	0.408283	0.267068
H191	H	0.217781	-0.088698	-0.285561
H192	H	0.717781	0.411302	0.214439
H193	H	0.778607	0.677922	0.000111
H194	H	1.278607	1.177922	0.500111
H195	H	0.600632	0.494195	0.000066
H196	H	1.100632	0.994195	0.500066
H197	H	0.401370	-0.098946	-0.137252
H198	H	0.901370	0.401054	0.362748
H199	H	0.730813	-0.022970	0.383125
H200	H	1.230813	0.477030	0.883125
O201	O	0.383979	-0.112891	0.157430
O202	O	0.883979	0.387109	0.657430
H203	H	0.412937	-0.115926	0.210054
H204	H	0.912937	0.384074	0.710054
O205	O	0.108021	-0.112022	0.233093
O206	O	0.608021	0.387978	0.733093
H207	H	0.120853	-0.060543	0.269466
H208	H	0.620853	0.439457	0.769466
O209	O	-0.039374	-0.105876	0.157455
O210	O	0.460626	0.394124	0.657455
H211	H	-0.071740	-0.107884	0.210085
H212	H	0.428260	0.392116	0.710085
H213	H	0.755649	0.013662	0.617076
H214	H	1.255649	0.513662	1.117076
O215	O	0.517727	-0.099883	-0.157263
O216	O	1.017727	0.400117	0.342737
H217	H	0.563645	-0.101246	-0.144541
H218	H	1.063645	0.398754	0.355459
H219	H	0.567506	0.266669	0.000068
H220	H	1.067506	0.766669	0.500068
H221	H	0.750523	0.006072	0.775652
H222	H	1.250523	0.506072	1.275652
O223	O	0.608880	-0.203051	0.787205
O224	O	1.108880	0.296949	1.287205
H225	H	0.578432	-0.172157	0.827047
H226	H	1.078432	0.327843	1.327047
H227	H	0.623967	-0.180744	0.617078
H228	H	1.123967	0.319256	1.117078
