data_functionalizedCrystal
_audit_creation_method	'MofGen! by Chris Wilmer'
_symmetry_space_group_name_H-M	'P1'
_symmetry_Int_Tables_number	1
_symmetry_cell_setting	triclinic
loop_
_symmetry_equiv_pos_as_xyz
  x,y,z
_cell_length_a	14.908520
_cell_length_b	19.805407
_cell_length_c	19.805399
_cell_angle_alpha	90.016510
_cell_angle_beta	93.269050
_cell_angle_gamma	86.683092
loop_
_atom_site_label
_atom_site_type_symbol
_atom_site_fract_x
_atom_site_fract_y
_atom_site_fract_z
Zn1	Zn	-0.359259	-1.019181	-0.398266
Zn2	Zn	0.140741	-0.519181	0.101734
Zn3	Zn	-0.510128	-1.012577	-0.291609
Zn4	Zn	-0.010128	-0.512577	0.208391
Zn5	Zn	-0.359278	-0.906001	-0.285092
Zn6	Zn	0.140722	-0.406001	0.214908
Zn7	Zn	-0.510066	-0.899438	-0.404754
Zn8	Zn	-0.010066	-0.399438	0.095246
O9	O	-0.434683	-0.959299	-0.344930
O10	O	0.065317	-0.459299	0.155070
O11	O	-0.379291	-1.113021	-0.384130
O12	O	0.120709	-0.613021	0.115870
O13	O	-0.490151	-0.998422	-0.196030
O14	O	0.009849	-0.498422	0.303970
O15	O	-0.233031	-0.926525	-0.294662
O16	O	0.266969	-0.426525	0.205338
O17	O	-0.490133	-1.108169	-0.305770
O18	O	0.009867	-0.608169	0.194230
O19	O	-0.233017	-1.009678	-0.377811
O20	O	0.266983	-0.509678	0.122189
O21	O	-0.379322	-0.920121	-0.191242
O22	O	0.120678	-0.420121	0.308758
O23	O	-0.379262	-0.810414	-0.300953
O24	O	0.120738	-0.310414	0.199047
O25	O	-0.490028	-0.915340	-0.498609
O26	O	0.009972	-0.415340	0.001391
O27	O	-0.490046	-0.805593	-0.388869
O28	O	0.009954	-0.305593	0.111131
O29	O	-0.379231	-1.003315	-0.493842
O30	O	0.120769	-0.503315	0.006158
O31	O	-0.636364	-0.992059	-0.312061
O32	O	-0.136364	-0.492059	0.187939
O33	O	-0.636319	-0.908936	-0.395188
O34	O	-0.136319	-0.408936	0.104812
C35	C	-0.434650	-0.783445	-0.344908
C36	C	0.065350	-0.283445	0.155092
C37	C	-0.434657	-0.708212	-0.344916
C38	C	0.065343	-0.208212	0.155084
C39	C	-0.669075	-0.949087	-0.355050
C40	C	-0.169075	-0.449087	0.144950
C41	C	-0.769350	-0.944780	-0.359402
C42	C	-0.269350	-0.444780	0.140598
C43	C	-0.377043	-0.675391	-0.385787
C44	C	0.122957	-0.175391	0.114213
C45	C	-0.377046	-0.604702	-0.385788
C46	C	0.122954	-0.104702	0.114212
C47	C	-0.434668	-0.566836	-0.344921
C48	C	0.065332	-0.066836	0.155079
C49	C	-0.492285	-0.599663	-0.304045
C50	C	0.007715	-0.099663	0.195955
C51	C	-0.492277	-0.670350	-0.304041
C52	C	0.007723	-0.170350	0.195959
C53	C	-0.492318	-0.314588	-0.304060
C54	C	0.007682	0.185412	0.195940
C55	C	-0.492324	-0.243896	-0.304069
C56	C	0.007676	0.256104	0.195931
C57	C	-0.377087	-0.248940	-0.385808
C58	C	0.122913	0.251060	0.114192
C59	C	-0.377078	-0.319628	-0.385804
C60	C	0.122922	0.180372	0.114196
C61	C	-0.434692	-0.352448	-0.344925
C62	C	0.065308	0.147552	0.155075
C63	C	-0.434687	-0.429097	-0.344923
C64	C	0.065313	0.070903	0.155077
C65	C	-0.434678	-0.490189	-0.344926
C66	C	0.065322	0.009811	0.155074
C67	C	-0.957761	-1.023331	-0.281090
C68	C	-0.457761	-0.523331	0.218910
C69	C	-1.051978	-1.019287	-0.285177
C70	C	-0.551978	-0.519287	0.214823
C71	C	-1.052001	-0.932650	-0.371666
C72	C	-0.552001	-0.432650	0.128334
C73	C	-0.957784	-0.936695	-0.367579
C74	C	-0.457784	-0.436695	0.132421
C75	C	-0.910668	-0.982036	-0.322289
C76	C	-0.410668	-0.482036	0.177711
C77	C	-0.816450	-0.986077	-0.318199
C78	C	-0.316450	-0.486077	0.181801
C79	C	-0.816474	-0.899444	-0.404691
C80	C	-0.316474	-0.399444	0.095309
C81	C	-0.910691	-0.895399	-0.408778
C82	C	-0.410691	-0.395399	0.091222
C83	C	-0.199375	-0.969570	-0.334786
C84	C	0.300625	-0.469570	0.165214
C85	C	-0.099101	-0.973947	-0.330463
C86	C	0.400899	-0.473947	0.169537
C87	C	-0.434620	-0.959332	-0.521471
C88	C	0.065380	-0.459332	-0.021471
C89	C	-0.434594	-0.959346	-0.596701
C90	C	0.065406	-0.459346	-0.096701
C91	C	-0.434710	-0.135841	-0.344947
C92	C	0.065290	0.364159	0.155053
C93	C	-0.434704	-0.211073	-0.344937
C94	C	0.065296	0.288927	0.155063
C95	C	-0.376880	-0.918587	-0.629552
C96	C	0.123120	-0.418587	-0.129552
C97	C	-0.376862	-0.918597	-0.700239
C98	C	0.123138	-0.418597	-0.200239
C99	C	-0.434555	-0.959370	-0.738075
C100	C	0.065445	-0.459370	-0.238075
C101	C	-0.492275	-1.000130	-0.705220
C102	C	0.007725	-0.500130	-0.205220
C103	C	-0.492296	-1.000116	-0.634534
C104	C	0.007704	-0.500116	-0.134534
C105	C	-0.492191	-1.000188	-0.990290
C106	C	0.007809	-0.500188	-0.490290
C107	C	-0.492163	-1.000200	-1.060981
C108	C	0.007837	-0.500200	-0.560981
C109	C	-0.376756	-0.918668	-1.055995
C110	C	0.123244	-0.418668	-0.555995
C111	C	-0.376778	-0.918654	-0.985309
C112	C	0.123222	-0.418654	-0.485309
C113	C	-0.434501	-0.959412	-0.952461
C114	C	0.065499	-0.459412	-0.452461
C115	C	-0.434521	-0.959399	-0.875813
C116	C	0.065479	-0.459399	-0.375813
C117	C	-0.434531	-0.959386	-0.814721
C118	C	0.065469	-0.459386	-0.314721
C119	C	-0.434680	-0.959309	-0.169074
C120	C	0.065320	-0.459309	0.330926
C121	C	-0.434453	-0.959437	-0.093833
C122	C	0.065547	-0.459437	0.406167
H123	H	-0.330122	-0.706217	-0.419068
H124	H	0.169878	-0.206217	0.080932
H125	H	-0.919399	-1.060246	-0.244208
H126	H	-0.419399	-0.560246	0.255792
H127	H	-0.949066	-0.858485	-0.445654
H128	H	-0.449066	-0.358485	0.054346
C129	C	-0.765180	-0.854686	-0.449393
C130	C	-0.265180	-0.354686	0.050607
C131	C	-0.672584	-0.867941	-0.436133
C132	C	-0.172584	-0.367941	0.063867
C133	C	-0.625304	-0.826729	-0.477302
C134	C	-0.125304	-0.326729	0.022698
H135	H	-0.780573	-0.808528	-0.440153
H136	H	-0.280573	-0.308528	0.059847
H137	H	-0.780518	-0.863908	-0.495561
H138	H	-0.280518	-0.363908	0.004439
H139	H	-0.657252	-0.858714	-0.389976
H140	H	-0.157252	-0.358714	0.110024
H141	H	-0.657165	-0.914091	-0.445377
H142	H	-0.157165	-0.414091	0.054623
H143	H	-0.640642	-0.835951	-0.523470
H144	H	-0.140642	-0.335951	-0.023470
H145	H	-0.640704	-0.780574	-0.468059
H146	H	-0.140704	-0.280574	0.031941
H147	H	-0.562473	-0.835721	-0.468316
H148	H	-0.062473	-0.335721	0.031684
C149	C	-1.102975	-1.064248	-0.240478
C150	C	-0.602975	-0.564248	0.259522
C151	C	-1.079932	-1.132187	-0.254285
C152	C	-0.579932	-0.632187	0.245715
C153	C	-1.126875	-1.173633	-0.213115
C154	C	-0.626875	-0.673633	0.286885
H155	H	-1.165853	-1.055451	-0.249346
H156	H	-0.665853	-0.555451	0.250654
H157	H	-1.087556	-1.055080	-0.194312
H158	H	-0.587556	-0.555080	0.305688
H159	H	-1.095357	-1.141351	-0.300441
H160	H	-0.595357	-0.641351	0.199559
H161	H	-1.017062	-1.141005	-0.245414
H162	H	-0.517062	-0.641005	0.254586
H163	H	-1.111456	-1.164465	-0.166948
H164	H	-0.611456	-0.664465	0.333052
H165	H	-1.189750	-1.164830	-0.221986
H166	H	-0.689750	-0.664830	0.278014
H167	H	-1.111241	-1.219734	-0.222473
H168	H	-0.611241	-0.719734	0.277527
H169	H	-0.539147	-1.033404	-1.091786
H170	H	-0.039147	-0.533404	-0.591786
H171	H	-0.329894	-0.885388	-0.598750
H172	H	0.170106	-0.385388	-0.098750
H173	H	-1.090379	-0.895740	-0.408544
H174	H	-0.590379	-0.395740	0.091456
H175	H	-0.329869	-0.885404	-0.726983
H176	H	0.170131	-0.385404	-0.226983
C177	C	-0.314106	-0.874312	-0.944351
C178	C	0.185894	-0.374312	-0.444351
C179	C	-0.263575	-0.838604	-0.988251
C180	C	0.236425	-0.338604	-0.488251
C181	C	-0.205843	-0.797740	-0.950547
C182	C	0.294157	-0.297740	-0.450547
H183	H	-0.274732	-0.901841	-0.915079
H184	H	0.225268	-0.401841	-0.415079
H185	H	-0.348602	-0.843275	-0.918275
H186	H	0.151398	-0.343275	-0.418275
H187	H	-0.229081	-0.869637	-1.014316
H188	H	0.270919	-0.369637	-0.514316
H189	H	-0.302925	-0.811063	-1.017524
H190	H	0.197075	-0.311063	-0.517524
H191	H	-0.240339	-0.766703	-0.924471
H192	H	0.259661	-0.266703	-0.424471
H193	H	-0.166475	-0.825274	-0.921276
H194	H	0.333525	-0.325274	-0.421276
H195	H	-0.171557	-0.773503	-0.980327
H196	H	0.328443	-0.273503	-0.480327
C197	C	-0.314458	-0.569191	-0.430237
C198	C	0.185542	-0.069191	0.069763
C199	C	-0.264014	-0.617481	-0.466042
C200	C	0.235986	-0.117481	0.033958
C201	C	-0.206353	-0.584794	-0.507001
C202	C	0.293647	-0.084794	-0.007001
H203	H	-0.275026	-0.543322	-0.402769
H204	H	0.224974	-0.043322	0.097231
H205	H	-0.349001	-0.540137	-0.461214
H206	H	0.150999	-0.040137	0.038786
H207	H	-0.229473	-0.646524	-0.435069
H208	H	0.270527	-0.146524	0.064931
H209	H	-0.303422	-0.643354	-0.493523
H210	H	0.196578	-0.143354	0.006477
H211	H	-0.240897	-0.555740	-0.537978
H212	H	0.259103	-0.055740	-0.037978
H213	H	-0.166927	-0.558925	-0.479528
H214	H	0.333073	-0.058925	0.020472
H215	H	-0.172126	-0.617553	-0.531304
H216	H	0.327874	-0.117553	-0.031304
C217	C	-0.314190	-0.874429	-1.091788
C218	C	0.185810	-0.374429	-0.591788
C219	C	-0.326535	-0.883148	-1.161791
C220	C	0.173465	-0.383148	-0.661791
C221	C	-0.268924	-0.842402	-1.194782
C222	C	0.231076	-0.342402	-0.694782
H223	H	-0.253544	-0.886938	-1.077674
H224	H	0.246456	-0.386938	-0.577674
H225	H	-0.327397	-0.828359	-1.080803
H226	H	0.172603	-0.328359	-0.580803
H227	H	-0.313322	-0.929208	-1.172771
H228	H	0.186678	-0.429208	-0.672771
H229	H	-0.387169	-0.870635	-1.175924
H230	H	0.112831	-0.370635	-0.675924
H231	H	-0.282131	-0.796332	-1.183797
H232	H	0.217869	-0.296332	-0.683797
H233	H	-0.208282	-0.854914	-1.180663
H234	H	0.291718	-0.354914	-0.680663
H235	H	-0.277298	-0.848308	-1.242283
H236	H	0.222702	-0.348308	-0.742283
H237	H	-0.539202	-1.033367	-0.963554
H238	H	-0.039202	-0.533367	-0.463554
H239	H	-0.330159	-0.350455	-0.419084
H240	H	0.169841	0.149545	0.080916
H241	H	-0.539249	-0.213067	-0.270787
H242	H	-0.039249	0.286933	0.229213
C243	C	-0.554985	-0.705946	-0.259759
C244	C	-0.054985	-0.205946	0.240241
C245	C	-0.644274	-0.684890	-0.278255
C246	C	-0.144274	-0.184890	0.221745
C247	C	-0.702064	-0.717672	-0.237481
C248	C	-0.202064	-0.217672	0.262519
H249	H	-0.541826	-0.694948	-0.213705
H250	H	-0.041826	-0.194948	0.286295
H251	H	-0.546787	-0.753472	-0.265617
H252	H	-0.046787	-0.253472	0.234383
H253	H	-0.652468	-0.637375	-0.272391
H254	H	-0.152468	-0.137375	0.227609
H255	H	-0.657461	-0.695889	-0.324301
H256	H	-0.157461	-0.195889	0.175699
H257	H	-0.693866	-0.765198	-0.243339
H258	H	-0.193866	-0.265198	0.256661
H259	H	-0.688897	-0.706671	-0.191430
H260	H	-0.188897	-0.206671	0.308570
H261	H	-0.762653	-0.703395	-0.250029
H262	H	-0.262653	-0.203395	0.249971
C263	C	-0.314638	-0.213336	-0.430304
C264	C	0.185362	0.286664	0.069696
C265	C	-0.334418	-0.229681	-0.498101
C266	C	0.165582	0.270319	0.001899
C267	C	-0.276922	-0.196890	-0.539112
C268	C	0.223078	0.303110	-0.039112
H269	H	-0.253972	-0.227528	-0.417946
H270	H	0.246028	0.272472	0.082054
H271	H	-0.322898	-0.165807	-0.424501
H272	H	0.177102	0.334193	0.075499
H273	H	-0.326150	-0.277199	-0.503902
H274	H	0.173850	0.222801	-0.003902
H275	H	-0.395073	-0.215488	-0.510480
H276	H	0.104927	0.284512	-0.010480
H277	H	-0.285182	-0.149361	-0.533308
H278	H	0.214818	0.350639	-0.033308
H279	H	-0.216259	-0.211084	-0.526748
H280	H	0.283741	0.288916	-0.026748
H281	H	-0.290340	-0.207970	-0.585117
H282	H	0.209660	0.292030	-0.085117
H283	H	-0.539254	-1.033325	-0.736032
H284	H	-0.039254	-0.533325	-0.236032
H285	H	-0.539287	-1.033312	-0.607788
H286	H	-0.039287	-0.533312	-0.107788
C287	C	-0.554970	-0.350089	-0.259659
C288	C	-0.054970	0.149911	0.240341
C289	C	-0.605450	-0.301795	-0.223887
C290	C	-0.105450	0.198205	0.276113
C291	C	-0.663184	-0.334475	-0.182983
C292	C	-0.163184	0.165525	0.317017
H293	H	-0.520505	-0.379152	-0.228659
H294	H	-0.020505	0.120848	0.271341
H295	H	-0.594369	-0.375947	-0.287184
H296	H	-0.094369	0.124053	0.212816
H297	H	-0.566056	-0.275947	-0.196365
H298	H	-0.066056	0.224053	0.303635
H299	H	-0.639933	-0.272729	-0.254870
H300	H	-0.139933	0.227271	0.245130
H301	H	-0.702584	-0.360334	-0.210508
H302	H	-0.202584	0.139666	0.289492
H303	H	-0.628713	-0.363538	-0.151987
H304	H	-0.128713	0.136462	0.348013
H305	H	-0.697448	-0.301713	-0.158712
H306	H	-0.197448	0.198287	0.341288
C307	C	-0.765455	-1.035369	-0.269010
C308	C	-0.265455	-0.535369	0.230990
C309	C	-0.826868	-1.070681	-0.233818
C310	C	-0.326868	-0.570681	0.266182
C311	C	-0.779928	-1.116103	-0.188506
C312	C	-0.279928	-0.616103	0.311494
H313	H	-0.728751	-1.011151	-0.237839
H314	H	-0.228751	-0.511151	0.262161
H315	H	-0.728666	-1.066458	-0.293320
H316	H	-0.228666	-0.566458	0.206680
H317	H	-0.863642	-1.039597	-0.209509
H318	H	-0.363642	-0.539597	0.290491
H319	H	-0.863574	-1.094914	-0.264971
H320	H	-0.363574	-0.594914	0.235029
H321	H	-0.743139	-1.147192	-0.212816
H322	H	-0.243139	-0.647192	0.287184
H323	H	-0.743226	-1.091879	-0.157340
H324	H	-0.243226	-0.591879	0.342660
H325	H	-0.821589	-1.140072	-0.164628
H326	H	-0.321589	-0.640072	0.335372
C327	C	-0.554814	-0.558433	-0.259745
C328	C	-0.054814	-0.058433	0.240255
C329	C	-0.542510	-0.489501	-0.268510
C330	C	-0.042510	0.010499	0.231490
C331	C	-0.600107	-0.451501	-0.227720
C332	C	-0.100107	0.048499	0.272280
H333	H	-0.541589	-0.570494	-0.213685
H334	H	-0.041589	-0.070494	0.286315
H335	H	-0.615464	-0.567346	-0.272201
H336	H	-0.115464	-0.067346	0.227799
H337	H	-0.481874	-0.480592	-0.256050
H338	H	0.018126	0.019408	0.243950
H339	H	-0.555742	-0.477420	-0.314562
H340	H	-0.055742	0.022580	0.185438
H341	H	-0.660757	-0.460415	-0.240176
H342	H	-0.160757	0.039585	0.259824
H343	H	-0.586877	-0.463568	-0.181662
H344	H	-0.086877	0.036432	0.318338
H345	H	-0.591772	-0.404727	-0.233666
H346	H	-0.091772	0.095273	0.266334
