data_functionalizedCrystal
_audit_creation_method	'MofGen! by Chris Wilmer'
_symmetry_space_group_name_H-M	'P1'
_symmetry_Int_Tables_number	1
_symmetry_cell_setting	triclinic
loop_
_symmetry_equiv_pos_as_xyz
  x,y,z
_cell_length_a	12.759394
_cell_length_b	14.908571
_cell_length_c	14.908308
_cell_angle_alpha	89.824947
_cell_angle_beta	93.268403
_cell_angle_gamma	93.288899
loop_
_atom_site_label
_atom_site_type_symbol
_atom_site_fract_x
_atom_site_fract_y
_atom_site_fract_z
Zn1	Zn	-0.548282	-1.345341	-0.587592
Zn2	Zn	-0.714462	-1.353935	-0.437236
Zn3	Zn	-0.528102	-1.203654	-0.428590
Zn4	Zn	-0.713213	-1.194963	-0.578887
O5	O	-0.626015	-1.274473	-0.508076
O6	O	-0.579294	-1.472308	-0.574908
O7	O	-0.681818	-1.341234	-0.310264
O8	O	-0.383762	-1.222490	-0.449706
O9	O	-0.701385	-1.478622	-0.464442
O10	O	-0.398588	-1.326587	-0.566525
O11	O	-0.544900	-1.230824	-0.303912
O12	O	-0.543690	-1.076675	-0.441266
O13	O	-0.699258	-1.207676	-0.705867
O14	O	-0.679690	-1.070289	-0.551688
O15	O	-0.578083	-1.318159	-0.712262
O16	O	-0.861313	-1.332806	-0.456001
O17	O	-0.860396	-1.216010	-0.560072
C18	C	-0.609365	-1.040856	-0.494595
C19	C	-0.602270	-0.940913	-0.488849
C20	C	-0.898977	-1.274420	-0.508051
C21	C	-1.015759	-1.274478	-0.508075
C22	C	-0.640782	-1.260989	-0.742602
C23	C	-0.647075	-1.255243	-0.842543
C24	C	-1.016672	-1.396180	-0.399798
C25	C	-1.071992	-1.457053	-0.345671
C26	C	-1.181719	-1.457105	-0.345698
C27	C	-1.236129	-1.396278	-0.399860
C28	C	-1.180809	-1.335404	-0.453987
C29	C	-1.071079	-1.335358	-0.453952
C30	C	-1.179897	-1.213709	-0.562269
C31	C	-1.070169	-1.213651	-0.562238
C32	C	-1.234306	-1.152882	-0.616431
C33	C	-1.178986	-1.092002	-0.670555
C34	C	-1.069252	-1.091953	-0.670524
C35	C	-1.014849	-1.152778	-0.616365
C36	C	-0.351989	-1.274549	-0.508122
C37	C	-0.235216	-1.274582	-0.508142
C38	C	-0.642730	-1.509002	-0.521611
C39	C	-0.649853	-1.608945	-0.527378
C40	C	-0.730752	-0.746516	-0.592880
C41	C	-0.724088	-0.652610	-0.587484
C42	C	-0.582274	-0.659192	-0.472666
C43	C	-0.588938	-0.753098	-0.478062
C44	C	-0.663180	-0.796757	-0.538170
C45	C	-0.669848	-0.890665	-0.543561
C46	C	-0.528030	-0.897246	-0.428748
C47	C	-0.521366	-0.803340	-0.423352
C48	C	-0.532697	-1.359488	-1.037003
C49	C	-0.538606	-1.354092	-1.130907
C50	C	-0.664798	-1.239051	-1.124254
C51	C	-0.658888	-1.244447	-1.030351
C52	C	-0.592837	-1.304669	-0.986729
C53	C	-0.586934	-1.310069	-0.892824
C54	C	-0.713118	-1.195024	-0.886173
C55	C	-0.719028	-1.189627	-0.980077
C56	C	-0.611232	-1.287956	-0.274466
C57	C	-0.604656	-1.293877	-0.174536
H58	H	-0.927325	-1.396133	-0.399758
O59	O	-1.354477	-1.396328	-0.399893
H60	H	-1.383803	-1.448873	-0.353154
H61	H	-1.027682	-1.506580	-0.301574
H62	H	-1.226761	-1.506677	-0.301628
O63	O	-1.352654	-1.152924	-0.616459
H64	H	-1.381982	-1.205463	-0.569713
O65	O	-0.749903	-0.937752	-0.608408
H66	H	-0.743187	-1.011492	-0.602971
H67	H	-0.791208	-0.782063	-0.641817
O68	O	-0.473731	-1.413205	-1.185139
H69	H	-0.526693	-1.456478	-1.230566
H70	H	-0.779110	-0.611707	-0.632037
H71	H	-0.718573	-1.190021	-1.159788
O72	O	-1.237664	-1.026393	-0.728959
H73	H	-1.323257	-1.036654	-0.719882
O74	O	-0.515693	-1.375020	-0.845776
H75	H	-0.563280	-1.423223	-0.805635
O76	O	-1.009584	-1.026287	-0.728895
H77	H	-1.065856	-0.983997	-0.766550
H78	H	-0.521823	-0.623629	-0.423735
O79	O	-0.461465	-1.424439	-0.989944
H80	H	-0.420636	-1.461652	-1.040680
H81	H	-0.460918	-0.767780	-0.374416
H82	H	-0.473010	-0.938162	-0.384197
H83	H	-0.925503	-1.152738	-0.616329
H84	H	-0.772803	-1.140595	-1.015607
O85	O	-0.777987	-1.135887	-0.831951
H86	H	-0.762779	-1.149750	-0.759324
