data_functionalizedCrystal
_audit_creation_method	'MofGen! by Chris Wilmer'
_symmetry_space_group_name_H-M	'P1'
_symmetry_Int_Tables_number	1
_symmetry_cell_setting	triclinic
loop_
_symmetry_equiv_pos_as_xyz
  x,y,z
_cell_length_a	12.759395
_cell_length_b	12.759394
_cell_length_c	11.169409
_cell_angle_alpha	90.034524
_cell_angle_beta	90.019706
_cell_angle_gamma	90.014682
loop_
_atom_site_label
_atom_site_type_symbol
_atom_site_fract_x
_atom_site_fract_y
_atom_site_fract_z
Zn1	Zn	1.606271	-0.418186	0.678521
Zn2	Zn	1.606160	-0.593912	0.477830
Zn3	Zn	1.430568	-0.418247	0.477855
Zn4	Zn	1.430561	-0.593823	0.678475
O5	O	1.518390	-0.506042	0.578170
O6	O	1.753277	-0.441508	0.651907
O7	O	1.582824	-0.570672	0.309884
O8	O	1.453925	-0.271217	0.504504
O9	O	1.753196	-0.570613	0.504460
O10	O	1.583013	-0.271173	0.651932
O11	O	1.453817	-0.441612	0.309902
O12	O	1.283546	-0.441526	0.504460
O13	O	1.453912	-0.570462	0.846431
O14	O	1.283541	-0.570521	0.651854
O15	O	1.583006	-0.441422	0.846465
O16	O	1.582817	-0.740921	0.504416
O17	O	1.453805	-0.740856	0.651829
C18	C	1.245422	-0.506021	0.578156
C19	C	1.128646	-0.506037	0.578178
C20	C	1.128711	-0.371817	0.731962
C21	C	1.073883	-0.304720	0.808864
C22	C	0.964161	-0.304739	0.808879
C23	C	0.909265	-0.371860	0.731981
C24	C	0.964093	-0.438957	0.655079
C25	C	1.073817	-0.438933	0.655075
C26	C	0.964028	-0.573170	0.501291
C27	C	1.073750	-0.573158	0.501280
C28	C	0.909132	-0.640291	0.424393
C29	C	0.963960	-0.707395	0.347496
C30	C	1.073688	-0.707374	0.347485
C31	C	1.128578	-0.640255	0.424378
C32	C	1.518327	-0.779009	0.578141
C33	C	1.518396	-0.895786	0.578169
C34	C	1.652837	-0.895800	0.424783
C35	C	1.720085	-0.950668	0.348104
C36	C	1.720146	-1.060390	0.348136
C37	C	1.652955	-1.115246	0.424859
C38	C	1.585707	-1.060378	0.501538
C39	C	1.585651	-0.950654	0.501494
C40	C	1.451273	-1.060364	0.654928
C41	C	1.451204	-0.950642	0.654892
C42	C	1.384082	-1.115220	0.731651
C43	C	1.316827	-1.060352	0.808326
C44	C	1.316767	-0.950623	0.808289
C45	C	1.383957	-0.895774	0.731571
C46	C	1.792423	-0.506063	0.578186
C47	C	1.909200	-0.506073	0.578193
C48	C	1.518470	-0.505925	0.891213
C49	C	1.518505	-0.505875	1.024613
C50	C	1.518482	-0.232008	0.578226
C51	C	1.518521	-0.115232	0.578249
C52	C	1.518370	-0.506082	0.266346
C53	C	1.518539	-0.505836	0.132946
H54	H	0.819924	-0.371860	0.731990
H55	H	1.262130	-1.105024	0.870792
H56	H	0.819791	-0.640298	0.424408
C57	C	1.134269	-0.230883	0.893440
C58	C	1.254959	-0.230851	0.893430
C59	C	1.315340	-0.157008	0.977999
C60	C	1.255031	-0.083196	1.062579
C61	C	1.134334	-0.083224	1.062593
C62	C	1.073953	-0.157068	0.978024
H63	H	1.299609	-0.285494	0.830816
H64	H	1.404688	-0.156987	0.977988
H65	H	1.299729	-0.028532	1.125182
H66	H	1.089684	-0.028582	1.125207
H67	H	0.984605	-0.157089	0.978034
H68	H	0.919520	-0.250096	0.871492
H69	H	1.118323	-0.762009	0.284858
H70	H	1.383908	-0.806433	0.731525
H71	H	1.262010	-0.905955	0.870735
H72	H	1.218052	-0.371791	0.731952
H73	H	0.919255	-0.762034	0.284887
H74	H	1.217919	-0.640227	0.424371
H75	H	1.774911	-1.105063	0.285703
C76	C	1.793996	-0.890326	0.263715
C77	C	1.793936	-0.769636	0.263669
C78	C	1.867850	-0.709299	0.179286
C79	C	1.941825	-0.769652	0.094947
C80	C	1.941888	-0.890349	0.094989
C81	C	1.867973	-0.950686	0.179373
H82	H	1.739173	-0.724954	0.326105
H83	H	1.867804	-0.619951	0.179255
H84	H	1.996541	-0.724987	0.032481
H85	H	1.996651	-0.935031	0.032554
H86	H	1.868020	-1.040034	0.179403
H87	H	1.652780	-0.806459	0.424733
H88	H	1.653020	-1.204587	0.424889
H89	H	1.384141	-1.204561	0.731677
