data_functionalizedCrystal
_audit_creation_method	'MofGen! by Chris Wilmer'
_symmetry_space_group_name_H-M	'P1'
_symmetry_Int_Tables_number	1
_symmetry_cell_setting	triclinic
loop_
_symmetry_equiv_pos_as_xyz
  x,y,z
_cell_length_a	13.897448
_cell_length_b	13.897449
_cell_length_c	12.759393
_cell_angle_alpha	89.976287
_cell_angle_beta	90.032272
_cell_angle_gamma	89.982475
loop_
_atom_site_label
_atom_site_type_symbol
_atom_site_fract_x
_atom_site_fract_y
_atom_site_fract_z
Zn1	Zn	-0.383972	-1.474711	0.594085
Zn2	Zn	0.116028	-0.974711	1.094085
Zn3	Zn	-0.545299	-1.474602	0.418400
Zn4	Zn	-0.045299	-0.974602	0.918400
Zn5	Zn	-0.384019	-1.313397	0.418412
Zn6	Zn	0.115981	-0.813397	0.918412
Zn7	Zn	-0.545227	-1.313382	0.594028
Zn8	Zn	-0.045227	-0.813382	1.094028
O9	O	-0.464629	-1.394023	0.506231
O10	O	0.035371	-0.894023	1.006231
O11	O	-0.405383	-1.609678	0.570799
O12	O	0.094617	-1.109678	1.070799
O13	O	-0.523954	-1.453179	0.271380
O14	O	-0.023954	-0.953179	0.771380
O15	O	-0.249031	-1.334848	0.441744
O16	O	0.250969	-0.834848	0.941744
O17	O	-0.523909	-1.609598	0.441723
O18	O	-0.023909	-1.109598	0.941723
O19	O	-0.248997	-1.453364	0.570810
O20	O	0.251003	-0.953364	1.070810
O21	O	-0.405463	-1.334743	0.271389
O22	O	0.094537	-0.834743	0.771389
O23	O	-0.405393	-1.178414	0.441689
O24	O	0.094607	-0.678414	0.941689
O25	O	-0.523786	-1.334821	0.741057
O26	O	-0.023786	-0.834821	1.241057
O27	O	-0.523831	-1.178402	0.570714
O28	O	-0.023831	-0.678402	1.070714
O29	O	-0.405314	-1.453349	0.741099
O30	O	0.094686	-0.953349	1.241099
O31	O	-0.680271	-1.453164	0.441668
O32	O	-0.180271	-0.953164	0.941668
O33	O	-0.680218	-1.334716	0.570702
O34	O	-0.180218	-0.834716	1.070702
C35	C	-0.464610	-1.143409	0.506197
C36	C	0.035390	-0.643409	1.006197
C37	C	-0.464625	-1.036195	0.506207
C38	C	0.035375	-0.536195	1.006207
C39	C	-0.715244	-1.393953	0.506201
C40	C	-0.215244	-0.893953	1.006201
C41	C	-0.822458	-1.394011	0.506223
C42	C	-0.322458	-0.894011	1.006223
C43	C	-0.464624	-0.839900	0.506227
C44	C	0.035376	-0.339900	1.006227
C45	C	-0.464621	-0.949132	0.506213
C46	C	0.035379	-0.449132	1.006213
C47	C	-1.018753	-1.394112	0.506289
C48	C	-0.518753	-0.894112	1.006289
C49	C	-0.909520	-1.394053	0.506255
C50	C	-0.409520	-0.894053	1.006255
C51	C	-0.213036	-1.394120	0.506285
C52	C	0.286964	-0.894120	1.006285
C53	C	-0.105822	-1.394161	0.506307
C54	C	0.394178	-0.894161	1.006307
C55	C	-0.464537	-1.394095	0.780265
C56	C	0.035463	-0.894095	1.280265
C57	C	-0.464497	-1.394126	0.897041
C58	C	0.035503	-0.894126	1.397041
C59	C	-0.464643	-0.645616	0.506256
C60	C	0.035357	-0.145616	1.006256
C61	C	-0.464633	-0.752830	0.506240
C62	C	0.035367	-0.252830	1.006240
C63	C	-0.464652	-1.394007	0.233264
C64	C	0.035348	-0.894007	0.733264
C65	C	-0.464420	-1.394163	0.116488
C66	C	0.035580	-0.894163	0.616488
C67	C	-0.402799	-1.455848	0.951927
C68	C	0.097201	-0.955848	1.451927
C69	C	-0.402757	-1.455864	1.061651
C70	C	0.097243	-0.955864	1.561651
C71	C	-0.526121	-1.332434	1.061595
C72	C	-0.026121	-0.832434	1.561595
C73	C	-0.526157	-1.332413	0.951872
C74	C	-0.026157	-0.832413	1.451872
H75	H	-0.352514	-1.506123	1.106334
H76	H	0.147486	-1.006123	1.606334
H77	H	-0.576324	-1.282192	1.106252
H78	H	-0.076324	-0.782192	1.606252
C79	C	-0.648108	-1.210414	0.962829
C80	C	-0.148108	-0.710414	1.462829
C81	C	-0.593986	-1.264567	0.891534
C82	C	-0.093986	-0.764567	1.391534
H83	H	-0.689983	-1.168534	0.925576
H84	H	-0.189983	-0.668534	1.425576
H85	H	-0.606067	-1.173541	1.005623
H86	H	-0.106067	-0.673541	1.505623
H87	H	-0.684994	-1.252443	1.005629
H88	H	-0.184994	-0.752443	1.505629
H89	H	-0.557095	-1.222538	0.848739
H90	H	-0.057095	-0.722538	1.348739
H91	H	-0.636033	-1.301442	0.848722
H92	H	-0.136033	-0.801442	1.348722
H93	H	-0.352589	-1.506096	0.907286
H94	H	0.147411	-1.006096	1.407286
