data_functionalizedCrystal
_audit_creation_method	'MofGen! by Chris Wilmer'
_symmetry_space_group_name_H-M	'P1'
_symmetry_Int_Tables_number	1
_symmetry_cell_setting	triclinic
loop_
_symmetry_equiv_pos_as_xyz
  x,y,z
_cell_length_a	18.050591
_cell_length_b	18.050590
_cell_length_c	16.625539
_cell_angle_alpha	89.970044
_cell_angle_beta	89.973401
_cell_angle_gamma	90.014558
loop_
_atom_site_label
_atom_site_type_symbol
_atom_site_fract_x
_atom_site_fract_y
_atom_site_fract_z
Zn1	Zn	1.135384	-0.295737	-0.456030
Zn2	Zn	1.135303	-0.419935	-0.321193
Zn3	Zn	1.011191	-0.295755	-0.321196
Zn4	Zn	1.011172	-0.419881	-0.455969
O5	O	1.073263	-0.357827	-0.388597
O6	O	1.239298	-0.312227	-0.438168
O7	O	1.118814	-0.403492	-0.208361
O8	O	1.027707	-0.191828	-0.339109
O9	O	1.239239	-0.403475	-0.339104
O10	O	1.118951	-0.191815	-0.438171
O11	O	1.027629	-0.312257	-0.208363
O12	O	0.907264	-0.312205	-0.339050
O13	O	1.027675	-0.403384	-0.568809
O14	O	0.907250	-0.403400	-0.438067
O15	O	1.118933	-0.312175	-0.568854
O16	O	1.118796	-0.523852	-0.339045
O17	O	1.027597	-0.523813	-0.438064
C18	C	0.880311	-0.357799	-0.388552
C19	C	0.797765	-0.357805	-0.388552
C20	C	0.598300	-0.308156	-0.334831
C21	C	0.548890	-0.375894	-0.314987
C22	C	0.646634	-0.357828	-0.388589
C23	C	0.548963	-0.290113	-0.408430
C24	C	0.500649	-0.357844	-0.388623
C25	C	0.598312	-0.425601	-0.368707
C26	C	0.598389	-0.339775	-0.462184
C27	C	0.549001	-0.407560	-0.442368
C28	C	0.730733	-0.357818	-0.388567
C29	C	0.416553	-0.357861	-0.388644
C30	C	1.073206	-0.550779	-0.388565
C31	C	1.073249	-0.633325	-0.388578
C32	C	1.122946	-0.832770	-0.334807
C33	C	1.141088	-0.882102	-0.408399
C34	C	1.073291	-0.784455	-0.388610
C35	C	1.055225	-0.882205	-0.315051
C36	C	1.073333	-0.930440	-0.388635
C37	C	1.091468	-0.832700	-0.462241
C38	C	1.005573	-0.832798	-0.368844
C39	C	1.023689	-0.882108	-0.442487
C40	C	1.073269	-0.700357	-0.388595
C41	C	1.073356	-1.014537	-0.388658
C42	C	1.266968	-0.357855	-0.388642
C43	C	1.349514	-0.357867	-0.388661
C44	C	1.073311	-0.357772	-0.598906
C45	C	1.073332	-0.357748	-0.688527
C46	C	1.073340	-0.164121	-0.388647
C47	C	1.073373	-0.081576	-0.388668
C48	C	1.073366	-0.357665	-1.016703
C49	C	1.073354	-0.357690	-0.925394
C50	C	1.073349	-0.357707	-0.852618
C51	C	1.073337	-0.357731	-0.761304
C52	C	1.073257	-0.357828	-0.179106
C53	C	1.073381	-0.357643	-0.089485
H54	H	0.619898	-0.482890	-0.351870
O55	O	1.209383	-0.907966	-0.428510
C56	C	1.204226	-0.950881	-0.499122
H57	H	1.152639	-0.934039	-0.534173
H58	H	1.255460	-0.941277	-0.537873
H59	H	1.200411	-1.012028	-0.482420
O60	O	0.523208	-0.457677	-0.496613
C61	C	0.445104	-0.456726	-0.496489
H62	H	0.424767	-0.401137	-0.472618
H63	H	0.423885	-0.465095	-0.560416
H64	H	0.423503	-0.503176	-0.456335
O65	O	0.624318	-0.321395	-0.536370
C66	C	0.599204	-0.249926	-0.557049
H67	H	0.585300	-0.217821	-0.499977
H68	H	0.644439	-0.219500	-0.591721
H69	H	0.547566	-0.254664	-0.596169
H70	H	0.527247	-0.232849	-0.425171
O71	O	1.109823	-0.806751	-0.536432
C72	C	1.109591	-0.728646	-0.535519
H73	H	1.117878	-0.708237	-0.471271
H74	H	1.156412	-0.707028	-0.575145
H75	H	1.054298	-0.707515	-0.559402
O76	O	1.037010	-0.908270	-0.240868
C77	C	1.036610	-0.986370	-0.242101
H78	H	1.073035	-1.006885	-0.293499
H79	H	1.058957	-1.008362	-0.182579
H80	H	0.977517	-1.007018	-0.251221
H81	H	1.164952	-0.811105	-0.289354
O82	O	0.973699	-0.907761	-0.496948
C83	C	0.993034	-0.882382	-0.574382
H84	H	1.054644	-0.868559	-0.575982
H85	H	0.980558	-0.927425	-0.620470
H86	H	0.959535	-0.830640	-0.589311
O87	O	0.937275	-0.806968	-0.348716
C88	C	0.918409	-0.832165	-0.271076
H89	H	0.971057	-0.846030	-0.236350
H90	H	0.886523	-0.786994	-0.237961
H91	H	0.882392	-0.883842	-0.276133
H92	H	0.619947	-0.266195	-0.289321
H93	H	0.527149	-0.391175	-0.252764
