data_functionalizedCrystal
_audit_creation_method	'MofGen! by Chris Wilmer'
_symmetry_space_group_name_H-M	'P1'
_symmetry_Int_Tables_number	1
_symmetry_cell_setting	triclinic
loop_
_symmetry_equiv_pos_as_xyz
  x,y,z
_cell_length_a	10.686220
_cell_length_b	18.101397
_cell_length_c	10.686551
_cell_angle_alpha	94.411465
_cell_angle_beta	89.691918
_cell_angle_gamma	94.402554
loop_
_atom_site_label
_atom_site_type_symbol
_atom_site_fract_x
_atom_site_fract_y
_atom_site_fract_z
Zn1	Zn	1.972256	-0.180551	0.562355
Zn2	Zn	1.956003	-0.314594	0.352573
Zn3	Zn	1.746371	-0.199496	0.368669
Zn4	Zn	1.762433	-0.313093	0.578351
O5	O	1.859266	-0.251933	0.465487
O6	O	2.145643	-0.191032	0.521096
O7	O	1.914670	-0.307882	0.179162
O8	O	1.776415	-0.093344	0.394404
O9	O	2.133702	-0.289512	0.366971
O10	O	1.942371	-0.079425	0.536704
O11	O	1.760655	-0.223320	0.190987
O12	O	1.572958	-0.221865	0.409915
O13	O	1.803791	-0.286954	0.751776
O14	O	1.584759	-0.305324	0.563967
O15	O	1.957946	-0.189576	0.740024
O16	O	1.930245	-0.418033	0.382482
O17	O	1.788031	-0.416930	0.548360
C18	C	1.533342	-0.265488	0.490424
C19	C	1.393913	-0.271303	0.501122
C20	C	1.859154	-0.444351	0.465435
C21	C	1.859224	-0.526662	0.465445
C22	C	1.859393	-0.825740	0.465548
C23	C	1.948580	-0.795102	0.360943
C24	C	1.948934	-0.709457	0.361169
C25	C	1.859309	-0.677364	0.465496
C26	C	1.905302	-0.700456	0.594982
C27	C	1.906009	-0.786096	0.594395
C28	C	1.724042	-0.801421	0.441831
C29	C	1.724471	-0.715888	0.438829
C30	C	1.859260	-0.593508	0.465475
C31	C	1.859445	-0.909596	0.465577
C32	C	2.186461	-0.238326	0.440454
C33	C	2.325893	-0.232528	0.429786
C34	C	1.884473	-0.235985	0.792690
C35	C	1.895215	-0.229188	0.932125
C36	C	1.859414	-0.058761	0.465565
C37	C	1.859478	0.023557	0.465598
C38	C	1.834228	-0.267763	0.139552
C39	C	1.823729	-0.274341	0.000100
H40	H	1.374325	-0.194882	0.360527
H41	H	1.754313	-0.318199	0.951624
H42	H	1.964645	-0.185332	0.980606
O43	O	2.067342	-0.814528	0.378230
C44	C	2.146244	-0.786661	0.283785
H45	H	2.087365	-0.777075	0.198719
H46	H	2.197500	-0.731876	0.320973
C47	C	2.315045	-0.854948	0.349773
C48	C	2.242730	-0.843180	0.245289
H49	H	2.374567	-0.889809	0.326030
H50	H	2.261890	-0.873720	0.413406
H51	H	2.357747	-0.809289	0.380753
H52	H	2.200018	-0.888836	0.214321
H53	H	2.295881	-0.824416	0.181650
H54	H	2.048988	-0.683731	0.376056
H55	H	1.345475	-0.308956	0.570378
H56	H	1.918983	-0.694192	0.264839
H57	H	1.918877	-0.821444	0.264298
H58	H	2.005246	-0.800581	0.615666
H59	H	1.844449	-0.805985	0.674469
O60	O	1.676672	-0.834402	0.331710
C61	C	1.765182	-0.880037	0.274405
H62	H	1.863110	-0.860147	0.310616
H63	H	1.741897	-0.939914	0.297930
C64	C	1.640760	-0.900302	0.086643
C65	C	1.761038	-0.875868	0.131109
H66	H	1.638201	-0.897734	-0.001749
H67	H	1.581126	-0.869559	0.125251
H68	H	1.621369	-0.950198	0.106258
H69	H	1.780420	-0.825971	0.111508
H70	H	1.820675	-0.906603	0.092494
O71	O	1.830620	-0.675164	0.689808
C72	C	1.735372	-0.636146	0.640336
H73	H	1.767020	-0.615575	0.546205
H74	H	1.646186	-0.674657	0.626552
C75	C	1.670185	-0.594558	0.847683
C76	C	1.709059	-0.569286	0.732075
H77	H	1.653948	-0.553317	0.904274
H78	H	1.734351	-0.620847	0.881015
H79	H	1.595867	-0.626651	0.836179
H80	H	1.783383	-0.537202	0.743578
H81	H	1.644904	-0.542990	0.698748
O82	O	2.022421	-0.668383	0.621259
C83	C	2.062338	-0.689712	0.737832
H84	H	1.976951	-0.706915	0.796258
H85	H	2.123407	-0.738508	0.721670
C86	C	2.243663	-0.602728	0.736317
C87	C	2.138788	-0.623851	0.808082
H88	H	2.290826	-0.562104	0.779650
H89	H	2.216774	-0.588360	0.657777
H90	H	2.294539	-0.643397	0.722854
H91	H	2.087906	-0.583186	0.821531
H92	H	2.165671	-0.638211	0.886626
O93	O	1.683473	-0.698600	0.325208
C94	C	1.776285	-0.651912	0.269985
H95	H	1.840012	-0.622284	0.346327
H96	H	1.834421	-0.686677	0.201649
C97	C	1.634780	-0.630364	0.105082
C98	C	1.713045	-0.593970	0.198848
H99	H	1.595773	-0.594625	0.061196
H100	H	1.572252	-0.661821	0.142284
H101	H	1.683239	-0.659333	0.048148
H102	H	1.664583	-0.565009	0.255788
H103	H	1.775564	-0.562507	0.161654
H104	H	1.653623	-0.694475	0.510254
H105	H	1.657466	-0.821246	0.518143
