data_functionalizedCrystal
_audit_creation_method	'MofGen! by Chris Wilmer'
_symmetry_space_group_name_H-M	'P1'
_symmetry_Int_Tables_number	1
_symmetry_cell_setting	triclinic
loop_
_symmetry_equiv_pos_as_xyz
  x,y,z
_cell_length_a	14.853567
_cell_length_b	19.188930
_cell_length_c	13.330367
_cell_angle_alpha	89.990231
_cell_angle_beta	89.995418
_cell_angle_gamma	83.389856
loop_
_atom_site_label
_atom_site_type_symbol
_atom_site_fract_x
_atom_site_fract_y
_atom_site_fract_z
O1	O	1.195862	0.091155	-0.083366
O2	O	0.933342	0.102014	-0.083385
O3	O	1.072178	-0.005046	-0.083355
O4	O	1.057026	0.198215	-0.083395
O5	O	1.072158	-0.005048	0.083492
O6	O	0.933322	0.102011	0.083462
O7	O	1.195842	0.091153	0.083481
Cu8	Cu	1.064580	0.096582	0.098706
Cu9	Cu	1.064604	0.096585	-0.098610
O10	O	1.057006	0.198212	0.083452
C11	C	0.899746	0.101521	0.000037
C12	C	0.799671	0.100046	0.000031
C13	C	1.071677	-0.031060	0.000071
C14	C	1.070204	-0.108569	0.000080
C15	C	0.387525	0.030218	0.000067
C16	C	0.365537	0.157407	0.000041
C17	C	0.459563	0.158794	0.000037
C18	C	0.517574	0.095891	0.000047
C19	C	0.481560	0.031602	0.000060
C20	C	0.495585	0.223081	0.000014
C21	C	0.589616	0.224470	0.000009
C22	C	0.647629	0.161567	0.000026
C23	C	0.611610	0.097276	0.000041
C24	C	0.669621	0.034373	0.000050
C25	C	0.633603	-0.029919	0.000072
C26	C	0.539574	-0.031301	0.000077
C27	C	0.741659	0.162949	0.000021
C28	C	0.763656	0.035757	0.000044
C29	C	1.151668	-0.153221	0.000090
C30	C	1.150285	-0.226050	0.000074
C31	C	1.067432	-0.254223	0.000068
C32	C	0.985957	-0.209561	0.000051
C33	C	0.987343	-0.136734	0.000057
N34	N	1.004094	-0.362440	0.056844
N35	N	1.002783	-0.431623	0.056841
C36	C	1.063251	-0.473645	0.000047
N37	N	1.125093	-0.443873	-0.056730
N38	N	1.126407	-0.374684	-0.056722
C39	C	1.065920	-0.333190	0.000060
C40	C	1.143220	-0.597267	0.000039
C41	C	1.141833	-0.670096	0.000016
C42	C	0.977503	-0.653606	0.000003
C43	C	0.978893	-0.580778	0.000016
C44	C	1.061754	-0.552613	0.000038
C45	C	1.229438	0.091646	0.000057
C46	C	1.329513	0.093120	0.000057
C47	C	1.057507	0.224226	0.000023
C48	C	1.058980	0.301736	0.000008
N49	N	1.064570	0.096579	0.237488
N50	N	1.064621	0.096582	-0.237391
C51	C	1.003125	0.143972	0.710098
C52	C	1.126107	0.049192	0.710092
C53	C	1.126097	0.049190	0.605073
C54	C	1.064601	0.096580	0.552562
C55	C	1.003115	0.143973	0.605070
C56	C	1.187588	0.001803	0.552558
C57	C	1.187581	0.001799	0.447533
C58	C	1.126080	0.049187	0.395020
C59	C	1.064590	0.096581	0.447534
C60	C	1.003094	0.143971	0.395023
C61	C	0.941600	0.191363	0.447535
C62	C	0.941613	0.191361	0.552557
C63	C	1.126066	0.049189	0.289999
C64	C	1.003084	0.143972	0.289995
H65	H	0.810884	-0.015466	0.000056
H66	H	0.953055	0.182556	0.752855
H67	H	0.680849	-0.081134	0.000073
C68	C	1.193749	-0.002934	0.767857
N69	N	1.244698	-0.042200	0.811371
C70	C	0.886364	-0.684591	-0.000007
N71	N	0.817715	-0.707933	-0.000018
H72	H	1.237661	-0.036778	0.595316
C73	C	0.894819	-0.240552	0.000051
N74	N	0.826171	-0.263895	0.000051
C75	C	1.255218	-0.050337	0.389780
N76	N	1.306160	-0.089609	0.346279
H77	H	0.921003	-0.100377	0.000049
H78	H	1.176138	0.010607	0.247248
H79	H	0.618933	0.276821	-0.000009
H80	H	0.891548	0.229945	0.595318
H81	H	0.318299	0.208620	0.000024
C82	C	1.242818	-0.122245	0.000106
N83	N	1.311473	-0.098912	0.000116
H84	H	1.210691	-0.574334	0.000052
H85	H	1.208174	-0.706452	0.000019
C86	C	0.889274	-0.531658	0.000010
N87	N	0.821769	-0.494661	0.000001
C88	C	0.873957	0.243491	0.389759
N89	N	0.823009	0.282753	0.346238
C90	C	0.499946	-0.102016	0.000093
N91	N	0.470095	-0.155278	0.000101
C92	C	0.431767	0.292269	0.000004
N93	N	0.383695	0.344384	0.000001
C94	C	1.239905	-0.275176	0.000092
N95	N	1.307408	-0.312176	0.000109
C96	C	0.935454	0.196124	0.232241
N97	N	0.884525	0.235413	0.188742
H98	H	0.358195	-0.022127	0.000088
H99	H	0.770981	0.215294	0.000005
