data_functionalizedCrystal
_audit_creation_method	'MofGen! by Chris Wilmer'
_symmetry_space_group_name_H-M	'P1'
_symmetry_Int_Tables_number	1
_symmetry_cell_setting	triclinic
loop_
_symmetry_equiv_pos_as_xyz
  x,y,z
_cell_length_a	14.908571
_cell_length_b	21.295417
_cell_length_c	14.908308
_cell_angle_alpha	93.260635
_cell_angle_beta	90.175053
_cell_angle_gamma	86.726349
loop_
_atom_site_label
_atom_site_type_symbol
_atom_site_fract_x
_atom_site_fract_y
_atom_site_fract_z
Zn1	Zn	1.345216	-0.328502	-0.587528
Zn2	Zn	1.678549	0.004832	-0.254195
Zn3	Zn	2.011882	0.338165	0.079138
Zn4	Zn	1.353772	-0.428068	-0.437153
Zn5	Zn	1.687105	-0.094735	-0.103819
Zn6	Zn	2.020439	0.238599	0.229514
Zn7	Zn	1.203534	-0.316411	-0.428528
Zn8	Zn	1.536867	0.016922	-0.095195
Zn9	Zn	1.870201	0.350256	0.238138
Zn10	Zn	1.194800	-0.427320	-0.578804
Zn11	Zn	1.528133	-0.093987	-0.245471
Zn12	Zn	1.861466	0.239346	0.087862
O13	O	1.274330	-0.375075	-0.508003
O14	O	1.607664	-0.041742	-0.174670
O15	O	1.940997	0.291591	0.158663
O16	O	1.472175	-0.347082	-0.574841
O17	O	1.805509	-0.013749	-0.241508
O18	O	2.138842	0.319584	0.091826
O19	O	1.341079	-0.408509	-0.310185
O20	O	1.674412	-0.075176	0.023149
O21	O	2.007745	0.258157	0.356482
O22	O	1.222403	-0.229930	-0.449662
O23	O	1.555736	0.103403	-0.116328
O24	O	1.889069	0.436737	0.217005
O25	O	1.478462	-0.420233	-0.464361
O26	O	1.811795	-0.086900	-0.131027
O27	O	2.145128	0.246433	0.202306
O28	O	1.326496	-0.238813	-0.566479
O29	O	1.659829	0.094520	-0.233145
O30	O	1.993162	0.427854	0.100188
O31	O	1.230699	-0.326476	-0.303848
O32	O	1.564033	0.006858	0.029485
O33	O	1.897366	0.340191	0.362818
O34	O	1.076551	-0.325750	-0.441202
O35	O	1.409884	0.007583	-0.107869
O36	O	1.743217	0.340916	0.225464
O37	O	1.207517	-0.418959	-0.705785
O38	O	1.540850	-0.085625	-0.372452
O39	O	1.874183	0.247708	-0.039119
O40	O	1.070134	-0.407235	-0.551609
O41	O	1.403467	-0.073902	-0.218276
O42	O	1.736800	0.259432	0.115057
O43	O	1.318027	-0.346357	-0.712195
O44	O	1.651360	-0.013024	-0.378862
O45	O	1.984693	0.320309	-0.045528
O46	O	1.332609	-0.516054	-0.455901
O47	O	1.665943	-0.182720	-0.122568
O48	O	1.999276	0.150613	0.210766
O49	O	1.215813	-0.515504	-0.559972
O50	O	1.549147	-0.182171	-0.226639
O51	O	1.882480	0.151163	0.106695
C52	C	1.040717	-0.365100	-0.494524
C53	C	1.374051	-0.031767	-0.161191
C54	C	1.707384	0.301567	0.172143
C55	C	0.940775	-0.360848	-0.488779
C56	C	1.274109	-0.027515	-0.155445
C57	C	1.607442	0.305818	0.177888
C58	C	0.746349	-0.437828	-0.592795
C59	C	1.079682	-0.104495	-0.259462
C60	C	1.413016	0.228838	0.073872
C61	C	0.652444	-0.433836	-0.587400
C62	C	0.985778	-0.100502	-0.254067
C63	C	1.319111	0.232831	0.079267
C64	C	0.659060	-0.348868	-0.472599
C65	C	0.992393	-0.015535	-0.139265
C66	C	1.325726	0.317799	0.194068
C67	C	0.752964	-0.352861	-0.477994
C68	C	1.086297	-0.019527	-0.144660
C69	C	1.419631	0.313806	0.188673
C70	C	0.796605	-0.397343	-0.538093
C71	C	1.129939	-0.064010	-0.204760
C72	C	1.463272	0.269324	0.128574
C73	C	0.890512	-0.401338	-0.543483
C74	C	1.223845	-0.068005	-0.210150
C75	C	1.557179	0.265329	0.123184
C76	C	0.897125	-0.316368	-0.428687
C77	C	1.230458	0.016965	-0.095353
C78	C	1.563792	0.350299	0.237980
C79	C	0.803221	-0.312375	-0.423292
C80	C	1.136554	0.020958	-0.089958
C81	C	1.469887	0.354291	0.243375
C82	C	1.274215	-0.538620	-0.507947
C83	C	1.607549	-0.205287	-0.174613
C84	C	1.940882	0.128047	0.158720
C85	C	1.274247	-0.608590	-0.507957
C86	C	1.607580	-0.275256	-0.174624
C87	C	1.940913	0.058077	0.158709
C88	C	1.335110	-0.641726	-0.453830
C89	C	1.668443	-0.308393	-0.120496
C90	C	2.001777	0.024941	0.212837
C91	C	1.335151	-0.707471	-0.453852
C92	C	1.668484	-0.374138	-0.120519
C93	C	2.001818	-0.040804	0.212814
C94	C	1.274313	-0.740076	-0.507992
C95	C	1.607646	-0.406743	-0.174659
C96	C	1.940980	-0.073410	0.158674
C97	C	1.213445	-0.706932	-0.562131
C98	C	1.546778	-0.373599	-0.228798
C99	C	1.880112	-0.040266	0.104536
C100	C	1.213412	-0.641189	-0.562114
C101	C	1.546745	-0.307856	-0.228780
C102	C	1.880078	0.025478	0.104553
N103	N	1.195260	-0.840247	-0.510308
N104	N	1.528594	-0.506914	-0.176975
N105	N	1.861927	-0.173581	0.156358
N106	N	1.195295	-0.902701	-0.510320
N107	N	1.528628	-0.569367	-0.176986
N108	N	1.861961	-0.236034	0.156347
C109	C	1.274411	-0.938157	-0.508050
C110	C	1.607744	-0.604824	-0.174716
C111	C	1.941078	-0.271491	0.158617
N112	N	1.353494	-0.908801	-0.505750
N113	N	1.686827	-0.575467	-0.172417
N114	N	2.020161	-0.242134	0.160917
N115	N	1.353459	-0.846341	-0.505734
N116	N	1.686792	-0.513008	-0.172401
N117	N	2.020125	-0.179675	0.160933
C118	C	1.274343	-0.811364	-0.508018
C119	C	1.607676	-0.478031	-0.174684
C120	C	1.941009	-0.144697	0.158649
C121	C	1.335324	-1.042582	-0.453944
C122	C	1.668657	-0.709249	-0.120610
C123	C	2.001990	-0.375915	0.212723
C124	C	1.335366	-1.108328	-0.453973
C125	C	1.668699	-0.774995	-0.120639
C126	C	2.002033	-0.441662	0.212694
C127	C	1.213652	-1.107788	-0.562246
C128	C	1.546985	-0.774455	-0.228913
C129	C	1.880319	-0.441121	0.104420
C130	C	1.213618	-1.042043	-0.562223
C131	C	1.546951	-0.708710	-0.228889
C132	C	1.880284	-0.375377	0.104444
C133	C	1.274453	-1.009444	-0.508066
C134	C	1.607786	-0.676111	-0.174733
C135	C	1.941119	-0.342777	0.158600
C136	C	1.508856	-0.385090	-0.521536
C137	C	1.842189	-0.051757	-0.188203
C138	C	2.175522	0.281577	0.145131
C139	C	1.608796	-0.389358	-0.527303
C140	C	1.942130	-0.056024	-0.193970
C141	C	2.275463	0.277309	0.139364
C142	C	1.260843	-0.383923	-0.742527
C143	C	1.594176	-0.050590	-0.409194
C144	C	1.927510	0.282743	-0.075861
C145	C	1.255096	-0.387694	-0.842467
C146	C	1.588429	-0.054360	-0.509134
C147	C	1.921762	0.278973	-0.175801
C148	C	1.274469	-0.210894	-0.508081
C149	C	1.607802	0.122440	-0.174748
C150	C	1.941136	0.455773	0.158585
C151	C	1.274528	-0.140929	-0.508114
C152	C	1.607862	0.192404	-0.174781
C153	C	1.941195	0.525737	0.158552
C154	C	1.359367	-0.319164	-1.036941
C155	C	1.692700	0.014169	-0.703608
C156	C	2.026034	0.347502	-0.370275
C157	C	1.353969	-0.322705	-1.130844
C158	C	1.687303	0.010629	-0.797511
C159	C	2.020636	0.343962	-0.464177
C160	C	1.238899	-0.398312	-1.124177
C161	C	1.572233	-0.064979	-0.790844
C162	C	1.905566	0.268355	-0.457510
C163	C	1.244297	-0.394771	-1.030274
C164	C	1.577630	-0.061438	-0.696941
C165	C	1.910963	0.271895	-0.363608
C166	C	1.304533	-0.355197	-0.986660
C167	C	1.637867	-0.021863	-0.653327
C168	C	1.971200	0.311470	-0.319993
C169	C	1.309935	-0.351660	-0.892756
C170	C	1.643268	-0.018327	-0.559422
C171	C	1.976602	0.315007	-0.226089
C172	C	1.194861	-0.427263	-0.886090
C173	C	1.528194	-0.093930	-0.552757
C174	C	1.861528	0.239403	-0.219424
C175	C	1.189463	-0.430804	-0.979993
C176	C	1.522797	-0.097471	-0.646660
C177	C	1.856130	0.235863	-0.313326
C178	C	1.287817	-0.366218	-0.274395
C179	C	1.621150	-0.032885	0.058938
C180	C	1.954484	0.300448	0.392272
C181	C	1.293739	-0.362278	-0.174465
C182	C	1.627072	-0.028945	0.158868
C183	C	1.960405	0.304389	0.492201
H184	H	0.767675	-0.276158	-0.374363
H185	H	1.101008	0.057176	-0.041030
H186	H	1.434341	0.390509	0.292304
F187	F	1.423483	-0.277053	-0.990522
F188	F	1.756816	0.056280	-0.657189
F189	F	2.090149	0.389613	-0.323855
H190	H	0.781883	-0.474051	-0.641725
H191	H	1.115216	-0.140717	-0.308392
H192	H	1.448549	0.192616	0.024941
H193	H	1.164120	-1.134335	-0.606333
H194	H	1.497454	-0.801002	-0.272999
H195	H	1.830787	-0.467668	0.060334
H196	H	1.384934	-1.135307	-0.409897
H197	H	1.718267	-0.801974	-0.076564
H198	H	2.051600	-0.468641	0.256769
F199	F	1.412329	-0.284353	-1.184354
F200	F	1.745663	0.048980	-0.851021
F201	F	2.078996	0.382314	-0.517687
F202	F	0.598961	-0.476924	-0.645623
F203	F	0.932294	-0.143591	-0.312290
F204	F	1.265627	0.189742	0.021043
H205	H	1.164053	-1.015062	-0.606295
H206	H	1.497387	-0.681728	-0.272961
H207	H	1.830720	-0.348395	0.060372
H208	H	0.623510	-0.312649	-0.423674
H209	H	0.956843	0.020684	-0.090341
H210	H	1.290177	0.354018	0.242992
H211	H	0.938054	-0.283403	-0.384142
H212	H	1.271388	0.049930	-0.050809
H213	H	1.604721	0.383264	0.282525
F214	F	1.148700	-0.741634	-0.619754
F215	F	1.482034	-0.408301	-0.286421
F216	F	1.815367	-0.074968	0.046912
F217	F	1.399866	-0.607036	-0.396202
F218	F	1.733199	-0.273703	-0.062868
F219	F	2.066532	0.059631	0.270465
F220	F	1.174791	-0.440422	-1.170610
F221	F	1.508124	-0.107089	-0.837276
F222	F	1.841457	0.226245	-0.503943
F223	F	1.399932	-0.742744	-0.396239
F224	F	1.733265	-0.409411	-0.062905
F225	F	2.066599	-0.076078	0.270428
F226	F	1.148630	-0.605922	-0.619727
F227	F	1.481963	-0.272589	-0.286393
F228	F	1.815296	0.060745	0.046940
F229	F	1.400068	-1.007885	-0.396306
F230	F	1.733401	-0.674552	-0.062973
F231	F	2.066735	-0.341218	0.270361
H232	H	1.150214	-0.456605	-0.845141
H233	H	1.483547	-0.123272	-0.511808
H234	H	1.816880	0.210061	-0.178474
H235	H	1.358984	-0.319437	-0.857246
H236	H	1.692317	0.013896	-0.523913
H237	H	2.025651	0.347229	-0.190580
H238	H	0.926043	-0.437559	-0.592417
H239	H	1.259377	-0.104225	-0.259084
H240	H	1.592710	0.229108	0.074249
F241	F	1.125357	-0.472918	-1.026420
F242	F	1.458691	-0.139585	-0.693087
F243	F	1.792024	0.193748	-0.359754
