data_functionalizedCrystal
_audit_creation_method	'MofGen! by Chris Wilmer'
_symmetry_space_group_name_H-M	'P1'
_symmetry_Int_Tables_number	1
_symmetry_cell_setting	triclinic
loop_
_symmetry_equiv_pos_as_xyz
  x,y,z
_cell_length_a	13.032831
_cell_length_b	16.120484
_cell_length_c	13.033109
_cell_angle_alpha	100.385715
_cell_angle_beta	76.665514
_cell_angle_gamma	86.078521
loop_
_atom_site_label
_atom_site_type_symbol
_atom_site_fract_x
_atom_site_fract_y
_atom_site_fract_z
Zn1	Zn	1.666952	-0.586070	-0.839395
Zn2	Zn	1.637544	-0.705199	-0.668483
Zn3	Zn	1.469071	-0.545521	-0.637006
Zn4	Zn	1.482563	-0.705126	-0.823523
O5	O	1.564032	-0.635479	-0.742102
O6	O	1.810726	-0.618873	-0.836539
O7	O	1.597241	-0.667078	-0.514723
O8	O	1.501982	-0.434248	-0.657323
O9	O	1.789119	-0.706397	-0.710971
O10	O	1.647364	-0.464039	-0.806017
O11	O	1.473465	-0.549763	-0.491596
O12	O	1.323186	-0.549692	-0.641932
O13	O	1.524976	-0.706272	-0.975214
O14	O	1.333099	-0.666953	-0.778966
O15	O	1.660447	-0.618802	-0.986875
O16	O	1.610324	-0.821841	-0.695581
O17	O	1.496460	-0.821787	-0.809488
C18	C	1.289852	-0.603915	-0.705312
C19	C	1.172559	-0.590435	-0.689599
C20	C	1.551696	-0.852066	-0.754255
C21	C	1.546520	-0.944738	-0.759502
C22	C	1.125182	-0.642514	-0.750302
C23	C	1.003953	-0.628583	-0.734064
C24	C	1.537077	-1.114414	-0.769106
C25	C	1.591179	-1.155726	-0.715141
C26	C	1.585925	-1.250140	-0.720484
C27	C	1.542330	-1.019992	-0.763764
C28	C	1.839283	-0.667166	-0.779037
C29	C	1.956579	-0.680669	-0.794776
C30	C	1.597497	-0.667052	-1.020915
C31	C	1.611758	-0.680506	-1.139728
C32	C	1.576448	-0.418052	-0.729929
C33	C	1.581739	-0.325397	-0.724742
C34	C	1.556873	-0.628459	-1.181256
C35	C	1.571611	-0.642364	-1.304056
C36	C	1.530762	-0.603976	-0.464379
C37	C	1.516719	-0.590310	-0.345580
H38	H	1.174370	-0.697412	-0.814298
O39	O	1.640820	-0.707707	-1.370139
C40	C	1.719367	-0.675352	-1.441216
H41	H	1.725611	-0.606657	-1.404707
H42	H	1.696983	-0.678236	-1.521238
C43	C	1.819302	-0.813283	-1.504918
C44	C	1.826978	-0.728913	-1.460073
H45	H	1.885681	-0.846324	-1.516555
H46	H	1.766382	-0.835083	-1.457036
H47	H	1.800645	-0.815674	-1.571598
H48	H	1.845622	-0.726522	-1.393389
H49	H	1.879904	-0.707115	-1.507945
H50	H	0.954769	-0.573676	-0.670072
H51	H	1.486816	-1.149951	-0.819315
H52	H	1.498970	-0.573609	-1.125898
O53	O	1.113989	-0.524975	-0.613119
C54	C	1.126985	-0.534076	-0.511128
H55	H	1.204936	-0.575000	-0.521298
H56	H	1.058207	-0.565727	-0.469188
C57	C	1.033049	-0.395719	-0.430142
C58	C	1.128795	-0.445976	-0.442632
H59	H	1.034161	-0.341375	-0.387888
H60	H	1.024290	-0.389588	-0.498854
H61	H	0.975745	-0.422105	-0.395196
H62	H	1.186096	-0.419595	-0.477589
H63	H	1.137564	-0.452100	-0.373924
O64	O	1.015091	-0.746192	-0.871206
C65	C	0.947496	-0.791922	-0.924473
H66	H	0.871299	-0.749241	-0.915876
H67	H	0.927497	-0.849405	-0.887189
C68	C	1.097191	-0.874303	-1.055196
C69	C	1.003607	-0.821879	-1.044645
H70	H	1.131803	-0.892786	-1.129323
H71	H	1.142732	-0.843497	-1.019307
H72	H	1.080512	-0.922199	-1.024120
H73	H	1.020289	-0.773979	-1.075709
H74	H	0.958070	-0.852678	-1.080542
H75	H	1.641442	-1.120187	-0.664926
H76	H	1.458814	-0.535454	-1.290226
H77	H	1.669656	-0.735360	-1.195086
