data_functionalizedCrystal
_audit_creation_method	'MofGen! by Chris Wilmer'
_symmetry_space_group_name_H-M	'P1'
_symmetry_Int_Tables_number	1
_symmetry_cell_setting	triclinic
loop_
_symmetry_equiv_pos_as_xyz
  x,y,z
_cell_length_a	10.489741
_cell_length_b	27.731996
_cell_length_c	8.965430
_cell_angle_alpha	89.994463
_cell_angle_beta	89.998843
_cell_angle_gamma	83.580281
loop_
_atom_site_label
_atom_site_type_symbol
_atom_site_fract_x
_atom_site_fract_y
_atom_site_fract_z
O1	O	1.691023	0.068189	-0.123969
O2	O	1.319543	0.074590	-0.123994
O3	O	1.516855	0.001064	-0.123949
O4	O	1.493711	0.141715	-0.124015
O5	O	1.516838	0.001068	0.124130
O6	O	1.319526	0.074594	0.124084
O7	O	1.691006	0.068194	0.124110
Cu8	Cu	1.505265	0.071394	0.146749
Cu9	Cu	1.505284	0.071389	-0.146633
O10	O	1.493694	0.141719	0.124064
C11	C	1.272024	0.074109	0.000042
C12	C	1.130459	0.072662	0.000034
C13	C	1.064398	0.025880	0.000070
C14	C	0.971297	0.047977	-0.122253
C15	C	0.971314	0.047993	0.122333
C16	C	1.039223	0.094779	-0.122390
C17	C	1.039250	0.094788	0.122306
C18	C	0.946175	0.116919	-0.000047
C19	C	1.516371	-0.016944	0.000096
C20	C	1.514939	-0.070610	0.000111
C21	C	1.505938	-0.403385	-0.135190
C22	C	1.500501	-0.605078	-0.135217
O23	O	1.499750	-0.631156	-0.250224
N24	N	1.499816	-0.630297	0.000009
C25	C	1.500483	-0.605089	0.135252
O26	O	1.499763	-0.631166	0.250270
C27	C	1.505911	-0.403397	0.135277
C28	C	1.506609	-0.378181	0.000042
C29	C	1.506634	-0.378170	-0.270415
C30	C	1.508001	-0.327750	-0.270407
C31	C	1.508671	-0.302546	-0.135174
C32	C	1.507975	-0.327761	0.000050
C33	C	1.506569	-0.378189	0.270518
C34	C	1.507923	-0.327763	0.270513
C35	C	1.508620	-0.302548	0.135277
C36	C	1.510012	-0.252138	0.135290
N37	N	1.510697	-0.226919	0.000064
C38	C	1.510026	-0.252123	-0.135169
C39	C	1.497635	-0.710980	0.135230
C40	C	1.496280	-0.761403	0.135224
C41	C	1.496296	-0.761389	-0.135246
C42	C	1.497660	-0.710965	-0.135239
C43	C	1.498320	-0.685761	0.000003
C44	C	1.512897	-0.146238	-0.135141
C45	C	1.514269	-0.095814	-0.135121
C46	C	1.514246	-0.095832	0.135347
C47	C	1.512881	-0.146252	0.135328
C48	C	1.512202	-0.171454	0.000072
O49	O	1.510749	-0.226028	0.250237
O50	O	1.510718	-0.226036	-0.250169
C51	C	1.504572	-0.453805	-0.135198
C52	C	1.503876	-0.479021	0.000026
C53	C	1.504547	-0.453817	0.135258
C54	C	1.502521	-0.529444	0.000020
C55	C	1.501851	-0.554648	-0.135212
C56	C	1.502535	-0.529429	-0.270439
C57	C	1.503902	-0.479009	-0.270431
C58	C	1.503862	-0.479035	0.270485
C59	C	1.502497	-0.529455	0.270466
C60	C	1.501827	-0.554660	0.135233
C61	C	1.738525	0.068675	0.000070
C62	C	1.880090	0.070121	0.000068
C63	C	1.494178	0.159727	0.000016
C64	C	1.495610	0.213393	-0.000009
N65	N	1.505260	0.071398	0.353098
N66	N	1.505299	0.071381	-0.352982
C67	C	1.413982	0.105390	0.450383
C68	C	1.529044	0.115170	0.549799
C69	C	1.390247	0.061622	0.549809
C70	C	1.620380	0.081200	0.450325
C71	C	1.481507	0.027633	0.450326
C72	C	1.596652	0.037395	0.549698
H73	H	1.514839	-0.075286	-0.245251
H74	H	1.512337	-0.166750	-0.245280
Br75	Br	0.921136	0.014992	0.294700
H76	H	1.508564	-0.307224	-0.380529
H77	H	0.941170	0.028180	-0.225652
Br78	Br	1.511965	-0.180476	0.318863
Br79	Br	1.089140	0.127743	-0.294952
Br80	Br	0.860940	0.181085	-0.000179
Br81	Br	1.285441	0.153343	0.377692
Br82	Br	1.089523	0.127758	0.294654
H83	H	1.506084	-0.398685	-0.380543
Br84	Br	1.515160	-0.061617	0.318868
Br85	Br	1.228109	0.047853	0.622653
H86	H	1.501995	-0.549960	-0.380550
H87	H	1.508441	-0.307244	0.380645
Br88	Br	1.725469	-0.010532	0.621935
H89	H	1.461353	-0.009359	0.406599
H90	H	1.498226	-0.690438	-0.245359
H91	H	1.495751	-0.781919	-0.245358
H92	H	1.495732	-0.781930	0.245346
H93	H	1.115797	-0.012578	-0.000065
Br94	Br	1.504849	-0.444796	-0.453975
H95	H	1.717681	0.089506	0.406810
Br96	Br	1.562581	0.176844	0.622623
Br97	Br	1.498519	-0.676782	0.318791
H98	H	1.506003	-0.398711	0.380642
H99	H	1.501939	-0.549982	0.380599
H100	H	1.504410	-0.458519	0.380610
