data_functionalizedCrystal
_audit_creation_method	'MofGen! by Chris Wilmer'
_symmetry_space_group_name_H-M	'P1'
_symmetry_Int_Tables_number	1
_symmetry_cell_setting	triclinic
loop_
_symmetry_equiv_pos_as_xyz
  x,y,z
_cell_length_a	16.625547
_cell_length_b	16.625545
_cell_length_c	21.395355
_cell_angle_alpha	89.983814
_cell_angle_beta	89.971219
_cell_angle_gamma	90.025495
loop_
_atom_site_label
_atom_site_type_symbol
_atom_site_fract_x
_atom_site_fract_y
_atom_site_fract_z
Zn1	Zn	1.232695	-0.321096	-0.354342
Zn2	Zn	1.232581	-0.455911	-0.249569
Zn3	Zn	1.097847	-0.321096	-0.249571
Zn4	Zn	1.097820	-0.455891	-0.354301
O5	O	1.165236	-0.388499	-0.301946
O6	O	1.345512	-0.338989	-0.340460
O7	O	1.214673	-0.438037	-0.161891
O8	O	1.115794	-0.208264	-0.263487
O9	O	1.345429	-0.438037	-0.263484
O10	O	1.214866	-0.208264	-0.340462
O11	O	1.115684	-0.338989	-0.161893
O12	O	0.985011	-0.338968	-0.263448
O13	O	1.115747	-0.438001	-0.441985
O14	O	0.984991	-0.438001	-0.340393
O15	O	1.214839	-0.338968	-0.442015
O16	O	1.214646	-0.568741	-0.263444
O17	O	1.115637	-0.568726	-0.340391
C18	C	0.955745	-0.388483	-0.301916
C19	C	0.866124	-0.388496	-0.301919
C20	C	0.793341	-0.388497	-0.301926
C21	C	0.702033	-0.388502	-0.301942
C22	C	0.629256	-0.388509	-0.301958
C23	C	0.537942	-0.388515	-0.301973
C24	C	1.165148	-0.597990	-0.301926
C25	C	1.165184	-0.687611	-0.301939
C26	C	1.165216	-0.760393	-0.301951
C27	C	1.165263	-0.851701	-0.301965
C28	C	1.165304	-0.924478	-0.301973
C29	C	1.165351	-1.015792	-0.301986
C30	C	1.375545	-0.388515	-0.301976
C31	C	1.465166	-0.388522	-0.301989
C32	C	1.165303	-0.388482	-0.465369
C33	C	1.165331	-0.388475	-0.535011
C34	C	1.165346	-0.178190	-0.301980
C35	C	1.165392	-0.088569	-0.301994
C36	C	1.216926	-0.336907	-0.567740
C37	C	1.216925	-0.336872	-0.633176
C38	C	1.165337	-0.388420	-0.665879
C39	C	1.113732	-0.439993	-0.633141
C40	C	1.113729	-0.440020	-0.567707
C41	C	1.158940	-0.461021	-0.769546
C42	C	1.158949	-0.460995	-0.834979
C43	C	1.165342	-0.388335	-0.867700
C44	C	1.171744	-0.315699	-0.834979
C45	C	1.171741	-0.315727	-0.769545
C46	C	1.165335	-0.388396	-0.736831
C47	C	1.216939	-0.336725	-0.971382
C48	C	1.216932	-0.336689	-1.036819
C49	C	1.113744	-0.439816	-1.036783
C50	C	1.113746	-0.439845	-0.971348
C51	C	1.165348	-0.388300	-0.938651
C52	C	1.165215	-0.388457	-0.139158
C53	C	1.165343	-0.388237	-0.069518
H54	H	1.258944	-0.294934	-0.541123
H55	H	1.258938	-0.294875	-0.659830
O56	O	1.177921	-0.245099	-0.737857
C57	C	1.183587	-0.180959	-0.780761
H58	H	1.156488	-0.200023	-0.827398
H59	H	1.149365	-0.126773	-0.761839
H60	H	1.249486	-0.164214	-0.787740
H61	H	1.258952	-0.294750	-0.944759
H62	H	1.176951	-0.256533	-0.861619
O63	O	1.267130	-0.286566	-1.068518
C64	C	1.312657	-0.241067	-1.025624
H65	H	1.315429	-0.274116	-0.978983
H66	H	1.376191	-0.232469	-1.044554
H67	H	1.283169	-0.179828	-1.018649
H68	H	1.071732	-0.481780	-1.063409
H69	H	1.071737	-0.481843	-0.944699
H70	H	1.153742	-0.520140	-0.861616
H71	H	1.071727	-0.481961	-0.659773
H72	H	1.153519	-0.520174	-0.742911
O73	O	1.063587	-0.490198	-0.536007
C74	C	1.018036	-0.535674	-0.578900
H75	H	1.051057	-0.538445	-0.625558
H76	H	1.009405	-0.599211	-0.559994
H77	H	0.956812	-0.506142	-0.585830
