data_functionalizedCrystal
_audit_creation_method	'MofGen! by Chris Wilmer'
_symmetry_space_group_name_H-M	'P1'
_symmetry_Int_Tables_number	1
_symmetry_cell_setting	triclinic
loop_
_symmetry_equiv_pos_as_xyz
  x,y,z
_cell_length_a	21.395362
_cell_length_b	21.295417
_cell_length_c	21.395356
_cell_angle_alpha	89.969378
_cell_angle_beta	89.957023
_cell_angle_gamma	90.046383
loop_
_atom_site_label
_atom_site_type_symbol
_atom_site_fract_x
_atom_site_fract_y
_atom_site_fract_z
Zn1	Zn	0.957854	-0.250358	-0.354573
Zn2	Zn	1.207854	-0.000358	-0.104573
Zn3	Zn	1.457854	0.249642	0.145427
Zn4	Zn	1.707854	0.499642	0.395427
Zn5	Zn	0.957759	-0.355627	-0.249790
Zn6	Zn	1.207759	-0.105627	0.000210
Zn7	Zn	1.457759	0.144373	0.250210
Zn8	Zn	1.707759	0.394373	0.500210
Zn9	Zn	0.853071	-0.250404	-0.249774
Zn10	Zn	1.103071	-0.000404	0.000226
Zn11	Zn	1.353071	0.249596	0.250226
Zn12	Zn	1.603071	0.499596	0.500226
Zn13	Zn	0.853039	-0.355623	-0.354495
Zn14	Zn	1.103039	-0.105623	-0.104495
Zn15	Zn	1.353039	0.144377	0.145505
Zn16	Zn	1.603039	0.394377	0.395505
O17	O	0.905431	-0.303003	-0.302158
O18	O	1.155431	-0.053003	-0.052158
O19	O	1.405431	0.196997	0.197842
O20	O	1.655431	0.446997	0.447842
O21	O	1.045520	-0.264305	-0.340713
O22	O	1.295520	-0.014305	-0.090713
O23	O	1.545520	0.235695	0.159287
O24	O	1.795520	0.485695	0.409287
O25	O	0.943846	-0.341690	-0.162110
O26	O	1.193846	-0.091690	0.087890
O27	O	1.443846	0.158310	0.337890
O28	O	1.693846	0.408310	0.587890
O29	O	0.867024	-0.162309	-0.263702
O30	O	1.117024	0.087691	-0.013702
O31	O	1.367024	0.337691	0.236298
O32	O	1.617024	0.587691	0.486298
O33	O	1.045450	-0.341645	-0.263729
O34	O	1.295450	-0.091645	-0.013729
O35	O	1.545450	0.158355	0.236271
O36	O	1.795450	0.408355	0.486271
O37	O	0.944008	-0.162275	-0.340697
O38	O	1.194008	0.087725	-0.090697
O39	O	1.444008	0.337725	0.159303
O40	O	1.694008	0.587725	0.409303
O41	O	0.866932	-0.264383	-0.162098
O42	O	1.116932	-0.014383	0.087902
O43	O	1.366932	0.235617	0.337902
O44	O	1.616932	0.485617	0.587902
O45	O	0.765389	-0.264380	-0.263626
O46	O	1.015389	-0.014380	-0.013626
O47	O	1.265389	0.235620	0.236374
O48	O	1.515389	0.485620	0.486374
O49	O	0.866969	-0.341638	-0.442183
O50	O	1.116969	-0.091638	-0.192183
O51	O	1.366969	0.158362	0.057817
O52	O	1.616969	0.408362	0.307817
O53	O	0.765365	-0.341683	-0.340564
O54	O	1.015365	-0.091683	-0.090564
O55	O	1.265365	0.158317	0.159436
O56	O	1.515365	0.408317	0.409436
O57	O	0.943977	-0.264301	-0.442240
O58	O	1.193977	-0.014301	-0.192240
O59	O	1.443977	0.235699	0.057760
O60	O	1.693977	0.485699	0.307760
O61	O	0.943814	-0.443716	-0.263653
O62	O	1.193814	-0.193716	-0.013653
O63	O	1.443814	0.056284	0.236347
O64	O	1.693814	0.306284	0.486347
O65	O	0.866877	-0.443713	-0.340579
O66	O	1.116877	-0.193713	-0.090579
O67	O	1.366877	0.056287	0.159421
O68	O	1.616877	0.306287	0.409421
C69	C	0.742643	-0.303036	-0.302085
C70	C	0.992643	-0.053036	-0.052085
C71	C	1.242643	0.196964	0.197915
C72	C	1.492643	0.446964	0.447915
C73	C	0.673002	-0.303066	-0.302069
C74	C	0.923002	-0.053066	-0.052069
C75	C	1.173002	0.196934	0.197931
C76	C	1.423002	0.446934	0.447931
C77	C	0.640293	-0.343371	-0.342070
C78	C	0.890293	-0.093371	-0.092070
C79	C	1.140293	0.156629	0.157930
C80	C	1.390293	0.406629	0.407930
C81	C	0.574858	-0.343356	-0.342098
C82	C	0.824858	-0.093356	-0.092098
C83	C	1.074858	0.156644	0.157902
C84	C	1.324858	0.406644	0.407902
C85	C	0.542134	-0.303042	-0.302114
C86	C	0.792134	-0.053042	-0.052114
C87	C	1.042134	0.196958	0.197886
C88	C	1.292134	0.446958	0.447886
C89	C	0.574851	-0.262728	-0.262109
C90	C	0.824851	-0.012728	-0.012109
C91	C	1.074851	0.237272	0.237891
C92	C	1.324851	0.487272	0.487891
C93	C	0.640285	-0.262741	-0.262087
C94	C	0.890285	-0.012741	-0.012087
C95	C	1.140285	0.237259	0.237913
C96	C	1.390285	0.487259	0.487913
C97	C	0.438410	-0.297979	-0.245709
C98	C	0.688410	-0.047979	0.004291
C99	C	0.938410	0.202021	0.254291
C100	C	1.188410	0.452021	0.504291
C101	C	0.372977	-0.297972	-0.245730
C102	C	0.622977	-0.047972	0.004270
C103	C	0.872977	0.202028	0.254270
C104	C	1.122977	0.452028	0.504270
C105	C	0.340313	-0.303000	-0.302183
C106	C	0.590313	-0.053000	-0.052183
C107	C	0.840313	0.197000	0.197817
C108	C	1.090313	0.447000	0.447817
C109	C	0.373090	-0.308050	-0.358616
C110	C	0.623090	-0.058050	-0.108616
C111	C	0.873090	0.191950	0.141384
C112	C	1.123090	0.441950	0.391384
C113	C	0.438524	-0.308062	-0.358594
C114	C	0.688524	-0.058062	-0.108594
C115	C	0.938524	0.191938	0.141406
C116	C	1.188524	0.441938	0.391406
C117	C	0.471181	-0.303024	-0.302134
C118	C	0.721181	-0.053024	-0.052134
C119	C	0.971181	0.196976	0.197866
C120	C	1.221181	0.446976	0.447866
C121	C	0.236651	-0.343291	-0.342218
C122	C	0.486651	-0.093291	-0.092218
C123	C	0.736651	0.156709	0.157782
C124	C	0.986651	0.406709	0.407782
C125	C	0.171215	-0.343271	-0.342247
C126	C	0.421215	-0.093271	-0.092247
C127	C	0.671215	0.156729	0.157753
C128	C	0.921215	0.406729	0.407753
C129	C	0.171209	-0.262647	-0.262252
C130	C	0.421209	-0.012647	-0.012252
C131	C	0.671209	0.237353	0.237748
C132	C	0.921209	0.487353	0.487748
C133	C	0.236645	-0.262664	-0.262229
C134	C	0.486645	-0.012664	-0.012229
C135	C	0.736645	0.237336	0.237771
C136	C	0.986645	0.487336	0.487771
C137	C	0.269362	-0.302989	-0.302211
C138	C	0.519362	-0.052989	-0.052211
C139	C	0.769362	0.197011	0.197789
C140	C	1.019362	0.447011	0.447789
C141	C	0.905349	-0.466555	-0.302123
C142	C	1.155349	-0.216555	-0.052123
C143	C	1.405349	0.033445	0.197877
C144	C	1.655349	0.283445	0.447877
C145	C	0.905371	-0.536523	-0.302129
C146	C	1.155371	-0.286523	-0.052129
C147	C	1.405371	-0.036523	0.197871
C148	C	1.655371	0.213477	0.447871
C149	C	0.945468	-0.569370	-0.262115
C150	C	1.195468	-0.319370	-0.012115
C151	C	1.445468	-0.069370	0.237885
C152	C	1.695468	0.180630	0.487885
C153	C	0.945497	-0.635113	-0.262129
C154	C	1.195497	-0.385113	-0.012129
C155	C	1.445497	-0.135113	0.237871
C156	C	1.695497	0.114887	0.487871
C157	C	0.905418	-0.668005	-0.302151
C158	C	1.155418	-0.418005	-0.052151
C159	C	1.405418	-0.168005	0.197849
C160	C	1.655418	0.081995	0.447849
C161	C	0.865319	-0.635150	-0.342173
C162	C	1.115319	-0.385150	-0.092173
C163	C	1.365319	-0.135150	0.157827
C164	C	1.615319	0.114850	0.407827
C165	C	0.865295	-0.569409	-0.342162
C166	C	1.115295	-0.319409	-0.092162
C167	C	1.365295	-0.069409	0.157838
C168	C	1.615295	0.180591	0.407838
N169	N	0.850609	-0.771286	-0.306903
N170	N	1.100609	-0.521286	-0.056903
N171	N	1.350609	-0.271286	0.193097
N172	N	1.600609	-0.021286	0.443097
N173	N	0.850633	-0.833738	-0.306910
N174	N	1.100633	-0.583738	-0.056910
N175	N	1.350633	-0.333738	0.193090
N176	N	1.600633	-0.083738	0.443090
C177	C	0.905489	-0.866080	-0.302187
C178	C	1.155489	-0.616080	-0.052187
C179	C	1.405489	-0.366080	0.197813
C180	C	1.655489	-0.116080	0.447813
N181	N	0.960320	-0.833611	-0.297445
N182	N	1.210320	-0.583611	-0.047445
N183	N	1.460320	-0.333611	0.202555
N184	N	1.710320	-0.083611	0.452555
N185	N	0.960295	-0.771154	-0.297435
N186	N	1.210295	-0.521154	-0.047435
N187	N	1.460295	-0.271154	0.202565
N188	N	1.710295	-0.021154	0.452565
C189	C	0.905440	-0.739291	-0.302167
C190	C	1.155440	-0.489291	-0.052167
C191	C	1.405440	-0.239291	0.197833
C192	C	1.655440	0.010709	0.447833
C193	C	0.945621	-0.970213	-0.262186
C194	C	1.195621	-0.720213	-0.012186
C195	C	1.445621	-0.470213	0.237814
C196	C	1.695621	-0.220213	0.487814
C197	C	0.945651	-1.035956	-0.262204
C198	C	1.195651	-0.785956	-0.012204
C199	C	1.445651	-0.535956	0.237796
C200	C	1.695651	-0.285956	0.487796
C201	C	0.865467	-1.035993	-0.342245
C202	C	1.115467	-0.785993	-0.092245
C203	C	1.365467	-0.535993	0.157755
C204	C	1.615467	-0.285993	0.407755
C205	C	0.865442	-0.970250	-0.342230
C206	C	1.115442	-0.720250	-0.092230
C207	C	1.365442	-0.470250	0.157770
C208	C	1.615442	-0.220250	0.407770
C209	C	0.905518	-0.937364	-0.302197
C210	C	1.155518	-0.687364	-0.052197
C211	C	1.405518	-0.437364	0.197803
C212	C	1.655518	-0.187364	0.447803
C213	C	1.068854	-0.302970	-0.302231
C214	C	1.318854	-0.052970	-0.052231
C215	C	1.568854	0.197030	0.197769
C216	C	1.818854	0.447030	0.447769
C217	C	1.138496	-0.302956	-0.302262
C218	C	1.388496	-0.052956	-0.052262
C219	C	1.638496	0.197044	0.197738
C220	C	1.888496	0.447044	0.447738
C221	C	0.905480	-0.302964	-0.465581
C222	C	1.155480	-0.052964	-0.215581
C223	C	1.405480	0.197036	0.034419
C224	C	1.655480	0.447036	0.284419
C225	C	0.905501	-0.302947	-0.535223
C226	C	1.155501	-0.052947	-0.285223
C227	C	1.405501	0.197053	-0.035223
C228	C	1.655501	0.447053	0.214777
C229	C	0.905530	-0.138813	-0.302206
C230	C	1.155530	0.111187	-0.052206
C231	C	1.405530	0.361187	0.197794
C232	C	1.655530	0.611187	0.447794
C233	C	0.905573	-0.068845	-0.302227
C234	C	1.155573	0.181155	-0.052227
C235	C	1.405573	0.431155	0.197773
C236	C	1.655573	0.681155	0.447773
C237	C	0.865463	-0.262689	-0.567920
C238	C	1.115463	-0.012689	-0.317920
C239	C	1.365463	0.237311	-0.067920
C240	C	1.615463	0.487311	0.182080
C241	C	0.865461	-0.262678	-0.633355
C242	C	1.115461	-0.012678	-0.383355
C243	C	1.365461	0.237322	-0.133355
C244	C	1.615461	0.487322	0.116645
C245	C	0.905508	-0.302917	-0.666091
C246	C	1.155508	-0.052917	-0.416091
C247	C	1.405508	0.197083	-0.166091
C248	C	1.655508	0.447083	0.083909
C249	C	0.945549	-0.343183	-0.633386
C250	C	1.195549	-0.093183	-0.383386
C251	C	1.445549	0.156817	-0.133386
C252	C	1.695549	0.406817	0.116614
C253	C	0.945546	-0.343198	-0.567952
C254	C	1.195546	-0.093198	-0.317952
C255	C	1.445546	0.156802	-0.067952
C256	C	1.695546	0.406802	0.182048
C257	C	0.961960	-0.307851	-0.769796
C258	C	1.211960	-0.057851	-0.519796
C259	C	1.461960	0.192149	-0.269796
C260	C	1.711960	0.442149	-0.019796
C261	C	0.961965	-0.307831	-0.835229
C262	C	1.211965	-0.057831	-0.585229
C263	C	1.461965	0.192169	-0.335229
C264	C	1.711965	0.442169	-0.085229
C265	C	0.905518	-0.302875	-0.867912
C266	C	1.155518	-0.052875	-0.617912
C267	C	1.405518	0.197125	-0.367912
C268	C	1.655518	0.447125	-0.117912
C269	C	0.849066	-0.297925	-0.835153
C270	C	1.099066	-0.047925	-0.585153
C271	C	1.349066	0.202075	-0.335153
C272	C	1.599066	0.452075	-0.085153
C273	C	0.849063	-0.297940	-0.769719
C274	C	1.099063	-0.047940	-0.519719
C275	C	1.349063	0.202060	-0.269719
C276	C	1.599063	0.452060	-0.019719
C277	C	0.905516	-0.302906	-0.737043
C278	C	1.155516	-0.052906	-0.487043
C279	C	1.405516	0.197094	-0.237043
C280	C	1.655516	0.447094	0.012957
C281	C	0.865474	-0.262602	-0.971562
C282	C	1.115474	-0.012602	-0.721562
C283	C	1.365474	0.237398	-0.471562
C284	C	1.615474	0.487398	-0.221562
C285	C	0.865471	-0.262595	-1.036998
C286	C	1.115471	-0.012595	-0.786998
C287	C	1.365471	0.237405	-0.536998
C288	C	1.615471	0.487405	-0.286998
C289	C	0.945565	-0.343097	-1.037028
C290	C	1.195565	-0.093097	-0.787028
C291	C	1.445565	0.156903	-0.537028
C292	C	1.695565	0.406903	-0.287028
C293	C	0.945563	-0.343108	-0.971592
C294	C	1.195563	-0.093108	-0.721592
C295	C	1.445563	0.156892	-0.471592
C296	C	1.695563	0.406892	-0.221592
C297	C	0.905518	-0.302857	-0.938863
C298	C	1.155518	-0.052857	-0.688863
C299	C	1.405518	0.197143	-0.438863
C300	C	1.655518	0.447143	-0.188863
C301	C	0.905418	-0.302997	-0.139370
C302	C	1.155418	-0.052997	0.110630
C303	C	1.405418	0.197003	0.360630
C304	C	1.655418	0.447003	0.610630
C305	C	0.905518	-0.302836	-0.069729
C306	C	1.155518	-0.052836	0.180271
C307	C	1.405518	0.197164	0.430271
C308	C	1.655518	0.447164	0.680271
H309	H	0.464999	-0.293882	-0.199735
H310	H	0.714999	-0.043882	0.050265
H311	H	0.964999	0.206118	0.300265
H312	H	1.214999	0.456118	0.550265
C313	C	0.821183	-0.533275	-0.386176
C314	C	1.071183	-0.283275	-0.136176
C315	C	1.321183	-0.033275	0.113824
C316	C	1.571183	0.216725	0.363824
H317	H	0.797315	-0.562278	-0.410013
H318	H	1.047315	-0.312278	-0.160013
H319	H	1.297315	-0.062278	0.089987
H320	H	1.547315	0.187722	0.339987
H321	H	0.845126	-0.507579	-0.413500
H322	H	1.095126	-0.257579	-0.163500
H323	H	1.345126	-0.007579	0.086500
H324	H	1.595126	0.242421	0.336500
H325	H	0.793883	-0.507682	-0.362164
H326	H	1.043883	-0.257682	-0.112164
H327	H	1.293883	-0.007682	0.137836
H328	H	1.543883	0.242318	0.387836
H329	H	0.548203	-0.229903	-0.229555
H330	H	0.798203	0.020097	0.020445
H331	H	1.048203	0.270097	0.270445
H332	H	1.298203	0.520097	0.520445
H333	H	0.346497	-0.312144	-0.404586
H334	H	0.596497	-0.062144	-0.154586
H335	H	0.846497	0.187856	0.095414
H336	H	1.096497	0.437856	0.345414
C337	C	0.821232	-0.671329	-0.386195
C338	C	1.071232	-0.421329	-0.136195
C339	C	1.321232	-0.171329	0.113805
C340	C	1.571232	0.078671	0.363805
H341	H	0.826984	-0.715187	-0.380466
H342	H	1.076984	-0.465187	-0.130466
H343	H	1.326984	-0.215187	0.119534
H344	H	1.576984	0.034813	0.369534
H345	H	0.830376	-0.660517	-0.428302
H346	H	1.080376	-0.410517	-0.178302
H347	H	1.330376	-0.160517	0.071698
H348	H	1.580376	0.089483	0.321698
H349	H	0.779133	-0.660610	-0.376966
H350	H	1.029133	-0.410610	-0.126966
H351	H	1.279133	-0.160610	0.123034
H352	H	1.529133	0.089390	0.373034
H353	H	0.666927	-0.376206	-0.374628
H354	H	0.916927	-0.126206	-0.124628
H355	H	1.166927	0.123794	0.125372
H356	H	1.416927	0.373794	0.375372
H357	H	0.978174	-0.375860	-1.063680
H358	H	1.228174	-0.125860	-0.813680
H359	H	1.478174	0.124140	-0.563680
H360	H	1.728174	0.374140	-0.313680
C361	C	0.821382	-1.072164	-0.386271
C362	C	1.071382	-0.822164	-0.136271
C363	C	1.321382	-0.572164	0.113729
C364	C	1.571382	-0.322164	0.363729
H365	H	0.797499	-1.043182	-0.410103
H366	H	1.047499	-0.793182	-0.160103
H367	H	1.297499	-0.543182	0.089897
H368	H	1.547499	-0.293182	0.339897
H369	H	0.794104	-1.097861	-0.362276
H370	H	1.044104	-0.847861	-0.112276
H371	H	1.294104	-0.597861	0.137724
H372	H	1.544104	-0.347861	0.387724
H373	H	0.845351	-1.097759	-0.413608
H374	H	1.095351	-0.847759	-0.163608
H375	H	1.345351	-0.597759	0.086392
H376	H	1.595351	-0.347759	0.336392
H377	H	0.832853	-0.229916	-0.541276
H378	H	1.082853	0.020084	-0.291276
H379	H	1.332853	0.270084	-0.041276
H380	H	1.582853	0.520084	0.208724
H381	H	0.832789	-0.943504	-0.374811
H382	H	1.082789	-0.693504	-0.124811
H383	H	1.332789	-0.443504	0.125189
H384	H	1.582789	-0.193504	0.375189
C385	C	0.989601	-0.671252	-0.218107
C386	C	1.239601	-0.421252	0.031893
C387	C	1.489601	-0.171252	0.281893
C388	C	1.739601	0.078748	0.531893
H389	H	1.013461	-0.642251	-0.194261
H390	H	1.263461	-0.392251	0.055739
H391	H	1.513461	-0.142251	0.305739
H392	H	1.763461	0.107749	0.555739
H393	H	1.016899	-0.696852	-0.242107
H394	H	1.266899	-0.446852	0.007893
H395	H	1.516899	-0.196852	0.257893
H396	H	1.766899	0.053148	0.507893
H397	H	0.965645	-0.696941	-0.190783
H398	H	1.215645	-0.446941	0.059217
H399	H	1.465645	-0.196941	0.309217
H400	H	1.715645	0.053059	0.559217
H401	H	0.263291	-0.376123	-0.374777
H402	H	0.513291	-0.126123	-0.124777
H403	H	0.763291	0.123877	0.125223
H404	H	1.013291	0.373877	0.375223
C405	C	0.821414	-0.218344	-0.935557
C406	C	1.071414	0.031656	-0.685557
C407	C	1.321414	0.281656	-0.435557
C408	C	1.571414	0.531656	-0.185557
H409	H	0.797558	-0.194375	-0.964405
H410	H	1.047558	0.055625	-0.714405
H411	H	1.297558	0.305625	-0.464405
H412	H	1.547558	0.555625	-0.214405
H413	H	0.845388	-0.190913	-0.910053
H414	H	1.095388	0.059087	-0.660053
H415	H	1.345388	0.309087	-0.410053
H416	H	1.595388	0.559087	-0.160053
H417	H	0.794101	-0.242448	-0.910008
H418	H	1.044101	0.007552	-0.660008
H419	H	1.294101	0.257552	-0.410008
H420	H	1.544101	0.507552	-0.160008
H421	H	0.978255	-0.943436	-0.229590
H422	H	1.228255	-0.693436	0.020410
H423	H	1.478255	-0.443436	0.270410
H424	H	1.728255	-0.193436	0.520410
H425	H	0.666916	-0.229917	-0.229513
H426	H	0.916916	0.020083	0.020487
H427	H	1.166916	0.270083	0.270487
H428	H	1.416916	0.520083	0.520487
C429	C	0.786972	-0.292502	-0.733684
C430	C	1.036972	-0.042502	-0.483684
C431	C	1.286972	0.207498	-0.233684
C432	C	1.536972	0.457498	0.016316
H433	H	0.795057	-0.293217	-0.690034
H434	H	1.045057	-0.043217	-0.440034
H435	H	1.295057	0.206783	-0.190034
H436	H	1.545057	0.456783	0.059966
H437	H	0.760596	-0.326748	-0.744378
H438	H	1.010596	-0.076748	-0.494378
H439	H	1.260596	0.173252	-0.244378
H440	H	1.510596	0.423252	0.005622
H441	H	0.766961	-0.254177	-0.744403
H442	H	1.016961	-0.004177	-0.494403
H443	H	1.266961	0.245823	-0.244403
H444	H	1.516961	0.495823	0.005597
H445	H	0.978307	-1.062699	-0.229621
H446	H	1.228307	-0.812699	0.020379
H447	H	1.478307	-0.562699	0.270379
H448	H	1.728307	-0.312699	0.520379
H449	H	0.832858	-0.229892	-0.659982
H450	H	1.082858	0.020108	-0.409982
H451	H	1.332858	0.270108	-0.159982
H452	H	1.582858	0.520108	0.090018
C453	C	0.786970	-0.292491	-0.871095
C454	C	1.036970	-0.042491	-0.621095
C455	C	1.286970	0.207509	-0.371095
C456	C	1.536970	0.457509	-0.121095
H457	H	0.795054	-0.293203	-0.914757
H458	H	1.045054	-0.043203	-0.664757
H459	H	1.295054	0.206797	-0.414757
H460	H	1.545054	0.456797	-0.164757
H461	H	0.766947	-0.254179	-0.860378
H462	H	1.016947	-0.004179	-0.610378
H463	H	1.266947	0.245821	-0.360378
H464	H	1.516947	0.495821	-0.110378
H465	H	0.760605	-0.326752	-0.860333
H466	H	1.010605	-0.076752	-0.610333
H467	H	1.260605	0.173248	-0.360333
H468	H	1.510605	0.423248	-0.110333
C469	C	0.474580	-0.313614	-0.420663
C470	C	0.724580	-0.063614	-0.170663
C471	C	0.974580	0.186386	0.079337
C472	C	1.224580	0.436386	0.329337
H473	H	0.518227	-0.312906	-0.412561
H474	H	0.768227	-0.062906	-0.162561
H475	H	1.018227	0.187094	0.087439
H476	H	1.268227	0.437094	0.337439
H477	H	0.463922	-0.279405	-0.447088
H478	H	0.713922	-0.029405	-0.197088
H479	H	0.963922	0.220595	0.052912
H480	H	1.213922	0.470595	0.302912
H481	H	0.463841	-0.351966	-0.440628
H482	H	0.713841	-0.101966	-0.190628
H483	H	0.963841	0.148034	0.059372
H484	H	1.213841	0.398034	0.309372
C485	C	0.989593	-0.387480	-0.531983
C486	C	1.239593	-0.137480	-0.281983
C487	C	1.489593	0.112520	-0.031983
C488	C	1.739593	0.362520	0.218017
H489	H	1.013447	-0.411443	-0.560849
H490	H	1.263447	-0.161443	-0.310849
H491	H	1.513447	0.088557	-0.060849
H492	H	1.763447	0.338557	0.189151
H493	H	0.965609	-0.414916	-0.506429
H494	H	1.215609	-0.164916	-0.256429
H495	H	1.465609	0.085084	-0.006429
H496	H	1.715609	0.335084	0.243571
H497	H	1.016910	-0.363394	-0.506488
H498	H	1.266910	-0.113394	-0.256488
H499	H	1.516910	0.136606	-0.006488
H500	H	1.766910	0.386606	0.243512
C501	C	0.821427	-0.218308	-1.072965
C502	C	1.071427	0.031692	-0.822965
C503	C	1.321427	0.281692	-0.572965
C504	C	1.571427	0.531692	-0.322965
H505	H	0.797584	-0.194336	-1.044099
H506	H	1.047584	0.055664	-0.794099
H507	H	1.297584	0.305664	-0.544099
H508	H	1.547584	0.555664	-0.294099
H509	H	0.794111	-0.242384	-1.098464
H510	H	1.044111	0.007616	-0.848464
H511	H	1.294111	0.257616	-0.598464
H512	H	1.544111	0.507616	-0.348464
H513	H	0.845420	-0.190871	-1.098517
H514	H	1.095420	0.059129	-0.848517
H515	H	1.345420	0.309129	-0.598517
H516	H	1.595420	0.559129	-0.348517
H517	H	0.144584	-0.376091	-0.374825
H518	H	0.394584	-0.126091	-0.124825
H519	H	0.644584	0.123909	0.125175
H520	H	0.894584	0.373909	0.375175
H521	H	0.978168	-0.375889	-0.944970
H522	H	1.228168	-0.125889	-0.694970
H523	H	1.478168	0.124111	-0.444970
H524	H	1.728168	0.374111	-0.194970
C525	C	1.024059	-0.313275	-0.871257
C526	C	1.274059	-0.063275	-0.621257
C527	C	1.524059	0.186725	-0.371257
C528	C	1.774059	0.436725	-0.121257
H529	H	1.057674	-0.316240	-0.842423
H530	H	1.307674	-0.066240	-0.592423
H531	H	1.557674	0.183760	-0.342423
H532	H	1.807674	0.433760	-0.092423
H533	H	1.029593	-0.277192	-0.896797
H534	H	1.279593	-0.027192	-0.646797
H535	H	1.529593	0.222808	-0.396797
H536	H	1.779593	0.472808	-0.146797
H537	H	1.023220	-0.349762	-0.896772
H538	H	1.273220	-0.099762	-0.646772
H539	H	1.523220	0.150238	-0.396772
H540	H	1.773220	0.400238	-0.146772
C541	C	1.024055	-0.313299	-0.733851
C542	C	1.274055	-0.063299	-0.483851
C543	C	1.524055	0.186701	-0.233851
C544	C	1.774055	0.436701	0.016149
H545	H	1.057676	-0.316235	-0.762731
H546	H	1.307676	-0.066235	-0.512731
H547	H	1.557676	0.183765	-0.262731
H548	H	1.807676	0.433765	-0.012731
H549	H	1.023223	-0.349793	-0.708311
H550	H	1.273223	-0.099793	-0.458311
H551	H	1.523223	0.150207	-0.208311
H552	H	1.773223	0.400207	0.041689
H553	H	1.029579	-0.277221	-0.708343
H554	H	1.279579	-0.027221	-0.458343
H555	H	1.529579	0.222779	-0.208343
H556	H	1.779579	0.472779	0.041657
H557	H	0.978156	-0.375947	-0.660043
H558	H	1.228156	-0.125947	-0.410043
H559	H	1.478156	0.124053	-0.160043
H560	H	1.728156	0.374053	0.089957
C561	C	0.989556	-0.533199	-0.218088
C562	C	1.239556	-0.283199	0.031912
C563	C	1.489556	-0.033199	0.281912
C564	C	1.739556	0.216801	0.531912
H565	H	1.013445	-0.562181	-0.194263
H566	H	1.263445	-0.312181	0.055737
H567	H	1.513445	-0.062181	0.305737
H568	H	1.763445	0.187819	0.555737
H569	H	0.965597	-0.507598	-0.190754
H570	H	1.215597	-0.257598	0.059246
H571	H	1.465597	-0.007598	0.309246
H572	H	1.715597	0.242402	0.559246
H573	H	1.016838	-0.507508	-0.242091
H574	H	1.266838	-0.257508	0.007909
H575	H	1.516838	-0.007508	0.257909
H576	H	1.766838	0.242492	0.507909
H577	H	0.144566	-0.229820	-0.229699
H578	H	0.394566	0.020180	0.020301
H579	H	0.644566	0.270180	0.270301
H580	H	0.894566	0.520180	0.520301
C581	C	0.538870	-0.387656	-0.386138
C582	C	0.788870	-0.137656	-0.136138
C583	C	1.038870	0.112344	0.113862
C584	C	1.288870	0.362344	0.363862
H585	H	0.567727	-0.411664	-0.409955
H586	H	0.817727	-0.161664	-0.159955
H587	H	1.067727	0.088336	0.090045
H588	H	1.317727	0.338336	0.340045
H589	H	0.513416	-0.363574	-0.413478
H590	H	0.763416	-0.113574	-0.163478
H591	H	1.013416	0.136426	0.086522
H592	H	1.263416	0.386426	0.336522
H593	H	0.513273	-0.415060	-0.362156
H594	H	0.763273	-0.165060	-0.112156
H595	H	1.013273	0.084940	0.137844
H596	H	1.263273	0.334940	0.387844
H597	H	0.346295	-0.293864	-0.199778
H598	H	0.596295	-0.043864	0.050222
H599	H	0.846295	0.206136	0.300222
H600	H	1.096295	0.456136	0.550222
C601	C	0.272626	-0.218336	-0.218219
C602	C	0.522626	0.031664	0.031781
C603	C	0.772626	0.281664	0.281781
C604	C	1.022626	0.531664	0.531781
H605	H	0.243767	-0.194327	-0.194405
H606	H	0.493767	0.055673	0.055595
H607	H	0.743767	0.305673	0.305595
H608	H	0.993767	0.555673	0.555595
H609	H	0.298208	-0.190944	-0.242225
H610	H	0.548208	0.059056	0.007775
H611	H	0.798208	0.309056	0.257775
H612	H	1.048208	0.559056	0.507775
H613	H	0.298096	-0.242391	-0.190864
H614	H	0.548096	0.007609	0.059136
H615	H	0.798096	0.257609	0.309136
H616	H	1.048096	0.507609	0.559136
