data_functionalizedCrystal
_audit_creation_method	'MofGen! by Chris Wilmer'
_symmetry_space_group_name_H-M	'P1'
_symmetry_Int_Tables_number	1
_symmetry_cell_setting	triclinic
loop_
_symmetry_equiv_pos_as_xyz
  x,y,z
_cell_length_a	19.077105
_cell_length_b	12.594516
_cell_length_c	19.077271
_cell_angle_alpha	87.678591
_cell_angle_beta	89.892926
_cell_angle_gamma	87.712633
loop_
_atom_site_label
_atom_site_type_symbol
_atom_site_fract_x
_atom_site_fract_y
_atom_site_fract_z
Zn1	Zn	1.058317	-0.461397	-0.440456
Zn2	Zn	1.062974	-0.646817	-0.322958
Zn3	Zn	0.945534	-0.461992	-0.318247
Zn4	Zn	0.940795	-0.632471	-0.435712
O5	O	1.001905	-0.550669	-0.379343
O6	O	1.157268	-0.491749	-0.428826
O7	O	1.051327	-0.628552	-0.224000
O8	O	0.960530	-0.312969	-0.334471
O9	O	1.160689	-0.627975	-0.342502
O10	O	1.043391	-0.312532	-0.424258
O11	O	0.965045	-0.492762	-0.220539
O12	O	0.846573	-0.478851	-0.329872
O13	O	0.952453	-0.603525	-0.534674
O14	O	0.843092	-0.604101	-0.416173
O15	O	1.038796	-0.477838	-0.538159
O16	O	1.046732	-0.793858	-0.337902
O17	O	0.956968	-0.783318	-0.420742
C18	C	0.819336	-0.539985	-0.371997
C19	C	0.741231	-0.535439	-0.368871
C20	C	0.702746	-0.598621	-0.412264
C21	C	0.629358	-0.594335	-0.409330
C22	C	0.594457	-0.526872	-0.362999
C23	C	0.632948	-0.463683	-0.319604
C24	C	0.706334	-0.467964	-0.322542
C25	C	0.375168	-0.507059	-0.349405
C26	C	0.301777	-0.502785	-0.346468
C27	C	0.298192	-0.633436	-0.436196
C28	C	0.371580	-0.637716	-0.439127
C29	C	0.410064	-0.574523	-0.395735
N30	N	0.519443	-0.522492	-0.359997
N31	N	0.485077	-0.578898	-0.398740
C32	C	1.001859	-0.827208	-0.379334
C33	C	1.001903	-0.945515	-0.379357
C34	C	0.953077	-1.009076	-0.424380
C35	C	0.938537	-1.082986	-0.359574
C36	C	1.016507	-1.082406	-0.444177
C37	C	0.987330	-1.017867	-0.314515
C38	C	1.065329	-1.017280	-0.399162
C39	C	1.050814	-1.091163	-0.334313
C40	C	1.185187	-0.561396	-0.386719
C41	C	1.263291	-0.565967	-0.389862
C42	C	0.994576	-0.539015	-0.562626
C43	C	0.991453	-0.534048	-0.640731
C44	C	1.001970	-0.273051	-0.379368
C45	C	1.001997	-0.154746	-0.379379
C46	C	0.969053	-0.498512	-1.080183
C47	C	0.971991	-0.503175	-1.006795
C48	C	1.018378	-0.576210	-0.971903
C49	C	1.061836	-0.644579	-1.010402
C50	C	1.058901	-0.639911	-1.083788
C51	C	1.031976	-0.597749	-0.752616
C52	C	1.034906	-0.602415	-0.679224
C53	C	0.945061	-0.461008	-0.675623
C54	C	0.942127	-0.456350	-0.749010
C55	C	0.985588	-0.524716	-0.787503
N56	N	1.021381	-0.580980	-0.896890
N57	N	0.982588	-0.519940	-0.862515
C58	C	1.009246	-0.562204	-0.196775
C59	C	1.012506	-0.566879	-0.118676
H60	H	0.604526	-0.408748	-0.281883
C61	C	0.302021	-0.762996	-0.525188
C62	C	0.255890	-0.702882	-0.483900
H63	H	0.275904	-0.805870	-0.554639
H64	H	0.329581	-0.716639	-0.553257
H65	H	0.331857	-0.807261	-0.495667
H66	H	0.226057	-0.658610	-0.513422
H67	H	0.228318	-0.749244	-0.455829
C68	C	1.074263	-1.203167	-0.231515
C69	C	1.106610	-1.139323	-0.282868
H70	H	1.108708	-1.232905	-0.199757
H71	H	1.040856	-1.161182	-0.206697
H72	H	1.051295	-1.258723	-0.253264
H73	H	1.129573	-1.083762	-0.261119
H74	H	1.140029	-1.181310	-0.307688
H75	H	0.974954	-0.989544	-0.259689
H76	H	0.936606	-0.447505	-0.975457
H77	H	0.931277	-0.439041	-1.108586
H78	H	1.099609	-0.704042	-0.981987
C79	C	0.312687	-0.374050	-0.258076
C80	C	0.263412	-0.428618	-0.295541
H81	H	0.289000	-0.328263	-0.226640
H82	H	0.342375	-0.423735	-0.232290
H83	H	0.340096	-0.333131	-0.289893
H84	H	0.236006	-0.469544	-0.263724
H85	H	0.233711	-0.378927	-0.321329
H86	H	0.737668	-0.416508	-0.287210
H87	H	0.406493	-0.455611	-0.314066
H88	H	0.399991	-0.692654	-0.476853
C89	C	1.147997	-0.780160	-1.079981
C90	C	1.106663	-0.715065	-1.126103
H91	H	1.177483	-0.826560	-1.106106
H92	H	1.176031	-0.737183	-1.052445
H93	H	1.118508	-0.820899	-1.050122
H94	H	1.136153	-0.674320	-1.155959
H95	H	1.078627	-0.758047	-1.153652
C96	C	1.152798	-1.010540	-0.489712
C97	C	1.137659	-0.978153	-0.421794
H98	H	1.197449	-0.986376	-0.503690
H99	H	1.153239	-1.085938	-0.490300
H100	H	1.117977	-0.981254	-0.521211
H101	H	1.172477	-1.007447	-0.390294
H102	H	1.137224	-0.902741	-0.421201
H103	H	0.911718	-0.973219	-0.462395
C104	C	0.815083	-1.080434	-0.384172
C105	C	0.866186	-1.122075	-0.336966
H106	H	0.770418	-1.104569	-0.370219
H107	H	0.814404	-1.004971	-0.384411
H108	H	0.825767	-1.103540	-0.429899
H109	H	0.855505	-1.098963	-0.291239
H110	H	0.866863	-1.197554	-0.336719
C111	C	0.633187	-0.723937	-0.498295
C112	C	0.587056	-0.663805	-0.457018
H113	H	0.607070	-0.766834	-0.527731
H114	H	0.660741	-0.677592	-0.526379
H115	H	0.663029	-0.768181	-0.468766
H116	H	0.557217	-0.619556	-0.486547
H117	H	0.559490	-0.710156	-0.428931
H118	H	1.028822	-1.110855	-0.498985
H119	H	0.904351	-0.396882	-0.777414
C120	C	0.909669	-0.405367	-0.561528
C121	C	0.897298	-0.385854	-0.633310
H122	H	0.880185	-0.358960	-0.535409
H123	H	0.899842	-0.477033	-0.549084
H124	H	0.957370	-0.393324	-0.551410
H125	H	0.849599	-0.397905	-0.643429
H126	H	0.907120	-0.314172	-0.645759
C127	C	1.069991	-0.786092	-0.657988
C128	C	1.085895	-0.682703	-0.640865
H129	H	1.101468	-0.835656	-0.634308
H130	H	1.023257	-0.799655	-0.644066
H131	H	1.074474	-0.793086	-0.707203
H132	H	1.081407	-0.675708	-0.591650
H133	H	1.132640	-0.669137	-0.654783
C134	C	0.781516	-0.612437	-0.510070
C135	C	0.741108	-0.672778	-0.463193
H136	H	0.805201	-0.658220	-0.541510
H137	H	0.751823	-0.562754	-0.535852
H138	H	0.814939	-0.575428	-0.484638
H139	H	0.707682	-0.709781	-0.488625
H140	H	0.770804	-0.722480	-0.437409
C141	C	1.150050	-0.655135	-0.779958
C142	C	1.079749	-0.672907	-0.794910
H143	H	1.179545	-0.701543	-0.806065
H144	H	1.159868	-0.583469	-0.792413
H145	H	1.158415	-0.668357	-0.731254
H146	H	1.071383	-0.659676	-0.843614
H147	H	1.069927	-0.744588	-0.782460
