data_functionalizedCrystal
_audit_creation_method	'MofGen! by Chris Wilmer'
_symmetry_space_group_name_H-M	'P1'
_symmetry_Int_Tables_number	1
_symmetry_cell_setting	triclinic
loop_
_symmetry_equiv_pos_as_xyz
  x,y,z
_cell_length_a	9.730223
_cell_length_b	19.288864
_cell_length_c	19.288865
_cell_angle_alpha	96.863755
_cell_angle_beta	90.006547
_cell_angle_gamma	89.985960
loop_
_atom_site_label
_atom_site_type_symbol
_atom_site_fract_x
_atom_site_fract_y
_atom_site_fract_z
O1	O	0.114746	-0.921344	0.086645
O2	O	0.614746	-0.421344	0.586645
O3	O	0.114654	-0.719084	0.098333
O4	O	0.614654	-0.219084	0.598333
O5	O	0.114676	-0.826058	-0.008641
O6	O	0.614676	-0.326058	0.491359
O7	O	0.114725	-0.814370	0.193619
O8	O	0.614725	-0.314370	0.693619
O9	O	-0.113904	-0.826057	-0.008639
O10	O	0.386096	-0.326057	0.491361
O11	O	-0.113926	-0.719082	0.098336
O12	O	0.386074	-0.219082	0.598336
O13	O	-0.113834	-0.921343	0.086647
O14	O	0.386166	-0.421343	0.586647
Zn15	Zn	-0.150172	-0.820213	0.092492
Zn16	Zn	0.349828	-0.320213	0.592492
Zn17	Zn	0.150992	-0.820214	0.092489
Zn18	Zn	0.650992	-0.320214	0.592489
O19	O	-0.113855	-0.814368	0.193622
O20	O	0.386145	-0.314368	0.693622
C21	C	0.000352	-0.693207	0.097959
C22	C	0.500352	-0.193207	0.597959
C23	C	0.000316	-0.616103	0.096830
C24	C	0.500316	-0.116103	0.596830
N25	N	-0.355708	-0.820216	0.092494
N26	N	0.144292	-0.320216	0.592494
C27	C	0.000382	-0.825682	-0.034516
C28	C	0.500382	-0.325682	0.465484
C29	C	0.000369	-0.824553	-0.111620
C30	C	0.500369	-0.324553	0.388380
C31	C	-0.427625	-0.867597	0.045142
C32	C	0.072375	-0.367597	0.545142
C33	C	-0.571508	-0.867595	0.045133
C34	C	-0.071508	-0.367595	0.545133
C35	C	-0.571545	-0.772830	0.139836
C36	C	-0.071545	-0.272830	0.639836
C37	C	-0.427664	-0.772829	0.139841
C38	C	0.072336	-0.272829	0.639841
C39	C	-0.427604	-0.922311	-0.009532
C40	C	0.072396	-0.422311	0.490468
C41	C	-0.571487	-0.922309	-0.009541
C42	C	-0.071487	-0.422309	0.490459
N43	N	0.356529	-0.820216	0.092481
N44	N	0.856529	-0.320216	0.592481
C45	C	0.000471	-0.947220	0.087022
C46	C	0.500471	-0.447220	0.587022
C47	C	0.000517	-1.024324	0.088151
C48	C	0.500517	-0.524324	0.588151
C49	C	0.000353	-0.571407	0.159598
C50	C	0.500353	-0.071407	0.659598
C51	C	0.000368	-0.498960	0.158537
C52	C	0.500368	0.001040	0.658537
C53	C	0.000373	-0.471212	0.094705
C54	C	0.500373	0.028788	0.594705
C55	C	0.000329	-0.515918	0.031929
C56	C	0.500329	-0.015918	0.531929
C57	C	0.000300	-0.588364	0.032991
C58	C	0.500300	-0.088364	0.532991
C59	C	0.080489	-0.362951	0.044525
C60	C	0.580489	0.137049	0.544525
C61	C	0.080526	-0.290506	0.043465
C62	C	0.580526	0.209494	0.543465
C63	C	0.000456	-0.247767	0.091425
C64	C	0.500456	0.252233	0.591425
C65	C	-0.079634	-0.277479	0.140457
C66	C	0.420366	0.222521	0.640457
C67	C	-0.079663	-0.349924	0.141520
C68	C	0.420337	0.150076	0.641520
C69	C	0.000404	-0.392658	0.093546
C70	C	0.500404	0.107342	0.593546
C71	C	0.000507	-0.124514	0.153047
C72	C	0.500507	0.375486	0.653047
C73	C	0.000513	-0.052066	0.151984
C74	C	0.500513	0.447934	0.651984
C75	C	0.000488	-0.069026	0.025374
C76	C	0.500488	0.430974	0.525374
C77	C	0.000468	-0.141473	0.026439
C78	C	0.500468	0.358527	0.526439
C79	C	0.000484	-0.169212	0.090278
C80	C	0.500484	0.330788	0.590278
C81	C	0.000391	-0.887321	-0.156316
C82	C	0.500391	-0.387321	0.343684
C83	C	0.000412	-0.886260	-0.228763
C84	C	0.500412	-0.386260	0.271237
C85	C	0.000384	-0.822428	-0.256511
C86	C	0.500384	-0.322428	0.243489
C87	C	0.000370	-0.759652	-0.211805
C88	C	0.500370	-0.259652	0.288195
C89	C	0.000362	-0.760714	-0.139359
C90	C	0.500362	-0.260714	0.360641
C91	C	-0.079706	-0.772248	-0.364797
C92	C	0.420294	-0.272248	0.135203
C93	C	-0.079707	-0.771188	-0.437242
C94	C	0.420293	-0.271188	0.062758
C95	C	0.000413	-0.819148	-0.479956
C96	C	0.500413	-0.319148	0.020044
C97	C	0.080516	-0.868180	-0.450219
C98	C	0.580516	-0.368180	0.049781
C99	C	0.080509	-0.869242	-0.377774
C100	C	0.580509	-0.369242	0.122226
C101	C	0.000393	-0.821269	-0.335065
C102	C	0.500393	-0.321269	0.164935
C103	C	0.000460	-0.880770	-0.603209
C104	C	0.500460	-0.380770	-0.103209
C105	C	0.000490	-0.879707	-0.675657
C106	C	0.500490	-0.379707	-0.175657
C107	C	0.000434	-0.753097	-0.658697
C108	C	0.500434	-0.253097	-0.158697
C109	C	0.000418	-0.754162	-0.586250
C110	C	0.500418	-0.254162	-0.086250
C111	C	0.000424	-0.818000	-0.558511
C112	C	0.500424	-0.318000	-0.058511
C113	C	0.000442	-0.814745	0.219497
C114	C	0.500442	-0.314745	0.719497
C115	C	0.000464	-0.815874	0.296601
C116	C	0.500464	-0.315874	0.796601
H117	H	-0.369111	-0.734243	0.178393
H118	H	0.130889	-0.234243	0.678393
H119	H	0.000344	-0.709599	-0.102967
H120	H	0.500344	-0.209599	0.397033
H121	H	0.000394	-0.462561	0.209652
H122	H	0.500394	0.037439	0.709652
Br123	Br	-0.645900	-0.895166	-0.093297
Br124	Br	-0.145900	-0.395166	0.406703
Br125	Br	-0.362530	-0.903598	-0.098288
Br126	Br	0.137470	-0.403598	0.401712
H127	H	-0.630147	-0.734249	0.178384
H128	H	-0.130147	-0.234249	0.678384
H129	H	0.000271	-0.624756	-0.018124
H130	H	0.500271	-0.124756	0.481876
Br131	Br	0.000322	-0.478263	-0.054702
Br132	Br	0.500322	0.021737	0.445298
Br133	Br	-0.188425	-0.704650	-0.477593
Br134	Br	0.311575	-0.204650	0.022407
Br135	Br	-0.636541	-1.011046	0.009234
Br136	Br	-0.136541	-0.511046	0.509234
H137	H	-0.382950	-0.972545	0.006789
H138	H	0.117050	-0.472545	0.506789
Br139	Br	0.000372	-0.609050	0.246235
Br140	Br	0.500372	-0.109050	0.746235
H141	H	0.000445	-0.177866	-0.024674
H142	H	0.500445	0.322134	0.475326
H143	H	0.145746	-0.266320	0.003543
H144	H	0.645746	0.233680	0.503543
Br145	Br	-0.188354	-0.390247	0.208057
Br146	Br	0.311646	0.109753	0.708057
Br147	Br	0.000349	-0.673021	-0.249460
Br148	Br	0.500349	-0.173021	0.250540
Br149	Br	-0.188305	-0.219484	0.205553
Br150	Br	0.311695	0.280516	0.705553
Br151	Br	0.000438	-0.973958	-0.118673
Br152	Br	0.500438	-0.473958	0.381327
H153	H	0.000392	-0.703049	-0.549857
H154	H	0.500392	-0.203049	-0.049857
H155	H	0.000500	-0.147101	0.205028
H156	H	0.500500	0.352899	0.705028
H157	H	0.000535	-0.015674	0.203099
H158	H	0.500535	0.484326	0.703099
Br159	Br	-0.188450	-0.707153	-0.306834
Br160	Br	0.311550	-0.207153	0.193166
Br161	Br	0.189220	-0.935779	-0.337417
Br162	Br	0.689220	-0.435779	0.162583
Br163	Br	0.000473	-0.031377	-0.061257
Br164	Br	0.500473	0.468623	0.438743
H165	H	0.145700	-0.397744	0.005468
H166	H	0.645700	0.102256	0.505468
Br167	Br	0.000448	-0.971451	-0.289434
Br168	Br	0.500448	-0.471451	0.210566
H169	H	0.145758	-0.907233	-0.484997
H170	H	0.645758	-0.407233	0.015003
Br171	Br	0.000455	-0.967406	-0.565558
Br172	Br	0.500455	-0.467406	-0.065558
H173	H	0.000515	-0.930822	-0.712049
H174	H	0.500515	-0.430822	-0.212049
H175	H	0.000418	-0.701123	-0.681288
H176	H	0.500418	-0.201123	-0.181288
