data_functionalizedCrystal
_audit_creation_method	'MofGen! by Chris Wilmer'
_symmetry_space_group_name_H-M	'P1'
_symmetry_Int_Tables_number	1
_symmetry_cell_setting	triclinic
loop_
_symmetry_equiv_pos_as_xyz
  x,y,z
_cell_length_a	12.594517
_cell_length_b	12.594516
_cell_length_c	12.594509
_cell_angle_alpha	90.027875
_cell_angle_beta	90.021327
_cell_angle_gamma	90.011616
loop_
_atom_site_label
_atom_site_type_symbol
_atom_site_fract_x
_atom_site_fract_y
_atom_site_fract_z
Zn1	Zn	1.627298	-0.423716	0.601863
Zn2	Zn	1.627202	-0.601726	0.423885
Zn3	Zn	1.449302	-0.423761	0.423892
Zn4	Zn	1.449298	-0.601652	0.601815
O5	O	1.538275	-0.512714	0.512864
O6	O	1.776231	-0.447341	0.578271
O7	O	1.603565	-0.578169	0.274940
O8	O	1.472956	-0.274809	0.447522
O9	O	1.776161	-0.578124	0.447512
O10	O	1.603729	-0.274776	0.578277
O11	O	1.472863	-0.447419	0.274945
O12	O	1.300356	-0.447347	0.447476
O13	O	1.472948	-0.577998	0.750767
O14	O	1.300352	-0.578042	0.578196
O15	O	1.603724	-0.447269	0.750802
O16	O	1.603561	-0.750662	0.447466
O17	O	1.472855	-0.750608	0.578190
C18	C	1.261734	-0.512692	0.512832
C19	C	1.143429	-0.512709	0.512844
C20	C	1.074146	-0.441526	0.441881
C21	C	1.003343	-0.538615	0.415702
C22	C	1.003433	-0.415668	0.539042
C23	C	1.074183	-0.609849	0.486614
C24	C	1.074280	-0.486836	0.609999
C25	C	1.003508	-0.583991	0.583857
C26	C	1.538226	-0.789255	0.512845
C27	C	1.538302	-0.907560	0.512873
C28	C	1.609475	-0.976804	0.441848
C29	C	1.635486	-1.047501	0.538997
C30	C	1.512425	-1.047662	0.415785
C31	C	1.564362	-0.976698	0.610073
C32	C	1.441256	-0.976854	0.486796
C33	C	1.467229	-1.047519	0.584012
C34	C	1.815896	-0.512736	0.512896
C35	C	1.934201	-0.512745	0.512909
C36	C	1.538346	-0.512620	0.790485
C37	C	1.538377	-0.512581	0.908790
C38	C	1.538354	-0.235093	0.512906
C39	C	1.538387	-0.116787	0.512923
C40	C	1.538265	-0.512730	0.236323
C41	C	1.538441	-0.512470	0.118018
C42	C	1.467270	-0.583644	0.978025
C43	C	1.564392	-0.609650	1.048815
C44	C	1.441330	-0.486510	1.048799
C45	C	1.635550	-0.538638	0.978023
C46	C	1.512422	-0.415453	0.978000
C47	C	1.609612	-0.441422	1.048759
H48	H	1.105463	-0.464899	0.692108
H49	H	1.105163	-0.381389	0.381796
O50	O	0.966031	-0.564875	0.317805
C51	C	0.904411	-0.658066	0.325032
H52	H	0.928683	-0.704582	0.398772
H53	H	0.917903	-0.709001	0.251416
H54	H	0.816822	-0.635973	0.330752
H55	H	1.717593	-1.078536	0.561082
O56	O	1.681604	-0.369792	1.085538
C57	C	1.783780	-0.397600	1.049256
H58	H	1.785772	-0.485918	1.029498
H59	H	1.844651	-0.379707	1.113849
H60	H	1.803540	-0.349662	0.975087
O61	O	1.110967	-0.707808	0.459944
C62	C	1.073967	-0.735092	0.357842
H63	H	0.999212	-0.687614	0.339158
H64	H	1.054938	-0.823552	0.355234
H65	H	1.137829	-0.716176	0.296573
O66	O	0.966483	-0.317667	0.565328
C67	C	1.002452	-0.242865	0.490247
H68	H	1.076952	-0.274339	0.449627
H69	H	1.021557	-0.164887	0.532103
H70	H	0.937933	-0.228881	0.428302
O71	O	1.343365	-0.939842	0.460233
C72	C	1.316330	-0.975960	0.357748
H73	H	1.391788	-0.995830	0.311902
H74	H	1.270622	-0.911226	0.314033
H75	H	1.264719	-1.050028	0.364435
H76	H	1.407184	-0.643833	0.946967
O77	O	0.966778	-0.656046	0.655362
C78	C	1.003044	-0.758200	0.627396
H79	H	1.022747	-0.760113	0.539079
H80	H	0.938465	-0.819079	0.645176
H81	H	1.077245	-0.778015	0.675318
O82	O	1.485974	-0.317581	0.940900
C83	C	1.383524	-0.290448	0.976919
H84	H	1.337590	-0.365858	0.996804
H85	H	1.339860	-0.244776	0.912118
H86	H	1.390278	-0.238769	1.050956
O87	O	1.486387	-1.084721	0.317731
C88	C	1.561610	-1.048712	0.243088
H89	H	1.602106	-0.974135	0.274644
H90	H	1.519917	-1.029719	0.165019
H91	H	1.623633	-1.113161	0.229242
H92	H	1.586203	-0.945660	0.692271
O93	O	1.343310	-0.460376	1.085764
C94	C	1.268574	-0.535586	1.049746
H95	H	1.300074	-0.576170	0.975220
H96	H	1.190553	-0.493862	1.030667
H97	H	1.254659	-0.597541	1.114225
H98	H	1.407077	-1.078372	0.644167
O99	O	1.590449	-0.707646	1.085883
C100	C	1.515267	-0.782392	1.049830
H101	H	1.437770	-0.740069	1.029958
H102	H	1.500347	-0.843799	1.114603
H103	H	1.546887	-0.823752	0.975776
H104	H	1.717672	-0.560736	0.947064
H105	H	1.669674	-0.945753	0.381838
