data_functionalizedCrystal
_audit_creation_method	'MofGen! by Chris Wilmer'
_symmetry_space_group_name_H-M	'P1'
_symmetry_Int_Tables_number	1
_symmetry_cell_setting	triclinic
loop_
_symmetry_equiv_pos_as_xyz
  x,y,z
_cell_length_a	14.853569
_cell_length_b	14.853567
_cell_length_c	13.330367
_cell_angle_alpha	90.004582
_cell_angle_beta	89.994190
_cell_angle_gamma	96.364752
loop_
_atom_site_label
_atom_site_type_symbol
_atom_site_fract_x
_atom_site_fract_y
_atom_site_fract_z
O1	O	0.117704	-1.196369	-0.083357
O2	O	0.131725	-0.933910	-0.083375
O3	O	-0.006515	-1.072150	-0.083356
O4	O	0.255944	-1.058130	-0.083376
O5	O	-0.006519	-1.072130	0.083491
O6	O	0.131722	-0.933890	0.083473
O7	O	0.117700	-1.196349	0.083490
Cu8	Cu	0.124711	-1.065118	0.098716
Cu9	Cu	0.124714	-1.065142	-0.098600
O10	O	0.255941	-1.058110	0.083471
C11	C	0.131088	-0.900311	0.000047
C12	C	0.129184	-0.800228	0.000041
C13	C	-0.040106	-1.071504	0.000068
C14	C	-0.140189	-1.069600	0.000069
C15	C	0.118337	-1.229948	0.000066
C16	C	0.120241	-1.330032	0.000066
C17	C	-0.176566	-0.986589	0.000065
C18	C	-0.197855	-1.150822	0.000065
C19	C	-0.291889	-1.149035	0.000061
C20	C	-0.328266	-1.066024	0.000057
C21	C	-0.270608	-0.984800	0.000058
C22	C	-0.349554	-1.230258	0.000050
C23	C	-0.443594	-1.228475	0.000044
C24	C	-0.479972	-1.145463	0.000048
C25	C	-0.422309	-1.064235	0.000050
C26	C	-0.458685	-0.981224	0.000046
C27	C	-0.401023	-0.899996	0.000055
C28	C	-0.306987	-0.901788	0.000061
C29	C	-0.574009	-1.143670	0.000042
C30	C	-0.552728	-0.979435	0.000038
C31	C	0.289531	-1.058755	0.000045
C32	C	0.389615	-1.060660	0.000038
N33	N	0.124708	-1.065108	0.237497
C34	C	0.039019	-0.387693	0.000070
C35	C	0.203251	-0.366413	0.000056
C36	C	0.205041	-0.460447	0.000053
C37	C	0.123819	-0.518108	0.000057
C38	C	0.040806	-0.481736	0.000064
C39	C	0.288053	-0.496826	0.000036
C40	C	0.289846	-0.590866	0.000031
C41	C	0.208622	-0.648529	0.000042
C42	C	0.125606	-0.612151	0.000050
C43	C	0.044384	-0.669813	0.000054
C44	C	-0.038633	-0.633437	0.000069
C45	C	-0.040417	-0.539399	0.000074
C46	C	0.210407	-0.742566	0.000037
C47	C	0.046172	-0.763855	0.000047
N48	N	0.124710	-1.065159	-0.237382
C49	C	0.185903	-1.003926	0.710112
C50	C	0.063519	-1.126381	0.710097
C51	C	0.063516	-1.126371	0.605078
C52	C	0.124709	-1.065138	0.552572
C53	C	0.185904	-1.003916	0.605084
C54	C	0.002328	-1.187598	0.552558
C55	C	0.002323	-1.187591	0.447534
C56	C	0.063512	-1.126354	0.395025
C57	C	0.124710	-1.065128	0.447544
C58	C	0.185902	-1.003896	0.395037
C59	C	0.247096	-0.942665	0.447554
C60	C	0.247093	-0.942679	0.552576
C61	C	0.063515	-1.126340	0.290004
C62	C	0.185903	-1.003885	0.290009
H63	H	-0.582338	-0.911837	0.000045
Br64	Br	-0.073642	-0.338330	0.000099
Br65	Br	0.402508	-0.640225	0.000011
H66	H	-0.430653	-0.832408	0.000046
H67	H	-0.129613	-0.920455	0.000076
Br68	Br	0.268948	-0.920772	0.218758
H69	H	0.296924	-0.892813	0.404791
Br70	Br	-0.148486	-1.263474	0.000055
H71	H	0.296916	-0.892828	0.595341
Br72	Br	0.398276	-0.418570	0.000009
Br73	Br	-0.521842	-1.338711	0.000037
H74	H	0.013702	-1.176239	0.752851
Br75	Br	-0.064065	-0.842104	0.000064
H76	H	-0.260030	-0.835656	0.000066
H77	H	-0.319929	-1.297841	0.000115
Br78	Br	-0.019519	-1.209440	0.218738
Br79	Br	-0.652260	-1.253899	0.000014
H80	H	-0.047504	-1.237447	0.404781
Br81	Br	0.268943	-0.920825	0.781377
Br82	Br	-0.080709	-1.270705	0.623813
H83	H	-0.108005	-0.509773	0.000111
Br84	Br	0.323062	-0.791931	0.000005
Br85	Br	-0.148859	-0.711702	0.000062
H86	H	0.269379	-0.319460	0.000045
