data_functionalizedCrystal
_audit_creation_method	'MofGen! by Chris Wilmer'
_symmetry_space_group_name_H-M	'P1'
_symmetry_Int_Tables_number	1
_symmetry_cell_setting	triclinic
loop_
_symmetry_equiv_pos_as_xyz
  x,y,z
_cell_length_a	16.176319
_cell_length_b	17.699083
_cell_length_c	17.699083
_cell_angle_alpha	83.283015
_cell_angle_beta	90.007696
_cell_angle_gamma	90.000958
loop_
_atom_site_label
_atom_site_type_symbol
_atom_site_fract_x
_atom_site_fract_y
_atom_site_fract_z
O1	O	-0.068624	-1.004079	-0.095713
O2	O	0.431376	-0.504079	0.404287
O3	O	-0.068653	-0.783700	-0.108166
O4	O	0.431347	-0.283700	0.391834
O5	O	-0.068630	-0.900116	0.008250
O6	O	0.431370	-0.400116	0.508250
O7	O	-0.068647	-0.887663	-0.212129
O8	O	0.431353	-0.387663	0.287871
O9	O	0.068863	-0.900100	0.008257
O10	O	0.568863	-0.400100	0.508257
O11	O	0.068840	-0.783684	-0.108158
O12	O	0.568840	-0.283684	0.391842
O13	O	0.068869	-1.004063	-0.095706
O14	O	0.568869	-0.504063	0.404294
Cu15	Cu	0.081409	-0.893872	-0.101931
Cu16	Cu	0.581409	-0.393872	0.398069
Cu17	Cu	-0.081193	-0.893891	-0.101940
Cu18	Cu	0.418807	-0.393891	0.398060
O19	O	0.068846	-0.887647	-0.212121
O20	O	0.568846	-0.387647	0.287879
C21	C	0.000090	-0.755495	-0.107716
C22	C	0.500090	-0.255495	0.392284
C23	C	0.000079	-0.671477	-0.106377
C24	C	0.500079	-0.171477	0.393623
N25	N	0.195774	-0.893864	-0.101925
N26	N	0.695774	-0.393864	0.398075
N27	N	-0.195558	-0.893905	-0.101941
N28	N	0.304442	-0.393905	0.398059
C29	C	0.000116	-0.899662	0.036451
C30	C	0.500116	-0.399662	0.536451
C31	C	0.000116	-0.898323	0.120469
C32	C	0.500116	-0.398323	0.620469
C33	C	0.239048	-0.945429	-0.050397
C34	C	0.739048	-0.445429	0.449603
C35	C	0.325595	-0.945432	-0.050396
C36	C	0.825595	-0.445432	0.449604
C37	C	0.368867	-0.893875	-0.101927
C38	C	0.868867	-0.393875	0.398073
C39	C	0.325586	-0.842305	-0.153457
C40	C	0.825586	-0.342305	0.346543
C41	C	0.239041	-0.842299	-0.153454
C42	C	0.739041	-0.342299	0.346546
C43	C	0.674615	-0.842331	-0.153472
C44	C	1.174615	-0.342331	0.346528
C45	C	0.761166	-0.842344	-0.153473
C46	C	1.261166	-0.342344	0.346527
C47	C	0.761169	-0.945465	-0.050414
C48	C	1.261169	-0.445465	0.449586
C49	C	0.674624	-0.945458	-0.050410
C50	C	1.174624	-0.445458	0.449590
C51	C	0.631351	-0.893886	-0.101937
C52	C	1.131351	-0.393886	0.398063
C53	C	0.537507	-0.893882	-0.101937
C54	C	1.037507	-0.393882	0.398063
C55	C	0.462709	-0.893883	-0.101932
C56	C	0.962709	-0.393883	0.398068
C57	C	0.000074	-0.622856	-0.174710
C58	C	0.500074	-0.122856	0.325290
C59	C	0.000084	-0.543913	-0.173448
C60	C	0.500084	-0.043913	0.326552
C61	C	0.000093	-0.513592	-0.103852
C62	C	0.500093	-0.013592	0.396148
C63	C	0.000101	-0.562219	-0.035513
C64	C	0.500101	-0.062219	0.464487
C65	C	0.000097	-0.641161	-0.036776
C66	C	0.500097	-0.141161	0.463224
C67	C	0.000119	-0.243856	-0.030418
C68	C	0.500119	0.256144	0.469582
C69	C	0.000121	-0.164908	-0.029160
C70	C	0.500121	0.335092	0.470840
C71	C	0.000106	-0.146608	-0.167090
C72	C	0.500106	0.353392	0.332910
C73	C	0.000102	-0.225550	-0.168353
C74	C	0.500102	0.274450	0.331647
C75	C	0.000114	-0.274170	-0.100015
C76	C	0.500114	0.225830	0.399985
C77	C	0.000105	-0.359769	-0.101384
C78	C	0.500105	0.140231	0.398616
C79	C	0.000097	-0.427995	-0.102481
C80	C	0.500097	0.072005	0.397519
C81	C	0.000122	-0.032268	-0.096156
C82	C	0.500122	0.467732	0.403844
C83	C	0.000122	-0.116286	-0.097494
C84	C	0.500122	0.383714	0.402506
C85	C	0.000098	-0.888102	-0.240322
C86	C	0.500098	-0.388102	0.259678
C87	C	0.000092	-0.889440	-0.324340
C88	C	0.500092	-0.389440	0.175660
C89	C	0.000127	-0.966656	0.169090
C90	C	0.500127	-0.466656	0.669090
C91	C	0.000119	-0.965394	0.248033
C92	C	0.500119	-0.465394	0.748033
C93	C	0.000107	-0.895798	0.278354
C94	C	0.500107	-0.395798	0.778354
C95	C	0.000095	-0.827459	0.229727
C96	C	0.500095	-0.327459	0.729727
C97	C	0.000096	-0.828722	0.150785
C98	C	0.500096	-0.328722	0.650785
C99	C	0.000087	-0.822364	0.548090
C100	C	0.500087	-0.322364	1.048090
C101	C	0.000088	-0.821106	0.627038
C102	C	0.500088	-0.321106	1.127038
C103	C	0.000110	-0.959036	0.645338
C104	C	0.500110	-0.459036	1.145338
C105	C	0.000112	-0.960299	0.566396
C106	C	0.500112	-0.460299	1.066396
C107	C	0.000095	-0.891961	0.517776
C108	C	0.500095	-0.391961	1.017776
C109	C	0.000101	-0.893330	0.432177
C110	C	0.500101	-0.393330	0.932177
C111	C	0.000107	-0.894427	0.363951
C112	C	0.500107	-0.394427	0.863951
H113	H	0.360829	-0.987419	-0.008438
H114	H	0.860829	-0.487419	0.491562
O115	O	0.000109	-0.693606	0.036927
O116	O	0.500109	-0.193606	0.536927
H117	H	-0.055926	-0.730017	0.039649
H118	H	0.444074	-0.230017	0.539649
H119	H	0.000141	-1.023330	0.144409
H120	H	0.500141	-0.523330	0.644409
H121	H	0.000079	-0.504328	-0.229092
H122	H	0.500079	-0.004328	0.270908
H123	H	0.203808	-0.800309	-0.195412
H124	H	0.703808	-0.300309	0.304588
H125	H	0.000091	-0.250232	-0.225025
H126	H	0.500091	0.249768	0.274975
O127	O	0.000072	-0.655559	-0.249776
O128	O	0.500072	-0.155559	0.250224
H129	H	0.000081	-0.608484	-0.297079
H130	H	0.500081	-0.108484	0.202921
H131	H	0.000129	-1.021038	0.287618
H132	H	0.500129	-0.521038	0.787618
O133	O	0.627950	-1.001062	0.005173
O134	O	1.127950	-0.501062	0.505173
H135	H	0.672582	-1.036913	0.041011
H136	H	1.172582	-0.536913	0.541011
H137	H	0.000125	-1.016971	0.541714
H138	H	0.500125	-0.516971	1.041714
O139	O	0.000147	-0.132205	0.045910
O140	O	0.500147	0.367795	0.545910
H141	H	-0.055881	-0.151747	0.078749
H142	H	0.444119	0.348253	0.578749
O143	O	0.000121	-1.032749	0.697777
O144	O	0.500121	-0.532749	1.197777
H145	H	0.000110	-1.020183	0.757765
H146	H	0.500110	-0.520183	1.257765
H147	H	0.000130	-0.283434	0.025228
H148	H	0.500130	0.216566	0.525228
H149	H	0.000080	-0.764429	0.651721
H150	H	0.500080	-0.264429	1.151721
O151	O	0.807840	-1.001086	0.005173
O152	O	1.307840	-0.501086	0.505173
H153	H	0.875290	-0.992426	-0.003477
H154	H	1.375290	-0.492426	0.496523
O155	O	0.000113	-0.094165	-0.240800
O156	O	0.500113	0.405835	0.259200
H157	H	-0.055919	-0.057750	-0.243526
H158	H	0.444081	0.442250	0.256474
O159	O	0.000090	-0.748660	0.495653
O160	O	0.500090	-0.248660	0.995653
H161	H	0.000096	-0.700056	0.530002
H162	H	0.500096	-0.200056	1.030002
O163	O	0.000114	-0.529522	0.039555
O164	O	0.500114	-0.029522	0.539555
H165	H	0.000108	-0.466461	0.028955
H166	H	0.500108	0.033539	0.528955
O167	O	0.000091	-0.752391	0.262423
O168	O	0.500091	-0.252391	0.762423
H169	H	0.000103	-0.762991	0.325485
H170	H	0.500103	-0.262991	0.825485
O171	O	0.000094	-0.755021	0.098338
O172	O	0.500094	-0.255021	0.598338
H173	H	0.000095	-0.706413	0.132682
H174	H	0.500095	-0.206413	0.632682
H175	H	0.796396	-0.800357	-0.195437
H176	H	1.296396	-0.300357	0.304563
O177	O	0.192378	-1.001034	0.005186
O178	O	0.692378	-0.501034	0.505186
H179	H	0.237013	-1.036884	0.041022
H180	H	0.737013	-0.536884	0.541022
O181	O	0.627947	-0.786714	-0.209050
O182	O	1.127947	-0.286714	0.290950
H183	H	0.644542	-0.796256	-0.268040
H184	H	1.144542	-0.296256	0.231960
O185	O	0.372251	-0.786698	-0.209043
O186	O	0.872251	-0.286698	0.290957
H187	H	0.439702	-0.795370	-0.200397
H188	H	0.939702	-0.295370	0.299603
