data_functionalizedCrystal
_audit_creation_method	'MofGen! by Chris Wilmer'
_symmetry_space_group_name_H-M	'P1'
_symmetry_Int_Tables_number	1
_symmetry_cell_setting	triclinic
loop_
_symmetry_equiv_pos_as_xyz
  x,y,z
_cell_length_a	14.853567
_cell_length_b	9.065218
_cell_length_c	8.140239
_cell_angle_alpha	89.998670
_cell_angle_beta	90.001502
_cell_angle_gamma	84.325408
loop_
_atom_site_label
_atom_site_type_symbol
_atom_site_fract_x
_atom_site_fract_y
_atom_site_fract_z
O1	O	-1.197786	-0.192613	0.136493
O2	O	-0.935497	-0.215559	0.136521
O3	O	-1.072063	0.010664	0.136503
O4	O	-1.061220	-0.418836	0.136511
O5	O	-1.072059	0.010665	-0.136724
O6	O	-0.935492	-0.215557	-0.136706
O7	O	-1.197782	-0.192612	-0.136734
Zn8	Zn	-1.066636	-0.204084	-0.180101
Zn9	Zn	-1.066642	-0.204086	0.179888
O10	O	-1.061216	-0.418834	-0.136716
C11	C	-0.901898	-0.214518	-0.000089
C12	C	-0.801791	-0.211403	-0.000079
C13	C	-1.071019	0.065631	-0.000108
C14	C	-1.067903	0.229412	-0.000100
C15	C	-1.231381	-0.193652	-0.000120
C16	C	-1.331487	-0.196768	-0.000120
C17	C	-0.388166	-0.063852	-0.000118
C18	C	-0.368873	-0.332609	-0.000112
C19	C	-0.462929	-0.335539	-0.000106
C20	C	-0.519607	-0.202622	-0.000104
C21	C	-0.482230	-0.066777	-0.000108
C22	C	-0.500313	-0.471382	-0.000086
C23	C	-0.594374	-0.474316	-0.000079
C24	C	-0.651054	-0.341399	-0.000089
C25	C	-0.613672	-0.205548	-0.000094
C26	C	-0.670350	-0.072632	-0.000092
C27	C	-0.632969	0.063221	-0.000109
C28	C	-0.538910	0.066141	-0.000118
C29	C	-0.745113	-0.344319	-0.000081
C30	C	-0.764414	-0.075557	-0.000082
C31	C	-1.062260	-0.473801	-0.000102
C32	C	-1.065376	-0.637582	-0.000099
N33	N	-1.066639	-0.204082	-0.425783
N34	N	-1.066647	-0.204077	0.425570
H35	H	-0.679129	0.171441	-0.000097
C36	C	-0.347051	0.085580	-0.000137
C37	C	-0.367955	0.196033	-0.142022
C38	C	-0.326840	0.345465	-0.142043
C39	C	-0.264820	0.384443	-0.000179
C40	C	-0.243913	0.273987	0.141716
C41	C	-0.285029	0.124556	0.141737
H42	H	-0.413868	0.167181	-0.247048
H43	H	-0.342317	0.427232	-0.247084
H44	H	-0.234384	0.495062	-0.000194
H45	H	-0.198000	0.302839	0.246742
H46	H	-0.269552	0.042789	0.246778
H47	H	-0.775544	-0.454927	-0.000070
H48	H	-0.322721	-0.440823	-0.000099
H49	H	-0.454159	-0.579594	-0.000071
H50	H	-0.810556	0.032681	-0.000087
H51	H	-0.508466	0.176745	-0.000171
H52	H	-0.624801	-0.584935	-0.000065
