data_functionalizedCrystal
_audit_creation_method	'MofGen! by Chris Wilmer'
_symmetry_space_group_name_H-M	'P1'
_symmetry_Int_Tables_number	1
_symmetry_cell_setting	triclinic
loop_
_symmetry_equiv_pos_as_xyz
  x,y,z
_cell_length_a	10.654546
_cell_length_b	10.654551
_cell_length_c	9.730223
_cell_angle_alpha	90.000406
_cell_angle_beta	89.998853
_cell_angle_gamma	84.484456
loop_
_atom_site_label
_atom_site_type_symbol
_atom_site_fract_x
_atom_site_fract_y
_atom_site_fract_z
O1	O	1.667837	0.176372	-0.114314
O2	O	1.302358	0.193183	-0.114310
O3	O	1.493500	0.002038	-0.114309
O4	O	1.476696	0.367517	-0.114315
O5	O	1.493498	0.002043	0.114271
O6	O	1.302356	0.193188	0.114270
O7	O	1.667835	0.176377	0.114266
Zn8	Zn	1.485095	0.184783	0.150560
Zn9	Zn	1.485098	0.184777	-0.150604
O10	O	1.476693	0.367522	0.114265
C11	C	1.255559	0.191952	-0.000019
C12	C	1.116116	0.188262	-0.000018
C13	C	1.050622	0.186513	-0.124623
C14	C	0.919601	0.183036	-0.124634
C15	C	0.919580	0.183051	0.124576
C16	C	1.050597	0.186537	0.124586
C17	C	1.050634	0.186499	-0.268503
C18	C	0.919613	0.183021	-0.268514
C19	C	1.492265	-0.044757	-0.000021
C20	C	1.488572	-0.184200	-0.000028
C21	C	1.486840	-0.249707	-0.124628
C22	C	1.483360	-0.380727	-0.124629
C23	C	1.483349	-0.380724	0.124581
C24	C	1.486820	-0.249704	0.124581
C25	C	1.405170	-0.550801	-0.274326
C26	C	1.403460	-0.616315	-0.398933
C27	C	1.478054	-0.582778	-0.508945
C28	C	1.554389	-0.483733	-0.494355
C29	C	1.556111	-0.418227	-0.369746
C30	C	1.481487	-0.451759	-0.259739
C31	C	1.565021	-0.079629	0.274270
C32	C	1.566751	-0.014122	0.398880
C33	C	1.492165	-0.047658	0.508903
C34	C	1.415849	-0.146709	0.494327
C35	C	1.414118	-0.212216	0.369716
C36	C	1.488703	-0.178671	0.259693
C37	C	1.714634	0.177608	-0.000028
C38	C	1.854078	0.181298	-0.000038
C39	C	1.477929	0.414317	-0.000026
C40	C	1.481621	0.553760	-0.000029
N41	N	1.485102	0.184787	0.356096
N42	N	1.485101	0.184763	-0.356140
C43	C	1.569762	0.100177	0.428023
C44	C	1.569759	0.100162	0.571906
C45	C	1.400432	0.269377	0.571923
C46	C	1.400431	0.269386	0.428043
C47	C	1.667525	0.002485	0.428014
C48	C	1.667522	0.002470	0.571897
H49	H	0.867902	0.272461	-0.313174
H50	H	0.894799	0.094338	-0.323754
H51	H	1.764033	0.023987	0.610946
H52	H	0.866219	0.181648	0.226024
Br53	Br	1.489214	-0.160811	-0.293738
Br54	Br	1.314631	-0.192240	0.643651
Br55	Br	1.139475	0.188946	0.293699
H56	H	1.075454	0.275176	-0.323747
H57	H	1.102356	0.097056	-0.313136
H58	H	1.493591	0.005681	0.610371
Br59	Br	1.659700	-0.283821	-0.349934
Br60	Br	1.655650	-0.438242	-0.643657
Br61	Br	1.475752	-0.671709	-0.678042
H62	H	1.344412	-0.578106	-0.184760
Br63	Br	1.666276	-0.034129	0.124959
H64	H	1.331483	0.338270	0.369482
H65	H	1.481926	-0.434073	0.226033
Br66	Br	1.819491	0.053488	0.353616
H67	H	1.351970	-0.292867	0.357853
Br68	Br	1.616649	-0.149559	0.646277
Br69	Br	1.670344	0.120291	0.418672
Br70	Br	1.631788	-0.158403	0.362910
Br71	Br	1.299866	-0.750727	-0.418734
Br72	Br	1.285522	0.384181	0.669572
