data_functionalizedCrystal
_audit_creation_method	'MofGen! by Chris Wilmer'
_symmetry_space_group_name_H-M	'P1'
_symmetry_Int_Tables_number	1
_symmetry_cell_setting	triclinic
loop_
_symmetry_equiv_pos_as_xyz
  x,y,z
_cell_length_a	9.065215
_cell_length_b	9.065218
_cell_length_c	8.140239
_cell_angle_alpha	89.995101
_cell_angle_beta	90.002571
_cell_angle_gamma	94.984675
loop_
_atom_site_label
_atom_site_type_symbol
_atom_site_fract_x
_atom_site_fract_y
_atom_site_fract_z
O1	O	0.216356	-1.960396	0.136694
O2	O	0.549689	-1.627062	0.470027
O3	O	0.883023	-1.293729	0.803361
O4	O	0.234102	-1.531111	0.136678
O5	O	0.567436	-1.197777	0.470012
O6	O	0.900769	-0.864444	0.803345
O7	O	0.010586	-1.754629	0.136680
O8	O	0.343920	-1.421295	0.470013
O9	O	0.677253	-1.087962	0.803346
O10	O	0.439872	-1.736878	0.136693
O11	O	0.773205	-1.403544	0.470026
O12	O	1.106538	-1.070211	0.803360
O13	O	0.010584	-1.754616	-0.136548
O14	O	0.343917	-1.421283	0.196786
O15	O	0.677250	-1.087949	0.530119
O16	O	0.234100	-1.531098	-0.136549
O17	O	0.567433	-1.197765	0.196785
O18	O	0.900766	-0.864431	0.530118
O19	O	0.216353	-1.960383	-0.136533
O20	O	0.549687	-1.627050	0.196800
O21	O	0.883020	-1.293716	0.530134
Zn22	Zn	0.225226	-1.745739	-0.179922
Zn23	Zn	0.558559	-1.412405	0.153412
Zn24	Zn	0.891893	-1.079072	0.486745
Zn25	Zn	0.225230	-1.745755	0.180067
Zn26	Zn	0.558563	-1.412422	0.513400
Zn27	Zn	0.891896	-1.079088	0.846734
O28	O	0.439869	-1.736865	-0.136534
O29	O	0.773202	-1.403532	0.196799
O30	O	1.106536	-1.070198	0.530133
C31	C	0.232395	-1.476118	0.000063
C32	C	0.565729	-1.142784	0.333396
C33	C	0.899062	-0.809451	0.666730
C34	C	0.227296	-1.312275	0.000057
C35	C	0.560629	-0.978942	0.333390
C36	C	0.893962	-0.645608	0.666724
C37	C	-0.044402	-1.752917	0.000068
C38	C	0.288932	-1.419584	0.333401
C39	C	0.622265	-1.086251	0.666734
C40	C	-0.208245	-1.747819	0.000072
C41	C	0.125089	-1.414486	0.333406
C42	C	0.458422	-1.081153	0.666739
C43	C	0.494857	-1.738576	0.000081
C44	C	0.828190	-1.405243	0.333415
C45	C	1.161524	-1.071910	0.666748
C46	C	0.658700	-1.743674	0.000087
C47	C	0.992034	-1.410341	0.333421
C48	C	1.325367	-1.077008	0.666754
C49	C	0.218060	-1.015376	0.000076
C50	C	0.551393	-0.682043	0.333409
C51	C	0.884727	-0.348709	0.666742
C52	C	0.223159	-1.179219	0.000062
C53	C	0.556493	-0.845885	0.333395
C54	C	0.889826	-0.512552	0.666729
N55	N	0.225223	-1.745738	-0.425604
N56	N	0.558556	-1.412405	-0.092271
N57	N	0.891889	-1.079071	0.241063
N58	N	0.225221	-1.745767	0.425750
N59	N	0.558555	-1.412434	0.759083
N60	N	0.891888	-1.079100	1.092416
