data_functionalizedCrystal
_audit_creation_method	'MofGen! by Chris Wilmer'
_symmetry_space_group_name_H-M	'P1'
_symmetry_Int_Tables_number	1
_symmetry_cell_setting	triclinic
loop_
_symmetry_equiv_pos_as_xyz
  x,y,z
_cell_length_a	16.625546
_cell_length_b	18.215407
_cell_length_c	18.215399
_cell_angle_alpha	90.019833
_cell_angle_beta	89.970824
_cell_angle_gamma	89.977084
loop_
_atom_site_label
_atom_site_type_symbol
_atom_site_fract_x
_atom_site_fract_y
_atom_site_fract_z
Zn1	Zn	-0.321000	-1.125084	-0.416110
Zn2	Zn	0.179000	-0.625084	0.083890
Zn3	Zn	-0.455841	-1.124998	-0.293041
Zn4	Zn	0.044159	-0.624998	0.206959
Zn5	Zn	-0.321027	-1.002017	-0.293057
Zn6	Zn	0.178973	-0.502017	0.206943
Zn7	Zn	-0.455796	-1.001988	-0.416066
Zn8	Zn	0.044204	-0.501988	0.083934
O9	O	-0.388416	-1.063522	-0.354568
O10	O	0.111584	-0.563522	0.145432
O11	O	-0.338895	-1.228057	-0.399796
O12	O	0.161105	-0.728057	0.100204
O13	O	-0.437987	-1.108660	-0.190059
O14	O	0.062013	-0.608660	0.309941
O15	O	-0.208191	-1.018390	-0.309405
O16	O	0.291809	-0.518390	0.190595
O17	O	-0.437961	-1.227994	-0.309378
O18	O	0.062039	-0.727994	0.190622
O19	O	-0.208171	-1.108807	-0.399812
O20	O	0.291829	-0.608807	0.100188
O21	O	-0.338940	-1.018307	-0.190070
O22	O	0.161060	-0.518307	0.309930
O23	O	-0.338896	-0.899029	-0.309363
O24	O	0.161104	-0.399029	0.190637
O25	O	-0.437885	-1.018341	-0.519056
O26	O	0.062115	-0.518341	-0.019056
O27	O	-0.437910	-0.899008	-0.399737
O28	O	0.062090	-0.399008	0.100263
O29	O	-0.338851	-1.108779	-0.519088
O30	O	0.161149	-0.608779	-0.019088
O31	O	-0.568667	-1.108632	-0.309335
O32	O	-0.068667	-0.608632	0.190665
O33	O	-0.568634	-1.018257	-0.399721
O34	O	-0.068634	-0.518257	0.100279
C35	C	-0.388402	-0.872315	-0.354547
C36	C	0.111598	-0.372315	0.145453
C37	C	-0.388415	-0.790517	-0.354556
C38	C	0.111585	-0.290517	0.145444
C39	C	-0.597907	-1.063452	-0.354537
C40	C	-0.097907	-0.563452	0.145463
C41	C	-0.687528	-1.063490	-0.354549
C42	C	-0.187528	-0.563490	0.145451
C43	C	-0.388360	-1.063567	-0.546521
C44	C	0.111640	-0.563567	-0.046521
C45	C	-0.388336	-1.063586	-0.628320
C46	C	0.111664	-0.563586	-0.128320
C47	C	-1.015703	-1.063618	-0.354625
C48	C	-0.515703	-0.563618	0.145375
C49	C	-0.924395	-1.063580	-0.354606
C50	C	-0.424395	-0.563580	0.145394
C51	C	-0.851618	-1.063553	-0.354587
C52	C	-0.351618	-0.563553	0.145413
C53	C	-0.760304	-1.063516	-0.354568
C54	C	-0.260304	-0.563516	0.145432
C55	C	-0.178107	-1.063612	-0.354615
C56	C	0.321893	-0.563612	0.145385
C57	C	-0.088486	-1.063650	-0.354635
C58	C	0.411514	-0.563650	0.145365
C59	C	-0.388430	-1.255475	-0.354590
C60	C	0.111570	-0.755475	0.145410
C61	C	-0.388436	-1.337274	-0.354599
C62	C	0.111564	-0.837274	0.145401
C63	C	-0.440053	-0.602331	-0.401554
C64	C	0.059947	-0.102331	0.098446
C65	C	-0.440056	-0.525472	-0.401563
C66	C	0.059944	-0.025472	0.098437
C67	C	-0.336793	-0.525465	-0.307598
C68	C	0.163207	-0.025465	0.192402
C69	C	-0.336787	-0.602322	-0.307593
C70	C	0.163213	-0.102322	0.192407
C71	C	-0.388422	-0.640753	-0.354570
C72	C	0.111578	-0.140753	0.145430
C73	C	-0.388430	-0.487037	-0.354584
C74	C	0.111570	0.012963	0.145416
C75	C	-0.388433	-0.403703	-0.354594
C76	C	0.111567	0.096297	0.145406
C77	C	-0.388418	-0.724092	-0.354562
C78	C	0.111582	-0.224092	0.145438
C79	C	-0.336721	-1.110694	-0.816532
C80	C	0.163279	-0.610694	-0.316532
C81	C	-0.336698	-1.110703	-0.893391
C82	C	0.163302	-0.610703	-0.393391
C83	C	-0.439827	-1.016530	-0.893346
C84	C	0.060173	-0.516530	-0.393346
C85	C	-0.439846	-1.016518	-0.816489
C86	C	0.060154	-0.516518	-0.316489
C87	C	-0.388294	-1.063604	-0.778084
C88	C	0.111706	-0.563604	-0.278084
C89	C	-0.388252	-1.063625	-0.931800
C90	C	0.111748	-0.563625	-0.431800
C91	C	-0.388227	-1.063634	-1.015134
C92	C	0.111773	-0.563634	-0.515134
C93	C	-0.388318	-1.063594	-0.694745
C94	C	0.111682	-0.563594	-0.194745
C95	C	-0.388413	-1.063519	-0.163362
C96	C	0.111587	-0.563519	0.336638
C97	C	-0.388209	-1.063643	-0.081563
C98	C	0.111791	-0.563643	0.418437
H99	H	-0.482096	-0.633619	-0.439808
H100	H	0.017904	-0.133619	0.060192
H101	H	-0.482098	-0.494192	-0.439823
H102	H	0.017902	0.005808	0.060177
H103	H	-0.294755	-0.494165	-0.269350
H104	H	0.205245	0.005835	0.230650
O105	O	-0.286544	-0.639683	-0.262054
O106	O	0.213456	-0.139683	0.237946
C107	C	-0.177699	-0.726524	-0.252326
C108	C	0.322301	-0.226524	0.247674
C109	C	-0.234534	-0.684245	-0.303976
C110	C	0.265466	-0.184245	0.196024
H111	H	-0.135646	-0.762574	-0.286198
H112	H	0.364354	-0.262574	0.213802
H113	H	-0.140741	-0.685889	-0.218759
H114	H	0.359259	-0.185889	0.281241
H115	H	-0.214681	-0.762448	-0.213771
H116	H	0.285319	-0.262448	0.286229
H117	H	-0.197615	-0.648320	-0.342576
H118	H	0.302385	-0.148320	0.157424
H119	H	-0.271495	-0.724920	-0.337491
H120	H	0.228505	-0.224920	0.162509
O121	O	-0.286565	-1.156450	-0.779339
O122	O	0.213435	-0.656450	-0.279339
C123	C	-0.184303	-1.249884	-0.787499
C124	C	0.315697	-0.749884	-0.287499
C125	C	-0.241054	-1.198092	-0.829709
C126	C	0.258946	-0.698092	-0.329709
H127	H	-0.147504	-1.283576	-0.828205
H128	H	0.352496	-0.783576	-0.328205
H129	H	-0.142096	-1.216142	-0.751541
H130	H	0.357904	-0.716142	-0.251541
H131	H	-0.221342	-1.288315	-0.751494
H132	H	0.278658	-0.788315	-0.251494
H133	H	-0.204079	-1.159650	-0.865753
H134	H	0.295921	-0.659650	-0.365753
H135	H	-0.283262	-1.231880	-0.865620
H136	H	0.216738	-0.731880	-0.365620
O137	O	-0.286513	-1.156341	-0.930770
O138	O	0.213487	-0.656341	-0.430770
C139	C	-0.177652	-1.166297	-1.017597
C140	C	0.322348	-0.666297	-0.517597
C141	C	-0.234430	-1.114528	-0.975300
C142	C	0.265570	-0.614528	-0.475300
H143	H	-0.135540	-1.132513	-1.053621
H144	H	0.364460	-0.632513	-0.553621
H145	H	-0.140754	-1.199930	-0.976974
H146	H	0.359246	-0.699930	-0.476974
H147	H	-0.214675	-1.204784	-1.053549
H148	H	0.285325	-0.704784	-0.553549
H149	H	-0.197469	-1.075996	-0.939347
H150	H	0.302531	-0.575996	-0.439347
H151	H	-0.271331	-1.080946	-1.015963
H152	H	0.228669	-0.580946	-0.515963
H153	H	-0.481800	-0.978195	-0.924625
H154	H	0.018200	-0.478195	-0.424625
H155	H	-0.481842	-0.978166	-0.785183
H156	H	0.018158	-0.478166	-0.285183
