data_functionalizedCrystal
_audit_creation_method	'MofGen! by Chris Wilmer'
_symmetry_space_group_name_H-M	'P1'
_symmetry_Int_Tables_number	1
_symmetry_cell_setting	triclinic
loop_
_symmetry_equiv_pos_as_xyz
  x,y,z
_cell_length_a	18.101395
_cell_length_b	12.759401
_cell_length_c	18.101390
_cell_angle_alpha	90.017204
_cell_angle_beta	89.968753
_cell_angle_gamma	89.968074
loop_
_atom_site_label
_atom_site_type_symbol
_atom_site_fract_x
_atom_site_fract_y
_atom_site_fract_z
Zn1	Zn	-0.294786	-1.606092	-0.418737
Zn2	Zn	-0.418643	-1.605949	-0.294899
Zn3	Zn	-0.294821	-1.430407	-0.294910
Zn4	Zn	-0.418592	-1.430332	-0.418699
O5	O	-0.356710	-1.518195	-0.356811
O6	O	-0.311222	-1.753094	-0.402320
O7	O	-0.402254	-1.582634	-0.191267
O8	O	-0.191184	-1.453803	-0.311356
O9	O	-0.402219	-1.752989	-0.311337
O10	O	-0.191158	-1.582878	-0.402331
O11	O	-0.311282	-1.453664	-0.191276
O12	O	-0.311233	-1.283376	-0.311320
O13	O	-0.402133	-1.453676	-0.522337
O14	O	-0.402167	-1.283321	-0.402267
O15	O	-0.311173	-1.582805	-0.522365
O16	O	-0.522269	-1.582562	-0.311301
O17	O	-0.522231	-1.453537	-0.402256
C18	C	-0.356699	-1.245227	-0.356791
C19	C	-0.356712	-1.128451	-0.356800
C20	C	-0.404133	-1.073588	-0.404081
C21	C	-0.404134	-0.963864	-0.404094
C22	C	-0.309293	-0.963875	-0.309538
C23	C	-0.309288	-1.073597	-0.309530
C24	C	-0.430708	-0.813945	-0.491397
C25	C	-0.478140	-0.759079	-0.538671
C26	C	-0.550413	-0.794646	-0.549911
C27	C	-0.575269	-0.885078	-0.513866
C28	C	-0.527840	-0.939939	-0.466586
C29	C	-0.455557	-0.904373	-0.455360
C30	C	-0.282722	-1.223518	-0.222225
C31	C	-0.235297	-1.278381	-0.174941
C32	C	-0.163022	-1.242816	-0.163694
C33	C	-0.138170	-1.152381	-0.199726
C34	C	-0.185595	-1.097518	-0.247010
C35	C	-0.257868	-1.133090	-0.258259
C36	C	-0.549121	-1.518054	-0.356789
C37	C	-0.631435	-1.518090	-0.356805
C38	C	-0.930526	-1.518321	-0.356845
C39	C	-0.899208	-1.437330	-0.414214
C40	C	-0.813590	-1.436945	-0.414034
C41	C	-0.782143	-1.518206	-0.356826
C42	C	-0.813300	-1.488234	-0.278776
C43	C	-0.898946	-1.487712	-0.279119
C44	C	-0.898867	-1.629461	-0.376838
C45	C	-0.813216	-1.628808	-0.378550
C46	C	-0.698284	-1.518144	-0.356810
C47	C	-1.014385	-1.518381	-0.356855
C48	C	-0.163548	-1.518365	-0.356849
C49	C	-0.081234	-1.518437	-0.356865
C50	C	-0.356643	-1.518248	-0.549973
C51	C	-0.356614	-1.518271	-0.632287
C52	C	-0.356720	-0.792228	-0.356827
C53	C	-0.356719	-0.909005	-0.356821
C54	C	-0.356591	-1.518308	-0.782996
C55	C	-0.299357	-1.599556	-0.814367
C56	C	-0.299512	-1.599896	-0.899985
C57	C	-0.356567	-1.518346	-0.931378
C58	C	-0.434678	-1.547961	-0.900270
C59	C	-0.434361	-1.548529	-0.814625
C60	C	-0.336392	-1.407248	-0.814553
C61	C	-0.334657	-1.407865	-0.900204
C62	C	-0.356558	-1.518365	-1.015238
C63	C	-0.356605	-1.518292	-0.699136
C64	C	-0.356724	-1.518202	-0.164401
C65	C	-0.356544	-1.518383	-0.082087
H66	H	-0.124412	-1.287491	-0.125185
H67	H	-0.241269	-1.581276	-0.793793
H68	H	-0.919752	-1.455896	-0.472274
Br69	Br	-0.399024	-1.301637	-0.935817
Br70	Br	-0.462840	-1.683820	-0.781336
Br71	Br	-0.935208	-1.300862	-0.392439
H72	H	-0.634124	-0.914022	-0.523015
Br73	Br	-0.507881	-1.454154	-0.780026
Br74	Br	-0.934774	-1.675010	-0.470081
Br75	Br	-0.203056	-1.568659	-0.935050
Br76	Br	-0.779546	-1.299637	-0.391967
Br77	Br	-0.380855	-1.271685	-0.237385
Br78	Br	-0.507690	-1.452371	-0.934153
Br79	Br	-0.321408	-1.735948	-0.778523
H80	H	-0.457896	-0.685449	-0.568020
Br81	Br	-0.321838	-1.737072	-0.934154
H82	H	-0.452063	-1.628237	-0.921743
Br83	Br	-0.238846	-1.370620	-0.934096
H84	H	-0.378076	-1.346718	-0.794262
H85	H	-0.280413	-1.380191	-0.792958
H86	H	-0.548077	-1.013566	-0.437238
Br87	Br	-0.468492	-1.148029	-0.468235
Br88	Br	-0.932636	-1.730039	-0.307208
Br89	Br	-0.614783	-0.720186	-0.614073
H90	H	-0.919665	-1.544143	-0.234918
H91	H	-0.792849	-1.651410	-0.435990
Br92	Br	-0.040084	-1.104099	-0.184456
Br93	Br	-0.332613	-0.765684	-0.476161
Br94	Br	-0.777524	-1.734711	-0.313989
Br95	Br	-0.244935	-0.889425	-0.245389
H96	H	-0.918991	-1.406469	-0.262183
Br97	Br	-0.151869	-0.974775	-0.295907
H98	H	-0.255538	-1.352018	-0.145601
Br99	Br	-0.779358	-1.583459	-0.205586
Br100	Br	-0.778471	-1.468197	-0.510493
H101	H	-0.791918	-1.407852	-0.261536
