data_functionalizedCrystal
_audit_creation_method	'MofGen! by Chris Wilmer'
_symmetry_space_group_name_H-M	'P1'
_symmetry_Int_Tables_number	1
_symmetry_cell_setting	triclinic
loop_
_symmetry_equiv_pos_as_xyz
  x,y,z
_cell_length_a	11.792241
_cell_length_b	10.654550
_cell_length_c	9.730223
_cell_angle_alpha	90.003749
_cell_angle_beta	89.998500
_cell_angle_gamma	95.660841
loop_
_atom_site_label
_atom_site_type_symbol
_atom_site_fract_x
_atom_site_fract_y
_atom_site_fract_z
O1	O	0.159415	-1.667383	-0.114404
O2	O	0.174603	-1.301862	-0.114382
O3	O	0.001859	-1.493493	-0.114383
O4	O	0.332159	-1.475752	-0.114402
O5	O	0.001863	-1.493490	0.114196
O6	O	0.174608	-1.301859	0.114198
O7	O	0.159419	-1.667381	0.114176
Zn8	Zn	0.167014	-1.484620	0.150479
Zn9	Zn	0.167008	-1.484623	-0.150685
O10	O	0.332163	-1.475750	0.114178
C11	C	-0.040432	-1.492377	-0.000094
C12	C	-0.166454	-1.489042	-0.000095
C13	C	0.173490	-1.255066	-0.000089
C14	C	0.170154	-1.115632	-0.000080
C15	C	0.160532	-1.714177	-0.000120
C16	C	0.163869	-1.853611	-0.000137
C17	C	-0.397180	-1.482908	-0.000118
C18	C	-0.268787	-1.486316	-0.000105
C19	C	0.374455	-1.476865	-0.000114
C20	C	0.500476	-1.480201	-0.000122
N21	N	0.167017	-1.484627	0.356016
C22	C	0.271863	-1.035858	-0.000106
C23	C	0.268721	-0.904847	-0.000129
C24	C	0.062152	-0.933394	-0.000107
C25	C	0.065295	-1.064404	-0.000074
C26	C	0.391124	-1.019376	-0.000124
C27	C	0.387982	-0.888364	-0.000148
N28	N	0.166996	-1.484625	-0.356221
C29	C	0.090552	-1.569503	0.427941
C30	C	0.090539	-1.569500	0.571824
C31	C	0.243465	-1.399740	0.571844
C32	C	0.243472	-1.399739	0.427963
C33	C	0.002265	-1.667516	0.427931
C34	C	0.002251	-1.667513	0.571814
H35	H	-0.017527	-1.129352	-0.000033
Cl36	Cl	0.339586	-1.293018	0.337542
Cl37	Cl	-0.069663	-0.868983	-0.000100
H38	H	0.437768	-1.048574	0.095539
H39	H	0.429097	-1.054925	-0.098814
H40	H	0.424026	-0.842589	0.098534
H41	H	0.021698	-1.763969	0.610857
Cl42	Cl	0.457351	-0.823728	-0.147850
Cl43	Cl	0.339574	-1.293029	0.662301
H44	H	-0.084976	-1.646320	0.388883
Cl45	Cl	0.044959	-1.808166	0.359008
H46	H	-0.080191	-1.637233	0.616436
