data_functionalizedCrystal
_audit_creation_method	'MofGen! by Chris Wilmer'
_symmetry_space_group_name_H-M	'P1'
_symmetry_Int_Tables_number	1
_symmetry_cell_setting	triclinic
loop_
_symmetry_equiv_pos_as_xyz
  x,y,z
_cell_length_a	10.685980
_cell_length_b	10.686285
_cell_length_c	12.759393
_cell_angle_alpha	85.601879
_cell_angle_beta	85.605663
_cell_angle_gamma	89.665709
loop_
_atom_site_label
_atom_site_type_symbol
_atom_site_fract_x
_atom_site_fract_y
_atom_site_fract_z
Zn1	Zn	1.956318	-0.352361	-0.696631
Zn2	Zn	1.972320	-0.562179	-0.508600
Zn3	Zn	1.746534	-0.368503	-0.506525
Zn4	Zn	1.762628	-0.578149	-0.669813
O5	O	1.859450	-0.465298	-0.595392
O6	O	2.133993	-0.366754	-0.683780
O7	O	1.942330	-0.536559	-0.361296
O8	O	1.760930	-0.190814	-0.542099
O9	O	2.145749	-0.520907	-0.545634
O10	O	1.915057	-0.178954	-0.681769
O11	O	1.776446	-0.394266	-0.359772
O12	O	1.573116	-0.409752	-0.516094
O13	O	1.788359	-0.548126	-0.820398
O14	O	1.584940	-0.563778	-0.636061
O15	O	1.930663	-0.382240	-0.840102
O16	O	1.957936	-0.739845	-0.519629
O17	O	1.803876	-0.751578	-0.638072
C18	C	1.533510	-0.490251	-0.572943
C19	C	1.394074	-0.500956	-0.563362
C20	C	1.884423	-0.791227	-0.576191
C21	C	1.895221	-0.930651	-0.568020
C22	C	2.186662	-0.440249	-0.617930
C23	C	2.326101	-0.429574	-0.627534
C24	C	1.859521	-0.465164	-0.869439
C25	C	1.859552	-0.465107	-0.986221
C26	C	1.834413	-0.138094	-0.614694
C27	C	1.823745	0.001341	-0.622919
C28	C	1.773209	-0.390997	-1.040299
C29	C	1.773244	-0.390957	-1.150028
C30	C	1.945976	-0.539139	-1.151592
C31	C	1.945934	-0.539185	-1.041864
C32	C	1.673487	-0.305442	-1.039397
C33	C	1.673522	-0.305402	-1.149126
C34	C	1.859444	-0.465335	-0.322422
C35	C	1.859629	-0.465020	-0.205678
H36	H	1.374579	-0.360264	-0.689803
C37	C	1.328578	-0.594590	-0.479226
N38	N	1.279246	-0.665116	-0.415857
C39	C	1.729920	-0.933220	-0.694872
N40	N	1.659251	-0.883923	-0.749070
C41	C	1.989048	-0.996096	-0.496061
N42	N	2.059718	-1.045389	-0.441862
C43	C	1.552441	-0.361924	-1.183753
N44	N	1.461244	-0.404496	-1.209835
C45	C	2.040947	-0.620677	-0.982387
N46	N	2.112528	-0.682044	-0.937590
H47	H	2.016306	-0.599449	-1.196910
H48	H	1.578303	-0.338905	-1.001399
H49	H	1.701219	-0.210503	-1.013207
C50	C	1.698668	-0.171443	-1.199533
N51	N	1.717613	-0.070551	-1.237499
