data_functionalizedCrystal
_audit_creation_method	'MofGen! by Chris Wilmer'
_symmetry_space_group_name_H-M	'P1'
_symmetry_Int_Tables_number	1
_symmetry_cell_setting	triclinic
loop_
_symmetry_equiv_pos_as_xyz
  x,y,z
_cell_length_a	10.654550
_cell_length_b	23.532407
_cell_length_c	9.730223
_cell_angle_alpha	89.994043
_cell_angle_beta	89.996251
_cell_angle_gamma	83.666790
loop_
_atom_site_label
_atom_site_type_symbol
_atom_site_fract_x
_atom_site_fract_y
_atom_site_fract_z
O1	O	1.665300	0.079982	-0.114418
O2	O	1.299580	0.087603	-0.114398
O3	O	1.493468	0.000933	-0.114384
O4	O	1.471412	0.166652	-0.114433
O5	O	1.493466	0.000935	0.114196
O6	O	1.299578	0.087605	0.114182
O7	O	1.665298	0.079985	0.114161
Zn8	Zn	1.482437	0.083795	0.150464
Zn9	Zn	1.482440	0.083792	-0.150700
O10	O	1.471409	0.166655	0.114147
C11	C	1.252799	0.087044	-0.000105
C12	C	1.113408	0.085370	-0.000096
C13	C	1.032306	0.136400	-0.000131
C14	C	0.901335	0.134824	-0.000154
C15	C	0.932582	0.031183	-0.000113
C16	C	1.063550	0.032760	-0.000080
C17	C	1.014265	0.196236	-0.000161
C18	C	0.883294	0.194660	-0.000184
C19	C	1.492905	-0.020286	-0.000090
C20	C	1.491217	-0.083514	-0.000079
C21	C	1.595364	-0.481938	-0.000161
C22	C	1.593795	-0.541349	-0.000171
O23	O	1.690341	-0.577464	-0.000227
N24	N	1.478529	-0.564726	-0.000164
C25	C	1.364824	-0.528689	-0.000160
O26	O	1.266636	-0.554029	-0.000156
C27	C	1.366394	-0.469280	-0.000159
C28	C	1.481668	-0.445906	-0.000153
C29	C	1.710629	-0.458564	-0.000156
C30	C	1.712197	-0.399158	-0.000143
C31	C	1.598500	-0.363126	-0.000135
C32	C	1.483236	-0.386500	-0.000140
C33	C	1.252690	-0.433244	-0.000165
C34	C	1.254270	-0.373832	-0.000166
C35	C	1.369544	-0.350458	-0.000159
C36	C	1.371107	-0.291061	-0.000119
N37	N	1.486374	-0.267684	-0.000126
C38	C	1.600070	-0.303716	-0.000134
C39	C	1.361535	-0.653453	-0.000163
C40	C	1.359964	-0.712861	-0.000154
C41	C	1.588936	-0.725517	-0.000168
C42	C	1.590506	-0.666108	-0.000167
C43	C	1.476802	-0.630076	-0.000171
C44	C	1.603355	-0.178958	-0.000106
C45	C	1.604913	-0.119546	-0.000087
C46	C	1.375942	-0.106896	-0.000081
C47	C	1.374383	-0.166303	-0.000092
C48	C	1.488100	-0.202333	-0.000109
O49	O	1.274613	-0.254911	-0.000068
O50	O	1.698241	-0.278369	-0.000157
C51	C	1.712079	0.080543	-0.000135
C52	C	1.851469	0.082217	-0.000152
C53	C	1.471972	0.187873	-0.000149
C54	C	1.473661	0.251101	-0.000169
N55	N	1.482444	0.083797	0.356000
N56	N	1.482443	0.083786	-0.356237
C57	C	1.568320	0.045432	0.427932
C58	C	1.568317	0.045425	0.571815
C59	C	1.396559	0.122152	0.571821
C60	C	1.396557	0.122156	0.427941
C61	C	1.667486	0.001136	0.427930
C62	C	1.667483	0.001129	0.571813
H63	H	1.042853	0.219639	0.095498
H64	H	1.049317	0.215288	-0.098854
N65	N	1.836528	-0.373952	-0.000141
H66	H	1.908306	-0.405800	-0.000151
H67	H	1.842173	-0.349575	-0.084878
N68	N	0.827054	0.224521	-0.126907
H69	H	0.896425	0.238980	-0.183445
H70	H	0.782722	0.196748	-0.183342
N71	N	1.253316	-0.068027	-0.000035
H72	H	1.271812	-0.026846	-0.000022
H73	H	1.203034	-0.075634	-0.084766
N74	N	1.640917	-0.056840	0.376207
H75	H	1.640914	-0.056861	0.272407
H76	H	1.708365	-0.086953	0.410876
N77	N	0.822023	0.218607	0.130524
H78	H	0.888747	0.231339	0.193696
H79	H	0.758451	0.252349	0.107673
N80	N	1.729249	-0.094336	-0.000073
H81	H	1.801034	-0.126181	-0.000083
H82	H	1.734893	-0.069956	-0.084804
N83	N	1.726003	-0.217814	-0.000124
H84	H	1.799252	-0.193984	-0.000116
H85	H	1.730342	-0.242745	0.084610
H86	H	1.681514	-0.754865	-0.000180
N87	N	1.131629	-0.334969	-0.000176
H88	H	1.058374	-0.358795	-0.000181
H89	H	1.127282	-0.310049	0.084565
N90	N	1.833269	-0.497422	-0.000163
H91	H	1.906515	-0.473591	-0.000159
H92	H	1.837606	-0.522348	0.084579
N93	N	1.714835	-0.640899	-0.000159
H94	H	1.786616	-0.672746	-0.000160
H95	H	1.720483	-0.616524	-0.084898
N96	N	0.878794	-0.025556	-0.000090
H97	H	0.825169	-0.028523	-0.084833
H98	H	0.950113	-0.057612	-0.000009
H99	H	1.266096	-0.731887	-0.000135
H100	H	1.638281	-0.040234	0.616443
H101	H	1.268937	-0.624119	-0.000154
N102	N	1.128357	-0.458445	-0.000155
H103	H	1.056582	-0.426596	-0.000152
H104	H	1.122707	-0.482814	-0.084892
H105	H	1.280517	-0.185334	-0.000059
H106	H	1.326620	0.153390	0.369375
H107	H	1.763686	0.010886	0.610855
N108	N	1.303924	0.163522	0.649414
H109	H	1.316951	0.157698	0.751478
H110	H	1.317914	0.203985	0.624265
N111	N	1.787682	0.019504	0.368782
H112	H	1.798159	0.059532	0.400802
H113	H	1.862053	-0.007586	0.400821
N114	N	1.151028	-0.022279	-0.000007
H115	H	1.099566	-0.055844	-0.000000
H116	H	1.206080	-0.023891	-0.084724
