data_functionalizedCrystal
_audit_creation_method	'MofGen! by Chris Wilmer'
_symmetry_space_group_name_H-M	'P1'
_symmetry_Int_Tables_number	1
_symmetry_cell_setting	triclinic
loop_
_symmetry_equiv_pos_as_xyz
  x,y,z
_cell_length_a	15.944551
_cell_length_b	17.699083
_cell_length_c	16.176319
_cell_angle_alpha	90.007696
_cell_angle_beta	90.002924
_cell_angle_gamma	83.390876
loop_
_atom_site_label
_atom_site_type_symbol
_atom_site_fract_x
_atom_site_fract_y
_atom_site_fract_z
O1	O	-1.114322	-0.097616	-0.068662
O2	O	-0.869747	-0.109651	-0.068683
O3	O	-0.998945	0.006544	-0.068665
O4	O	-0.985125	-0.213811	-0.068680
O5	O	-0.998927	0.006551	0.068829
O6	O	-0.869729	-0.109643	0.068810
O7	O	-1.114304	-0.097609	0.068831
Cu8	Cu	-0.992015	-0.103625	0.081375
Cu9	Cu	-0.992036	-0.103634	-0.081227
O10	O	-0.985107	-0.213803	0.068813
C11	C	-0.838445	-0.109147	0.000061
C12	C	-0.745203	-0.107650	0.000054
C13	C	-0.998440	0.034746	0.000082
C14	C	-0.996955	0.118766	0.000082
C15	C	-1.145606	-0.098112	0.000085
C16	C	-1.238849	-0.099610	0.000088
C17	C	-0.530505	-0.032046	0.000075
C18	C	-0.469420	-0.067158	-0.067719
C19	C	-0.574482	-0.104940	0.000063
C20	C	-0.469424	-0.067168	0.067839
C21	C	-0.409575	-0.102317	0.000077
C22	C	-0.514625	-0.140071	-0.067786
C23	C	-0.514636	-0.140071	0.067832
C24	C	-0.453569	-0.175235	0.000022
C25	C	-0.669481	-0.106449	0.000055
C26	C	-0.314577	-0.100814	0.000079
C27	C	-0.985611	-0.242005	0.000064
C28	C	-0.987097	-0.326026	0.000059
N29	N	-0.992007	-0.103619	0.195740
C30	C	-1.072791	0.167258	0.000090
C31	C	-1.071390	0.246203	0.000083
C32	C	-0.994152	0.276656	0.000073
C33	C	-0.918310	0.228158	0.000063
C34	C	-0.919712	0.149214	0.000065
C35	C	-0.912656	0.546531	0.000056
C36	C	-0.911260	0.625481	0.000057
C37	C	-1.064334	0.643520	0.000074
C38	C	-1.065735	0.564576	0.000075
C39	C	-0.989894	0.516085	0.000061
C40	C	-0.991414	0.430484	0.000067
C41	C	-0.992632	0.362256	0.000073
N42	N	-0.992052	-0.103635	-0.195592
C43	C	-1.049232	-0.052189	0.239013
C44	C	-1.049237	-0.052188	0.325560
C45	C	-0.992019	-0.103621	0.368833
C46	C	-0.934787	-0.155054	0.325554
C47	C	-0.934779	-0.155050	0.239009
C48	C	-0.934815	-0.155068	0.674583
C49	C	-0.934829	-0.155069	0.761134
C50	C	-1.049273	-0.052205	0.761133
C51	C	-1.049265	-0.052202	0.674588
C52	C	-0.992031	-0.103631	0.631317
C53	C	-0.992026	-0.103631	0.537473
C54	C	-0.992027	-0.103626	0.462675
H55	H	-0.563965	0.028449	-0.000005
H56	H	-0.449396	-0.036320	0.125151
H57	H	-0.888232	-0.196954	0.796366
H58	H	-1.128630	0.539786	0.000087
H59	H	-0.534696	-0.170873	0.125145
H60	H	-0.850901	0.507059	0.000045
H61	H	-1.126087	0.683011	0.000081
H62	H	-0.534556	-0.170882	-0.125163
H63	H	-1.135687	0.142470	0.000102
H64	H	-0.888179	-0.196929	0.203777
H65	H	-0.449382	-0.036330	-0.125030
H66	H	-0.857958	0.109733	0.000058
H67	H	-1.133144	0.285683	0.000091
H68	H	-0.855422	0.252959	0.000051
H69	H	-0.848360	0.650272	0.000051
H70	H	-1.095829	-0.010309	0.203785
H71	H	-0.420283	-0.235793	-0.000021
H72	H	-1.095834	-0.010309	0.360791
H73	H	-1.095874	-0.010326	0.796374
H74	H	-1.095860	-0.010323	0.639357
H75	H	-0.888215	-0.196945	0.639358
H76	H	-0.888194	-0.196929	0.360793
