data_functionalizedCrystal
_audit_creation_method	'MofGen! by Chris Wilmer'
_symmetry_space_group_name_H-M	'P1'
_symmetry_Int_Tables_number	1
_symmetry_cell_setting	triclinic
loop_
_symmetry_equiv_pos_as_xyz
  x,y,z
_cell_length_a	16.992694
_cell_length_b	14.519709
_cell_length_c	15.455313
_cell_angle_alpha	92.669068
_cell_angle_beta	87.142206
_cell_angle_gamma	87.174184
loop_
_atom_site_label
_atom_site_type_symbol
_atom_site_fract_x
_atom_site_fract_y
_atom_site_fract_z
O1	O	1.044092	0.191795	-0.072025
O2	O	0.815805	0.189648	-0.072051
O3	O	0.936001	0.056918	-0.072029
O4	O	0.923896	0.324525	-0.072046
O5	O	0.929127	0.064474	0.072232
O6	O	0.808932	0.197205	0.072210
O7	O	1.037219	0.199352	0.072236
Cu8	Cu	0.922447	0.198968	0.085395
Cu9	Cu	0.930576	0.190031	-0.085210
O10	O	0.917023	0.332082	0.072215
C11	C	0.783152	0.190666	0.000077
C12	C	0.696097	0.182430	0.000067
C13	C	0.932000	0.026296	0.000101
C14	C	0.930309	-0.076207	0.000102
C15	C	0.645968	0.261890	0.000063
C16	C	0.564170	0.254147	0.000075
C17	C	0.532502	0.166943	0.000086
C18	C	0.582638	0.087478	0.000093
C19	C	0.664434	0.095222	0.000087
C20	C	0.288859	0.134847	0.000111
C21	C	0.207056	0.127109	0.000115
C22	C	0.188594	0.293779	0.000099
C23	C	0.270393	0.301515	0.000087
C24	C	0.320520	0.222050	0.000099
N25	N	0.448892	0.159027	0.000096
N26	N	0.404129	0.229968	0.000095
C27	C	0.924087	-0.451550	0.000078
C28	C	0.925815	-0.347118	0.000085
C29	C	0.927198	-0.263882	0.000091
C30	C	0.928926	-0.159443	0.000096
C31	C	1.069872	0.198333	0.000107
C32	C	1.156927	0.206569	0.000111
C33	C	0.921024	0.362704	0.000082
C34	C	0.922715	0.465206	0.000076
N35	N	0.916736	0.205254	0.205390
N36	N	0.936294	0.183739	-0.205204
C37	C	0.967817	0.148889	0.250793
C38	C	0.963505	0.153651	0.341600
C39	C	0.908115	0.214784	0.387002
C40	C	0.857028	0.271151	0.341593
C41	C	0.861337	0.266383	0.250787
C42	C	0.889516	0.235339	0.658581
C43	C	0.885212	0.240104	0.749392
C44	C	0.991689	0.122602	0.749393
C45	C	0.995996	0.117844	0.658586
C46	C	0.944907	0.174208	0.613185
N47	N	0.903708	0.219655	0.479822
N48	N	0.949311	0.169331	0.520367
H49	H	0.523358	0.318852	0.000071
C50	C	0.133453	0.381188	0.000095
C51	C	0.133529	0.454926	0.075000
C52	C	0.078388	0.542340	0.074999
C53	C	0.023173	0.556015	0.000093
C54	C	0.023095	0.482275	-0.074818
C55	C	0.078235	0.394861	-0.074817
H56	H	0.174404	0.444804	0.130455
H57	H	0.078446	0.596927	0.130454
H58	H	-0.017646	0.620724	0.000093
H59	H	-0.017781	0.492396	-0.130273
H60	H	0.078178	0.340274	-0.130272
C61	C	1.028748	0.081640	0.200855
C62	C	1.084933	0.019636	0.250803
C63	C	1.145863	-0.047617	0.200868
C64	C	1.150610	-0.052866	0.100986
C65	C	1.094424	0.009141	0.051032
C66	C	1.033493	0.076393	0.100967
H67	H	1.081421	0.023520	0.324747
H68	H	1.187456	-0.093518	0.237848
H69	H	1.195715	-0.102650	0.064021
H70	H	1.097936	0.005257	-0.022912
H71	H	0.991900	0.122294	0.063988
H72	H	0.819740	0.312280	0.213821
H73	H	1.033283	0.076712	0.786368
C74	C	0.824275	0.307353	0.799333
C75	C	0.768080	0.369347	0.749390
C76	C	0.707147	0.436594	0.799329
C77	C	0.702410	0.441847	0.899212
C78	C	0.758608	0.379850	0.949161
C79	C	0.819540	0.312603	0.899221
H80	H	0.771585	0.365461	0.675446
H81	H	0.665546	0.482489	0.762353
H82	H	0.657304	0.491627	0.936180
H83	H	0.755103	0.383736	1.023105
H84	H	0.861141	0.266709	0.936197
C85	C	0.796097	0.338400	0.391531
C86	C	0.791391	0.343698	0.491413
C87	C	0.730460	0.410951	0.541348
C88	C	0.674236	0.472905	0.491400
C89	C	0.678940	0.467609	0.391512
C90	C	0.739871	0.400356	0.341577
H91	H	0.833013	0.297834	0.528392
H92	H	0.726977	0.414871	0.615292
H93	H	0.629131	0.522690	0.528365
H94	H	0.637318	0.513473	0.354533
H95	H	0.743353	0.396435	0.267633
H96	H	0.296170	0.372525	0.000069
C97	C	0.343989	0.047434	0.000117
C98	C	0.399197	0.033752	0.075029
C99	C	0.454330	-0.053667	0.075034
C100	C	0.454255	-0.127404	0.000128
C101	C	0.399045	-0.113724	-0.074789
C102	C	0.343911	-0.026305	-0.074795
H103	H	0.399255	0.088339	0.130484
H104	H	0.495201	-0.063793	0.130493
H105	H	0.495068	-0.192117	0.000132
H106	H	0.398987	-0.168311	-0.130245
H107	H	0.303041	-0.016179	-0.130254
H108	H	0.181276	0.056094	0.000123
C109	C	0.719580	0.007815	0.000088
C110	C	0.774791	-0.005853	0.074999
C111	C	0.829937	-0.093262	0.075006
C112	C	0.829871	-0.167002	0.000101
C113	C	0.774657	-0.153336	-0.074816
C114	C	0.719511	-0.065927	-0.074822
H115	H	0.774842	0.048735	0.130453
H116	H	0.870810	-0.103379	0.130464
H117	H	0.870693	-0.231708	0.000106
H118	H	0.774606	-0.207925	-0.130270
H119	H	0.678639	-0.055811	-0.130281
C120	C	1.056922	0.050595	0.608641
C121	C	1.113114	-0.011414	0.658574
C122	C	1.174041	-0.078660	0.608626
C123	C	1.178776	-0.083897	0.508743
C124	C	1.122582	-0.021887	0.458804
C125	C	1.061655	0.045359	0.508752
H126	H	1.109610	-0.007539	0.732518
H127	H	1.215640	-0.124564	0.645595
H128	H	1.223878	-0.133677	0.471768
H129	H	1.126085	-0.025762	0.384860
H130	H	1.020056	0.091264	0.471783
H131	H	0.671744	0.332900	0.000054
H132	H	0.556847	0.016475	0.000114
H133	H	0.847918	0.281234	0.621622
H134	H	1.005099	0.107754	0.378567
