data_functionalizedCrystal
_audit_creation_method	'MofGen! by Chris Wilmer'
_symmetry_space_group_name_H-M	'P1'
_symmetry_Int_Tables_number	1
_symmetry_cell_setting	triclinic
loop_
_symmetry_equiv_pos_as_xyz
  x,y,z
_cell_length_a	17.077404
_cell_length_b	29.839131
_cell_length_c	17.077396
_cell_angle_alpha	89.968087
_cell_angle_beta	89.980499
_cell_angle_gamma	90.041645
loop_
_atom_site_label
_atom_site_type_symbol
_atom_site_fract_x
_atom_site_fract_y
_atom_site_fract_z
Zn1	Zn	1.199954	-0.178851	-0.443824
Zn2	Zn	1.699954	0.321149	0.056176
Zn3	Zn	1.199818	-0.253981	-0.312550
Zn4	Zn	1.699818	0.246019	0.187450
Zn5	Zn	1.068685	-0.178866	-0.312572
Zn6	Zn	1.568685	0.321134	0.187428
Zn7	Zn	1.068611	-0.253955	-0.443774
Zn8	Zn	1.568611	0.246045	0.056226
O9	O	1.134267	-0.216413	-0.378180
O10	O	1.634267	0.283587	0.121820
O11	O	1.309782	-0.188821	-0.426422
O12	O	1.809782	0.311179	0.073578
O13	O	1.182398	-0.244035	-0.202706
O14	O	1.682398	0.255965	0.297294
O15	O	1.086186	-0.115997	-0.330013
O16	O	1.586186	0.384003	0.169987
O17	O	1.309683	-0.244020	-0.329976
O18	O	1.809683	0.255980	0.170024
O19	O	1.182628	-0.115986	-0.426443
O20	O	1.682628	0.384014	0.073557
O21	O	1.086055	-0.188848	-0.202722
O22	O	1.586055	0.311152	0.297278
O23	O	0.958829	-0.188822	-0.329964
O24	O	1.458829	0.311178	0.170036
O25	O	1.086059	-0.243974	-0.553627
O26	O	1.586059	0.256026	-0.053627
O27	O	0.958774	-0.243989	-0.426358
O28	O	1.458774	0.256011	0.073642
O29	O	1.182556	-0.188796	-0.553664
O30	O	1.682556	0.311204	-0.053664
O31	O	1.182325	-0.316845	-0.329927
O32	O	1.682325	0.183155	0.170073
O33	O	1.085928	-0.316825	-0.426336
O34	O	1.585928	0.183175	0.073664
C35	C	0.930319	-0.216405	-0.378158
C36	C	1.430319	0.283595	0.121842
C37	C	0.843069	-0.216412	-0.378168
C38	C	1.343069	0.283588	0.121832
C39	C	1.134125	-0.333136	-0.378141
C40	C	1.634125	0.166864	0.121859
C41	C	1.134136	-0.383070	-0.378151
C42	C	1.634136	0.116930	0.121849
C43	C	0.802071	-0.245181	-0.428279
C44	C	1.302071	0.254819	0.071721
C45	C	0.720091	-0.245182	-0.428292
C46	C	1.220091	0.254818	0.071708
C47	C	0.679110	-0.216416	-0.378188
C48	C	1.179110	0.283584	0.121812
C49	C	0.720114	-0.187644	-0.328074
C50	C	1.220114	0.312356	0.171926
C51	C	0.802093	-0.187641	-0.328066
C52	C	1.302093	0.312359	0.171934
C53	C	0.549244	-0.187653	-0.328093
C54	C	1.049244	0.312347	0.171907
C55	C	0.467259	-0.187657	-0.328100
C56	C	0.967259	0.312343	0.171900
C57	C	0.467242	-0.245194	-0.428319
C58	C	0.967242	0.254806	0.071681
C59	C	0.549221	-0.245191	-0.428311
C60	C	1.049221	0.254809	0.071689
C61	C	0.590219	-0.216420	-0.378196
C62	C	1.090219	0.283580	0.121804
C63	C	1.184552	-0.692711	-0.328053
C64	C	1.684552	-0.192711	0.171947
C65	C	1.184649	-0.880384	-0.328083
C66	C	1.684649	-0.380384	0.171917
O67	O	1.227402	-0.904647	-0.285459
O68	O	1.727402	-0.404647	0.214541
N69	N	1.134430	-0.903855	-0.378239
N70	N	1.634430	-0.403855	0.121761
C71	C	1.084186	-0.880405	-0.428394
C72	C	1.584186	-0.380405	0.071606
O73	O	1.041479	-0.904675	-0.471061
O74	O	1.541479	-0.404675	0.028939
C75	C	1.084094	-0.692733	-0.428367
C76	C	1.584094	-0.192733	0.071633
C77	C	1.134311	-0.669264	-0.378203
C78	C	1.634311	-0.169264	0.121797
C79	C	1.234766	-0.669242	-0.277893
C80	C	1.734766	-0.169242	0.222107
C81	C	1.234738	-0.622327	-0.277883
C82	C	1.734738	-0.122327	0.222117
C83	C	1.184497	-0.598880	-0.328033
C84	C	1.684497	-0.098880	0.171967
C85	C	1.134283	-0.622349	-0.378193
C86	C	1.634283	-0.122349	0.121807
C87	C	1.033855	-0.669284	-0.478526
C88	C	1.533855	-0.169284	0.021474
C89	C	1.033837	-0.622363	-0.478516
C90	C	1.533837	-0.122363	0.021484
C91	C	1.084055	-0.598894	-0.428352
C92	C	1.584055	-0.098894	0.071648
C93	C	1.084014	-0.551987	-0.428332
C94	C	1.584014	-0.051987	0.071668
N95	N	1.134233	-0.528516	-0.378177
N96	N	1.634233	-0.028516	0.121823
C97	C	1.184475	-0.551962	-0.328027
C98	C	1.684475	-0.051962	0.171973
C99	C	1.084237	-0.978936	-0.428404
C100	C	1.584237	-0.478936	0.071596
C101	C	1.084259	-1.025854	-0.428410
C102	C	1.584259	-0.525854	0.071590
C103	C	1.184723	-1.025829	-0.328100
C104	C	1.684723	-0.525829	0.171900
C105	C	1.184697	-0.978911	-0.328090
C106	C	1.684697	-0.478911	0.171910
C107	C	1.134457	-0.955465	-0.378248
C108	C	1.634457	-0.455465	0.121752
C109	C	1.184412	-0.453437	-0.328009
C110	C	1.684412	0.046563	0.171991
C111	C	1.184378	-0.406517	-0.328001
C112	C	1.684378	0.093483	0.171999
C113	C	1.083917	-0.406545	-0.428314
C114	C	1.583917	0.093455	0.071686
C115	C	1.083948	-0.453461	-0.428319
C116	C	1.583948	0.046539	0.071681
C117	C	1.134202	-0.476905	-0.378164
C118	C	1.634202	0.023095	0.121836
O119	O	1.041290	-0.527695	-0.470941
O120	O	1.541290	-0.027695	0.029059
O121	O	1.227188	-0.527685	-0.285378
O122	O	1.727188	-0.027685	0.214622
C123	C	1.184580	-0.739627	-0.328063
C124	C	1.684580	-0.239627	0.171937
C125	C	1.134366	-0.763095	-0.378223
C126	C	1.634366	-0.263095	0.121777
C127	C	1.084125	-0.739649	-0.428373
C128	C	1.584125	-0.239649	0.071627
C129	C	1.134388	-0.810013	-0.378229
C130	C	1.634388	-0.310013	0.121771
C131	C	1.184630	-0.833460	-0.328079
C132	C	1.684630	-0.333460	0.171921
C133	C	1.234849	-0.809989	-0.277923
C134	C	1.734849	-0.309989	0.222077
C135	C	1.234822	-0.763073	-0.277913
C136	C	1.734822	-0.263073	0.222087
C137	C	1.033905	-0.763120	-0.478529
C138	C	1.533905	-0.263120	0.021471
C139	C	1.033937	-0.810035	-0.478534
C140	C	1.533937	-0.310035	0.021466
C141	C	1.084178	-0.833482	-0.428384
C142	C	1.584178	-0.333482	0.071616
C143	C	1.339011	-0.216422	-0.378202
C144	C	1.839011	0.283578	0.121798
C145	C	1.426261	-0.216425	-0.378212
C146	C	1.926261	0.283575	0.121788
C147	C	1.134314	-0.216380	-0.582924
C148	C	1.634314	0.283620	-0.082924
C149	C	1.134335	-0.216366	-0.670174
C150	C	1.634335	0.283634	-0.170174
C151	C	1.134431	-0.099235	-0.378236
C152	C	1.634431	0.400765	0.121764
C153	C	1.134500	-0.049300	-0.378260
C154	C	1.634500	0.450700	0.121740
C155	C	1.184582	-0.187632	-0.711185
C156	C	1.684582	0.312368	-0.211185
C157	C	1.184592	-0.187617	-0.793165
C158	C	1.684592	0.312383	-0.293165
C159	C	1.134357	-0.216339	-0.834134
C160	C	1.634357	0.283661	-0.334134
C161	C	1.084104	-0.245074	-0.793117
C162	C	1.584104	0.254926	-0.293117
C163	C	1.084091	-0.245086	-0.711138
C164	C	1.584091	0.254914	-0.211138
C165	C	1.084135	-0.245047	-0.963987
C166	C	1.584135	0.254953	-0.463987
C167	C	1.084149	-0.245035	-1.045972
C168	C	1.584149	0.254965	-0.545972
C169	C	1.184636	-0.187578	-1.046014
C170	C	1.684636	0.312422	-0.546014
C171	C	1.184624	-0.187590	-0.964035
C172	C	1.684624	0.312410	-0.464035
C173	C	1.134371	-0.216326	-0.923025
C174	C	1.634371	0.283674	-0.423025
C175	C	1.134265	-0.216414	-0.174232
C176	C	1.634265	0.283586	0.325768
C177	C	1.134397	-0.216301	-0.086983
C178	C	1.634397	0.283699	0.413017
H179	H	0.835432	-0.268607	-0.469077
H180	H	1.335432	0.231393	0.030923
N181	N	0.425409	-0.158269	-0.276919
N182	N	0.925409	0.341731	0.223081
N183	N	0.462021	-0.132579	-0.232185
N184	N	0.962021	0.367421	0.267815
H185	H	0.432465	-0.111823	-0.196039
H186	H	0.932465	0.388177	0.303961
H187	H	0.582622	-0.164220	-0.287291
H188	H	1.082622	0.335780	0.212709
N189	N	1.032660	-0.477435	-0.479569
N190	N	1.532660	0.022565	0.020431
N191	N	1.060270	-0.503573	-0.529627
N192	N	1.560270	-0.003573	-0.029627
H193	H	1.024052	-0.520502	-0.565829
H194	H	1.524052	-0.020502	-0.065829
N195	N	0.678225	-0.274569	-0.479489
N196	N	1.178225	0.225431	0.020511
N197	N	0.714824	-0.300251	-0.524219
N198	N	1.214824	0.199749	-0.024219
H199	H	0.685257	-0.321007	-0.560382
H200	H	1.185257	0.178993	-0.060382
N201	N	0.425356	-0.274586	-0.479498
N202	N	0.925356	0.225414	0.020502
N203	N	0.352161	-0.274587	-0.479498
N204	N	0.852161	0.225413	0.020502
H205	H	0.322574	-0.295347	-0.515637
H206	H	0.822574	0.204653	-0.015637
N207	N	0.591071	-0.274581	-0.479487
N208	N	1.091071	0.225419	0.020513
N209	N	0.554459	-0.300267	-0.524227
N210	N	1.054459	0.199733	-0.024227
H211	H	0.584015	-0.321024	-0.560373
H212	H	1.084015	0.178976	-0.060373
N213	N	1.032827	-0.274370	-1.087817
N214	N	1.532827	0.225630	-0.587817
N215	N	1.060386	-0.302999	-1.133553
N216	N	1.560386	0.197001	-0.633553
H217	H	1.024133	-0.323717	-1.163101
H218	H	1.524133	0.176283	-0.663101
H219	H	1.275632	-0.603222	-0.237037
H220	H	1.775632	-0.103222	0.262963
N221	N	0.678255	-0.158254	-0.276906
N222	N	1.178255	0.341746	0.223094
N223	N	0.632556	-0.129648	-0.304623
N224	N	1.132556	0.370352	0.195377
H225	H	0.602994	-0.108890	-0.268484
H226	H	1.102994	0.391110	0.231516
N227	N	1.286088	-0.693196	-0.226669
N228	N	1.786088	-0.193196	0.273331
N229	N	1.336112	-0.719338	-0.254325
N230	N	1.836112	-0.219338	0.245675
H231	H	1.372357	-0.736253	-0.218142
H232	H	1.872357	-0.236253	0.281858
H233	H	0.835472	-0.164213	-0.287265
H234	H	1.335472	0.335787	0.212735
H235	H	0.992926	-0.603275	-0.519363
H236	H	1.492926	-0.103275	-0.019363
H237	H	1.225336	-0.472520	-0.287169
H238	H	1.725336	0.027480	0.212831
N239	N	1.235677	-0.382552	-0.276747
N240	N	1.735677	0.117448	0.223253
N241	N	1.280531	-0.403496	-0.231976
N242	N	1.780531	0.096504	0.268024
H243	H	1.316760	-0.386572	-0.195778
H244	H	1.816760	0.113428	0.304222
N245	N	1.236005	-0.954939	-0.276863
N246	N	1.736005	-0.454939	0.223137
N247	N	1.286003	-0.928723	-0.304521
N248	N	1.786003	-0.428723	0.195479
H249	H	1.322243	-0.911795	-0.268341
H250	H	1.822243	-0.411795	0.231659
H251	H	1.043323	-0.959849	-0.469250
H252	H	1.543323	-0.459849	0.030750
H253	H	1.225552	-0.164179	-1.079409
H254	H	1.725552	0.335821	-0.579409
H255	H	1.225632	-1.044928	-0.287266
H256	H	1.725632	-0.544928	0.212734
N257	N	1.032946	-1.049816	-0.479644
N258	N	1.532946	-0.549816	0.020356
N259	N	0.988093	-1.028870	-0.524414
N260	N	1.488093	-0.528870	-0.024414
H261	H	0.951853	-1.045792	-0.560603
H262	H	1.451853	-0.545792	-0.060603
H263	H	0.992958	-0.688384	-0.519372
H264	H	1.492958	-0.188384	-0.019372
H265	H	1.043008	-0.387448	-0.469143
H266	H	1.543008	0.112552	0.030857
H267	H	1.275713	-0.743969	-0.237065
H268	H	1.775713	-0.243969	0.262935
N269	N	1.032793	-0.274399	-0.922107
N270	N	1.532793	0.225601	-0.422107
N271	N	0.987944	-0.300042	-0.958693
N272	N	1.487944	0.199958	-0.458693
H273	H	0.951686	-0.320772	-0.929115
H274	H	1.451686	0.179228	-0.429115
N275	N	1.032770	-0.274404	-0.834958
N276	N	1.532770	0.225596	-0.334958
N277	N	0.960341	-0.271412	-0.825790
N278	N	1.460341	0.228588	-0.325790
H279	H	0.924082	-0.292124	-0.855341
H280	H	1.424082	0.207876	-0.355341
N281	N	1.286160	-0.833951	-0.226695
N282	N	1.786160	-0.333951	0.273305
N283	N	1.286168	-0.875841	-0.226718
N284	N	1.786168	-0.375841	0.273282
H285	H	1.322405	-0.892768	-0.190542
H286	H	1.822405	-0.392768	0.309458
N287	N	0.982625	-0.833998	-0.529778
N288	N	1.482625	-0.333998	-0.029778
N289	N	0.937774	-0.813052	-0.574549
N290	N	1.437774	-0.313052	-0.074549
H291	H	0.901539	-0.829974	-0.610744
H292	H	1.401539	-0.329974	-0.110744
H293	H	0.992994	-0.744033	-0.519368
H294	H	1.492994	-0.244033	-0.019368
N295	N	1.235907	-0.158293	-0.669353
N296	N	1.735907	0.341707	-0.169353
N297	N	1.280766	-0.132640	-0.705983
N298	N	1.780766	0.367360	-0.205983
H299	H	1.317015	-0.111917	-0.676442
H300	H	1.817015	0.388083	-0.176442
N301	N	1.235924	-0.158263	-0.835044
N302	N	1.735924	0.341737	-0.335044
N303	N	1.280777	-0.132624	-0.798456
N304	N	1.780777	0.367376	-0.298456
H305	H	1.317033	-0.111891	-0.828032
H306	H	1.817033	0.388109	-0.328032
H307	H	1.225534	-0.164205	-0.930681
H308	H	1.725534	0.335795	-0.430681
N309	N	1.032754	-0.274437	-0.669256
N310	N	1.532754	0.225563	-0.169256
N311	N	0.987902	-0.300079	-0.705842
N312	N	1.487902	0.199921	-0.205842
H313	H	0.951640	-0.320807	-0.676264
H314	H	1.451640	0.179193	-0.176264
