data_functionalizedCrystal
_audit_creation_method	'MofGen! by Chris Wilmer'
_symmetry_space_group_name_H-M	'P1'
_symmetry_Int_Tables_number	1
_symmetry_cell_setting	triclinic
loop_
_symmetry_equiv_pos_as_xyz
  x,y,z
_cell_length_a	11.792241
_cell_length_b	10.268362
_cell_length_c	11.792254
_cell_angle_alpha	89.999366
_cell_angle_beta	84.196006
_cell_angle_gamma	89.998946
loop_
_atom_site_label
_atom_site_type_symbol
_atom_site_fract_x
_atom_site_fract_y
_atom_site_fract_z
O1	O	1.506917	-0.108160	0.155567
O2	O	1.840250	0.225173	0.488901
O3	O	2.173584	0.558507	0.822234
O4	O	1.176577	-0.108189	0.171600
O5	O	1.509910	0.225144	0.504934
O6	O	1.843243	0.558478	0.838267
O7	O	1.349756	-0.108180	-0.001586
O8	O	1.683089	0.225154	0.331748
O9	O	2.016422	0.558487	0.665081
O10	O	1.333738	-0.108169	0.328753
O11	O	1.667071	0.225164	0.662087
O12	O	2.000405	0.558497	0.995420
O13	O	1.349738	0.108421	-0.001592
O14	O	1.683072	0.441754	0.331741
O15	O	2.016405	0.775088	0.665075
O16	O	1.176559	0.108412	0.171594
O17	O	1.509893	0.441745	0.504927
O18	O	1.843226	0.775078	0.838261
O19	O	1.506900	0.108441	0.155561
O20	O	1.840233	0.441774	0.488894
O21	O	2.173566	0.775107	0.822228
Cu22	Cu	1.341728	0.128204	0.163577
Cu23	Cu	1.675061	0.461537	0.496910
Cu24	Cu	2.008394	0.794870	0.830244
Cu25	Cu	1.341748	-0.127952	0.163584
Cu26	Cu	1.675082	0.205382	0.496918
Cu27	Cu	2.008415	0.538715	0.830251
O28	O	1.333720	0.108431	0.328747
O29	O	1.667054	0.441765	0.662080
O30	O	2.000387	0.775098	0.995414
C31	C	1.134277	0.000107	0.170590
C32	C	1.467610	0.333441	0.503923
C33	C	1.800944	0.666774	0.837257
C34	C	1.008263	0.000096	0.167576
C35	C	1.341596	0.333429	0.500909
C36	C	1.674930	0.666762	0.834242
N37	N	1.341721	0.308369	0.163571
N38	N	1.675055	0.641703	0.496904
N39	N	2.008388	0.975036	0.830238
C40	C	1.348738	0.000116	-0.043880
C41	C	1.682071	0.333449	0.289454
C42	C	2.015405	0.666783	0.622787
C43	C	1.345718	0.000103	-0.169893
C44	C	1.679051	0.333436	0.163441
C45	C	2.012385	0.666770	0.496774
C46	C	0.777551	0.000133	0.162033
C47	C	1.110884	0.333466	0.495366
C48	C	1.444217	0.666800	0.828699
C49	C	0.905936	0.000113	0.165112
C50	C	1.239269	0.333446	0.498446
C51	C	1.572603	0.666779	0.831779
C52	C	1.549199	0.000141	0.156571
C53	C	1.882533	0.333475	0.489905
C54	C	2.215866	0.666808	0.823238
C55	C	1.675213	0.000144	0.159586
C56	C	2.008546	0.333478	0.492919
C57	C	2.341880	0.666811	0.826252
C58	C	1.341735	0.574040	0.163585
C59	C	1.675068	0.907373	0.496918
C60	C	2.008402	1.240707	0.830252
C61	C	1.341724	0.426202	0.163581
C62	C	1.675057	0.759535	0.496914
C63	C	2.008391	1.092869	0.830247
N64	N	1.341753	0.691882	0.163586
N65	N	1.675086	1.025216	0.496919
N66	N	2.008420	1.358549	0.830252
C67	C	1.334738	0.000133	0.371041
C68	C	1.668071	0.333466	0.704374
C69	C	2.001405	0.666799	1.037708
C70	C	1.337758	0.000137	0.497054
C71	C	1.671092	0.333471	0.830387
C72	C	2.004425	0.666804	1.163721
C73	C	1.340212	0.000130	0.599390
C74	C	1.673546	0.333464	0.932724
C75	C	2.006879	0.666797	1.266057
C76	C	1.343281	0.000115	0.727777
C77	C	1.676614	0.333449	1.061110
C78	C	2.009947	0.666782	1.394444
