data_functionalizedCrystal
_audit_creation_method	'MofGen! by Chris Wilmer'
_symmetry_space_group_name_H-M	'P1'
_symmetry_Int_Tables_number	1
_symmetry_cell_setting	triclinic
loop_
_symmetry_equiv_pos_as_xyz
  x,y,z
_cell_length_a	14.971486
_cell_length_b	12.811415
_cell_length_c	14.048226
_cell_angle_alpha	84.562719
_cell_angle_beta	89.998499
_cell_angle_gamma	83.830191
loop_
_atom_site_label
_atom_site_type_symbol
_atom_site_fract_x
_atom_site_fract_y
_atom_site_fract_z
O1	O	1.187332	0.136784	-0.090857
O2	O	0.926978	0.153164	-0.092297
O3	O	1.063704	-0.007811	-0.078383
O4	O	1.050606	0.297759	-0.104771
O5	O	1.063688	-0.007820	0.079939
O6	O	0.926962	0.153155	0.066025
O7	O	1.187316	0.136775	0.067465
Zn8	Zn	1.057136	0.144963	0.091882
Zn9	Zn	1.057158	0.144976	-0.116714
O10	O	1.050589	0.297750	0.053551
C11	C	0.893643	0.152427	-0.013076
C12	C	0.794340	0.150232	-0.012896
C13	C	1.062962	-0.046921	0.004153
C14	C	1.060763	-0.163442	0.014209
C15	C	0.737381	0.244800	-0.021062
C16	C	0.644076	0.242731	-0.020869
C17	C	0.607731	0.146093	-0.012517
C18	C	0.664697	0.051517	-0.004348
C19	C	0.758001	0.053587	-0.004535
C20	C	0.470223	0.047209	-0.003963
C21	C	0.376913	0.045139	-0.003779
C22	C	0.356297	0.236353	-0.020297
C23	C	0.449601	0.238423	-0.020484
C24	C	0.506561	0.143847	-0.012316
C25	C	1.056633	-0.382376	-0.139518
C26	C	1.054567	-0.491858	-0.130075
C27	C	1.054558	-0.491890	0.042539
C28	C	1.056624	-0.382407	0.033095
C29	C	1.057663	-0.327655	-0.057936
C30	C	1.059735	-0.218172	-0.067379
C31	C	1.059720	-0.218204	0.105233
C32	C	1.057654	-0.327686	0.114677
C33	C	1.220651	0.137512	-0.011758
C34	C	1.319954	0.139707	-0.011944
C35	C	1.051332	0.336860	-0.028987
C36	C	1.053531	0.453381	-0.039049
N37	N	1.057128	0.144954	0.234244
N38	N	1.057173	0.144977	-0.259075
C39	C	1.117689	0.073704	0.290220
C40	C	1.117695	0.073703	0.389878
C41	C	1.057143	0.144959	0.433557
C42	C	0.996575	0.216212	0.377573
C43	C	0.996566	0.216207	0.277917
C44	C	0.996601	0.216220	0.585286
C45	C	0.996612	0.216227	0.684948
C46	C	1.117731	0.073716	0.697247
C47	C	1.117721	0.073711	0.597591
C48	C	1.057154	0.144966	0.541614
H49	H	0.766965	0.323494	-0.027863
H50	H	1.053705	-0.536487	0.116652
H51	H	0.947303	0.274249	0.720506
N52	N	0.294866	0.338361	-0.029013
H53	H	0.332048	0.399894	-0.034310
H54	H	0.255661	0.341731	-0.087963
N55	N	1.060796	-0.159069	-0.165543
H56	H	1.117017	-0.122054	-0.172606
H57	H	1.059774	-0.210380	-0.215757
N58	N	0.582603	0.344701	-0.029659
H59	H	0.543449	0.348059	0.028754
H60	H	0.619809	0.406209	-0.035010
H61	H	1.167001	0.015684	0.254664
N62	N	0.488812	0.342647	-0.029488
H63	H	0.527062	0.347764	-0.088623
H64	H	0.438527	0.402190	-0.034590
H65	H	0.804377	-0.023420	0.002114
N66	N	1.056547	-0.386748	0.212855
H67	H	1.001528	-0.359269	0.248222
H68	H	1.055118	-0.464394	0.206376
H69	H	0.947278	0.274240	0.539713
H70	H	0.516598	-0.029805	0.002689
H71	H	0.947268	0.274226	0.413142
H72	H	1.167008	0.015685	0.435454
H73	H	1.060563	-0.173639	0.171663
H74	H	1.167031	0.015695	0.562028
N75	N	0.337709	-0.059089	0.005226
H76	H	0.387949	-0.118689	0.010378
H77	H	0.299444	-0.064107	0.064352
N78	N	1.057737	-0.323261	-0.237673
H79	H	1.112756	-0.350706	-0.273059
H80	H	1.001957	-0.333867	-0.274415
H81	H	1.053725	-0.536408	-0.196507
H82	H	0.635099	-0.027168	0.002465
H83	H	1.167046	0.015698	0.742829
H84	H	0.947249	0.274225	0.232342
