data_functionalizedCrystal
_audit_creation_method	'MofGen! by Chris Wilmer'
_symmetry_space_group_name_H-M	'P1'
_symmetry_Int_Tables_number	1
_symmetry_cell_setting	triclinic
loop_
_symmetry_equiv_pos_as_xyz
  x,y,z
_cell_length_a	12.759401
_cell_length_b	12.827892
_cell_length_c	12.827885
_cell_angle_alpha	89.972922
_cell_angle_beta	90.019639
_cell_angle_gamma	89.981145
loop_
_atom_site_label
_atom_site_type_symbol
_atom_site_fract_x
_atom_site_fract_y
_atom_site_fract_z
Zn1	Zn	1.606234	0.415938	0.590875
Zn2	Zn	2.106234	0.915938	1.090875
Zn3	Zn	1.606121	0.590716	0.416144
Zn4	Zn	2.106121	1.090716	0.916144
Zn5	Zn	1.430536	0.415994	0.416148
Zn6	Zn	1.930536	0.915994	0.916148
Zn7	Zn	1.430516	0.590642	0.590843
Zn8	Zn	1.930516	1.090642	1.090843
O9	O	1.518352	0.503323	0.503502
O10	O	2.018352	1.003323	1.003502
O11	O	1.753240	0.439130	0.567708
O12	O	2.253240	0.939130	1.067708
O13	O	1.582790	0.567593	0.269908
O14	O	2.082790	1.067593	0.769908
O15	O	1.453899	0.269751	0.439340
O16	O	1.953899	0.769751	0.939340
O17	O	1.753157	0.567539	0.439334
O18	O	2.253157	1.067539	0.939334
O19	O	1.582983	0.269709	0.567712
O20	O	2.082983	0.769709	1.067712
O21	O	1.453789	0.439226	0.269911
O22	O	1.953789	0.939226	0.769911
O23	O	1.283513	0.439154	0.439310
O24	O	1.783513	0.939154	0.939310
O25	O	1.453864	0.567413	0.737084
O26	O	1.953864	1.067413	1.237084
O27	O	1.283498	0.567468	0.567658
O28	O	1.783498	1.067468	1.067658
O29	O	1.582963	0.439059	0.737107
O30	O	2.082963	0.939059	1.237107
O31	O	1.582771	0.736942	0.439303
O32	O	2.082771	1.236942	0.939303
O33	O	1.453755	0.736888	0.567654
O34	O	1.953755	1.236888	1.067654
C35	C	1.245384	0.503310	0.503482
C36	C	1.745384	1.003310	1.003482
C37	C	1.128608	0.503329	0.503498
C38	C	1.628608	1.003329	1.003498
C39	C	1.073766	0.570244	0.570223
C40	C	1.573766	1.070244	1.070223
C41	C	0.964042	0.570248	0.570244
C42	C	1.464042	1.070248	1.070244
C43	C	0.964011	0.436420	0.436804
C44	C	1.464011	0.936420	0.936804
C45	C	1.073734	0.436412	0.436790
C46	C	1.573734	0.936412	0.936790
C47	C	1.518277	0.774832	0.503498
C48	C	2.018277	1.274832	1.003498
C49	C	1.518341	0.890986	0.503531
C50	C	2.018341	1.390986	1.003531
C51	C	1.582256	0.942762	0.440092
C52	C	2.082256	1.442762	0.940092
C53	C	1.582324	1.062813	0.440124
C54	C	2.082324	1.562813	0.940124
C55	C	1.792385	0.503336	0.503524
C56	C	2.292385	1.003336	1.003524
C57	C	1.909162	0.503342	0.503533
C58	C	2.409162	1.003342	1.003533
C59	C	1.518424	0.503221	0.776073
C60	C	2.018424	1.003221	1.276073
C61	C	1.518455	0.503178	0.892226
C62	C	2.018455	1.003178	1.392226
C63	C	1.518447	1.230752	0.503543
C64	C	2.018447	1.730752	1.003543
C65	C	1.518466	1.114599	0.503592
C66	C	2.018466	1.614599	1.003592
C67	C	1.518340	0.503348	0.231992
C68	C	2.018340	1.003348	0.731992
C69	C	1.518513	0.503097	0.115840
C70	C	2.018513	1.003097	0.615840
C71	C	1.454593	0.566666	0.943999
C72	C	1.954593	1.066666	1.443999
C73	C	1.454624	0.566623	1.064050
C74	C	1.954624	1.066623	1.564050
H75	H	1.118387	0.381915	0.382454
H76	H	1.618387	0.881915	0.882454
F77	F	1.383152	0.637666	1.122242
F78	F	1.883152	1.137666	1.622242
F79	F	1.132163	0.641461	0.641222
F80	F	1.632163	1.141461	1.141222
H81	H	1.463675	0.935534	0.557871
H82	H	1.963675	1.435534	1.057871
F83	F	0.905679	0.641465	0.641265
F84	F	1.405679	1.141465	1.141265
H85	H	1.573185	0.448735	1.071323
H86	H	2.073185	0.948735	1.571323
F87	F	1.589956	0.432094	0.950453
F88	F	2.089956	0.932094	1.450453
F89	F	1.653844	1.121009	0.369126
F90	F	2.153844	1.621009	0.869126
F91	F	0.905601	0.365207	0.365812
F92	F	1.405601	0.865207	0.865812
H93	H	1.636931	0.898216	0.385758
H94	H	2.136931	1.398216	0.885758
H95	H	1.463738	1.070080	0.557904
H96	H	1.963738	1.570080	1.057904
H97	H	1.399900	0.621057	0.899447
H98	H	1.899900	1.121057	1.399447
