data_functionalizedCrystal
_audit_creation_method	'MofGen! by Chris Wilmer'
_symmetry_space_group_name_H-M	'P1'
_symmetry_Int_Tables_number	1
_symmetry_cell_setting	triclinic
loop_
_symmetry_equiv_pos_as_xyz
  x,y,z
_cell_length_a	9.065215
_cell_length_b	19.288865
_cell_length_c	17.766277
_cell_angle_alpha	89.988397
_cell_angle_beta	89.991201
_cell_angle_gamma	84.075472
loop_
_atom_site_label
_atom_site_type_symbol
_atom_site_fract_x
_atom_site_fract_y
_atom_site_fract_z
O1	O	1.956847	0.101833	-0.062596
O2	O	1.527269	0.110188	-0.062600
O3	O	1.754470	0.004976	-0.062583
O4	O	1.729645	0.207044	-0.062613
O5	O	1.754431	0.004971	0.062606
O6	O	1.527229	0.110182	0.062589
O7	O	1.956807	0.101827	0.062593
Cu8	Cu	1.742014	0.106004	0.074021
Cu9	Cu	1.742061	0.106011	-0.074028
O10	O	1.729605	0.207039	0.062576
C11	C	1.753652	-0.020909	0.000014
C12	C	1.751254	-0.098031	0.000020
C13	C	1.472290	0.109383	-0.000006
C14	C	1.308531	0.106983	-0.000007
C15	C	1.884565	-0.141693	0.000025
C16	C	1.882313	-0.214158	0.000013
C17	C	1.746741	-0.242957	0.000012
C18	C	1.613411	-0.199286	0.000002
C19	C	1.615668	-0.126823	0.000007
C20	C	1.640151	-0.352074	0.043861
C21	C	1.637900	-0.424536	0.043862
C22	C	1.739775	-0.466457	-0.000005
C23	C	1.843926	-0.435909	-0.043863
C24	C	1.846183	-0.363446	-0.043858
C25	C	1.744279	-0.321530	0.000006
C26	C	1.870653	-0.588694	-0.000014
C27	C	1.868395	-0.661159	-0.000031
C28	C	1.599490	-0.646286	-0.000034
C29	C	1.601752	-0.573822	-0.000025
C30	C	1.737338	-0.545030	-0.000012
C31	C	2.011785	0.102632	-0.000003
C32	C	2.175544	0.105032	-0.000007
C33	C	1.730424	0.232924	-0.000022
C34	C	1.732822	0.310046	-0.000034
N35	N	1.741992	0.105999	0.178152
N36	N	1.742095	0.106010	-0.178159
C37	C	1.842629	0.059435	0.217546
C38	C	1.842638	0.059431	0.296348
C39	C	1.742023	0.106005	0.335752
C40	C	1.641367	0.152573	0.296348
C41	C	1.641351	0.152570	0.217548
C42	C	1.722273	0.169139	0.460581
C43	C	1.722299	0.169143	0.539380
C44	C	1.742062	0.106013	0.578799
C45	C	1.761831	0.042877	0.539409
C46	C	1.761815	0.042874	0.460609
C47	C	1.742028	0.106013	0.421198
C48	C	1.842714	0.059442	0.703639
C49	C	1.842713	0.059437	0.782442
C50	C	1.641449	0.152585	0.782441
C51	C	1.641443	0.152583	0.703639
C52	C	1.742084	0.106012	0.664243
H53	H	1.994970	-0.118256	0.000034
H54	H	1.777908	-0.008533	0.428541
C55	C	2.028972	-0.262195	0.000024
N56	N	2.139436	-0.298374	0.000034
C57	C	1.523333	-0.458132	0.092105
N58	N	1.437036	-0.483434	0.128443
H59	H	1.930983	-0.338577	-0.079570
C60	C	1.530772	0.203817	0.825781
N61	N	1.447406	0.242406	0.858429
H62	H	1.559501	0.190503	0.671562
H63	H	1.489104	-0.669733	-0.000040
C64	C	2.015057	-0.709188	-0.000021
N65	N	2.125525	-0.745364	-0.000011
H66	H	1.706212	0.220552	0.571445
H67	H	1.557189	-0.317946	0.079587
C68	C	1.955993	-0.482017	-0.092124
N69	N	2.040399	-0.516749	-0.128472
C70	C	2.019799	-0.557021	-0.000011
N71	N	2.132137	-0.533167	-0.000010
C72	C	1.530684	0.203800	0.339695
N73	N	1.447309	0.242384	0.372343
H74	H	1.559398	0.190489	0.185472
H75	H	1.493195	-0.538271	-0.000025
H76	H	1.503028	-0.222739	-0.000001
H77	H	1.777923	-0.008529	0.571502
C78	C	1.700532	0.238591	0.417228
N79	N	1.684156	0.290901	0.384575
C80	C	1.469008	-0.078793	0.000003
N81	N	1.358541	-0.042615	0.000003
C82	C	1.953323	0.008198	0.174215
N83	N	2.036694	-0.030395	0.141577
C84	C	1.953365	0.008212	0.339691
N85	N	2.036772	-0.030364	0.372334
H86	H	1.924658	0.021519	0.671561
C87	C	1.953403	0.008198	0.825776
N88	N	2.036771	-0.030399	0.858416
