data_functionalizedCrystal
_audit_creation_method	'MofGen! by Chris Wilmer'
_symmetry_space_group_name_H-M	'P1'
_symmetry_Int_Tables_number	1
_symmetry_cell_setting	triclinic
loop_
_symmetry_equiv_pos_as_xyz
  x,y,z
_cell_length_a	12.827893
_cell_length_b	16.625545
_cell_length_c	12.827885
_cell_angle_alpha	90.032834
_cell_angle_beta	90.019082
_cell_angle_gamma	90.025719
loop_
_atom_site_label
_atom_site_type_symbol
_atom_site_fract_x
_atom_site_fract_y
_atom_site_fract_z
Zn1	Zn	1.597596	-0.320959	0.590821
Zn2	Zn	1.597459	-0.455813	0.416072
Zn3	Zn	1.422837	-0.320999	0.416095
Zn4	Zn	1.422791	-0.455754	0.590773
O5	O	1.510171	-0.388381	0.503440
O6	O	1.743814	-0.338856	0.567651
O7	O	1.574257	-0.437971	0.269839
O8	O	1.446096	-0.208161	0.439303
O9	O	1.743713	-0.437933	0.439264
O10	O	1.574490	-0.208132	0.567673
O11	O	1.445963	-0.338924	0.269856
O12	O	1.276595	-0.338866	0.439256
O13	O	1.446018	-0.437831	0.737015
O14	O	1.276562	-0.437870	0.567591
O15	O	1.574446	-0.338798	0.737051
O16	O	1.574212	-0.568638	0.439217
O17	O	1.445885	-0.568594	0.567568
C18	C	1.238661	-0.388366	0.503421
C19	C	1.122508	-0.388380	0.503438
C20	C	0.950690	-0.437459	0.566860
C21	C	1.070740	-0.437446	0.566844
C22	C	1.510057	-0.597872	0.503408
C23	C	1.510104	-0.687493	0.503428
C24	C	1.510145	-0.760276	0.503449
C25	C	1.510206	-0.851584	0.503472
C26	C	1.510260	-0.924361	0.503485
C27	C	1.510320	-1.015675	0.503507
C28	C	1.782741	-0.388397	0.503460
C29	C	1.898894	-0.388403	0.503468
C30	C	1.510242	-0.388304	0.776011
C31	C	1.510272	-0.388271	0.892164
C32	C	1.510313	-0.178072	0.503496
C33	C	1.510374	-0.088451	0.503520
C34	C	1.510160	-0.388400	0.231930
C35	C	1.510332	-0.388206	0.115778
C36	C	1.573829	-0.339257	0.943966
C37	C	1.573862	-0.339221	1.064017
H38	H	1.115283	-0.479441	0.621121
H39	H	0.906157	-0.479469	0.621139
C40	C	1.062350	-0.331637	0.430112
C41	C	0.987335	-0.268435	0.475615
C42	C	0.927168	-0.211692	0.402290
C43	C	0.942016	-0.218151	0.283461
C44	C	1.017034	-0.281356	0.237952
C45	C	1.077201	-0.338099	0.311277
H46	H	0.976341	-0.263651	0.563585
H47	H	0.871634	-0.164904	0.435979
H48	H	0.897477	-0.176147	0.229181
H49	H	1.028028	-0.286140	0.149982
H50	H	1.132734	-0.384887	0.277588
C51	C	1.647377	-0.282528	1.124189
C52	C	1.638921	-0.190859	1.109306
C53	C	1.712438	-0.134164	1.169481
C54	C	1.794411	-0.169137	1.244539
C55	C	1.802870	-0.260811	1.259426
C56	C	1.729353	-0.317506	1.199251
H57	H	1.578237	-0.164966	1.053741
H58	H	1.706176	-0.066301	1.158461
H59	H	1.848833	-0.127168	1.289085
H60	H	1.863554	-0.286704	1.314991
H61	H	1.735615	-0.385369	1.210271
H62	H	0.943427	-0.346399	0.449181
H63	H	1.455920	-0.430174	1.071236
C64	C	1.436791	-0.444929	0.952305
C65	C	1.482118	-0.508160	1.027354
C66	C	1.408634	-0.564820	1.087492
C67	C	1.289822	-0.558249	1.072582
C68	C	1.244489	-0.495015	0.997529
C69	C	1.317973	-0.438355	0.937391
H70	H	1.570075	-0.513027	1.038395
H71	H	1.442194	-0.611630	1.143051
H72	H	1.235425	-0.600192	1.117100
H73	H	1.156532	-0.490148	0.986489
H74	H	1.284413	-0.391545	0.881833
H75	H	1.628215	-0.297317	0.899439
