data_functionalizedCrystal
_audit_creation_method	'MofGen! by Chris Wilmer'
_symmetry_space_group_name_H-M	'P1'
_symmetry_Int_Tables_number	1
_symmetry_cell_setting	triclinic
loop_
_symmetry_equiv_pos_as_xyz
  x,y,z
_cell_length_a	29.839134
_cell_length_b	29.839133
_cell_length_c	12.594509
_cell_angle_alpha	89.975331
_cell_angle_beta	89.969257
_cell_angle_gamma	90.024465
loop_
_atom_site_label
_atom_site_type_symbol
_atom_site_fract_x
_atom_site_fract_y
_atom_site_fract_z
Zn1	Zn	0.686795	-0.178901	-0.602154
Zn2	Zn	0.686732	-0.254036	-0.424186
Zn3	Zn	0.611667	-0.178914	-0.424153
Zn4	Zn	0.611641	-0.253998	-0.602087
O5	O	0.649209	-0.216462	-0.513145
O6	O	0.749654	-0.188878	-0.578588
O7	O	0.676758	-0.244092	-0.275236
O8	O	0.621670	-0.116045	-0.447780
O9	O	0.749607	-0.244080	-0.447836
O10	O	0.676867	-0.116036	-0.578556
O11	O	0.621608	-0.188900	-0.275212
O12	O	0.548796	-0.188864	-0.447715
O13	O	0.621627	-0.244015	-0.751042
O14	O	0.548778	-0.244028	-0.578442
O15	O	0.676842	-0.188842	-0.751091
O16	O	0.676733	-0.316898	-0.447771
O17	O	0.621565	-0.316870	-0.578474
C18	C	0.649152	-0.333185	-0.513142
C19	C	0.649168	-0.383119	-0.513176
C20	C	0.532486	-0.216443	-0.513068
C21	C	0.482552	-0.216446	-0.513061
C22	C	0.677966	-0.739667	-0.581318
C23	C	0.677924	-0.551994	-0.581317
O24	O	0.702350	-0.527695	-0.639238
N25	N	0.649204	-0.528564	-0.513174
C26	C	0.620495	-0.552057	-0.445021
O27	O	0.596069	-0.527822	-0.387053
C28	C	0.620540	-0.739729	-0.445018
C29	C	0.649258	-0.763155	-0.513173
C30	C	0.706683	-0.763093	-0.649467
C31	C	0.706691	-0.810009	-0.649471
C32	C	0.677983	-0.833498	-0.581326
C33	C	0.649267	-0.810071	-0.513177
C34	C	0.591833	-0.763220	-0.376861
C35	C	0.591848	-0.810141	-0.376864
C36	C	0.620567	-0.833568	-0.445019
C37	C	0.620568	-0.880475	-0.445035
N38	N	0.649288	-0.903904	-0.513179
C39	C	0.677995	-0.880415	-0.581324
C40	C	0.620473	-0.453526	-0.445029
C41	C	0.620461	-0.406608	-0.445031
C42	C	0.677890	-0.406548	-0.581326
C43	C	0.677900	-0.453467	-0.581328
C44	C	0.649192	-0.476955	-0.513172
C45	C	0.678011	-0.978941	-0.581327
C46	C	0.678016	-1.025861	-0.581328
C47	C	0.620588	-1.025916	-0.445030
C48	C	0.620581	-0.979001	-0.445032
C49	C	0.649297	-0.955514	-0.513185
O50	O	0.596157	-0.904802	-0.387136
O51	O	0.702424	-0.904658	-0.639266
C52	C	0.677958	-0.692751	-0.581315
C53	C	0.649241	-0.669324	-0.513166
C54	C	0.620533	-0.692813	-0.445020
C55	C	0.649229	-0.622407	-0.513168
C56	C	0.677937	-0.598918	-0.581313
C57	C	0.706657	-0.622347	-0.649456
C58	C	0.706665	-0.669262	-0.649460
C59	C	0.591814	-0.669384	-0.376877
C60	C	0.591807	-0.622469	-0.376880
C61	C	0.620515	-0.598980	-0.445025
C62	C	0.172908	-0.245229	-0.581131
C63	C	-0.014765	-0.245241	-0.581179
O64	O	-0.039030	-0.269692	-0.639009
N65	N	-0.038233	-0.216479	-0.513225
C66	C	-0.014781	-0.187709	-0.445260
O67	O	-0.039048	-0.163242	-0.387470
C68	C	0.172892	-0.187694	-0.445219
C69	C	0.196358	-0.216462	-0.513169
C70	C	0.196374	-0.273994	-0.649077
C71	C	0.243290	-0.273992	-0.649060
C72	C	0.266739	-0.245225	-0.581098
C73	C	0.243273	-0.216460	-0.513152
C74	C	0.196343	-0.158923	-0.377260
C75	C	0.243264	-0.158921	-0.377258
C76	C	0.266730	-0.187688	-0.445208
C77	C	0.313638	-0.187692	-0.445174
N78	N	0.337106	-0.216454	-0.513127
C79	C	0.313657	-0.245221	-0.581089
C80	C	-0.113311	-0.187719	-0.445285
C81	C	-0.160229	-0.187723	-0.445294
C82	C	-0.160210	-0.245255	-0.581214
C83	C	-0.113291	-0.245253	-0.581199
C84	C	-0.089843	-0.216482	-0.513238
C85	C	0.412183	-0.245216	-0.581049
C86	C	0.459102	-0.245213	-0.581023
C87	C	0.459079	-0.187679	-0.445107
C88	C	0.412164	-0.187684	-0.445128
C89	C	0.388717	-0.216453	-0.513108
O90	O	0.337932	-0.163250	-0.387382
O91	O	0.337933	-0.269678	-0.638887
C92	C	0.125993	-0.245231	-0.581148
C93	C	0.102527	-0.216466	-0.513202
C94	C	0.125976	-0.187699	-0.445240
C95	C	0.055609	-0.216470	-0.513211
C96	C	0.032159	-0.245236	-0.581173
C97	C	0.055628	-0.273999	-0.649127
C98	C	0.102543	-0.273997	-0.649110
C99	C	0.102508	-0.158936	-0.377287
C100	C	0.055592	-0.158941	-0.377308
C101	C	0.032143	-0.187707	-0.445270
C102	C	0.766387	-0.216482	-0.513223
C103	C	0.816322	-0.216490	-0.513256
C104	C	0.649239	-0.216423	-0.790766
C105	C	0.649252	-0.216406	-0.909072
C106	C	0.649278	-0.099284	-0.513171
C107	C	0.649308	-0.049350	-0.513183
C108	C	0.619230	-0.246398	-0.978298
C109	C	0.660220	-0.257378	-1.049106
C110	C	0.608294	-0.205399	-1.049063
C111	C	0.690263	-0.227408	-0.978321
C112	C	0.638310	-0.175410	-0.978272
C113	C	0.679328	-0.186374	-1.049048
C114	C	0.649205	-0.216469	-0.236604
C115	C	0.649279	-0.216359	-0.118299
H116	H	0.701401	-1.044933	-0.636835
O117	O	0.563937	-0.833006	-0.310806
C118	C	0.503276	-0.885993	-0.296320
C119	C	0.534864	-0.860136	-0.371244
H120	H	0.479755	-0.907927	-0.345155
H121	H	0.523894	-0.907987	-0.240738
H122	H	0.482771	-0.861178	-0.247590
H123	H	0.555375	-0.884919	-0.420043
H124	H	0.514219	-0.838135	-0.426756
O125	O	0.389342	-0.159802	-0.379022
C126	C	0.336295	-0.153665	-0.235441
C127	C	0.362119	-0.185299	-0.310202
H128	H	0.314272	-0.174265	-0.179796
H129	H	0.361091	-0.133108	-0.186782
H130	H	0.314380	-0.130195	-0.284459
H131	H	0.384035	-0.208795	-0.261266
H132	H	0.337299	-0.205824	-0.358865
O133	O	0.566993	-0.194258	-1.086260
C134	C	0.523269	-0.142311	-1.189780
C135	C	0.570069	-0.154877	-1.147750
H136	H	0.525738	-0.110466	-1.239485
H137	H	0.509741	-0.170775	-1.240923
H138	H	0.499674	-0.136374	-1.119973
H139	H	0.593698	-0.160807	-1.217492
H140	H	0.583560	-0.126406	-1.096576
O141	O	0.705916	-0.956200	-0.647637
C142	C	0.762889	-0.961105	-0.782796
C143	C	0.731307	-0.986915	-0.707765
H144	H	0.783432	-0.985927	-0.831414
H145	H	0.742265	-0.939156	-0.838467
H146	H	0.786373	-0.939120	-0.733990
H147	H	0.707816	-1.008924	-0.756485
H148	H	0.751959	-1.008835	-0.652091
H149	H	0.597094	-0.472646	-0.389525
O150	O	0.734638	-0.832693	-0.715695
C151	C	0.791592	-0.827664	-0.850894
C152	C	0.759966	-0.801923	-0.775939
H153	H	0.812071	-0.802798	-0.899637
H154	H	0.815130	-0.849607	-0.802131
H155	H	0.770960	-0.849649	-0.906461
H156	H	0.780562	-0.779914	-0.720357
H157	H	0.736427	-0.780009	-0.824769
O158	O	0.709724	-0.156143	-1.085834
C159	C	0.787236	-0.133564	-1.091278
C160	C	0.752861	-0.167835	-1.049564
H161	H	0.822118	-0.142999	-1.061952
H162	H	0.786858	-0.133557	-1.181792
H163	H	0.778171	-0.098741	-1.060910
H164	H	0.761901	-0.202675	-1.079854
H165	H	0.753245	-0.167803	-0.959051
O166	O	0.734530	-0.599456	-0.715552
C167	C	0.759941	-0.527143	-0.775974
C168	C	0.728360	-0.553014	-0.701060
H169	H	0.754957	-0.489590	-0.764299
H170	H	0.796184	-0.536312	-0.757378
H171	H	0.752040	-0.536380	-0.861771
H172	H	0.736221	-0.543791	-0.615238
H173	H	0.692127	-0.543842	-0.719748
O174	O	0.627186	-0.134120	-0.940984
C175	C	0.575718	-0.090559	-0.835727
C176	C	0.588277	-0.137345	-0.877866
H177	H	0.544253	-0.093150	-0.784705
H178	H	0.604462	-0.076769	-0.785874
H179	H	0.569125	-0.067114	-0.905480
H180	H	0.594861	-0.160824	-0.808177
H181	H	0.559525	-0.151099	-0.927751
O182	O	-0.183091	-0.159832	-0.379295
C183	C	-0.255373	-0.134331	-0.319064
C184	C	-0.229540	-0.165946	-0.393853
H185	H	-0.292932	-0.139256	-0.330824
H186	H	-0.246199	-0.142186	-0.233193
H187	H	-0.246106	-0.098117	-0.337862
H188	H	-0.238793	-0.202171	-0.375151
H189	H	-0.238716	-0.158052	-0.479702
H190	H	0.393098	-0.268642	-0.636406
H191	H	0.121595	-0.135510	-0.321943
O192	O	0.731615	-0.238605	-0.941543
C193	C	0.790012	-0.294320	-0.936646
C194	C	0.743185	-0.281690	-0.978391
H195	H	0.799377	-0.329158	-0.966402
H196	H	0.815661	-0.268921	-0.966424
H197	H	0.789653	-0.294240	-0.846133
H198	H	0.743501	-0.281774	-1.068901
H199	H	0.717557	-0.307091	-0.948532
O200	O	0.266012	-0.301948	-0.715176
C201	C	0.261061	-0.359028	-0.849951
C202	C	0.235277	-0.327383	-0.775140
H203	H	0.236223	-0.379606	-0.898436
H204	H	0.283036	-0.338451	-0.905757
H205	H	0.283018	-0.382476	-0.800982
H206	H	0.213296	-0.303928	-0.824024
H207	H	0.213331	-0.347987	-0.719332
O208	O	0.671289	-0.298682	-1.086416
C209	C	0.684042	-0.344822	-1.240465
C210	C	0.671517	-0.298021	-1.198357
H211	H	0.684222	-0.344306	-1.330973
H212	H	0.718735	-0.354449	-1.210236
H213	H	0.658408	-0.370369	-1.211345
H214	H	0.697121	-0.272443	-1.227460
H215	H	0.636813	-0.288432	-1.228577
O216	O	0.734508	-0.740232	-0.715725
C217	C	0.740500	-0.687265	-0.859518
C218	C	0.708939	-0.713115	-0.784517
H219	H	0.719840	-0.665343	-0.915170
H220	H	0.763996	-0.665260	-0.810791
H221	H	0.761033	-0.712085	-0.908168
H222	H	0.688377	-0.688329	-0.735851
H223	H	0.685473	-0.735127	-0.833305
O224	O	0.173580	-0.301877	-0.715212
C225	C	0.120632	-0.308018	-0.858873
C226	C	0.146422	-0.276383	-0.784061
H227	H	0.098661	-0.287418	-0.914542
H228	H	0.145451	-0.328565	-0.907504
H229	H	0.098668	-0.331496	-0.809897
H230	H	0.168387	-0.252877	-0.832955
H231	H	0.121579	-0.255867	-0.735427
H232	H	0.701283	-0.472538	-0.636831
O233	O	-0.090568	-0.273209	-0.647312
C234	C	-0.095514	-0.330292	-0.782080
C235	C	-0.121301	-0.298647	-0.707273
H236	H	-0.120350	-0.350874	-0.830562
H237	H	-0.073541	-0.309716	-0.837888
H238	H	-0.073555	-0.353738	-0.733107
H239	H	-0.143284	-0.275196	-0.756160
H240	H	-0.143245	-0.319252	-0.651462
O241	O	0.481876	-0.273110	-0.647189
C242	C	0.496248	-0.295027	-0.828152
C243	C	0.470440	-0.263401	-0.753342
H244	H	0.487004	-0.287194	-0.913991
H245	H	0.533816	-0.290086	-0.816565
H246	H	0.487008	-0.331239	-0.809268
H247	H	0.479643	-0.227176	-0.772179
H248	H	0.432878	-0.268381	-0.764943
O249	O	0.173497	-0.130969	-0.311384
C250	C	0.120548	-0.070311	-0.297253
C251	C	0.146389	-0.101939	-0.371993
H252	H	0.098632	-0.046825	-0.346226
H253	H	0.098537	-0.090900	-0.241556
H254	H	0.145372	-0.049771	-0.248638
H255	H	0.121597	-0.122486	-0.420677
H256	H	0.168407	-0.081323	-0.427621
H257	H	0.597070	-0.387537	-0.389545
H258	H	0.597214	-1.045049	-0.389550
O259	O	0.032746	-0.130980	-0.311431
C260	C	-0.020192	-0.070310	-0.297342
C261	C	0.005646	-0.101950	-0.372061
H262	H	-0.042101	-0.046824	-0.346332
H263	H	-0.042209	-0.090890	-0.241638
H264	H	0.004635	-0.049770	-0.248732
H265	H	-0.019148	-0.122496	-0.420739
H266	H	0.027670	-0.081344	-0.427694
H267	H	0.593861	-0.271801	-0.947234
H268	H	0.701265	-0.387416	-0.636814
O269	O	-0.090606	-0.159756	-0.379159
C270	C	-0.095589	-0.102675	-0.244390
C271	C	-0.121355	-0.134327	-0.319209
H272	H	-0.120438	-0.082101	-0.195917
H273	H	-0.073657	-0.123247	-0.188575
H274	H	-0.073590	-0.079224	-0.293353
H275	H	-0.143378	-0.157785	-0.270332
H276	H	-0.143258	-0.113727	-0.375028
O277	O	0.481812	-0.159675	-0.379139
C278	C	0.496208	-0.083228	-0.327815
C279	C	0.470428	-0.114895	-0.402569
H280	H	0.487020	-0.047016	-0.346746
H281	H	0.486948	-0.091035	-0.241943
H282	H	0.533769	-0.088192	-0.339462
H283	H	0.432860	-0.109948	-0.391017
H284	H	0.479724	-0.107080	-0.488414
H285	H	0.568449	-0.744152	-0.321362
O286	O	0.032824	-0.301878	-0.715261
C287	C	-0.020139	-0.307985	-0.858900
C288	C	0.005670	-0.276367	-0.784087
H289	H	-0.042106	-0.287373	-0.914549
H290	H	0.004667	-0.328539	-0.907552
H291	H	-0.042109	-0.331459	-0.809924
H292	H	0.027641	-0.252866	-0.832980
H293	H	-0.019160	-0.255845	-0.735431
H294	H	0.568417	-0.603398	-0.321382
O295	O	0.592665	-0.956311	-0.378743
C296	C	0.535677	-0.961328	-0.243620
C297	C	0.567276	-0.987075	-0.318625
H298	H	0.515136	-0.986189	-0.195011
H299	H	0.556288	-0.939373	-0.187939
H300	H	0.512192	-0.939354	-0.292445
H301	H	0.590768	-1.009073	-0.269885
H302	H	0.546638	-1.009002	-0.374308
H303	H	0.730051	-0.688332	-0.704960
H304	H	-0.179311	-0.268678	-0.636551
H305	H	0.568436	-0.688504	-0.321382
H306	H	0.262354	-0.135488	-0.321921
H307	H	0.121645	-0.297423	-0.704443
