data_functionalizedCrystal
_audit_creation_method	'MofGen! by Chris Wilmer'
_symmetry_space_group_name_H-M	'P1'
_symmetry_Int_Tables_number	1
_symmetry_cell_setting	triclinic
loop_
_symmetry_equiv_pos_as_xyz
  x,y,z
_cell_length_a	6.817900
_cell_length_b	7.190334
_cell_length_c	16.256275
_cell_angle_alpha	89.346849
_cell_angle_beta	76.499667
_cell_angle_gamma	119.388224
loop_
_atom_site_label
_atom_site_type_symbol
_atom_site_fract_x
_atom_site_fract_y
_atom_site_fract_z
V1	V	4.223270	0.665751	-0.115742
O2	O	4.206711	0.652297	0.006951
O3	O	4.173762	0.661948	-0.230834
O4	O	4.260428	0.955765	-0.113353
O5	O	4.119445	0.356446	-0.111343
V6	V	4.695955	0.628664	-0.101139
O7	O	4.508302	0.747103	-0.147776
O8	O	4.861120	0.547312	-0.069105
O9	O	4.522256	0.632466	0.013952
O10	O	4.829911	0.642118	-0.223832
O11	O	4.917177	0.937969	-0.105538
O12	O	4.435591	0.338650	-0.103529
C13	C	4.015725	0.651640	-0.258909
C14	C	4.057104	0.650464	-0.352994
C15	C	4.126286	1.026429	-0.109047
C16	C	4.240041	1.267978	-0.107831
C17	C	4.350486	0.658716	-0.584799
C18	C	4.367051	0.829176	-0.649424
C19	C	4.132759	0.648275	-0.525247
C20	C	4.189924	0.475762	-0.628266
C21	C	4.205848	0.646151	-0.691635
C22	C	4.148851	0.818896	-0.588641
C23	C	3.971670	0.465325	-0.567469
C24	C	3.988104	0.635820	-0.632068
C25	C	4.090660	0.649500	-0.429395
C26	C	4.247938	0.644940	-0.787485
C27	C	4.343634	0.642769	0.042024
C28	C	4.281498	0.643959	0.136107
H29	H	4.503356	0.668627	-0.563911
O30	O	4.566797	1.012603	-0.692007
C31	C	4.602194	1.009773	-0.780864
H32	H	4.427770	0.897813	-0.794536
H33	H	4.728666	0.949309	-0.804902
C34	C	4.919864	1.377108	-0.810195
C35	C	4.705631	1.239611	-0.826988
H36	H	4.983679	1.518883	-0.838648
H37	H	4.896024	1.379014	-0.750331
H38	H	5.025230	1.326695	-0.830228
H39	H	4.600260	1.290009	-0.806946
H40	H	4.729456	1.237719	-0.886850
O41	O	3.805789	0.624200	-0.656961
C42	C	3.846161	0.621482	-0.745928
H43	H	3.973308	0.561062	-0.768497
H44	H	3.924208	0.791649	-0.780348
C45	C	3.456917	0.544472	-0.738411
C46	C	3.613065	0.470245	-0.766129
H47	H	3.313133	0.451191	-0.750873
H48	H	3.429718	0.546311	-0.678472
H49	H	3.521985	0.686278	-0.767097
H50	H	3.548009	0.328454	-0.737435
H51	H	3.640248	0.468379	-0.826063
H52	H	4.131237	0.964077	-0.571071
O53	O	3.772063	0.281616	-0.525040
C54	C	3.794017	0.101178	-0.544943
H55	H	3.987321	0.152826	-0.567113
H56	H	3.708185	0.031406	-0.598130
C57	C	3.435399	-0.134875	-0.437660
C58	C	3.672820	-0.071443	-0.464883
H59	H	3.360631	-0.241362	-0.388277
H60	H	3.420602	-0.013313	-0.424253
H61	H	3.363905	-0.193005	-0.481990
H62	H	3.744316	-0.013291	-0.420558
H63	H	3.687626	-0.193001	-0.478282
O64	O	4.210909	0.302675	-0.649453
C65	C	4.033770	0.170857	-0.687829
H66	H	3.970464	0.271191	-0.715591
H67	H	3.881142	0.033371	-0.637732
C68	C	4.209718	-0.046178	-0.725822
C69	C	4.131978	0.077058	-0.759926
H70	H	4.270290	-0.104047	-0.770292
H71	H	4.329056	0.042624	-0.699965
H72	H	4.082513	-0.160733	-0.684074
H73	H	4.259187	0.191625	-0.801664
H74	H	4.012662	-0.011728	-0.785792
