data_functionalizedCrystal
_audit_creation_method	'MofGen! by Chris Wilmer'
_symmetry_space_group_name_H-M	'P1'
_symmetry_Int_Tables_number	1
_symmetry_cell_setting	triclinic
loop_
_symmetry_equiv_pos_as_xyz
  x,y,z
_cell_length_a	17.699083
_cell_length_b	14.853569
_cell_length_c	16.776229
_cell_angle_alpha	89.992182
_cell_angle_beta	90.000683
_cell_angle_gamma	96.540710
loop_
_atom_site_label
_atom_site_type_symbol
_atom_site_fract_x
_atom_site_fract_y
_atom_site_fract_z
O1	O	-1.004375	0.114008	-0.066171
O2	O	-0.504375	0.614008	0.433829
O3	O	-0.784035	0.128841	-0.066199
O4	O	-0.284035	0.628841	0.433801
O5	O	-0.900090	-0.009827	-0.066176
O6	O	-0.400090	0.490173	0.433824
O7	O	-0.888320	0.252676	-0.066193
O8	O	-0.388320	0.752676	0.433807
O9	O	-0.900075	-0.009835	0.066400
O10	O	-0.400075	0.490165	0.566400
O11	O	-0.784020	0.128832	0.066378
O12	O	-0.284020	0.628832	0.566378
O13	O	-1.004359	0.114000	0.066406
O14	O	-0.504359	0.614000	0.566406
Zn15	Zn	-0.894187	0.121415	0.087441
Zn16	Zn	-0.394187	0.621415	0.587441
Zn17	Zn	-0.894207	0.121426	-0.087234
Zn18	Zn	-0.394207	0.621426	0.412766
O19	O	-0.888305	0.252667	0.066384
O20	O	-0.388305	0.752667	0.566384
C21	C	-0.755829	0.128305	0.000086
C22	C	-0.255829	0.628305	0.500086
C23	C	-0.671807	0.126711	0.000076
C24	C	-0.171807	0.626711	0.500076
C25	C	-0.899549	-0.043418	0.000112
C26	C	-0.399549	0.456582	0.500112
C27	C	-0.897950	-0.143496	0.000113
C28	C	-0.397950	0.356504	0.500113
C29	C	-0.623397	0.208106	0.000070
C30	C	-0.123397	0.708106	0.500070
C31	C	-0.544450	0.206602	0.000080
C32	C	-0.044450	0.706602	0.500080
C33	C	-0.513914	0.123703	0.000089
C34	C	-0.013914	0.623703	0.500089
C35	C	-0.562329	0.042301	0.000097
C36	C	-0.062329	0.542301	0.500097
C37	C	-0.641275	0.043806	0.000093
C38	C	-0.141275	0.543806	0.500093
C39	C	-0.243951	0.036232	0.000115
C40	C	0.256049	0.536232	0.500115
C41	C	-0.164999	0.034734	0.000116
C42	C	0.335001	0.534734	0.500116
C43	C	-0.147126	0.199028	0.000102
C44	C	0.352874	0.699028	0.500102
C45	C	-0.226071	0.200533	0.000098
C46	C	0.273929	0.700533	0.500098
C47	C	-0.274480	0.119132	0.000109
C48	C	0.225520	0.619132	0.500109
C49	C	-0.360083	0.120763	0.000100
C50	C	0.139917	0.620763	0.500100
C51	C	-0.428312	0.122070	0.000093
C52	C	0.071688	0.622070	0.500093
C53	C	-0.828261	-0.179616	0.000105
C54	C	-0.328261	0.320384	0.500105
C55	C	-0.966137	-0.201413	0.000114
C56	C	-0.466137	0.298587	0.500114
C57	C	-0.964637	-0.295441	0.000111
C58	C	-0.464637	0.204559	0.500111
C59	C	-0.894948	-0.331561	0.000103
C60	C	-0.394948	0.168439	0.500103
C61	C	-0.826759	-0.273653	0.000099
C62	C	-0.326759	0.226347	0.500099
C63	C	-1.032826	-0.353357	0.000106
C64	C	-0.532826	0.146643	0.500106
C65	C	-1.031329	-0.447392	0.000102
C66	C	-0.531329	0.052608	0.500102
C67	C	-0.961638	-0.483513	0.000100
C68	C	-0.461638	0.016487	0.500100
C69	C	-0.893446	-0.425598	0.000097
C70	C	-0.393446	0.074402	0.500097
C71	C	-0.823757	-0.461718	0.000090
C72	C	-0.323757	0.038282	0.500090
C73	C	-0.755564	-0.403805	0.000092
C74	C	-0.255564	0.096195	0.500092
C75	C	-0.757069	-0.309774	0.000097
C76	C	-0.257069	0.190226	0.500097
C77	C	-0.960134	-0.577544	0.000095
C78	C	-0.460134	-0.077544	0.500095
C79	C	-0.822255	-0.555755	0.000084
C80	C	-0.322255	-0.055755	0.500084
C81	C	-0.032566	0.114535	0.000117
C82	C	0.467434	0.614535	0.500117
C83	C	-0.116588	0.116130	0.000117
C84	C	0.383412	0.616130	0.500117
C85	C	-0.888846	0.286258	0.000093
C86	C	-0.388846	0.786258	0.500093
C87	C	-0.890445	0.386336	0.000087
C88	C	-0.390445	0.886336	0.500087
N89	N	-0.894179	0.121406	0.206652
N90	N	-0.394179	0.621406	0.706652
N91	N	-0.894222	0.121427	-0.206445
N92	N	-0.394222	0.621427	0.293555
C93	C	-0.945584	0.060029	0.248380
C94	C	-0.445584	0.560029	0.748380
C95	C	-0.945588	0.060029	0.331832
C96	C	-0.445588	0.560029	0.831832
C97	C	-0.894190	0.121410	0.373555
C98	C	-0.394190	0.621410	0.873555
C99	C	-0.842780	0.182790	0.331823
C100	C	-0.342780	0.682790	0.831823
C101	C	-0.842773	0.182785	0.248372
C102	C	-0.342773	0.682785	0.748372
C103	C	-0.842807	0.182807	0.668370
C104	C	-0.342807	0.682807	1.168370
C105	C	-0.842820	0.182809	0.751826
C106	C	-0.342820	0.682809	1.251826
C107	C	-0.945622	0.060051	0.751830
C108	C	-0.445622	0.560051	1.251830
C109	C	-0.945615	0.060046	0.668379
C110	C	-0.445615	0.560046	1.168379
C111	C	-0.894203	0.121423	0.626653
C112	C	-0.394203	0.621423	1.126653
C113	C	-0.894198	0.121422	0.536165
C114	C	-0.394198	0.621422	1.036165
C115	C	-0.894198	0.121416	0.464042
C116	C	-0.394198	0.621416	0.964042
H117	H	-0.648253	0.275612	0.000062
H118	H	-0.148253	0.775612	0.500062
H119	H	-0.987445	0.010050	0.365805
H120	H	-0.487445	0.510050	0.865805
Br121	Br	-1.052673	-0.656136	0.000079
Br122	Br	-0.552673	-0.156136	0.500079
H123	H	-1.089563	-0.323941	0.000162
H124	H	-0.589563	0.176059	0.500162
Br125	Br	-0.735717	-0.101024	0.000115
Br126	Br	-0.235717	0.398976	0.500115
Br127	Br	-0.123557	-0.077780	0.000127
Br128	Br	0.376443	0.422220	0.500127
H129	H	-0.505038	0.272882	0.000075
H130	H	-0.005038	0.772882	0.500075
Br131	Br	-0.520888	-0.070207	0.000118
Br132	Br	-0.020888	0.429793	0.500118
Br133	Br	-0.267509	0.313043	0.000077
Br134	Br	0.232491	0.813043	0.500077
Br135	Br	-0.309638	-0.074241	0.000133
Br136	Br	0.190362	0.425759	0.500133
H137	H	-0.987483	0.010072	0.785811
H138	H	-0.487483	0.510072	1.285811
Br139	Br	-0.727672	-0.604767	0.000083
Br140	Br	-0.227672	-0.104767	0.500083
H141	H	-1.022875	-0.171998	0.000136
H142	H	-0.522875	0.328002	0.500136
H143	H	-0.800947	0.232784	0.634403
H144	H	-0.300947	0.732784	1.134403
H145	H	-1.086856	-0.494538	0.000101
H146	H	-0.586856	0.005462	0.500101
Br147	Br	-0.660989	-0.452837	0.000069
Br148	Br	-0.160989	0.047163	0.500069
Br149	Br	-1.015347	-0.023272	0.191763
Br150	Br	-0.515347	0.476728	0.691763
H151	H	-0.680690	-0.022475	0.000097
H152	H	-0.180690	0.477525	0.500097
Br153	Br	-1.015375	-0.023254	0.611756
Br154	Br	-0.515375	0.476746	1.111756
H155	H	-0.701550	-0.262613	0.000098
H156	H	-0.201550	0.237387	0.500098
H157	H	-0.800963	0.232794	0.785796
H158	H	-0.300963	0.732794	1.285796
H159	H	-0.800927	0.232764	0.365799
H160	H	-0.300927	0.732764	0.865799
Br161	Br	-0.773001	0.266081	0.191742
Br162	Br	-0.273001	0.766081	0.691742
H163	H	-0.107701	0.265309	0.000096
H164	H	0.392299	0.765309	0.500096
