data_functionalizedCrystal
_audit_creation_method	'MofGen! by Chris Wilmer'
_symmetry_space_group_name_H-M	'P1'
_symmetry_Int_Tables_number	1
_symmetry_cell_setting	triclinic
loop_
_symmetry_equiv_pos_as_xyz
  x,y,z
_cell_length_a	11.026607
_cell_length_b	14.519709
_cell_length_c	9.482900
_cell_angle_alpha	99.350820
_cell_angle_beta	78.636152
_cell_angle_gamma	96.133081
loop_
_atom_site_label
_atom_site_type_symbol
_atom_site_fract_x
_atom_site_fract_y
_atom_site_fract_z
O1	O	1.629894	0.375017	-0.120915
O2	O	1.276492	0.331026	-0.120914
O3	O	1.462561	0.220328	-0.120901
O4	O	1.443825	0.485715	-0.120927
O5	O	1.424766	0.242929	0.120889
O6	O	1.238698	0.353627	0.120876
O7	O	1.592099	0.397617	0.120875
Cu8	Cu	1.411948	0.377686	0.142953
Cu9	Cu	1.456644	0.350958	-0.142992
O10	O	1.406031	0.508316	0.120862
C11	C	1.212367	0.334211	-0.000019
C12	C	1.077600	0.310019	-0.000019
C13	C	1.003940	0.376817	-0.000026
C14	C	0.864652	0.351815	-0.000026
C15	C	1.442790	0.197125	-0.000006
C16	C	1.440173	0.094312	-0.000005
C17	C	1.430544	-0.282175	-0.000043
C18	C	1.433218	-0.177425	-0.000032
C19	C	1.435358	-0.093934	-0.000023
C20	C	1.438033	0.010822	-0.000015
C21	C	1.656226	0.394432	-0.000023
C22	C	1.790994	0.418624	-0.000033
C23	C	1.425802	0.531518	-0.000036
C24	C	1.428421	0.634330	-0.000046
N25	N	1.380519	0.396486	0.344071
N26	N	1.488082	0.332152	-0.344110
C27	C	1.447366	0.356497	0.416275
C28	C	1.421226	0.372147	0.583690
H29	H	0.831042	0.494329	-0.000031
H30	H	1.564664	0.286322	0.593771
H31	H	1.344635	0.417969	0.645809
O32	O	1.029634	0.219749	-0.000076
C33	C	0.847052	0.112538	0.000019
C34	C	0.901211	0.214805	0.000052
H35	H	0.743210	0.108510	0.000153
H36	H	0.894659	0.067223	-0.101192
H37	H	0.863188	0.086178	0.101186
H38	H	0.885088	0.241250	-0.101047
H39	H	0.853599	0.260057	0.101329
H40	H	1.303933	0.442304	0.406195
O41	O	1.051926	0.467076	-0.000092
C42	C	1.234478	0.574304	0.000005
C43	C	1.180308	0.472044	0.000042
H44	H	1.338277	0.578358	0.000145
H45	H	1.218515	0.600704	-0.101209
H46	H	1.186712	0.619571	0.101168
H47	H	1.228038	0.426705	-0.101052
H48	H	1.196254	0.445721	0.101324
O49	O	0.816692	0.261540	-0.000083
C50	C	0.634109	0.154329	0.000012
C51	C	0.688268	0.256596	0.000045
H52	H	0.530267	0.150301	0.000146
H53	H	0.681716	0.109014	-0.101199
H54	H	0.650246	0.127970	0.101179
H55	H	0.672146	0.283041	-0.101054
H56	H	0.640656	0.301848	0.101322
O57	O	1.538740	0.301769	0.342398
C58	C	1.699430	0.205708	0.358096
C59	C	1.595965	0.267648	0.441937
H60	H	1.745743	0.178121	0.438537
H61	H	1.657862	0.144315	0.286893
H62	H	1.771343	0.248895	0.286774
H63	H	1.524018	0.224541	0.513338
H64	H	1.637623	0.329045	0.513048
