data_functionalizedCrystal
_audit_creation_method	'MofGen! by Chris Wilmer'
_symmetry_space_group_name_H-M	'P1'
_symmetry_Int_Tables_number	1
_symmetry_cell_setting	triclinic
loop_
_symmetry_equiv_pos_as_xyz
  x,y,z
_cell_length_a	16.109301
_cell_length_b	15.944551
_cell_length_c	14.586319
_cell_angle_alpha	89.995256
_cell_angle_beta	89.999213
_cell_angle_gamma	83.480109
loop_
_atom_site_label
_atom_site_type_symbol
_atom_site_fract_x
_atom_site_fract_y
_atom_site_fract_z
O1	O	1.103166	0.107966	-0.076184
O2	O	0.861108	0.121403	-0.076199
O3	O	0.988747	-0.007593	-0.076183
O4	O	0.975527	0.236961	-0.076200
O5	O	0.988738	-0.007595	0.076298
O6	O	0.861099	0.121401	0.076282
O7	O	1.103157	0.107964	0.076296
Cu8	Cu	0.982127	0.114682	0.090212
Cu9	Cu	0.982138	0.114685	-0.090114
O10	O	0.975518	0.236960	0.076280
C11	C	0.830129	0.120857	0.000039
C12	C	0.737833	0.119226	0.000034
C13	C	0.515584	0.191975	0.000040
C14	C	0.428863	0.190435	0.000046
C15	C	0.448688	0.037387	0.000053
C16	C	0.535407	0.038927	0.000053
C17	C	0.568853	0.116224	0.000042
C18	C	0.395412	0.113143	0.000047
C19	C	0.301386	0.111473	0.000054
C20	C	0.662885	0.117894	0.000037
C21	C	0.988194	-0.038887	0.000057
C22	C	0.986548	-0.132133	0.000058
C23	C	0.903499	-0.346962	0.000040
C24	C	0.942060	-0.407993	0.075225
C25	C	0.983572	-0.302858	0.000051
C26	C	0.942088	-0.407975	-0.075109
C27	C	0.980691	-0.467769	0.000040
C28	C	1.022155	-0.362660	0.075297
C29	C	1.022171	-0.362636	-0.075104
C30	C	1.060790	-0.423649	0.000099
C31	C	0.985229	-0.207856	0.000058
C32	C	0.979039	-0.562770	0.000039
C33	C	1.134136	0.108510	0.000056
C34	C	1.226432	0.110141	0.000055
C35	C	0.976071	0.268254	0.000038
C36	C	0.977717	0.361500	0.000031
N37	N	0.982126	0.114680	0.217044
N38	N	0.982146	0.114680	-0.216946
C39	C	1.038663	0.057580	0.452057
C40	C	1.038666	0.057578	0.548038
C41	C	0.925602	0.171783	0.548034
C42	C	0.925597	0.171780	0.452054
C43	C	0.982132	0.114680	0.404068
C44	C	0.982140	0.114680	0.596029
C45	C	0.982142	0.114679	0.700096
C46	C	0.982129	0.114680	0.299995
H47	H	0.837035	-0.313632	0.000111
H48	H	0.879574	0.218274	0.587113
O49	O	0.416059	-0.037622	0.000015
C50	C	0.291250	-0.107826	0.000068
C51	C	0.328088	-0.022819	0.000092
H52	H	0.220121	-0.095887	0.000149
H53	H	0.313130	-0.145268	-0.063759
H54	H	0.313236	-0.145261	0.063867
H55	H	0.306119	0.014685	-0.063665
H56	H	0.306212	0.014560	0.063960
H57	H	0.578781	-0.022762	0.000058
H58	H	0.908213	-0.428039	-0.138677
O59	O	0.377000	0.263942	0.000077
C60	C	0.234620	0.329402	0.000014
C61	C	0.293259	0.246090	0.000000
H62	H	0.166903	0.314998	-0.000068
H63	H	0.246719	0.367454	0.063836
H64	H	0.246834	0.367438	-0.063790
H65	H	0.281079	0.207986	0.063760
H66	H	0.281147	0.208102	-0.063865
O67	O	0.548174	0.267004	0.000157
C68	C	0.634536	0.357585	0.079175
C69	C	0.597703	0.272575	0.079144
H70	H	0.674574	0.362124	0.143039
H71	H	0.674693	0.362149	0.015405
H72	H	0.581550	0.411447	0.079131
H73	H	0.650634	0.218663	0.079221
H74	H	0.557523	0.268084	0.142909
O75	O	0.901522	-0.431919	0.150982
C76	C	0.772822	-0.419610	0.236665
C77	C	0.818631	-0.392466	0.150827
H78	H	0.705802	-0.387710	0.236579
H79	H	0.772430	-0.491063	0.236283
H80	H	0.806350	-0.400106	0.300722
H81	H	0.785139	-0.411912	0.086725
H82	H	0.819031	-0.321014	0.151290
H83	H	1.084696	0.011085	0.412989
O84	O	1.062464	-0.338686	0.151185
C85	C	1.109278	-0.223361	0.236298
C86	C	1.063597	-0.250396	0.150329
H87	H	1.110225	-0.151980	0.235624
H88	H	1.075372	-0.242361	0.300319
H89	H	1.176115	-0.255745	0.236563
H90	H	0.996759	-0.218026	0.149975
H91	H	1.097569	-0.231411	0.086346
O92	O	1.093468	0.002030	0.594695
C93	C	1.111172	-0.112649	0.703108
C94	C	1.049015	-0.049798	0.650311
H95	H	1.075257	-0.154557	0.748100
H96	H	1.151563	-0.153519	0.652362
H97	H	1.152720	-0.076353	0.747996
H98	H	1.007413	-0.086025	0.605421
H99	H	1.008682	-0.008929	0.701106
H100	H	0.879558	0.218278	0.412979
H101	H	1.127313	-0.456830	0.000145
H102	H	1.056013	-0.342516	-0.138666
