data_functionalizedCrystal
_audit_creation_method	'MofGen! by Chris Wilmer'
_symmetry_space_group_name_H-M	'P1'
_symmetry_Int_Tables_number	1
_symmetry_cell_setting	triclinic
loop_
_symmetry_equiv_pos_as_xyz
  x,y,z
_cell_length_a	14.044220
_cell_length_b	15.995292
_cell_length_c	13.101039
_cell_angle_alpha	93.364742
_cell_angle_beta	86.340132
_cell_angle_gamma	88.328747
loop_
_atom_site_label
_atom_site_type_symbol
_atom_site_fract_x
_atom_site_fract_y
_atom_site_fract_z
O1	O	1.262867	0.197639	-0.085092
O2	O	0.986901	0.190354	-0.085118
O3	O	1.132457	0.072671	-0.085106
O4	O	1.117312	0.315322	-0.085104
O5	O	1.122013	0.081130	0.085323
O6	O	0.976458	0.198812	0.085311
O7	O	1.252424	0.206098	0.085337
Zn8	Zn	1.112782	0.203798	0.112383
Zn9	Zn	1.126542	0.192653	-0.112164
O10	O	1.106868	0.323781	0.085325
C11	C	0.946366	0.191394	0.000093
C12	C	0.841143	0.181883	0.000082
C13	C	1.126619	0.045659	0.000106
C14	C	1.124771	-0.047433	0.000098
C15	C	0.648485	0.164495	0.000102
C16	C	0.590835	0.231952	0.000107
C17	C	0.483633	0.222278	0.000118
C18	C	0.755696	0.174169	0.000091
C19	C	1.117977	-0.385678	0.000107
C20	C	1.223012	-0.354499	0.000498
C21	C	1.225032	-0.257694	0.000110
C22	C	1.121348	-0.217871	0.000103
C23	C	1.074788	-0.255725	-0.097222
C24	C	1.073528	-0.352614	-0.097300
C25	C	1.059506	-0.343012	0.096509
C26	C	1.063321	-0.246165	0.097792
C27	C	1.123248	-0.123033	0.000097
C28	C	1.116074	-0.480516	0.000105
C29	C	1.292959	0.205057	0.000124
C30	C	1.398182	0.214569	0.000127
C31	C	1.112706	0.350793	0.000111
C32	C	1.114554	0.443884	0.000112
N33	N	1.103399	0.211404	0.265631
N34	N	1.135933	0.185041	-0.265412
C35	C	1.090632	0.221760	0.474672
C36	C	1.148697	0.174688	0.525553
C37	C	1.141594	0.180450	0.641871
C38	C	1.097734	0.215999	0.358344
H39	H	0.617330	0.099483	0.000108
N40	N	0.977240	-0.378373	-0.102831
N41	N	0.915220	-0.353562	-0.034208
H42	H	0.847218	-0.371753	-0.038114
H43	H	1.261893	-0.232134	0.069875
H44	H	0.998712	-0.229736	-0.100846
N45	N	1.217760	0.118695	0.470637
N46	N	1.191225	0.061574	0.410742
H47	H	1.240005	0.022032	0.371960
H48	H	1.259229	-0.376008	0.070294
N49	N	1.126117	-0.231649	-0.188071
N50	N	1.196993	-0.186634	-0.181393
H51	H	1.233250	-0.169630	-0.245553
H52	H	0.621991	0.296970	0.000103
H53	H	1.267534	-0.383954	-0.068900
N54	N	1.282314	-0.235086	-0.087557
N55	N	1.320917	-0.290839	-0.148650
H56	H	1.361374	-0.274874	-0.210571
N57	N	1.021572	0.277734	0.529608
N58	N	0.959086	0.249752	0.589505
H59	H	0.910313	0.289283	0.628315
N60	N	1.124753	-0.387369	-0.188564
N61	N	1.161185	-0.340037	-0.251756
H62	H	1.197365	-0.364579	-0.316214
H63	H	1.088071	-0.364968	0.170281
H64	H	1.097155	-0.221169	0.169793
H65	H	0.987282	-0.218557	0.103665
H66	H	0.982135	-0.362746	0.097160
