data_functionalizedCrystal
_audit_creation_method	'MofGen! by Chris Wilmer'
_symmetry_space_group_name_H-M	'P1'
_symmetry_Int_Tables_number	1
_symmetry_cell_setting	triclinic
loop_
_symmetry_equiv_pos_as_xyz
  x,y,z
_cell_length_a	29.999520
_cell_length_b	29.998686
_cell_length_c	29.995014
_cell_angle_alpha	60.005185
_cell_angle_beta	60.010401
_cell_angle_gamma	59.993433
loop_
_atom_site_label
_atom_site_type_symbol
_atom_site_fract_x
_atom_site_fract_y
_atom_site_fract_z
O1	O	0.061772	-0.651300	0.544623
O2	O	0.561772	-0.151300	1.044623
O3	O	0.023267	-0.507084	0.438819
O4	O	0.523267	-0.007084	0.938819
O5	O	0.114589	-0.598332	0.438743
O6	O	0.614589	-0.098332	0.938743
O7	O	-0.029550	-0.560051	0.544699
O8	O	0.470450	-0.060051	1.044699
O9	O	0.144886	-0.568039	0.468961
O10	O	0.644886	-0.068039	0.968961
O11	O	0.053564	-0.476791	0.469038
O12	O	0.553564	0.023209	0.969038
O13	O	0.092069	-0.621007	0.574841
O14	O	0.592069	-0.121007	1.074841
Zn15	Zn	0.077627	-0.544089	0.526737
Zn16	Zn	0.577627	-0.044089	1.026737
Zn17	Zn	0.037709	-0.584002	0.486923
Zn18	Zn	0.537709	-0.084002	0.986923
O19	O	0.000748	-0.529758	0.574918
O20	O	0.500748	-0.029758	1.074918
N21	N	0.104871	-0.516854	0.553912
N22	N	0.604871	-0.016854	1.053912
N23	N	0.010470	-0.611242	0.459748
N24	N	0.510470	-0.111242	0.959748
C25	C	0.143162	-0.478782	0.827124
C26	C	0.643162	0.021218	1.327124
C27	C	0.378203	-0.478734	0.591892
C28	C	0.878203	0.021266	1.091892
C29	C	0.143005	-0.478752	0.591997
C30	C	0.643005	0.021248	1.091997
C31	C	0.142986	-0.243586	0.592008
C32	C	0.642986	0.256414	1.092008
C33	C	0.180857	-0.357087	0.629814
C34	C	0.680857	0.142913	1.129814
C35	C	0.180866	-0.440920	0.629807
C36	C	0.680866	0.059080	1.129807
C37	C	0.201840	-0.419964	0.650755
C38	C	0.701840	0.080036	1.150755
C39	C	0.293272	-0.404201	0.602606
C40	C	0.793272	0.095799	1.102606
C41	C	0.350426	-0.423248	0.583534
C42	C	0.850426	0.076752	1.083534
C43	C	0.350451	-0.515727	0.618798
C44	C	0.850451	-0.015727	1.118798
C45	C	0.293297	-0.496678	0.637872
C46	C	0.793297	0.003322	1.137872
C47	C	0.194628	-0.328499	0.573626
C48	C	0.694628	0.171501	1.073626
C49	C	0.175551	-0.271340	0.554591
C50	C	0.675551	0.228660	1.054591
C51	C	0.128936	-0.271362	0.647935
C52	C	0.628936	0.228638	1.147935
C53	C	0.148014	-0.328521	0.666970
C54	C	0.648014	0.171479	1.166970
C55	C	0.124672	-0.427119	0.643641
C56	C	0.624672	0.072881	1.143641
C57	C	0.105611	-0.446170	0.624592
C58	C	0.605611	0.053830	1.124592
C59	C	0.198934	-0.492820	0.577889
C60	C	0.698934	0.007180	1.077889
C61	C	0.217998	-0.473770	0.596931
C62	C	0.717998	0.026230	1.096931
C63	C	0.124740	-0.427136	0.742229
C64	C	0.624740	0.072864	1.242229
C65	C	0.105728	-0.446202	0.799386
C66	C	0.605728	0.053798	1.299386
C67	C	0.199085	-0.492863	0.799337
C68	C	0.699085	0.007137	1.299337
C69	C	0.218096	-0.473798	0.742178
C70	C	0.718096	0.026202	1.242178
C71	C	0.180923	-0.440933	0.713626
C72	C	0.680923	0.059067	1.213626
C73	C	0.264710	-0.440915	0.629773
C74	C	0.764710	0.059085	1.129773
C75	C	0.121509	-0.499370	0.889991
C76	C	0.621509	0.000630	1.389991
C77	C	0.441068	-0.498953	0.570621
C78	C	0.941068	0.001047	1.070621
C79	C	0.121297	-0.499349	0.571429
C80	C	0.621297	0.000651	1.071429
C81	C	0.121653	-0.180715	0.571802
C82	C	0.621653	0.319285	1.071802
C83	C	-0.111071	-0.648912	0.421584
C84	C	0.388929	-0.148912	0.921584
C85	C	-0.027286	-0.649018	0.421777
C86	C	0.472714	-0.149018	0.921777
C87	C	-0.048200	-0.669944	0.400740
C88	C	0.451800	-0.169944	0.900740
C89	C	-0.064036	-0.761340	0.448814
C90	C	0.435964	-0.261340	0.948814
C91	C	-0.045033	-0.818500	0.467893
C92	C	0.454967	-0.318500	0.967893
C93	C	0.047447	-0.818609	0.432797
C94	C	0.547447	-0.318609	0.932797
C95	C	0.028444	-0.761451	0.413717
C96	C	0.528444	-0.261451	0.913717
C97	C	-0.139731	-0.662677	0.477755
C98	C	0.360269	-0.162677	0.977755
C99	C	-0.196885	-0.643554	0.496701
C100	C	0.303115	-0.143554	0.996701
C101	C	-0.196717	-0.596907	0.403303
C102	C	0.303283	-0.096907	0.903303
C103	C	-0.139562	-0.616030	0.384357
C104	C	0.360438	-0.116030	0.884357
C105	C	-0.041053	-0.592827	0.407952
C106	C	0.458947	-0.092827	0.907952
C107	C	-0.022041	-0.573809	0.427083
C108	C	0.477959	-0.073809	0.927083
C109	C	0.024504	-0.667167	0.473848
C110	C	0.524504	-0.167167	0.973848
C111	C	0.005492	-0.686188	0.454725
C112	C	0.505492	-0.186188	0.954725
C113	C	-0.040886	-0.592836	0.309259
C114	C	0.459114	-0.092836	0.809259
C115	C	-0.021740	-0.573821	0.252102
C116	C	0.478260	-0.073821	0.752102
C117	C	0.024886	-0.667185	0.252163
C118	C	0.524886	-0.167185	0.752163
C119	C	0.005743	-0.686199	0.309322
C120	C	0.505743	-0.186199	0.809322
C121	C	-0.027145	-0.649023	0.337868
C122	C	0.472855	-0.149023	0.837868
C123	C	-0.027299	-0.732818	0.421728
C124	C	0.472701	-0.232818	0.921728
N125	N	0.492511	-0.516826	0.553742
N126	N	0.992511	-0.016826	1.053742
O127	O	0.679283	-0.525926	0.419277
O128	O	1.179283	-0.025926	0.919277
O129	O	0.679465	-0.632059	0.563349
O130	O	1.179465	-0.132059	1.063349
O131	O	0.679393	-0.631817	0.471975
O132	O	1.179393	-0.131817	0.971975
O133	O	0.679355	-0.526168	0.510650
O134	O	1.179355	-0.026168	1.010650
O135	O	0.588593	-0.601610	0.502313
O136	O	1.088593	-0.101610	1.002313
O137	O	0.588665	-0.601852	0.593686
O138	O	1.088665	-0.101852	1.093686
O139	O	0.588483	-0.495720	0.449614
O140	O	1.088483	0.004280	0.949614
Zn141	Zn	0.574158	-0.543990	0.526467
Zn142	Zn	1.074158	-0.043990	1.026467
Zn143	Zn	0.693790	-0.583788	0.486496
Zn144	Zn	1.193790	-0.083788	0.986496
O145	O	0.588555	-0.495962	0.540987
O146	O	1.088555	0.004038	1.040987
N147	N	0.775436	-0.610952	0.459215
N148	N	1.275436	-0.110952	0.959215
N149	N	0.104844	-0.129269	0.553931
N150	N	0.604844	0.370731	1.053931
O151	O	-0.029548	0.057600	0.544709
O152	O	0.470452	0.557600	1.044709
O153	O	0.114530	0.057617	0.438578
O154	O	0.614530	0.557617	0.938578
O155	O	0.023130	0.057594	0.438850
O156	O	0.523130	0.557594	0.938850
O157	O	0.061852	0.057623	0.544437
O158	O	0.561852	0.557623	1.044437
O159	O	0.053431	-0.033213	0.469115
O160	O	0.553431	0.466787	0.969115
O161	O	0.144831	-0.033190	0.468843
O162	O	0.644831	0.466810	0.968843
O163	O	0.000753	-0.033207	0.574974
O164	O	0.500753	0.466793	1.074974
Zn165	Zn	0.077603	-0.047616	0.526714
Zn166	Zn	0.577603	0.452384	1.026714
Zn167	Zn	0.037680	0.072026	0.486838
Zn168	Zn	0.537680	0.572026	0.986838
O169	O	0.092153	-0.033184	0.574702
O170	O	0.592153	0.466816	1.074702
N171	N	0.010432	0.153679	0.459622
N172	N	0.510432	0.653679	0.959622
N173	N	0.105130	-0.516904	0.941437
N174	N	0.605130	-0.016904	1.441437
O175	O	0.095923	-0.651280	1.128292
O176	O	0.595923	-0.151280	1.628292
O177	O	-0.010184	-0.507155	1.128318
O178	O	0.489816	-0.007155	1.628318
O179	O	-0.009938	-0.598539	1.128284
O180	O	0.490062	-0.098539	1.628284
O181	O	0.095677	-0.559897	1.128326
O182	O	0.595677	-0.059897	1.628326
O183	O	0.020315	-0.568257	1.037481
O184	O	0.520315	-0.068257	1.537481
O185	O	0.020068	-0.476874	1.037515
O186	O	0.520068	0.023126	1.537515
O187	O	0.126176	-0.620999	1.037489
O188	O	0.626176	-0.120999	1.537489
Zn189	Zn	0.077925	-0.544128	1.023085
Zn190	Zn	0.577925	-0.044128	1.523085
Zn191	Zn	0.038066	-0.584026	1.142722
Zn192	Zn	0.538066	-0.084026	1.642722
O193	O	0.125929	-0.529616	1.037523
O194	O	0.625929	-0.029616	1.537523
N195	N	0.010860	-0.611256	1.224371
N196	N	0.510860	-0.111256	1.724371
C197	C	0.034807	-0.473765	0.439352
C198	C	0.534807	0.026235	0.939352
C199	C	0.147897	-0.586765	0.439257
C200	C	0.647897	-0.086765	0.939257
C201	C	0.080529	-0.654326	0.574308
C202	C	0.580529	-0.154326	1.074308
C203	C	-0.032561	-0.541326	0.574403
C204	C	0.467439	-0.041326	1.074403
C205	C	0.634087	-0.631571	0.596668
C206	C	1.134087	-0.131571	1.096668
C207	C	0.633999	-0.631272	0.483513
C208	C	1.133999	-0.131272	0.983513
C209	C	0.633858	-0.496206	0.416295
C210	C	1.133858	0.003794	0.916295
C211	C	0.633949	-0.496507	0.529449
C212	C	1.133949	0.003493	1.029449
C213	C	0.147793	0.012327	0.439058
C214	C	0.647793	0.512327	0.939058
C215	C	0.034644	0.012187	0.439432
C216	C	0.534644	0.512187	0.939432
C217	C	-0.032548	0.012195	0.574457
C218	C	0.467452	0.512195	1.074457
C219	C	0.080639	0.012222	0.574120
C220	C	0.580639	0.512222	1.074120
C221	C	-0.009670	-0.473857	1.082920
C222	C	0.490330	0.026143	1.582920
C223	C	-0.009359	-0.587018	1.082860
C224	C	0.490641	-0.087018	1.582860
C225	C	0.125662	-0.654297	1.082887
C226	C	0.625662	-0.154297	1.582887
C227	C	0.125358	-0.541129	1.082927
C228	C	0.625358	-0.041129	1.582927
H229	H	0.094465	-0.400370	0.718985
H230	H	0.594465	0.099630	1.218985
H231	H	0.026351	0.012184	0.406260
H232	H	0.526351	0.512184	0.906260
H233	H	0.158977	-0.695688	1.082873
H234	H	0.658977	-0.195688	1.582873
O235	O	-0.049363	-0.424455	1.082952
O236	O	0.450637	0.075545	1.582952
C237	C	-0.029707	-0.390477	1.082955
C238	C	0.470293	0.109523	1.582955
H239	H	0.005343	-0.416735	1.100148
H240	H	0.505343	0.083265	1.600148
H241	H	-0.014554	-0.362903	1.039397
H242	H	0.485446	0.137097	1.539397
C243	C	-0.119102	-0.322892	1.097456
C244	C	0.380898	0.177108	1.597456
C245	C	-0.076055	-0.355142	1.118577
C246	C	0.423945	0.144858	1.618577
H247	H	-0.147692	-0.301093	1.119427
H248	H	0.352308	0.198907	1.619427
H249	H	-0.132344	-0.345782	1.097452
H250	H	0.367656	0.154218	1.597452
H251	H	-0.106467	-0.299918	1.061158
H252	H	0.393533	0.200082	1.561158
H253	H	-0.088689	-0.378120	1.154872
H254	H	0.411311	0.121880	1.654872
H255	H	-0.062816	-0.332255	1.118588
H256	H	0.437184	0.167745	1.618588
H257	H	-0.073925	0.012190	0.607776
H258	H	0.426075	0.512190	1.107776
O259	O	0.024939	-0.424369	0.399690
O260	O	0.524939	0.075631	0.899690
C261	C	-0.019276	-0.414621	0.387137
C262	C	0.480724	0.085379	0.887137
H263	H	-0.023616	-0.455176	0.399182
H264	H	0.476384	0.044824	0.899182
H265	H	-0.058413	-0.388328	0.410634
H266	H	0.441587	0.111672	0.910634
C267	C	-0.003513	-0.334895	0.310620
C268	C	0.496487	0.165105	0.810620
C269	C	-0.008841	-0.384707	0.325410
C270	C	0.491159	0.115293	0.825410
H271	H	0.002922	-0.316441	0.272545
H272	H	0.502922	0.183559	0.772545
H273	H	0.026274	-0.341461	0.319078
H274	H	0.526274	0.158539	0.819078
H275	H	-0.036129	-0.312991	0.330206
H276	H	0.463871	0.187009	0.830206
H277	H	0.023777	-0.406612	0.305830
H278	H	0.523777	0.093388	0.805830
H279	H	-0.038623	-0.378144	0.316947
H280	H	0.461377	0.121856	0.816947
O281	O	-0.081971	-0.531498	0.614048
O282	O	0.418029	-0.031498	1.114048
C283	C	-0.115904	-0.477854	0.594308
C284	C	0.384096	0.022146	1.094308
H285	H	-0.089615	-0.451926	0.559242
H286	H	0.410385	0.048074	1.059242
H287	H	-0.143480	-0.478685	0.579149
H288	H	0.356520	0.021315	1.079149
C289	C	-0.183522	-0.485002	0.683658
C290	C	0.316478	0.014998	1.183658
C291	C	-0.151233	-0.453156	0.640592
C292	C	0.348767	0.046844	1.140592
H293	H	-0.205317	-0.469768	0.712208
H294	H	0.294683	0.030232	1.212208
H295	H	-0.160662	-0.521144	0.696957
H296	H	0.339338	-0.021144	1.196957
H297	H	-0.206497	-0.485692	0.671018
H298	H	0.293503	0.014308	1.171018
H299	H	-0.128254	-0.452473	0.653230
H300	H	0.371746	0.047527	1.153230
H301	H	-0.174091	-0.417014	0.627296
H302	H	0.325909	0.082986	1.127296
H303	H	0.633941	-0.463320	0.537725
H304	H	1.133941	0.036680	1.037725
O305	O	0.090627	0.012197	0.613647
O306	O	0.590627	0.512197	1.113647
C307	C	0.144291	0.012216	0.593745
C308	C	0.644291	0.512216	1.093745
H309	H	0.170105	-0.004968	0.558692
H310	H	0.670105	0.495032	1.058692
H311	H	0.143478	0.055782	0.578519
H312	H	0.643478	0.555782	1.078519
C313	C	0.137430	-0.002293	0.682973
C314	C	0.637430	0.497707	1.182973
C315	C	0.169137	-0.023404	0.639925
C316	C	0.669137	0.476596	1.139925
H317	H	0.152756	-0.024263	0.711459
H318	H	0.652756	0.475737	1.211459
H319	H	0.101275	-0.002304	0.696382
H320	H	0.601275	0.497696	1.196382
H321	H	0.136755	0.034012	0.670278
H322	H	0.636755	0.534012	1.170278
H323	H	0.169805	-0.059705	0.652618
H324	H	0.669805	0.440295	1.152618
H325	H	0.205293	-0.023399	0.626519
H326	H	0.705293	0.476601	1.126519
O327	O	0.197074	0.012661	0.399257
O328	O	0.697074	0.512661	0.899257
C329	C	0.231036	0.012762	0.418866
C330	C	0.731036	0.512762	0.918866
H331	H	0.204776	0.029775	0.454040
H332	H	0.704776	0.529775	0.954040
H333	H	0.258816	-0.030743	0.433831
H334	H	0.758816	0.469257	0.933831
C335	C	0.298333	0.027766	0.329352
C336	C	0.798333	0.527766	0.829352
C337	C	0.266080	0.048666	0.372551
C338	C	0.766080	0.548666	0.872551
H339	H	0.319952	0.049910	0.300782
H340	H	0.819952	0.549910	0.800782
H341	H	0.275453	0.027695	0.316141
H342	H	0.775453	0.527695	0.816141
H343	H	0.321478	-0.008488	0.341830
H344	H	0.821478	0.491512	0.841830
H345	H	0.242931	0.084916	0.360073
H346	H	0.742931	0.584916	0.860073
H347	H	0.288957	0.048743	0.385758
H348	H	0.788957	0.548743	0.885758
O349	O	0.164997	-0.531368	1.082957
O350	O	0.664997	-0.031368	1.582957
C351	C	0.212119	-0.578253	1.082934
C352	C	0.712119	-0.078253	1.582934
H353	H	0.200202	-0.615788	1.100116
H354	H	0.700202	-0.115788	1.600116
H355	H	0.241801	-0.573845	1.039369
H356	H	0.741801	-0.073845	1.539369
C357	C	0.254233	-0.538615	1.097443
C358	C	0.754233	-0.038615	1.597443
C359	C	0.239596	-0.584718	1.118551
C360	C	0.739596	-0.084718	1.618551
H361	H	0.271184	-0.542603	1.119412
H362	H	0.771184	-0.042603	1.619412
H363	H	0.222487	-0.507027	1.097457
H364	H	0.722487	-0.007027	1.597457
H365	H	0.278966	-0.534947	1.061140
H366	H	0.778966	-0.034947	1.561140
H367	H	0.214859	-0.588382	1.154851
H368	H	0.714859	-0.088382	1.654851
H369	H	0.271339	-0.616307	1.118544
H370	H	0.771339	-0.116307	1.618544
O371	O	0.051131	-0.432720	0.827082
O372	O	0.551131	0.067280	1.327082
C373	C	0.022402	-0.399634	0.789621
C374	C	0.522402	0.100366	1.289621
H375	H	0.049642	-0.378852	0.748872
H376	H	0.549642	0.121148	1.248872
H377	H	0.010069	-0.425999	0.783548
H378	H	0.510069	0.074001	1.283548
C379	C	-0.062572	-0.381477	0.861998
C380	C	0.437428	0.118523	1.361998
C381	C	-0.029118	-0.355948	0.811950
C382	C	0.470882	0.144052	1.311950
H383	H	-0.094353	-0.354531	0.875772
H384	H	0.405647	0.145469	1.375772
H385	H	-0.043218	-0.403768	0.887236
H386	H	0.456782	0.096232	1.387236
H387	H	-0.072844	-0.403447	0.856930
H388	H	0.427156	0.096553	1.356930
H389	H	-0.018841	-0.333985	0.817019
H390	H	0.481159	0.166015	1.317019
H391	H	-0.048472	-0.333652	0.786713
H392	H	0.451528	0.166348	1.286713
O393	O	0.235271	-0.524793	0.826984
O394	O	0.735271	-0.024793	1.326984
C395	C	0.288935	-0.532864	0.789479
C396	C	0.788935	-0.032864	1.289479
H397	H	0.288804	-0.526475	0.748744
H398	H	0.788804	-0.026475	1.248744
H399	H	0.305301	-0.502435	0.783392
H400	H	0.805301	-0.002435	1.283392
C401	C	0.325787	-0.599266	0.861789
C402	C	0.825787	-0.099266	1.361789
C403	C	0.325626	-0.591423	0.811759
C404	C	0.825626	-0.091423	1.311759
H405	H	0.348421	-0.635386	0.875533
H406	H	0.848421	-0.135386	1.375533
H407	H	0.289633	-0.593827	0.887058
H408	H	0.789633	-0.093827	1.387058
H409	H	0.339424	-0.573904	0.856710
H410	H	0.839424	-0.073904	1.356710
H411	H	0.311984	-0.616779	0.816839
H412	H	0.811984	-0.116779	1.316839
H413	H	0.361780	-0.596867	0.786491
H414	H	0.861780	-0.096867	1.286491
H415	H	0.634133	-0.664888	0.638048
H416	H	1.134133	-0.164888	1.138048
O417	O	-0.048860	-0.596942	1.082775
O418	O	0.451140	-0.096942	1.582775
C419	C	-0.028972	-0.650612	1.082759
C420	C	0.471028	-0.150612	1.582759
H421	H	0.017533	-0.664993	1.065599
H422	H	0.517533	-0.164993	1.565599
H423	H	-0.042798	-0.678864	1.126308
H424	H	0.457202	-0.178864	1.626308
C425	C	-0.108509	-0.633988	1.068167
C426	C	0.391491	-0.133988	1.568167
C427	C	-0.051391	-0.651649	1.047087
C428	C	0.448609	-0.151649	1.547087
H429	H	-0.122340	-0.634628	1.046166
H430	H	0.377660	-0.134628	1.546166
H431	H	-0.121909	-0.597830	1.068180
H432	H	0.378091	-0.097830	1.568180
H433	H	-0.120023	-0.657533	1.104458
H434	H	0.379977	-0.157533	1.604458
H435	H	-0.039878	-0.628100	1.010800
H436	H	0.460122	-0.128100	1.510800
H437	H	-0.037990	-0.687803	1.047068
H438	H	0.462010	-0.187803	1.547068
H439	H	0.263847	-0.485039	0.718893
H440	H	0.763847	0.014961	1.218893
H441	H	0.094434	-0.400372	0.670409
H442	H	0.594434	0.099628	1.170409
O443	O	-0.224751	-0.656832	0.551264
O444	O	0.275249	-0.156832	1.051264
C445	C	-0.257821	-0.608787	0.565043
C446	C	0.242179	-0.108787	1.065043
H447	H	-0.240547	-0.574483	0.532850
H448	H	0.259453	-0.074483	1.032850
H449	H	-0.301116	-0.596710	0.566853
H450	H	0.198884	-0.096710	1.066853
C451	C	-0.280013	-0.661089	0.660677
C452	C	0.219987	-0.161089	1.160677
C453	C	-0.258793	-0.618958	0.621140
C454	C	0.241207	-0.118958	1.121140
H455	H	-0.280615	-0.667363	0.695281
H456	H	0.219385	-0.167363	1.195281
H457	H	-0.257734	-0.693459	0.651395
H458	H	0.242266	-0.193459	1.151395
H459	H	-0.316090	-0.651020	0.662178
H460	H	0.183910	-0.151020	1.162178
H461	H	-0.222715	-0.629031	0.619634
H462	H	0.277285	-0.129031	1.119634
H463	H	-0.281066	-0.586590	0.630423
H464	H	0.218934	-0.086590	1.130423
H465	H	0.059853	-0.434921	0.635844
H466	H	0.559853	0.065079	1.135844
O467	O	0.633919	-0.670819	0.473650
O468	O	1.133919	-0.170819	0.973650
C469	C	0.586875	-0.652031	0.460822
C470	C	1.086875	-0.152031	0.960822
H471	H	0.553998	-0.618144	0.478466
H472	H	1.053998	-0.118144	0.978466
H473	H	0.597461	-0.635549	0.414589
H474	H	1.097461	-0.135549	0.914589
C475	C	0.605978	-0.741172	0.463759
C476	C	1.105978	-0.241172	0.963759
C477	C	0.565597	-0.699554	0.485434
C478	C	1.065597	-0.199554	0.985434
H479	H	0.592854	-0.770486	0.478938
H480	H	1.092854	-0.270486	0.978938
H481	H	0.637674	-0.753829	0.472399
H482	H	1.137674	-0.253829	0.972399
H483	H	0.614796	-0.727430	0.425231
H484	H	1.114796	-0.227430	0.925231
H485	H	0.556784	-0.713295	0.523959
H486	H	1.056784	-0.213295	1.023959
H487	H	0.533899	-0.686900	0.476800
H488	H	1.033899	-0.186900	0.976800
O489	O	0.235079	-0.524709	0.545943
O490	O	0.735079	-0.024709	1.045943
C491	C	0.288763	-0.532815	0.537836
C492	C	0.788763	-0.032815	1.037836
H493	H	0.288660	-0.498356	0.544225
H494	H	0.788660	0.001644	1.044225
H495	H	0.305163	-0.573536	0.568245
H496	H	0.805163	-0.073536	1.068245
C497	C	0.325517	-0.575531	0.471425
C498	C	0.825517	-0.075531	0.971425
C499	C	0.325391	-0.533206	0.479268
C500	C	0.825391	-0.033206	0.979268
H501	H	0.348112	-0.575775	0.435299
H502	H	0.848112	-0.075775	0.935299
H503	H	0.289349	-0.570072	0.476888
H504	H	0.789349	-0.070072	0.976888
H505	H	0.339182	-0.609461	0.496769
H506	H	0.839182	-0.109461	0.996769
H507	H	0.311720	-0.499277	0.453929
H508	H	0.811720	0.000723	0.953929
H509	H	0.361558	-0.538659	0.473799
H510	H	0.861558	-0.038659	0.973799
H511	H	0.263756	-0.485001	0.585661
H512	H	0.763756	0.014999	1.085661
H513	H	0.373728	-0.561133	0.625383
H514	H	0.873728	-0.061133	1.125383
O515	O	0.265635	-0.532414	0.664229
O516	O	0.765635	-0.032414	1.164229
C517	C	0.303126	-0.585718	0.667294
C518	C	0.803126	-0.085718	1.167294
H519	H	0.343853	-0.583540	0.633524
H520	H	0.843853	-0.083540	1.133524
H521	H	0.309234	-0.607540	0.708707
H522	H	0.809234	-0.107540	1.208707
C523	C	0.230788	-0.620085	0.701791
C524	C	0.730788	-0.120085	1.201791
C525	C	0.280810	-0.617410	0.660312
C526	C	0.780810	-0.117410	1.160312
H527	H	0.217023	-0.639635	0.697487
H528	H	0.717023	-0.139635	1.197487
H529	H	0.205530	-0.584174	0.699728
H530	H	0.705530	-0.084174	1.199728
H531	H	0.235885	-0.638268	0.736298
H532	H	0.735885	-0.138268	1.236298
H533	H	0.275711	-0.599221	0.625806
H534	H	0.775711	-0.099221	1.125806
H535	H	0.306067	-0.653319	0.662368
H536	H	0.806067	-0.153319	1.162368
H537	H	0.186762	-0.248063	0.508836
H538	H	0.686762	0.251937	1.008836
H539	H	-0.219915	-0.570138	0.372989
H540	H	0.280085	-0.070138	0.872989
H541	H	0.270000	-0.358795	0.596010
H542	H	0.770000	0.141205	1.096010
O543	O	0.378089	-0.387508	0.557132
O544	O	0.878089	0.112492	1.057132
C545	C	0.340600	-0.334206	0.554085
C546	C	0.840600	0.165794	1.054085
H547	H	0.299852	-0.331982	0.557845
H548	H	0.799852	0.168018	1.057845
H549	H	0.334542	-0.323538	0.588712
H550	H	0.834542	0.176462	1.088712
C551	C	0.412924	-0.296132	0.494284
C552	C	0.912924	0.203868	0.994284
C553	C	0.362878	-0.293398	0.498898
C554	C	0.862878	0.206602	0.998898
H555	H	0.426666	-0.270959	0.460244
H556	H	0.926666	0.229041	0.960244
H557	H	0.438181	-0.332043	0.496338
H558	H	0.938181	0.167957	0.996338
H559	H	0.407869	-0.287243	0.523143
H560	H	0.907869	0.212757	1.023143
H561	H	0.367935	-0.302294	0.470043
H562	H	0.867935	0.197706	0.970043
H563	H	0.337622	-0.257488	0.496838
H564	H	0.837622	0.242512	0.996838
H565	H	0.221368	-0.351757	0.543370
H566	H	0.721368	0.148243	1.043370
H567	H	0.633799	-0.462884	0.374920
H568	H	1.133799	0.037116	0.874920
O569	O	0.197281	-0.596584	0.399578
O570	O	0.697281	-0.096584	0.899578
C571	C	0.207037	-0.640761	0.386961
C572	C	0.707037	-0.140761	0.886961
H573	H	0.181524	-0.666992	0.423065
H574	H	0.681524	-0.166992	0.923065
H575	H	0.195306	-0.624538	0.349513
H576	H	0.695306	-0.124538	0.849513
C577	C	0.299342	-0.643278	0.330649
C578	C	0.799342	-0.143278	0.830649
C579	C	0.268010	-0.675499	0.374995
C580	C	0.768010	-0.175499	0.874995
H581	H	0.336953	-0.664706	0.323265
H582	H	0.836953	-0.164706	0.823265
H583	H	0.292769	-0.613514	0.339148
H584	H	0.792769	-0.113514	0.839148
H585	H	0.289559	-0.629761	0.299448
H586	H	0.789559	-0.129761	0.799448
H587	H	0.277788	-0.689010	0.406196
H588	H	0.777788	-0.189010	0.906196
H589	H	0.274586	-0.705266	0.366501
H590	H	0.774586	-0.205266	0.866501
O591	O	0.097099	-0.243664	0.684076
O592	O	0.597099	0.256336	1.184076
C593	C	0.125993	-0.257613	0.717088
C594	C	0.625993	0.242387	1.217088
H595	H	0.159274	-0.299110	0.717637
H596	H	0.659274	0.200890	1.217637
H597	H	0.145379	-0.225436	0.699884
H598	H	0.645379	0.274564	1.199884
C599	C	0.045534	-0.209294	0.774974
C600	C	0.545534	0.290706	1.274974
C601	C	0.086408	-0.260263	0.775652
C602	C	0.586408	0.239737	1.275652
H603	H	0.021117	-0.210927	0.811099
H604	H	0.521117	0.289073	1.311099
H605	H	0.026068	-0.199895	0.752732
H606	H	0.526068	0.300105	1.252732
H607	H	0.061696	-0.182485	0.760634
H608	H	0.561696	0.317515	1.260634
H609	H	0.070247	-0.287070	0.789986
H610	H	0.570247	0.212930	1.289986
H611	H	0.105870	-0.269667	0.797898
H612	H	0.605870	0.230333	1.297898
O613	O	-0.035006	-0.519242	0.224291
O614	O	0.464994	-0.019242	0.724291
C615	C	0.013043	-0.505488	0.191302
C616	C	0.513043	-0.005488	0.691302
H617	H	0.047331	-0.537735	0.208602
H618	H	0.547331	-0.037735	0.708602
H619	H	0.025138	-0.503610	0.147973
H620	H	0.525138	-0.003610	0.647973
C621	C	-0.039238	-0.409837	0.169177
C622	C	0.460762	0.090163	0.669177
C623	C	0.002874	-0.449440	0.190428
C624	C	0.502874	0.050560	0.690428
H625	H	-0.045511	-0.375262	0.168636
H626	H	0.454489	0.124738	0.668636
H627	H	-0.071610	-0.419103	0.191401
H628	H	0.428390	0.080897	0.691401
H629	H	-0.029153	-0.408278	0.133072
H630	H	0.470847	0.091722	0.633072
H631	H	-0.007214	-0.451003	0.226535
H632	H	0.492786	0.048997	0.726535
H633	H	0.035244	-0.440173	0.168211
H634	H	0.535244	0.059827	0.668211
H635	H	0.136793	-0.351798	0.712725
H636	H	0.636793	0.148202	1.212725
O637	O	0.090343	-0.703707	0.614003
O638	O	0.590343	-0.203707	1.114003
C639	C	0.084253	-0.696584	0.660019
C640	C	0.584253	-0.196584	1.160019
H641	H	0.090210	-0.656572	0.646904
H642	H	0.590210	-0.156572	1.146904
H643	H	0.041603	-0.695439	0.690922
H644	H	0.541603	-0.195439	1.190922
C645	C	0.119850	-0.793541	0.702367
C646	C	0.619850	-0.293541	1.202367
C647	C	0.127171	-0.744400	0.686257
C648	C	0.627171	-0.244400	1.186257
H649	H	0.146322	-0.823037	0.718554
H650	H	0.646322	-0.323037	1.218554
H651	H	0.123951	-0.798341	0.671366
H652	H	0.623951	-0.298341	1.171366
H653	H	0.084307	-0.792580	0.728117
H654	H	0.584307	-0.292580	1.228117
H655	H	0.162711	-0.745359	0.660503
H656	H	0.662711	-0.245359	1.160503
H657	H	0.123076	-0.739602	0.717255
H658	H	0.623076	-0.239602	1.217255
H659	H	-0.067667	-0.562559	0.332499
H660	H	0.432333	-0.062559	0.832499
H661	H	0.051655	-0.697459	0.228927
H662	H	0.551655	-0.197459	0.728927
O663	O	0.019026	-0.740787	0.337088
O664	O	0.519026	-0.240787	0.837088
C665	C	-0.000481	-0.764492	0.323041
C666	C	0.499519	-0.264492	0.823041
H667	H	-0.035681	-0.731916	0.307248
H668	H	0.464319	-0.231916	0.807248
H669	H	0.033843	-0.782573	0.289904
H670	H	0.533843	-0.282573	0.789904
C671	C	0.022629	-0.849975	0.393189
C672	C	0.522629	-0.349975	0.893189
C673	C	-0.020608	-0.809966	0.373797
C674	C	0.479392	-0.309966	0.873797
H675	H	0.010216	-0.878028	0.424497
H676	H	0.510216	-0.378028	0.924497
H677	H	0.035773	-0.834006	0.402652
H678	H	0.535773	-0.334006	0.902652
H679	H	0.051228	-0.865037	0.365570
H680	H	0.551228	-0.365037	0.865570
H681	H	-0.049203	-0.794901	0.401414
H682	H	0.450797	-0.294901	0.901414
H683	H	-0.033757	-0.825934	0.364340
H684	H	0.466243	-0.325934	0.864340
O685	O	-0.072910	-0.556646	0.375976
O686	O	0.427090	-0.056646	0.875976
C687	C	-0.080974	-0.502974	0.367871
C688	C	0.419026	-0.002974	0.867871
H689	H	-0.074652	-0.503082	0.402379
H690	H	0.425348	-0.003082	0.902379
H691	H	-0.050498	-0.486642	0.327196
H692	H	0.449502	0.013358	0.827196
C693	C	-0.147256	-0.466125	0.324968
C694	C	0.352744	0.033875	0.824968
C695	C	-0.139496	-0.466258	0.367353
C696	C	0.360504	0.033742	0.867353
H697	H	-0.183354	-0.443475	0.324646
H698	H	0.316646	0.056525	0.824646
H699	H	-0.141822	-0.502285	0.330426
H700	H	0.358178	-0.002285	0.830426
H701	H	-0.121856	-0.452517	0.291076
H702	H	0.378144	0.047483	0.791076
H703	H	-0.164891	-0.479872	0.401244
H704	H	0.335109	0.020128	0.901244
H705	H	-0.144936	-0.430099	0.361901
H706	H	0.355064	0.069901	0.861901
H707	H	-0.033252	-0.528055	0.415829
H708	H	0.466748	-0.028055	0.915829
O709	O	-0.080792	-0.846120	0.494179
O710	O	0.419208	-0.346120	0.994179
C711	C	-0.107527	-0.832149	0.459162
C712	C	0.392473	-0.332149	0.959162
H713	H	-0.106125	-0.790690	0.426585
H714	H	0.393875	-0.290690	0.926585
H715	H	-0.086224	-0.864362	0.438754
H716	H	0.413776	-0.364362	0.938754
C717	C	-0.169127	-0.880295	0.532500
C718	C	0.330873	-0.380295	1.032500
C719	C	-0.167408	-0.829373	0.492490
C720	C	0.332592	-0.329373	0.992490
H721	H	-0.206064	-0.878585	0.553058
H722	H	0.293936	-0.378585	1.053058
H723	H	-0.151114	-0.889710	0.556091
H724	H	0.348886	-0.389710	1.056091
H725	H	-0.151372	-0.907135	0.515487
H726	H	0.348628	-0.407135	1.015487
H727	H	-0.185158	-0.802536	0.509504
H728	H	0.314842	-0.302536	1.009504
H729	H	-0.185426	-0.819953	0.468902
H730	H	0.314574	-0.319953	0.968902
O731	O	0.056322	-0.703350	0.505864
O732	O	0.556322	-0.203350	1.005864
C733	C	0.064406	-0.757022	0.513944
C734	C	0.564406	-0.257022	1.013944
H735	H	0.029978	-0.756875	0.507472
H736	H	0.529978	-0.256875	1.007472
H737	H	0.105150	-0.773442	0.483578
H738	H	0.605150	-0.273442	0.983578
C739	C	0.106993	-0.793846	0.580486
C740	C	0.606993	-0.293846	1.080486
C741	C	0.064704	-0.793667	0.572540
C742	C	0.564704	-0.293667	1.072540
H743	H	0.107179	-0.816452	0.616629
H744	H	0.607179	-0.316452	1.116629
H745	H	0.101548	-0.757687	0.575040
H746	H	0.601548	-0.257687	1.075040
H747	H	0.140941	-0.807528	0.555177
H748	H	0.640941	-0.307528	1.055177
H749	H	0.030756	-0.779978	0.597844
H750	H	0.530756	-0.279978	1.097844
H751	H	0.070143	-0.829825	0.577991
H752	H	0.570143	-0.329825	1.077991
O753	O	0.064203	-0.733828	0.387437
O754	O	0.564203	-0.233828	0.887437
C755	C	0.117478	-0.771360	0.384450
C756	C	0.617478	-0.271360	0.884450
H757	H	0.115246	-0.812084	0.418211
H758	H	0.615246	-0.312084	0.918211
H759	H	0.139349	-0.777466	0.343035
H760	H	0.639349	-0.277466	0.843035
C761	C	0.151885	-0.699077	0.350060
C762	C	0.651885	-0.199077	0.850060
C763	C	0.149144	-0.749095	0.391529
C764	C	0.649144	-0.249095	0.891529
H765	H	0.171420	-0.685343	0.354424
H766	H	0.671420	-0.185343	0.854424
H767	H	0.115993	-0.673791	0.352070
H768	H	0.615993	-0.173791	0.852070
H769	H	0.170110	-0.704173	0.315552
H770	H	0.670110	-0.204173	0.815552
H771	H	0.130913	-0.743998	0.426036
H772	H	0.630913	-0.243998	0.926036
H773	H	0.185034	-0.774380	0.389525
H774	H	0.685034	-0.274380	0.889525
H775	H	0.092838	-0.841923	0.426277
H776	H	0.592838	-0.341923	0.926277
O777	O	-0.112112	-0.694672	0.513966
O778	O	0.387888	-0.194672	1.013966
C779	C	-0.126127	-0.742578	0.546980
C780	C	0.373873	-0.242578	1.046980
H781	H	-0.167605	-0.734861	0.547455
H782	H	0.332395	-0.234861	1.047455
H783	H	-0.093955	-0.776985	0.529829
H784	H	0.406045	-0.276985	1.029829
C785	C	-0.077924	-0.768329	0.604986
C786	C	0.422076	-0.268329	1.104986
C787	C	-0.128870	-0.758850	0.605573
C788	C	0.371130	-0.258850	1.105573
H789	H	-0.079613	-0.778369	0.641128
H790	H	0.420387	-0.278369	1.141128
H791	H	-0.068480	-0.736055	0.582743
H792	H	0.431520	-0.236055	1.082743
H793	H	-0.051119	-0.797000	0.590691
H794	H	0.448881	-0.297000	1.090691
H795	H	-0.155672	-0.730175	0.619861
H796	H	0.344328	-0.230175	1.119861
H797	H	-0.138318	-0.791120	0.627820
H798	H	0.361682	-0.291120	1.127820
O799	O	-0.111804	-0.602632	0.329771
O800	O	0.388196	-0.102632	0.829771
C801	C	-0.149207	-0.569497	0.300977
C802	C	0.350793	-0.069497	0.800977
H803	H	-0.189977	-0.576733	0.328165
H804	H	0.310023	-0.076733	0.828165
H805	H	-0.155249	-0.524737	0.288650
H806	H	0.344751	-0.024737	0.788650
C807	C	-0.076752	-0.575105	0.216053
C808	C	0.423248	-0.075105	0.716053
C809	C	-0.126826	-0.583996	0.249446
C810	C	0.373174	-0.083996	0.749446
H811	H	-0.062946	-0.584046	0.184265
H812	H	0.437054	-0.084046	0.684265
H813	H	-0.051552	-0.597427	0.235452
H814	H	0.448448	-0.097427	0.735452
H815	H	-0.081794	-0.537805	0.205787
H816	H	0.418206	-0.037805	0.705787
H817	H	-0.121782	-0.621296	0.259717
H818	H	0.378218	-0.121296	0.759717
H819	H	-0.152024	-0.561680	0.230047
H820	H	0.347976	-0.061680	0.730047
H821	H	0.016700	-0.731943	0.465981
H822	H	0.516700	-0.231943	0.965981
H823	H	-0.109425	-0.738032	0.455342
H824	H	0.390575	-0.238032	0.955342
