data_functionalizedCrystal
_audit_creation_method	'MofGen! by Chris Wilmer'
_symmetry_space_group_name_H-M	'P1'
_symmetry_Int_Tables_number	1
_symmetry_cell_setting	triclinic
loop_
_symmetry_equiv_pos_as_xyz
  x,y,z
_cell_length_a	17.038272
_cell_length_b	17.038272
_cell_length_c	15.021413
_cell_angle_alpha	90.004029
_cell_angle_beta	89.997778
_cell_angle_gamma	91.111556
loop_
_atom_site_label
_atom_site_type_symbol
_atom_site_fract_x
_atom_site_fract_y
_atom_site_fract_z
O1	O	1.048758	0.170527	-0.073921
O2	O	1.382092	0.503860	0.259412
O3	O	1.715425	0.837193	0.592745
O4	O	0.820947	0.167819	-0.073948
O5	O	1.154280	0.501152	0.259386
O6	O	1.487613	0.834485	0.592719
O7	O	0.933499	0.055267	-0.073928
O8	O	1.266832	0.388600	0.259406
O9	O	1.600165	0.721934	0.592739
O10	O	0.936206	0.283078	-0.073941
O11	O	1.269540	0.616412	0.259392
O12	O	1.602873	0.949745	0.592725
O13	O	0.933480	0.055283	0.074137
O14	O	1.266814	0.388616	0.407470
O15	O	1.600147	0.721949	0.740803
O16	O	0.820929	0.167835	0.074117
O17	O	1.154262	0.501168	0.407450
O18	O	1.487595	0.834501	0.740783
O19	O	1.048740	0.170543	0.074143
O20	O	1.382074	0.503876	0.407476
O21	O	1.715407	0.837209	0.740809
Zn22	Zn	0.934832	0.169191	0.097638
Zn23	Zn	1.268165	0.502524	0.430971
Zn24	Zn	1.601498	0.835858	0.764305
Zn25	Zn	0.934855	0.169170	-0.097443
Zn26	Zn	1.268189	0.502503	0.235890
Zn27	Zn	1.601522	0.835837	0.569224
O28	O	0.936188	0.283094	0.074123
O29	O	1.269522	0.616428	0.407456
O30	O	1.602855	0.949761	0.740789
C31	C	0.791645	0.165364	0.000081
C32	C	1.124978	0.498697	0.333415
C33	C	1.458312	0.832030	0.666748
C34	C	0.704361	0.158016	0.000071
C35	C	1.037695	0.491349	0.333405
C36	C	1.371028	0.824682	0.666738
C37	C	0.658752	0.225479	0.000068
C38	C	0.992086	0.558813	0.333401
C39	C	1.325419	0.892146	0.666735
C40	C	0.576740	0.218570	0.000081
C41	C	0.910074	0.551904	0.333414
C42	C	1.243407	0.885237	0.666747
C43	C	0.540339	0.144197	0.000090
C44	C	0.873672	0.477530	0.333424
C45	C	1.207006	0.810864	0.666757
C46	C	0.585954	0.076728	0.000096
C47	C	0.919288	0.410062	0.333430
C48	C	1.252621	0.743395	0.666763
C49	C	0.667965	0.083638	0.000090
C50	C	1.001298	0.416971	0.333423
C51	C	1.334631	0.750305	0.666757
C52	C	0.292951	0.119787	0.000116
C53	C	0.626285	0.453120	0.333449
C54	C	0.959618	0.786453	0.666782
C55	C	0.210935	0.112882	0.000119
C56	C	0.544268	0.446215	0.333453
C57	C	0.877601	0.779549	0.666786
C58	C	0.201726	0.254725	0.000105
C59	C	0.535060	0.588058	0.333439
C60	C	0.868393	0.921391	0.666772
C61	C	0.283739	0.261628	0.000094
C62	C	0.617072	0.594961	0.333427
C63	C	0.950405	0.928294	0.666760
C64	C	0.329347	0.194159	0.000104
C65	C	0.662680	0.527492	0.333438
C66	C	0.996013	0.860826	0.666771
C67	C	0.456510	0.137133	0.000101
C68	C	0.789843	0.470467	0.333434
C69	C	1.123177	0.803800	0.666767
C70	C	0.413174	0.201224	0.000100
C71	C	0.746508	0.534557	0.333434
C72	C	1.079841	0.867890	0.666767
C73	C	0.931027	0.025982	0.000104
C74	C	1.264360	0.359315	0.333437
C75	C	1.597693	0.692649	0.666771
C76	C	0.923679	-0.061301	0.000103
C77	C	1.257012	0.272032	0.333436
C78	C	1.590345	0.605365	0.666770
C79	C	0.991142	-0.106911	0.000112
C80	C	1.324476	0.226423	0.333445
C81	C	1.657809	0.559756	0.666778
C82	C	0.984233	-0.188923	0.000102
C83	C	1.317567	0.144411	0.333436
C84	C	1.650900	0.477744	0.666769
C85	C	0.909860	-0.225324	0.000091
C86	C	1.243193	0.108010	0.333424
C87	C	1.576527	0.441343	0.666758
C88	C	0.842391	-0.179708	0.000080
C89	C	1.175725	0.153625	0.333413
C90	C	1.509058	0.486958	0.666746
C91	C	0.849301	-0.097698	0.000082
C92	C	1.182634	0.235635	0.333416
C93	C	1.515968	0.568969	0.666749
C94	C	0.885449	-0.472712	0.000076
C95	C	1.218783	-0.139378	0.333409
C96	C	1.552116	0.193955	0.666743
C97	C	0.878545	-0.554728	0.000076
C98	C	1.211878	-0.221395	0.333409
C99	C	1.545211	0.111939	0.666742
C100	C	1.020387	-0.563937	0.000097
C101	C	1.353721	-0.230603	0.333430
C102	C	1.687054	0.102730	0.666764
C103	C	1.027291	-0.481924	0.000105
C104	C	1.360624	-0.148591	0.333438
C105	C	1.693957	0.184742	0.666772
C106	C	0.959822	-0.436316	0.000089
C107	C	1.293155	-0.102983	0.333422
C108	C	1.626489	0.230351	0.666756
C109	C	0.902796	-0.309153	0.000084
C110	C	1.236129	0.024180	0.333418
C111	C	1.569463	0.357514	0.666751
C112	C	0.966886	-0.352488	0.000089
C113	C	1.300220	-0.019155	0.333423
C114	C	1.633553	0.314178	0.666756
C115	C	1.078042	0.172997	0.000112
C116	C	1.411375	0.506331	0.333445
C117	C	1.744709	0.839664	0.666779
C118	C	1.165326	0.180346	0.000116
C119	C	1.498659	0.513679	0.333449
C120	C	1.831992	0.847012	0.666783
C121	C	0.938660	0.312379	0.000089
C122	C	1.271994	0.645712	0.333422
C123	C	1.605327	0.979046	0.666756
C124	C	0.946008	0.399663	0.000084
C125	C	1.279342	0.732996	0.333418
C126	C	1.612675	1.066329	0.666751
N127	N	0.934821	0.169205	0.230776
N128	N	1.268154	0.502539	0.564109
N129	N	1.601488	0.835872	0.897442
N130	N	0.934872	0.169150	-0.230581
N131	N	1.268205	0.502483	0.102753
N132	N	1.601538	0.835817	0.436086
C133	C	0.882767	0.221223	0.470450
C134	C	1.216100	0.554556	0.803783
C135	C	1.549433	0.887889	1.137116
C136	C	0.954743	0.241185	0.529791
C137	C	1.288076	0.574518	0.863125
C138	C	1.621410	0.907852	1.196458
C139	C	0.934840	0.169187	0.412383
C140	C	1.268173	0.502520	0.745716
C141	C	1.601507	0.835854	1.079049
C142	C	0.862884	0.149244	0.529783
C143	C	1.196217	0.482577	0.863116
C144	C	1.529551	0.815910	1.196449
C145	C	0.934852	0.169171	0.587807
C146	C	1.268185	0.502504	0.921140
C147	C	1.601518	0.835837	1.254473
C148	C	1.006854	0.189187	0.470418
C149	C	1.340188	0.522520	0.803751
C150	C	1.673521	0.855854	1.137084
C151	C	0.914946	0.097212	0.470404
C152	C	1.248280	0.430545	0.803737
C153	C	1.581613	0.763878	1.137071
C154	C	0.986972	0.117147	0.529719
C155	C	1.320305	0.450481	0.863052
C156	C	1.653639	0.783814	1.196385
C157	C	0.934832	0.169198	0.311325
C158	C	1.268165	0.502532	0.644659
C159	C	1.601499	0.835865	0.977992
C160	C	0.934868	0.169159	0.688862
C161	C	1.268201	0.502493	1.022195
C162	C	1.601534	0.835826	1.355529
H163	H	0.330076	0.064848	0.000125
H164	H	0.663409	0.398182	0.333458
H165	H	0.996742	0.731515	0.666792
O166	O	0.762174	-0.218969	0.000077
O167	O	1.095507	0.114364	0.333411
O168	O	1.428841	0.447698	0.666744
H169	H	0.755640	-0.256124	-0.060265
H170	H	1.088973	0.077209	0.273068
H171	H	1.422307	0.410542	0.606401
H172	H	0.556310	0.016172	0.000117
H173	H	0.889644	0.349505	0.333450
H174	H	1.222977	0.682839	0.666784
H175	H	1.087853	-0.452293	0.000115
H176	H	1.421186	-0.118959	0.333448
H177	H	1.754520	0.214374	0.666781
O178	O	0.824505	0.279565	0.435972
O179	O	1.157838	0.612898	0.769305
O180	O	1.491171	0.946232	1.102638
H181	H	0.764954	0.263561	0.460781
H182	H	1.098288	0.596894	0.794115
H183	H	1.431621	0.930228	1.127448
H184	H	0.817978	-0.584363	0.000081
H185	H	1.151311	-0.251030	0.333414
H186	H	1.484645	0.082304	0.666747
O187	O	1.057003	-0.238109	0.000118
O188	O	1.390337	0.095225	0.333451
O189	O	1.723670	0.428558	0.666785
H190	H	1.057268	-0.275688	-0.060237
H191	H	1.390602	0.057645	0.273096
H192	H	1.723935	0.390979	0.606430
O193	O	0.822582	-0.348420	0.000091
O194	O	1.155915	-0.015086	0.333424
O195	O	1.489248	0.318247	0.666758
H196	H	0.816049	-0.385573	-0.060254
H197	H	1.149383	-0.052239	0.273079
H198	H	1.482716	0.281094	0.606413
H199	H	0.898089	0.036368	0.444298
H200	H	1.231422	0.369702	0.777631
H201	H	1.564756	0.703035	1.110965
H202	H	0.313370	0.322190	0.000075
H203	H	0.646704	0.655524	0.333409
H204	H	0.980037	0.988857	0.666742
H205	H	0.539608	0.273507	0.000077
H206	H	0.872942	0.606840	0.333410
H207	H	1.206275	0.940173	0.666744
H208	H	0.971580	0.302046	0.555877
H209	H	1.304913	0.635380	0.889210
H210	H	1.638246	0.968713	1.222543
O211	O	0.812683	-0.423524	0.000081
O212	O	1.146017	-0.090191	0.333415
O213	O	1.479350	0.243143	0.666748
H214	H	0.759809	-0.462617	0.000089
H215	H	1.093142	-0.129283	0.333422
H216	H	1.426475	0.204050	0.666755
H217	H	0.164583	0.309653	0.000098
H218	H	0.497917	0.642987	0.333432
H219	H	0.831250	0.976320	0.666765
H220	H	0.802027	0.132383	0.555862
H221	H	1.135361	0.465717	0.889195
H222	H	1.468694	0.799050	1.222528
O223	O	0.171675	0.032659	0.000137
O224	O	0.505008	0.365992	0.333470
O225	O	0.838341	0.699325	0.666803
H226	H	0.134526	0.026137	0.060485
H227	H	0.467859	0.359470	0.393818
H228	H	0.801193	0.692804	0.727151
H229	H	0.705099	0.028702	0.000092
H230	H	1.038433	0.362035	0.333426
H231	H	1.371766	0.695368	0.666759
H232	H	1.031065	0.073136	0.555579
H233	H	1.364398	0.406470	0.888912
H234	H	1.697732	0.739803	1.222246
H235	H	1.067729	0.206120	0.444451
H236	H	1.401062	0.539454	0.777784
H237	H	1.734396	0.872787	1.111117
O238	O	0.776534	-0.048505	0.000077
O239	O	1.109867	0.284828	0.333410
O240	O	1.443200	0.618161	0.666743
H241	H	0.793832	0.014637	0.000072
H242	H	1.127166	0.347970	0.333405
H243	H	1.460499	0.681303	0.666739
H244	H	0.688384	0.286042	0.000059
H245	H	1.021717	0.619375	0.333393
H246	H	1.355050	0.952709	0.666726
H247	H	0.426863	0.076578	0.000134
H248	H	0.760196	0.409911	0.333467
H249	H	1.093530	0.743245	0.666800
O250	O	0.452431	0.281439	0.000098
O251	O	0.785764	0.614773	0.333432
O252	O	1.119097	0.948106	0.666765
H253	H	0.434480	0.314117	-0.060249
H254	H	0.767814	0.647450	0.273084
H255	H	1.101147	0.980783	0.606417
O256	O	1.071362	-0.067655	0.000114
O257	O	1.404695	0.265679	0.333448
O258	O	1.738028	0.599012	0.666781
H259	H	1.104042	-0.085607	0.060459
H260	H	1.437375	0.247726	0.393793
H261	H	1.770708	0.581059	0.727126
O262	O	1.093156	-0.613126	0.000108
O263	O	1.426489	-0.279792	0.333442
O264	O	1.759822	0.053541	0.666775
H265	H	1.075860	-0.676268	0.000098
H266	H	1.409193	-0.342935	0.333432
H267	H	1.742527	-0.009602	0.666765
H268	H	1.027441	-0.322847	0.000079
H269	H	1.360774	0.010486	0.333412
H270	H	1.694107	0.343820	0.666746
