data_functionalizedCrystal
_audit_creation_method	'MofGen! by Chris Wilmer'
_symmetry_space_group_name_H-M	'P1'
_symmetry_Int_Tables_number	1
_symmetry_cell_setting	triclinic
loop_
_symmetry_equiv_pos_as_xyz
  x,y,z
_cell_length_a	16.120484
_cell_length_b	21.395362
_cell_length_c	21.395356
_cell_angle_alpha	90.035878
_cell_angle_beta	92.870655
_cell_angle_gamma	87.057600
loop_
_atom_site_label
_atom_site_type_symbol
_atom_site_fract_x
_atom_site_fract_y
_atom_site_fract_z
Zn1	Zn	-0.331576	-0.945196	-0.367212
Zn2	Zn	-0.470997	-0.939809	-0.267744
Zn3	Zn	-0.331639	-0.840423	-0.262416
Zn4	Zn	-0.470991	-0.835077	-0.372448
O5	O	-0.401301	-0.890126	-0.317455
O6	O	-0.350047	-1.032160	-0.354056
O7	O	-0.452540	-0.926609	-0.179360
O8	O	-0.214963	-0.858814	-0.271896
O9	O	-0.452479	-1.028203	-0.280977
O10	O	-0.214917	-0.935790	-0.348889
O11	O	-0.350154	-0.853590	-0.175446
O12	O	-0.350147	-0.752035	-0.276973
O13	O	-0.452469	-0.849701	-0.459430
O14	O	-0.452529	-0.748107	-0.357814
O15	O	-0.350041	-0.930605	-0.455583
O16	O	-0.587664	-0.921424	-0.286054
O17	O	-0.587660	-0.844478	-0.362980
C18	C	-0.401345	-0.727337	-0.317384
C19	C	-0.401384	-0.657694	-0.317369
C20	C	-0.617913	-0.881803	-0.325677
C21	C	-0.710580	-0.878300	-0.329216
C22	C	-0.401247	-0.890157	-0.480876
C23	C	-0.401224	-0.890171	-0.550517
C24	C	-0.880244	-0.871908	-0.335689
C25	C	-0.921517	-0.908457	-0.299231
C26	C	-1.015924	-0.904900	-0.302833
C27	C	-0.785829	-0.875464	-0.332088
C28	C	-0.183843	-0.898499	-0.309214
C29	C	-0.091176	-0.902067	-0.305703
C30	C	-0.401257	-1.053551	-0.317527
C31	C	-0.401239	-1.123193	-0.317557
C32	C	-0.454765	-0.622949	-0.359405
C33	C	-0.454744	-0.557515	-0.359433
C34	C	-0.401352	-0.526827	-0.317413
C35	C	-0.347961	-0.561580	-0.275373
C36	C	-0.347977	-0.627014	-0.275351
C37	C	-0.394648	-0.423365	-0.260752
C38	C	-0.394638	-0.357933	-0.260773
C39	C	-0.401297	-0.325009	-0.317480
C40	C	-0.407985	-0.357524	-0.374168
C41	C	-0.408001	-0.422958	-0.374146
C42	C	-0.401328	-0.455876	-0.317432
C43	C	-0.454659	-0.219312	-0.359549
C44	C	-0.454633	-0.153876	-0.359577
C45	C	-0.347853	-0.157943	-0.275512
C46	C	-0.347875	-0.223377	-0.275489
C47	C	-0.401282	-0.254058	-0.317507
C48	C	-0.347758	-0.932361	-1.050306
C49	C	-0.347778	-0.932356	-0.984871
C50	C	-0.401113	-0.890229	-0.954151
C51	C	-0.454448	-0.848115	-0.988872
C52	C	-0.454432	-0.848126	-1.054305
C53	C	-0.407737	-0.833508	-0.850708
C54	C	-0.407747	-0.833496	-0.785275
C55	C	-0.401167	-0.890194	-0.752332
C56	C	-0.394560	-0.946908	-0.784829
C57	C	-0.394544	-0.946919	-0.850262
C58	C	-0.401137	-0.890212	-0.883199
C59	C	-0.347861	-0.932302	-0.646668
C60	C	-0.347887	-0.932298	-0.581232
C61	C	-0.454553	-0.848051	-0.585234
C62	C	-0.454532	-0.848061	-0.650668
C63	C	-0.401181	-0.890186	-0.681381
C64	C	-0.401294	-0.890134	-0.154667
C65	C	-0.401082	-0.890251	-0.085018
H66	H	-0.885949	-0.942419	-0.265314
H67	H	-0.915809	-0.837948	-0.369603
H68	H	-0.498252	-0.647925	-0.393620
Br69	Br	-0.275441	-0.989457	-0.688353
Br70	Br	-0.526838	-0.790945	-0.947182
Br71	Br	-0.275426	-0.270535	-0.218437
H72	H	-0.389199	-0.993077	-0.758008
H73	H	-0.304319	-0.966666	-1.075308
H74	H	-0.413443	-0.449429	-0.420304
Br75	Br	-0.417021	-0.312850	-0.451133
H76	H	-0.498213	-0.529220	-0.393666
H77	H	-0.498142	-0.244293	-0.393765
H78	H	-0.498100	-0.125588	-0.393812
H79	H	-0.304376	-0.132958	-0.241301
Br80	Br	-0.385564	-0.313811	-0.183840
H81	H	-0.389222	-0.450167	-0.214571
H82	H	-0.304487	-0.536590	-0.241161
H83	H	-0.389166	-0.993096	-0.876719
H84	H	-0.304505	-0.655303	-0.241120
H85	H	-0.304352	-0.966647	-0.956603
Br86	Br	-0.275519	-0.989458	-0.534121
H87	H	-0.497983	-0.813753	-0.560222
Br88	Br	-0.526905	-0.790908	-0.697781
Br89	Br	-0.416701	-0.756529	-0.741179
Br90	Br	-0.526809	-0.790973	-1.101418
Br91	Br	-0.416657	-0.756552	-0.895410
