data_functionalizedCrystal
_audit_creation_method	'MofGen! by Chris Wilmer'
_symmetry_space_group_name_H-M	'P1'
_symmetry_Int_Tables_number	1
_symmetry_cell_setting	triclinic
loop_
_symmetry_equiv_pos_as_xyz
  x,y,z
_cell_length_a	11.169416
_cell_length_b	11.169417
_cell_length_c	11.169409
_cell_angle_alpha	90.019513
_cell_angle_beta	90.030874
_cell_angle_gamma	90.011589
loop_
_atom_site_label
_atom_site_type_symbol
_atom_site_fract_x
_atom_site_fract_y
_atom_site_fract_z
Zn1	Zn	-0.477670	1.834962	0.678545
Zn2	Zn	0.022330	2.334962	1.178545
Zn3	Zn	-0.678410	1.834852	0.477867
Zn4	Zn	-0.178410	2.334852	0.977867
Zn5	Zn	-0.477744	1.634248	0.477880
Zn6	Zn	0.022256	2.134248	0.977880
Zn7	Zn	-0.678314	1.634256	0.678513
Zn8	Zn	-0.178314	2.134256	1.178513
O9	O	-0.578035	1.734579	0.578201
O10	O	-0.078035	2.234579	1.078201
O11	O	-0.504308	2.002897	0.651932
O12	O	-0.004308	2.502897	1.151932
O13	O	-0.651863	1.808192	0.309919
O14	O	-0.151863	2.308192	0.809919
O15	O	-0.309785	1.660917	0.504518
O16	O	0.190215	2.160917	1.004518
O17	O	-0.651791	2.002816	0.504495
O18	O	-0.151791	2.502816	1.004495
O19	O	-0.309730	1.808380	0.651945
O20	O	0.190270	2.308380	1.151945
O21	O	-0.504435	1.660809	0.309929
O22	O	-0.004435	2.160809	0.809929
O23	O	-0.504341	1.466300	0.504487
O24	O	-0.004341	1.966300	1.004487
O25	O	-0.651627	1.660929	0.846467
O26	O	-0.151627	2.160929	1.346467
O27	O	-0.651699	1.466305	0.651891
O28	O	-0.151699	1.966305	1.151891
O29	O	-0.504214	1.808388	0.846491
O30	O	-0.004214	2.308388	1.346491
O31	O	-0.846347	1.808199	0.504464
O32	O	-0.346347	2.308199	1.004464
O33	O	-0.846277	1.660822	0.651878
O34	O	-0.346277	2.160822	1.151878
C35	C	-0.578019	1.422755	0.578188
C36	C	-0.078019	1.922755	1.078188
C37	C	-0.578041	1.289355	0.578210
C38	C	-0.078041	1.789355	1.078210
C39	C	-0.889859	1.734532	0.578192
C40	C	-0.389859	2.234532	1.078192
C41	C	-1.023259	1.734621	0.578228
C42	C	-0.523259	2.234621	1.078228
C43	C	-0.264992	1.734660	0.578237
C44	C	0.235008	2.234660	1.078237
C45	C	-0.131592	1.734694	0.578252
C46	C	0.368408	2.234694	1.078252
C47	C	-0.577901	1.734672	0.891244
C48	C	-0.077901	2.234672	1.391244
C49	C	-0.577845	1.734711	1.024644
C50	C	-0.077845	2.234711	1.524644
C51	C	-0.578052	2.047622	0.578216
C52	C	-0.078052	2.547622	1.078216
C53	C	-0.578059	2.181022	0.578222
C54	C	-0.078059	2.681022	1.078222
C55	C	-0.578081	1.734557	0.266377
C56	C	-0.078081	2.234557	0.766377
C57	C	-0.577800	1.734750	0.132977
C58	C	-0.077800	2.234750	0.632977
