data_functionalizedCrystal
_audit_creation_method	'MofGen! by Chris Wilmer'
_symmetry_space_group_name_H-M	'P1'
_symmetry_Int_Tables_number	1
_symmetry_cell_setting	triclinic
loop_
_symmetry_equiv_pos_as_xyz
  x,y,z
_cell_length_a	14.519709
_cell_length_b	17.699083
_cell_length_c	16.776229
_cell_angle_alpha	90.007545
_cell_angle_beta	89.998478
_cell_angle_gamma	96.518420
loop_
_atom_site_label
_atom_site_type_symbol
_atom_site_fract_x
_atom_site_fract_y
_atom_site_fract_z
O1	O	1.223449	-0.099215	-0.066186
O2	O	1.723449	0.400785	0.433814
O3	O	0.954923	-0.110899	-0.066211
O4	O	1.454923	0.389101	0.433789
O5	O	1.096772	0.005110	-0.066191
O6	O	1.596772	0.505110	0.433809
O7	O	1.081599	-0.215225	-0.066206
O8	O	1.581599	0.284775	0.433794
O9	O	1.096754	0.005117	0.066386
O10	O	1.596754	0.505117	0.566386
O11	O	0.954904	-0.110892	0.066366
O12	O	1.454904	0.389108	0.566366
O13	O	1.223430	-0.099208	0.066390
O14	O	1.723430	0.400792	0.566390
Zn15	Zn	1.089164	-0.105049	0.087428
Zn16	Zn	1.589164	0.394951	0.587428
Zn17	Zn	1.089189	-0.105058	-0.087248
Zn18	Zn	1.589189	0.394942	0.412752
O19	O	1.081580	-0.215218	0.066370
O20	O	1.581580	0.284782	0.566370
C21	C	0.920556	-0.110351	0.000075
C22	C	1.420556	0.389649	0.500075
C23	C	0.818181	-0.108719	0.000065
C24	C	1.318181	0.391281	0.500065
C25	C	0.443311	-0.102712	0.000102
C26	C	0.943311	0.397288	0.500102
C27	C	0.547612	-0.104380	0.000092
C28	C	1.047612	0.395620	0.500092
C29	C	0.630743	-0.105716	0.000083
C30	C	1.130743	0.394284	0.500083
C31	C	0.735050	-0.107384	0.000074
C32	C	1.235050	0.392616	0.500074
C33	C	1.096219	0.033312	0.000098
C34	C	1.596219	0.533312	0.500098
C35	C	1.094588	0.117335	0.000098
C36	C	1.594588	0.617335	0.500098
C37	C	1.257797	-0.099756	0.000104
C38	C	1.757797	0.400244	0.500104
C39	C	1.360171	-0.101388	0.000107
C40	C	1.860171	0.398612	0.500107
C41	C	1.082134	-0.243420	0.000080
C42	C	1.582134	0.256580	0.500080
C43	C	1.083765	-0.327442	0.000075
C44	C	1.583765	0.172558	0.500075
N45	N	1.089154	-0.105042	0.206639
N46	N	1.589154	0.394958	0.706639
C47	C	1.177851	0.165718	0.000107
C48	C	1.677851	0.665718	0.500107
C49	C	1.176313	0.244665	0.000099
C50	C	1.676313	0.744665	0.500099
C51	C	1.091511	0.275229	0.000089
C52	C	1.591511	0.775229	0.500089
C53	C	1.008242	0.226840	0.000078
C54	C	1.508242	0.726840	0.500078
C55	C	1.009781	0.147894	0.000080
C56	C	1.509781	0.647894	0.500080
C57	C	1.002033	0.545221	0.000071
C58	C	1.502033	1.045221	0.500071
C59	C	1.000501	0.624173	0.000072
C60	C	1.500501	1.124173	0.500072
C61	C	1.168566	0.641992	0.000091
C62	C	1.668566	1.141992	0.500091
C63	C	1.170105	0.563046	0.000092
C64	C	1.670105	1.063046	0.500092
C65	C	1.086836	0.514664	0.000077
C66	C	1.586836	1.014664	0.500077
C67	C	1.088505	0.429060	0.000083
C68	C	1.588505	0.929060	0.500083
C69	C	1.089841	0.360831	0.000089
C70	C	1.589841	0.860831	0.500089
N71	N	1.089206	-0.105059	-0.206459
N72	N	1.589206	0.394941	0.293541
C73	C	1.151984	-0.053694	0.248365
C74	C	1.651984	0.446306	0.748365
C75	C	1.151989	-0.053694	0.331817
C76	C	1.651989	0.446306	0.831817
C77	C	1.089168	-0.105045	0.373542
C78	C	1.589168	0.394955	0.873542
C79	C	1.026331	-0.156395	0.331810
C80	C	1.526331	0.343605	0.831810
C81	C	1.026322	-0.156392	0.248359
C82	C	1.526322	0.343608	0.748359
C83	C	1.026364	-0.156410	0.668357
C84	C	1.526364	0.343590	1.168357
C85	C	1.026380	-0.156411	0.751814
C86	C	1.526380	0.343589	1.251814
C87	C	1.152031	-0.053712	0.751815
C88	C	1.652031	0.446288	1.251815
C89	C	1.152022	-0.053709	0.668364
C90	C	1.652022	0.446291	1.168364
C91	C	1.089183	-0.105056	0.626640
C92	C	1.589183	0.394944	1.126640
C93	C	1.089177	-0.105055	0.536151
C94	C	1.589177	0.394945	1.036151
C95	C	1.089177	-0.105050	0.464028
C96	C	1.589177	0.394950	0.964028
H97	H	1.246907	0.140840	0.000120
H98	H	1.746907	0.640840	0.500120
Cl99	Cl	0.897352	0.484408	0.000050
Cl100	Cl	1.397352	0.984408	0.500050
Cl101	Cl	0.947328	-0.220944	0.195904
Cl102	Cl	1.447328	0.279056	0.695904
H103	H	1.203180	-0.011896	0.634394
H104	H	1.703180	0.488104	1.134394
H105	H	0.931441	0.649055	0.000065
H106	H	1.431441	1.149055	0.500065
Cl107	Cl	1.231028	0.010843	0.804273
Cl108	Cl	1.731028	0.510843	1.304273
H109	H	1.244114	0.284056	0.000108
H110	H	1.744114	0.784056	0.500108
Cl111	Cl	1.230976	0.010860	0.384274
Cl112	Cl	1.730976	0.510860	0.884274
Cl113	Cl	0.947397	-0.220971	0.804267
Cl114	Cl	1.447397	0.279029	1.304267
H115	H	0.975200	-0.198220	0.634392
H116	H	1.475200	0.301780	1.134392
H117	H	0.941980	0.108501	0.000072
H118	H	1.441980	0.608501	0.500072
H119	H	1.239159	0.538166	0.000105
H120	H	1.739159	1.038166	0.500105
H121	H	0.975176	-0.198204	0.365787
H122	H	1.475176	0.301796	0.865787
H123	H	1.236367	0.681395	0.000099
H124	H	1.736367	1.181395	0.500099
H125	H	0.939195	0.251731	0.000065
H126	H	1.439195	0.751731	0.500065
H127	H	1.203144	-0.011881	0.214398
H128	H	1.703144	0.488119	0.714398
