data_functionalizedCrystal
_audit_creation_method	'MofGen! by Chris Wilmer'
_symmetry_space_group_name_H-M	'P1'
_symmetry_Int_Tables_number	1
_symmetry_cell_setting	triclinic
loop_
_symmetry_equiv_pos_as_xyz
  x,y,z
_cell_length_a	16.109301
_cell_length_b	13.339070
_cell_length_c	14.586319
_cell_angle_alpha	89.998714
_cell_angle_beta	89.999213
_cell_angle_gamma	99.545388
loop_
_atom_site_label
_atom_site_type_symbol
_atom_site_fract_x
_atom_site_fract_y
_atom_site_fract_z
O1	O	1.133153	0.130021	-0.076178
O2	O	0.894827	0.146201	-0.076192
O3	O	0.986638	-0.009144	-0.076184
O4	O	1.041342	0.285365	-0.076186
O5	O	0.986629	-0.009146	0.076297
O6	O	0.894818	0.146199	0.076289
O7	O	1.133144	0.130018	0.076303
Cu8	Cu	1.013980	0.138108	0.090219
Cu9	Cu	1.013991	0.138111	-0.090107
O10	O	1.041333	0.285363	0.076295
C11	C	0.863697	0.145545	0.000047
C12	C	0.770947	0.143580	0.000041
C13	C	0.568905	0.231189	0.000051
C14	C	0.481756	0.229335	0.000057
C15	C	0.459072	0.045023	0.000055
C16	C	0.546219	0.046879	0.000055
C17	C	0.601133	0.139965	0.000049
C18	C	0.426838	0.136255	0.000054
C19	C	0.332347	0.134244	0.000061
C20	C	0.695630	0.141976	0.000044
C21	C	0.977393	-0.046831	0.000055
C22	C	0.949849	-0.159124	0.000050
C23	C	1.164017	-0.523987	0.000063
C24	C	1.189898	-0.418483	0.000073
C25	C	1.129888	-0.353638	0.000067
C26	C	1.043992	-0.394307	0.000051
C27	C	1.018108	-0.499822	0.000048
C28	C	0.983979	-0.329473	0.000052
C29	C	0.898083	-0.370142	0.000037
C30	C	0.872203	-0.475647	0.000033
C31	C	0.932213	-0.540492	0.000039
C32	C	1.009863	-0.223958	0.000055
C33	C	0.863954	-0.199793	0.000041
C34	C	0.838073	-0.305297	0.000030
C35	C	1.164275	0.130675	0.000063
C36	C	1.257024	0.132640	0.000062
C37	C	1.050578	0.323050	0.000054
C38	C	1.078122	0.435343	0.000054
N39	N	1.013978	0.138106	0.217051
N40	N	1.013998	0.138106	-0.216939
C41	C	1.054656	0.069342	0.452061
C42	C	1.054658	0.069340	0.548042
C43	C	0.973315	0.206873	0.548044
C44	C	0.973308	0.206870	0.452065
C45	C	1.013984	0.138105	0.404075
C46	C	1.013992	0.138106	0.596036
C47	C	1.013994	0.138104	0.700103
C48	C	1.013981	0.138106	0.300002
H49	H	0.455520	0.303619	0.000061
H50	H	1.150966	-0.267732	0.000075
O51	O	1.273341	-0.379031	-0.000076
C52	C	1.405987	-0.367457	-0.079024
C53	C	1.311493	-0.412183	-0.078980
H54	H	1.436865	-0.394259	-0.142802
H55	H	1.414234	-0.280905	-0.079078
H56	H	1.436832	-0.394152	-0.015179
H57	H	1.280587	-0.385565	-0.142815
H58	H	1.303307	-0.498729	-0.078879
O59	O	0.788732	-0.514987	-0.000014
C60	C	0.646742	-0.479880	0.000032
C61	C	0.741245	-0.435195	0.000062
H62	H	0.608322	-0.415391	0.000113
H63	H	0.630933	-0.528634	-0.063797
H64	H	0.631010	-0.528710	0.063829
H65	H	0.757043	-0.386320	-0.063692
H66	H	0.757004	-0.386500	0.063933
O67	O	1.222270	-0.587018	-0.000090
C68	C	1.277691	-0.720222	-0.079042
C69	C	1.211683	-0.648879	-0.078997
H70	H	1.269142	-0.770269	-0.142821
H71	H	1.343551	-0.673088	-0.079093
H72	H	1.269208	-0.770174	-0.015198
H73	H	1.220087	-0.598911	-0.142829
H74	H	1.145847	-0.696072	-0.078898
H75	H	0.911145	-0.626403	0.000027
O76	O	1.093306	-0.184506	-0.000100
C77	C	1.225946	-0.172937	-0.079060
C78	C	1.131452	-0.217663	-0.079006
H79	H	1.256818	-0.199744	-0.142839
H80	H	1.234192	-0.086386	-0.079118
H81	H	1.256796	-0.199628	-0.015216
H82	H	1.100540	-0.191050	-0.142839
H83	H	1.123266	-0.304210	-0.078899
H84	H	1.087775	0.013349	0.412990
H85	H	0.613614	0.306986	0.000053
H86	H	0.815089	-0.146996	0.000040
H87	H	0.414350	-0.030764	0.000066
O88	O	0.577391	-0.041836	0.000011
C89	C	0.545702	-0.224844	0.000065
C90	C	0.510287	-0.124458	0.000089
H91	H	0.491466	-0.291670	0.000147
H92	H	0.585907	-0.228648	-0.063761
H93	H	0.585963	-0.228526	0.063865
H94	H	0.469989	-0.120709	-0.063667
H95	H	0.470129	-0.120695	0.063958
O96	O	0.754626	-0.344762	-0.000142
C97	C	0.621999	-0.356346	-0.079127
C98	C	0.716490	-0.311604	-0.079055
H99	H	0.591135	-0.329539	-0.142911
H100	H	0.613764	-0.442897	-0.079188
H101	H	0.591133	-0.329669	-0.015288
H102	H	0.747417	-0.338204	-0.142883
H103	H	0.724665	-0.225058	-0.078945
H104	H	1.087775	0.013345	0.587109
H105	H	0.940199	0.262860	0.587127
H106	H	0.940184	0.262865	0.412992
