data_functionalizedCrystal
_audit_creation_method	'MofGen! by Chris Wilmer'
_symmetry_space_group_name_H-M	'P1'
_symmetry_Int_Tables_number	1
_symmetry_cell_setting	triclinic
loop_
_symmetry_equiv_pos_as_xyz
  x,y,z
_cell_length_a	17.699077
_cell_length_b	16.974813
_cell_length_c	16.776229
_cell_angle_alpha	86.338786
_cell_angle_beta	89.993415
_cell_angle_gamma	83.338069
loop_
_atom_site_label
_atom_site_type_symbol
_atom_site_fract_x
_atom_site_fract_y
_atom_site_fract_z
O1	O	1.004154	0.099970	-0.072725
O2	O	0.783784	0.112984	-0.073568
O3	O	0.900112	-0.008639	-0.065717
O4	O	0.887826	0.221592	-0.080577
O5	O	0.900096	-0.008646	0.066860
O6	O	0.783769	0.112976	0.059009
O7	O	1.004138	0.099962	0.059852
Zn8	Zn	0.893951	0.106468	0.080480
Zn9	Zn	0.893971	0.106478	-0.094196
O10	O	0.887810	0.221585	0.052000
C11	C	0.755579	0.112514	-0.007250
C12	C	0.671560	0.111118	-0.007162
C13	C	0.632083	0.110456	0.065149
C14	C	0.553140	0.109131	0.065236
C15	C	0.513673	0.108474	-0.006990
C16	C	0.553155	0.109134	-0.079307
C17	C	0.632098	0.110453	-0.079392
C18	C	0.234788	0.103813	-0.078965
C19	C	0.155840	0.102496	-0.078874
C20	C	0.155830	0.102491	0.065663
C21	C	0.234773	0.103810	0.065578
C22	C	0.274248	0.104465	-0.006738
C23	C	0.359848	0.105900	-0.006831
C24	C	0.428074	0.107045	-0.006899
C25	C	0.899637	-0.038100	0.002471
C26	C	0.898235	-0.125875	0.008131
C27	C	0.897586	-0.167103	-0.061477
C28	C	0.896264	-0.249575	-0.056157
C29	C	0.895595	-0.290819	0.018773
C30	C	0.896242	-0.249585	0.088386
C31	C	0.897559	-0.167113	0.083065
C32	C	0.891651	-0.537474	0.042437
C33	C	0.890336	-0.619951	0.047754
C34	C	0.890357	-0.619936	-0.096790
C35	C	0.891678	-0.537463	-0.102105
C36	C	0.892321	-0.496236	-0.032491
N37	N	0.894246	-0.375120	0.024213
N38	N	0.893664	-0.411936	-0.037933
C39	C	1.032343	0.100431	-0.006468
C40	C	1.116363	0.101828	-0.006562
C41	C	0.888286	0.251046	-0.016189
C42	C	0.889688	0.338820	-0.021855
N43	N	0.893943	0.106461	0.199691
N44	N	0.893986	0.106479	-0.213408
C45	C	0.945468	0.052628	0.244884
C46	C	0.945472	0.052628	0.328336
C47	C	0.893954	0.106464	0.366594
C48	C	0.842423	0.160299	0.321396
C49	C	0.842416	0.160295	0.237945
C50	C	0.842450	0.160314	0.657942
C51	C	0.842463	0.160316	0.741398
C52	C	0.945507	0.052647	0.748332
C53	C	0.945500	0.052643	0.664882
C54	C	0.893966	0.106475	0.619691
C55	C	0.893962	0.106474	0.529203
C56	C	0.893962	0.106469	0.457080
H57	H	0.664239	0.110994	-0.138275
C58	C	0.711354	0.206895	0.344114
C59	C	0.785790	0.219472	0.363451
H60	H	0.676392	0.243424	0.370082
H61	H	0.703979	0.214602	0.287953
H62	H	0.703208	0.154130	0.361207
H63	H	0.793938	0.272235	0.346352
H64	H	0.793168	0.211772	0.419624
H65	H	0.521016	0.108593	-0.138114
H66	H	0.889833	-0.653512	-0.153465
H67	H	0.889788	-0.653529	0.108773
C68	C	0.894229	-0.376016	0.160724
C69	C	0.895514	-0.294919	0.170751
H70	H	0.893787	-0.404001	0.211575
H71	H	0.849903	-0.383414	0.131516
H72	H	0.938133	-0.395632	0.132292
H73	H	0.851606	-0.275301	0.199178
H74	H	0.939844	-0.287516	0.199972
C75	C	0.267654	0.036259	0.193132
C76	C	0.278155	0.104528	0.144970
H77	H	0.294440	0.036699	0.242144
H78	H	0.214995	0.035385	0.203530
H79	H	0.286419	-0.009608	0.166386
H80	H	0.259385	0.150395	0.171713
H81	H	0.330825	0.105409	0.134573
H82	H	0.895739	-0.283140	-0.112839
H83	H	0.892224	-0.503888	-0.163120
H84	H	0.987428	0.008793	0.365131
H85	H	0.898076	-0.133545	0.139747
H86	H	0.800508	0.204157	0.772546
C87	C	0.891540	-0.545791	0.185844
C88	C	0.892388	-0.492168	0.118956
H89	H	0.892008	-0.517818	0.233085
H90	H	0.846909	-0.571832	0.184532
H91	H	0.935139	-0.584081	0.185284
H92	H	0.848787	-0.453881	0.119513
H93	H	0.937024	-0.466113	0.120269
C94	C	0.796686	0.208132	0.526946
C95	C	0.785818	0.219498	0.608273
H96	H	0.761721	0.244672	0.496282
H97	H	0.847181	0.216645	0.512714
H98	H	0.788511	0.155372	0.516686
H99	H	0.793998	0.272257	0.618534
H100	H	0.735310	0.210991	0.622511
C101	C	0.034813	0.100452	0.129986
C102	C	0.112437	0.101756	0.145157
H103	H	0.008028	0.099995	0.179062
H104	H	0.016057	0.146326	0.097337
H105	H	0.027711	0.054142	0.103281
H106	H	0.119540	0.148070	0.171857
H107	H	0.131200	0.055878	0.177819
H108	H	0.898134	-0.133528	-0.122493
H109	H	0.123708	0.101960	-0.137693
H110	H	0.800458	0.204130	0.201150
C111	C	0.226857	0.103686	-0.221827
C112	C	0.278173	0.104537	-0.158453
H113	H	0.253644	0.104138	-0.270902
H114	H	0.201888	0.057085	-0.215809
H115	H	0.190244	0.149269	-0.221756
H116	H	0.314782	0.058951	-0.158521
H117	H	0.303155	0.151143	-0.164474
H118	H	0.987424	0.008792	0.213739
C119	C	0.472961	0.039683	0.153579
C120	C	0.509756	0.108394	0.144727
H121	H	0.446184	0.039223	0.202660
H122	H	0.438156	0.039108	0.110587
H123	H	0.509593	-0.005884	0.153506
H124	H	0.473123	0.153961	0.144795
H125	H	0.544564	0.108976	0.187731
H126	H	0.987453	0.008807	0.633735
C127	C	0.962060	-0.054995	0.849129
C128	C	1.002147	-0.006537	0.798010
H129	H	0.997028	-0.091533	0.879792
H130	H	0.931386	-0.022934	0.883853
H131	H	0.930589	-0.083394	0.818406
H132	H	1.033614	0.021867	0.828733
H133	H	1.032834	-0.038602	0.763282
H134	H	0.664210	0.110997	0.123964
