data_functionalizedCrystal
_audit_creation_method	'MofGen! by Chris Wilmer'
_symmetry_space_group_name_H-M	'P1'
_symmetry_Int_Tables_number	1
_symmetry_cell_setting	triclinic
loop_
_symmetry_equiv_pos_as_xyz
  x,y,z
_cell_length_a	16.992701
_cell_length_b	15.944493
_cell_length_c	16.053802
_cell_angle_alpha	92.571009
_cell_angle_beta	87.243340
_cell_angle_gamma	87.071107
loop_
_atom_site_label
_atom_site_type_symbol
_atom_site_fract_x
_atom_site_fract_y
_atom_site_fract_z
O1	O	1.043674	0.174786	-0.069418
O2	O	0.815389	0.172834	-0.069418
O3	O	0.935789	0.051951	-0.069425
O4	O	0.923273	0.295669	-0.069411
O5	O	0.929162	0.058576	0.069434
O6	O	0.808762	0.179459	0.069441
O7	O	1.037047	0.181411	0.069442
Zn8	Zn	0.921852	0.181486	0.091488
Zn9	Zn	0.930584	0.172758	-0.091465
O10	O	0.916646	0.302294	0.069448
C11	C	0.782863	0.173633	0.000011
C12	C	0.695820	0.166134	0.000010
C13	C	0.206868	0.115745	0.000004
C14	C	0.288653	0.122798	0.000010
C15	C	0.320185	0.202217	0.000011
C16	C	0.269927	0.274589	0.000014
C17	C	0.188143	0.267535	0.000015
C18	C	0.563778	0.231451	0.000015
C19	C	0.645568	0.238499	0.000012
C20	C	0.664289	0.086708	0.000009
C21	C	0.582503	0.079661	0.000004
C22	C	0.532252	0.152033	0.000012
N23	N	0.403783	0.209429	0.000014
N24	N	0.448655	0.144821	0.000015
C25	C	0.931965	0.023934	0.000001
C26	C	0.930431	-0.069418	-0.000009
C27	C	1.001301	-0.300424	0.000007
C28	C	0.966351	-0.356821	-0.068458
C29	C	0.927589	-0.240329	0.000001
C30	C	0.959800	-0.350267	0.068447
C31	C	0.924849	-0.405421	0.000014
C32	C	0.892662	-0.295499	-0.068520
C33	C	0.886119	-0.288938	0.068446
C34	C	0.851115	-0.345307	-0.000035
C35	C	0.929170	-0.145223	-0.000008
C36	C	0.923263	-0.500525	0.000017
C37	C	1.069573	0.180612	0.000010
C38	C	1.156616	0.188111	0.000006
C39	C	0.920471	0.330310	0.000020
C40	C	0.922005	0.423662	0.000026
N41	N	0.915899	0.187443	0.216349
N42	N	0.936543	0.166796	-0.216325
C43	C	0.967148	0.136028	0.260040
C44	C	0.962991	0.140203	0.347447
C45	C	0.907588	0.195798	0.391161
C46	C	0.856333	0.247215	0.347464
C47	C	0.860487	0.243035	0.260059
C48	C	0.889442	0.214033	0.652572
C49	C	0.885294	0.218211	0.739984
C50	C	0.991951	0.111197	0.739960
C51	C	0.996104	0.107025	0.652553
C52	C	0.944846	0.158439	0.608864
N53	N	0.903339	0.200069	0.480505
N54	N	0.949092	0.154164	0.519521
H55	H	0.522872	0.290381	0.000017
C56	C	0.804934	0.299004	0.212663
C57	C	0.816636	0.383425	0.233897
C58	C	0.765479	0.435006	0.190246
H59	H	0.751895	0.287131	0.226965
H60	H	0.815346	0.288607	0.154339
H61	H	0.806220	0.393817	0.292208
H62	H	0.869665	0.395324	0.219593
H63	H	0.775891	0.424610	0.131922
H64	H	0.712443	0.423126	0.204551
H65	H	0.773417	0.492292	0.204641
H66	H	0.556836	0.014990	0.000004
H67	H	1.004721	0.098336	0.383020
H68	H	0.181202	0.051073	-0.000001
H69	H	1.041217	0.061756	0.616963
H70	H	0.705212	0.027788	0.000003
H71	H	0.295606	0.339254	0.000020
H72	H	1.000243	-0.386441	-0.126340
H73	H	0.852253	-0.259301	0.126330
C74	C	0.679650	0.324809	0.000058
C75	C	0.618137	0.386681	0.000087
C76	C	0.649504	0.466194	0.000138
H77	H	0.713461	0.328522	-0.048355
H78	H	0.708835	0.333068	0.048498
H79	H	0.588966	0.378425	-0.048348
H80	H	0.584322	0.382995	0.048496
H81	H	0.678688	0.474453	0.048579
H82	H	0.683314	0.469898	-0.048275
H83	H	0.607772	0.508184	0.000166
H84	H	0.864315	-0.271530	-0.126463
C85	C	1.047463	0.055269	0.787443
C86	C	1.003318	0.003407	0.837617
C87	C	1.054428	-0.048137	0.881362
H88	H	1.078494	0.089230	0.821600
H89	H	1.081041	0.021510	0.748918
H90	H	0.969754	0.037163	0.876137
H91	H	0.972290	-0.030571	0.803481
H92	H	1.088006	-0.081897	0.842837
H93	H	1.085456	-0.014170	0.915514
H94	H	1.024484	-0.083337	0.915404
C95	C	0.766386	-0.371581	-0.000253
C96	C	0.731590	-0.343742	-0.072064
C97	C	0.653544	-0.367942	-0.072302
H98	H	0.737631	-0.347359	0.047865
H99	H	0.765806	-0.431112	0.000165
H100	H	0.732165	-0.284224	-0.072474
H101	H	0.760322	-0.367961	-0.120194
H102	H	0.652964	-0.427473	-0.071885
H103	H	0.624796	-0.343718	-0.024181
H104	H	0.629927	-0.349064	-0.121029
C105	C	0.997767	-0.382268	0.145596
C106	C	1.076332	-0.359705	0.145271
C107	C	1.111335	-0.389158	0.216329
H108	H	0.996156	-0.441739	0.145382
H109	H	0.969832	-0.358066	0.194238
H110	H	1.104259	-0.383910	0.096642
H111	H	1.077965	-0.300238	0.145498
H112	H	1.083401	-0.364955	0.264970
H113	H	1.109719	-0.448628	0.216107
H114	H	1.164643	-0.373846	0.216121
C115	C	1.027330	0.075581	0.212734
C116	C	1.071306	0.031432	0.269709
C117	C	1.126745	-0.024270	0.226164
H118	H	1.061659	0.106283	0.178624
H119	H	1.000770	0.037029	0.178664
H120	H	1.097864	0.069978	0.303765
H121	H	1.036999	0.000713	0.303821
H122	H	1.100186	-0.062822	0.192095
H123	H	1.161068	0.006439	0.192056
H124	H	1.156585	-0.054238	0.264815
H125	H	0.840176	0.263486	0.775572
C126	C	0.833755	0.269957	0.605296
C127	C	0.784365	0.319555	0.662290
C128	C	0.733062	0.371093	0.618766
H129	H	0.802666	0.235993	0.571207
H130	H	0.863551	0.305250	0.571207
H131	H	0.754572	0.284266	0.696365
H132	H	0.815433	0.353535	0.696381
H133	H	0.762858	0.406386	0.584677
H134	H	0.701978	0.337123	0.584679
H135	H	0.699549	0.404757	0.657430
C136	C	0.796054	0.307466	0.394881
C137	C	0.720020	0.287589	0.373657
C138	C	0.664471	0.343067	0.417329
H139	H	0.805127	0.363451	0.380588
H140	H	0.800868	0.302584	0.453202
H141	H	0.715208	0.292478	0.315350
H142	H	0.710922	0.231614	0.387953
H143	H	0.669285	0.338186	0.475649
H144	H	0.673551	0.399049	0.403032
H145	H	0.612875	0.329584	0.402940
C146	C	0.343180	0.044189	-0.000166
C147	C	0.332358	-0.006711	-0.071619
C148	C	0.382580	-0.079132	-0.071813
H149	H	0.331357	0.014061	0.048199
H150	H	0.396418	0.059721	-0.000207
H151	H	0.279132	-0.022245	-0.071571
H152	H	0.344187	0.023391	-0.119995
H153	H	0.435819	-0.063599	-0.071854
H154	H	0.370753	-0.109253	-0.023446
H155	H	0.375250	-0.113673	-0.120297
C156	C	0.133713	0.346202	-0.000030
C157	C	0.178830	0.417263	-0.000053
C158	C	0.128718	0.489747	-0.000102
H159	H	0.099092	0.349036	0.048381
H160	H	0.103742	0.344338	-0.048472
H161	H	0.208787	0.419127	0.048384
H162	H	0.213449	0.414457	-0.048460
H163	H	0.098748	0.487883	-0.048545
H164	H	0.094100	0.492573	0.048309
H165	H	0.159323	0.537970	-0.000126
H166	H	1.064798	-0.280541	-0.000062
