data_functionalizedCrystal
_audit_creation_method	'MofGen! by Chris Wilmer'
_symmetry_space_group_name_H-M	'P1'
_symmetry_Int_Tables_number	1
_symmetry_cell_setting	triclinic
loop_
_symmetry_equiv_pos_as_xyz
  x,y,z
_cell_length_a	8.497374
_cell_length_b	18.215407
_cell_length_c	18.215399
_cell_angle_alpha	90.019833
_cell_angle_beta	89.988708
_cell_angle_gamma	89.998459
loop_
_atom_site_label
_atom_site_type_symbol
_atom_site_fract_x
_atom_site_fract_y
_atom_site_fract_z
Zn1	Zn	0.628053	1.125194	0.416201
Zn2	Zn	0.891875	1.125153	0.293171
Zn3	Zn	0.628105	1.002126	0.293148
Zn4	Zn	0.891787	1.002143	0.416195
O5	O	0.759955	1.063654	0.354679
O6	O	0.663065	1.228173	0.399892
O7	O	0.856944	1.108809	0.190183
O8	O	0.407336	1.018461	0.309465
O9	O	0.856894	1.228143	0.309502
O10	O	0.407298	1.108878	0.399871
O11	O	0.663153	1.018422	0.190167
O12	O	0.663068	0.899144	0.309459
O13	O	0.856744	1.018490	0.519181
O14	O	0.856794	0.899157	0.399861
O15	O	0.662980	1.108895	0.519185
O16	O	1.112626	1.108826	0.309497
O17	O	1.112561	1.018451	0.399883
C18	C	0.759928	0.872448	0.354658
C19	C	0.759955	0.790649	0.354666
C20	C	0.860986	0.602481	0.401680
C21	C	0.860991	0.525622	0.401689
C22	C	0.658952	0.525579	0.307694
C23	C	0.658941	0.602437	0.307689
C24	C	0.759967	0.640885	0.354681
C25	C	0.759983	0.487169	0.354695
C26	C	0.759988	0.403836	0.354705
C27	C	0.759960	0.724224	0.354673
C28	C	1.169835	1.063645	0.354690
C29	C	1.348479	1.063664	0.354677
C30	C	0.759846	1.063699	0.546632
C31	C	0.759800	1.063718	0.628431
C32	C	0.759983	1.255607	0.354701
C33	C	0.759995	1.337406	0.354710
C34	C	0.759950	1.063652	0.163473
C35	C	0.759552	1.063775	0.081674
C36	C	0.658813	1.110809	0.816628
C37	C	0.658767	1.110817	0.893487
C38	C	0.860543	1.016679	0.893471
C39	C	0.860580	1.016667	0.816614
C40	C	0.759717	1.063736	0.778194
C41	C	0.759634	1.063757	0.931911
C42	C	0.759585	1.063766	1.015244
C43	C	0.759764	1.063726	0.694855
H44	H	0.576703	0.494265	0.269434
H45	H	0.942666	0.978359	0.924762
C46	C	1.060049	0.923620	0.824313
C47	C	0.971510	0.964924	0.774362
H48	H	1.128531	0.891681	0.798226
H49	H	0.991303	0.895476	0.854282
H50	H	1.120378	0.955695	0.854298
H51	H	0.911171	0.932850	0.744379
H52	H	1.040265	0.993071	0.744380
C53	C	0.459239	0.594681	0.214770
C54	C	0.547896	0.644657	0.256022
H55	H	0.390694	0.620748	0.182873
H56	H	0.398985	0.564717	0.246875
H57	H	0.527918	0.564692	0.186576
H58	H	0.479217	0.674642	0.284220
H59	H	0.608155	0.674633	0.223913
C60	C	0.391691	1.146652	0.792969
C61	C	0.547929	1.162538	0.774397
H62	H	0.323233	1.178585	0.766895
H63	H	0.377242	1.153397	0.844238
H64	H	0.368633	1.097202	0.780359
H65	H	0.570990	1.211987	0.787012
H66	H	0.562384	1.155799	0.723117
C67	C	1.060675	0.594800	0.494597
C68	C	0.972015	0.644744	0.453340
H69	H	1.129209	0.620892	0.526495
H70	H	1.120941	0.564814	0.462496
H71	H	0.991998	0.564831	0.522790
H72	H	1.040691	0.674710	0.425143
H73	H	0.911744	0.674743	0.485445
C74	C	0.883192	0.439240	0.500677
C75	C	0.972038	0.483408	0.453351
H76	H	0.951752	0.413184	0.532576
H77	H	0.823051	0.405343	0.472693
H78	H	0.814537	0.469244	0.528868
H79	H	1.040686	0.453404	0.425156
H80	H	1.032206	0.517310	0.481338
C81	C	0.446501	1.121059	0.979904
C82	C	0.547841	1.162560	0.935730
H83	H	0.378008	1.153004	1.005978
H84	H	0.506562	1.093041	1.013786
H85	H	0.386185	1.088993	0.949903
H86	H	0.608166	1.194622	0.965732
H87	H	0.487773	1.190590	0.901844
