data_functionalizedCrystal
_audit_creation_method	'MofGen! by Chris Wilmer'
_symmetry_space_group_name_H-M	'P1'
_symmetry_Int_Tables_number	1
_symmetry_cell_setting	triclinic
loop_
_symmetry_equiv_pos_as_xyz
  x,y,z
_cell_length_a	14.628931
_cell_length_b	14.628931
_cell_length_c	14.628931
_cell_angle_alpha	60.000193
_cell_angle_beta	90.000000
_cell_angle_gamma	59.999807
loop_
_atom_site_label
_atom_site_type_symbol
_atom_site_fract_x
_atom_site_fract_y
_atom_site_fract_z
Zr1	Zr	0.880618	1.000576	-0.119958
O2	O	0.734657	1.191281	-0.265918
O3	O	0.925363	0.809870	-0.075213
O4	O	0.925363	1.000575	-0.265918
O5	O	0.734656	1.000577	0.075218
O6	O	1.075795	1.000575	-0.265918
O7	O	0.734657	1.000576	-0.075213
O8	O	1.075795	0.659438	0.075218
O9	O	0.734656	1.341713	-0.265918
O10	O	1.056712	0.888310	-0.056130
O11	O	0.944446	0.888310	0.056135
O12	O	0.944446	1.112841	-0.168395
O13	O	0.832180	1.112842	-0.056130
Zr14	Zr	1.120539	1.000576	0.119964
Zr15	Zr	1.120540	1.000575	-0.119957
Zr16	Zr	0.880617	1.000576	0.119963
Zr17	Zr	0.880617	1.240497	-0.119957
Zr18	Zr	1.120540	0.760654	0.119963
O19	O	1.075794	1.191281	0.075219
O20	O	1.075795	1.191280	-0.265918
O21	O	0.734656	1.191282	0.075219
O22	O	1.266500	0.809870	0.265924
O23	O	1.266501	0.809869	-0.075213
O24	O	0.925362	0.809871	0.265924
O25	O	1.266501	1.000575	-0.075213
O26	O	1.075794	1.000576	0.265924
O27	O	0.925362	1.000577	0.265924
O28	O	1.266500	1.000575	0.075219
O29	O	0.925362	1.341713	-0.265918
O30	O	1.075795	0.659439	0.265924
O31	O	1.266501	0.659438	0.265924
O32	O	1.266501	0.659438	0.075219
O33	O	0.734656	1.341714	-0.075213
O34	O	0.925362	1.341713	-0.075213
O35	O	1.056711	0.888310	0.168401
O36	O	1.168977	0.888310	0.056136
O37	O	1.056711	1.112841	-0.056130
O38	O	0.944445	1.112842	0.056136
C39	C	1.000579	0.700470	0.000002
C40	C	1.000579	0.598617	0.000002
C41	C	1.056269	0.447943	-0.055688
C42	C	1.056270	0.553213	-0.055689
C43	C	0.700473	1.000576	0.000002
C44	C	0.598620	1.000577	0.000002
C45	C	0.608902	0.889194	0.055693
C46	C	0.503633	0.889192	0.055695
C47	C	1.300684	1.000575	0.000003
C48	C	1.402537	1.000574	0.000003
C49	C	1.000579	1.000575	-0.300102
C50	C	1.000579	1.000574	-0.401955
C51	C	1.000578	1.300681	0.000003
C52	C	1.000578	1.402534	0.000003
C53	C	0.944888	1.111957	-0.503055
C54	C	0.944886	1.111959	-0.608327
C55	C	1.000578	1.000576	0.300108
C56	C	1.000578	1.000577	0.401961
C57	C	1.300685	0.700469	0.000003
C58	C	1.402538	0.598616	0.000003
C59	C	1.000578	0.700471	0.300107
C60	C	1.000578	0.598619	0.401960
C61	C	1.300684	0.700470	0.300108
C62	C	1.402537	0.598617	0.401961
C63	C	0.700473	1.300681	-0.300102
C64	C	0.598620	1.402534	-0.401955
C65	C	0.700472	1.300682	0.000003
C66	C	0.598619	1.402535	0.000003
C67	C	1.000578	1.300680	-0.300101
C68	C	1.000578	1.402533	-0.401954
C69	C	1.392256	0.553207	-0.055688
C70	C	1.497525	0.447936	-0.055690
C71	C	1.056270	0.553209	0.503060
C72	C	1.056271	0.447939	0.608332
C73	C	1.503638	0.553208	0.391678
C74	C	1.608910	0.447937	0.496947
H75	H	0.952894	0.441598	0.047676
C76	C	0.936161	0.545871	0.064420
N77	N	0.887639	0.506137	0.112937
C78	C	1.275080	0.605960	-0.120094
N79	N	1.186823	0.645688	-0.168601
C80	C	1.485863	0.395179	-0.120102
N81	N	1.477080	0.355441	-0.168619
C82	C	0.880484	1.240785	-0.514708
N83	N	0.831976	1.337822	-0.523487
C84	C	1.610291	0.455283	0.064415
N85	N	1.619074	0.495026	0.112929
C86	C	1.515291	0.605966	0.274503
N87	N	1.524071	0.645699	0.186246
H88	H	1.489275	0.559562	0.047677
C89	C	1.120686	0.605968	0.514713
N90	N	1.169209	0.645703	0.523493
C91	C	1.120688	0.395185	0.725500
N92	N	1.169208	0.355449	0.813756
H93	H	0.952904	0.441574	0.511318
H94	H	1.695640	0.408882	0.488318
H95	H	0.511883	1.095934	-0.047674
H96	H	0.952895	0.559565	0.393340
C97	C	0.390867	1.129410	-0.064415
N98	N	0.382083	1.226449	-0.112933
C99	C	0.880471	1.240790	-0.725495
N100	N	0.831953	1.337829	-0.813750
C101	C	1.481457	0.455282	0.609713
N102	N	1.393201	0.495021	0.618496
H103	H	1.103955	0.592258	-0.103363
H104	H	0.695639	0.793837	0.103377
H105	H	1.103944	0.408891	-0.103372
H106	H	1.048254	0.905213	-0.511313
C107	C	1.064992	0.871746	-0.390302
N108	N	1.113508	0.774709	-0.381523
H109	H	0.512261	0.793833	0.103366
H110	H	1.393917	0.559564	0.488697
