data_functionalizedCrystal
_audit_creation_method	'MofGen! by Chris Wilmer'
_symmetry_space_group_name_H-M	'P1'
_symmetry_Int_Tables_number	1
_symmetry_cell_setting	triclinic
loop_
_symmetry_equiv_pos_as_xyz
  x,y,z
_cell_length_a	10.868271
_cell_length_b	13.339070
_cell_length_c	13.339071
_cell_angle_alpha	64.370714
_cell_angle_beta	90.002839
_cell_angle_gamma	89.995583
loop_
_atom_site_label
_atom_site_type_symbol
_atom_site_fract_x
_atom_site_fract_y
_atom_site_fract_z
O1	O	0.102360	-1.496807	0.550527
O2	O	0.102353	-1.181997	0.478267
O3	O	0.102351	-1.303272	0.356992
O4	O	0.102362	-1.375532	0.671802
O5	O	-0.102294	-1.303257	0.356982
O6	O	-0.102291	-1.181982	0.478257
O7	O	-0.102285	-1.496791	0.550517
Zn8	Zn	-0.134780	-1.339384	0.514385
Zn9	Zn	0.134848	-1.339405	0.514399
O10	O	-0.102282	-1.375516	0.671791
C11	C	0.000030	-1.140874	0.466056
C12	C	0.000028	-1.018360	0.429672
N13	N	-0.318794	-1.339378	0.514377
C14	C	0.000029	-1.291058	0.315872
C15	C	0.000033	-1.254675	0.193358
C16	C	-0.569800	-1.339398	0.514395
C17	C	-0.430122	-1.339384	0.514387
N18	N	0.318862	-1.339417	0.514400
C19	C	0.000041	-1.537914	0.562728
C20	C	0.000052	-1.660428	0.599111
C21	C	0.000058	-0.732973	0.712571
C22	C	0.000064	-0.848081	0.746759
C23	C	0.000054	-0.890657	0.667490
C24	C	0.000040	-0.818112	0.554028
C25	C	0.000043	-0.702992	0.519837
C26	C	0.000040	-0.860676	0.474756
C27	C	0.000025	-0.788132	0.361294
C28	C	0.000027	-0.673023	0.327108
C29	C	0.000037	-0.630448	0.406377
C30	C	0.000036	-0.975796	0.508947
C31	C	0.000022	-0.945816	0.316212
C32	C	0.000015	-0.830707	0.282025
C33	C	0.000042	-1.387730	0.712912
C34	C	0.000047	-1.424114	0.835426
C35	C	0.000053	-1.537574	0.907970
C36	C	0.000046	-1.571761	1.023079
C37	C	0.000043	-1.492492	1.065654
C38	C	0.000046	-1.379030	0.993110
C39	C	0.000043	-1.344839	0.877990
C40	C	0.000033	-1.299758	1.035674
C41	C	0.000036	-1.186296	0.963129
C42	C	0.000034	-1.152111	0.848021
C43	C	0.000037	-1.231380	0.805445
C44	C	0.000036	-1.333949	1.150794
C45	C	0.000027	-1.141215	1.120813
C46	C	0.000033	-1.107027	1.005705
H47	H	0.000043	-1.034852	0.601328
H48	H	0.000062	-0.984384	0.695332
H49	H	0.000042	-1.664142	1.082137
H50	H	0.000045	-1.602102	0.873293
H51	H	0.000076	-0.698296	0.777099
H52	H	0.000029	-0.613959	0.234720
H53	H	0.000085	-0.907139	0.839139
H54	H	0.000019	-0.980479	0.251665
F55	F	0.000033	-1.454700	1.227988
H56	H	0.000046	-1.203549	0.711716
H57	H	0.000038	-1.520335	1.159382
F58	F	0.000038	-0.986275	0.928485
F59	F	0.000027	-0.507935	0.369997
H60	H	0.000014	-0.771625	0.189642
H61	H	0.000027	-1.059723	0.788957
H62	H	0.000018	-1.076667	1.155477
