data_functionalizedCrystal
_audit_creation_method	'MofGen! by Chris Wilmer'
_symmetry_space_group_name_H-M	'P1'
_symmetry_Int_Tables_number	1
_symmetry_cell_setting	triclinic
loop_
_symmetry_equiv_pos_as_xyz
  x,y,z
_cell_length_a	16.625548
_cell_length_b	16.625546
_cell_length_c	12.645323
_cell_angle_alpha	90.031016
_cell_angle_beta	90.024242
_cell_angle_gamma	90.022327
loop_
_atom_site_label
_atom_site_type_symbol
_atom_site_fract_x
_atom_site_fract_y
_atom_site_fract_z
Zn1	Zn	-1.232696	0.320998	-0.599445
Zn2	Zn	-1.232594	0.455843	-0.422166
Zn3	Zn	-1.097853	0.321028	-0.422185
Zn4	Zn	-1.097828	0.455792	-0.599377
O5	O	-1.165243	0.388415	-0.510793
O6	O	-1.345515	0.338895	-0.575950
O7	O	-1.214689	0.437993	-0.273821
O8	O	-1.115793	0.208191	-0.445735
O9	O	-1.345440	0.437964	-0.445704
O10	O	-1.214861	0.208170	-0.575968
O11	O	-1.115695	0.338945	-0.273835
O12	O	-0.985017	0.338896	-0.445669
O13	O	-1.115750	0.437878	-0.747733
O14	O	-0.984999	0.437907	-0.575851
O15	O	-1.214837	0.338846	-0.747784
O16	O	-1.214664	0.568669	-0.445637
O17	O	-1.115652	0.568631	-0.575833
C18	C	-0.955752	0.388399	-0.510755
C19	C	-0.866131	0.388412	-0.510764
C20	C	-0.537955	0.388410	-0.510796
C21	C	-0.629264	0.388408	-0.510784
C22	C	-0.702040	0.388412	-0.510779
C23	C	-0.793354	0.388409	-0.510769
C24	C	-1.165166	0.597906	-0.510749
C25	C	-1.165207	0.687527	-0.510765
C26	C	-0.375552	0.388427	-0.510822
C27	C	-0.465173	0.388418	-0.510808
C28	C	-1.165302	0.388353	-0.787299
C29	C	-1.165327	0.388326	-0.905129
C30	C	-1.165341	0.178106	-0.510861
C31	C	-1.165383	0.088485	-0.510890
C32	C	-1.165348	1.015703	-0.510876
C33	C	-1.165306	0.924394	-0.510848
C34	C	-1.165277	0.851618	-0.510820
C35	C	-1.165237	0.760304	-0.510793
C36	C	-1.102800	0.450334	-1.072661
C37	C	-1.102963	0.450641	-0.950101
C38	C	-1.250284	0.411387	-0.949649
C39	C	-1.249941	0.411776	-1.072247
C40	C	-1.143702	0.302911	-1.072338
C41	C	-1.141807	0.303423	-0.949731
C42	C	-1.165230	0.388419	-0.235364
C43	C	-1.165361	0.388219	-0.117534
H44	H	-1.039965	0.436211	-0.919999
C45	C	-1.121697	0.534072	-1.113943
C46	C	-1.117779	0.533956	-1.224544
C47	C	-1.135198	0.611077	-1.262610
H48	H	-1.083654	0.571306	-1.086573
H49	H	-1.174226	0.549227	-1.092123
H50	H	-1.065257	0.518811	-1.246355
H51	H	-1.155821	0.496739	-1.251942
H52	H	-1.187727	0.626231	-1.240789
H53	H	-1.097153	0.648304	-1.235232
H54	H	-1.132549	0.611006	-1.337656
C55	C	-1.062615	0.274762	-1.113670
C56	C	-1.072589	0.202881	-1.169914
C57	C	-0.997910	0.176939	-1.208016
H58	H	-1.027103	0.266056	-1.055939
H59	H	-1.040709	0.314630	-1.159114
H60	H	-1.094484	0.163022	-1.124472
H61	H	-1.108088	0.211566	-1.227659
H62	H	-0.976004	0.216806	-1.253460
H63	H	-0.962403	0.168237	-1.150279
H64	H	-1.004668	0.128169	-1.246190
C65	C	-1.121907	0.534980	-0.910943
C66	C	-1.057783	0.563307	-0.849510
C67	C	-1.075207	0.641005	-0.813438
H68	H	-1.169451	0.533797	-0.869341
H69	H	-1.129666	0.569659	-0.969757
H70	H	-1.050034	0.528638	-0.790706
H71	H	-1.010232	0.564510	-0.891090
H72	H	-1.082966	0.675684	-0.872252
H73	H	-1.122752	0.639814	-0.771841
H74	H	-1.031699	0.660238	-0.771760
C75	C	-1.204525	0.241195	-1.110830
C76	C	-1.243040	0.206261	-1.023770
C77	C	-1.299085	0.149420	-1.059193
H78	H	-1.177673	0.200646	-1.150248
H79	H	-1.243280	0.266891	-1.154487
H80	H	-1.204291	0.180565	-0.980130
H81	H	-1.269908	0.246790	-0.984342
H82	H	-1.337840	0.175117	-1.102851
H83	H	-1.272226	0.108877	-1.098612
H84	H	-1.325229	0.125716	-1.000130
C85	C	-1.314143	0.354093	-1.112048
C86	C	-1.314310	0.353994	-1.222771
C87	C	-1.373438	0.300866	-1.259468
H88	H	-1.365320	0.370790	-1.086922
H89	H	-1.302950	0.301414	-1.086971
H90	H	-1.325508	0.406662	-1.247837
H91	H	-1.263147	0.337288	-1.247925
H92	H	-1.362246	0.248187	-1.234391
H93	H	-1.424612	0.317569	-1.234335
H94	H	-1.373555	0.300787	-1.334596
C95	C	-1.058438	0.280099	-0.911086
C96	C	-1.038161	0.204325	-0.951397
C97	C	-0.961364	0.182820	-0.915826
H98	H	-1.058151	0.278257	-0.836009
H99	H	-1.020380	0.318752	-0.934709
H100	H	-1.076209	0.165681	-0.927768
H101	H	-1.038431	0.206147	-1.026470
H102	H	-0.923306	0.221473	-0.939448
H103	H	-0.961084	0.180982	-0.840749
H104	H	-0.947593	0.131409	-0.943179
H105	H	-1.298146	0.367576	-0.920521
C106	C	-1.018479	0.431391	-1.111801
C107	C	-0.964332	0.487744	-1.070424
C108	C	-0.886646	0.470313	-1.106456
H109	H	-1.017433	0.433754	-1.186840
H110	H	-1.003551	0.378978	-1.089252
H111	H	-0.979256	0.540143	-1.092979
H112	H	-0.965352	0.485390	-0.995388
H113	H	-0.871717	0.417900	-1.083907
H114	H	-0.885609	0.472676	-1.181494
H115	H	-0.849896	0.508541	-1.078379
C116	C	-1.275234	0.493716	-0.908942
C117	C	-1.287218	0.545661	-0.994621
C118	C	-1.310208	0.621508	-0.957166
H119	H	-1.234166	0.514684	-0.864537
H120	H	-1.323781	0.488961	-0.869831
H121	H	-1.238678	0.550419	-1.033713
H122	H	-1.328290	0.524718	-1.039033
H123	H	-1.358755	0.616753	-0.918056
H124	H	-1.269137	0.642469	-0.912761
H125	H	-1.318349	0.656760	-1.015293
H126	H	-1.268300	0.474137	-1.100849
H127	H	-1.184045	0.254697	-0.919119
