data_functionalizedCrystal
_audit_creation_method	'MofGen! by Chris Wilmer'
_symmetry_space_group_name_H-M	'P1'
_symmetry_Int_Tables_number	1
_symmetry_cell_setting	triclinic
loop_
_symmetry_equiv_pos_as_xyz
  x,y,z
_cell_length_a	14.560438
_cell_length_b	21.606444
_cell_length_c	21.606444
_cell_angle_alpha	59.998659
_cell_angle_beta	90.003088
_cell_angle_gamma	60.003336
loop_
_atom_site_label
_atom_site_type_symbol
_atom_site_fract_x
_atom_site_fract_y
_atom_site_fract_z
Zr1	Zr	0.884784	0.677458	-0.081217
O2	O	0.738138	0.806578	-0.180046
O3	O	0.929734	0.548339	-0.050920
O4	O	0.929732	0.677462	-0.180043
O5	O	0.738148	0.677450	0.050931
O6	O	1.080870	0.677464	-0.180041
O7	O	0.738140	0.677455	-0.050923
O8	O	1.080875	0.446486	0.050936
O9	O	0.738144	0.908428	-0.180046
O10	O	1.061704	0.601448	-0.037998
O11	O	0.948917	0.601444	0.038013
O12	O	0.948914	0.753470	-0.114013
O13	O	0.836127	0.753465	-0.038001
Zr14	Zr	1.125845	0.677453	0.081231
Zr15	Zr	1.125832	0.677460	-0.081214
Zr16	Zr	0.884797	0.677451	0.081229
Zr17	Zr	0.884793	0.839897	-0.081218
Zr18	Zr	1.125836	0.515014	0.081232
O19	O	1.080895	0.806572	0.050934
O20	O	1.080877	0.806582	-0.180042
O21	O	0.738155	0.806568	0.050931
O22	O	1.272491	0.548333	0.180060
O23	O	1.272474	0.548343	-0.050916
O24	O	0.929752	0.548329	0.180057
O25	O	1.272481	0.677461	-0.050917
O26	O	1.080897	0.677449	0.180058
O27	O	0.929759	0.677447	0.180056
O28	O	1.272488	0.677456	0.050937
O29	O	0.929745	0.908430	-0.180044
O30	O	1.080884	0.446481	0.180059
O31	O	1.272485	0.446483	0.180061
O32	O	1.272476	0.446489	0.050938
O33	O	0.738153	0.908423	-0.050924
O34	O	0.929754	0.908425	-0.050922
O35	O	1.061715	0.601442	0.114027
O36	O	1.174502	0.601446	0.038016
O37	O	1.061712	0.753468	-0.037999
O38	O	0.948925	0.753463	0.038013
C39	C	1.005303	0.474269	0.000008
C40	C	1.005299	0.405309	0.000009
C41	C	1.064205	-0.017997	-0.039670
C42	C	1.064196	0.046803	-0.039673
C43	C	1.005319	0.079198	0.000005
C44	C	0.946437	0.046795	0.039681
C45	C	0.946439	-0.018000	0.039680
C46	C	0.946425	0.308106	0.039689
C47	C	0.946430	0.372903	0.039689
C48	C	1.064182	0.372909	-0.039664
C49	C	1.064185	0.308114	-0.039666
C50	C	1.005298	0.275720	0.000008
C51	C	1.005306	0.205457	0.000009
C52	C	1.005317	0.149455	0.000008
C53	C	0.703800	0.677452	0.000004
C54	C	0.601469	0.677451	0.000003
C55	C	0.612266	0.598099	0.039682
C56	C	0.516111	0.598103	0.039688
C57	C	0.398365	0.756818	-0.039668
C58	C	0.494519	0.756813	-0.039670
C59	C	0.719215	0.518736	0.079355
C60	C	0.730017	0.439378	0.119036
C61	C	0.633862	0.439382	0.119043
C62	C	0.526905	0.518745	0.079368
C63	C	1.306829	0.677459	0.000011
C64	C	1.409160	0.677460	0.000012
C65	C	1.005299	0.677464	-0.203187
C66	C	1.005294	0.677467	-0.272150
C67	C	1.005326	0.880643	0.000006
C68	C	1.005330	0.949602	0.000006
C69	C	0.946418	0.756820	-0.344227
C70	C	0.946428	0.756818	-0.409022
C71	C	1.005307	0.677462	-0.401738
C72	C	1.064191	0.598102	-0.329653
C73	C	1.064187	0.598106	-0.264859
C74	C	1.064208	0.598087	-0.590956
C75	C	1.064205	0.598090	-0.655757
C76	C	0.946449	0.756799	-0.735118
C77	C	0.946446	0.756803	-0.670325
C78	C	1.005333	0.677444	-0.598246
C79	C	1.005324	0.677448	-0.527988
C80	C	1.005311	0.677457	-0.471994
C81	C	1.005330	0.677447	0.203202
C82	C	1.005335	0.677444	0.272164
C83	C	1.306817	0.474272	0.000012
C84	C	1.409145	0.405313	0.000013
C85	C	1.005318	0.474260	0.203203
C86	C	1.005320	0.405297	0.272166
C87	C	1.306833	0.474263	0.203206
C88	C	1.409165	0.405302	0.272170
C89	C	0.703796	0.880648	-0.203192
C90	C	0.601464	0.949609	-0.272156
C91	C	0.703811	0.880639	0.000003
C92	C	0.601484	0.949598	0.000001
C93	C	1.005311	0.880651	-0.203188
C94	C	1.005309	0.949614	-0.272151
C95	C	1.398319	0.372931	-0.039671
C96	C	1.494457	0.308146	-0.039685
C97	C	1.601420	0.275740	-0.000010
C98	C	1.612244	0.308129	0.039676
C99	C	1.516106	0.372918	0.039685
C100	C	1.064200	0.372911	0.344237
C101	C	1.064197	0.308122	0.409041
C102	C	1.005320	0.275716	0.401772
C103	C	0.946432	0.308109	0.329694
C104	C	0.946429	0.372901	0.264891
C105	C	1.516106	0.372919	0.264879
C106	C	1.612267	0.308131	0.329672
C107	C	1.601486	0.275723	0.401755
C108	C	1.494534	0.308112	0.409044
C109	C	1.398375	0.372903	0.344252
C110	C	0.494523	0.982000	-0.264865
C111	C	0.398362	1.046808	-0.329657
C112	C	0.409143	1.079219	-0.401740
C113	C	0.516095	1.046826	-0.409030
C114	C	0.612254	0.982024	-0.344238
C115	C	0.612310	0.981987	0.039679
C116	C	0.516172	1.046790	0.039675
C117	C	0.409209	1.079198	-0.000003
C118	C	0.398385	1.046806	-0.039685
C119	C	0.494522	0.982008	-0.039685
C120	C	1.064198	0.981999	-0.264858
C121	C	1.064219	1.046788	-0.329650
C122	C	1.005343	1.079196	-0.401734
C123	C	0.946453	1.046805	-0.409025
C124	C	0.946439	0.982012	-0.344234
H125	H	1.112127	0.399293	-0.071971
H126	H	0.485692	0.955639	-0.071994
H127	H	1.311233	0.399315	-0.071989
Cl128	Cl	1.529689	0.413653	0.174268
Cl129	Cl	0.263923	1.087514	-0.320476
H130	H	0.485724	0.955614	-0.206177
H131	H	0.311283	1.073202	-0.071990
H132	H	1.112154	0.281755	0.467724
Cl133	Cl	1.138224	0.941270	-0.174247
H134	H	1.679794	0.222966	0.454506
H135	H	0.898496	0.281715	0.323787
H136	H	1.485623	0.281783	-0.072002
Cl137	Cl	1.722269	0.194289	-0.000027
H138	H	0.898480	0.281736	0.071996
Cl139	Cl	0.746766	0.941264	0.089562
H140	H	1.699346	0.281735	0.071978
Cl141	Cl	0.746689	0.941306	-0.353417
H142	H	1.524937	0.399275	0.072005
Cl143	Cl	0.480950	0.856572	-0.089551
H144	H	0.330835	1.131985	-0.454492
Cl145	Cl	1.138251	1.087500	-0.320466
H146	H	1.699343	0.281767	0.323723
H147	H	1.005331	0.222959	0.454545
H148	H	0.898486	0.399262	0.206210
Cl149	Cl	0.529629	1.087578	-0.499654
Cl150	Cl	1.481000	0.267360	0.499669
H151	H	0.898464	0.821442	-0.350167
Cl152	Cl	0.529804	1.087494	0.089570
H153	H	0.898478	0.399280	0.071999
H154	H	1.005363	1.131954	-0.454484
Cl155	Cl	0.872431	1.087563	-0.499651
Cl156	Cl	0.872407	0.856569	-0.679488
Cl157	Cl	0.872415	0.087523	0.089559
Cl158	Cl	0.288360	1.160657	0.000007
Cl159	Cl	1.263940	0.413600	0.353432
H160	H	0.898480	0.955652	-0.350183
H161	H	1.112155	-0.044373	-0.071976
H162	H	1.112136	0.073183	-0.071980
H163	H	1.112133	0.281737	-0.071972
Cl164	Cl	0.840099	0.518726	0.079345
Cl165	Cl	0.872416	-0.058728	0.089556
Cl166	Cl	0.647441	0.339619	0.168935
Cl167	Cl	0.864470	0.339614	0.168921
H168	H	0.311277	0.821432	-0.071971
Cl169	Cl	0.406026	0.518747	0.079384
H170	H	0.898488	0.821435	-0.467709
H171	H	0.898504	0.821417	-0.793815
H172	H	1.112155	0.533465	-0.649817
H173	H	1.112159	0.533469	-0.532274
H174	H	1.112138	0.533489	-0.323726
H175	H	1.112129	0.533488	-0.206171
H176	H	1.112145	0.399288	0.350169
