data_functionalizedCrystal
_audit_creation_method	'MofGen! by Chris Wilmer'
_symmetry_space_group_name_H-M	'P1'
_symmetry_Int_Tables_number	1
_symmetry_cell_setting	triclinic
loop_
_symmetry_equiv_pos_as_xyz
  x,y,z
_cell_length_a	13.897449
_cell_length_b	12.645330
_cell_length_c	12.645323
_cell_angle_alpha	89.975130
_cell_angle_beta	89.978672
_cell_angle_gamma	90.018972
loop_
_atom_site_label
_atom_site_type_symbol
_atom_site_fract_x
_atom_site_fract_y
_atom_site_fract_z
Zn1	Zn	1.474708	-0.421995	-0.599408
Zn2	Zn	1.974708	0.078005	-0.099408
Zn3	Zn	1.474601	-0.599283	-0.422148
Zn4	Zn	1.974601	-0.099283	0.077852
Zn5	Zn	1.313396	-0.422038	-0.422157
Zn6	Zn	1.813396	0.077962	0.077843
Zn7	Zn	1.313379	-0.599221	-0.599368
Zn8	Zn	1.813379	-0.099221	-0.099368
O9	O	1.394021	-0.510634	-0.510770
O10	O	1.894021	-0.010634	-0.010770
O11	O	1.609676	-0.445520	-0.575908
O12	O	2.109676	0.054480	-0.075908
O13	O	1.453178	-0.575815	-0.273802
O14	O	1.953178	-0.075815	0.226198
O15	O	1.334846	-0.273685	-0.445690
O16	O	1.834846	0.226315	0.054310
O17	O	1.609596	-0.575773	-0.445676
O18	O	2.109596	-0.075773	0.054324
O19	O	1.453362	-0.273653	-0.575916
O20	O	1.953362	0.226347	-0.075916
O21	O	1.334742	-0.445594	-0.273808
O22	O	1.834742	0.054406	0.226192
O23	O	1.178412	-0.445533	-0.445651
O24	O	1.678412	0.054467	0.054349
O25	O	1.334818	-0.575667	-0.747721
O26	O	1.834818	-0.075667	-0.247721
O27	O	1.178400	-0.575709	-0.575847
O28	O	1.678400	-0.075709	-0.075847
O29	O	1.453346	-0.445460	-0.747750
O30	O	1.953346	0.054540	-0.247750
O31	O	1.453162	-0.747622	-0.445636
O32	O	1.953162	-0.247622	0.054364
O33	O	1.334713	-0.747576	-0.575839
O34	O	1.834713	-0.247576	-0.075839
C35	C	1.143407	-0.510620	-0.510746
C36	C	1.643407	-0.010620	-0.010746
C37	C	1.036193	-0.510639	-0.510761
C38	C	1.536193	-0.010639	-0.010761
C39	C	0.839898	-0.510643	-0.510789
C40	C	1.339898	-0.010643	-0.010789
C41	C	0.949130	-0.510638	-0.510770
C42	C	1.449130	-0.010638	-0.010770
C43	C	1.393951	-0.786064	-0.510755
C44	C	1.893951	-0.286064	-0.010755
C45	C	1.394009	-0.903894	-0.510785
C46	C	1.894009	-0.403894	-0.010785
C47	C	1.319800	-1.071473	-0.592947
C48	C	1.819800	-0.571473	-0.092947
C49	C	1.319420	-0.948914	-0.592683
C50	C	1.819420	-0.448914	-0.092683
C51	C	1.366488	-0.948488	-0.399063
C52	C	1.866488	-0.448488	0.100937
C53	C	1.366035	-1.071087	-0.399562
C54	C	1.866035	-0.571087	0.100438
C55	C	1.496192	-1.070981	-0.539437
C56	C	1.996192	-0.570981	-0.039437
C57	C	1.495566	-0.948374	-0.541880
C58	C	1.995566	-0.448374	-0.041880
C59	C	1.645614	-0.510649	-0.510795
C60	C	2.145614	-0.010649	-0.010795
C61	C	1.752828	-0.510655	-0.510806
C62	C	2.252828	-0.010655	-0.010806
C63	C	1.394092	-0.510552	-0.787276
C64	C	1.894092	-0.010552	-0.287276
C65	C	1.394122	-0.510517	-0.905106
C66	C	1.894122	-0.010517	-0.405106
C67	C	1.394118	-0.234129	-0.510808
C68	C	1.894118	0.265871	-0.010808
C69	C	1.394159	-0.116299	-0.510825
C70	C	1.894159	0.383701	-0.010825
C71	C	1.319326	-0.592044	-1.072651
C72	C	1.819326	-0.092044	-0.572651
C73	C	1.319522	-0.592448	-0.950091
C74	C	1.819522	-0.092448	-0.450091
C75	C	1.495758	-0.540833	-0.949623
C76	C	1.995758	-0.040833	-0.449623
C77	C	1.495348	-0.541344	-1.072221
C78	C	1.995348	-0.041344	-0.572221
C79	C	1.368243	-0.398218	-1.072304
C80	C	1.868243	0.101782	-0.572304
C81	C	1.365976	-0.398891	-0.949698
C82	C	1.865976	0.101109	-0.449698
C83	C	1.394006	-0.510639	-0.235341
C84	C	1.894006	-0.010639	0.264659
C85	C	1.394162	-0.510375	-0.117511
C86	C	1.894162	-0.010375	0.382489
H87	H	1.336639	-0.918759	-0.675524
H88	H	1.836639	-0.418759	-0.175524
F89	F	1.270013	-0.908486	-0.366808
F90	F	1.770013	-0.408486	0.133192
F91	F	1.524969	-0.646876	-0.909512
F92	F	2.024969	-0.146876	-0.409512
H93	H	1.243778	-0.919681	-0.573728
H94	H	1.743778	-0.419681	-0.073728
H95	H	1.336860	-1.100885	-0.676060
H96	H	1.836860	-0.600885	-0.176060
H97	H	1.336632	-0.675595	-0.920777
H98	H	1.836632	-0.175595	-0.420777
F99	F	1.524062	-0.648510	-1.109620
F100	F	2.024062	-0.148510	-0.609620
H101	H	1.417845	-1.100743	-0.336288
H102	H	1.917845	-0.600743	0.163712
F103	F	1.221550	-1.111883	-0.568506
F104	F	1.721550	-0.611883	-0.068506
H105	H	1.291449	-1.099780	-0.375323
H106	H	1.791449	-0.599780	0.124677
H107	H	1.516320	-0.919223	-0.624101
H108	H	2.016320	-0.419223	-0.124101
H109	H	1.418931	-0.919329	-0.336203
H110	H	1.918931	-0.419329	0.163797
F111	F	1.529006	-1.111294	-0.644110
F112	F	2.029006	-0.611294	-0.144110
F113	F	1.439487	-0.318687	-1.110224
F114	F	1.939487	0.181313	-0.610224
H115	H	1.291181	-0.376028	-0.920601
H116	H	1.791181	0.123972	-0.420601
F117	F	1.432023	-0.315152	-0.909685
F118	F	1.932023	0.184848	-0.409685
F119	F	1.571797	-0.908303	-0.469398
F120	F	2.071797	-0.408303	0.030602
H121	H	1.551591	-1.099967	-0.479623
H122	H	2.051591	-0.599967	0.020377
H123	H	1.244156	-0.573477	-0.919991
H124	H	1.744156	-0.073477	-0.419991
F125	F	1.220520	-0.567483	-1.111167
F126	F	1.720520	-0.067483	-0.611167
H127	H	1.336270	-0.674672	-1.103470
H128	H	1.836270	-0.174672	-0.603470
F129	F	1.570658	-0.466923	-1.111015
F130	F	2.070658	0.033077	-0.611015
F131	F	1.273058	-0.362098	-1.112697
F132	F	1.773058	0.137902	-0.612697
F133	F	1.570595	-0.465544	-0.911543
F134	F	2.070595	0.034456	-0.411543
