data_functionalizedCrystal
_audit_creation_method	'MofGen! by Chris Wilmer'
_symmetry_space_group_name_H-M	'P1'
_symmetry_Int_Tables_number	1
_symmetry_cell_setting	triclinic
loop_
_symmetry_equiv_pos_as_xyz
  x,y,z
_cell_length_a	16.109296
_cell_length_b	16.109301
_cell_length_c	15.186229
_cell_angle_alpha	89.994833
_cell_angle_beta	90.001331
_cell_angle_gamma	96.539615
loop_
_atom_site_label
_atom_site_type_symbol
_atom_site_fract_x
_atom_site_fract_y
_atom_site_fract_z
O1	O	-1.103133	0.106845	-0.073190
O2	O	-0.861071	0.120149	-0.073201
O3	O	-0.988752	-0.007534	-0.073186
O4	O	-0.975452	0.234528	-0.073205
O5	O	-0.988743	-0.007536	0.073271
O6	O	-0.861062	0.120147	0.073256
O7	O	-1.103125	0.106843	0.073267
Zn8	Zn	-0.982092	0.113495	0.096515
Zn9	Zn	-0.982103	0.113497	-0.096449
O10	O	-0.975444	0.234526	0.073253
C11	C	-0.830092	0.119610	0.000026
C12	C	-0.737796	0.117996	0.000022
C13	C	-0.428797	0.188486	0.000034
C14	C	-0.515517	0.190009	0.000028
C15	C	-0.535391	0.038520	0.000028
C16	C	-0.448672	0.036998	0.000028
C17	C	-0.395377	0.111983	0.000035
C18	C	-0.568816	0.115029	0.000030
C19	C	-0.662843	0.116681	0.000024
C20	C	-0.301345	0.110332	0.000040
C21	C	-0.988209	-0.038510	0.000043
C22	C	-0.986594	-0.130805	0.000044
C23	C	-1.058602	-0.353079	0.000033
C24	C	-1.057078	-0.439800	0.000026
C25	C	-0.905588	-0.419922	0.000023
C26	C	-0.907113	-0.333204	0.000024
C27	C	-0.983622	-0.299785	0.000033
C28	C	-0.980573	-0.473224	0.000025
C29	C	-0.978920	-0.567250	0.000017
C30	C	-0.985276	-0.205753	0.000040
C31	C	-0.134103	0.107387	0.000040
C32	C	-0.226397	0.109016	0.000043
C33	C	-0.975987	0.265502	0.000022
C34	C	-0.977602	0.357797	0.000015
N35	N	-0.982091	0.113493	0.228208
N36	N	-0.982112	0.113493	-0.228141
C37	C	-1.038647	0.056974	0.453937
C38	C	-1.038650	0.056972	0.546127
C39	C	-0.925549	0.170014	0.546123
C40	C	-0.925543	0.170012	0.453935
C41	C	-0.982097	0.113492	0.407844
C42	C	-0.982105	0.113493	0.592222
C43	C	-0.982108	0.113491	0.692178
C44	C	-0.982094	0.113493	0.307882
H45	H	-0.542723	0.252306	0.000027
H46	H	-0.578794	-0.022530	0.000024
O47	O	-0.412616	-0.045520	0.000038
H48	H	-0.464243	-0.097406	0.000049
H49	H	-0.846052	-0.289808	0.000021
O50	O	-0.371311	0.269358	0.000031
H51	H	-0.409123	0.322810	0.000021
O52	O	-1.141117	-0.317029	0.000026
H53	H	-1.192998	-0.368661	0.000013
H54	H	-1.084695	0.010951	0.416413
H55	H	-1.084697	0.010948	0.583653
H56	H	-0.879489	0.216036	0.416403
O57	O	-1.137947	-0.497285	0.000037
H58	H	-1.191401	-0.459474	0.000053
O59	O	-0.864563	0.230983	0.595833
H60	H	-0.874073	0.221498	0.667681
H61	H	-0.843297	-0.447143	0.000016
