data_functionalizedCrystal
_audit_creation_method	'MofGen! by Chris Wilmer'
_symmetry_space_group_name_H-M	'P1'
_symmetry_Int_Tables_number	1
_symmetry_cell_setting	triclinic
loop_
_symmetry_equiv_pos_as_xyz
  x,y,z
_cell_length_a	16.625548
_cell_length_b	19.121063
_cell_length_c	19.120979
_cell_angle_alpha	89.814806
_cell_angle_beta	92.392318
_cell_angle_gamma	92.470058
loop_
_atom_site_label
_atom_site_type_symbol
_atom_site_fract_x
_atom_site_fract_y
_atom_site_fract_z
Zn1	Zn	1.200070	-0.261822	-0.408289
Zn2	Zn	1.700070	0.238178	0.091711
Zn3	Zn	1.199402	-0.384165	-0.296046
Zn4	Zn	1.699402	0.115835	0.203954
Zn5	Zn	1.070654	-0.266951	-0.291067
Zn6	Zn	1.570654	0.233049	0.208933
Zn7	Zn	1.059211	-0.379023	-0.413242
Zn8	Zn	1.559211	0.120977	0.086758
O9	O	1.132334	-0.322990	-0.352161
O10	O	1.632334	0.177010	0.147839
O11	O	1.312813	-0.278056	-0.393411
O12	O	1.812813	0.221944	0.106589
O13	O	1.186832	-0.372914	-0.197281
O14	O	1.686832	0.127086	0.302719
O15	O	1.092890	-0.168167	-0.302459
O16	O	1.592890	0.331833	0.197541
O17	O	1.312322	-0.367941	-0.310947
O18	O	1.812322	0.132059	0.189053
O19	O	1.187972	-0.164398	-0.388582
O20	O	1.687972	0.335602	0.111418
O21	O	1.092242	-0.286797	-0.193623
O22	O	1.592242	0.213203	0.306377
O23	O	0.956304	-0.281812	-0.307263
O24	O	1.456304	0.218188	0.192737
O25	O	1.073387	-0.359178	-0.510690
O26	O	1.573387	0.140822	-0.010690
O27	O	0.947897	-0.364151	-0.397024
O28	O	1.447897	0.135849	0.102976
O29	O	1.176876	-0.273071	-0.507050
O30	O	1.676876	0.226929	-0.007050
O31	O	1.175736	-0.481586	-0.315750
O32	O	1.675736	0.018414	0.184250
O33	O	1.072739	-0.477809	-0.401853
O34	O	1.572739	0.022191	0.098147
C35	C	0.922845	-0.322981	-0.352141
C36	C	1.422845	0.177019	0.147859
C37	C	0.833223	-0.322993	-0.352150
C38	C	1.333223	0.177007	0.147850
C39	C	0.505045	-0.322996	-0.352180
C40	C	1.005045	0.177004	0.147820
C41	C	0.596355	-0.322994	-0.352169
C42	C	1.096355	0.177006	0.147831
C43	C	0.669131	-0.322995	-0.352164
C44	C	1.169131	0.177005	0.147836
C45	C	0.760446	-0.322992	-0.352155
C46	C	1.260446	0.177008	0.147845
C47	C	1.122945	-0.505134	-0.359894
C48	C	1.622945	-0.005134	0.140106
C49	C	1.119000	-0.583055	-0.363226
C50	C	1.619000	-0.083055	0.136774
C51	C	1.170811	-0.621604	-0.320000
C52	C	1.670811	-0.121604	0.180000
C53	C	1.167106	-0.694819	-0.323137
C54	C	1.667106	-0.194819	0.176863
C55	C	1.111586	-0.729483	-0.369499
C56	C	1.611586	-0.229483	0.130501
C57	C	1.059773	-0.690929	-0.412730
C58	C	1.559773	-0.190929	0.087270
C59	C	1.063482	-0.617715	-0.409596
C60	C	1.563482	-0.117715	0.090404
C61	C	1.097704	-0.950444	-0.381208
C62	C	1.597704	-0.450444	0.118792
C63	C	1.093997	-1.023663	-0.384338
C64	C	1.593997	-0.523663	0.115662
C65	C	1.201332	-1.027548	-0.294745
C66	C	1.701332	-0.527548	0.205255
C67	C	1.205033	-0.954333	-0.291612
C68	C	1.705033	-0.454333	0.208388
C69	C	1.153223	-0.915784	-0.334846
C70	C	1.653223	-0.415784	0.165154
C71	C	1.107796	-0.804321	-0.372706
C72	C	1.607796	-0.304321	0.127294
C73	C	1.157018	-0.840948	-0.331642
C74	C	1.657018	-0.340948	0.168358
C75	C	1.342642	-0.323000	-0.352182
C76	C	1.842642	0.177000	0.147818
C77	C	1.432262	-0.323004	-0.352190
C78	C	1.932262	0.176996	0.147810
C79	C	1.123930	-0.314979	-0.535019
C80	C	1.623930	0.185021	-0.035019
C81	C	1.120348	-0.311565	-0.612942
C82	C	1.620348	0.188435	-0.112942
C83	C	1.141782	-0.140134	-0.344413
C84	C	1.641782	0.359866	0.155587
C85	C	1.145808	-0.062212	-0.341111
C86	C	1.645808	0.437788	0.158889
C87	C	1.140755	-0.330920	-0.170013
C88	C	1.640755	0.169080	0.329987
C89	C	1.144503	-0.334136	-0.092082
C90	C	1.644503	0.165864	0.407918
C91	C	1.168225	-0.354562	0.348587
C92	C	1.668225	0.145438	0.848587
C93	C	1.164699	-0.351536	0.275363
C94	C	1.664699	0.148464	0.775363
C95	C	1.113293	-0.305515	0.240611
C96	C	1.613293	0.194485	0.740611
C97	C	1.065415	-0.262514	0.279088
C98	C	1.565415	0.237486	0.779088
C99	C	1.068945	-0.265537	0.352311
C100	C	1.568945	0.234463	0.852311
C101	C	1.100155	-0.294158	0.019618
C102	C	1.600155	0.205842	0.519618
C103	C	1.096626	-0.291139	-0.053611
C104	C	1.596626	0.208861	0.446389
C105	C	1.195913	-0.380160	-0.057330
C106	C	1.695913	0.119840	0.442670
C107	C	1.199435	-0.383183	0.015895
C108	C	1.699435	0.116817	0.515895
C109	C	1.151560	-0.340178	0.054365
C110	C	1.651560	0.159822	0.554365
C111	C	1.109686	-0.302423	0.165764
C112	C	1.609686	0.197577	0.665764
C113	C	1.155171	-0.343268	0.129210
C114	C	1.655171	0.156732	0.629210
H115	H	1.209295	-0.726203	-0.287937
H116	H	1.709295	-0.226203	0.212063
H117	H	1.062590	-0.832553	-0.410452
H118	H	1.562590	-0.332553	0.089548
H119	H	1.067829	-0.264954	0.137461
H120	H	1.567829	0.235046	0.637461
N121	N	1.009952	-0.212890	0.241609
N122	N	1.509952	0.287110	0.741609
H123	H	1.014971	-0.217505	0.189384
H124	H	1.514971	0.282495	0.689384
H125	H	0.952508	-0.224715	0.254067
H126	H	1.452508	0.275285	0.754067
N127	N	1.017313	-0.219157	0.393808
N128	N	1.517313	0.280843	0.893808
H129	H	0.984211	-0.189544	0.360684
H130	H	1.484211	0.310456	0.860684
H131	H	0.980224	-0.249184	0.423109
H132	H	1.480224	0.250816	0.923109
H133	H	1.055517	-0.919063	-0.416409
H134	H	1.555517	-0.419063	0.083591
N135	N	1.264924	-0.916948	-0.241613
N136	N	1.764924	-0.416948	0.258387
H137	H	1.259411	-0.864718	-0.246186
H138	H	1.759411	-0.364718	0.253814
H139	H	1.254073	-0.931970	-0.192083
H140	H	1.754073	-0.431970	0.307917
N141	N	1.034116	-1.061053	-0.434347
N142	N	1.534116	-0.561053	0.065653
H143	H	0.996545	-1.092715	-0.407127
H144	H	1.496545	-0.592715	0.092873
H145	H	1.001915	-1.025480	-0.461250
H146	H	1.501915	-0.525480	0.038750
H147	H	1.243514	-1.058941	-0.259547
H148	H	1.743514	-0.558941	0.240453
H149	H	1.216018	-0.593386	-0.282244
H150	H	1.716018	-0.093386	0.217756
N151	N	1.007603	-0.576129	-0.456215
N152	N	1.507603	-0.076129	0.043785
H153	H	1.017132	-0.586645	-0.506860
H154	H	1.517132	-0.086645	-0.006860
H155	H	0.949880	-0.589411	-0.445770
H156	H	1.449880	-0.089411	0.054230
H157	H	1.202225	-0.812722	-0.293897
H158	H	1.702225	-0.312722	0.206103
N159	N	0.999892	-0.728313	-0.462738
N160	N	1.499892	-0.228313	0.037262
H161	H	1.005400	-0.780543	-0.458163
H162	H	1.505400	-0.280543	0.041837
H163	H	0.943467	-0.716039	-0.451233
H164	H	1.443467	-0.216039	0.048767
H165	H	1.210088	-0.392034	0.376877
H166	H	1.710088	0.107966	0.876877
H167	H	1.203686	-0.386548	0.244043
H168	H	1.703686	0.113452	0.744043
H169	H	1.241282	-0.420668	0.044184
H170	H	1.741282	0.079332	0.544184
H171	H	1.234891	-0.415171	-0.088660
H172	H	1.734891	0.084829	0.411340
H173	H	1.054767	-0.253658	-0.081903
H174	H	1.554767	0.246342	0.418097
H175	H	1.061168	-0.259143	0.050931
H176	H	1.561168	0.240857	0.550931
H177	H	1.197029	-0.380735	0.157509
H178	H	1.697029	0.119265	0.657509
