data_functionalizedCrystal
_audit_creation_method	'MofGen! by Chris Wilmer'
_symmetry_space_group_name_H-M	'P1'
_symmetry_Int_Tables_number	1
_symmetry_cell_setting	triclinic
loop_
_symmetry_equiv_pos_as_xyz
  x,y,z
_cell_length_a	13.635800
_cell_length_b	14.899657
_cell_length_c	11.102288
_cell_angle_alpha	97.161972
_cell_angle_beta	71.394311
_cell_angle_gamma	135.073986
loop_
_atom_site_label
_atom_site_type_symbol
_atom_site_fract_x
_atom_site_fract_y
_atom_site_fract_z
V1	V	2.259400	0.396262	-0.175870
O2	O	2.235040	0.388718	0.008420
O3	O	2.246396	0.393552	-0.348690
O4	O	2.336603	0.569085	-0.173178
O5	O	2.144209	0.211970	-0.168307
V6	V	2.486624	0.374219	-0.153825
O7	O	2.421919	0.444614	-0.224227
O8	O	2.549204	0.325866	-0.105468
O9	O	2.388025	0.376929	0.018995
O10	O	2.569683	0.381762	-0.338114
O11	O	2.660514	0.558511	-0.161388
O12	O	2.297818	0.201396	-0.156516
V13	V	2.759400	0.396262	-0.175870
O14	O	2.735040	0.388718	0.008420
O15	O	2.746396	0.393552	-0.348690
O16	O	2.836603	0.569085	-0.173178
O17	O	2.644209	0.211970	-0.168307
V18	V	2.986624	0.374219	-0.153825
O19	O	2.921919	0.444614	-0.224227
O20	O	3.049204	0.325866	-0.105468
O21	O	2.888025	0.376929	0.018995
O22	O	3.069683	0.381762	-0.338114
O23	O	3.160514	0.558511	-0.161388
O24	O	2.797818	0.201396	-0.156516
C25	C	2.168339	0.387300	-0.390819
C26	C	2.199026	0.386237	-0.532102
C27	C	2.283406	0.611209	-0.166935
C28	C	2.387243	0.752493	-0.165878
C29	C	2.308705	0.392078	-0.604951
C30	C	2.337541	0.391088	-0.737702
C31	C	2.147003	0.378411	-0.724743
C32	C	2.118176	0.379410	-0.591995
C33	C	2.573006	0.969785	-0.280752
C34	C	2.475445	0.837036	-0.281762
C35	C	2.396594	0.800703	-0.048976
C36	C	2.494146	0.933449	-0.047966
C37	C	2.686174	1.159267	-0.162775
C38	C	2.582356	1.017988	-0.163859
C39	C	2.297751	0.383177	0.061118
C40	C	2.256688	0.384249	0.202399
C41	C	2.182683	0.159265	-0.162764
C42	C	2.068464	0.017980	-0.163814
C43	C	2.668339	0.387300	-0.390819
C44	C	2.699026	0.386237	-0.532102
C45	C	2.783406	0.611209	-0.166935
C46	C	2.887243	0.752493	-0.165878
C47	C	2.797751	0.383177	0.061118
C48	C	2.756688	0.384249	0.202399
C49	C	1.932780	-0.041930	-0.170657
C50	C	1.825468	-0.174681	-0.171652
C51	C	1.989541	-0.187602	-0.158965
C52	C	2.096847	-0.054854	-0.157961
C53	C	2.808705	0.392078	-0.604951
C54	C	2.837541	0.391088	-0.737702
C55	C	2.647003	0.378411	-0.724743
C56	C	2.618176	0.379410	-0.591995
H57	H	2.374539	0.397635	-0.556189
O58	O	1.999876	0.373118	-0.513419
H59	H	1.993430	0.374977	-0.411053
H60	H	2.012635	-0.246919	-0.154202
O61	O	2.301444	0.709511	0.076011
H62	H	2.372536	0.731120	0.127288
H63	H	2.426851	0.395847	-0.797010
H64	H	2.081180	0.372850	-0.773524
O65	O	1.679126	-0.239286	-0.179030
H66	H	1.589567	-0.313020	-0.092753
O67	O	1.902122	0.036583	-0.177002
H68	H	1.910319	0.083820	-0.089846
H69	H	2.501751	0.972694	0.047228
O70	O	2.499878	0.373118	-0.513408
H71	H	2.392501	0.282857	-0.522185
H72	H	2.207334	-0.006076	-0.152385
H73	H	2.874539	0.397635	-0.556189
O74	O	2.465367	0.785051	-0.407843
H75	H	2.351527	0.720612	-0.409134
H76	H	2.926851	0.395847	-0.797010
O77	O	2.559801	0.371047	-0.789340
H78	H	2.598263	0.371324	-0.893885
H79	H	2.644822	1.038613	-0.375118
