data_functionalizedCrystal
_audit_creation_method	'MofGen! by Chris Wilmer'
_symmetry_space_group_name_H-M	'P1'
_symmetry_Int_Tables_number	1
_symmetry_cell_setting	triclinic
loop_
_symmetry_equiv_pos_as_xyz
  x,y,z
_cell_length_a	19.188930
_cell_length_b	23.532407
_cell_length_c	18.266242
_cell_angle_alpha	89.988983
_cell_angle_beta	89.977082
_cell_angle_gamma	82.996728
loop_
_atom_site_label
_atom_site_type_symbol
_atom_site_fract_x
_atom_site_fract_y
_atom_site_fract_z
O1	O	0.925922	0.071102	-0.061124
O2	O	0.722581	0.080673	-0.061074
O3	O	0.830383	-0.007031	-0.061087
O4	O	0.818120	0.158806	-0.061111
O5	O	0.830365	-0.007035	0.060675
O6	O	0.722562	0.080669	0.060688
O7	O	0.925904	0.071097	0.060638
Zn8	Zn	0.824230	0.075882	0.079995
Zn9	Zn	0.824254	0.075888	-0.080431
O10	O	0.818102	0.158802	0.060651
C11	C	0.696561	0.080361	-0.000187
C12	C	0.619060	0.079431	-0.000168
C13	C	0.573972	0.130893	-0.000187
C14	C	0.501151	0.130019	-0.000194
C15	C	0.473421	0.077680	-0.000198
C16	C	0.518519	0.026211	-0.000175
C17	C	0.591339	0.027086	-0.000160
N18	N	0.365575	0.037674	-0.041663
N19	N	0.296399	0.036846	-0.041679
C20	C	0.254021	0.075038	-0.000243
N21	N	0.283431	0.114099	0.041201
N22	N	0.352613	0.114929	0.041214
C23	C	0.394462	0.076724	-0.000214
C24	C	0.129971	0.125556	-0.000269
C25	C	0.057149	0.124680	-0.000272
C26	C	0.074520	0.020870	-0.000260
C27	C	0.147340	0.021748	-0.000250
C28	C	0.175061	0.074092	-0.000257
C29	C	0.830062	-0.028250	-0.000204
C30	C	0.829123	-0.091469	-0.000198
C31	C	0.887029	-0.490449	-0.000252
C32	C	0.886157	-0.549851	-0.000258
O33	O	0.939837	-0.586482	-0.000298
N34	N	0.822068	-0.572613	-0.000242
C35	C	0.758848	-0.535970	-0.000228
O36	O	0.704255	-0.560786	-0.000215
C37	C	0.759721	-0.476569	-0.000228
C38	C	0.823814	-0.453810	-0.000236
C39	C	0.951117	-0.467690	-0.000262
C40	C	0.951989	-0.408292	-0.000255
C41	C	0.888773	-0.371653	-0.000239
C42	C	0.824685	-0.394412	-0.000230
C43	C	0.696501	-0.439927	-0.000219
C44	C	0.697379	-0.380523	-0.000219
C45	C	0.761472	-0.357764	-0.000228
C46	C	0.762342	-0.298376	-0.000207
N47	N	0.826430	-0.275614	-0.000223
C48	C	0.889646	-0.312252	-0.000239
C49	C	0.757019	-0.660717	-0.000229
C50	C	0.756146	-0.720116	-0.000224
C51	C	0.883455	-0.733993	-0.000256
C52	C	0.884328	-0.674592	-0.000255
C53	C	0.821108	-0.637954	-0.000245
C54	C	0.891472	-0.187512	-0.000224
C55	C	0.892339	-0.128108	-0.000214
C56	C	0.765029	-0.114236	-0.000187
C57	C	0.764163	-0.173634	-0.000193
C58	C	0.827390	-0.210272	-0.000214
O59	O	0.708690	-0.261710	-0.000170
O60	O	0.944230	-0.287428	-0.000261
C61	C	0.951923	0.071410	-0.000251
C62	C	1.029425	0.072340	-0.000275
C63	C	0.818423	0.180021	-0.000234
C64	C	0.819362	0.243240	-0.000244
N65	N	0.824219	0.075878	0.189482
N66	N	0.824271	0.075888	-0.189918
C67	C	0.871970	0.037062	0.227785
C68	C	0.871974	0.037059	0.304430
C69	C	0.824235	0.075883	0.342769
C70	C	0.776475	0.114702	0.304457
C71	C	0.776468	0.114700	0.227813
N72	N	0.814998	0.126298	0.463096
N73	N	0.815010	0.126298	0.535904
C74	C	0.824254	0.075891	0.573691
N75	N	0.833500	0.025481	0.535921
N76	N	0.833492	0.025482	0.463106
C77	C	0.824238	0.075889	0.425876
C78	C	0.872012	0.037068	0.695102
C79	C	0.872012	0.037065	0.771748
C80	C	0.776516	0.114713	0.771773
C81	C	0.776513	0.114711	0.695128
C82	C	0.824265	0.075890	0.656797
H83	H	0.020438	0.166588	-0.000284
C84	C	0.689338	-0.232374	-0.062775
C85	C	0.693715	-0.198659	-0.000177
H86	H	0.645848	-0.247823	-0.062766
H87	H	0.692327	-0.209477	-0.105223
H88	H	0.726867	-0.262694	-0.062781
H89	H	0.656189	-0.168336	-0.000173
H90	H	0.690719	-0.221557	0.042283
H91	H	0.737582	0.146309	0.196626
C92	C	0.628597	-0.061120	-0.062741
C93	C	0.640906	-0.029484	-0.000147
H94	H	0.659202	-0.096042	-0.062735
H95	H	0.581267	-0.069132	-0.062740
H96	H	0.636986	-0.039641	-0.105197
H97	H	0.632512	-0.050961	0.042309
H98	H	0.688247	-0.021473	-0.000141
C99	C	0.966399	-0.039688	0.702773
C100	C	0.924491	-0.005609	0.652963
H101	H	0.998794	-0.066037	0.676758
H102	H	0.991350	-0.016033	0.732646
H103	H	0.937474	-0.060112	0.732688
H104	H	0.953416	0.014818	0.623051
H105	H	0.899539	-0.029267	0.623077
H106	H	0.737643	0.146322	0.802988
C107	C	0.105490	0.228078	-0.000274
C108	C	0.160449	0.183091	-0.000266
H109	H	0.124306	0.263597	-0.000267
H110	H	0.077473	0.225582	-0.042737
H111	H	0.077427	0.225570	0.042186
H112	H	0.188509	0.185597	-0.042729
H113	H	0.188478	0.185589	0.042201
C114	C	0.682078	0.191446	0.296785
C115	C	0.723996	0.157376	0.346595
H116	H	0.649674	0.217788	0.322800
H117	H	0.710990	0.211875	0.266871
H118	H	0.657132	0.167781	0.266910
H119	H	0.748946	0.181042	0.376466
H120	H	0.695080	0.136946	0.376521
C121	C	0.638614	-0.524810	-0.000225
C122	C	0.626047	-0.464933	-0.000218
H123	H	0.595115	-0.540245	-0.000223
H124	H	0.664632	-0.537387	-0.042686
H125	H	0.664608	-0.537403	0.042237
H126	H	0.600057	-0.452339	-0.042683
H127	H	0.600018	-0.452350	0.042246
C128	C	0.887724	-0.040479	0.857945
C129	C	0.924503	-0.005608	0.813852
H130	H	0.920132	-0.066825	0.883934
H131	H	0.859296	-0.017361	0.891743
H132	H	0.858808	-0.060906	0.828057
H133	H	0.953415	0.014823	0.843741
H134	H	0.952943	-0.028729	0.780050
H135	H	0.596537	0.173516	-0.000194
C136	C	0.692182	-0.039371	-0.062768
C137	C	0.695545	-0.073955	-0.000174
H138	H	0.649283	-0.014505	-0.062765
H139	H	0.730476	-0.017321	-0.062766
H140	H	0.694496	-0.062833	-0.105224
H141	H	0.693237	-0.050493	0.042282
H142	H	0.657240	-0.096006	-0.000170
H143	H	0.184052	-0.020158	-0.000238
H144	H	0.645897	-0.350694	-0.000212
H145	H	0.910850	0.005449	0.196579
H146	H	0.737633	0.146322	0.663940
H147	H	0.495937	-0.016404	-0.000188
C148	C	-0.029391	-0.026565	-0.000287
C149	C	0.044048	-0.036663	-0.000268
H150	H	-0.048203	-0.062086	-0.000295
H151	H	-0.044912	-0.005391	0.042168
H152	H	-0.044862	-0.005379	-0.042754
H153	H	0.059519	-0.057846	0.042202
H154	H	0.059575	-0.057846	-0.042728
H155	H	0.464433	0.171927	-0.000208
H156	H	0.942958	-0.217335	-0.000244
C157	C	0.913673	-0.061615	0.328049
C158	C	0.924462	-0.005611	0.346548
H159	H	0.946079	-0.087956	0.354048
H160	H	0.867127	-0.067702	0.340636
H161	H	0.920508	-0.067168	0.276916
H162	H	0.917622	-0.000056	0.397680
H163	H	0.971020	0.000478	0.333966
C164	C	1.077737	-0.427993	-0.000294
C165	C	1.022442	-0.383281	-0.000274
H166	H	1.121233	-0.412554	-0.000312
H167	H	1.074740	-0.450877	0.042165
H168	H	1.074741	-0.450867	-0.042757
H169	H	1.025435	-0.360410	0.042192
H170	H	1.025440	-0.360388	-0.042738
H171	H	0.944533	-0.109581	-0.000220
H172	H	1.002598	-0.497516	-0.000278
H173	H	0.936518	-0.656067	-0.000263
C174	C	0.956332	-0.808835	-0.062885
C175	C	0.952947	-0.774273	-0.000285
H176	H	0.999233	-0.833699	-0.062904
H177	H	0.918040	-0.830886	-0.062869
H178	H	0.954030	-0.785358	-0.105337
H179	H	0.955243	-0.797750	0.042167
H180	H	0.991249	-0.752219	-0.000294
H181	H	0.703955	-0.738641	-0.000205
C182	C	0.631091	-0.652976	-0.000186
C183	C	0.687521	-0.620446	-0.000204
H184	H	0.588187	-0.628115	-0.000167
H185	H	0.633405	-0.676424	-0.042647
H186	H	0.633405	-0.676442	0.042276
H187	H	0.685210	-0.596982	-0.042669
H188	H	0.685205	-0.596988	0.042261
