data_functionalizedCrystal
_audit_creation_method	'MofGen! by Chris Wilmer'
_symmetry_space_group_name_H-M	'P1'
_symmetry_Int_Tables_number	1
_symmetry_cell_setting	triclinic
loop_
_symmetry_equiv_pos_as_xyz
  x,y,z
_cell_length_a	16.974829
_cell_length_b	18.266242
_cell_length_c	16.974813
_cell_angle_alpha	93.659691
_cell_angle_beta	83.162295
_cell_angle_gamma	93.664256
loop_
_atom_site_label
_atom_site_type_symbol
_atom_site_fract_x
_atom_site_fract_y
_atom_site_fract_z
O1	O	1.049047	0.129005	0.100807
O2	O	1.549047	0.629005	0.600807
O3	O	0.818826	0.116126	0.113637
O4	O	1.318826	0.616126	0.613637
O5	O	0.940354	0.116122	-0.007888
O6	O	1.440354	0.616122	0.492112
O7	O	0.927519	0.129008	0.222332
O8	O	1.427519	0.629008	0.722332
O9	O	0.940333	-0.005641	-0.007892
O10	O	1.440333	0.494359	0.492108
O11	O	0.818805	-0.005637	0.113633
O12	O	1.318805	0.494363	0.613633
O13	O	1.049026	0.007241	0.100804
O14	O	1.549026	0.507241	0.600804
Zn15	Zn	0.933912	-0.018531	0.107218
Zn16	Zn	1.433912	0.481469	0.607218
Zn17	Zn	0.933940	0.141898	0.107222
Zn18	Zn	1.433940	0.641898	0.607222
O19	O	0.927498	0.007245	0.222329
O20	O	1.427498	0.507245	0.722329
C21	C	0.789357	0.053470	0.113146
C22	C	1.289357	0.553470	0.613146
C23	C	0.701582	0.048184	0.111679
C24	C	1.201582	0.548184	0.611679
N25	N	0.933900	-0.128019	0.107214
N26	N	1.433900	0.371981	0.607214
C27	C	0.207494	0.011301	0.103449
C28	C	0.707494	0.511301	0.603449
C29	C	0.289969	0.016270	0.104827
C30	C	0.789969	0.516270	0.604827
C31	C	0.331218	0.085128	0.105512
C32	C	0.831218	0.585128	0.605512
C33	C	0.289988	0.149023	0.104827
C34	C	0.789988	0.649023	0.604827
C35	C	0.207514	0.144053	0.103454
C36	C	0.707514	0.644053	0.603454
C37	C	0.577878	0.107108	0.109622
C38	C	1.077878	0.607108	0.609622
C39	C	0.660358	0.112073	0.110992
C40	C	1.160358	0.612073	0.610992
C41	C	0.660333	-0.020681	0.110993
C42	C	1.160333	0.479319	0.610993
C43	C	0.577858	-0.025644	0.109616
C44	C	1.077858	0.474356	0.609616
C45	C	0.536635	0.038250	0.108935
C46	C	1.036635	0.538250	0.608935
N47	N	0.415520	0.090209	0.106918
N48	N	0.915520	0.590209	0.606918
N49	N	0.452333	0.033169	0.107535
N50	N	0.952333	0.533169	0.607535
C51	C	0.981795	-0.160642	0.155152
C52	C	1.481795	0.339358	0.655152
C53	C	0.981808	-0.237287	0.155150
C54	C	1.481808	0.262713	0.655150
C55	C	0.933911	-0.281304	0.107219
C56	C	1.433911	0.218696	0.607219
C57	C	0.886012	-0.248672	0.059272
C58	C	1.386012	0.251328	0.559272
C59	C	0.886007	-0.172029	0.059269
C60	C	1.386007	0.327971	0.559269
N61	N	0.864658	-0.405883	0.105133
N62	N	1.364658	0.094117	0.605133
N63	N	0.864666	-0.478691	0.105140
N64	N	1.364666	0.021309	0.605140
C65	C	0.933927	-0.512226	0.107222
C66	C	1.433927	-0.012226	0.607222
N67	N	1.003181	-0.470202	0.109313
N68	N	1.503181	0.029798	0.609313
N69	N	1.003172	-0.397388	0.109310
N70	N	1.503172	0.102612	0.609310
C71	C	0.933912	-0.364412	0.107216
C72	C	1.433912	0.135588	0.607216
C73	C	0.981841	-0.627956	0.155160
C74	C	1.481841	-0.127956	0.655160
C75	C	0.981856	-0.704601	0.155152
C76	C	1.481856	-0.204601	0.655152
C77	C	0.886052	-0.715986	0.059278
C78	C	1.386052	-0.215986	0.559278
C79	C	0.886045	-0.639341	0.059282
C80	C	1.386045	-0.139341	0.559282
C81	C	0.933938	-0.595331	0.107227
C82	C	1.433938	-0.095331	0.607227
C83	C	1.078495	0.069899	0.101294
C84	C	1.578495	0.569899	0.601294
C85	C	1.166270	0.075190	0.102761
C86	C	1.666270	0.575190	0.602761
C87	C	0.939855	0.053467	-0.037348
C88	C	1.439855	0.553467	0.462652
C89	C	0.938390	0.048182	-0.125123
C90	C	1.438390	0.548182	0.374877
N91	N	0.933959	0.251386	0.107220
N92	N	1.433959	0.751386	0.607220
C93	C	0.937715	0.112072	-0.166354
C94	C	1.437715	0.612072	0.333646
C95	C	0.936333	0.107103	-0.248828
C96	C	1.436333	0.607103	0.251172
C97	C	0.935632	0.038244	-0.290070
C98	C	1.435632	0.538244	0.209930
C99	C	0.936305	-0.025650	-0.248833
C100	C	1.436305	0.474350	0.251167
C101	C	0.937681	-0.020681	-0.166360
C102	C	1.437681	0.479319	0.333640
C103	C	0.931511	0.016266	-0.536727
C104	C	1.431511	0.516266	-0.036727
C105	C	0.930137	0.011302	-0.619206
C106	C	1.430137	0.511302	-0.119206
C107	C	0.930164	0.144056	-0.619194
C108	C	1.430164	0.644056	-0.119194
C109	C	0.931544	0.149019	-0.536721
C110	C	1.431544	0.649019	-0.036721
C111	C	0.932213	0.085124	-0.495491
C112	C	1.432213	0.585124	0.004509
N113	N	0.934223	0.033164	-0.374371
N114	N	1.434223	0.533164	0.125629
N115	N	0.933617	0.090205	-0.411190
N116	N	1.433617	0.590205	0.088810
C117	C	0.927997	0.069902	0.251788
C118	C	1.427997	0.569902	0.751788
C119	C	0.929462	0.075192	0.339564
C120	C	1.429462	0.575192	0.839564
H121	H	0.173914	-0.044771	0.102894
H122	H	0.673914	0.455229	0.602894
H123	H	1.020839	-0.592120	0.194199
H124	H	1.520839	-0.092120	0.694199
H125	H	1.020864	-0.731162	0.194186
H126	H	1.520864	-0.231162	0.694186
H127	H	0.938290	0.168144	-0.132781
H128	H	1.438290	0.668144	0.367219
N129	N	0.332067	-0.049000	0.105515
N130	N	0.832067	0.451000	0.605515
N131	N	0.295231	-0.110477	0.104887
N132	N	0.795231	0.389523	0.604887
H133	H	0.324963	-0.156577	0.105368
H134	H	0.824963	0.343423	0.605368
H135	H	1.020797	-0.124813	0.194189
H136	H	1.520797	0.375187	0.694189
H137	H	0.173950	0.196079	0.102897
H138	H	0.673950	0.696079	0.602897
H139	H	0.847054	-0.751825	0.020251
H140	H	1.347054	-0.251825	0.520251
H141	H	0.932116	0.205091	-0.503147
H142	H	1.432116	0.705091	-0.003147
H143	H	0.932071	-0.035761	-0.503169
H144	H	1.432071	0.464239	-0.003169
H145	H	0.544324	0.159136	0.109064
H146	H	1.044324	0.659136	0.609064
N147	N	0.535739	-0.095988	0.108910
N148	N	1.035739	0.404012	0.608910
N149	N	0.572557	-0.153028	0.109522
N150	N	1.072557	0.346972	0.609522
H151	H	0.542811	-0.202711	0.109019
H152	H	1.042811	0.297289	0.609019
N153	N	0.929482	0.209312	-0.661323
N154	N	1.429482	0.709312	-0.161323
N155	N	0.928256	0.204870	-0.734959
N156	N	1.428256	0.704870	-0.234959
H157	H	0.927773	0.250959	-0.764713
H158	H	1.427773	0.750959	-0.264713
N159	N	0.702455	-0.085936	0.111688
N160	N	1.202455	0.414064	0.611688
N161	N	0.776091	-0.081493	0.112912
N162	N	1.276091	0.418507	0.612912
H163	H	0.805841	-0.127582	0.113404
H164	H	1.305841	0.372418	0.613404
H165	H	0.847015	-0.284517	0.020245
H166	H	1.347015	0.215483	0.520245
H167	H	0.929563	-0.044774	-0.652782
H168	H	1.429563	0.455226	-0.152782
H169	H	0.693940	0.168149	0.111556
H170	H	1.193940	0.668149	0.611556
H171	H	0.935730	-0.081717	-0.282418
H172	H	1.435730	0.418283	0.217582
N173	N	1.030742	-0.270610	0.204122
N174	N	1.530742	0.229390	0.704122
N175	N	1.073500	-0.231306	0.246922
N176	N	1.573500	0.268694	0.746922
H177	H	1.108060	-0.254838	0.281509
H178	H	1.608060	0.245162	0.781509
H179	H	0.323579	0.205089	0.105389
H180	H	0.823579	0.705089	0.605389
H181	H	0.847003	-0.145468	0.020232
H182	H	1.347003	0.354532	0.520232
H183	H	0.847040	-0.612779	0.020249
H184	H	1.347040	-0.112779	0.520249
H185	H	0.935787	0.159129	-0.282394
H186	H	1.435787	0.659129	0.217606
N187	N	0.938362	-0.085951	-0.124252
N188	N	1.438362	0.414049	0.375748
N189	N	0.937733	-0.147429	-0.161082
N190	N	1.437733	0.352571	0.338918
H191	H	0.938209	-0.193529	-0.131344
H192	H	1.438209	0.306471	0.368656
