data_functionalizedCrystal
_audit_creation_method	'MofGen! by Chris Wilmer'
_symmetry_space_group_name_H-M	'P1'
_symmetry_Int_Tables_number	1
_symmetry_cell_setting	triclinic
loop_
_symmetry_equiv_pos_as_xyz
  x,y,z
_cell_length_a	25.639239
_cell_length_b	25.639242
_cell_length_c	25.639234
_cell_angle_alpha	89.969217
_cell_angle_beta	90.024905
_cell_angle_gamma	89.966288
loop_
_atom_site_label
_atom_site_type_symbol
_atom_site_fract_x
_atom_site_fract_y
_atom_site_fract_z
Zn1	Zn	-0.208252	-0.799262	0.295762
Zn2	Zn	-0.295680	-0.799175	0.208327
Zn3	Zn	-0.208253	-0.711828	0.208324
Zn4	Zn	-0.295651	-0.711784	0.295714
O5	O	-0.251959	-0.755512	0.252032
O6	O	-0.219861	-0.872416	0.284185
O7	O	-0.284096	-0.787570	0.135161
O8	O	-0.135088	-0.723481	0.219942
O9	O	-0.284095	-0.872351	0.219946
O10	O	-0.135087	-0.787719	0.284182
O11	O	-0.219863	-0.723396	0.135159
O12	O	-0.219835	-0.638656	0.219896
O13	O	-0.284044	-0.723406	0.368886
O14	O	-0.284045	-0.638624	0.284101
O15	O	-0.219833	-0.787676	0.368921
O16	O	-0.368841	-0.787527	0.219900
O17	O	-0.368820	-0.723321	0.284103
C18	C	-0.251937	-0.619669	0.251993
C19	C	-0.251940	-0.561555	0.251989
C20	C	-0.387801	-0.755424	0.252008
C21	C	-0.445916	-0.755434	0.252015
C22	C	-0.285444	-0.201184	0.285418
C23	C	-0.285447	-0.146580	0.285425
O24	O	-0.313910	-0.118337	0.313824
N25	N	-0.251968	-0.119273	0.252050
C26	C	-0.218480	-0.146573	0.218670
O27	O	-0.190003	-0.118332	0.190283
C28	C	-0.218475	-0.201176	0.218666
C29	C	-0.251960	-0.228481	0.252039
C30	C	-0.318927	-0.228489	0.318789
C31	C	-0.318924	-0.283089	0.318781
C32	C	-0.285440	-0.310385	0.285402
C33	C	-0.251958	-0.283081	0.252032
C34	C	-0.184984	-0.228475	0.185289
C35	C	-0.184982	-0.283082	0.185288
C36	C	-0.218467	-0.310387	0.218662
C37	C	-0.218471	-0.364978	0.218645
N38	N	-0.251951	-0.392285	0.252020
C39	C	-0.285435	-0.364989	0.285399
C40	C	-0.218492	-0.031902	0.218681
C41	C	-0.218499	0.022700	0.218682
C42	C	-0.285466	0.022689	0.285438
C43	C	-0.285461	-0.031914	0.285434
C44	C	-0.251971	-0.059209	0.252056
C45	C	-0.285428	-0.479654	0.285380
C46	C	-0.285425	-0.534259	0.285367
C47	C	-0.218456	-0.534244	0.218614
C48	C	-0.218461	-0.479643	0.218624
C49	C	-0.251949	-0.452349	0.252011
O50	O	-0.190021	-0.393256	0.190262
O51	O	-0.313902	-0.393236	0.313786
C52	C	-0.806277	-0.789031	0.218658
C53	C	-0.860882	-0.789051	0.218665
O54	O	-0.889117	-0.817526	0.190277
N55	N	-0.888198	-0.755604	0.252066
C56	C	-0.860907	-0.722138	0.285467
O57	O	-0.889156	-0.693690	0.313878
C58	C	-0.806304	-0.722120	0.285462
C59	C	-0.778990	-0.755566	0.252055
C60	C	-0.778964	-0.822475	0.185254
C61	C	-0.724363	-0.822454	0.185246
C62	C	-0.697076	-0.788989	0.218643
C63	C	-0.724390	-0.755545	0.252047
C64	C	-0.779014	-0.688657	0.318865
C65	C	-0.724407	-0.688643	0.318857
C66	C	-0.697094	-0.722089	0.285450
C67	C	-0.642502	-0.722059	0.285436
N68	N	-0.615186	-0.755507	0.252035
C69	C	-0.642473	-0.788972	0.218638
C70	C	-0.975578	-0.722177	0.285475
C71	C	-1.030180	-0.722191	0.285477
C72	C	-1.030151	-0.789106	0.218676
C73	C	-0.975547	-0.789089	0.218671
C74	C	-0.948261	-0.755625	0.252073
C75	C	-0.527808	-0.788925	0.218625
C76	C	-0.473202	-0.788899	0.218618
C77	C	-0.473237	-0.721987	0.285421
C78	C	-0.527837	-0.722010	0.285426
C79	C	-0.555121	-0.755483	0.252026
O80	O	-0.614232	-0.693601	0.313811
O81	O	-0.614218	-0.817419	0.190236
C82	C	-0.115586	-0.755614	0.252067
C83	C	-0.057472	-0.755658	0.252082
C84	C	-0.251935	-0.755546	0.388405
C85	C	-0.251925	-0.755560	0.446519
C86	C	-0.251979	0.108115	0.252065
C87	C	-0.251982	0.050001	0.252063
C88	C	-0.251945	-0.755508	0.116189
C89	C	-0.251808	-0.755595	0.058076
C90	C	-0.218417	-0.722160	0.806887
C91	C	-0.218407	-0.722163	0.861491
O92	O	-0.189975	-0.693738	0.889732
N93	N	-0.251843	-0.755578	0.888802
C94	C	-0.285294	-0.788989	0.861505
O95	O	-0.313733	-0.817411	0.889749
C96	C	-0.285306	-0.788983	0.806902
C97	C	-0.251864	-0.755569	0.779594
C98	C	-0.184978	-0.688749	0.779579
C99	C	-0.184987	-0.688747	0.724978
C100	C	-0.218435	-0.722156	0.697686
C101	C	-0.251873	-0.755567	0.724993
C102	C	-0.318759	-0.822390	0.779606
C103	C	-0.318768	-0.822381	0.724999
C104	C	-0.285326	-0.788968	0.697691
C105	C	-0.285329	-0.788974	0.643100
N106	N	-0.251894	-0.755559	0.615789
C107	C	-0.218446	-0.722150	0.643082
C108	C	-0.285267	-0.788998	0.976176
C109	C	-0.285253	-0.789006	1.030778
C110	C	-0.218367	-0.722180	1.030760
C111	C	-0.218379	-0.722174	0.976157
C112	C	-0.251832	-0.755583	0.948865
C113	C	-0.218467	-0.722149	0.528417
C114	C	-0.218478	-0.722151	0.473812
C115	C	-0.285365	-0.788976	0.473834
C116	C	-0.285353	-0.788975	0.528435
C117	C	-0.251902	-0.755558	0.555725
O118	O	-0.313748	-0.817383	0.614825
O119	O	-0.190017	-0.693728	0.614832
H120	H	-0.312695	-0.556488	0.312544
O121	O	-0.697846	-0.656108	0.351232
C122	C	-0.666320	-0.622331	0.321429
H123	H	-0.658140	-0.640787	0.281824
H124	H	-0.627920	-0.615296	0.342716
H125	H	-0.687407	-0.583597	0.315645
H126	H	-0.346191	-0.305316	0.345958
H127	H	-0.157707	-0.305303	0.158110
O128	O	-0.152479	-0.202029	0.152791
C129	C	-0.163848	-0.215341	0.100664
H130	H	-0.183958	-0.254968	0.099558
H131	H	-0.126082	-0.217239	0.077288
H132	H	-0.190695	-0.184582	0.082995
O133	O	-0.186004	-0.560824	0.186167
C134	C	-0.215724	-0.592363	0.152334
H135	H	-0.255374	-0.600526	0.170698
H136	H	-0.194420	-0.630771	0.145369
H137	H	-0.221410	-0.571297	0.113575
H138	H	-0.157758	-0.661536	0.702749
H139	H	-0.550077	-0.694777	0.312630
H140	H	-1.052378	-0.816357	0.191485
H141	H	-0.801175	-0.849729	0.158058
O142	O	-0.351282	-0.854884	0.698569
C143	C	-0.380803	-0.884362	0.734386
H144	H	-0.359379	-0.886192	0.773314
H145	H	-0.386396	-0.925551	0.718629
H146	H	-0.420505	-0.865181	0.740175
H147	H	-0.451011	-0.694738	0.312611
O148	O	-0.185976	-0.689641	0.447366
C149	C	-0.156446	-0.660163	0.483169
H150	H	-0.177857	-0.658341	0.522085
H151	H	-0.150865	-0.618971	0.467376
H152	H	-0.116739	-0.679339	0.488997
H153	H	-0.953312	-0.816324	0.191469
H154	H	-0.312729	0.044924	0.312618
H155	H	-1.052414	-0.694951	0.312676
O156	O	-0.185947	-0.689762	0.554980
C157	C	-0.152166	-0.719555	0.586577
H158	H	-0.170612	-0.759162	0.594778
H159	H	-0.145143	-0.698262	0.624962
H160	H	-0.113427	-0.725332	0.565542
O161	O	-0.317911	-0.821351	0.447291
C162	C	-0.351665	-0.791546	0.415676
H163	H	-0.354881	-0.750368	0.432118
H164	H	-0.391908	-0.810420	0.415047
H165	H	-0.335502	-0.789749	0.374298
O166	O	-0.152434	-0.656277	0.806005
C167	C	-0.122938	-0.626781	0.770183
H168	H	-0.121150	-0.648199	0.731272
H169	H	-0.081736	-0.621239	0.785957
H170	H	-0.142077	-0.587056	0.764353
O171	O	-0.317930	-0.058412	0.317930
C172	C	-0.306583	-0.045091	0.370060
H173	H	-0.264819	-0.030105	0.372774
H174	H	-0.311121	-0.081011	0.395884
H175	H	-0.334635	-0.013388	0.383674
H176	H	-0.312696	-0.457438	0.312568
H177	H	-0.346194	-0.206270	0.345973
H178	H	-0.953364	-0.694922	0.312673
H179	H	-0.191237	0.044927	0.191501
H180	H	-0.702128	-0.849690	0.158045
O181	O	-0.554245	-0.821514	0.186204
C182	C	-0.540845	-0.873611	0.197697
H183	H	-0.501191	-0.874659	0.217801
H184	H	-0.538961	-0.897074	0.159989
H185	H	-0.571546	-0.891225	0.224594
H186	H	-0.191221	-0.054123	0.191497
O187	O	-0.805457	-0.656152	0.351368
C188	C	-0.769653	-0.626610	0.380832
H189	H	-0.730711	-0.648016	0.382652
H190	H	-0.785404	-0.621018	0.422026
H191	H	-0.763892	-0.586908	0.361645
H192	H	-0.312505	-0.816209	0.953958
O193	O	-0.185881	-0.689664	0.949713
C194	C	-0.156350	-0.660190	0.985518
H195	H	-0.177758	-0.658374	1.024436
H196	H	-0.150770	-0.618996	0.969731
H197	H	-0.116642	-0.679367	0.991342
H198	H	-0.312479	-0.816221	1.053007
O199	O	-0.185956	-0.689662	1.057299
C200	C	-0.215720	-0.655886	1.088867
H201	H	-0.256900	-0.652632	1.072396
H202	H	-0.196810	-0.615660	1.089474
H203	H	-0.217517	-0.672053	1.130257
O204	O	-0.351168	-0.854909	0.806143
C205	C	-0.321407	-0.888703	0.837757
H206	H	-0.280228	-0.891955	0.821321
H207	H	-0.340322	-0.928926	0.838374
H208	H	-0.319605	-0.872554	0.879138
H209	H	-0.191196	-0.457411	0.191448
O210	O	-0.317883	-0.821453	0.554884
C211	C	-0.347393	-0.850952	0.519083
H212	H	-0.349204	-0.829535	0.480147
H213	H	-0.388587	-0.856499	0.534848
H214	H	-0.328254	-0.890675	0.513303
H215	H	-0.450965	-0.816135	0.191412
