data_functionalizedCrystal
_audit_creation_method	'MofGen! by Chris Wilmer'
_symmetry_space_group_name_H-M	'P1'
_symmetry_Int_Tables_number	1
_symmetry_cell_setting	triclinic
loop_
_symmetry_equiv_pos_as_xyz
  x,y,z
_cell_length_a	16.992694
_cell_length_b	26.210047
_cell_length_c	16.974813
_cell_angle_alpha	93.650064
_cell_angle_beta	87.024634
_cell_angle_gamma	90.003955
loop_
_atom_site_label
_atom_site_type_symbol
_atom_site_fract_x
_atom_site_fract_y
_atom_site_fract_z
O1	O	1.040218	0.049286	0.167637
O2	O	0.811935	0.049225	0.165797
O3	O	0.932440	0.044516	0.052017
O4	O	0.919713	0.053994	0.281417
O5	O	0.932416	-0.040341	0.052034
O6	O	0.811912	-0.035633	0.165815
O7	O	1.040195	-0.035572	0.167654
Cu8	Cu	0.926051	-0.043350	0.166736
Cu9	Cu	0.926079	0.057003	0.166715
O10	O	0.919690	-0.030864	0.281435
C11	C	0.782713	0.006700	0.163440
C12	C	0.695677	0.006414	0.156381
N13	N	0.926038	-0.113934	0.166750
C14	C	0.645363	0.009228	0.224495
C15	C	0.563584	0.008947	0.217858
C16	C	0.532119	0.005855	0.143104
C17	C	0.582439	0.003040	0.074984
C18	C	0.664217	0.003318	0.081623
C19	C	0.288551	0.004705	0.115590
C20	C	0.206767	0.004429	0.108956
C21	C	0.187917	0.010335	0.251830
C22	C	0.269697	0.010616	0.258462
C23	C	0.320010	0.007797	0.190342
N24	N	0.448528	0.005569	0.136317
N25	N	0.403600	0.008080	0.197130
C26	C	0.979433	-0.468534	0.116345
C27	C	0.979450	-0.682193	0.116335
O28	O	1.024818	-0.711588	0.073480
N29	N	0.926083	-0.706830	0.166698
C30	C	0.872704	-0.678049	0.217064
O31	O	0.827307	-0.703907	0.259894
C32	C	0.872684	-0.464391	0.217069
C33	C	0.926060	-0.439757	0.166708
C34	C	1.032804	-0.443899	0.065988
C35	C	1.032802	-0.390487	0.065994
C36	C	0.979429	-0.361710	0.116357
C37	C	0.926058	-0.386345	0.166714
C38	C	0.819302	-0.435612	0.267430
C39	C	0.819300	-0.382194	0.267425
C40	C	0.872676	-0.357559	0.217065
C41	C	0.872683	-0.304156	0.217084
N42	N	0.926050	-0.279519	0.166721
C43	C	0.979423	-0.308296	0.116357
C44	C	0.872720	-0.790223	0.217058
C45	C	0.872726	-0.843637	0.217058
C46	C	0.979471	-0.847777	0.116329
C47	C	0.979468	-0.794361	0.116333
C48	C	0.926087	-0.765585	0.166696
C49	C	0.979415	-0.196127	0.116374
C50	C	0.979411	-0.142711	0.116387
C51	C	0.872663	-0.138576	0.217114
C52	C	0.872670	-0.191987	0.217104
C53	C	0.926049	-0.220762	0.166728
O54	O	0.827332	-0.274729	0.259910
O55	O	1.024802	-0.282429	0.073521
C56	C	0.979435	-0.521945	0.116339
C57	C	0.926064	-0.546580	0.166696
C58	C	0.872691	-0.517803	0.217059
C59	C	0.926070	-0.599994	0.166696
C60	C	0.979443	-0.628771	0.116333
C61	C	1.032810	-0.604134	0.065970
C62	C	1.032808	-0.550722	0.065976
C63	C	0.819324	-0.542440	0.267422
C64	C	0.819330	-0.595852	0.267413
C65	C	0.872704	-0.624629	0.217050
C66	C	1.069417	0.006954	0.170011
C67	C	1.156453	0.007243	0.177071
C68	C	0.931944	0.000871	0.022537
C69	C	0.930491	-0.002756	-0.065331
N70	N	0.926099	0.127586	0.166695
C71	C	0.929823	0.041796	-0.106616
C72	C	0.928453	0.038387	-0.189177
C73	C	0.927756	-0.009575	-0.230451
C74	C	0.928422	-0.054130	-0.189160
C75	C	0.929787	-0.050720	-0.106600
C76	C	0.923669	-0.024732	-0.477367
C77	C	0.922307	-0.028138	-0.559932
C78	C	0.922336	0.064378	-0.559944
C79	C	0.923705	0.067784	-0.477383
C80	C	0.924367	0.023229	-0.436098
N81	N	0.926359	-0.013061	-0.314842
N82	N	0.925759	0.026715	-0.351709
C83	C	0.920186	0.012783	0.310915
C84	C	0.921639	0.016413	0.398782
H85	H	0.522621	0.011239	0.273324
H86	H	0.927912	0.074665	-0.222788
H87	H	1.076271	-0.627573	0.024965
C88	C	0.921599	0.113386	-0.605358
C89	C	0.989845	0.151820	-0.598692
C90	C	0.989105	0.200830	-0.644106
C91	C	0.920118	0.211406	-0.696186
C92	C	0.851867	0.172970	-0.702854
C93	C	0.852608	0.123960	-0.657440
H94	H	1.040918	0.143992	-0.560138
H95	H	1.039629	0.229282	-0.639170
H96	H	0.919570	0.247686	-0.729804
H97	H	0.800795	0.180798	-0.741408
H98	H	0.802084	0.095508	-0.662376
C99	C	0.760582	-0.462702	0.322822
C100	C	0.671309	-0.455647	0.315785
C101	C	0.612585	-0.482738	0.371179
C102	C	0.643133	-0.516884	0.433608
C103	C	0.732411	-0.523940	0.440648
C104	C	0.791136	-0.496849	0.385254
H105	H	0.648691	-0.430369	0.269569
H106	H	0.546495	-0.477514	0.365967
H107	H	0.599662	-0.536938	0.474614
H108	H	0.755029	-0.549218	0.486864
H109	H	0.857225	-0.502073	0.390466
C110	C	0.930524	-0.099728	-0.061184
C111	C	0.999504	-0.110305	-0.009098
C112	C	1.000237	-0.159315	0.036317
C113	C	0.931988	-0.197747	0.029646
C114	C	0.863003	-0.187171	-0.022442
C115	C	0.862270	-0.138161	-0.067857
H116	H	1.050030	-0.081855	-0.004158
H117	H	1.051305	-0.167144	0.074876
H118	H	0.932531	-0.234027	0.063265
H119	H	0.812477	-0.215622	-0.027382
H120	H	0.811202	-0.130332	-0.106416
H121	H	0.670975	0.011746	0.285368
H122	H	0.921736	-0.067196	-0.593535
C123	C	0.924457	0.120542	-0.431982
C124	C	0.923711	0.169550	-0.477394
C125	C	0.924460	0.222309	-0.431993
C126	C	0.925956	0.226060	-0.341181
C127	C	0.926702	0.177051	-0.295764
C128	C	0.925952	0.124292	-0.341165
H129	H	0.922604	0.166774	-0.544624
H130	H	0.923908	0.258589	-0.465615
H131	H	0.926511	0.265115	-0.307572
H132	H	0.927809	0.179826	-0.228534
H133	H	0.926504	0.088012	-0.307543
C134	C	0.813960	-0.219087	0.272506
C135	C	0.724685	-0.212030	0.265484
C136	C	0.665969	-0.239124	0.320881
C137	C	0.696527	-0.273274	0.383300
C138	C	0.785806	-0.280332	0.390324
C139	C	0.844523	-0.253238	0.334927
H140	H	0.702061	-0.186749	0.219275
H141	H	0.599878	-0.233899	0.315680
H142	H	0.653061	-0.293331	0.424308
H143	H	0.808431	-0.305614	0.436533
H144	H	0.910614	-0.258463	0.340128
C145	C	0.927652	-0.106886	-0.234566
C146	C	0.858660	-0.121746	-0.286648
C147	C	0.857890	-0.174503	-0.332055
C148	C	0.926112	-0.212398	-0.325381
C149	C	0.995108	-0.197539	-0.273297
C150	C	0.995878	-0.144782	-0.227889
H151	H	0.808154	-0.093693	-0.291590
H152	H	0.806814	-0.185503	-0.370611
H153	H	0.925542	-0.251452	-0.358994
H154	H	1.045614	-0.225592	-0.268354
H155	H	1.046954	-0.133782	-0.189333
C156	C	0.813951	-0.106916	0.272509
C157	C	0.813948	-0.048163	0.272506
C158	C	0.755230	-0.016502	0.327897
C159	C	0.696517	-0.043595	0.383292
C160	C	0.696518	-0.102352	0.383298
C161	C	0.755235	-0.134012	0.327906
H162	H	0.857413	-0.028104	0.231497
H163	H	0.755230	0.026994	0.327893
H164	H	0.653051	-0.020158	0.424296
H165	H	0.653053	-0.122410	0.424306
H166	H	0.755236	-0.177508	0.327911
H167	H	0.146944	0.012628	0.307290
C168	C	0.304306	0.014014	0.340693
C169	C	0.248962	0.017108	0.415621
C170	C	0.283571	0.020509	0.497852
C171	C	0.373523	0.020817	0.505156
C172	C	0.428872	0.017723	0.430225
C173	C	0.394263	0.014322	0.347994
H174	H	0.182369	0.016880	0.410216
H175	H	0.242597	0.022799	0.553320
H176	H	0.399142	0.023334	0.566028
H177	H	0.495465	0.017951	0.435630
H178	H	0.435237	0.012031	0.292526
H179	H	0.775860	-0.519014	0.308433
C180	C	0.172150	0.001026	0.026724
C181	C	0.118511	-0.044039	0.002537
C182	C	0.083892	-0.047440	-0.079689
C183	C	0.102911	-0.005778	-0.137729
C184	C	0.156553	0.039290	-0.113543
C185	C	0.191172	0.042692	-0.031317
H186	H	0.104430	-0.074883	0.045502
H187	H	0.044183	-0.080803	-0.097593
H188	H	0.077284	-0.008296	-0.198598
H189	H	0.170634	0.070134	-0.156509
H190	H	0.230881	0.076054	-0.013414
C191	C	0.343884	0.001612	0.040657
C192	C	0.340407	-0.044922	-0.019185
C193	C	0.395744	-0.048013	-0.094123
C194	C	0.454557	-0.004570	-0.109220
C195	C	0.458036	0.041968	-0.049377
C196	C	0.402700	0.045059	0.025561
H197	H	0.296868	-0.077084	-0.008011
H198	H	0.393168	-0.082464	-0.138422
H199	H	0.495520	-0.006858	-0.164693
H200	H	0.501575	0.074130	-0.060551
H201	H	0.405276	0.079509	0.069861
C202	C	0.719566	0.000224	0.006696
C203	C	0.716096	-0.046314	-0.053140
C204	C	0.771445	-0.049411	-0.128069
C205	C	0.830263	-0.005970	-0.143163
C206	C	0.833735	0.040571	-0.083326
C207	C	0.778386	0.043668	-0.008397
H208	H	0.672553	-0.078475	-0.041968
H209	H	0.768874	-0.083864	-0.172364
H210	H	0.871235	-0.008263	-0.198630
H211	H	0.877278	0.072732	-0.094498
H212	H	0.780957	0.078121	0.035899
H213	H	0.556814	0.000516	0.014118
H214	H	0.829249	-0.766796	0.258071
H215	H	0.775828	-0.358767	0.308435
C216	C	1.091518	-0.523628	0.010573
C217	C	1.090301	-0.534692	-0.079544
C218	C	1.149013	-0.507603	-0.134951
C219	C	1.208943	-0.469449	-0.100240
C220	C	1.210163	-0.458383	-0.010118
C221	C	1.151450	-0.485473	0.045289
H222	H	1.045935	-0.562938	-0.105243
H223	H	1.148110	-0.515794	-0.201665
H224	H	1.252405	-0.449395	-0.141256
H225	H	1.254528	-0.430138	0.015581
H226	H	1.152354	-0.477281	0.112003
H227	H	0.775867	-0.615905	0.308430
C228	C	1.091508	-0.363392	0.010589
C229	C	1.090285	-0.374457	-0.079528
C230	C	1.148991	-0.347365	-0.134939
C231	C	1.208921	-0.309209	-0.100233
C232	C	1.210146	-0.298143	-0.010112
C233	C	1.151440	-0.325234	0.045299
H234	H	1.045920	-0.402704	-0.105224
H235	H	1.148084	-0.355558	-0.201653
H236	H	1.252378	-0.289155	-0.141252
H237	H	1.254511	-0.269896	0.015584
H238	H	1.152347	-0.317042	0.112014
C239	C	1.038177	-0.767266	0.060931
C240	C	1.036963	-0.778332	-0.029186
C241	C	1.095673	-0.751240	-0.084593
C242	C	1.155598	-0.713083	-0.049882
C243	C	1.156815	-0.702016	0.040240
C244	C	1.098104	-0.729107	0.095647
H245	H	0.992601	-0.806580	-0.054885
H246	H	1.094772	-0.759434	-0.151307
H247	H	1.199059	-0.693028	-0.090897
H248	H	1.201177	-0.673768	0.065939
H249	H	1.099005	-0.720914	0.162361
C250	C	0.930589	0.094554	-0.061218
C251	C	0.999580	0.109425	-0.009142
C252	C	1.000343	0.162185	0.036254
C253	C	0.932114	0.200075	0.029575
C254	C	0.863118	0.185205	-0.022504
C255	C	0.862355	0.132445	-0.067900
H256	H	1.050091	0.081376	-0.004195
H257	H	1.051419	0.173193	0.074806
H258	H	0.932679	0.239131	0.063179
H259	H	0.812607	0.213254	-0.027451
H260	H	0.811279	0.121437	-0.106452
H261	H	1.022878	-0.122655	0.075378
H262	H	1.022880	-0.219550	0.075353
H263	H	1.076267	-0.467325	0.024973
H264	H	1.022930	-0.871216	0.075322
H265	H	0.924223	-0.061012	-0.443764
H266	H	0.829270	-0.863690	0.258075
