data_functionalizedCrystal
_audit_creation_method	'MofGen! by Chris Wilmer'
_symmetry_space_group_name_H-M	'P1'
_symmetry_Int_Tables_number	1
_symmetry_cell_setting	triclinic
loop_
_symmetry_equiv_pos_as_xyz
  x,y,z
_cell_length_a	11.792241
_cell_length_b	15.995350
_cell_length_c	10.868271
_cell_angle_alpha	89.997096
_cell_angle_beta	89.999893
_cell_angle_gamma	83.842895
loop_
_atom_site_label
_atom_site_type_symbol
_atom_site_fract_x
_atom_site_fract_y
_atom_site_fract_z
O1	O	1.505951	0.114763	-0.102196
O2	O	1.175511	0.126591	-0.102224
O3	O	1.349764	-0.001170	-0.102208
O4	O	1.331698	0.242524	-0.102212
O5	O	1.349750	-0.001175	0.102436
O6	O	1.175497	0.126586	0.102420
O7	O	1.505937	0.114758	0.102448
Zn8	Zn	1.340715	0.120671	0.134926
Zn9	Zn	1.340734	0.120678	-0.134702
O10	O	1.331684	0.242519	0.102432
C11	C	1.133220	0.125845	0.000094
C12	C	1.007224	0.123621	0.000084
C13	C	0.776546	0.119532	0.000119
C14	C	0.904913	0.121804	0.000099
C15	C	1.349010	-0.032370	0.000112
C16	C	1.346771	-0.125331	0.000104
C17	C	1.338730	-0.463115	0.000108
C18	C	1.214630	-0.416244	-0.000362
C19	C	1.216870	-0.319544	0.000100
C20	C	1.342718	-0.295536	0.000105
C21	C	1.403921	-0.336339	0.116971
C22	C	1.400803	-0.432989	0.117068
C23	C	1.403383	-0.433329	-0.115651
C24	C	1.403354	-0.336384	-0.117195
C25	C	1.344979	-0.200829	0.000108
C26	C	1.336473	-0.557823	0.000113
C27	C	1.548229	0.115504	0.000127
C28	C	1.674224	0.117727	0.000130
C29	C	1.332438	0.273719	0.000110
C30	C	1.334677	0.366680	0.000109
N31	N	1.340710	0.120666	0.318940
N32	N	1.340747	0.120676	-0.318716
C33	C	1.340728	0.120676	0.569946
C34	C	1.340714	0.120673	0.430269
H35	H	1.168760	-0.291338	-0.083674
C36	C	1.525640	-0.315184	-0.126804
C37	C	1.539437	-0.271844	-0.236802
C38	C	1.652061	-0.252269	-0.245679
H39	H	1.576205	-0.365578	-0.125900
H40	H	1.542109	-0.280894	-0.059117
H41	H	1.522981	-0.306133	-0.304472
H42	H	1.488898	-0.221441	-0.237732
H43	H	1.668530	-0.217979	-0.177992
H44	H	1.702617	-0.302667	-0.244770
H45	H	1.661434	-0.222854	-0.320306
H46	H	1.361401	-0.308152	0.203934
C47	C	1.525303	-0.475283	-0.116778
C48	C	1.524339	-0.562684	-0.121236
C49	C	1.636624	-0.601363	-0.122283
H50	H	1.563465	-0.460430	-0.044307
H51	H	1.563959	-0.457093	-0.186957
H52	H	1.485700	-0.580867	-0.051064
H53	H	1.486199	-0.577561	-0.193703
H54	H	1.675280	-0.583174	-0.192462
H55	H	1.674777	-0.586504	-0.049810
H56	H	1.635985	-0.660668	-0.125320
H57	H	1.165243	-0.436064	0.082970
C58	C	1.148656	-0.441393	-0.112143
C59	C	1.218296	-0.499452	-0.182642
C60	C	1.157553	-0.522654	-0.285616
H61	H	1.125821	-0.392990	-0.160405
H62	H	1.083051	-0.466168	-0.085906
H63	H	1.283880	-0.474676	-0.208880
H64	H	1.241133	-0.547868	-0.134416
H65	H	1.091948	-0.547428	-0.259379
H66	H	1.134721	-0.474246	-0.333868
H67	H	1.204791	-0.562054	-0.333456
H68	H	1.168425	-0.291901	0.084008
H69	H	1.356162	-0.451495	0.204423
H70	H	1.362815	-0.454051	-0.204227
H71	H	1.491915	-0.464823	0.122375
H72	H	1.358607	-0.309336	-0.203649
C73	C	1.527277	-0.317115	0.122716
C74	C	1.599550	-0.392504	0.121075
C75	C	1.713192	-0.374827	0.126346
H76	H	1.539314	-0.287298	0.196331
H77	H	1.543309	-0.283810	0.053768
H78	H	1.583524	-0.425796	0.190016
H79	H	1.587549	-0.422332	0.047465
H80	H	1.729224	-0.341522	0.057399
H81	H	1.725217	-0.345008	0.199962
H82	H	1.762244	-0.425974	0.125222
