data_functionalizedCrystal
_audit_creation_method	'MofGen! by Chris Wilmer'
_symmetry_space_group_name_H-M	'P1'
_symmetry_Int_Tables_number	1
_symmetry_cell_setting	triclinic
loop_
_symmetry_equiv_pos_as_xyz
  x,y,z
_cell_length_a	14.560432
_cell_length_b	21.606444
_cell_length_c	21.606444
_cell_angle_alpha	59.991153
_cell_angle_beta	90.002679
_cell_angle_gamma	60.003068
loop_
_atom_site_label
_atom_site_type_symbol
_atom_site_fract_x
_atom_site_fract_y
_atom_site_fract_z
Zr1	Zr	0.884767	0.677503	-0.081321
O2	O	0.738112	0.806639	-0.180172
O3	O	0.929724	0.548371	-0.051003
O4	O	0.929716	0.677507	-0.180147
O5	O	0.738129	0.677499	0.050827
O6	O	1.080856	0.677505	-0.180144
O7	O	0.738121	0.677504	-0.051028
O8	O	1.080872	0.446505	0.050871
O9	O	0.738113	0.908500	-0.180189
O10	O	1.061693	0.601482	-0.038088
O11	O	0.948904	0.601480	0.037922
O12	O	0.948894	0.753521	-0.114128
O13	O	0.836105	0.753519	-0.038118
Zr14	Zr	1.125832	0.677494	0.081129
Zr15	Zr	1.125820	0.677501	-0.081316
Zr16	Zr	0.884780	0.677496	0.081125
Zr17	Zr	0.884769	0.839958	-0.081348
Zr18	Zr	1.125830	0.515038	0.081156
O19	O	1.080875	0.806626	0.050811
O20	O	1.080858	0.806636	-0.180166
O21	O	0.738130	0.806629	0.050805
O22	O	1.272487	0.548357	0.179980
O23	O	1.272470	0.548367	-0.050997
O24	O	0.929742	0.548361	0.179974
O25	O	1.272471	0.677498	-0.051018
O26	O	1.080884	0.677490	0.179955
O27	O	0.929743	0.677492	0.179952
O28	O	1.272478	0.677493	0.050836
O29	O	0.929718	0.908497	-0.180185
O30	O	1.080882	0.446499	0.179994
O31	O	1.272486	0.446497	0.179997
O32	O	1.272476	0.446503	0.050875
O33	O	0.738123	0.908494	-0.051066
O34	O	0.929727	0.908492	-0.051063
O35	O	1.061705	0.601476	0.113937
O36	O	1.174494	0.601478	0.037926
O37	O	1.061695	0.753517	-0.038114
O38	O	0.948906	0.753515	0.037897
C39	C	1.005298	0.474292	-0.000062
C40	C	1.005297	0.405325	-0.000050
C41	C	0.922025	0.429063	-0.056180
C42	C	0.922028	0.364274	-0.056196
C43	C	1.005299	0.275747	-0.000078
C44	C	1.088580	0.252009	0.056055
C45	C	1.088581	0.316798	0.056067
C46	C	1.088579	-0.009277	0.056007
C47	C	1.088570	-0.074066	0.055992
C48	C	0.922027	0.038199	-0.056255
C49	C	0.922028	0.102988	-0.056243
C50	C	1.005311	0.079244	-0.000113
C51	C	1.005308	0.149497	-0.000098
C52	C	1.005299	0.205495	-0.000090
C53	C	0.703780	0.677502	-0.000101
C54	C	0.601447	0.677503	-0.000103
C55	C	0.601414	0.677518	-0.112337
C56	C	0.553321	0.677529	-0.168454
C57	C	0.457171	0.677529	-0.168452
C58	C	0.409115	0.677516	-0.112325
C59	C	0.457208	0.677505	-0.056208
C60	C	0.553358	0.677508	-0.056218
C61	C	0.457246	0.677483	0.056028
C62	C	0.553391	0.677489	0.056024
C63	C	0.409189	0.677470	0.112155
C64	C	0.457278	0.677465	0.168270
C65	C	0.553433	0.677466	0.168265
C66	C	0.601484	0.677479	0.112141
C67	C	1.306819	0.677495	-0.000091
C68	C	1.409152	0.677494	-0.000089
C69	C	1.005284	0.677507	-0.203290
C70	C	1.005279	0.677510	-0.272253
C71	C	1.005301	0.880705	-0.000130
C72	C	1.005302	0.949672	-0.000141
C73	C	0.946399	0.756872	-0.344344
C74	C	0.946408	0.756870	-0.409138
C75	C	1.005293	0.677504	-0.401841
C76	C	1.064180	0.598136	-0.329743
C77	C	1.064177	0.598140	-0.264949
C78	C	1.064198	0.598121	-0.591046
C79	C	1.064195	0.598124	-0.655846
C80	C	0.946430	0.756851	-0.735235
C81	C	0.946426	0.756855	-0.670441
C82	C	1.005318	0.677487	-0.598349
C83	C	1.005309	0.677491	-0.528092
C84	C	1.005296	0.677500	-0.472097
C85	C	1.005315	0.677490	0.203099
C86	C	1.005320	0.677487	0.272061
C87	C	1.306818	0.474288	-0.000057
C88	C	1.409150	0.405321	-0.000043
C89	C	1.005313	0.474283	0.203133
C90	C	1.005318	0.405314	0.272107
C91	C	1.306833	0.474280	0.203138
C92	C	1.409170	0.405309	0.272114
C93	C	0.703766	0.880717	-0.203330
C94	C	0.601429	0.949688	-0.272305
C95	C	0.703782	0.880709	-0.000135
C96	C	0.601449	0.949676	-0.000148
C97	C	1.005286	0.880714	-0.203324
C98	C	1.005281	0.949683	-0.272298
C99	C	1.398326	0.372935	-0.039723
C100	C	1.494469	0.308142	-0.039725
C101	C	1.601435	0.275731	-0.000044
C102	C	1.612257	0.308123	0.039637
C103	C	1.516115	0.372919	0.039635
C104	C	1.064201	0.372922	0.344183
C105	C	1.064201	0.308127	0.408998
C106	C	1.005324	0.275720	0.401734
C107	C	0.946434	0.308118	0.329650
C108	C	0.946428	0.372916	0.264837
C109	C	1.516114	0.372921	0.264829
C110	C	1.612280	0.308125	0.329633
C111	C	1.601501	0.275713	0.401721
C112	C	1.494546	0.308108	0.409004
C113	C	1.398382	0.372907	0.344201
C114	C	0.494485	0.982084	-0.265020
C115	C	0.398319	1.046900	-0.329824
C116	C	0.409099	1.079315	-0.401912
C117	C	0.516054	1.046916	-0.409196
C118	C	0.612217	0.982105	-0.344393
C119	C	0.612274	0.982069	0.039524
C120	C	0.516131	1.046880	0.039509
C121	C	0.409164	1.079293	-0.000175
C122	C	0.398342	1.046898	-0.039852
C123	C	0.494484	0.982092	-0.039841
C124	C	1.064170	0.982070	-0.265010
C125	C	1.064187	1.046865	-0.329813
C126	C	1.005309	1.079278	-0.401902
C127	C	0.946419	1.046885	-0.409188
C128	C	0.946409	0.982086	-0.344387
H129	H	0.854216	0.175069	-0.101938
C130	C	1.729918	0.272474	0.321611
H131	H	1.785654	0.229240	0.370526
H132	H	1.738317	0.247195	0.294697
H133	H	1.738362	0.318992	0.294670
H134	H	1.156394	-0.028620	0.101711
H135	H	1.679711	0.222968	-0.000047
C136	C	0.881578	1.082594	-0.488487
H137	H	0.846482	1.054041	-0.483554
H138	H	0.825884	1.143772	-0.515377
H139	H	0.932353	1.072002	-0.515448
H140	H	1.524944	0.399279	0.071951
C141	C	0.280681	1.082525	-0.321803
H142	H	0.224945	1.125775	-0.370718
H143	H	0.272255	1.036001	-0.294876
H144	H	0.272265	1.107794	-0.294874
H145	H	1.112123	0.533515	-0.206250
C146	C	0.881631	0.844175	-0.352377
H147	H	0.846576	0.891440	-0.404594
H148	H	0.825911	0.847483	-0.328755
H149	H	0.932463	0.847471	-0.328749
C150	C	0.280679	1.082550	-0.083496
H151	H	0.287990	1.053984	-0.107129
H152	H	0.240737	1.071928	-0.049238
H153	H	0.240724	1.143735	-0.121056
H154	H	0.898482	0.399280	0.206152
H155	H	0.592590	0.677452	0.213964
H156	H	1.679812	0.222949	0.454481
H157	H	1.699362	0.281724	0.071944
C158	C	1.482702	0.272442	0.488303
H159	H	1.555296	0.229204	0.525848
H160	H	1.442754	0.318949	0.493995
H161	H	1.442766	0.247147	0.493993
C162	C	1.128953	0.408570	0.352188
H163	H	1.164003	0.380001	0.404401
H164	H	1.184676	0.397953	0.328569
H165	H	1.078112	0.469754	0.328546
C166	C	0.303418	1.150575	-0.000179
H167	H	0.325195	1.165215	0.029140
H168	H	0.259911	1.201142	-0.050737
H169	H	0.259922	1.129334	0.021077
H170	H	1.112131	0.533516	-0.323805
H171	H	1.005338	0.222957	0.454515
H172	H	1.156385	0.179925	0.101744
C173	C	1.128945	0.946425	-0.185721
H174	H	1.164024	0.974994	-0.190672
H175	H	1.078133	0.957047	-0.158793
H176	H	1.184665	0.885241	-0.158786
C177	C	0.830424	0.064315	-0.118004
H178	H	0.842352	0.013053	-0.109982
H179	H	0.758545	0.097985	-0.115678
H180	H	0.833878	0.098008	-0.166448
C181	C	1.527994	0.408564	0.185540
H182	H	1.605465	0.379994	0.190494
H183	H	1.492939	0.397943	0.158612
H184	H	1.492928	0.469748	0.158605
H185	H	0.898498	0.281722	0.323747
H186	H	0.592458	0.677538	-0.214151
H187	H	0.485655	0.955720	-0.072145
H188	H	1.311237	0.399324	-0.072045
H189	H	1.112141	1.073233	-0.323865
C190	C	1.280747	0.408524	0.352220
H191	H	1.225010	0.451763	0.303305
H192	H	1.272335	0.361993	0.379157
H193	H	1.272320	0.433806	0.379139
H194	H	1.156389	0.297464	0.101773
C195	C	1.482544	0.272513	-0.083366
H196	H	1.405068	0.301088	-0.106985
H197	H	1.517585	0.283138	-0.120925
H198	H	1.517609	0.211329	-0.049102
C199	C	0.729852	0.946442	-0.352412
H200	H	0.785589	0.903196	-0.303497
H201	H	0.738232	0.921177	-0.379336
H202	H	0.738312	0.992952	-0.379344
H203	H	0.485686	0.955696	-0.206328
H204	H	1.112160	0.281757	0.467685
C205	C	0.830426	0.526440	-0.117907
H206	H	0.842343	0.561628	-0.109859
H207	H	0.833873	0.538896	-0.166354
H208	H	0.758544	0.538872	-0.115581
C209	C	1.005320	1.150561	-0.473177
H210	H	1.048818	1.165210	-0.458505
H211	H	1.036840	1.129333	-0.502492
H212	H	0.930300	1.201131	-0.502497
H213	H	0.330787	1.132088	-0.454673
C214	C	0.404265	0.677542	-0.230179
H215	H	0.446649	0.677555	-0.263608
H216	H	0.404421	0.626773	-0.207120
H217	H	0.329085	0.728322	-0.257899
C218	C	0.527897	1.082571	-0.488495
H219	H	0.455303	1.125801	-0.526040
H220	H	0.567847	1.107853	-0.494197
H221	H	0.567831	1.036049	-0.494175
H222	H	0.699362	0.955682	0.071845
H223	H	0.524964	1.073245	0.071822
H224	H	0.854219	0.383610	-0.101902
H225	H	0.679696	0.677529	-0.112350
H226	H	1.156385	-0.146152	0.101692
H227	H	0.898450	0.955724	-0.350331
H228	H	0.330833	0.677505	-0.112321
C229	C	0.303395	0.677514	0.112140
H230	H	0.281659	0.677512	0.153598
H231	H	0.243992	0.728303	0.066020
H232	H	0.319264	0.626754	0.116800
H233	H	0.418149	0.677448	0.213967
H234	H	0.679770	0.677484	0.112129
H235	H	0.898464	0.821494	-0.467836
H236	H	0.898480	0.821476	-0.793942
C237	C	0.881657	0.844154	-0.678468
H238	H	0.890082	0.832789	-0.629554
H239	H	0.910733	0.876762	-0.705394
H240	H	0.804189	0.876764	-0.705398
C241	C	1.128965	0.510821	-0.511754
H242	H	1.164021	0.463556	-0.516691
H243	H	1.184684	0.507515	-0.484822
H244	H	1.078134	0.507524	-0.484832
H245	H	1.112149	0.533491	-0.649896
