data_functionalizedCrystal
_audit_creation_method	'MofGen! by Chris Wilmer'
_symmetry_space_group_name_H-M	'P1'
_symmetry_Int_Tables_number	1
_symmetry_cell_setting	triclinic
loop_
_symmetry_equiv_pos_as_xyz
  x,y,z
_cell_length_a	16.109293
_cell_length_b	27.732048
_cell_length_c	14.586319
_cell_angle_alpha	89.991275
_cell_angle_beta	90.006918
_cell_angle_gamma	96.949538
loop_
_atom_site_label
_atom_site_type_symbol
_atom_site_fract_x
_atom_site_fract_y
_atom_site_fract_z
O1	O	-1.102366	0.062112	-0.076323
O2	O	-0.602366	0.562112	0.423677
O3	O	-0.860207	0.069848	-0.076310
O4	O	-0.360207	0.569848	0.423690
O5	O	-0.988807	-0.004385	-0.076299
O6	O	-0.488807	0.495615	0.423701
O7	O	-0.973766	0.136345	-0.076333
O8	O	-0.473766	0.636345	0.423667
O9	O	-0.988799	-0.004387	0.076181
O10	O	-0.488799	0.495613	0.576181
O11	O	-0.860198	0.069847	0.076171
O12	O	-0.360198	0.569847	0.576171
O13	O	-1.102357	0.062111	0.076158
O14	O	-0.602357	0.562111	0.576158
Cu15	Cu	-0.981277	0.065979	0.090087
Cu16	Cu	-0.481277	0.565979	0.590087
Cu17	Cu	-0.981287	0.065980	-0.090239
Cu18	Cu	-0.481287	0.565980	0.409761
O19	O	-0.973757	0.136344	0.076147
O20	O	-0.473757	0.636344	0.576147
C21	C	-0.829232	0.069535	-0.000068
C22	C	-0.329232	0.569535	0.499932
C23	C	-0.736948	0.068597	-0.000062
C24	C	-0.236948	0.568597	0.499938
C25	C	-0.988487	-0.022394	-0.000056
C26	C	-0.488487	0.477606	0.499944
C27	C	-0.987537	-0.076053	-0.000049
C28	C	-0.487537	0.423947	0.499951
C29	C	-0.524628	0.066429	0.083053
C30	C	-0.024628	0.566429	0.583053
C31	C	-0.437918	0.065543	0.083052
C32	C	0.062082	0.565543	0.583052
C33	C	-0.437938	0.065546	-0.083191
C34	C	0.062062	0.565546	0.416809
C35	C	-0.524647	0.066429	-0.083189
C36	C	-0.024647	0.566429	0.416811
C37	C	-0.567989	0.066873	-0.000065
C38	C	-0.067989	0.566873	0.499935
C39	C	-0.394571	0.065104	-0.000067
C40	C	0.105429	0.565104	0.499933
C41	C	-0.300557	0.064143	-0.000068
C42	C	0.199443	0.564143	0.499932
C43	C	-0.662009	0.067833	-0.000063
C44	C	-0.162009	0.567833	0.499937
C45	C	-1.057545	-0.414576	-0.000100
C46	C	-0.557545	0.085424	0.499900
C47	C	-1.054018	-0.616251	-0.000112
C48	C	-0.554018	-0.116251	0.499888
O49	O	-1.118036	-0.647239	-0.000156
O50	O	-0.618036	-0.147239	0.499844
N51	N	-0.977763	-0.635692	-0.000107
N52	N	-0.477763	-0.135692	0.499893
C53	C	-0.902385	-0.604712	-0.000105
C54	C	-0.402385	-0.104712	0.499895
O55	O	-0.837445	-0.625876	-0.000111
O56	O	-0.337445	-0.125876	0.499889
C57	C	-0.905913	-0.403038	-0.000099
C58	C	-0.405913	0.096962	0.499901
C59	C	-0.982173	-0.383600	-0.000095
C60	C	-0.482173	0.116400	0.499905
C61	C	-1.133799	-0.395137	-0.000096
C62	C	-0.633799	0.104863	0.499904
C63	C	-1.134680	-0.344721	-0.000088
C64	C	-0.634680	0.155279	0.499912
C65	C	-1.059307	-0.313745	-0.000083
C66	C	-0.559307	0.186255	0.499917
C67	C	-0.983054	-0.333184	-0.000087
C68	C	-0.483054	0.166816	0.499913
C69	C	-0.830536	-0.372059	-0.000104
C70	C	-0.330536	0.127941	0.499896
C71	C	-0.831425	-0.321638	-0.000105
C72	C	-0.331425	0.178362	0.499895
C73	C	-0.907685	-0.302199	-0.000100
C74	C	-0.407685	0.197801	0.499900
C75	C	-0.908563	-0.251792	-0.000074
C76	C	-0.408563	0.248208	0.499926
N77	N	-0.984817	-0.232351	-0.000079
N78	N	-0.484817	0.267649	0.499921
C79	C	-1.060190	-0.263327	-0.000083
C80	C	-0.560190	0.236673	0.499917
C81	C	-0.900538	-0.710594	-0.000107
C82	C	-0.400538	-0.210594	0.499893
C83	C	-0.899655	-0.761012	-0.000106
C84	C	-0.399655	-0.261012	0.499894
C85	C	-1.051288	-0.772547	-0.000115
C86	C	-0.551288	-0.272547	0.499885
C87	C	-1.052170	-0.722128	-0.000109
C88	C	-0.552170	-0.222128	0.499891
C89	C	-0.976792	-0.691152	-0.000112
C90	C	-0.476792	-0.191152	0.499888
C91	C	-1.062034	-0.157450	-0.000066
C92	C	-0.562034	0.342550	0.499934
C93	C	-1.062909	-0.107029	-0.000054
C94	C	-0.562909	0.392971	0.499946
C95	C	-0.911276	-0.095499	-0.000050
C96	C	-0.411276	0.404501	0.499950
C97	C	-0.910401	-0.145915	-0.000057
C98	C	-0.410401	0.354085	0.499943
C99	C	-0.985787	-0.176890	-0.000068
C100	C	-0.485787	0.323110	0.499932
O101	O	-0.844579	-0.220775	-0.000041
O102	O	-0.344579	0.279225	0.499959
O103	O	-1.125120	-0.242154	-0.000098
O104	O	-0.625120	0.257846	0.499902
C105	C	-1.056664	-0.464992	-0.000108
C106	C	-0.556664	0.035008	0.499892
C107	C	-0.980411	-0.484431	-0.000111
C108	C	-0.480411	0.015569	0.499889
C109	C	-0.905038	-0.453455	-0.000106
C110	C	-0.405038	0.046545	0.499894
C111	C	-0.979528	-0.534849	-0.000111
C112	C	-0.479528	-0.034849	0.499889
C113	C	-1.054901	-0.565826	-0.000116
C114	C	-0.554901	-0.065826	0.499884
C115	C	-1.131155	-0.546384	-0.000121
C116	C	-0.631155	-0.046384	0.499879
C117	C	-1.132036	-0.495968	-0.000113
C118	C	-0.632036	0.004032	0.499887
C119	C	-0.828784	-0.472896	-0.000101
C120	C	-0.328784	0.027104	0.499899
C121	C	-0.827909	-0.523312	-0.000109
C122	C	-0.327909	-0.023312	0.499891
C123	C	-0.903281	-0.554289	-0.000113
C124	C	-0.403281	-0.054289	0.499887
C125	C	-0.133331	0.062429	-0.000079
C126	C	0.366669	0.562429	0.499921
C127	C	-0.225612	0.063380	-0.000070
C128	C	0.274388	0.563380	0.499930
C129	C	-0.974077	0.154353	-0.000098
C130	C	-0.474077	0.654353	0.499902
C131	C	-0.975028	0.208012	-0.000111
C132	C	-0.475028	0.708012	0.499889
N133	N	-0.981276	0.065978	0.216919
N134	N	-0.481276	0.565978	0.716919
N135	N	-0.981295	0.065977	-0.217071
N136	N	-0.481295	0.565977	0.282929
C137	C	-1.038238	0.033118	0.451930
C138	C	-0.538238	0.533118	0.951930
C139	C	-1.038241	0.033117	0.547911
C140	C	-0.538241	0.533117	1.047911
C141	C	-0.924326	0.098839	0.547911
C142	C	-0.424326	0.598839	1.047911
C143	C	-0.924321	0.098837	0.451932
C144	C	-0.424321	0.598837	0.951932
C145	C	-0.981281	0.065977	0.403944
C146	C	-0.481281	0.565977	0.903944
C147	C	-0.981289	0.065978	0.595904
C148	C	-0.481289	0.565978	1.095904
C149	C	-0.981292	0.065977	0.699971
C150	C	-0.481292	0.565977	1.199971
C151	C	-0.981278	0.065978	0.299870
C152	C	-0.481278	0.565978	0.799870
H153	H	-0.402618	0.065182	0.150735
H154	H	0.097382	0.565182	0.650735
O155	O	-1.143341	-0.190856	-0.000064
O156	O	-0.643341	0.309144	0.499936
H157	H	-1.196506	-0.168861	-0.000049
H158	H	-0.696506	0.331139	0.499951
O159	O	-0.748281	-0.393015	-0.000116
O160	O	-0.248281	0.106985	0.499884
H161	H	-0.744231	-0.415712	0.062033
H162	H	-0.244231	0.084288	0.562033
H163	H	-0.877936	0.125595	0.412859
H164	H	-0.377936	0.625595	0.912859
O165	O	-0.571428	0.066906	-0.172840
O166	O	-0.071428	0.566906	0.327160
H167	H	-0.546968	0.099665	-0.212704
H168	H	-0.046968	0.599665	0.287296
O169	O	-0.571372	0.066908	0.172708
O170	O	-0.071372	0.566908	0.672708
H171	H	-0.618718	0.034388	0.176694
H172	H	-0.118718	0.534388	0.676694
H173	H	-0.402639	0.065186	-0.150868
H174	H	0.097361	0.565186	0.349132
O175	O	-1.145163	-0.086062	-0.000063
O176	O	-0.645163	0.413938	0.499937
H177	H	-1.197423	-0.116076	-0.000082
H178	H	-0.697423	0.383924	0.499918
O179	O	-0.750124	-0.288227	-0.000097
O180	O	-0.250124	0.211773	0.499903
H181	H	-0.696954	-0.310218	-0.000091
H182	H	-0.196954	0.189782	0.499909
O183	O	-1.216931	-0.323758	-0.000110
O184	O	-0.716931	0.176242	0.499890
H185	H	-1.269186	-0.353774	-0.000130
H186	H	-0.769186	0.146226	0.499870
H187	H	-1.195179	-0.420354	-0.000103
H188	H	-0.695179	0.079646	0.499897
O189	O	-0.862901	0.134285	0.599668
O190	O	-0.362901	0.634285	1.099668
H191	H	-0.872480	0.128770	0.674471
H192	H	-0.372480	0.628770	1.174471
H193	H	-1.114267	-0.706305	-0.000106
H194	H	-0.614267	-0.206305	0.499894
O195	O	-1.132587	-0.805961	-0.000121
O196	O	-0.632587	-0.305961	0.499879
H197	H	-1.135808	-0.829198	-0.062276
H198	H	-0.635808	-0.329198	0.437724
O199	O	-0.817405	-0.781976	-0.000099
O200	O	-0.317405	-0.281976	0.499901
H201	H	-0.765147	-0.751961	-0.000104
H202	H	-0.265147	-0.251961	0.499896
H203	H	-0.839153	-0.685377	-0.000109
H204	H	-0.339153	-0.185377	0.499891
O205	O	-0.828153	-0.166886	-0.000059
O206	O	-0.328153	0.333114	0.499941
H207	H	-0.775891	-0.136874	-0.000058
H208	H	-0.275891	0.363126	0.499942
H209	H	-0.765805	-0.539134	-0.000104
H210	H	-0.265805	-0.039134	0.499896
H211	H	-0.849910	-0.070269	-0.000043
H212	H	-0.349910	0.429731	0.499957
H213	H	-1.194135	-0.480146	-0.000109
H214	H	-0.694135	0.019854	0.499891
H215	H	-0.767405	-0.447680	-0.000100
H216	H	-0.267405	0.052320	0.499900
O217	O	-1.212453	-0.579799	-0.000121
O218	O	-0.712453	-0.079799	0.499879
H219	H	-1.215679	-0.603036	-0.062276
H220	H	-0.715679	-0.103036	0.437724
O221	O	-1.099661	-0.002327	0.400167
O222	O	-0.599661	0.497673	0.900167
H223	H	-1.139261	-0.025180	0.449664
H224	H	-0.639261	0.474820	0.949664
O225	O	-1.099683	-0.002318	0.599672
O226	O	-0.599683	0.497682	1.099672
H227	H	-1.139293	-0.025162	0.550174
H228	H	-0.639293	0.474838	1.050174
