data_functionalizedCrystal
_audit_creation_method	'MofGen! by Chris Wilmer'
_symmetry_space_group_name_H-M	'P1'
_symmetry_Int_Tables_number	1
_symmetry_cell_setting	triclinic
loop_
_symmetry_equiv_pos_as_xyz
  x,y,z
_cell_length_a	10.540539
_cell_length_b	14.519709
_cell_length_c	13.596369
_cell_angle_alpha	90.006934
_cell_angle_beta	89.998267
_cell_angle_gamma	95.897182
loop_
_atom_site_label
_atom_site_type_symbol
_atom_site_fract_x
_atom_site_fract_y
_atom_site_fract_z
O1	O	1.684562	-0.129969	-0.081713
O2	O	1.315024	-0.142215	-0.081733
O3	O	1.509591	-0.001906	-0.081713
O4	O	1.489995	-0.270278	-0.081732
O5	O	1.509571	-0.001899	0.081870
O6	O	1.315004	-0.142207	0.081850
O7	O	1.684542	-0.129962	0.081870
Zn8	Zn	1.499770	-0.136083	0.107832
Zn9	Zn	1.499796	-0.136093	-0.107695
O10	O	1.489976	-0.270270	0.081851
C11	C	1.508668	0.032462	0.000078
C12	C	1.505931	0.134858	0.000079
C13	C	1.731846	-0.130884	0.000079
C14	C	1.872766	-0.133631	0.000080
C15	C	1.267720	-0.141293	0.000056
C16	C	1.126800	-0.138545	0.000049
C17	C	2.055118	-0.238911	0.000417
C18	C	1.908528	-0.236126	0.000065
C19	C	1.934912	-0.084310	-0.093336
C20	C	2.081421	-0.087808	-0.093431
C21	C	2.081990	-0.085716	0.092594
C22	C	1.935018	-0.084772	0.093845
C23	C	1.490899	-0.304639	0.000057
C24	C	1.493635	-0.407035	0.000050
N25	N	1.499762	-0.136076	0.254924
C26	C	1.495856	0.509808	0.000052
C27	C	1.498654	0.405485	0.000060
C28	C	1.500893	0.322337	0.000066
C29	C	1.503692	0.218007	0.000072
N30	N	1.499814	-0.136093	-0.254787
C31	C	1.499794	-0.136094	0.656215
C32	C	1.499781	-0.136092	0.544564
C33	C	1.499779	-0.136086	0.455573
C34	C	1.499765	-0.136082	0.343915
H35	H	2.083317	-0.279396	0.067398
H36	H	2.130141	-0.014097	-0.097682
C37	C	2.094713	-0.292979	-0.088234
C38	C	1.987347	-0.320256	-0.145907
C39	C	2.023843	-0.370176	-0.227475
H40	H	2.155063	-0.255063	-0.126201
H41	H	2.131934	-0.346269	-0.066473
H42	H	1.950146	-0.266974	-0.167669
H43	H	1.926985	-0.358184	-0.107970
H44	H	2.061064	-0.423467	-0.205714
H45	H	2.084195	-0.332255	-0.265434
H46	H	1.951001	-0.388698	-0.266611
H47	H	1.893725	-0.120812	0.162952
C48	C	2.123364	-0.129937	0.187075
C49	C	2.015547	-0.159975	0.243108
C50	C	2.053610	-0.200715	0.330149
H51	H	2.168666	-0.181329	0.171594
H52	H	2.177007	-0.085794	0.223600
H53	H	1.961925	-0.204114	0.206590
H54	H	1.970232	-0.108600	0.258615
H55	H	2.107253	-0.156572	0.366675
H56	H	2.098913	-0.252103	0.314659
H57	H	1.980464	-0.221093	0.368183
C58	C	1.905937	0.016015	-0.097818
C59	C	1.831558	0.035384	-0.016533
C60	C	1.804825	0.127790	-0.020634
H61	H	1.983508	0.055588	-0.096913
H62	H	1.860662	0.025982	-0.156643
H63	H	1.876833	0.025426	0.042276
H64	H	1.753973	-0.004166	-0.017421
H65	H	1.759550	0.137756	-0.079459
H66	H	1.882402	0.167355	-0.019732
H67	H	1.754347	0.140941	0.034511
C68	C	2.145729	0.013063	0.093390
C69	C	2.052224	0.074874	0.090356
C70	C	2.110898	0.165872	0.091068
H71	H	2.194872	0.023258	0.151667
H72	H	2.199804	0.022670	0.037637
H73	H	1.998172	0.065271	0.146104
H74	H	2.003076	0.064708	0.032083
H75	H	2.164972	0.175479	0.035315
H76	H	2.160039	0.176058	0.149346
H77	H	2.047465	0.207822	0.089001
H78	H	1.865538	-0.274939	0.067026
H79	H	1.911563	-0.010045	0.099494
C80	C	2.118258	-0.136492	-0.186574
C81	C	2.008650	-0.162479	-0.242238
C82	C	2.042524	-0.207342	-0.328042
H83	H	2.175677	-0.095745	-0.224039
H84	H	2.158152	-0.190060	-0.169550
H85	H	1.968775	-0.108919	-0.259264
H86	H	1.951218	-0.203237	-0.204803
H87	H	2.082418	-0.260910	-0.311018
H88	H	2.099945	-0.166590	-0.365498
H89	H	1.968160	-0.224988	-0.365816
H90	H	1.866363	-0.275209	-0.067010
H91	H	1.891917	-0.118554	-0.162850
