data_functionalizedCrystal
_audit_creation_method	'MofGen! by Chris Wilmer'
_symmetry_space_group_name_H-M	'P1'
_symmetry_Int_Tables_number	1
_symmetry_cell_setting	triclinic
loop_
_symmetry_equiv_pos_as_xyz
  x,y,z
_cell_length_a	10.723024
_cell_length_b	14.750522
_cell_length_c	10.723024
_cell_angle_alpha	75.912444
_cell_angle_beta	95.532131
_cell_angle_gamma	104.088987
loop_
_atom_site_label
_atom_site_type_symbol
_atom_site_fract_x
_atom_site_fract_y
_atom_site_fract_z
O1	O	1.681560	0.079820	-0.199397
O2	O	1.318409	0.079823	-0.216151
O3	O	1.508360	0.079818	-0.026197
O4	O	1.491609	0.079825	-0.389352
O5	O	1.459595	-0.079840	0.022554
O6	O	1.269643	-0.079835	-0.167400
O7	O	1.632795	-0.079838	-0.150646
Zn8	Zn	1.443477	-0.105186	-0.151283
Zn9	Zn	1.507727	0.105171	-0.215515
O10	O	1.442844	-0.079833	-0.340600
C11	C	1.247527	-0.000005	-0.190557
C12	C	1.108973	-0.000004	-0.186909
N13	N	1.399637	-0.248749	-0.107445
C14	C	1.033991	-0.000002	-0.293198
C15	C	0.890788	-0.000000	-0.289431
C16	C	1.673912	-0.600522	-0.381806
C17	C	1.643222	-0.701026	-0.351069
C18	C	1.490581	-0.701014	-0.198321
C19	C	1.521255	-0.600508	-0.229050
C20	C	1.612922	-0.550270	-0.320792
C21	C	1.460265	-0.550255	-0.168036
C22	C	1.490941	-0.449758	-0.198758
C23	C	1.582608	-0.399513	-0.290494
C24	C	1.643599	-0.449772	-0.351514
C25	C	1.368605	-0.600495	-0.076287
C26	C	1.307615	-0.550243	-0.015273
C27	C	1.338284	-0.449743	-0.046001
C28	C	1.429950	-0.399498	-0.137737
C29	C	1.277293	-0.399484	0.015019
C30	C	1.307969	-0.298986	-0.015703
C31	C	1.460627	-0.299001	-0.168459
C32	C	1.703678	-0.000007	-0.176241
C33	C	1.842233	-0.000002	-0.179890
C34	C	1.482759	-0.000010	0.044678
C35	C	1.479112	-0.000006	0.183231
N36	N	1.551577	0.248734	-0.259342
C37	C	1.468446	-0.000003	-0.411476
C38	C	1.472094	0.000000	-0.550031
C39	C	1.585400	-0.000006	0.258214
C40	C	1.581633	-0.000002	0.401416
H41	H	0.826357	0.000006	-0.380423
H42	H	1.258303	-0.258070	0.033979
H43	H	1.385328	0.000001	0.225051
H44	H	1.415949	-0.741931	-0.123619
O45	O	1.612394	-0.301889	-0.320575
C46	C	1.618265	-0.157700	-0.486469
C47	C	1.584505	-0.268257	-0.452584
H48	H	1.595705	-0.130475	-0.593192
H49	H	1.725031	-0.130350	-0.464217
H50	H	1.558964	-0.130429	-0.427045
H51	H	1.643720	-0.295610	-0.511986
H52	H	1.477718	-0.295541	-0.474802
O53	O	1.732709	-0.401111	-0.440632
C54	C	1.880815	-0.411718	-0.588984
C55	C	1.779953	-0.466946	-0.488068
H56	H	1.919021	-0.464921	-0.627385
H57	H	1.963655	-0.364677	-0.542677
H58	H	1.834366	-0.364659	-0.671671
H59	H	1.826286	-0.514057	-0.405352
H60	H	1.697124	-0.513927	-0.534471
H61	H	1.075812	-0.000005	-0.386983
O62	O	1.363401	-0.000041	0.373310
C63	C	1.137781	0.000026	0.359169
C64	C	1.260771	0.000049	0.446147
H65	H	1.054779	0.000119	0.418016
H66	H	1.113281	-0.066808	0.317964
H67	H	1.154261	0.066825	0.277100
H68	H	1.244387	-0.066705	0.528280
H69	H	1.285234	0.066927	0.487253
O70	O	1.339028	-0.698119	-0.046423
C71	C	1.416815	-0.842327	0.035734
C72	C	1.450495	-0.731771	0.001940
H73	H	1.506910	-0.869569	0.074868
H74	H	1.377779	-0.869687	-0.054302
H75	H	1.340785	-0.869574	0.111744
H76	H	1.526555	-0.704443	-0.074033
H77	H	1.489458	-0.704477	0.092038
O78	O	1.218559	-0.599193	0.073770
C79	C	1.103609	-0.754004	0.188778
C80	C	1.204471	-0.698692	0.087894
H81	H	1.092207	-0.834459	0.200249
H82	H	1.007384	-0.734277	0.155908
H83	H	1.136637	-0.734214	0.284938
H84	H	1.171564	-0.718453	-0.008299
H85	H	1.300674	-0.718424	0.120872
H86	H	0.906660	0.000002	-0.088896
O87	O	1.188245	-0.448437	0.104069
C88	C	1.073315	-0.603250	0.219087
C89	C	1.174163	-0.547935	0.118191
H90	H	1.061917	-0.683704	0.230557
H91	H	0.977085	-0.583527	0.186231
H92	H	1.106354	-0.583460	0.315245
H93	H	1.141244	-0.567696	0.022001
H94	H	1.270370	-0.567663	0.151155
O95	O	1.697171	-0.000051	0.208141
C96	C	1.802865	0.000003	0.019729
C97	C	1.676188	0.000032	0.076272
H98	H	1.785950	0.000091	-0.086900
H99	H	1.837831	-0.066830	0.072432
H100	H	1.878627	0.066804	0.031787
H101	H	1.600338	-0.066723	0.064226
H102	H	1.641331	0.066909	0.023561
O103	O	1.763022	-0.551861	-0.470923
C104	C	1.911129	-0.562468	-0.619276
C105	C	1.810266	-0.617696	-0.518360
H106	H	1.949335	-0.615671	-0.657677
H107	H	1.993968	-0.515426	-0.572969
H108	H	1.864679	-0.515409	-0.701963
H109	H	1.856600	-0.664807	-0.435644
H110	H	1.727438	-0.664676	-0.564763
O111	O	1.690314	0.000127	0.478106
C112	C	1.908560	0.082873	0.516721
C113	C	1.785569	0.082834	0.429742
H114	H	1.985598	0.149744	0.477667
H115	H	1.944959	0.016102	0.518433
H116	H	1.886137	0.082828	0.618523
H117	H	1.807890	0.082912	0.327899
H118	H	1.749205	0.149599	0.428140
O119	O	1.059285	-0.000047	-0.074897
C120	C	1.100333	0.000012	0.150018
C121	C	1.156757	0.000037	0.023255
H122	H	1.179118	0.000100	0.229401
H123	H	1.019695	-0.066820	0.177716
H124	H	1.060422	0.066814	0.136752
H125	H	1.196739	-0.066719	0.036421
H126	H	1.237336	0.066913	-0.004402
H127	H	1.535258	-0.258094	-0.243179
H128	H	1.692893	-0.741938	-0.400762
