data_functionalizedCrystal
_audit_creation_method	'MofGen! by Chris Wilmer'
_symmetry_space_group_name_H-M	'P1'
_symmetry_Int_Tables_number	1
_symmetry_cell_setting	triclinic
loop_
_symmetry_equiv_pos_as_xyz
  x,y,z
_cell_length_a	19.077241
_cell_length_b	19.077068
_cell_length_c	19.076919
_cell_angle_alpha	94.470751
_cell_angle_beta	89.886096
_cell_angle_gamma	94.707771
loop_
_atom_site_label
_atom_site_type_symbol
_atom_site_fract_x
_atom_site_fract_y
_atom_site_fract_z
Zn1	Zn	-1.047582	0.256332	0.450414
Zn2	Zn	-0.547582	0.756332	0.950414
Zn3	Zn	-1.047495	0.369488	0.337255
Zn4	Zn	-0.547495	0.869488	0.837255
Zn5	Zn	-0.934813	0.255959	0.328177
Zn6	Zn	-0.434813	0.755959	0.828177
Zn7	Zn	-0.924921	0.378906	0.450353
Zn8	Zn	-0.424921	0.878906	0.950353
O9	O	-0.988703	0.315171	0.391550
O10	O	-0.488703	0.815171	0.891550
O11	O	-1.146062	0.267556	0.439228
O12	O	-0.646062	0.767556	0.939228
O13	O	-1.036651	0.350331	0.237563
O14	O	-0.536651	0.850331	0.737563
O15	O	-0.953949	0.157199	0.340619
O16	O	-0.453949	0.657199	0.840619
O17	O	-1.145999	0.350692	0.356091
O18	O	-0.645999	0.850692	0.856091
O19	O	-1.036800	0.157472	0.430426
O20	O	-0.536800	0.657472	0.930426
O21	O	-0.953864	0.266922	0.230893
O22	O	-0.453864	0.766922	0.730893
O23	O	-0.835009	0.276054	0.340559
O24	O	-0.335009	0.776054	0.840559
O25	O	-0.937089	0.366744	0.548849
O26	O	-0.437089	0.866744	1.048849
O27	O	-0.827742	0.366383	0.430321
O28	O	-0.327742	0.866383	0.930321
O29	O	-1.027207	0.276689	0.548894
O30	O	-0.527207	0.776689	1.048894
O31	O	-1.027059	0.469548	0.356031
O32	O	-0.527059	0.969548	0.856031
O33	O	-0.937004	0.476467	0.439123
O34	O	-0.437004	0.976467	0.939123
C35	C	-0.805838	0.322201	0.384449
C36	C	-0.305838	0.822201	0.884449
C37	C	-0.727606	0.325226	0.381428
C38	C	-0.227606	0.825226	0.881428
C39	C	-0.690880	0.283437	0.423366
C40	C	-0.190880	0.783437	0.923366
C41	C	-0.617373	0.286276	0.420521
C42	C	-0.117373	0.786276	0.920521
C43	C	-0.580593	0.330907	0.375743
C44	C	-0.080593	0.830907	0.875743
C45	C	-0.617324	0.372697	0.333801
C46	C	-0.117324	0.872697	0.833801
C47	C	-0.690829	0.369855	0.336642
C48	C	-0.190829	0.869855	0.836642
C49	C	-0.360751	0.344039	0.362593
C50	C	0.139249	0.844039	0.862593
C51	C	-0.287240	0.346880	0.359757
C52	C	0.212760	0.846880	0.859757
C53	C	-0.287295	0.260457	0.446477
C54	C	0.212705	0.760457	0.946477
C55	C	-0.360802	0.257622	0.449317
C56	C	0.139198	0.757622	0.949317
C57	C	-0.397526	0.299409	0.407372
C58	C	0.102474	0.799409	0.907372
N59	N	-0.505457	0.333811	0.372836
N60	N	-0.005457	0.833811	0.872836
N61	N	-0.472661	0.296501	0.410276
N62	N	0.027339	0.796501	0.910276
C63	C	-0.980967	0.498628	0.398572
C64	C	-0.480967	0.998628	0.898572
C65	C	-0.977721	0.577110	0.401602
C66	C	-0.477721	1.077110	0.901602
C67	C	-0.981054	0.322808	0.575122
C68	C	-0.481054	0.822808	1.075122
C69	C	-0.977795	0.326063	0.653350
C70	C	-0.477795	0.826063	1.153350
C71	C	-0.172283	0.308111	0.398673
C72	C	0.327717	0.808111	0.898673
C73	C	-0.250515	0.305092	0.401694
C74	C	0.249485	0.805092	0.901694
C75	C	-0.996487	0.130999	0.384516
C76	C	-0.496487	0.630999	0.884516
C77	C	-0.999805	0.052515	0.381519
C78	C	-0.499805	0.552515	0.881519
C79	C	-1.023116	0.610355	0.359802
C80	C	-0.523116	1.110355	0.859802
C81	C	-1.020067	0.684097	0.362657
C82	C	-0.520067	1.184097	0.862657
C83	C	-0.971619	0.724593	0.407307
C84	C	-0.471619	1.224593	0.907307
C85	C	-0.926222	0.691343	0.449111
C86	C	-0.426222	1.191343	0.949111
C87	C	-0.929275	0.617602	0.446260
C88	C	-0.429275	1.117602	0.946260
C89	C	-0.957461	0.945524	0.420472
C90	C	-0.457461	1.445524	0.920472
C91	C	-0.954410	1.019270	0.423319
C92	C	-0.454410	1.519270	0.923319
C93	C	-1.048256	1.012019	0.336865
C94	C	-0.548256	1.512019	0.836865
C95	C	-1.051302	0.938277	0.334015
C96	C	-0.551302	1.438277	0.834015
C97	C	-1.005907	0.905033	0.375821
C98	C	-0.505907	1.405033	0.875821
N99	N	-0.968500	0.799970	0.410224
N100	N	-0.468500	1.299970	0.910224
N101	N	-1.009030	0.829658	0.372908
N102	N	-0.509030	1.329658	0.872908
C103	C	-0.996364	0.307512	0.208691
C104	C	-0.496364	0.807512	0.708691
C105	C	-0.999769	0.304053	0.130461
C106	C	-0.499769	0.804053	0.630461
C107	C	-1.023181	0.280707	0.690126
C108	C	-0.523181	0.780707	1.190126
C109	C	-1.020110	0.283762	0.763629
C110	C	-0.520110	0.783762	1.263629
C111	C	-0.971656	0.332177	0.800354
C112	C	-0.471656	0.832177	1.300354
C113	C	-0.926265	0.377535	0.763573
C114	C	-0.426265	0.877535	1.263573
C115	C	-0.929333	0.374476	0.690071
C116	C	-0.429333	0.874476	1.190071
C117	C	-0.957446	0.346352	1.020178
C118	C	-0.457446	0.846352	1.520178
C119	C	-0.954382	0.349409	1.093685
C120	C	-0.454382	0.849409	1.593685
C121	C	-1.048227	0.255635	1.093736
C122	C	-0.548227	0.755635	1.593736
C123	C	-1.051294	0.252583	1.020233
C124	C	-0.551294	0.752583	1.520233
C125	C	-1.005900	0.297938	0.983458
C126	C	-0.505900	0.797938	1.483458
N127	N	-0.968517	0.335303	0.875486
N128	N	-0.468517	0.835303	1.375486
N129	N	-1.009036	0.294808	0.908327
N130	N	-0.509036	0.794808	1.408327
H131	H	-0.587371	0.409034	0.297337
H132	H	-0.087371	0.909034	0.797337
H133	H	-0.920493	0.383293	0.990245
H134	H	-0.420493	0.883293	1.490245
O135	O	-0.907365	0.396414	1.129471
O136	O	-0.407365	0.896414	1.629471
C137	C	-0.914381	0.389373	1.202230
C138	C	-0.414381	0.889373	1.702230
H139	H	-0.969262	0.364589	1.213497
H140	H	-0.469262	0.864589	1.713497
H141	H	-0.906194	0.443606	1.232002
H142	H	-0.406194	0.943606	1.732002
H143	H	-0.873363	0.354231	1.220027
H144	H	-0.373363	0.854231	1.720027
O145	O	-1.098254	0.205490	0.984490
O146	O	-0.598254	0.705490	1.484490
C147	C	-1.061860	0.159648	0.938705
C148	C	-0.561860	0.659648	1.438705
H149	H	-1.007942	0.186165	0.926558
H150	H	-0.507942	0.686165	1.426558
H151	H	-1.093083	0.146894	0.887776
H152	H	-0.593083	0.646894	1.387776
H153	H	-1.055127	0.108816	0.964757
H154	H	-0.555127	0.608816	1.464757
H155	H	-0.390743	0.221281	0.485783
H156	H	0.109257	0.721281	0.985783
O157	O	-0.251537	0.219966	0.487250
O158	O	0.248463	0.719966	0.987250
C159	C	-0.205454	0.263768	0.532554
C160	C	0.294546	0.763768	1.032554
H161	H	-0.193226	0.316630	0.509268
H162	H	0.306774	0.816630	1.009268
H163	H	-0.154581	0.237413	0.538934
H164	H	0.345419	0.737413	1.038934
H165	H	-0.231290	0.272680	0.586093
H166	H	0.268710	0.772680	1.086093
H167	H	-0.257295	0.383228	0.323292
H168	H	0.242705	0.883228	0.823292
O169	O	-0.885177	0.418440	0.654311
O170	O	-0.385177	0.918440	1.154311
C171	C	-0.843200	0.378222	0.608478
C172	C	-0.343200	0.878222	1.108478
H173	H	-0.840279	0.323697	0.628333
H174	H	-0.340279	0.823697	1.128333
H175	H	-0.787991	0.405809	0.606517
H176	H	-0.287991	0.905809	1.106517
H177	H	-0.867386	0.372638	0.553525
H178	H	-0.367386	0.872638	1.053525
O179	O	-1.092455	1.044230	0.296297
O180	O	-0.592455	1.544230	0.796297
C181	C	-1.162694	1.024097	0.313777
C182	C	-0.662694	1.524097	0.813777
H183	H	-1.165214	0.971614	0.338821
H184	H	-0.665214	1.471614	0.838821
H185	H	-1.196518	1.018236	0.264140
H186	H	-0.696518	1.518236	0.764140
H187	H	-1.183146	1.066158	0.352503
H188	H	-0.683146	1.566158	0.852503
O189	O	-0.726396	0.410521	0.295882
O190	O	-0.226396	0.910521	0.795882
C191	C	-0.678173	0.450512	0.255738
C192	C	-0.178173	0.950512	0.755738
H193	H	-0.624475	0.456228	0.282632
H194	H	-0.124475	0.956228	0.782632
H195	H	-0.697389	0.504996	0.251090
H196	H	-0.197389	1.004996	0.751090
H197	H	-0.673663	0.422653	0.201032
H198	H	-0.173663	0.922653	0.701032
O199	O	-1.098302	0.898836	0.290657
O200	O	-0.598302	1.398836	0.790657
C201	C	-1.091272	0.826621	0.297116
C202	C	-0.591272	1.326621	0.797116
H203	H	-1.036395	0.819636	0.317627
H204	H	-0.536395	1.319636	0.817627
H205	H	-1.099441	0.796237	0.243505
H206	H	-0.599441	1.296237	0.743505
H207	H	-1.132297	0.805596	0.335435
H208	H	-0.632297	1.305596	0.835435
O209	O	-0.907328	1.058503	0.466761
O210	O	-0.407328	1.558503	0.966761
C211	C	-0.867906	1.013350	0.503039
C212	C	-0.367906	1.513350	1.003039
H213	H	-0.898805	0.959751	0.504585
H214	H	-0.398805	1.459751	1.004585
H215	H	-0.857170	1.037240	0.559015
H216	H	-0.357170	1.537240	1.059015
H217	H	-0.815866	1.006548	0.474854
H218	H	-0.315866	1.506548	0.974854
O219	O	-0.396308	0.384702	0.321827
O220	O	0.103692	0.884702	0.821827
C221	C	-0.348081	0.424690	0.281686
C222	C	0.151919	0.924690	0.781686
H223	H	-0.294385	0.430406	0.308585
H224	H	0.205615	0.930406	0.808585
H225	H	-0.367295	0.479174	0.277033
H226	H	0.132705	0.979174	0.777033
H227	H	-0.343565	0.396828	0.226982
H228	H	0.156435	0.896828	0.726982
O229	O	-1.064309	0.716257	0.322089
O230	O	-0.564309	1.216257	0.822089
C231	C	-1.134520	0.696053	0.339612
C232	C	-0.634520	1.196053	0.839612
H233	H	-1.136961	0.643590	0.364688
H234	H	-0.636961	1.143590	0.864688
H235	H	-1.168369	0.690123	0.289992
H236	H	-0.668369	1.190123	0.789992
H237	H	-1.155003	0.738107	0.378325
H238	H	-0.655003	1.238107	0.878325
O239	O	-0.879257	0.424544	0.799356
O240	O	-0.379257	0.924544	1.299356
C241	C	-0.886269	0.417509	0.872117
C242	C	-0.386269	0.917509	1.372117
H243	H	-0.941145	0.392716	0.883386
H244	H	-0.441145	0.892716	1.383386
H245	H	-0.878092	0.471745	0.901884
H246	H	-0.378092	0.971745	1.401884
H247	H	-0.845241	0.382378	0.889916
H248	H	-0.345241	0.882378	1.389916
H249	H	-1.062565	0.577388	0.323440
H250	H	-0.562565	1.077388	0.823440
H251	H	-0.920497	0.918463	0.454512
H252	H	-0.420497	1.418463	0.954512
H253	H	-0.886778	0.724320	0.485470
H254	H	-0.386778	1.224320	0.985470
O255	O	-0.885109	0.585418	0.486890
O256	O	-0.385109	1.085418	0.986890
C257	C	-0.841705	0.636971	0.526926
C258	C	-0.341705	1.136971	1.026926
H259	H	-0.838309	0.688443	0.500033
H260	H	-0.338309	1.188443	1.000033
H261	H	-0.786816	0.618150	0.531421
H262	H	-0.286816	1.118150	1.031421
H263	H	-0.864892	0.646006	0.581697
H264	H	-0.364892	1.146006	1.081697
H265	H	-1.062640	0.241284	0.660230
H266	H	-0.562640	0.741284	1.160230
H267	H	-1.057070	0.246830	0.793569
H268	H	-0.557070	0.746830	1.293569
O269	O	-0.726630	0.240185	0.466945
O270	O	-0.226630	0.740185	0.966945
C271	C	-0.765586	0.280698	0.515511
C272	C	-0.265586	0.780698	1.015511
H273	H	-0.740919	0.337351	0.521042
H274	H	-0.240919	0.837351	1.021042
H275	H	-0.765240	0.257466	0.568774
H276	H	-0.265240	0.757466	1.068774
H277	H	-0.822097	0.280037	0.495992
H278	H	-0.322097	0.780037	0.995992
H279	H	-1.085183	0.218708	1.123686
H280	H	-0.585183	0.718708	1.623686
H281	H	-0.587474	0.252248	0.454673
H282	H	-0.087474	0.752248	0.954673
