data_functionalizedCrystal
_audit_creation_method	'MofGen! by Chris Wilmer'
_symmetry_space_group_name_H-M	'P1'
_symmetry_Int_Tables_number	1
_symmetry_cell_setting	triclinic
loop_
_symmetry_equiv_pos_as_xyz
  x,y,z
_cell_length_a	11.169417
_cell_length_b	12.594516
_cell_length_c	12.594504
_cell_angle_alpha	89.943507
_cell_angle_beta	89.960288
_cell_angle_gamma	90.016931
loop_
_atom_site_label
_atom_site_type_symbol
_atom_site_fract_x
_atom_site_fract_y
_atom_site_fract_z
Zn1	Zn	1.835150	-0.423367	-0.601772
Zn2	Zn	1.834950	-0.601471	-0.423799
Zn3	Zn	1.634367	-0.423510	-0.423812
Zn4	Zn	1.634424	-0.601306	-0.601741
O5	O	1.734723	-0.512414	-0.512781
O6	O	2.003073	-0.447002	-0.578171
O7	O	1.808234	-0.577993	-0.274855
O8	O	1.661061	-0.274545	-0.447437
O9	O	2.002926	-0.577854	-0.447415
O10	O	1.808576	-0.274440	-0.578183
O11	O	1.660867	-0.447246	-0.274864
O12	O	1.466424	-0.447086	-0.447407
O13	O	1.661158	-0.577574	-0.750691
O14	O	1.466466	-0.577712	-0.578131
O15	O	1.808631	-0.446842	-0.750714
O16	O	1.808290	-0.750395	-0.447386
O17	O	1.660964	-0.750274	-0.578118
C18	C	1.422898	-0.512397	-0.512767
C19	C	1.289498	-0.512416	-0.512787
C20	C	1.734644	-0.788955	-0.512771
C21	C	1.734720	-0.907260	-0.512802
C22	C	1.654582	-0.976486	-0.583857
C23	C	1.625297	-1.047403	-0.486736
C24	C	1.764114	-1.047142	-0.609940
C25	C	1.705378	-0.976619	-0.415629
C26	C	1.844245	-0.976351	-0.538898
C27	C	1.815002	-1.047237	-0.441710
C28	C	2.047765	-0.512431	-0.512795
C29	C	2.181165	-0.512438	-0.512801
C30	C	1.734923	-0.512174	-0.790402
C31	C	1.735009	-0.512071	-0.908708
C32	C	1.734834	-0.234793	-0.512815
C33	C	1.734882	-0.116487	-0.512829
C34	C	1.734592	-0.512576	-0.236240
C35	C	1.734739	-0.512378	-0.117935
C36	C	1.654096	-0.441685	-0.048741
C37	C	1.763480	-0.414846	0.021798
C38	C	1.625639	-0.538860	0.022325
C39	C	1.844178	-0.485492	-0.048954
C40	C	1.706264	-0.609551	-0.048434
C41	C	1.815724	-0.582749	0.022073
H42	H	1.532749	-1.078635	-0.464685
H43	H	1.788910	-1.078122	-0.692078
C44	C	1.475891	-0.414105	-0.151643
C45	C	1.561994	-0.361102	-0.090733
H46	H	1.419036	-0.364354	-0.177564
H47	H	1.513835	-0.448385	-0.209765
H48	H	1.436396	-0.465511	-0.108899
H49	H	1.601496	-0.309701	-0.133479
H50	H	1.524047	-0.326805	-0.032603
H51	H	1.682022	-0.691835	-0.079317
H52	H	1.533260	-0.561391	0.053619
C53	C	1.564550	-0.823368	-0.664681
C54	C	1.562943	-0.934538	-0.664861
H55	H	1.507980	-0.797473	-0.714691
H56	H	1.544481	-0.798192	-0.595870
H57	H	1.642277	-0.799048	-0.683377
H58	H	1.485218	-0.958858	-0.646157
H59	H	1.583004	-0.959724	-0.733687
H60	H	1.787689	-0.332538	0.052657
H61	H	1.884115	-0.642400	0.052969
C62	C	1.671914	-0.823806	-0.305719
C63	C	1.671748	-0.934980	-0.304715
H64	H	1.651142	-0.798101	-0.237249
H65	H	1.749410	-0.798893	-0.324352
H66	H	1.615286	-0.799027	-0.356228
H67	H	1.728384	-0.959759	-0.254212
H68	H	1.594242	-0.959903	-0.286069
C69	C	1.875600	-1.053132	-0.258928
C70	C	1.906581	-1.088923	-0.360520
H71	H	1.932130	-1.078876	-0.208804
H72	H	1.875577	-0.977722	-0.258077
H73	H	1.798087	-1.078542	-0.240998
H74	H	1.984091	-1.063506	-0.378453
H75	H	1.906617	-1.164348	-0.361373
C76	C	1.999670	-0.969709	-0.670520
C77	C	1.969150	-0.934179	-0.568727
H78	H	2.076778	-0.943665	-0.688943
H79	H	2.000462	-1.045115	-0.671381
H80	H	1.942476	-0.944426	-0.720271
H81	H	2.026339	-0.959468	-0.518974
H82	H	1.968367	-0.858757	-0.567857
H83	H	1.936581	-0.462869	-0.080125
