data_functionalizedCrystal
_audit_creation_method	'MofGen! by Chris Wilmer'
_symmetry_space_group_name_H-M	'P1'
_symmetry_Int_Tables_number	1
_symmetry_cell_setting	triclinic
loop_
_symmetry_equiv_pos_as_xyz
  x,y,z
_cell_length_a	19.805407
_cell_length_b	17.640280
_cell_length_c	19.805399
_cell_angle_alpha	78.776044
_cell_angle_beta	89.983114
_cell_angle_gamma	78.800112
loop_
_atom_site_label
_atom_site_type_symbol
_atom_site_fract_x
_atom_site_fract_y
_atom_site_fract_z
Zn1	Zn	1.089264	-0.314670	-0.328319
Zn2	Zn	1.112096	-0.446848	-0.192280
Zn3	Zn	0.976088	-0.314695	-0.215139
Zn4	Zn	0.998946	-0.446803	-0.305434
O5	O	1.044098	-0.380754	-0.260293
O6	O	1.187010	-0.332212	-0.310284
O7	O	1.094043	-0.429347	-0.100590
O8	O	0.971979	-0.204088	-0.249297
O9	O	1.203785	-0.429323	-0.210336
O10	O	1.055129	-0.204069	-0.332450
O11	O	0.994119	-0.332255	-0.117385
O12	O	0.884402	-0.332211	-0.227106
O13	O	1.010938	-0.429246	-0.403192
O14	O	0.901196	-0.429270	-0.293446
O15	O	1.077294	-0.332168	-0.420005
O16	O	1.116208	-0.557446	-0.188146
O17	O	1.033077	-0.557413	-0.271280
C18	C	0.868240	-0.380739	-0.260274
C19	C	0.793010	-0.380751	-0.260278
C20	C	0.766441	-0.431366	-0.294738
C21	C	0.695753	-0.431367	-0.294747
C22	C	0.651635	-0.380758	-0.260292
C23	C	0.678208	-0.330137	-0.225832
C24	C	0.748894	-0.330133	-0.225827
C25	C	0.393138	-0.330155	-0.225851
C26	C	0.322447	-0.330165	-0.225857
C27	C	0.339996	-0.431390	-0.294771
C28	C	0.410683	-0.431385	-0.294767
C29	C	0.437249	-0.380762	-0.260309
C30	C	0.513897	-0.380760	-0.260301
C31	C	0.574989	-0.380763	-0.260296
C32	C	1.079619	-0.586108	-0.224764
C33	C	1.094876	-0.673959	-0.209587
C34	C	0.928465	-0.962942	-0.375837
C35	C	0.942803	-1.045492	-0.361554
C36	C	1.029421	-1.045461	-0.275074
C37	C	1.015092	-0.962910	-0.289352
C38	C	0.964613	-0.921657	-0.339734
C39	C	1.051240	-0.921624	-0.253249
C40	C	1.036910	-0.839080	-0.267523
C41	C	0.986431	-0.797821	-0.317901
C42	C	0.950282	-0.839113	-0.354008
C43	C	1.101716	-0.962879	-0.202864
C44	C	1.137864	-0.921593	-0.166761
C45	C	1.123537	-0.839048	-0.181038
C46	C	1.073059	-0.797789	-0.231416
C47	C	1.159686	-0.797756	-0.144931
C48	C	1.145356	-0.715212	-0.159205
C49	C	1.058728	-0.715245	-0.245690
C50	C	1.220644	-0.380770	-0.260313
C51	C	1.295877	-0.380776	-0.260321
C52	C	1.044118	-0.380699	-0.436845
C53	C	1.044127	-0.380676	-0.512081
C54	C	1.008457	-0.174598	-0.295976
C55	C	0.993270	-0.086747	-0.311182
C56	C	0.992108	-0.330115	-0.556171
C57	C	0.992115	-0.330100	-0.626862
C58	C	1.044144	-0.380642	-0.653463
C59	C	1.096166	-0.431208	-0.609367
C60	C	1.096156	-0.431227	-0.538677
C61	C	1.096207	-0.431134	-0.894454
C62	C	1.096214	-0.431109	-0.965150
C63	C	0.992165	-0.330007	-0.982639
C64	C	0.992155	-0.330026	-0.911948
C65	C	1.044175	-0.380595	-0.867859
C66	C	1.044166	-0.380612	-0.791207
C67	C	1.044156	-0.380621	-0.730114
C68	C	1.044107	-0.380752	-0.084437
C69	C	1.044191	-0.380552	-0.009240
H70	H	0.770524	-0.288913	-0.197771
O71	O	0.941574	-0.281003	-1.025478
C72	C	0.905648	-0.325984	-1.058584
H73	H	0.912227	-0.388240	-1.026504
H74	H	0.848617	-0.297391	-1.064326
H75	H	0.927050	-0.328694	-1.111691
H76	H	0.887364	-0.929352	-0.416868
O77	O	0.314136	-0.480446	-0.328343
C78	C	0.265482	-0.435516	-0.379891
H79	H	0.276019	-0.373271	-0.394927
H80	H	0.269660	-0.464182	-0.426979
H81	H	0.211424	-0.432763	-0.359450
H82	H	0.909182	-0.805523	-0.395039
H83	H	0.949753	-0.288931	-0.662757
O84	O	1.146810	-0.480098	-0.991039
C85	C	1.182745	-0.435092	-1.039732
H86	H	1.176164	-0.372849	-1.029201
H87	H	1.239776	-0.463686	-1.035590
H88	H	1.161354	-0.432347	-1.093777
H89	H	1.138558	-0.472319	-0.858562
H90	H	1.138519	-0.472392	-0.502780
H91	H	0.949743	-0.288954	-0.534519
H92	H	0.414760	-0.288941	-0.197788
O93	O	0.941681	-0.280957	-0.886000
C94	C	0.952817	-0.291831	-0.814149
H95	H	1.009527	-0.317721	-0.800019
H96	H	0.937984	-0.232636	-0.797529
H97	H	0.919946	-0.333927	-0.786800
O98	O	1.078376	-1.085496	-0.226043
C99	C	1.060142	-1.065350	-0.162056
H100	H	1.002141	-1.042712	-0.162503
H101	H	1.075424	-1.119641	-0.119228
H102	H	1.088117	-1.017408	-0.152696
H103	H	1.200781	-0.831357	-0.103906
H104	H	1.178962	-0.955193	-0.125738
O105	O	0.809194	-0.480554	-0.328268
C106	C	0.770584	-0.525240	-0.358671
H107	H	0.714597	-0.492872	-0.366662
H108	H	0.792498	-0.533748	-0.410515
H109	H	0.773435	-0.585233	-0.323424
O110	O	0.669899	-0.480427	-0.328310
C111	C	0.621245	-0.435507	-0.379862
H112	H	0.631776	-0.373260	-0.394902
H113	H	0.625429	-0.464178	-0.426948
H114	H	0.567187	-0.432758	-0.359424
O115	O	0.635433	-0.281013	-0.192263
C116	C	0.655640	-0.298194	-0.121804
H117	H	0.712219	-0.328569	-0.115097
H118	H	0.648168	-0.241105	-0.101412
H119	H	0.622874	-0.338800	-0.091927
O120	O	1.146672	-0.480232	-0.635322
C121	C	1.135518	-0.469388	-0.707168
H122	H	1.102809	-0.408386	-0.727381
H123	H	1.187149	-0.474749	-0.733110
H124	H	1.107580	-0.516260	-0.719110
O125	O	1.009749	-0.675247	-0.294717
C126	C	1.028008	-0.695350	-0.358714
H127	H	1.064419	-0.755264	-0.349780
H128	H	0.979637	-0.698190	-0.388536
H129	H	1.054731	-0.648855	-0.389574
H130	H	0.974760	-0.730609	-0.329517
O131	O	1.180449	-0.675187	-0.124028
C132	C	1.169197	-0.695390	-0.053059
H133	H	1.153594	-0.755350	-0.041261
H134	H	1.218549	-0.698178	-0.022272
H135	H	1.126351	-0.648979	-0.038257
O136	O	0.453437	-0.480572	-0.328296
C137	C	0.414831	-0.525261	-0.358700
H138	H	0.358843	-0.492896	-0.366693
H139	H	0.436747	-0.533768	-0.410544
H140	H	0.417684	-0.585253	-0.323453
O141	O	0.907756	-1.085564	-0.396734
C142	C	0.918979	-1.065330	-0.467706
H143	H	0.969100	-1.042585	-0.475108
H144	H	0.922551	-1.119602	-0.491754
H145	H	0.874364	-1.017442	-0.493645
O146	O	0.279675	-0.281034	-0.192285
C147	C	0.299886	-0.298213	-0.121827
H148	H	0.356465	-0.328589	-0.115124
H149	H	0.292418	-0.241122	-0.101438
H150	H	0.267121	-0.338817	-0.091947
O151	O	1.115703	-1.043062	-0.189107
C152	C	1.137812	-1.070587	-0.249237
H153	H	1.159032	-1.022972	-0.285478
H154	H	1.179858	-1.125778	-0.234876
H155	H	1.092426	-1.085268	-0.275979
