data_functionalizedCrystal
_audit_creation_method	'MofGen! by Chris Wilmer'
_symmetry_space_group_name_H-M	'P1'
_symmetry_Int_Tables_number	1
_symmetry_cell_setting	triclinic
loop_
_symmetry_equiv_pos_as_xyz
  x,y,z
_cell_length_a	13.897449
_cell_length_b	13.897441
_cell_length_c	17.077402
_cell_angle_alpha	89.970213
_cell_angle_beta	90.024772
_cell_angle_gamma	89.981404
loop_
_atom_site_label
_atom_site_type_symbol
_atom_site_fract_x
_atom_site_fract_y
_atom_site_fract_z
Zn1	Zn	1.474643	-0.545380	-0.312464
Zn2	Zn	1.474527	-0.384081	-0.443744
Zn3	Zn	1.313339	-0.384098	-0.312499
Zn4	Zn	1.313298	-0.545334	-0.443695
O5	O	1.393952	-0.464723	-0.378100
O6	O	1.609610	-0.523996	-0.329884
O7	O	1.453113	-0.249102	-0.426369
O8	O	1.334802	-0.405520	-0.202647
O9	O	1.609524	-0.405490	-0.426335
O10	O	1.453312	-0.524012	-0.202622
O11	O	1.334689	-0.249114	-0.329944
O12	O	1.178352	-0.405475	-0.329896
O13	O	1.334732	-0.680322	-0.426251
O14	O	1.178322	-0.523933	-0.426285
O15	O	1.453272	-0.680356	-0.329837
O16	O	1.453074	-0.405445	-0.553584
O17	O	1.334620	-0.523916	-0.553548
C18	C	1.143337	-0.464701	-0.378090
C19	C	1.036123	-0.464715	-0.378104
C20	C	1.394011	-0.716316	-0.378034
C21	C	1.394036	-0.823530	-0.378006
C22	C	1.393856	-0.464695	-0.582048
C23	C	1.393903	-0.464715	-0.669298
C24	C	0.839828	-0.464740	-0.378107
C25	C	0.949061	-0.464723	-0.378103
C26	C	1.645545	-0.464746	-0.378111
C27	C	1.752759	-0.464756	-0.378116
C28	C	1.394056	-0.910600	-0.377984
C29	C	1.394083	-1.019833	-0.377949
C30	C	1.393948	-0.214109	-0.378109
C31	C	1.394110	-0.106896	-0.377916
C32	C	1.455578	-0.526464	-0.710207
C33	C	1.455618	-0.526484	-0.792188
C34	C	1.393988	-0.464750	-0.833257
C35	C	1.332307	-0.402998	-0.792342
C36	C	1.332262	-0.402984	-0.710364
C37	C	1.332406	-0.403032	-0.963212
C38	C	1.332452	-0.403046	-1.045197
C39	C	1.455762	-0.526533	-1.045037
C40	C	1.455717	-0.526518	-0.963058
C41	C	1.394037	-0.464765	-0.922148
C42	C	1.394074	-0.464773	-0.173356
C43	C	1.394126	-0.464794	-0.086106
H44	H	1.505768	-0.576730	-0.676774
Cl45	Cl	1.533143	-0.604128	-0.843613
H46	H	1.505906	-0.576781	-0.929619
Cl47	Cl	1.533306	-0.604162	-1.096465
Cl48	Cl	1.254866	-0.325396	-0.911785
Cl49	Cl	1.254819	-0.325399	-0.843973
Cl50	Cl	1.254724	-0.325354	-0.658935
H51	H	1.282263	-0.352780	-1.078634
