data_functionalizedCrystal
_audit_creation_method	'MofGen! by Chris Wilmer'
_symmetry_space_group_name_H-M	'P1'
_symmetry_Int_Tables_number	1
_symmetry_cell_setting	triclinic
loop_
_symmetry_equiv_pos_as_xyz
  x,y,z
_cell_length_a	6.817900
_cell_length_b	10.992421
_cell_length_c	16.305550
_cell_angle_alpha	93.823954
_cell_angle_beta	103.455250
_cell_angle_gamma	108.764763
loop_
_atom_site_label
_atom_site_type_symbol
_atom_site_fract_x
_atom_site_fract_y
_atom_site_fract_z
V1	V	-4.053422	-0.178845	-0.263020
O2	O	-4.012705	0.007478	-0.258025
O3	O	-4.031419	-0.353546	-0.261209
O4	O	-4.004484	-0.176583	-0.377737
O5	O	-4.039826	-0.170709	-0.140690
V6	V	-4.533699	-0.156501	-0.248389
O7	O	-4.321800	-0.227859	-0.295112
O8	O	-4.715518	-0.107487	-0.216297
O9	O	-4.332495	0.018201	-0.250200
O10	O	-4.691813	-0.342824	-0.253384
O11	O	-4.664691	-0.164636	-0.370719
O12	O	-4.359430	-0.158762	-0.133672
C13	C	-3.882859	-0.396119	-0.257057
C14	C	-3.946153	-0.538943	-0.256341
C15	C	-3.815151	-0.734207	-0.250572
C16	C	-3.748974	-0.585564	-0.250982
C17	C	-4.034956	-0.577254	-0.177670
C18	C	-4.099384	-0.725794	-0.176836
C19	C	-4.193593	-0.765041	-0.338109
C20	C	-4.124145	-0.616534	-0.339816
C21	C	-3.848500	-0.170384	-0.405698
C22	C	-3.889946	-0.169691	-0.499480
C23	C	-4.040625	-0.167006	-0.840226
C24	C	-3.803366	-0.159034	-0.799298
C25	C	-3.760362	-0.160286	-0.701803
C26	C	-3.965870	-0.168337	-0.671178
C27	C	-4.152184	-0.295225	-0.721796
C28	C	-4.193938	-0.294507	-0.819346
C29	C	-4.077465	-0.049105	-0.794390
C30	C	-4.029383	-0.048101	-0.696548
C31	C	-3.923635	-0.169094	-0.575640
C32	C	-4.082870	-0.166258	-0.935765
C33	C	-4.144398	0.060767	-0.254350
C34	C	-4.060343	0.203590	-0.255071
C35	C	-4.178757	-0.164966	-0.105706
C36	C	-4.116548	-0.165652	-0.011924
H37	H	-3.620002	-0.069055	-0.666785
H38	H	-4.110316	-0.384503	-0.704978
H39	H	-3.894075	0.045752	-0.662176
H40	H	-4.369466	-0.305635	-0.847337
H41	H	-4.250246	-0.053817	-0.821206
H42	H	-4.271894	-0.586363	-0.348602
C43	C	-3.590893	-0.225273	-0.879364
C44	C	-3.759864	-0.273381	-0.841831
H45	H	-3.564057	-0.295870	-0.905629
H46	H	-3.465144	-0.172681	-0.836764
H47	H	-3.628904	-0.174659	-0.921164
H48	H	-3.721846	-0.323988	-0.800027
H49	H	-3.885639	-0.325995	-0.884436
C50	C	-3.681246	-0.701987	-0.374183
C51	C	-3.762845	-0.797183	-0.325989
H52	H	-3.648976	-0.740877	-0.420747
H53	H	-3.554072	-0.637196	-0.339257
H54	H	-3.785373	-0.663341	-0.395241
H55	H	-3.658711	-0.835822	-0.304925
H56	H	-3.890035	-0.861997	-0.360921
C57	C	-4.324895	-0.203985	-0.634559
C58	C	-4.361093	-0.309390	-0.696263
H59	H	-4.453864	-0.212736	-0.618792
H60	H	-4.280648	-0.125367	-0.657284
H61	H	-4.215644	-0.202382	-0.585747
H62	H	-4.470334	-0.310987	-0.745078
H63	H	-4.405369	-0.388029	-0.673539
C64	C	-4.077647	-0.738162	-0.466068
C65	C	-4.166469	-0.832213	-0.418476
H66	H	-4.060900	-0.779635	-0.515682
H67	H	-3.941317	-0.680749	-0.432440
H68	H	-4.170510	-0.690335	-0.482371
H69	H	-4.073598	-0.880035	-0.402168
H70	H	-4.302819	-0.889650	-0.452111
C71	C	-4.542994	-0.910284	-0.418610
C72	C	-4.435101	-0.820558	-0.343687
H73	H	-4.692086	-0.944553	-0.422051
H74	H	-4.486844	-0.978983	-0.417982
H75	H	-4.523251	-0.868156	-0.466610
H76	H	-4.454831	-0.862688	-0.295686
H77	H	-4.491270	-0.751847	-0.344307
H78	H	-4.061684	-0.592878	-0.398021
H79	H	-3.678851	-0.560032	-0.307196
C80	C	-3.517200	-0.605689	-0.121039
C81	C	-3.566973	-0.514423	-0.170074
H82	H	-3.404846	-0.561766	-0.071085
H83	H	-3.472014	-0.661318	-0.153459
H84	H	-3.640983	-0.655865	-0.105307
H85	H	-3.443193	-0.464253	-0.185811
H86	H	-3.612151	-0.458771	-0.137647
H87	H	-3.683299	-0.067371	-0.811668
H88	H	-3.706956	-0.245971	-0.685504
C89	C	-4.107798	-0.487135	-0.796997
C90	C	-4.163435	-0.414987	-0.860357
H91	H	-4.088948	-0.561509	-0.822313
H92	H	-4.219100	-0.513944	-0.769198
H93	H	-3.977587	-0.434882	-0.756515
H94	H	-4.293655	-0.467237	-0.900835
H95	H	-4.052124	-0.388179	-0.888169
C96	C	-3.811134	0.056406	-0.865010
C97	C	-3.934347	0.080687	-0.812436
H98	H	-3.722758	0.136532	-0.876145
H99	H	-3.903845	0.004770	-0.917284
H100	H	-3.723208	0.011466	-0.837245
H101	H	-4.022285	0.125619	-0.840203
H102	H	-3.841625	0.132344	-0.760152
H103	H	-3.713207	-0.754520	-0.190688
H104	H	-4.176431	-0.046522	-0.675200
C105	C	-4.014718	-0.690359	-0.023829
C106	C	-3.969301	-0.749096	-0.092516
H107	H	-3.934391	-0.704733	0.028227
H108	H	-4.163940	-0.726936	-0.028027
H109	H	-3.976586	-0.599567	-0.025098
H110	H	-4.007448	-0.839890	-0.091250
H111	H	-3.820046	-0.712524	-0.088316
C112	C	-4.394031	-0.598723	-0.253791
C113	C	-4.231265	-0.536438	-0.178892
H114	H	-4.515217	-0.573515	-0.254549
H115	H	-4.434388	-0.690230	-0.255728
H116	H	-4.342878	-0.574644	-0.301890
H117	H	-4.282413	-0.560525	-0.130792
H118	H	-4.190907	-0.444911	-0.176947
H119	H	-3.908658	-0.522762	-0.115871
H120	H	-4.275624	-0.766677	-0.176712
