data_functionalizedCrystal
_audit_creation_method	'MofGen! by Chris Wilmer'
_symmetry_space_group_name_H-M	'P1'
_symmetry_Int_Tables_number	1
_symmetry_cell_setting	triclinic
loop_
_symmetry_equiv_pos_as_xyz
  x,y,z
_cell_length_a	25.639243
_cell_length_b	25.639240
_cell_length_c	13.897449
_cell_angle_alpha	90.021162
_cell_angle_beta	90.009699
_cell_angle_gamma	90.035481
loop_
_atom_site_label
_atom_site_type_symbol
_atom_site_fract_x
_atom_site_fract_y
_atom_site_fract_z
Zn1	Zn	0.799214	-0.208201	0.545403
Zn2	Zn	0.799156	-0.295613	0.384074
Zn3	Zn	0.711800	-0.208197	0.384111
Zn4	Zn	0.711745	-0.295611	0.545316
O5	O	0.755479	-0.251906	0.464726
O6	O	0.872372	-0.219798	0.524024
O7	O	0.787567	-0.284016	0.249098
O8	O	0.723443	-0.135032	0.405559
O9	O	0.872329	-0.284019	0.405496
O10	O	0.787666	-0.135035	0.524060
O11	O	0.723387	-0.219792	0.249125
O12	O	0.638628	-0.219791	0.405475
O13	O	0.723349	-0.284017	0.680309
O14	O	0.638587	-0.284014	0.523911
O15	O	0.787612	-0.219797	0.680373
O16	O	0.787514	-0.368778	0.405411
O17	O	0.723293	-0.368777	0.523875
C18	C	0.619636	-0.251902	0.464688
C19	C	0.561522	-0.251913	0.464695
C20	C	0.755405	-0.387748	0.464651
C21	C	0.755421	-0.445862	0.464651
C22	C	0.201176	-0.218518	0.526547
C23	C	0.146571	-0.218518	0.526553
O24	O	0.118349	-0.190115	0.579094
N25	N	0.119240	-0.251904	0.464753
C26	C	0.146515	-0.285289	0.402936
O27	O	0.118254	-0.313686	0.350371
C28	C	0.201119	-0.285286	0.402926
C29	C	0.228447	-0.251902	0.464737
C30	C	0.228505	-0.185136	0.588352
C31	C	0.283105	-0.185137	0.588347
C32	C	0.310377	-0.218521	0.526537
C33	C	0.283048	-0.251903	0.464732
C34	C	0.228393	-0.318668	0.341105
C35	C	0.283000	-0.318663	0.341100
C36	C	0.310329	-0.285278	0.402911
C37	C	0.364920	-0.285288	0.402917
N38	N	0.392252	-0.251902	0.464717
C39	C	0.364980	-0.218518	0.526527
C40	C	0.031845	-0.285291	0.402961
C41	C	-0.022758	-0.285297	0.402975
C42	C	-0.022698	-0.218525	0.526591
C43	C	0.031906	-0.218522	0.526581
C44	C	0.059176	-0.251905	0.464761
C45	C	0.479645	-0.218524	0.526512
C46	C	0.534251	-0.218529	0.526505
C47	C	0.534186	-0.285299	0.402886
C48	C	0.479585	-0.285296	0.402897
C49	C	0.452316	-0.251904	0.464713
O50	O	0.393178	-0.313675	0.350400
O51	O	0.393249	-0.190121	0.579075
C52	C	0.788936	-0.806188	0.526541
C53	C	0.788952	-0.860793	0.526560
O54	O	0.817360	-0.888998	0.579104
N55	N	0.755551	-0.888145	0.464820
C56	C	0.722130	-0.860889	0.403062
O57	O	0.693721	-0.889168	0.350549
C58	C	0.722112	-0.806286	0.403048
C59	C	0.755518	-0.778937	0.464786
C60	C	0.822339	-0.778839	0.588275
C61	C	0.822325	-0.724238	0.588254
C62	C	0.788907	-0.696987	0.526499
C63	C	0.755503	-0.724336	0.464765
C64	C	0.688688	-0.779032	0.341296
C65	C	0.688673	-0.724425	0.341288
C66	C	0.722079	-0.697076	0.403026
C67	C	0.722071	-0.642485	0.402989
N68	N	0.755471	-0.615133	0.464730
C69	C	0.788889	-0.642384	0.526485
C70	C	0.722169	-0.975560	0.403097
C71	C	0.722189	-1.030162	0.403106
C72	C	0.789010	-1.030062	0.526606
C73	C	0.788992	-0.975458	0.526592
C74	C	0.755569	-0.948208	0.464838
C75	C	0.788855	-0.527719	0.526435
C76	C	0.788839	-0.473113	0.526406
C77	C	0.722016	-0.473219	0.402910
C78	C	0.722034	-0.527819	0.402935
C79	C	0.755456	-0.555068	0.464706
O80	O	0.693676	-0.614245	0.350475
O81	O	0.817288	-0.614098	0.578998
C82	C	0.891852	-0.251909	0.464765
C83	C	0.949966	-0.251911	0.464782
C84	C	0.755481	-0.251908	0.716319
C85	C	0.755482	-0.251909	0.823533
C86	C	0.755567	-0.115532	0.464823
C87	C	0.755605	-0.057418	0.464865
C88	C	0.755468	-0.251911	1.019828
C89	C	0.755474	-0.251911	0.910596
C90	C	0.755472	-0.251914	1.214112
C91	C	0.755468	-0.251910	1.106898
H92	H	0.556499	-0.191343	0.576842
H93	H	0.054045	-0.312480	0.352622
H94	H	0.457333	-0.312486	0.352576
Cl95	Cl	0.317280	-0.360634	0.263381
Cl96	Cl	0.194050	-0.360630	0.263375
Cl97	Cl	0.864355	-0.813088	0.665923
Cl98	Cl	0.445373	-0.176545	0.604226
Cl99	Cl	0.646687	-0.813401	0.263681
H100	H	0.054153	-0.191336	0.576910
H101	H	0.694953	-0.953376	0.352802
Cl102	Cl	0.680044	-0.562202	0.325308
Cl103	Cl	0.680007	-0.438950	0.325279
Cl104	Cl	0.646653	-0.690171	0.263649
H105	H	0.305352	-0.157951	0.638678
H106	H	0.206306	-0.157948	0.638685
Cl107	Cl	-0.056992	-0.176554	0.604291
Cl108	Cl	0.830989	-0.941082	0.604210
Cl109	Cl	0.830839	-0.438735	0.604024
Cl110	Cl	-0.057107	-0.327273	0.325276
Cl111	Cl	0.830873	-0.561966	0.604087
Cl112	Cl	0.568480	-0.327265	0.325186
H113	H	0.849525	-0.701974	0.638529
Cl114	Cl	0.831021	-1.064331	0.604243
H115	H	0.694992	-1.052426	0.352822
