data_functionalizedCrystal
_audit_creation_method	'MofGen! by Chris Wilmer'
_symmetry_space_group_name_H-M	'P1'
_symmetry_Int_Tables_number	1
_symmetry_cell_setting	triclinic
loop_
_symmetry_equiv_pos_as_xyz
  x,y,z
_cell_length_a	16.625546
_cell_length_b	21.395364
_cell_length_c	21.395355
_cell_angle_alpha	90.025298
_cell_angle_beta	89.981524
_cell_angle_gamma	89.960831
loop_
_atom_site_label
_atom_site_type_symbol
_atom_site_fract_x
_atom_site_fract_y
_atom_site_fract_z
Zn1	Zn	-0.320736	-0.957895	-0.354274
Zn2	Zn	-0.455551	-0.957813	-0.249497
Zn3	Zn	-0.320775	-0.853110	-0.249509
Zn4	Zn	-0.455569	-0.853094	-0.354236
O5	O	-0.388158	-0.905478	-0.301879
O6	O	-0.338595	-1.045562	-0.340386
O7	O	-0.437681	-0.943896	-0.161821
O8	O	-0.207937	-0.867051	-0.263428
O9	O	-0.437643	-1.045501	-0.263407
O10	O	-0.207909	-0.944036	-0.340398
O11	O	-0.338662	-0.866971	-0.161830
O12	O	-0.338680	-0.765430	-0.263391
O13	O	-0.437675	-0.867024	-0.441919
O14	O	-0.437713	-0.765419	-0.340333
O15	O	-0.338613	-0.944021	-0.441947
O16	O	-0.568386	-0.943880	-0.263369
O17	O	-0.568399	-0.866944	-0.340320
C18	C	-0.388203	-0.742690	-0.301859
C19	C	-0.388242	-0.673049	-0.301866
C20	C	-0.336754	-0.640390	-0.342010
C21	C	-0.336735	-0.574955	-0.342012
C22	C	-0.388219	-0.542181	-0.301875
C23	C	-0.439711	-0.574848	-0.261723
C24	C	-0.439723	-0.640282	-0.261718
C25	C	-0.460836	-0.438465	-0.296837
C26	C	-0.460825	-0.373032	-0.296846
C27	C	-0.388183	-0.340360	-0.301887
C28	C	-0.315548	-0.373130	-0.306932
C29	C	-0.315559	-0.438564	-0.306927
C30	C	-0.388212	-0.471228	-0.301876
C31	C	-0.336669	-0.236748	-0.342035
C32	C	-0.336649	-0.171312	-0.342032
C33	C	-0.439632	-0.171206	-0.261747
C34	C	-0.439645	-0.236642	-0.261746
C35	C	-0.388165	-0.269409	-0.301894
C36	C	-0.597649	-0.905419	-0.301853
C37	C	-0.687270	-0.905451	-0.301862
C38	C	-1.015445	-0.905560	-0.301928
C39	C	-0.924137	-0.905528	-0.301911
C40	C	-0.851360	-0.905505	-0.301895
C41	C	-0.760046	-0.905473	-0.301879
C42	C	-0.177849	-0.905555	-0.301919
C43	C	-0.088228	-0.905587	-0.301936
C44	C	-0.388141	-0.905530	-0.465302
C45	C	-0.388134	-0.905552	-0.534944
C46	C	-0.388122	-0.068901	-0.301896
C47	C	-0.388133	-0.138543	-0.301895
C48	C	-0.336551	-0.945643	-0.567672
C49	C	-0.336516	-0.945642	-0.633108
C50	C	-0.388079	-0.905557	-0.665812
C51	C	-0.439667	-0.865459	-0.633075
C52	C	-0.439694	-0.865456	-0.567641
C53	C	-0.460682	-0.900589	-0.769478
C54	C	-0.460656	-0.900596	-0.834911
C55	C	-0.387994	-0.905561	-0.867633
C56	C	-0.315357	-0.910532	-0.834914
C57	C	-0.315384	-0.910530	-0.769480
C58	C	-0.388055	-0.905555	-0.736764
C59	C	-0.336369	-0.945653	-0.971314
C60	C	-0.336333	-0.945647	-1.036751
C61	C	-0.439490	-0.865468	-1.036717
C62	C	-0.439519	-0.865470	-0.971282
C63	C	-0.387960	-0.905565	-0.938584
C64	C	-0.388116	-0.905462	-0.139091
C65	C	-0.387896	-0.905562	-0.069451
H66	H	-0.256418	-0.465242	-0.311032
N67	N	-0.281217	-0.675737	-0.385295
H68	H	-0.314039	-0.702884	-0.414283
H69	H	-0.248600	-0.645080	-0.410685
H70	H	-0.481466	-0.832824	-1.063344
N71	N	-0.539060	-0.895240	-0.734189
H72	H	-0.528057	-0.895992	-0.687773
H73	H	-0.566471	-0.854685	-0.745610
N74	N	-0.538995	-0.895234	-0.870198
H75	H	-0.546541	-0.933402	-0.897359
H76	H	-0.584981	-0.892060	-0.839502
N77	N	-0.495189	-0.271876	-0.218457
H78	H	-0.462372	-0.299031	-0.189466
H79	H	-0.527795	-0.241150	-0.193071
H80	H	-0.481699	-0.832807	-0.540993
H81	H	-0.519969	-0.346356	-0.292741
N82	N	-0.495269	-0.822214	-0.668344
H83	H	-0.487423	-0.828297	-0.714763
H84	H	-0.552861	-0.831935	-0.656914
N85	N	-0.236974	-0.915880	-0.870192
H86	H	-0.209530	-0.956439	-0.858823
H87	H	-0.248033	-0.915095	-0.916598
H88	H	-0.294803	-0.548358	-0.374702
H89	H	-0.256395	-0.346530	-0.311037
H90	H	-0.256240	-0.914576	-0.742843
N91	N	-0.495164	-0.135865	-0.218457
H92	H	-0.527787	-0.166487	-0.193026
H93	H	-0.462281	-0.108724	-0.189510
H94	H	-0.519995	-0.465060	-0.292731
N95	N	-0.280767	-0.988895	-0.936036
H96	H	-0.223150	-0.979191	-0.947408
H97	H	-0.288695	-0.982789	-0.889630
N98	N	-0.281145	-0.272096	-0.385333
H99	H	-0.248518	-0.241474	-0.410762
H100	H	-0.243790	-0.299259	-0.359879
H101	H	-0.294716	-0.144722	-0.374722
H102	H	-0.481529	-0.832827	-0.944633
N103	N	-0.495235	-0.539504	-0.218427
H104	H	-0.487416	-0.493095	-0.224522
H105	H	-0.552843	-0.550910	-0.228094
H106	H	-0.481652	-0.666873	-0.229026
H107	H	-0.294566	-0.978291	-0.541054
N108	N	-0.280877	-0.988883	-0.668419
H109	H	-0.248219	-1.014282	-0.637776
H110	H	-0.313686	-1.017864	-0.695579
H111	H	-0.294322	-0.978293	-1.063398
