data_functionalizedCrystal
_audit_creation_method	'MofGen! by Chris Wilmer'
_symmetry_space_group_name_H-M	'P1'
_symmetry_Int_Tables_number	1
_symmetry_cell_setting	triclinic
loop_
_symmetry_equiv_pos_as_xyz
  x,y,z
_cell_length_a	12.811457
_cell_length_b	11.792241
_cell_length_c	11.892057
_cell_angle_alpha	85.653074
_cell_angle_beta	91.068351
_cell_angle_gamma	84.118185
loop_
_atom_site_label
_atom_site_type_symbol
_atom_site_fract_x
_atom_site_fract_y
_atom_site_fract_z
O1	O	1.390418	0.149504	0.048537
O2	O	1.086926	0.168283	0.017422
O3	O	1.246036	-0.006344	0.033743
O4	O	1.231308	0.324131	0.032217
O5	O	1.234054	-0.019278	0.220524
O6	O	1.074944	0.155349	0.204203
O7	O	1.378436	0.136570	0.235319
Zn8	Zn	1.224787	0.143906	0.249416
Zn9	Zn	1.240574	0.160947	0.003324
O10	O	1.219325	0.311197	0.218998
C11	C	1.042081	0.161161	0.106829
C12	C	0.926309	0.159194	0.094960
C13	C	0.695698	0.141375	0.276307
C14	C	0.586920	0.139526	0.265161
C15	C	0.599973	0.153640	0.061521
C16	C	0.708752	0.155488	0.072667
C17	C	0.756610	0.149357	0.180064
C18	C	0.865389	0.151214	0.191210
C19	C	0.878441	0.165320	-0.012429
C20	C	0.769663	0.163471	-0.023576
C21	C	1.239120	-0.055094	0.127038
C22	C	1.236351	-0.181082	0.126753
C23	C	1.231259	-0.411747	0.126212
C24	C	1.234088	-0.283388	0.126512
C25	C	1.423281	0.143693	0.145909
C26	C	1.539053	0.145660	0.157771
C27	C	1.226242	0.359947	0.125700
C28	C	1.229012	0.485936	0.125978
N29	N	1.214021	0.132275	0.417369
C30	C	1.139118	0.051354	0.587239
C31	C	1.146635	0.059481	0.469666
C32	C	1.273896	0.196946	0.482652
C33	C	1.266379	0.188819	0.600225
C34	C	1.198987	0.116022	0.652514
C35	C	1.191465	0.107903	0.770088
C36	C	1.318731	0.245361	0.783072
C37	C	1.326248	0.253488	0.665500
N38	N	1.251341	0.172573	0.835372
H39	H	0.734663	0.136398	0.363754
H40	H	0.928047	0.171826	-0.090798
N41	N	1.066439	-0.027157	0.643650
H42	H	1.012564	0.018978	0.687232
H43	H	1.029721	-0.066875	0.584396
N44	N	1.383325	0.315074	0.853506
H45	H	1.460371	0.293950	0.840794
H46	H	1.364466	0.399088	0.830966
N47	N	1.398933	0.331993	0.609090
H48	H	1.356964	0.390992	0.555686
H49	H	1.435705	0.371650	0.668351
H50	H	1.097884	0.006820	0.416523
H51	H	1.136587	0.048632	0.812659
H52	H	0.904352	0.146229	0.278658
N53	N	0.521222	0.130911	0.368966
H54	H	0.568139	0.126528	0.438694
H55	H	0.468217	0.200542	0.368339
N56	N	1.346594	0.275440	0.426247
H57	H	1.342273	0.270765	0.341861
H58	H	1.325151	0.356607	0.444710
H59	H	0.560990	0.158612	-0.025917
N60	N	0.718044	0.170073	-0.139406
H61	H	0.639890	0.167687	-0.131865
H62	H	0.731849	0.243812	-0.182745
