data_functionalizedCrystal
_audit_creation_method	'MofGen! by Chris Wilmer'
_symmetry_space_group_name_H-M	'P1'
_symmetry_Int_Tables_number	1
_symmetry_cell_setting	triclinic
loop_
_symmetry_equiv_pos_as_xyz
  x,y,z
_cell_length_a	14.971486
_cell_length_b	15.995350
_cell_length_c	14.048226
_cell_angle_alpha	89.995798
_cell_angle_beta	89.998499
_cell_angle_gamma	83.553252
loop_
_atom_site_label
_atom_site_type_symbol
_atom_site_fract_x
_atom_site_fract_y
_atom_site_fract_z
O1	O	1.186822	0.109116	-0.079046
O2	O	0.926407	0.122183	-0.079072
O3	O	1.063733	-0.006231	-0.079057
O4	O	1.049496	0.237530	-0.079061
O5	O	1.063717	-0.006238	0.079264
O6	O	0.926391	0.122176	0.079250
O7	O	1.186806	0.109109	0.079275
Zn8	Zn	1.056596	0.115641	0.104399
Zn9	Zn	1.056617	0.115651	-0.104196
O10	O	1.049480	0.237523	0.079261
C11	C	0.893075	0.121595	0.000086
C12	C	0.793780	0.119844	0.000076
C13	C	1.063137	-0.037430	0.000101
C14	C	1.061372	-0.130382	0.000096
C15	C	0.736468	0.195284	0.000076
C16	C	0.643171	0.193633	0.000090
C17	C	0.607187	0.116542	0.000098
C18	C	0.664505	0.041097	0.000100
C19	C	0.757801	0.042748	0.000093
C20	C	0.470047	0.037660	0.000113
C21	C	0.376745	0.036008	0.000119
C22	C	0.355417	0.188545	0.000111
C23	C	0.448712	0.190197	0.000104
C24	C	0.506025	0.114751	0.000104
C25	C	1.055035	-0.468136	0.000098
C26	C	0.957234	-0.420800	-0.000266
C27	C	0.958999	-0.324108	0.000091
C28	C	1.058178	-0.300572	0.000097
C29	C	1.106408	-0.341606	0.090509
C30	C	1.103951	-0.438244	0.090584
C31	C	1.105990	-0.438591	-0.089456
C32	C	1.105967	-0.341646	-0.090651
C33	C	1.059960	-0.205873	0.000099
C34	C	1.053256	-0.562835	0.000103
C35	C	1.220138	0.109697	0.000116
C36	C	1.319433	0.111448	0.000119
C37	C	1.050077	0.268722	0.000100
C38	C	1.051841	0.361674	0.000099
N39	N	1.056587	0.115634	0.246760
N40	N	1.056633	0.115652	-0.246557
C41	C	1.117414	0.058795	0.296584
C42	C	1.117421	0.058795	0.396242
C43	C	1.056603	0.115637	0.446073
C44	C	0.995769	0.172478	0.396242
C45	C	0.995760	0.172474	0.296586
C46	C	0.995795	0.172484	0.603956
C47	C	0.995806	0.172490	0.703619
C48	C	1.117456	0.058805	0.703612
C49	C	1.117446	0.058801	0.603956
C50	C	1.056614	0.115643	0.554132
H51	H	0.765759	0.258060	0.000070
F52	F	1.062607	-0.304560	0.178447
H53	H	0.946227	0.218756	0.256020
H54	H	0.918310	-0.440436	0.064202
H55	H	1.166973	0.012520	0.563384
H56	H	1.175755	-0.470420	0.094691
H57	H	0.596511	0.255064	0.000090
F58	F	1.182150	-0.001701	0.243559
H59	H	1.178098	-0.470280	-0.090060
H60	H	0.946246	0.218758	0.436821
F61	F	1.060232	-0.305683	-0.178087
H62	H	0.308748	0.249976	0.000115
H63	H	1.166988	0.012522	0.744185
H64	H	1.166950	0.012513	0.436809
H65	H	0.804464	-0.018683	0.000092
H66	H	0.478007	0.252971	0.000089
H67	H	0.516709	-0.023776	0.000115
H68	H	0.946281	0.218776	0.744187
F69	F	1.064199	-0.465466	-0.179027
H70	H	0.347450	-0.026766	0.000126
H71	H	1.178293	-0.326211	-0.096106
F72	F	0.931046	0.232981	0.550934
H73	H	0.920818	-0.296284	0.065005
F74	F	0.626206	-0.040950	0.000114
H75	H	0.921086	-0.295721	-0.064720
F76	F	1.201647	-0.323049	0.094913
F77	F	0.906146	-0.445067	-0.085014
H78	H	1.068768	-0.456584	0.158165
