data_functionalizedCrystal
_audit_creation_method	'MofGen! by Chris Wilmer'
_symmetry_space_group_name_H-M	'P1'
_symmetry_Int_Tables_number	1
_symmetry_cell_setting	triclinic
loop_
_symmetry_equiv_pos_as_xyz
  x,y,z
_cell_length_a	12.827893
_cell_length_b	12.827892
_cell_length_c	12.827885
_cell_angle_alpha	90.031912
_cell_angle_beta	89.980538
_cell_angle_gamma	89.974721
loop_
_atom_site_label
_atom_site_type_symbol
_atom_site_fract_x
_atom_site_fract_y
_atom_site_fract_z
Zn1	Zn	1.597601	0.415978	-0.590833
Zn2	Zn	1.597465	0.590755	-0.416087
Zn3	Zn	1.422842	0.416029	-0.416107
Zn4	Zn	1.422798	0.590678	-0.590787
O5	O	1.510176	0.503360	-0.503454
O6	O	1.743819	0.439173	-0.567664
O7	O	1.574262	0.567631	-0.269854
O8	O	1.446099	0.269787	-0.439312
O9	O	1.743719	0.567582	-0.439279
O10	O	1.574494	0.269749	-0.567683
O11	O	1.445967	0.439261	-0.269868
O12	O	1.276600	0.439186	-0.439268
O13	O	1.446025	0.567450	-0.737029
O14	O	1.276568	0.567500	-0.567604
O15	O	1.574452	0.439099	-0.737063
O16	O	1.574220	0.736981	-0.439234
O17	O	1.445893	0.736924	-0.567585
C18	C	1.238666	0.503341	-0.503434
C19	C	1.122513	0.503358	-0.503450
C20	C	1.070778	0.439930	-0.567078
C21	C	0.950728	0.439946	-0.567096
C22	C	1.510065	0.774870	-0.503425
C23	C	1.510113	0.891023	-0.503448
C24	C	1.573610	0.942706	-0.567025
C25	C	1.573661	1.062756	-0.567050
C26	C	1.782746	0.503380	-0.503474
C27	C	1.898900	0.503389	-0.503483
C28	C	1.510274	1.230790	-0.503497
C29	C	1.510207	1.114637	-0.503493
C30	C	1.510248	0.503260	-0.776024
C31	C	1.510279	0.503217	-0.892177
C32	C	1.446815	0.439683	-0.943969
C33	C	1.446845	0.439637	-1.064019
C34	C	1.510165	0.503385	-0.231944
C35	C	1.510337	0.503133	-0.115791
H36	H	1.077929	0.557670	-0.448987
O37	O	1.575245	0.567920	-0.945342
C38	C	1.642710	0.508346	-1.008513
H39	H	1.649223	0.426083	-0.975572
H40	H	1.723114	0.546141	-1.009856
H41	H	1.610350	0.504641	-1.091192
H42	H	1.115362	0.385612	-0.621535
H43	H	1.455784	0.935653	-0.449041
H44	H	0.906236	0.385647	-0.621574
O45	O	1.638388	0.889312	-0.631844
C46	C	1.623903	0.781335	-0.617401
H47	H	1.589701	0.766624	-0.536708
H48	H	1.702119	0.739705	-0.624513
H49	H	1.568178	0.750361	-0.679304
O50	O	1.382012	0.374685	-0.890965
C51	C	1.404901	0.270497	-0.917558
H52	H	1.445027	0.268229	-0.996834
H53	H	1.329501	0.223631	-0.921187
H54	H	1.458680	0.235380	-0.856159
H55	H	1.392516	0.385239	-1.108559
H56	H	1.628026	1.107203	-0.621477
O57	O	1.445200	1.061743	-0.438604
C58	C	1.341021	1.088389	-0.461352
H59	H	1.338795	1.167635	-0.501466
H60	H	1.294200	1.092110	-0.385889
H61	H	1.305826	1.026972	-0.515091
O62	O	1.575012	0.568143	-1.062624
C63	C	1.515408	0.635581	-0.999449
H64	H	1.433138	0.642046	-1.032399
H65	H	1.553159	0.716006	-0.998091
H66	H	1.511730	0.603225	-0.916776
H67	H	0.943384	0.557700	-0.449012
