data_functionalizedCrystal
_audit_creation_method	'MofGen! by Chris Wilmer'
_symmetry_space_group_name_H-M	'P1'
_symmetry_Int_Tables_number	1
_symmetry_cell_setting	triclinic
loop_
_symmetry_equiv_pos_as_xyz
  x,y,z
_cell_length_a	21.295411
_cell_length_b	17.077404
_cell_length_c	17.077402
_cell_angle_alpha	90.023108
_cell_angle_beta	90.018237
_cell_angle_gamma	90.024445
loop_
_atom_site_label
_atom_site_type_symbol
_atom_site_fract_x
_atom_site_fract_y
_atom_site_fract_z
Zn1	Zn	-0.355924	-1.200093	0.312593
Zn2	Zn	-0.250656	-1.199989	0.443841
Zn3	Zn	-0.250670	-1.068813	0.312594
Zn4	Zn	-0.355888	-1.068793	0.443821
O5	O	-0.303285	-1.134422	0.378212
O6	O	-0.341970	-1.309926	0.330011
O7	O	-0.162568	-1.182553	0.426440
O8	O	-0.264653	-1.086280	0.202747
O9	O	-0.264630	-1.309849	0.426439
O10	O	-0.341983	-1.182731	0.202746
O11	O	-0.162578	-1.086179	0.330013
O12	O	-0.264618	-0.958964	0.329994
O13	O	-0.443982	-1.086245	0.426405
O14	O	-0.341921	-0.958949	0.426406
O15	O	-0.444009	-1.182711	0.329992
O16	O	-0.264594	-1.182533	0.553686
O17	O	-0.341908	-1.086144	0.553671
C18	C	-0.303267	-0.930474	0.378198
C19	C	-0.303275	-0.843224	0.378211
C20	C	-0.303259	-1.134346	0.582160
C21	C	-0.303270	-1.134386	0.669410
C22	C	-0.467475	-1.134487	0.378196
C23	C	-0.537443	-1.134515	0.378189
C24	C	-0.570325	-1.184742	0.327984
C25	C	-0.636067	-1.184741	0.327950
C26	C	-0.668926	-1.134521	0.378135
C27	C	-0.636036	-1.084284	0.428343
C28	C	-0.570295	-1.084281	0.428370
N29	N	-0.772144	-1.128474	0.446804
N30	N	-0.834596	-1.128481	0.446776
C31	C	-0.867000	-1.134526	0.378055
N32	N	-0.834594	-1.140578	0.309362
N33	N	-0.772137	-1.140575	0.309390
C34	C	-0.740211	-1.134518	0.378111
C35	C	-0.971168	-1.184755	0.327809
C36	C	-1.036911	-1.184748	0.327774
C37	C	-1.036879	-1.084295	0.428173
C38	C	-0.971136	-1.084297	0.428202
C39	C	-0.938285	-1.134532	0.378021
C40	C	-0.139733	-1.134402	0.378172
C41	C	-0.069765	-1.134527	0.377958
C42	C	-0.303302	-1.339166	0.378227
C43	C	-0.303310	-1.426416	0.378233
C44	C	-0.343462	-0.802247	0.428488
C45	C	-0.343472	-0.720266	0.428490
C46	C	-0.303291	-0.679265	0.378218
C47	C	-0.263102	-0.720248	0.327935
C48	C	-0.263096	-0.802227	0.327930
C49	C	-0.263117	-0.549378	0.327950
C50	C	-0.263123	-0.467393	0.327956
C51	C	-0.343494	-0.467417	0.428511
C52	C	-0.343487	-0.549396	0.428506
C53	C	-0.303297	-0.590374	0.378223
C54	C	-0.303324	-1.134519	0.173468
C55	C	-0.303340	-1.134561	0.086218
C56	C	-0.263056	-1.184627	0.710382
C57	C	-0.263072	-1.184665	0.792362
C58	C	-0.303299	-1.134458	0.833369
C59	C	-0.343517	-1.084214	0.792392
C60	C	-0.343504	-1.084181	0.710413
C61	C	-0.343541	-1.084287	0.963262
C62	C	-0.343554	-1.084320	1.045246
C63	C	-0.263109	-1.184772	1.045211
C64	C	-0.263096	-1.184738	0.963232
C65	C	-0.303313	-1.134493	0.922260
H66	H	-0.543581	-1.225646	0.287122
H67	H	-0.230389	-0.686858	0.286999
H68	H	-0.230396	-0.582740	0.286998
Br69	Br	-0.680628	-1.016121	0.496445
H70	H	-0.543523	-1.043376	0.469251
H71	H	-0.944418	-1.225654	0.286945
Br72	Br	-0.208557	-0.857841	0.259689
Br73	Br	-0.398139	-1.016169	1.100899
H74	H	-0.376274	-1.043338	0.825786
Br75	Br	-1.081538	-1.252932	0.259645
H76	H	-1.063632	-1.043396	0.469027
H77	H	-0.230295	-1.225508	0.676999
H78	H	-0.230364	-1.225685	1.078574
H79	H	-0.376293	-1.043375	0.929905
H80	H	-0.230325	-1.225576	0.825718
H81	H	-0.230337	-1.225616	0.929844
H82	H	-0.376251	-1.043270	0.677054
H83	H	-0.944364	-1.043401	0.469088
Br84	Br	-0.397992	-0.857884	0.496725
H85	H	-0.662845	-1.225641	0.287063
Br86	Br	-0.398013	-0.605041	0.496741
Br87	Br	-0.398016	-0.664657	0.496725
H88	H	-0.230411	-0.434012	0.287010
Br89	Br	-0.398046	-0.411806	0.496741
