data_functionalizedCrystal
_audit_creation_method	'MofGen! by Chris Wilmer'
_symmetry_space_group_name_H-M	'P1'
_symmetry_Int_Tables_number	1
_symmetry_cell_setting	triclinic
loop_
_symmetry_equiv_pos_as_xyz
  x,y,z
_cell_length_a	19.188930
_cell_length_b	19.188930
_cell_length_c	18.266242
_cell_angle_alpha	90.011475
_cell_angle_beta	89.977082
_cell_angle_gamma	96.855221
loop_
_atom_site_label
_atom_site_type_symbol
_atom_site_fract_x
_atom_site_fract_y
_atom_site_fract_z
O1	O	0.926149	-0.087169	-0.061124
O2	O	1.259483	0.246165	0.272209
O3	O	1.592816	0.579498	0.605542
O4	O	0.722838	-0.098903	-0.061075
O5	O	1.056171	0.234430	0.272258
O6	O	1.389505	0.567764	0.605591
O7	O	0.830361	0.008620	-0.061087
O8	O	1.163694	0.341953	0.272246
O9	O	1.497027	0.675286	0.605580
O10	O	0.818627	-0.194691	-0.061113
O11	O	1.151960	0.138642	0.272221
O12	O	1.485293	0.471975	0.605554
O13	O	0.830343	0.008625	0.060675
O14	O	1.163676	0.341959	0.394008
O15	O	1.497009	0.675292	0.727342
O16	O	0.722820	-0.098897	0.060687
O17	O	1.056153	0.234436	0.394020
O18	O	1.389486	0.567769	0.727353
O19	O	0.926131	-0.087163	0.060638
O20	O	1.259464	0.246170	0.393971
O21	O	1.592798	0.579503	0.727304
Zn22	Zn	0.824473	-0.093029	0.079994
Zn23	Zn	1.157806	0.240304	0.413328
Zn24	Zn	1.491139	0.573637	0.746661
Zn25	Zn	0.824497	-0.093037	-0.080432
Zn26	Zn	1.157830	0.240297	0.252901
Zn27	Zn	1.491163	0.573630	0.586234
O28	O	0.818608	-0.194686	0.060649
O29	O	1.151942	0.138647	0.393983
O30	O	1.485275	0.471981	0.727316
C31	C	0.696818	-0.098520	-0.000188
C32	C	1.030151	0.234813	0.333145
C33	C	1.363485	0.568146	0.666479
C34	C	0.619313	-0.097380	-0.000169
C35	C	0.952647	0.235954	0.333165
C36	C	1.285980	0.569287	0.666498
C37	C	0.574389	-0.160470	-0.000188
C38	C	0.907723	0.172863	0.333145
C39	C	1.241056	0.506196	0.666479
C40	C	0.501566	-0.159399	-0.000196
C41	C	0.834899	0.173935	0.333137
C42	C	1.168232	0.507268	0.666471
C43	C	0.473669	-0.095233	-0.000199
C44	C	0.807002	0.238101	0.333134
C45	C	1.140336	0.571434	0.666468
C46	C	0.518603	-0.032133	-0.000175
C47	C	0.851936	0.301200	0.333158
C48	C	1.185270	0.634533	0.666491
C49	C	0.591425	-0.033207	-0.000160
C50	C	0.924758	0.300126	0.333173
C51	C	1.258092	0.633460	0.666506
N52	N	0.365695	-0.046188	-0.041663
N53	N	0.699028	0.287146	0.291670
N54	N	1.032362	0.620479	0.625003
N55	N	0.296516	-0.045172	-0.041679
N56	N	0.629850	0.288161	0.291654
N57	N	0.963183	0.621495	0.624987
C58	C	0.254260	-0.091994	-0.000243
C59	C	0.587594	0.241339	0.333090
C60	C	0.920927	0.574672	0.666423
N61	N	0.283795	-0.139881	0.041200
N62	N	0.617128	0.193452	0.374533
N63	N	0.950462	0.526785	0.707867
N64	N	0.352980	-0.140899	0.041213
N65	N	0.686313	0.192434	0.374546
N66	N	1.019646	0.525768	0.707879
C67	C	0.394707	-0.094062	-0.000215
C68	C	0.728040	0.239272	0.333118
C69	C	1.061373	0.572605	0.666452
C70	C	0.130372	-0.153928	-0.000270
C71	C	0.463705	0.179406	0.333063
C72	C	0.797039	0.512739	0.666396
C73	C	0.057547	-0.152853	-0.000274
C74	C	0.390881	0.180480	0.333060
C75	C	0.724214	0.513813	0.666393
C76	C	0.074586	-0.025586	-0.000261
C77	C	0.407919	0.307747	0.333073
C78	C	0.741253	0.641080	0.666406
C79	C	0.147409	-0.026662	-0.000250
C80	C	0.480743	0.306671	0.333083
C81	C	0.814076	0.640004	0.666417
C82	C	0.175298	-0.090835	-0.000258
C83	C	0.508631	0.242498	0.333075
C84	C	0.841964	0.575832	0.666408
C85	C	0.829972	0.034634	-0.000204
C86	C	1.163305	0.367967	0.333130
C87	C	1.496638	0.701300	0.666463
C88	C	0.828831	0.112138	-0.000197
C89	C	1.162164	0.445471	0.333136
C90	C	1.495498	0.778805	0.666469
C91	C	0.952151	-0.087546	-0.000252
C92	C	1.285485	0.245787	0.333082
C93	C	1.618818	0.579121	0.666415
C94	C	1.029656	-0.088687	-0.000276
C95	C	1.362989	0.244647	0.333058
C96	C	1.696322	0.577980	0.666391
C97	C	0.818997	-0.220700	-0.000236
C98	C	1.152331	0.112634	0.333098
C99	C	1.485664	0.445967	0.666431
C100	C	0.820138	-0.298204	-0.000247
C101	C	1.153471	0.035129	0.333086
C102	C	1.486805	0.368462	0.666420
N103	N	0.824461	-0.093024	0.189481
N104	N	1.157795	0.240309	0.522815
N105	N	1.491128	0.573643	0.856148
C106	C	0.891922	0.157062	-0.000209
C107	C	1.225255	0.490395	0.333124
C108	C	1.558589	0.823729	0.666458
C109	C	0.890850	0.229886	-0.000220
C110	C	1.224184	0.563219	0.333113
C111	C	1.557517	0.896552	0.666446
C112	C	0.826684	0.257782	-0.000206
C113	C	1.160017	0.591116	0.333128
C114	C	1.493351	0.924449	0.666461
C115	C	0.763585	0.212849	-0.000198
C116	C	1.096918	0.546182	0.333135
C117	C	1.430252	0.879515	0.666469
C118	C	0.764658	0.140026	-0.000194
C119	C	1.097992	0.473360	0.333140
C120	C	1.431325	0.806693	0.666473
N121	N	0.777631	0.365789	0.041244
N122	N	1.110964	0.699123	0.374578
N123	N	1.444297	1.032456	0.707911
N124	N	0.776615	0.434968	0.041242
N125	N	1.109948	0.768301	0.374575
N126	N	1.443282	1.101635	0.707909
C127	C	0.823446	0.477191	-0.000220
C128	C	1.156779	0.810524	0.333114
C129	C	1.490113	1.143858	0.666447
N130	N	0.871341	0.447624	-0.041669
N131	N	1.204675	0.780957	0.291664
N132	N	1.538008	1.114290	0.624997
N133	N	0.872359	0.378439	-0.041664
N134	N	1.205692	0.711772	0.291670
N135	N	1.539025	1.045106	0.625003
C136	C	0.825513	0.336745	-0.000210
C137	C	1.158846	0.670078	0.333123
C138	C	1.492180	1.003412	0.666456
C139	C	0.885379	0.601079	-0.000245
C140	C	1.218712	0.934413	0.333089
C141	C	1.552046	1.267746	0.666422
C142	C	0.884305	0.673904	-0.000261
C143	C	1.217638	1.007238	0.333073
C144	C	1.550971	1.340571	0.666406
C145	C	0.757038	0.656865	-0.000231
C146	C	1.090371	0.990199	0.333103
C147	C	1.423704	1.323532	0.666436
C148	C	0.758114	0.584042	-0.000222
C149	C	1.091447	0.917376	0.333111
C150	C	1.424781	1.250709	0.666444
C151	C	0.822287	0.556154	-0.000226
C152	C	1.155620	0.889487	0.333108
C153	C	1.488953	1.222821	0.666441
N154	N	0.824513	-0.093037	-0.189919
N155	N	1.157847	0.240297	0.143414
N156	N	1.491180	0.573630	0.476747
C157	C	0.872088	-0.045436	0.227785
C158	C	1.205421	0.287897	0.561118
C159	C	1.538755	0.621230	0.894452
C160	C	0.872092	-0.045433	0.304430
C161	C	1.205426	0.287900	0.637763
C162	C	1.538759	0.621234	0.971097
C163	C	0.824477	-0.093030	0.342768
C164	C	1.157810	0.240304	0.676102
C165	C	1.491144	0.573637	1.009435
C166	C	0.776841	-0.140621	0.304455
C167	C	1.110175	0.192712	0.637789
C168	C	1.443508	0.526046	0.971122
C169	C	0.776834	-0.140618	0.227812
C170	C	1.110167	0.192715	0.561145
C171	C	1.443500	0.526048	0.894479
N172	N	0.815401	-0.154837	0.463094
N173	N	1.148735	0.178496	0.796427
N174	N	1.482068	0.511830	1.129761
N175	N	0.815413	-0.154838	0.535902
N176	N	1.148746	0.178496	0.869236
N177	N	1.482080	0.511829	1.202569
C178	C	0.824496	-0.093040	0.573691
C179	C	1.157830	0.240294	0.907024
C180	C	1.491163	0.573627	1.240357
N181	N	0.833582	-0.031239	0.535920
N182	N	1.166915	0.302094	0.869254
N183	N	1.500248	0.635427	1.202587
N184	N	0.833574	-0.031240	0.463106
N185	N	1.166907	0.302094	0.796439
N186	N	1.500240	0.635427	1.129772
C187	C	0.824480	-0.093038	0.425875
C188	C	1.157813	0.240296	0.759209
C189	C	1.491146	0.573629	1.092542
C190	C	0.872131	-0.045444	0.695101
C191	C	1.205464	0.287889	1.028435
C192	C	1.538797	0.621222	1.361768
C193	C	0.872130	-0.045440	0.771748
C194	C	1.205463	0.287893	1.105081
C195	C	1.538797	0.621226	1.438414
C196	C	0.776882	-0.140634	0.771772
C197	C	1.110216	0.192699	1.105105
C198	C	1.443549	0.526032	1.438438
C199	C	0.776879	-0.140632	0.695127
C200	C	1.110213	0.192701	1.028460
C201	C	1.443546	0.526034	1.361794
C202	C	0.824507	-0.093038	0.656796
C203	C	1.157841	0.240295	0.990130
C204	C	1.491174	0.573628	1.323463
H205	H	0.153080	-0.206181	-0.000267
H206	H	0.486413	0.127153	0.333067
H207	H	0.819746	0.460486	0.666400
H208	H	0.704792	0.679578	-0.000222
H209	H	1.038126	1.012911	0.333111
H210	H	1.371459	1.346245	0.666444
F211	F	0.951459	0.721716	-0.000278
F212	F	1.284792	1.055050	0.333055
F213	F	1.618125	1.388383	0.666389
F214	F	0.009735	-0.220007	-0.000291
F215	F	0.343068	0.113326	0.333043
F216	F	0.676402	0.446660	0.666376
H217	H	0.706738	0.547464	-0.000208
H218	H	1.040072	0.880797	0.333125
H219	H	1.373405	1.214131	0.666458
H220	H	0.910910	-0.006688	0.663892
H221	H	1.244243	0.326645	0.997225
H222	H	1.577577	0.659979	1.330558
F223	F	0.639238	0.033946	-0.000139
F224	F	0.972572	0.367279	0.333194
F225	F	1.305905	0.700613	0.666527
H226	H	0.910868	-0.006681	0.196579
H227	H	1.244201	0.326653	0.529912
H228	H	1.577534	0.659986	0.863245
H229	H	0.051874	0.026659	-0.000309
H230	H	0.385207	0.359992	0.333025
H231	H	0.718540	0.693326	0.666358
F232	F	0.922786	0.005219	0.345202
F233	F	1.256119	0.338552	0.678536
F234	F	1.589453	0.671886	1.011869
H235	H	0.942228	0.266470	-0.000233
H236	H	1.275561	0.599803	0.333100
H237	H	1.608895	0.933137	0.666434
H238	H	0.183988	0.024713	-0.000238
H239	H	0.517321	0.358046	0.333095
H240	H	0.850654	0.691380	0.666429
H241	H	0.937632	0.578372	-0.000251
H242	H	1.270966	0.911705	0.333082
H243	H	1.604299	1.245038	0.666416
F244	F	0.960220	0.127385	-0.000229
F245	F	1.293554	0.460719	0.333105
F246	F	1.626887	0.794052	0.666438
F247	F	0.697505	0.092213	-0.000182
F248	F	1.030839	0.425546	0.333152
F249	F	1.364172	0.758880	0.666485
F250	F	0.695295	0.242539	-0.000187
F251	F	1.028628	0.575872	0.333147
F252	F	1.361962	0.909206	0.666480
H253	H	0.495885	0.020111	-0.000188
H254	H	0.829218	0.353444	0.333145
H255	H	1.162552	0.686778	0.666479
F256	F	0.922819	0.005215	0.812515
F257	F	1.256153	0.338549	1.145848
F258	F	1.589486	0.671882	1.479182
F259	F	0.604066	-0.228769	-0.000195
F260	F	0.937399	0.104564	0.333139
F261	F	1.270733	0.437898	0.666472
H262	H	0.738110	-0.179386	0.802986
H263	H	1.071444	0.153948	1.136319
H264	H	1.404777	0.487281	1.469653
F265	F	0.726163	-0.191275	0.345258
F266	F	1.059496	0.142059	0.678591
F267	F	1.392830	0.475392	1.011925
F268	F	0.726192	-0.191285	0.654358
F269	F	1.059525	0.142048	0.987691
F270	F	1.392858	0.475382	1.321025
F271	F	0.453745	-0.226551	-0.000215
F272	F	0.787079	0.106782	0.333119
F273	F	1.120412	0.440115	0.666452
F274	F	0.726141	-0.191270	0.187044
F275	F	1.059474	0.142063	0.520378
F276	F	1.392808	0.475397	0.853711
