data_functionalizedCrystal
_audit_creation_method	'MofGen! by Chris Wilmer'
_symmetry_space_group_name_H-M	'P1'
_symmetry_Int_Tables_number	1
_symmetry_cell_setting	triclinic
loop_
_symmetry_equiv_pos_as_xyz
  x,y,z
_cell_length_a	6.817900
_cell_length_b	13.694049
_cell_length_c	17.110486
_cell_angle_alpha	80.501740
_cell_angle_beta	99.060439
_cell_angle_gamma	106.285429
loop_
_atom_site_label
_atom_site_type_symbol
_atom_site_fract_x
_atom_site_fract_y
_atom_site_fract_z
V1	V	-3.978684	-0.140002	-0.216420
O2	O	-3.965284	0.007038	-0.243547
O3	O	-3.932288	-0.277900	-0.184887
O4	O	-3.908512	-0.137712	-0.324518
O5	O	-3.989224	-0.134119	-0.102949
V6	V	-4.464873	-0.122431	-0.206498
O7	O	-4.234093	-0.178547	-0.238183
O8	O	-4.659661	-0.083886	-0.184735
O9	O	-4.288062	0.015467	-0.238031
O10	O	-4.595670	-0.269471	-0.179371
O11	O	-4.571729	-0.128313	-0.319969
O12	O	-4.311838	-0.124720	-0.098400
C13	C	-3.778481	-0.311520	-0.173719
C14	C	-3.821689	-0.424252	-0.148658
C15	C	-3.816198	-0.462808	-0.067529
C16	C	-3.856825	-0.568724	-0.043973
C17	C	-3.902930	-0.636095	-0.101543
C18	C	-3.908406	-0.597539	-0.182673
C19	C	-3.867792	-0.491613	-0.206232
C20	C	-3.954523	-0.664900	-0.240246
C21	C	-3.960000	-0.626344	-0.321377
C22	C	-3.919387	-0.520428	-0.344931
C23	C	-3.873282	-0.453058	-0.287361
C24	C	-3.995138	-0.770826	-0.216688
C25	C	-4.046731	-0.799631	-0.355391
C26	C	-4.006105	-0.693715	-0.378947
C27	C	-3.748152	-0.132696	-0.351831
C28	C	-3.772076	-0.131736	-0.440005
C29	C	-3.964675	-0.136347	-0.484365
C30	C	-3.987143	-0.135444	-0.567214
C31	C	-3.817010	-0.129939	-0.605700
C32	C	-3.624393	-0.125325	-0.561334
C33	C	-3.601926	-0.126220	-0.478488
C34	C	-3.875772	-0.126976	-0.855696
C35	C	-3.898256	-0.126084	-0.938548
C36	C	-4.261004	-0.136201	-0.944422
C37	C	-4.238521	-0.137102	-0.861573
C38	C	-4.045905	-0.132483	-0.817215
C39	C	-3.839972	-0.129019	-0.690384
C40	C	-4.022943	-0.133395	-0.732533
C41	C	-4.105212	0.049082	-0.249196
C42	C	-4.041241	0.161813	-0.274262
C43	C	-4.135541	-0.129740	-0.071082
C44	C	-4.090856	-0.130694	0.017092
H45	H	-3.778675	-0.407947	-0.020664
O46	O	-3.834120	-0.350195	-0.310343
C47	C	-4.007043	-0.327587	-0.358924
H48	H	-4.102977	-0.398663	-0.386745
H49	H	-3.953789	-0.262703	-0.408169
H50	H	-4.104190	-0.303114	-0.321146
H51	H	-4.377065	-0.141584	-0.830244
H52	H	-4.010558	-0.662308	-0.445004
O53	O	-3.990191	-0.808329	-0.137898
C54	C	-4.184454	-0.873647	-0.122815
H55	H	-4.307300	-0.853326	-0.171153
H56	H	-4.219948	-0.863742	-0.062118
H57	H	-4.183203	-0.956687	-0.122978
H58	H	-3.923862	-0.489041	-0.410993
O59	O	-4.091461	-0.865204	-0.411216
C60	C	-4.126177	-0.966960	-0.373028
H61	H	-4.046551	-0.967256	-0.309228
H62	H	-4.061491	-1.013675	-0.406857
H63	H	-4.298556	-1.002233	-0.372119
H64	H	-3.485868	-0.120836	-0.592677
H65	H	-3.936007	-0.722336	-0.082359
H66	H	-4.161461	-0.137875	-0.701195
H67	H	-4.103223	-0.140836	-0.453035
O68	O	-3.851322	-0.606001	0.034865
C69	C	-3.801967	-0.523831	0.080627
H70	H	-3.717582	-0.450762	0.044487
H71	H	-3.699057	-0.541618	0.137444
H72	H	-3.949346	-0.512668	0.096952
H73	H	-4.143972	-0.139192	-0.603329
O74	O	-4.448046	-0.140814	-0.987588
C75	C	-4.509058	-0.228832	-1.027310
H76	H	-4.367333	-0.253721	-1.034378
H77	H	-4.593259	-0.210502	-1.088693
H78	H	-4.615915	-0.293447	-0.990980
O79	O	-3.732742	-0.120674	-0.975815
C80	C	-3.557923	-0.116809	-0.918898
H81	H	-3.581500	-0.086686	-0.863757
H82	H	-3.416763	-0.063549	-0.945470
H83	H	-3.534140	-0.197064	-0.901441
H84	H	-3.718951	-0.123251	-0.819586
O85	O	-3.414867	-0.121926	-0.435413
C86	C	-3.347140	-0.206838	-0.445526
H87	H	-3.485400	-0.271213	-0.464175
H88	H	-3.262555	-0.234744	-0.386905
H89	H	-3.238702	-0.183221	-0.493674
H90	H	-3.701455	-0.124541	-0.721729
