data_functionalizedCrystal
_audit_creation_method	'MofGen! by Chris Wilmer'
_symmetry_space_group_name_H-M	'P1'
_symmetry_Int_Tables_number	1
_symmetry_cell_setting	triclinic
loop_
_symmetry_equiv_pos_as_xyz
  x,y,z
_cell_length_a	10.489716
_cell_length_b	10.489716
_cell_length_c	10.868271
_cell_angle_alpha	89.998908
_cell_angle_beta	89.996064
_cell_angle_gamma	84.529136
loop_
_atom_site_label
_atom_site_type_symbol
_atom_site_fract_x
_atom_site_fract_y
_atom_site_fract_z
O1	O	1.694056	0.179822	-0.102300
O2	O	1.322854	0.196747	-0.102304
O3	O	1.516918	0.002684	-0.102306
O4	O	1.499992	0.373885	-0.102298
O5	O	1.516902	0.002676	0.102338
O6	O	1.322838	0.196739	0.102341
O7	O	1.694039	0.179814	0.102344
Zn8	Zn	1.508436	0.188275	0.134834
Zn9	Zn	1.508458	0.188286	-0.134794
O10	O	1.499976	0.373877	0.102347
C11	C	1.275314	0.195472	0.000018
C12	C	1.133684	0.191667	0.000016
C13	C	1.035999	0.310673	0.000016
C14	C	0.958651	0.247784	0.100921
C15	C	0.958673	0.247763	-0.100843
C16	C	1.058201	0.128828	0.101004
C17	C	1.058229	0.128825	-0.100850
C18	C	0.980929	0.065848	0.000079
C19	C	1.515638	-0.044852	0.000012
C20	C	1.511833	-0.186483	0.000001
C21	C	1.630839	-0.284167	0.000013
C22	C	1.567962	-0.361518	-0.100885
C23	C	1.567918	-0.361490	0.100879
C24	C	1.449006	-0.261969	-0.100980
C25	C	1.448980	-0.261935	0.100874
C26	C	1.386015	-0.339237	-0.000049
C27	C	1.741580	0.181089	0.000020
C28	C	1.883210	0.184894	0.000014
C29	C	1.501256	0.421413	0.000026
C30	C	1.505061	0.563044	0.000029
N31	N	1.508431	0.188268	0.318848
N32	N	1.508473	0.188283	-0.318808
C33	C	1.508451	0.188283	0.569854
C34	C	1.508436	0.188278	0.430177
H35	H	0.956508	-0.037744	0.000135
H36	H	1.734354	-0.259500	-0.000088
C37	C	1.202575	0.452577	-0.000947
C38	C	1.069317	0.450407	0.000144
H39	H	1.223143	0.538841	-0.000871
H40	H	1.238127	0.409908	0.070000
H41	H	1.236824	0.410471	-0.072723
H42	H	1.035069	0.492505	0.071925
H43	H	1.033750	0.493094	-0.070810
C44	C	1.250106	0.064410	-0.214161
C45	C	1.116993	0.061068	-0.216011
H46	H	1.286385	0.022579	-0.285260
H47	H	1.269890	0.150901	-0.213445
H48	H	1.284320	0.021995	-0.142531
H49	H	1.082778	0.103491	-0.287637
H50	H	1.097200	-0.025439	-0.216739
H51	H	1.618205	-0.405015	-0.186187
H52	H	0.915192	0.298028	-0.186138
H53	H	1.398803	-0.218657	-0.186376
H54	H	1.398780	-0.218416	0.186180
C55	C	0.927159	0.443700	0.215900
C56	C	0.899923	0.315592	0.216080
H57	H	0.890897	0.485567	0.286988
H58	H	1.017289	0.447314	0.216350
H59	H	0.891739	0.485105	0.144246
H60	H	0.935350	0.274185	0.287730
H61	H	0.809774	0.311971	0.215641
C62	C	1.249667	0.065331	0.215272
C63	C	1.116659	0.061056	0.216290
H64	H	1.285754	0.023501	0.286449
H65	H	1.284610	0.023366	0.143715
H66	H	1.268838	0.152029	0.214983
H67	H	1.097488	-0.025642	0.216570
H68	H	1.081705	0.103018	0.287866
C69	C	1.763851	-0.392920	0.215828
C70	C	1.635749	-0.420176	0.216040
H71	H	1.805728	-0.429143	0.286923
H72	H	1.805249	-0.428354	0.144187
H73	H	1.767448	-0.302775	0.216251
H74	H	1.632151	-0.510321	0.215608
H75	H	1.594339	-0.384747	0.287699
H76	H	1.282422	-0.363659	-0.000104
