data_functionalizedCrystal
_audit_creation_method	'MofGen! by Chris Wilmer'
_symmetry_space_group_name_H-M	'P1'
_symmetry_Int_Tables_number	1
_symmetry_cell_setting	triclinic
loop_
_symmetry_equiv_pos_as_xyz
  x,y,z
_cell_length_a	18.101398
_cell_length_b	18.101395
_cell_length_c	10.686551
_cell_angle_alpha	85.593544
_cell_angle_beta	85.607424
_cell_angle_gamma	90.029256
loop_
_atom_site_label
_atom_site_type_symbol
_atom_site_fract_x
_atom_site_fract_y
_atom_site_fract_z
Zn1	Zn	1.164287	-0.262694	-0.713341
Zn2	Zn	1.154668	-0.396059	-0.502332
Zn3	Zn	1.030933	-0.272231	-0.502368
Zn4	Zn	1.040395	-0.386496	-0.713293
O5	O	1.097571	-0.329370	-0.607833
O6	O	1.266644	-0.280396	-0.685355
O7	O	1.130269	-0.387626	-0.325756
O8	O	1.048688	-0.167331	-0.530388
O9	O	1.259577	-0.378379	-0.530328
O10	O	1.146663	-0.160325	-0.685390
O11	O	1.039361	-0.296650	-0.325782
O12	O	0.928555	-0.287377	-0.530342
O13	O	1.064815	-0.362080	-0.889881
O14	O	0.935507	-0.371328	-0.685308
O15	O	1.155838	-0.271123	-0.889916
O16	O	1.139444	-0.498425	-0.530282
O17	O	1.055488	-0.491399	-0.685274
C18	C	0.905160	-0.329350	-0.607825
C19	C	0.822847	-0.329358	-0.607851
C20	C	0.672138	-0.329372	-0.607849
C21	C	0.645177	-0.382286	-0.705198
C22	C	0.559545	-0.382531	-0.704910
C23	C	0.523756	-0.329385	-0.607849
C24	C	0.548805	-0.356218	-0.474703
C25	C	0.634475	-0.356601	-0.475266
C26	C	0.642179	-0.249535	-0.642482
C27	C	0.556661	-0.249832	-0.645415
C28	C	0.439896	-0.329392	-0.607841
C29	C	0.755998	-0.329367	-0.607848
C30	C	1.097470	-0.521782	-0.607796
C31	C	1.097497	-0.604095	-0.607823
C32	C	1.097662	-0.903183	-0.607891
C33	C	1.044983	-0.867457	-0.705650
C34	C	1.044698	-0.781853	-0.705344
C35	C	1.097580	-0.754802	-0.607858
C36	C	1.070454	-0.791951	-0.474872
C37	C	1.070113	-0.877569	-0.475457
C38	C	1.177540	-0.869993	-0.641947
C39	C	1.177210	-0.784211	-0.644864
C40	C	1.097535	-0.670944	-0.607831
C41	C	1.097705	-0.987042	-0.607908
C42	C	1.290733	-0.329391	-0.607843
C43	C	1.373047	-0.329399	-0.607847
C44	C	1.112455	-0.314471	-0.936964
C45	C	1.118798	-0.308123	-1.077220
C46	C	1.097693	-0.136205	-0.607898
C47	C	1.097746	-0.053890	-0.607926
C48	C	1.082787	-0.344157	-0.279983
C49	C	1.076588	-0.350297	-0.139728
H50	H	0.525983	-0.414145	-0.444933
C51	C	0.659346	-0.434594	-0.436007
C52	C	0.697454	-0.433475	-0.326986
C53	C	0.720364	-0.505311	-0.290778
H54	H	0.691142	-0.452482	-0.501707
H55	H	0.617233	-0.466194	-0.419675
H56	H	0.739562	-0.401886	-0.343323
H57	H	0.665673	-0.415601	-0.261261
H58	H	0.678250	-0.536912	-0.274446
H59	H	0.752157	-0.523193	-0.356485
H60	H	0.746217	-0.504563	-0.216797
H61	H	1.216861	-0.893456	-0.570746
H62	H	0.525098	-0.319121	-0.400178
H63	H	1.035600	-0.391264	-1.085945
H64	H	0.543001	-0.365087	-0.803619
C65	C	0.678722	-0.359117	-0.837131
C66	C	0.724223	-0.296877	-0.833372
C67	C	0.755149	-0.275517	-0.954885
H68	H	0.640240	-0.347322	-0.890799
H69	H	0.707332	-0.398643	-0.868432
H70	H	0.695614	-0.257360	-0.802088
H71	H	0.762718	-0.308654	-0.779728
H72	H	0.783760	-0.315042	-0.986185
H73	H	0.716662	-0.263726	-1.008544
H74	H	0.786030	-0.233289	-0.952349
H75	H	1.201102	-0.887243	-0.737268
H76	H	1.159793	-0.267158	-1.131010
H77	H	0.665641	-0.440982	-0.682499
H78	H	0.537987	-0.441573	-0.681933
C79	C	1.119606	-0.769440	-0.374930
C80	C	1.093851	-0.803573	-0.257681
C81	C	1.139128	-0.782874	-0.165596
H82	H	1.118355	-0.717164	-0.371593
H83	H	1.169046	-0.784535	-0.395330
H84	H	1.044424	-0.788473	-0.237286
H85	H	1.095105	-0.855848	-0.260977
H86	H	1.188568	-0.797970	-0.185996
H87	H	1.137873	-0.730598	-0.162271
H88	H	1.121664	-0.806035	-0.086035
C89	C	0.657472	-0.307873	-0.375080
C90	C	0.594240	-0.278214	-0.314316
C91	C	0.615391	-0.233343	-0.221993
H92	H	0.688372	-0.268734	-0.413384
H93	H	0.683805	-0.336700	-0.315350
H94	H	0.567919	-0.249388	-0.374036
H95	H	0.563333	-0.317336	-0.275985
H96	H	0.641724	-0.262170	-0.162263
H97	H	0.646291	-0.194208	-0.260308
H98	H	0.572491	-0.213219	-0.180746
H99	H	0.668109	-0.226202	-0.737936
C100	C	0.535642	-0.223007	-0.776168
C101	C	0.600043	-0.209058	-0.855718
C102	C	0.580704	-0.184359	-0.976181
H103	H	0.507701	-0.178761	-0.771616
H104	H	0.506787	-0.259973	-0.808484
H105	H	0.628887	-0.172095	-0.823410
H106	H	0.627992	-0.253294	-0.860308
H107	H	0.551849	-0.221325	-1.008497
H108	H	0.552763	-0.140115	-0.971615
H109	H	0.624397	-0.174898	-1.030173
H110	H	1.062532	-0.883543	-0.804577
C111	C	0.524160	-0.193963	-0.557655
C112	C	0.473549	-0.229808	-0.467296
C113	C	0.443606	-0.178371	-0.386405
H114	H	0.499515	-0.156194	-0.604821
H115	H	0.562829	-0.172532	-0.516891
H116	H	0.434886	-0.251227	-0.508057
H117	H	0.498177	-0.267573	-0.420099
H118	H	0.482275	-0.156940	-0.345641
H119	H	0.418965	-0.140604	-0.433582
H120	H	0.409269	-0.202685	-0.325080
H121	H	0.659259	-0.210041	-0.571585
H122	H	1.062364	-0.756342	-0.803952
H123	H	0.986263	-0.890047	-0.683375
H124	H	0.985612	-0.762445	-0.682786
C125	C	0.991963	-0.905885	-0.437033
C126	C	0.945500	-0.845894	-0.413501
C127	C	0.873500	-0.871944	-0.378122
H128	H	0.992317	-0.938457	-0.363025
H129	H	0.974282	-0.931671	-0.503022
H130	H	0.963177	-0.820120	-0.347517
H131	H	0.945124	-0.813317	-0.487493
H132	H	0.855818	-0.897730	-0.444111
H133	H	0.873861	-0.904516	-0.304116
H134	H	0.841965	-0.831244	-0.362162
H135	H	1.106493	-0.901685	-0.400135
C136	C	1.204294	-0.751327	-0.775484
C137	C	1.218433	-0.808520	-0.854941
C138	C	1.243357	-0.778258	-0.975293
H139	H	1.248504	-0.723740	-0.770666
H140	H	1.167389	-0.719597	-0.808056
H141	H	1.255336	-0.840237	-0.822377
H142	H	1.174234	-0.836111	-0.859797
H143	H	1.206452	-0.746528	-1.007865
H144	H	1.287565	-0.750672	-0.970461
H145	H	1.252947	-0.817058	-1.029222
H146	H	1.012469	-0.771889	-0.445504
C147	C	1.233014	-0.759786	-0.556814
C148	C	1.264393	-0.822324	-0.496800
C149	C	1.315804	-0.799855	-0.415679
H150	H	1.208745	-0.731027	-0.495471
H151	H	1.270883	-0.730888	-0.603851
H152	H	1.226530	-0.851209	-0.449766
H153	H	1.288675	-0.851091	-0.558112
H154	H	1.353673	-0.770958	-0.462716
H155	H	1.291530	-0.771096	-0.354343
H156	H	1.337106	-0.842283	-0.374959
