data_functionalizedCrystal
_audit_creation_method	'MofGen! by Chris Wilmer'
_symmetry_space_group_name_H-M	'P1'
_symmetry_Int_Tables_number	1
_symmetry_cell_setting	triclinic
loop_
_symmetry_equiv_pos_as_xyz
  x,y,z
_cell_length_a	10.686220
_cell_length_b	25.639239
_cell_length_c	10.686551
_cell_angle_alpha	85.590528
_cell_angle_beta	90.308082
_cell_angle_gamma	94.420676
loop_
_atom_site_label
_atom_site_type_symbol
_atom_site_fract_x
_atom_site_fract_y
_atom_site_fract_z
Zn1	Zn	1.972159	-0.127472	-0.562366
Zn2	Zn	1.955834	-0.222109	-0.352592
Zn3	Zn	1.746264	-0.140848	-0.368681
Zn4	Zn	1.762265	-0.221050	-0.578370
O5	O	1.859130	-0.177870	-0.465502
O6	O	2.145540	-0.134872	-0.521108
O7	O	1.914505	-0.217371	-0.179180
O8	O	1.776365	-0.065903	-0.394409
O9	O	2.133546	-0.204401	-0.366988
O10	O	1.942329	-0.056076	-0.536709
O11	O	1.760535	-0.157668	-0.191000
O12	O	1.572839	-0.156641	-0.409928
O13	O	1.803636	-0.202595	-0.751793
O14	O	1.584595	-0.215565	-0.563985
O15	O	1.957844	-0.133844	-0.740035
O16	O	1.930021	-0.295139	-0.382506
O17	O	1.787807	-0.294361	-0.548384
C18	C	1.533200	-0.187440	-0.490440
C19	C	1.393768	-0.191545	-0.501138
C20	C	1.858915	-0.313720	-0.465461
C21	C	1.858941	-0.371833	-0.465476
C22	C	1.933401	-0.732571	-0.379250
C23	C	1.933451	-0.787174	-0.379263
O24	O	1.996536	-0.815738	-0.305904
N25	N	1.859357	-0.814099	-0.465568
C26	C	1.785218	-0.786419	-0.551874
O27	O	1.722201	-0.814336	-0.625286
C28	C	1.785176	-0.731818	-0.551866
C29	C	1.859265	-0.704895	-0.465547
C30	C	2.007485	-0.705649	-0.292939
C31	C	2.007433	-0.651050	-0.292925
C32	C	1.933297	-0.623374	-0.379222
C33	C	1.859213	-0.650297	-0.465533
C34	C	1.711045	-0.704138	-0.638177
C35	C	1.711010	-0.649533	-0.638162
C36	C	1.785099	-0.622611	-0.551843
C37	C	1.785025	-0.568023	-0.551816
N38	N	1.859119	-0.541097	-0.465510
C39	C	1.933255	-0.568773	-0.379213
C40	C	1.785314	-0.901087	-0.551887
C41	C	1.785349	-0.955688	-0.551890
C42	C	1.933583	-0.956438	-0.379280
C43	C	1.933541	-0.901836	-0.379272
C44	C	1.859408	-0.874161	-0.465581
C45	C	1.933139	-0.454112	-0.379189
C46	C	1.933077	-0.399509	-0.379179
C47	C	1.784847	-0.398763	-0.551793
C48	C	1.784904	-0.453362	-0.551799
C49	C	1.859060	-0.481035	-0.465493
O50	O	1.721976	-0.539424	-0.625140
O51	O	1.996274	-0.540849	-0.305825
C52	C	2.186333	-0.168263	-0.440468
C53	C	2.325768	-0.164169	-0.429800
C54	C	1.884346	-0.166610	-0.792704
C55	C	1.895092	-0.161811	-0.932138
C56	C	1.859383	-0.041486	-0.465568
C57	C	1.859490	0.016632	-0.465597
C58	C	1.834084	-0.189046	-0.139567
C59	C	1.823582	-0.193690	-0.000116
H60	H	1.374220	-0.137590	-0.360538
H61	H	1.754142	-0.224655	-0.951643
H62	H	1.993527	-0.476637	-0.308913
H63	H	2.067766	-0.629133	-0.222640
H64	H	1.964545	-0.130848	-0.980617
O65	O	1.336118	-0.223221	-0.583936
C66	C	1.377699	-0.206630	-0.706592
H67	H	1.473100	-0.183669	-0.702061
H68	H	1.307286	-0.180463	-0.754542
C69	C	1.272195	-0.283072	-0.787489
C70	C	1.389373	-0.254875	-0.781924
H71	H	1.279391	-0.312831	-0.833960
H72	H	1.244177	-0.294249	-0.704854
H73	H	1.213529	-0.261260	-0.827444
H74	H	1.448032	-0.276684	-0.741955
H75	H	1.417401	-0.243702	-0.864554
O76	O	2.005168	-0.373436	-0.295278
C77	C	2.070589	-0.409578	-0.219098
H78	H	2.078884	-0.446593	-0.270171
H79	H	2.017388	-0.420050	-0.127298
C80	C	2.192527	-0.339446	-0.128174
C81	C	2.202723	-0.384907	-0.190906
H82	H	2.274031	-0.324228	-0.110778
H83	H	2.148448	-0.315096	-0.179493
H84	H	2.148187	-0.348179	-0.051680
H85	H	2.247048	-0.376172	-0.267405
H86	H	2.246813	-0.409255	-0.139599
O87	O	1.638882	-0.622733	-0.722058
C88	C	1.573536	-0.658207	-0.798263
H89	H	1.565304	-0.699032	-0.747208
H90	H	1.626760	-0.659353	-0.890058
C91	C	1.451487	-0.590117	-0.889174
C92	C	1.441367	-0.640259	-0.826464
H93	H	1.369961	-0.579046	-0.906575
H94	H	1.495515	-0.566217	-0.837838
H95	H	1.495846	-0.591079	-0.965663
H96	H	1.397023	-0.639295	-0.749969
H97	H	1.397328	-0.664159	-0.877788
H98	H	2.067862	-0.728176	-0.222665
H99	H	1.724579	-0.475283	-0.622091
H100	H	1.650707	-0.726050	-0.708462
O101	O	1.713032	-0.371838	-0.635740
C102	C	1.790630	-0.335316	-0.711313
H103	H	1.890036	-0.348561	-0.711578
H104	H	1.791970	-0.295147	-0.672175
C105	C	1.617211	-0.315521	-0.846053
C106	C	1.739301	-0.331792	-0.846386
H107	H	1.585547	-0.313344	-0.929372
H108	H	1.564930	-0.340125	-0.795136
H109	H	1.618344	-0.282049	-0.813432
H110	H	1.738165	-0.365266	-0.878992
H111	H	1.791581	-0.307193	-0.897313
O112	O	2.005630	-0.875764	-0.295377
C113	C	2.071038	-0.911909	-0.219192
H114	H	2.079323	-0.948926	-0.270262
H115	H	2.017831	-0.922378	-0.127393
C116	C	2.192992	-0.841782	-0.128268
C117	C	2.203177	-0.887245	-0.190997
H118	H	2.274500	-0.826568	-0.110869
H119	H	2.148923	-0.817430	-0.179591
H120	H	2.148648	-0.850512	-0.051776
H121	H	2.247506	-0.878513	-0.267493
H122	H	2.247257	-0.911595	-0.139685
O123	O	2.005669	-0.983400	-0.295653
C124	C	1.989839	-1.037363	-0.314205
H125	H	1.956015	-1.042689	-0.414099
H126	H	1.917481	-1.057453	-0.244776
C127	C	2.157527	-1.055433	-0.170624
C128	C	2.115993	-1.061975	-0.293319
H129	H	2.235342	-1.070617	-0.157736
H130	H	2.168189	-1.019078	-0.158121
H131	H	2.097218	-1.072175	-0.112781
H132	H	2.176294	-1.045229	-0.351159
H133	H	2.105344	-1.098329	-0.305832
H134	H	1.725005	-0.977604	-0.622169
H135	H	1.724935	-0.878556	-0.622167
